=
 OpenBabel11062419223D

 38 41  0  0  1  0  0  0  0  0999 V2000
  189.9640  173.9870  144.1320 C   0  0  2  0  0  3  0  0  0  0  0  0
  188.5540  172.6360  142.0660 N   0  0  0  0  0  0  0  0  0  0  0  0
  189.5370  171.9640  145.3470 O   0  0  0  0  0  1  0  0  0  0  0  0
  189.0040  171.9190  143.0400 C   0  0  0  0  0  3  0  0  0  0  0  0
  188.9230  174.3870  140.5130 N   0  0  0  0  0  1  0  0  0  0  0  0
  189.9230  172.4590  144.1010 C   0  0  1  0  0  3  0  0  0  0  0  0
  188.7880  174.0610  141.9220 C   0  0  2  0  0  3  0  0  0  0  0  0
  190.0160  174.5440  142.7030 C   0  0  1  0  0  3  0  0  0  0  0  0
  192.0580  175.2650  147.0210 C   0  0  2  0  0  3  0  0  0  0  0  0
  193.1900  175.8840  146.2080 C   0  0  0  0  0  2  0  0  0  0  0  0
  192.4140  174.4860  144.3510 O   0  0  0  0  0  0  0  0  0  0  0  0
  190.9580  174.8430  146.1590 N   0  0  0  0  0  0  0  0  0  0  0  0
  191.5550  176.2550  148.0480 C   0  0  0  0  0  1  0  0  0  0  0  0
  191.1410  174.4420  144.9370 C   0  0  0  0  0  0  0  0  0  0  0  0
  193.5700  174.9600  145.0440 C   0  0  2  0  0  3  0  0  0  0  0  0
  194.5030  173.7930  145.4160 C   0  0  1  0  0  3  0  0  0  0  0  0
  194.3110  171.2570  145.5920 C   0  0  0  0  0  1  0  0  0  0  0  0
  195.1000  172.3230  143.6110 O   0  0  0  0  0  1  0  0  0  0  0  0
  194.2220  172.4730  144.6840 C   0  0  2  0  0  3  0  0  0  0  0  0
  195.9580  174.1440  145.5130 C   0  0  0  0  0  0  0  0  0  0  0  0
  196.7190  173.5120  146.2960 O   0  0  0  0  0  0  0  0  0  0  0  0
  197.4980  174.9100  143.7540 C   0  0  0  0  0  1  0  0  0  0  0  0
  196.4640  175.1550  144.6950 O   0  0  0  0  0  0  0  0  0  0  0  0
  190.0790  176.0480  142.6970 C   0  0  0  0  0  0  0  0  0  0  0  0
  191.1580  176.6010  142.5580 O   0  0  0  0  0  0  0  0  0  0  0  0
  188.8410  176.8690  142.8950 C   0  0  0  0  0  2  0  0  0  0  0  0
  188.9440  177.8260  144.4380 S   0  0  0  0  0  0  0  0  0  0  0  0
  185.5880  177.8490  144.0720 C   0  0  0  0  0  3  0  0  0  0  0  0
  187.9080  175.3630  147.1550 F   0  0  0  0  0  0  0  0  0  0  0  0
  187.8890  176.6990  146.8000 C   0  0  0  0  0  0  0  0  0  0  0  0
  189.0640  177.3030  147.2190 F   0  0  0  0  0  0  0  0  0  0  0  0
  184.6720  178.4230  146.6850 C   0  0  0  0  0  3  0  0  0  0  0  0
  187.6580  176.8230  145.2660 C   0  0  1  0  0  3  0  0  0  0  0  0
  186.7740  177.3400  147.4180 O   0  0  0  0  0  0  0  0  0  0  0  0
  185.8910  177.7840  146.4600 C   0  0  0  0  0  0  0  0  0  0  0  0
  184.3550  178.4940  144.2660 C   0  0  0  0  0  3  0  0  0  0  0  0
  183.9000  178.7820  145.5680 C   0  0  0  0  0  3  0  0  0  0  0  0
  186.3410  177.5130  145.1990 C   0  0  0  0  0  0  0  0  0  0  0  0
  1 14  1  1  0  0  0
  2  4  2  0  0  0  0
  4  6  1  0  0  0  0
  6  1  1  0  0  0  0
  6  3  1  1  0  0  0
  7  5  1  6  0  0  0
  7  2  1  0  0  0  0
  7  8  1  0  0  0  0
  8 24  1  1  0  0  0
  8  1  1  0  0  0  0
  9 13  1  1  0  0  0
 10  9  1  0  0  0  0
 11 14  1  0  0  0  0
 11 15  1  0  0  0  0
 12  9  1  0  0  0  0
 14 12  2  0  0  0  0
 15 16  1  1  0  0  0
 15 10  1  0  0  0  0
 16 20  1  6  0  0  0
 18 19  1  0  0  0  0
 19 16  1  0  0  0  0
 19 17  1  1  0  0  0
 20 21  2  0  0  0  0
 22 23  1  0  0  0  0
 23 20  1  0  0  0  0
 24 26  1  0  0  0  0
 25 24  2  0  0  0  0
 26 27  1  0  0  0  0
 28 36  2  0  0  0  0
 28 38  1  0  0  0  0
 30 29  1  0  0  0  0
 30 31  1  0  0  0  0
 30 34  1  0  0  0  0
 33 27  1  1  0  0  0
 33 30  1  0  0  0  0
 35 32  1  0  0  0  0
 35 34  1  0  0  0  0
 36 37  1  0  0  0  0
 37 32  2  0  0  0  0
 38 33  1  0  0  0  0
 38 35  2  0  0  0  0
M  END
>  <MODEL>
1

>  <REMARK>
 VINA RESULT:      -8.0      0.000      0.000
  Name = 
  9 active torsions:
  status: ('A' for Active; 'I' for Inactive)
    1  A    between atoms: C_1  and  C_26
    2  A    between atoms: C_2  and  C_19
    3  A    between atoms: C_2  and  O_33
    4  A    between atoms: C_9  and  C_29
    5  A    between atoms: C_9  and  C_36
    6  A    between atoms: C_17  and  S_21
    7  A    between atoms: C_19  and  C_28
    8  A    between atoms: C_19  and  C_34
    9  A    between atoms: S_21  and  C_29
                            x       y       z     vdW  Elec       q    Type
                         _______ _______ _______ _____ _____    ______ ____

>  <TORSDO>
F 9

$$$$
=
 OpenBabel11062419223D

 38 41  0  0  1  0  0  0  0  0999 V2000
  189.0910  175.5660  142.8610 C   0  0  2  0  0  3  0  0  0  0  0  0
  188.7770  174.0930  140.4500 N   0  0  0  0  0  0  0  0  0  0  0  0
  188.3520  177.3950  141.4980 O   0  0  0  0  0  1  0  0  0  0  0  0
  188.1990  175.2440  140.5180 C   0  0  0  0  0  3  0  0  0  0  0  0
  189.3070  172.0380  141.5030 N   0  0  0  0  0  1  0  0  0  0  0  0
  188.1180  176.0510  141.7850 C   0  0  1  0  0  3  0  0  0  0  0  0
  189.5030  173.4760  141.5440 C   0  0  2  0  0  3  0  0  0  0  0  0
  189.1000  174.0330  142.9150 C   0  0  1  0  0  3  0  0  0  0  0  0
  189.3590  177.1270  146.3040 C   0  0  2  0  0  3  0  0  0  0  0  0
  188.0270  176.6390  146.8650 C   0  0  0  0  0  2  0  0  0  0  0  0
  187.3590  176.2660  144.5370 O   0  0  0  0  0  0  0  0  0  0  0  0
  189.6460  176.5100  145.0130 N   0  0  0  0  0  0  0  0  0  0  0  0
  190.4760  176.8230  147.2780 C   0  0  0  0  0  1  0  0  0  0  0  0
  188.7120  176.1560  144.1840 C   0  0  0  0  0  0  0  0  0  0  0  0
  186.9280  176.7690  145.8040 C   0  0  2  0  0  3  0  0  0  0  0  0
  186.3260  178.1790  145.6570 C   0  0  1  0  0  3  0  0  0  0  0  0
  185.4560  179.9990  144.1000 C   0  0  0  0  0  1  0  0  0  0  0  0
  184.7260  177.7370  143.9200 O   0  0  0  0  0  1  0  0  0  0  0  0
  185.8240  178.5320  144.2510 C   0  0  2  0  0  3  0  0  0  0  0  0
  185.4030  178.5960  146.7630 C   0  0  0  0  0  0  0  0  0  0  0  0
  184.3030  178.0020  146.9380 O   0  0  0  0  0  0  0  0  0  0  0  0
  186.8470  179.4620  148.5550 C   0  0  0  0  0  1  0  0  0  0  0  0
  185.7960  179.6270  147.6170 O   0  0  0  0  0  0  0  0  0  0  0  0
  190.0330  173.5220  143.9800 C   0  0  0  0  0  0  0  0  0  0  0  0
  189.5690  173.0140  144.9880 O   0  0  0  0  0  0  0  0  0  0  0  0
  191.5180  173.6640  143.8320 C   0  0  0  0  0  2  0  0  0  0  0  0
  192.2820  174.1130  145.4200 S   0  0  0  0  0  0  0  0  0  0  0  0
  194.8420  172.0340  144.6960 C   0  0  0  0  0  3  0  0  0  0  0  0
  194.9040  176.5980  144.2070 F   0  0  0  0  0  0  0  0  0  0  0  0
  194.5830  175.7360  145.2390 C   0  0  0  0  0  0  0  0  0  0  0  0
  193.7860  176.3960  146.1600 F   0  0  0  0  0  0  0  0  0  0  0  0
  196.9920  173.1490  146.1560 C   0  0  0  0  0  3  0  0  0  0  0  0
  193.9070  174.4610  144.6560 C   0  0  1  0  0  3  0  0  0  0  0  0
  195.7800  175.2890  145.8750 O   0  0  0  0  0  0  0  0  0  0  0  0
  195.9290  173.9300  145.7070 C   0  0  0  0  0  0  0  0  0  0  0  0
  195.9000  171.2200  145.1340 C   0  0  0  0  0  3  0  0  0  0  0  0
  196.9700  171.7750  145.8640 C   0  0  0  0  0  3  0  0  0  0  0  0
  194.8840  173.3950  145.0100 C   0  0  0  0  0  0  0  0  0  0  0  0
  1  8  1  0  0  0  0
  1 14  1  1  0  0  0
  2  4  2  0  0  0  0
  2  7  1  0  0  0  0
  4  6  1  0  0  0  0
  6  3  1  6  0  0  0
  6  1  1  0  0  0  0
  7  5  1  1  0  0  0
  7  8  1  0  0  0  0
  8 24  1  1  0  0  0
  9 10  1  0  0  0  0
  9 13  1  1  0  0  0
 11 15  1  0  0  0  0
 12  9  1  0  0  0  0
 14 11  1  0  0  0  0
 14 12  2  0  0  0  0
 15 16  1  6  0  0  0
 15 10  1  0  0  0  0
 16 20  1  1  0  0  0
 18 19  1  0  0  0  0
 19 17  1  1  0  0  0
 19 16  1  0  0  0  0
 20 21  2  0  0  0  0
 20 23  1  0  0  0  0
 23 22  1  0  0  0  0
 24 25  2  0  0  0  0
 26 24  1  0  0  0  0
 26 27  1  0  0  0  0
 28 38  2  0  0  0  0
 28 36  1  0  0  0  0
 29 30  1  0  0  0  0
 30 34  1  0  0  0  0
 30 31  1  0  0  0  0
 33 38  1  0  0  0  0
 33 30  1  0  0  0  0
 33 27  1  1  0  0  0
 35 34  1  0  0  0  0
 35 32  2  0  0  0  0
 36 37  2  0  0  0  0
 37 32  1  0  0  0  0
 38 35  1  0  0  0  0
M  END
>  <MODEL>
2

>  <REMARK>
 VINA RESULT:      -7.5      2.301      8.243
  Name = 
  9 active torsions:
  status: ('A' for Active; 'I' for Inactive)
    1  A    between atoms: C_1  and  C_26
    2  A    between atoms: C_2  and  C_19
    3  A    between atoms: C_2  and  O_33
    4  A    between atoms: C_9  and  C_29
    5  A    between atoms: C_9  and  C_36
    6  A    between atoms: C_17  and  S_21
    7  A    between atoms: C_19  and  C_28
    8  A    between atoms: C_19  and  C_34
    9  A    between atoms: S_21  and  C_29
                            x       y       z     vdW  Elec       q    Type
                         _______ _______ _______ _____ _____    ______ ____

>  <TORSDO>
F 9

$$$$
=
 OpenBabel11062419223D

 38 41  0  0  1  0  0  0  0  0999 V2000
  192.3030  172.1490  144.1190 C   0  0  2  0  0  3  0  0  0  0  0  0
  192.1070  169.7460  142.6140 N   0  0  0  0  0  0  0  0  0  0  0  0
  194.0240  170.9430  145.2740 O   0  0  0  0  0  1  0  0  0  0  0  0
  193.1770  169.9190  143.3130 C   0  0  0  0  0  3  0  0  0  0  0  0
  190.4860  170.6620  141.1490 N   0  0  0  0  0  1  0  0  0  0  0  0
  193.5060  171.2130  144.0070 C   0  0  1  0  0  3  0  0  0  0  0  0
  191.0440  170.7270  142.4880 C   0  0  2  0  0  3  0  0  0  0  0  0
  191.5090  172.1520  142.8060 C   0  0  1  0  0  3  0  0  0  0  0  0
  192.9140  175.3380  146.0760 C   0  0  2  0  0  3  0  0  0  0  0  0
  193.0700  176.2880  144.8940 C   0  0  0  0  0  2  0  0  0  0  0  0
  193.4810  174.2880  143.5390 O   0  0  0  0  0  0  0  0  0  0  0  0
  192.4640  174.0190  145.6380 N   0  0  0  0  0  0  0  0  0  0  0  0
  191.9320  175.9090  147.0760 C   0  0  0  0  0  1  0  0  0  0  0  0
  192.7700  173.5260  144.4770 C   0  0  0  0  0  0  0  0  0  0  0  0
  193.9100  175.6280  143.7930 C   0  0  2  0  0  3  0  0  0  0  0  0
  195.4320  175.6830  144.0130 C   0  0  1  0  0  3  0  0  0  0  0  0
  196.4000  174.1750  145.8270 C   0  0  0  0  0  1  0  0  0  0  0  0
  197.2650  174.1830  143.6060 O   0  0  0  0  0  1  0  0  0  0  0  0
  196.0940  174.3380  144.3470 C   0  0  2  0  0  3  0  0  0  0  0  0
  196.1910  176.5100  143.0190 C   0  0  0  0  0  0  0  0  0  0  0  0
  197.1750  177.2120  143.3860 O   0  0  0  0  0  0  0  0  0  0  0  0
  196.7080  176.0190  140.6650 C   0  0  0  0  0  1  0  0  0  0  0  0
  195.8170  176.4630  141.6760 O   0  0  0  0  0  0  0  0  0  0  0  0
  190.3280  173.0830  142.8750 C   0  0  0  0  0  0  0  0  0  0  0  0
  189.4140  172.8340  143.6440 O   0  0  0  0  0  0  0  0  0  0  0  0
  190.2480  174.2880  141.9860 C   0  0  0  0  0  2  0  0  0  0  0  0
  188.5330  174.8790  141.8570 S   0  0  0  0  0  0  0  0  0  0  0  0
  188.8020  175.8510  145.0790 C   0  0  0  0  0  3  0  0  0  0  0  0
  189.0870  178.6250  141.4330 F   0  0  0  0  0  0  0  0  0  0  0  0
  188.1770  177.6780  141.8640 C   0  0  0  0  0  0  0  0  0  0  0  0
  187.4130  177.2510  140.7900 F   0  0  0  0  0  0  0  0  0  0  0  0
  186.8910  177.9270  145.2730 C   0  0  0  0  0  3  0  0  0  0  0  0
  188.9350  176.5150  142.5670 C   0  0  1  0  0  3  0  0  0  0  0  0
  187.3280  178.2510  142.8580 O   0  0  0  0  0  0  0  0  0  0  0  0
  187.5170  177.6170  144.0660 C   0  0  0  0  0  0  0  0  0  0  0  0
  188.1900  176.1390  146.3100 C   0  0  0  0  0  3  0  0  0  0  0  0
  187.2360  177.1720  146.4060 C   0  0  0  0  0  3  0  0  0  0  0  0
  188.4330  176.6100  143.9660 C   0  0  0  0  0  0  0  0  0  0  0  0
  1 14  1  6  0  0  0
  2  4  2  0  0  0  0
  4  6  1  0  0  0  0
  6  1  1  0  0  0  0
  6  3  1  1  0  0  0
  7  5  1  6  0  0  0
  7  2  1  0  0  0  0
  7  8  1  0  0  0  0
  8 24  1  1  0  0  0
  8  1  1  0  0  0  0
  9 13  1  1  0  0  0
 10  9  1  0  0  0  0
 11 15  1  0  0  0  0
 11 14  1  0  0  0  0
 12  9  1  0  0  0  0
 14 12  2  0  0  0  0
 15 16  1  1  0  0  0
 15 10  1  0  0  0  0
 16 20  1  6  0  0  0
 16 19  1  0  0  0  0
 18 19  1  0  0  0  0
 19 17  1  1  0  0  0
 20 21  2  0  0  0  0
 22 23  1  0  0  0  0
 23 20  1  0  0  0  0
 24 25  2  0  0  0  0
 26 24  1  0  0  0  0
 27 26  1  0  0  0  0
 28 36  1  0  0  0  0
 29 30  1  0  0  0  0
 30 33  1  0  0  0  0
 30 34  1  0  0  0  0
 31 30  1  0  0  0  0
 32 37  1  0  0  0  0
 33 27  1  6  0  0  0
 33 38  1  0  0  0  0
 34 35  1  0  0  0  0
 35 32  2  0  0  0  0
 36 37  2  0  0  0  0
 38 35  1  0  0  0  0
 38 28  2  0  0  0  0
M  END
>  <MODEL>
3

>  <REMARK>
 VINA RESULT:      -7.5      2.542      3.661
  Name = 
  9 active torsions:
  status: ('A' for Active; 'I' for Inactive)
    1  A    between atoms: C_1  and  C_26
    2  A    between atoms: C_2  and  C_19
    3  A    between atoms: C_2  and  O_33
    4  A    between atoms: C_9  and  C_29
    5  A    between atoms: C_9  and  C_36
    6  A    between atoms: C_17  and  S_21
    7  A    between atoms: C_19  and  C_28
    8  A    between atoms: C_19  and  C_34
    9  A    between atoms: S_21  and  C_29
                            x       y       z     vdW  Elec       q    Type
                         _______ _______ _______ _____ _____    ______ ____

>  <TORSDO>
F 9

$$$$
=
 OpenBabel11062419223D

 38 41  0  0  1  0  0  0  0  0999 V2000
  191.0620  173.8250  143.4670 C   0  0  2  0  0  3  0  0  0  0  0  0
  189.8840  172.3930  141.3120 N   0  0  0  0  0  0  0  0  0  0  0  0
  192.1710  171.7360  143.8670 O   0  0  0  0  0  1  0  0  0  0  0  0
  190.9450  171.8900  141.8450 C   0  0  0  0  0  3  0  0  0  0  0  0
  188.7440  174.3100  140.5120 N   0  0  0  0  0  1  0  0  0  0  0  0
  191.7820  172.6200  142.8600 C   0  0  1  0  0  3  0  0  0  0  0  0
  189.3060  173.6690  141.6890 C   0  0  2  0  0  3  0  0  0  0  0  0
  190.3130  174.6000  142.3750 C   0  0  1  0  0  3  0  0  0  0  0  0
  192.8470  175.7360  146.2100 C   0  0  2  0  0  3  0  0  0  0  0  0
  193.4880  176.8120  145.3410 C   0  0  0  0  0  2  0  0  0  0  0  0
  193.0900  175.3040  143.4510 O   0  0  0  0  0  0  0  0  0  0  0  0
  191.9040  174.9270  145.4430 N   0  0  0  0  0  0  0  0  0  0  0  0
  192.1400  176.3710  147.3870 C   0  0  0  0  0  1  0  0  0  0  0  0
  192.0520  174.6980  144.1730 C   0  0  0  0  0  0  0  0  0  0  0  0
  194.0370  176.1910  144.0510 C   0  0  2  0  0  3  0  0  0  0  0  0
  195.4120  175.5120  144.1880 C   0  0  1  0  0  3  0  0  0  0  0  0
  196.2120  173.4880  145.5150 C   0  0  0  0  0  1  0  0  0  0  0  0
  195.7980  173.3700  143.1700 O   0  0  0  0  0  1  0  0  0  0  0  0
  195.3750  173.9860  144.3480 C   0  0  2  0  0  3  0  0  0  0  0  0
  196.4640  176.0050  143.2390 C   0  0  0  0  0  0  0  0  0  0  0  0
  197.6870  175.8100  143.4810 O   0  0  0  0  0  0  0  0  0  0  0  0
  196.3380  176.1040  140.7850 C   0  0  0  0  0  1  0  0  0  0  0  0
  196.0670  176.6490  142.0670 O   0  0  0  0  0  0  0  0  0  0  0  0
  189.6100  175.8070  142.9360 C   0  0  0  0  0  0  0  0  0  0  0  0
  189.8650  176.9120  142.4840 O   0  0  0  0  0  0  0  0  0  0  0  0
  188.6310  175.6700  144.0630 C   0  0  0  0  0  2  0  0  0  0  0  0
  188.5380  177.2100  145.0250 S   0  0  0  0  0  0  0  0  0  0  0  0
  185.5360  177.2410  143.4820 C   0  0  0  0  0  3  0  0  0  0  0  0
  186.2160  176.4810  147.9570 F   0  0  0  0  0  0  0  0  0  0  0  0
  186.6090  177.4640  147.0690 C   0  0  0  0  0  0  0  0  0  0  0  0
  187.7140  178.1270  147.5760 F   0  0  0  0  0  0  0  0  0  0  0  0
  184.0510  179.0860  145.0280 C   0  0  0  0  0  3  0  0  0  0  0  0
  186.8730  176.8250  145.6740 C   0  0  1  0  0  3  0  0  0  0  0  0
  185.5390  178.3890  146.8800 O   0  0  0  0  0  0  0  0  0  0  0  0
  185.1020  178.3500  145.5750 C   0  0  0  0  0  0  0  0  0  0  0  0
  184.4820  177.9670  142.9020 C   0  0  0  0  0  3  0  0  0  0  0  0
  183.7440  178.8880  143.6720 C   0  0  0  0  0  3  0  0  0  0  0  0
  185.8270  177.4650  144.8300 C   0  0  0  0  0  0  0  0  0  0  0  0
  1 14  1  6  0  0  0
  2  7  1  0  0  0  0
  2  4  2  0  0  0  0
  4  6  1  0  0  0  0
  6  1  1  0  0  0  0
  6  3  1  1  0  0  0
  7  5  1  6  0  0  0
  7  8  1  0  0  0  0
  8 24  1  1  0  0  0
  8  1  1  0  0  0  0
  9 13  1  1  0  0  0
 10  9  1  0  0  0  0
 11 15  1  0  0  0  0
 11 14  1  0  0  0  0
 12  9  1  0  0  0  0
 14 12  2  0  0  0  0
 15 16  1  1  0  0  0
 15 10  1  0  0  0  0
 16 20  1  6  0  0  0
 16 19  1  0  0  0  0
 18 19  1  0  0  0  0
 19 17  1  1  0  0  0
 20 21  2  0  0  0  0
 22 23  1  0  0  0  0
 23 20  1  0  0  0  0
 24 26  1  0  0  0  0
 25 24  2  0  0  0  0
 26 27  1  0  0  0  0
 28 38  1  0  0  0  0
 30 31  1  0  0  0  0
 30 29  1  0  0  0  0
 32 35  1  0  0  0  0
 33 27  1  6  0  0  0
 33 30  1  0  0  0  0
 34 30  1  0  0  0  0
 35 34  1  0  0  0  0
 36 28  2  0  0  0  0
 36 37  1  0  0  0  0
 37 32  2  0  0  0  0
 38 35  2  0  0  0  0
 38 33  1  0  0  0  0
M  END
>  <MODEL>
4

>  <REMARK>
 VINA RESULT:      -7.5      1.553      1.853
  Name = 
  9 active torsions:
  status: ('A' for Active; 'I' for Inactive)
    1  A    between atoms: C_1  and  C_26
    2  A    between atoms: C_2  and  C_19
    3  A    between atoms: C_2  and  O_33
    4  A    between atoms: C_9  and  C_29
    5  A    between atoms: C_9  and  C_36
    6  A    between atoms: C_17  and  S_21
    7  A    between atoms: C_19  and  C_28
    8  A    between atoms: C_19  and  C_34
    9  A    between atoms: S_21  and  C_29
                            x       y       z     vdW  Elec       q    Type
                         _______ _______ _______ _____ _____    ______ ____

>  <TORSDO>
F 9

$$$$
=
 OpenBabel11062419223D

 38 41  0  0  1  0  0  0  0  0999 V2000
  190.0480  173.8190  141.8220 C   0  0  2  0  0  3  0  0  0  0  0  0
  189.6580  173.4060  139.0370 N   0  0  0  0  0  0  0  0  0  0  0  0
  191.9320  172.3750  141.4760 O   0  0  0  0  0  1  0  0  0  0  0  0
  190.8170  173.1120  139.5200 C   0  0  0  0  0  3  0  0  0  0  0  0
  187.8310  174.9130  138.9540 N   0  0  0  0  0  1  0  0  0  0  0  0
  191.2310  173.4490  140.9270 C   0  0  1  0  0  3  0  0  0  0  0  0
  188.5790  174.0020  139.8030 C   0  0  2  0  0  3  0  0  0  0  0  0
  189.0710  174.7250  141.0610 C   0  0  1  0  0  3  0  0  0  0  0  0
  190.6760  174.5720  145.4830 C   0  0  2  0  0  3  0  0  0  0  0  0
  190.9350  176.0690  145.3530 C   0  0  0  0  0  2  0  0  0  0  0  0
  191.3400  175.6360  142.9750 O   0  0  0  0  0  0  0  0  0  0  0  0
  190.1990  174.0070  144.2240 N   0  0  0  0  0  0  0  0  0  0  0  0
  189.6640  174.3130  146.5780 C   0  0  0  0  0  1  0  0  0  0  0  0
  190.5490  174.4820  143.0680 C   0  0  0  0  0  0  0  0  0  0  0  0
  191.8070  176.3490  144.1230 C   0  0  2  0  0  3  0  0  0  0  0  0
  193.3160  176.1270  144.3290 C   0  0  1  0  0  3  0  0  0  0  0  0
  194.5930  177.5390  146.0240 C   0  0  0  0  0  1  0  0  0  0  0  0
  194.5800  175.1580  146.1280 O   0  0  0  0  0  1  0  0  0  0  0  0
  193.8050  176.2630  145.7780 C   0  0  2  0  0  3  0  0  0  0  0  0
  193.8950  174.9550  143.5930 C   0  0  0  0  0  0  0  0  0  0  0  0
  193.6860  173.7780  143.9960 O   0  0  0  0  0  0  0  0  0  0  0  0
  195.7340  176.0870  142.4140 C   0  0  0  0  0  1  0  0  0  0  0  0
  194.6370  175.1870  142.4340 O   0  0  0  0  0  0  0  0  0  0  0  0
  187.9040  175.1270  141.9230 C   0  0  0  0  0  0  0  0  0  0  0  0
  187.1340  174.2690  142.3240 O   0  0  0  0  0  0  0  0  0  0  0  0
  187.6590  176.5670  142.2600 C   0  0  0  0  0  2  0  0  0  0  0  0
  185.9340  176.8220  142.7780 S   0  0  0  0  0  0  0  0  0  0  0  0
  187.1390  176.8670  145.9310 C   0  0  0  0  0  3  0  0  0  0  0  0
  185.8890  180.5610  143.5110 F   0  0  0  0  0  0  0  0  0  0  0  0
  185.2850  179.3590  143.8290 C   0  0  0  0  0  0  0  0  0  0  0  0
  184.2640  179.1040  142.9290 F   0  0  0  0  0  0  0  0  0  0  0  0
  185.1760  178.3420  147.3350 C   0  0  0  0  0  3  0  0  0  0  0  0
  186.3600  178.2330  143.8590 C   0  0  1  0  0  3  0  0  0  0  0  0
  184.7530  179.4280  145.1510 O   0  0  0  0  0  0  0  0  0  0  0  0
  185.4000  178.5310  145.9720 C   0  0  0  0  0  0  0  0  0  0  0  0
  186.9380  176.6530  147.3050 C   0  0  0  0  0  3  0  0  0  0  0  0
  185.9590  177.3860  148.0040 C   0  0  0  0  0  3  0  0  0  0  0  0
  186.3400  177.8150  145.2880 C   0  0  0  0  0  0  0  0  0  0  0  0
  1 14  1  1  0  0  0
  2  4  2  0  0  0  0
  2  7  1  0  0  0  0
  4  6  1  0  0  0  0
  6  3  1  1  0  0  0
  6  1  1  0  0  0  0
  7  5  1  6  0  0  0
  7  8  1  0  0  0  0
  8  1  1  0  0  0  0
  8 24  1  1  0  0  0
  9 13  1  1  0  0  0
 10  9  1  0  0  0  0
 11 14  1  0  0  0  0
 11 15  1  0  0  0  0
 12  9  1  0  0  0  0
 14 12  2  0  0  0  0
 15 16  1  1  0  0  0
 15 10  1  0  0  0  0
 16 20  1  1  0  0  0
 16 19  1  0  0  0  0
 19 17  1  6  0  0  0
 19 18  1  0  0  0  0
 20 21  2  0  0  0  0
 22 23  1  0  0  0  0
 23 20  1  0  0  0  0
 24 26  1  0  0  0  0
 24 25  2  0  0  0  0
 26 27  1  0  0  0  0
 28 36  1  0  0  0  0
 29 30  1  0  0  0  0
 30 33  1  0  0  0  0
 30 34  1  0  0  0  0
 31 30  1  0  0  0  0
 32 37  1  0  0  0  0
 33 27  1  6  0  0  0
 33 38  1  0  0  0  0
 34 35  1  0  0  0  0
 35 32  2  0  0  0  0
 36 37  2  0  0  0  0
 38 28  2  0  0  0  0
 38 35  1  0  0  0  0
M  END
>  <MODEL>
5

>  <REMARK>
 VINA RESULT:      -7.4      2.582      3.434
  Name = 
  9 active torsions:
  status: ('A' for Active; 'I' for Inactive)
    1  A    between atoms: C_1  and  C_26
    2  A    between atoms: C_2  and  C_19
    3  A    between atoms: C_2  and  O_33
    4  A    between atoms: C_9  and  C_29
    5  A    between atoms: C_9  and  C_36
    6  A    between atoms: C_17  and  S_21
    7  A    between atoms: C_19  and  C_28
    8  A    between atoms: C_19  and  C_34
    9  A    between atoms: S_21  and  C_29
                            x       y       z     vdW  Elec       q    Type
                         _______ _______ _______ _____ _____    ______ ____

>  <TORSDO>
F 9

$$$$
=
 OpenBabel11062419223D

 38 41  0  0  1  0  0  0  0  0999 V2000
  190.1140  175.7920  145.4420 C   0  0  2  0  0  3  0  0  0  0  0  0
  192.0840  175.7320  147.4910 N   0  0  0  0  0  0  0  0  0  0  0  0
  188.6960  174.9490  147.1830 O   0  0  0  0  0  1  0  0  0  0  0  0
  190.8490  175.6720  147.8580 C   0  0  0  0  0  3  0  0  0  0  0  0
  193.7280  176.7160  146.0960 N   0  0  0  0  0  1  0  0  0  0  0  0
  189.6980  175.8800  146.9110 C   0  0  1  0  0  3  0  0  0  0  0  0
  192.5220  175.9050  146.1180 C   0  0  2  0  0  3  0  0  0  0  0  0
  191.4440  176.5250  145.2230 C   0  0  1  0  0  3  0  0  0  0  0  0
  187.5380  176.1450  142.6840 C   0  0  2  0  0  3  0  0  0  0  0  0
  187.5000  177.6680  142.6200 C   0  0  0  0  0  2  0  0  0  0  0  0
  188.5160  177.6340  144.8500 O   0  0  0  0  0  0  0  0  0  0  0  0
  188.6160  175.6790  143.5520 N   0  0  0  0  0  0  0  0  0  0  0  0
  187.7110  175.5690  141.2960 C   0  0  0  0  0  1  0  0  0  0  0  0
  189.0300  176.3580  144.5780 C   0  0  0  0  0  0  0  0  0  0  0  0
  187.5190  178.2570  144.0360 C   0  0  2  0  0  3  0  0  0  0  0  0
  186.1580  178.2740  144.7530 C   0  0  1  0  0  3  0  0  0  0  0  0
  185.6750  176.7910  146.7700 C   0  0  0  0  0  1  0  0  0  0  0  0
  185.5310  179.1670  146.8950 O   0  0  0  0  0  1  0  0  0  0  0  0
  186.2210  178.1230  146.2790 C   0  0  2  0  0  3  0  0  0  0  0  0
  185.2000  179.3260  144.2800 C   0  0  0  0  0  0  0  0  0  0  0  0
  185.5550  180.5360  144.2180 O   0  0  0  0  0  0  0  0  0  0  0  0
  183.6950  178.2910  142.6320 C   0  0  0  0  0  1  0  0  0  0  0  0
  183.9220  178.9420  143.8730 O   0  0  0  0  0  0  0  0  0  0  0  0
  191.8720  176.4760  143.7800 C   0  0  0  0  0  0  0  0  0  0  0  0
  192.1190  177.5180  143.1940 O   0  0  0  0  0  0  0  0  0  0  0  0
  191.9610  175.1700  143.0510 C   0  0  0  0  0  2  0  0  0  0  0  0
  193.6850  174.5950  142.9700 S   0  0  0  0  0  0  0  0  0  0  0  0
  195.6450  173.7110  145.5730 C   0  0  0  0  0  3  0  0  0  0  0  0
  191.7440  171.6210  144.3540 F   0  0  0  0  0  0  0  0  0  0  0  0
  192.9020  171.9810  143.6900 C   0  0  0  0  0  0  0  0  0  0  0  0
  192.6530  172.0360  142.3280 F   0  0  0  0  0  0  0  0  0  0  0  0
  196.1090  170.9610  145.1080 C   0  0  0  0  0  3  0  0  0  0  0  0
  193.4300  173.3280  144.2640 C   0  0  1  0  0  3  0  0  0  0  0  0
  193.9210  171.0170  143.9520 O   0  0  0  0  0  0  0  0  0  0  0  0
  194.9580  171.5980  144.6460 C   0  0  0  0  0  0  0  0  0  0  0  0
  196.8150  173.0980  146.0520 C   0  0  0  0  0  3  0  0  0  0  0  0
  197.0470  171.7290  145.8180 C   0  0  0  0  0  3  0  0  0  0  0  0
  194.7340  172.9280  144.8600 C   0  0  0  0  0  0  0  0  0  0  0  0
  1 14  1  6  0  0  0
  1  6  1  0  0  0  0
  2  4  2  0  0  0  0
  6  3  1  1  0  0  0
  6  4  1  0  0  0  0
  7  5  1  1  0  0  0
  7  2  1  0  0  0  0
  8 24  1  6  0  0  0
  8  1  1  0  0  0  0
  8  7  1  0  0  0  0
  9 13  1  6  0  0  0
  9 12  1  0  0  0  0
 10  9  1  0  0  0  0
 10 15  1  0  0  0  0
 12 14  2  0  0  0  0
 14 11  1  0  0  0  0
 15 16  1  1  0  0  0
 15 11  1  0  0  0  0
 16 20  1  1  0  0  0
 16 19  1  0  0  0  0
 19 17  1  6  0  0  0
 19 18  1  0  0  0  0
 21 20  2  0  0  0  0
 22 23  1  0  0  0  0
 23 20  1  0  0  0  0
 25 24  2  0  0  0  0
 26 24  1  0  0  0  0
 27 26  1  0  0  0  0
 28 36  1  0  0  0  0
 30 34  1  0  0  0  0
 30 33  1  0  0  0  0
 30 29  1  0  0  0  0
 31 30  1  0  0  0  0
 32 37  1  0  0  0  0
 33 27  1  6  0  0  0
 33 38  1  0  0  0  0
 34 35  1  0  0  0  0
 35 38  1  0  0  0  0
 35 32  2  0  0  0  0
 37 36  2  0  0  0  0
 38 28  2  0  0  0  0
M  END
>  <MODEL>
6

>  <REMARK>
 VINA RESULT:      -7.4      2.833      8.767
  Name = 
  9 active torsions:
  status: ('A' for Active; 'I' for Inactive)
    1  A    between atoms: C_1  and  C_26
    2  A    between atoms: C_2  and  C_19
    3  A    between atoms: C_2  and  O_33
    4  A    between atoms: C_9  and  C_29
    5  A    between atoms: C_9  and  C_36
    6  A    between atoms: C_17  and  S_21
    7  A    between atoms: C_19  and  C_28
    8  A    between atoms: C_19  and  C_34
    9  A    between atoms: S_21  and  C_29
                            x       y       z     vdW  Elec       q    Type
                         _______ _______ _______ _____ _____    ______ ____

>  <TORSDO>
F 9

$$$$
=
 OpenBabel11062419223D

 38 41  0  0  1  0  0  0  0  0999 V2000
  191.2970  172.6060  143.1410 C   0  0  2  0  0  3  0  0  0  0  0  0
  190.4070  170.9540  141.0060 N   0  0  0  0  0  0  0  0  0  0  0  0
  192.3170  170.5730  143.9040 O   0  0  0  0  0  1  0  0  0  0  0  0
  191.3800  170.5110  141.7290 C   0  0  0  0  0  3  0  0  0  0  0  0
  189.4090  172.7730  139.8630 N   0  0  0  0  0  1  0  0  0  0  0  0
  192.0790  171.3460  142.7670 C   0  0  1  0  0  3  0  0  0  0  0  0
  189.7980  172.2610  141.1660 C   0  0  2  0  0  3  0  0  0  0  0  0
  190.7130  173.2600  141.8820 C   0  0  1  0  0  3  0  0  0  0  0  0
  194.1200  175.0140  143.9150 C   0  0  2  0  0  3  0  0  0  0  0  0
  194.1980  174.7770  145.4200 C   0  0  0  0  0  2  0  0  0  0  0  0
  191.9440  173.8350  145.2320 O   0  0  0  0  0  0  0  0  0  0  0  0
  193.2230  174.0560  143.2750 N   0  0  0  0  0  0  0  0  0  0  0  0
  195.4990  174.9140  143.3020 C   0  0  0  0  0  1  0  0  0  0  0  0
  192.1920  173.5510  143.8820 C   0  0  0  0  0  0  0  0  0  0  0  0
  192.7870  174.6840  146.0130 C   0  0  2  0  0  3  0  0  0  0  0  0
  192.1030  176.0370  146.2830 C   0  0  1  0  0  3  0  0  0  0  0  0
  191.4500  177.5350  144.3260 C   0  0  0  0  0  1  0  0  0  0  0  0
  189.8560  176.8220  145.9490 O   0  0  0  0  0  1  0  0  0  0  0  0
  191.0140  176.4310  145.2760 C   0  0  2  0  0  3  0  0  0  0  0  0
  191.7380  176.2940  147.7140 C   0  0  0  0  0  0  0  0  0  0  0  0
  191.1910  175.3920  148.4080 O   0  0  0  0  0  0  0  0  0  0  0  0
  191.5660  177.9140  149.5570 C   0  0  0  0  0  1  0  0  0  0  0  0
  192.0470  177.5320  148.2780 O   0  0  0  0  0  0  0  0  0  0  0  0
  189.9540  174.5180  142.2140 C   0  0  0  0  0  0  0  0  0  0  0  0
  190.3210  175.5800  141.7380 O   0  0  0  0  0  0  0  0  0  0  0  0
  188.7810  174.4830  143.1470 C   0  0  0  0  0  2  0  0  0  0  0  0
  187.3330  175.2810  142.3900 S   0  0  0  0  0  0  0  0  0  0  0  0
  186.3020  176.7970  145.2240 C   0  0  0  0  0  3  0  0  0  0  0  0
  188.9450  178.7110  141.9960 F   0  0  0  0  0  0  0  0  0  0  0  0
  187.7340  178.0450  141.9900 C   0  0  0  0  0  0  0  0  0  0  0  0
  187.4800  177.5620  140.7170 F   0  0  0  0  0  0  0  0  0  0  0  0
  185.1150  179.1790  144.2680 C   0  0  0  0  0  3  0  0  0  0  0  0
  187.7550  176.9250  143.0700 C   0  0  1  0  0  3  0  0  0  0  0  0
  186.6940  178.9430  142.3780 O   0  0  0  0  0  0  0  0  0  0  0  0
  186.1300  178.5340  143.5650 C   0  0  0  0  0  0  0  0  0  0  0  0
  185.2800  177.4250  145.9570 C   0  0  0  0  0  3  0  0  0  0  0  0
  184.6870  178.6100  145.4790 C   0  0  0  0  0  3  0  0  0  0  0  0
  186.7000  177.3780  144.0180 C   0  0  0  0  0  0  0  0  0  0  0  0
  1 14  1  6  0  0  0
  2  7  1  0  0  0  0
  2  4  2  0  0  0  0
  4  6  1  0  0  0  0
  6  1  1  0  0  0  0
  6  3  1  1  0  0  0
  7  5  1  6  0  0  0
  7  8  1  0  0  0  0
  8 24  1  1  0  0  0
  8  1  1  0  0  0  0
  9 13  1  6  0  0  0
  9 10  1  0  0  0  0
 10 15  1  0  0  0  0
 11 15  1  0  0  0  0
 12 14  2  0  0  0  0
 12  9  1  0  0  0  0
 14 11  1  0  0  0  0
 15 16  1  6  0  0  0
 16 20  1  1  0  0  0
 19 17  1  1  0  0  0
 19 18  1  0  0  0  0
 19 16  1  0  0  0  0
 20 23  1  0  0  0  0
 20 21  2  0  0  0  0
 23 22  1  0  0  0  0
 24 26  1  0  0  0  0
 25 24  2  0  0  0  0
 27 26  1  0  0  0  0
 28 36  1  0  0  0  0
 30 29  1  0  0  0  0
 30 34  1  0  0  0  0
 30 33  1  0  0  0  0
 31 30  1  0  0  0  0
 32 37  1  0  0  0  0
 33 27  1  6  0  0  0
 33 38  1  0  0  0  0
 34 35  1  0  0  0  0
 35 38  1  0  0  0  0
 35 32  2  0  0  0  0
 37 36  2  0  0  0  0
 38 28  2  0  0  0  0
M  END
>  <MODEL>
7

>  <REMARK>
 VINA RESULT:      -7.4      2.690      4.109
  Name = 
  9 active torsions:
  status: ('A' for Active; 'I' for Inactive)
    1  A    between atoms: C_1  and  C_26
    2  A    between atoms: C_2  and  C_19
    3  A    between atoms: C_2  and  O_33
    4  A    between atoms: C_9  and  C_29
    5  A    between atoms: C_9  and  C_36
    6  A    between atoms: C_17  and  S_21
    7  A    between atoms: C_19  and  C_28
    8  A    between atoms: C_19  and  C_34
    9  A    between atoms: S_21  and  C_29
                            x       y       z     vdW  Elec       q    Type
                         _______ _______ _______ _____ _____    ______ ____

>  <TORSDO>
F 9

$$$$
=
 OpenBabel11062419223D

 38 41  0  0  1  0  0  0  0  0999 V2000
  192.2070  175.3830  145.2600 C   0  0  2  0  0  3  0  0  0  0  0  0
  190.7740  176.3350  147.5230 N   0  0  0  0  0  0  0  0  0  0  0  0
  193.9420  176.7930  146.1290 O   0  0  0  0  0  1  0  0  0  0  0  0
  192.0550  176.4870  147.5290 C   0  0  0  0  0  3  0  0  0  0  0  0
  188.9100  174.9440  147.0700 N   0  0  0  0  0  1  0  0  0  0  0  0
  192.9610  175.8720  146.4970 C   0  0  1  0  0  3  0  0  0  0  0  0
  190.0370  175.6460  146.4800 C   0  0  2  0  0  3  0  0  0  0  0  0
  190.9090  174.6770  145.6750 C   0  0  1  0  0  3  0  0  0  0  0  0
  194.2120  173.9480  142.3810 C   0  0  2  0  0  3  0  0  0  0  0  0
  194.1780  172.4840  142.8050 C   0  0  0  0  0  2  0  0  0  0  0  0
  193.5960  173.3040  145.0390 O   0  0  0  0  0  0  0  0  0  0  0  0
  193.3320  174.7610  143.2160 N   0  0  0  0  0  0  0  0  0  0  0  0
  193.8060  174.0790  140.9290 C   0  0  0  0  0  1  0  0  0  0  0  0
  193.0900  174.4760  144.4600 C   0  0  0  0  0  0  0  0  0  0  0  0
  194.3990  172.3670  144.3180 C   0  0  2  0  0  3  0  0  0  0  0  0
  195.8690  172.4430  144.7710 C   0  0  1  0  0  3  0  0  0  0  0  0
  196.8150  174.8110  144.7840 C   0  0  0  0  0  1  0  0  0  0  0  0
  197.1270  173.3220  146.6200 O   0  0  0  0  0  1  0  0  0  0  0  0
  196.2310  173.6760  145.6110 C   0  0  2  0  0  3  0  0  0  0  0  0
  196.4450  171.1580  145.2850 C   0  0  0  0  0  0  0  0  0  0  0  0
  197.5920  170.7770  144.9180 O   0  0  0  0  0  0  0  0  0  0  0  0
  196.3240  169.4440  147.0450 C   0  0  0  0  0  1  0  0  0  0  0  0
  195.7110  170.4090  146.2050 O   0  0  0  0  0  0  0  0  0  0  0  0
  190.1520  174.1640  144.4790 C   0  0  0  0  0  0  0  0  0  0  0  0
  189.8230  172.9900  144.4390 O   0  0  0  0  0  0  0  0  0  0  0  0
  189.8340  175.0680  143.3260 C   0  0  0  0  0  2  0  0  0  0  0  0
  188.0450  175.3850  143.2320 S   0  0  0  0  0  0  0  0  0  0  0  0
  187.0490  177.6900  145.4880 C   0  0  0  0  0  3  0  0  0  0  0  0
  189.0530  178.6050  141.4620 F   0  0  0  0  0  0  0  0  0  0  0  0
  187.9670  177.8470  141.8550 C   0  0  0  0  0  0  0  0  0  0  0  0
  187.6780  176.9110  140.8750 F   0  0  0  0  0  0  0  0  0  0  0  0
  185.4190  179.4140  143.9500 C   0  0  0  0  0  3  0  0  0  0  0  0
  188.2620  177.2000  143.2400 C   0  0  1  0  0  3  0  0  0  0  0  0
  186.8380  178.6970  142.0530 O   0  0  0  0  0  0  0  0  0  0  0  0
  186.4560  178.6800  143.3750 C   0  0  0  0  0  0  0  0  0  0  0  0
  186.0110  178.4170  146.0970 C   0  0  0  0  0  3  0  0  0  0  0  0
  185.1980  179.2740  145.3300 C   0  0  0  0  0  3  0  0  0  0  0  0
  187.2390  177.8400  144.1130 C   0  0  0  0  0  0  0  0  0  0  0  0
  1 14  1  1  0  0  0
  1  8  1  0  0  0  0
  1  6  1  0  0  0  0
  2  4  2  0  0  0  0
  6  3  1  6  0  0  0
  6  4  1  0  0  0  0
  7  5  1  1  0  0  0
  7  2  1  0  0  0  0
  8 24  1  6  0  0  0
  8  7  1  0  0  0  0
  9 13  1  6  0  0  0
  9 10  1  0  0  0  0
  9 12  1  0  0  0  0
 10 15  1  0  0  0  0
 12 14  2  0  0  0  0
 14 11  1  0  0  0  0
 15 16  1  6  0  0  0
 15 11  1  0  0  0  0
 16 20  1  1  0  0  0
 16 19  1  0  0  0  0
 19 17  1  6  0  0  0
 19 18  1  0  0  0  0
 20 23  1  0  0  0  0
 21 20  2  0  0  0  0
 23 22  1  0  0  0  0
 25 24  2  0  0  0  0
 26 24  1  0  0  0  0
 27 26  1  0  0  0  0
 28 36  1  0  0  0  0
 29 30  1  0  0  0  0
 30 34  1  0  0  0  0
 30 33  1  0  0  0  0
 31 30  1  0  0  0  0
 32 37  1  0  0  0  0
 33 27  1  6  0  0  0
 33 38  1  0  0  0  0
 34 35  1  0  0  0  0
 35 32  2  0  0  0  0
 35 38  1  0  0  0  0
 37 36  2  0  0  0  0
 38 28  2  0  0  0  0
M  END
>  <MODEL>
8

>  <REMARK>
 VINA RESULT:      -7.4      2.595      4.434
  Name = 
  9 active torsions:
  status: ('A' for Active; 'I' for Inactive)
    1  A    between atoms: C_1  and  C_26
    2  A    between atoms: C_2  and  C_19
    3  A    between atoms: C_2  and  O_33
    4  A    between atoms: C_9  and  C_29
    5  A    between atoms: C_9  and  C_36
    6  A    between atoms: C_17  and  S_21
    7  A    between atoms: C_19  and  C_28
    8  A    between atoms: C_19  and  C_34
    9  A    between atoms: S_21  and  C_29
                            x       y       z     vdW  Elec       q    Type
                         _______ _______ _______ _____ _____    ______ ____

>  <TORSDO>
F 9

$$$$
=
 OpenBabel11062419223D

 38 41  0  0  1  0  0  0  0  0999 V2000
  190.6200  173.5090  142.6300 C   0  0  2  0  0  3  0  0  0  0  0  0
  188.0660  173.6820  141.3940 N   0  0  0  0  0  0  0  0  0  0  0  0
  190.2550  171.1510  142.3880 O   0  0  0  0  0  1  0  0  0  0  0  0
  188.6940  172.5590  141.2970 C   0  0  0  0  0  3  0  0  0  0  0  0
  188.1420  176.0490  141.3100 N   0  0  0  0  0  1  0  0  0  0  0  0
  190.1220  172.3750  141.7330 C   0  0  1  0  0  3  0  0  0  0  0  0
  188.6110  174.8720  142.0210 C   0  0  2  0  0  3  0  0  0  0  0  0
  190.1420  174.8620  142.0880 C   0  0  1  0  0  3  0  0  0  0  0  0
  194.2730  173.2890  141.6420 C   0  0  2  0  0  3  0  0  0  0  0  0
  194.8140  172.7120  142.9460 C   0  0  0  0  0  2  0  0  0  0  0  0
  192.7380  173.5060  143.9780 O   0  0  0  0  0  0  0  0  0  0  0  0
  192.8130  173.3100  141.6390 N   0  0  0  0  0  0  0  0  0  0  0  0
  194.7770  172.4790  140.4670 C   0  0  0  0  0  1  0  0  0  0  0  0
  192.1140  173.4560  142.7230 C   0  0  0  0  0  0  0  0  0  0  0  0
  194.1540  173.4070  144.1430 C   0  0  2  0  0  3  0  0  0  0  0  0
  194.7580  174.7710  144.5200 C   0  0  1  0  0  3  0  0  0  0  0  0
  194.4410  177.0640  145.5880 C   0  0  0  0  0  1  0  0  0  0  0  0
  193.4910  175.0940  146.5360 O   0  0  0  0  0  1  0  0  0  0  0  0
  193.8340  175.6950  145.3250 C   0  0  2  0  0  3  0  0  0  0  0  0
  196.1710  174.7280  145.0210 C   0  0  0  0  0  0  0  0  0  0  0  0
  196.4450  174.1660  146.1180 O   0  0  0  0  0  0  0  0  0  0  0  0
  196.9010  175.9680  143.0260 C   0  0  0  0  0  1  0  0  0  0  0  0
  197.1820  175.2840  144.2370 O   0  0  0  0  0  0  0  0  0  0  0  0
  190.6340  176.0030  142.9380 C   0  0  0  0  0  0  0  0  0  0  0  0
  191.4300  176.8000  142.4670 O   0  0  0  0  0  0  0  0  0  0  0  0
  190.1880  176.1490  144.3620 C   0  0  0  0  0  2  0  0  0  0  0  0
  189.1120  177.6030  144.5530 S   0  0  0  0  0  0  0  0  0  0  0  0
  185.7630  177.6530  144.1300 C   0  0  0  0  0  3  0  0  0  0  0  0
  188.0000  175.2610  147.3460 F   0  0  0  0  0  0  0  0  0  0  0  0
  188.0050  176.5820  146.9390 C   0  0  0  0  0  0  0  0  0  0  0  0
  189.1800  177.1870  147.3540 F   0  0  0  0  0  0  0  0  0  0  0  0
  184.8130  178.3400  146.7030 C   0  0  0  0  0  3  0  0  0  0  0  0
  187.8010  176.6490  145.3980 C   0  0  1  0  0  3  0  0  0  0  0  0
  186.8880  177.2610  147.5120 O   0  0  0  0  0  0  0  0  0  0  0  0
  186.0260  177.6780  146.5230 C   0  0  0  0  0  0  0  0  0  0  0  0
  184.5360  178.3200  144.2780 C   0  0  0  0  0  3  0  0  0  0  0  0
  184.0630  178.6650  145.5600 C   0  0  0  0  0  3  0  0  0  0  0  0
  186.4940  177.3530  145.2820 C   0  0  0  0  0  0  0  0  0  0  0  0
  1 14  1  6  0  0  0
  2  7  1  0  0  0  0
  4  2  2  0  0  0  0
  4  6  1  0  0  0  0
  6  3  1  1  0  0  0
  6  1  1  0  0  0  0
  7  5  1  6  0  0  0
  7  8  1  0  0  0  0
  8  1  1  0  0  0  0
  8 24  1  1  0  0  0
  9 13  1  6  0  0  0
  9 10  1  0  0  0  0
 10 15  1  0  0  0  0
 11 15  1  0  0  0  0
 12  9  1  0  0  0  0
 12 14  2  0  0  0  0
 14 11  1  0  0  0  0
 15 16  1  6  0  0  0
 16 20  1  1  0  0  0
 16 19  1  0  0  0  0
 19 17  1  1  0  0  0
 19 18  1  0  0  0  0
 20 21  2  0  0  0  0
 22 23  1  0  0  0  0
 23 20  1  0  0  0  0
 24 26  1  0  0  0  0
 25 24  2  0  0  0  0
 26 27  1  0  0  0  0
 28 36  2  0  0  0  0
 28 38  1  0  0  0  0
 30 29  1  0  0  0  0
 30 31  1  0  0  0  0
 30 34  1  0  0  0  0
 33 27  1  6  0  0  0
 33 30  1  0  0  0  0
 35 32  1  0  0  0  0
 35 34  1  0  0  0  0
 36 37  1  0  0  0  0
 37 32  2  0  0  0  0
 38 33  1  0  0  0  0
 38 35  2  0  0  0  0
M  END
>  <MODEL>
9

>  <REMARK>
 VINA RESULT:      -7.4      1.648      2.738
  Name = 
  9 active torsions:
  status: ('A' for Active; 'I' for Inactive)
    1  A    between atoms: C_1  and  C_26
    2  A    between atoms: C_2  and  C_19
    3  A    between atoms: C_2  and  O_33
    4  A    between atoms: C_9  and  C_29
    5  A    between atoms: C_9  and  C_36
    6  A    between atoms: C_17  and  S_21
    7  A    between atoms: C_19  and  C_28
    8  A    between atoms: C_19  and  C_34
    9  A    between atoms: S_21  and  C_29
                            x       y       z     vdW  Elec       q    Type
                         _______ _______ _______ _____ _____    ______ ____

>  <TORSDO>
F 9

$$$$
