=
 OpenBabel11072409343D

 63 71  0  0  1  0  0  0  0  0999 V2000
  193.3990  171.1720  142.0240 C   0  0  0  0  0  2  0  0  0  0  0  0
  196.5330  173.3690  138.2580 C   0  0  2  0  0  3  0  0  0  0  0  0
  193.2790  171.5200  140.5300 C   0  0  2  0  0  0  0  0  0  0  0  0
  195.5040  172.8730  140.8080 C   0  0  2  0  0  3  0  0  0  0  0  0
  194.8410  171.0370  142.5010 C   0  0  0  0  0  2  0  0  0  0  0  0
  197.4180  174.4330  141.2770 C   0  0  0  0  0  0  0  0  0  0  0  0
  195.1030  172.9360  137.8630 C   0  0  0  0  0  2  0  0  0  0  0  0
  194.0770  172.8260  140.2450 C   0  0  1  0  0  3  0  0  0  0  0  0
  195.7140  173.2740  143.4280 C   0  0  1  0  0  3  0  0  0  0  0  0
  195.6490  172.3020  142.2380 C   0  0  2  0  0  3  0  0  0  0  0  0
  197.0320  173.9960  143.5970 C   0  0  0  0  0  0  0  0  0  0  0  0
  197.9410  174.7150  139.8840 C   0  0  0  0  0  2  0  0  0  0  0  0
  197.8660  174.3650  142.4870 N   0  0  0  0  0  0  0  0  0  0  0  0
  196.5950  174.5740  139.2350 C   0  0  2  0  0  3  0  0  0  0  0  0
  197.4360  174.2390  144.7650 O   0  0  0  0  0  0  0  0  0  0  0  0
  193.9770  173.3750  138.8090 C   0  0  0  0  0  2  0  0  0  0  0  0
  196.0770  174.2840  140.6210 C   0  0  1  0  0  3  0  0  0  0  0  0
  189.4180  173.1050  139.1610 C   0  0  1  0  0  3  0  0  0  0  0  0
  191.7660  171.7300  140.2550 C   0  0  2  0  0  3  0  0  0  0  0  0
  191.4000  171.6420  138.7630 C   0  0  0  0  0  2  0  0  0  0  0  0
  189.7200  173.1740  140.6630 C   0  0  2  0  0  3  0  0  0  0  0  0
  191.2290  173.0350  140.8750 C   0  0  0  0  0  2  0  0  0  0  0  0
  189.0570  172.1540  141.3570 O   0  0  0  0  0  1  0  0  0  0  0  0
  189.9010  171.7940  138.5400 C   0  0  0  0  0  2  0  0  0  0  0  0
  187.9840  173.4740  138.7810 C   0  0  0  0  0  2  0  0  0  0  0  0
  187.8160  174.8930  138.2410 C   0  0  0  0  0  2  0  0  0  0  0  0
  189.0960  175.0130  136.2750 C   0  0  0  0  0  2  0  0  0  0  0  0
  186.8630  176.3640  136.3250 S   0  0  0  0  0  0  0  0  0  0  0  0
  187.7390  174.8900  136.7870 N   0  0  0  0  0  0  0  0  0  0  0  0
  188.0750  176.7920  135.0400 C   0  0  0  0  0  2  0  0  0  0  0  0
  189.0170  175.6230  134.9010 C   0  0  0  0  0  2  0  0  0  0  0  0
  194.4890  174.0910  143.7380 C   0  0  0  0  0  0  0  0  0  0  0  0
  192.2380  175.6510  144.3820 C   0  0  0  0  0  0  0  0  0  0  0  0
  193.6770  173.7460  144.8340 C   0  0  0  0  0  0  0  0  0  0  0  0
  193.0460  175.9950  143.2940 C   0  0  0  0  0  3  0  0  0  0  0  0
  192.5640  174.5270  145.1560 C   0  0  0  0  0  3  0  0  0  0  0  0
  194.1670  175.2250  142.9790 C   0  0  0  0  0  3  0  0  0  0  0  0
  193.9860  172.6130  145.6440 N   0  0  0  0  0  1  0  0  0  0  0  0
  191.1110  176.4700  144.7010 N   0  0  0  0  0  2  0  0  0  0  0  0
  189.3570  175.1750  143.4970 C   0  0  0  0  0  2  0  0  0  0  0  0
  189.2410  175.4750  145.9160 O   0  0  0  0  0  1  0  0  0  0  0  0
  188.7890  176.5870  143.7030 C   0  0  2  0  0  3  0  0  0  0  0  0
  189.7430  175.9720  144.7130 C   0  0  1  0  0  0  0  0  0  0  0  0
  186.1590  177.9940  142.5600 C   0  0  0  0  0  2  0  0  0  0  0  0
  187.2050  177.6450  145.0950 C   0  0  0  0  0  2  0  0  0  0  0  0
  187.4090  176.5150  144.1730 N   0  0  1  0  0  0  0  0  0  0  0  0
  184.7780  178.1130  144.7460 C   0  0  0  0  0  3  0  0  0  0  0  0
  186.5310  176.5690  142.9870 C   0  0  0  0  0  2  0  0  0  0  0  0
  184.9210  178.5310  143.2990 C   0  0  2  0  0  3  0  0  0  0  0  0
  185.7800  177.7370  145.5550 C   0  0  0  0  0  3  0  0  0  0  0  0
  182.5570  177.7440  140.5670 N   0  0  0  0  0  2  0  0  0  0  0  0
  183.6320  178.1660  141.1450 C   0  0  0  0  0  0  0  0  0  0  0  0
  183.7120  178.1650  142.5730 N   0  0  0  0  0  2  0  0  0  0  0  0
  184.7510  178.6870  140.3090 C   0  0  0  0  0  1  0  0  0  0  0  0
  197.3470  173.5990  136.9810 C   0  0  1  0  0  3  0  0  0  0  0  0
  197.5720  172.3930  136.3060 O   0  0  0  0  0  1  0  0  0  0  0  0
  196.6880  174.6500  136.0850 C   0  0  1  0  0  3  0  0  0  0  0  0
  197.6190  175.8520  135.9810 C   0  0  0  0  0  1  0  0  0  0  0  0
  196.4380  174.1120  134.7540 N   0  0  0  0  0  2  0  0  0  0  0  0
  194.4630  175.4080  134.5170 N   0  0  0  0  0  1  0  0  0  0  0  0
  194.9950  174.0570  134.5810 C   0  0  0  0  0  2  0  0  0  0  0  0
  193.7650  170.3290  139.6760 C   0  0  0  0  0  2  0  0  0  0  0  0
  193.2140  169.1130  140.0880 O   0  0  0  0  0  1  0  0  0  0  0  0
  1  5  1  0  0  0  0
  2 55  1  6  0  0  0
  2 14  1  0  0  0  0
  3 62  1  6  0  0  0
  3  1  1  0  0  0  0
  4 10  1  0  0  0  0
  6 13  2  0  0  0  0
  7  2  1  0  0  0  0
  7 16  1  0  0  0  0
  8  3  1  0  0  0  0
  8  4  1  0  0  0  0
  9 11  1  0  0  0  0
  9 32  1  0  0  0  0
 10  5  1  0  0  0  0
 10  9  1  0  0  0  0
 11 15  2  0  0  0  0
 12  6  1  0  0  0  0
 13 11  1  0  0  0  0
 14 12  1  0  0  0  0
 14 17  1  0  0  0  0
 16  8  1  0  0  0  0
 17  4  1  0  0  0  0
 17  6  1  0  0  0  0
 18 21  1  0  0  0  0
 19  3  1  0  0  0  0
 19 22  1  0  0  0  0
 20 19  1  0  0  0  0
 21 22  1  0  0  0  0
 21 23  1  0  0  0  0
 24 20  1  0  0  0  0
 24 18  1  0  0  0  0
 25 18  1  0  0  0  0
 26 25  1  0  0  0  0
 27 29  1  0  0  0  0
 28 29  1  0  0  0  0
 29 26  1  0  0  0  0
 30 28  1  0  0  0  0
 31 30  1  0  0  0  0
 31 27  1  0  0  0  0
 32 34  1  0  0  0  0
 33 39  1  0  0  0  0
 33 36  1  0  0  0  0
 34 36  2  0  0  0  0
 34 38  1  0  0  0  0
 35 33  2  0  0  0  0
 37 35  1  0  0  0  0
 37 32  2  0  0  0  0
 39 43  1  0  0  0  0
 40 42  1  0  0  0  0
 40 43  1  0  0  0  0
 42 46  1  0  0  0  0
 42 43  1  0  0  0  0
 43 41  1  0  0  0  0
 44 48  1  0  0  0  0
 44 49  1  0  0  0  0
 45 50  1  0  0  0  0
 46 45  1  0  0  0  0
 47 50  2  0  0  0  0
 48 46  1  0  0  0  0
 49 47  1  0  0  0  0
 51 52  2  0  0  0  0
 52 53  1  0  0  0  0
 53 49  1  0  0  0  0
 54 52  1  0  0  0  0
 56 55  1  0  0  0  0
 57 55  1  0  0  0  0
 58 57  1  0  0  0  0
 59 57  1  0  0  0  0
 60 61  1  0  0  0  0
 61 59  1  0  0  0  0
 62 63  1  0  0  0  0
M  END
>  <MODEL>
1

>  <REMARK>
 VINA RESULT:      -6.9      0.000      0.000
  Name = 
  14 active torsions:
  status: ('A' for Active; 'I' for Inactive)
    1  A    between atoms: C_2  and  C_15
    2  A    between atoms: C_4  and  C_12
    3  A    between atoms: C_4  and  C_14
    4  A    between atoms: C_5  and  C_13
    5  A    between atoms: N_9  and  C_14
    6  A    between atoms: N_9  and  C_41
    7  A    between atoms: N_10  and  C_28
    8  A    between atoms: N_10  and  C_45
    9  A    between atoms: C_11  and  C_37
   10  A    between atoms: C_13  and  C_54
   11  A    between atoms: C_15  and  C_17
   12  A    between atoms: C_17  and  N_52
   13  A    between atoms: C_25  and  N_29
   14  A    between atoms: N_39  and  C_50
                            x       y       z     vdW  Elec       q    Type
                         _______ _______ _______ _____ _____    ______ ____

>  <TORSDO>
F 14

$$$$
=
 OpenBabel11072409343D

 63 71  0  0  1  0  0  0  0  0999 V2000
  192.3140  169.8280  142.7430 C   0  0  0  0  0  2  0  0  0  0  0  0
  194.7530  170.1910  137.9740 C   0  0  2  0  0  3  0  0  0  0  0  0
  192.0430  170.5200  141.3960 C   0  0  2  0  0  0  0  0  0  0  0  0
  194.5030  169.9050  140.7420 C   0  0  2  0  0  3  0  0  0  0  0  0
  193.2740  168.6480  142.6370 C   0  0  0  0  0  2  0  0  0  0  0  0
  196.9690  169.5960  140.3750 C   0  0  0  0  0  0  0  0  0  0  0  0
  193.4200  170.9450  138.1760 C   0  0  0  0  0  2  0  0  0  0  0  0
  193.3970  170.9690  140.7720 C   0  0  1  0  0  3  0  0  0  0  0  0
  195.6990  169.3980  143.0620 C   0  0  1  0  0  3  0  0  0  0  0  0
  194.6120  169.0560  142.0300 C   0  0  2  0  0  3  0  0  0  0  0  0
  197.1010  168.9780  142.6820 C   0  0  0  0  0  0  0  0  0  0  0  0
  197.0900  169.7870  138.8770 C   0  0  0  0  0  2  0  0  0  0  0  0
  197.5650  168.9500  141.3220 N   0  0  0  0  0  0  0  0  0  0  0  0
  195.9430  170.7510  138.8000 C   0  0  2  0  0  3  0  0  0  0  0  0
  197.8770  168.5880  143.5940 O   0  0  0  0  0  0  0  0  0  0  0  0
  193.2990  171.7740  139.4630 C   0  0  0  0  0  2  0  0  0  0  0  0
  195.8180  170.5540  140.2900 C   0  0  1  0  0  3  0  0  0  0  0  0
  188.6500  173.2790  141.8060 C   0  0  1  0  0  3  0  0  0  0  0  0
  191.1510  171.7500  141.7140 C   0  0  2  0  0  3  0  0  0  0  0  0
  190.0620  171.4580  142.7620 C   0  0  0  0  0  2  0  0  0  0  0  0
  189.7320  173.6350  140.7800 C   0  0  2  0  0  3  0  0  0  0  0  0
  190.5360  172.3770  140.4470 C   0  0  0  0  0  2  0  0  0  0  0  0
  190.5950  174.6200  141.2790 O   0  0  0  0  0  1  0  0  0  0  0  0
  189.2460  172.7010  143.0900 C   0  0  0  0  0  2  0  0  0  0  0  0
  187.6160  174.3790  142.0490 C   0  0  0  0  0  2  0  0  0  0  0  0
  187.8130  175.6330  141.1990 C   0  0  0  0  0  2  0  0  0  0  0  0
  186.2690  176.3390  142.8220 C   0  0  0  0  0  2  0  0  0  0  0  0
  186.4000  177.7330  140.6200 S   0  0  0  0  0  0  0  0  0  0  0  0
  187.2610  176.8050  141.8640 N   0  0  0  0  0  0  0  0  0  0  0  0
  184.9360  177.9600  141.6710 C   0  0  0  0  0  2  0  0  0  0  0  0
  185.2860  177.4560  143.0490 C   0  0  0  0  0  2  0  0  0  0  0  0
  195.5970  170.7150  143.7830 C   0  0  0  0  0  0  0  0  0  0  0  0
  195.4660  173.1530  145.1810 C   0  0  0  0  0  0  0  0  0  0  0  0
  195.0180  170.7670  145.0650 C   0  0  0  0  0  0  0  0  0  0  0  0
  196.0430  173.1000  143.9090 C   0  0  0  0  0  3  0  0  0  0  0  0
  194.9610  171.9780  145.7590 C   0  0  0  0  0  3  0  0  0  0  0  0
  196.1140  171.8890  143.2180 C   0  0  0  0  0  3  0  0  0  0  0  0
  194.5030  169.5890  145.6820 N   0  0  0  0  0  1  0  0  0  0  0  0
  195.4280  174.3990  145.8800 N   0  0  0  0  0  2  0  0  0  0  0  0
  194.3900  176.5460  146.5980 C   0  0  0  0  0  2  0  0  0  0  0  0
  194.4550  175.9230  144.2390 O   0  0  0  0  0  1  0  0  0  0  0  0
  193.2370  175.5480  146.4110 C   0  0  2  0  0  3  0  0  0  0  0  0
  194.4910  175.4650  145.5570 C   0  0  1  0  0  0  0  0  0  0  0  0
  190.3320  176.4180  147.4120 C   0  0  0  0  0  2  0  0  0  0  0  0
  191.2770  175.0850  145.1830 C   0  0  0  0  0  2  0  0  0  0  0  0
  192.1410  176.1710  145.6760 N   0  0  1  0  0  0  0  0  0  0  0  0
  189.0520  176.2150  145.1730 C   0  0  0  0  0  3  0  0  0  0  0  0
  191.4480  177.0880  146.6020 C   0  0  0  0  0  2  0  0  0  0  0  0
  188.9840  176.4090  146.6710 C   0  0  2  0  0  3  0  0  0  0  0  0
  190.0490  175.6170  144.5050 C   0  0  0  0  0  3  0  0  0  0  0  0
  186.2380  178.7790  147.3860 N   0  0  0  0  0  2  0  0  0  0  0  0
  186.8200  177.6820  147.0350 C   0  0  0  0  0  0  0  0  0  0  0  0
  188.2480  177.6320  146.9630 N   0  0  0  0  0  2  0  0  0  0  0  0
  185.9870  176.5000  146.6660 C   0  0  0  0  0  1  0  0  0  0  0  0
  195.0560  170.1210  136.4740 C   0  0  1  0  0  3  0  0  0  0  0  0
  193.9150  169.7550  135.7500 O   0  0  0  0  0  1  0  0  0  0  0  0
  195.6660  171.4310  135.9700 C   0  0  1  0  0  3  0  0  0  0  0  0
  196.9690  171.1120  135.2480 C   0  0  0  0  0  1  0  0  0  0  0  0
  194.7560  172.1070  135.0550 N   0  0  0  0  0  2  0  0  0  0  0  0
  194.9790  173.8260  136.6790 N   0  0  0  0  0  1  0  0  0  0  0  0
  194.9360  173.5370  135.2550 C   0  0  0  0  0  2  0  0  0  0  0  0
  191.2480  169.5730  140.4730 C   0  0  0  0  0  2  0  0  0  0  0  0
  190.5490  168.5930  141.1820 O   0  0  0  0  0  1  0  0  0  0  0  0
  2 55  1  6  0  0  0
  2  7  1  0  0  0  0
  2 14  1  0  0  0  0
  3 62  1  6  0  0  0
  3 19  1  0  0  0  0
  3  1  1  0  0  0  0
  4  8  1  0  0  0  0
  4 10  1  0  0  0  0
  5  1  1  0  0  0  0
  6 13  2  0  0  0  0
  7 16  1  0  0  0  0
  8  3  1  0  0  0  0
  9 32  1  0  0  0  0
 10  5  1  0  0  0  0
 10  9  1  0  0  0  0
 11  9  1  0  0  0  0
 11 15  2  0  0  0  0
 12  6  1  0  0  0  0
 13 11  1  0  0  0  0
 14 12  1  0  0  0  0
 14 17  1  0  0  0  0
 16  8  1  0  0  0  0
 17  6  1  0  0  0  0
 17  4  1  0  0  0  0
 18 25  1  0  0  0  0
 18 24  1  0  0  0  0
 19 20  1  0  0  0  0
 20 24  1  0  0  0  0
 21 23  1  0  0  0  0
 21 18  1  0  0  0  0
 22 21  1  0  0  0  0
 22 19  1  0  0  0  0
 26 29  1  0  0  0  0
 26 25  1  0  0  0  0
 27 31  1  0  0  0  0
 28 30  1  0  0  0  0
 28 29  1  0  0  0  0
 29 27  1  0  0  0  0
 30 31  1  0  0  0  0
 32 34  1  0  0  0  0
 33 36  1  0  0  0  0
 33 39  1  0  0  0  0
 34 38  1  0  0  0  0
 34 36  2  0  0  0  0
 35 33  2  0  0  0  0
 37 32  2  0  0  0  0
 37 35  1  0  0  0  0
 41 43  1  0  0  0  0
 42 40  1  0  0  0  0
 43 39  1  0  0  0  0
 43 42  1  0  0  0  0
 43 40  1  0  0  0  0
 45 46  1  0  0  0  0
 46 42  1  0  0  0  0
 46 48  1  0  0  0  0
 47 49  1  0  0  0  0
 48 44  1  0  0  0  0
 49 53  1  0  0  0  0
 49 44  1  0  0  0  0
 50 47  2  0  0  0  0
 50 45  1  0  0  0  0
 52 51  2  0  0  0  0
 53 52  1  0  0  0  0
 54 52  1  0  0  0  0
 56 55  1  0  0  0  0
 57 55  1  0  0  0  0
 58 57  1  0  0  0  0
 59 61  1  0  0  0  0
 59 57  1  0  0  0  0
 61 60  1  0  0  0  0
 62 63  1  0  0  0  0
M  END
>  <MODEL>
2

>  <REMARK>
 VINA RESULT:      -6.8      2.838      4.568
  Name = 
  14 active torsions:
  status: ('A' for Active; 'I' for Inactive)
    1  A    between atoms: C_2  and  C_15
    2  A    between atoms: C_4  and  C_12
    3  A    between atoms: C_4  and  C_14
    4  A    between atoms: C_5  and  C_13
    5  A    between atoms: N_9  and  C_14
    6  A    between atoms: N_9  and  C_41
    7  A    between atoms: N_10  and  C_28
    8  A    between atoms: N_10  and  C_45
    9  A    between atoms: C_11  and  C_37
   10  A    between atoms: C_13  and  C_54
   11  A    between atoms: C_15  and  C_17
   12  A    between atoms: C_17  and  N_52
   13  A    between atoms: C_25  and  N_29
   14  A    between atoms: N_39  and  C_50
                            x       y       z     vdW  Elec       q    Type
                         _______ _______ _______ _____ _____    ______ ____

>  <TORSDO>
F 14

$$$$
=
 OpenBabel11072409343D

 63 71  0  0  1  0  0  0  0  0999 V2000
  192.6380  170.7120  141.9760 C   0  0  0  0  0  2  0  0  0  0  0  0
  195.5960  172.8220  138.0240 C   0  0  2  0  0  3  0  0  0  0  0  0
  192.3750  171.4520  140.6530 C   0  0  2  0  0  0  0  0  0  0  0  0
  194.9360  171.9990  140.6110 C   0  0  2  0  0  3  0  0  0  0  0  0
  194.0120  170.0550  142.0410 C   0  0  0  0  0  2  0  0  0  0  0  0
  197.3120  172.7760  140.8680 C   0  0  0  0  0  0  0  0  0  0  0  0
  194.0580  172.9300  137.9270 C   0  0  0  0  0  2  0  0  0  0  0  0
  193.4980  172.5060  140.4270 C   0  0  1  0  0  3  0  0  0  0  0  0
  195.7330  171.6340  143.1210 C   0  0  1  0  0  3  0  0  0  0  0  0
  195.1360  171.0620  141.8250 C   0  0  2  0  0  3  0  0  0  0  0  0
  197.2240  171.8850  143.0860 C   0  0  0  0  0  0  0  0  0  0  0  0
  197.6400  173.2480  139.4670 C   0  0  0  0  0  2  0  0  0  0  0  0
  197.9210  172.2750  141.8910 N   0  0  0  0  0  0  0  0  0  0  0  0
  196.2320  173.6660  139.1620 C   0  0  2  0  0  3  0  0  0  0  0  0
  197.8880  171.6930  144.1390 O   0  0  0  0  0  0  0  0  0  0  0  0
  193.3320  173.4110  139.1920 C   0  0  0  0  0  2  0  0  0  0  0  0
  195.9040  173.1890  140.5540 C   0  0  1  0  0  3  0  0  0  0  0  0
  189.1140  174.3930  140.7270 C   0  0  1  0  0  3  0  0  0  0  0  0
  190.9960  172.1460  140.8120 C   0  0  2  0  0  3  0  0  0  0  0  0
  190.4200  172.6690  139.4840 C   0  0  0  0  0  2  0  0  0  0  0  0
  189.6240  173.8680  142.0740 C   0  0  2  0  0  3  0  0  0  0  0  0
  191.0150  173.2610  141.8770 C   0  0  0  0  0  2  0  0  0  0  0  0
  188.7620  172.8960  142.5960 O   0  0  0  0  0  1  0  0  0  0  0  0
  189.0420  173.2890  139.6720 C   0  0  0  0  0  2  0  0  0  0  0  0
  187.8460  175.2440  140.8140 C   0  0  0  0  0  2  0  0  0  0  0  0
  187.8130  176.2130  141.9950 C   0  0  0  0  0  2  0  0  0  0  0  0
  185.6860  177.1870  142.1960 C   0  0  0  0  0  2  0  0  0  0  0  0
  186.9070  177.4600  139.9050 S   0  0  0  0  0  0  0  0  0  0  0  0
  187.0290  177.3970  141.6750 N   0  0  0  0  0  0  0  0  0  0  0  0
  185.1200  177.7850  139.9470 C   0  0  0  0  0  2  0  0  0  0  0  0
  184.7400  178.0330  141.3850 C   0  0  0  0  0  2  0  0  0  0  0  0
  194.9280  172.6560  143.8770 C   0  0  0  0  0  0  0  0  0  0  0  0
  193.4830  174.5730  145.3460 C   0  0  0  0  0  0  0  0  0  0  0  0
  194.2960  172.2970  145.0820 C   0  0  0  0  0  0  0  0  0  0  0  0
  194.1140  174.9300  144.1500 C   0  0  0  0  0  3  0  0  0  0  0  0
  193.5850  173.2530  145.8120 C   0  0  0  0  0  3  0  0  0  0  0  0
  194.8370  173.9810  143.4250 C   0  0  0  0  0  3  0  0  0  0  0  0
  194.3870  170.9660  145.5860 N   0  0  0  0  0  1  0  0  0  0  0  0
  192.7710  175.5670  146.0850 N   0  0  0  0  0  2  0  0  0  0  0  0
  190.5320  174.5580  145.6720 C   0  0  0  0  0  2  0  0  0  0  0  0
  191.2450  175.1220  147.9380 O   0  0  0  0  0  1  0  0  0  0  0  0
  190.3080  176.0720  145.8020 C   0  0  2  0  0  3  0  0  0  0  0  0
  191.4140  175.3750  146.5760 C   0  0  1  0  0  0  0  0  0  0  0  0
  187.6740  177.7820  145.2190 C   0  0  0  0  0  2  0  0  0  0  0  0
  189.4230  177.6160  147.3520 C   0  0  0  0  0  2  0  0  0  0  0  0
  189.1580  176.3440  146.6600 N   0  0  1  0  0  0  0  0  0  0  0  0
  187.1050  178.4940  147.6410 C   0  0  0  0  0  3  0  0  0  0  0  0
  187.9610  176.3920  145.7980 C   0  0  0  0  0  2  0  0  0  0  0  0
  186.8290  178.6550  146.1620 C   0  0  2  0  0  3  0  0  0  0  0  0
  188.2510  178.0530  148.1800 C   0  0  0  0  0  3  0  0  0  0  0  0
  183.4370  178.8520  144.7050 N   0  0  0  0  0  2  0  0  0  0  0  0
  184.6680  179.1660  144.9370 C   0  0  0  0  0  0  0  0  0  0  0  0
  185.4120  178.4300  145.9120 N   0  0  0  0  0  2  0  0  0  0  0  0
  185.2740  180.3200  144.2120 C   0  0  0  0  0  1  0  0  0  0  0  0
  196.1990  173.1330  136.6500 C   0  0  1  0  0  3  0  0  0  0  0  0
  195.6590  172.2960  135.6660 O   0  0  0  0  0  1  0  0  0  0  0  0
  196.0420  174.6150  136.2990 C   0  0  1  0  0  3  0  0  0  0  0  0
  197.3730  175.1290  135.7650 C   0  0  0  0  0  1  0  0  0  0  0  0
  195.0080  174.8010  135.2890 N   0  0  0  0  0  2  0  0  0  0  0  0
  194.6780  177.1380  135.0270 N   0  0  0  0  0  1  0  0  0  0  0  0
  194.2070  175.9420  135.7050 C   0  0  0  0  0  2  0  0  0  0  0  0
  192.2740  170.4350  139.4970 C   0  0  0  0  0  2  0  0  0  0  0  0
  191.3990  169.3830  139.7820 O   0  0  0  0  0  1  0  0  0  0  0  0
  1  5  1  0  0  0  0
  2 55  1  6  0  0  0
  2 14  1  0  0  0  0
  3 62  1  6  0  0  0
  3 19  1  0  0  0  0
  3  1  1  0  0  0  0
  4 10  1  0  0  0  0
  6 13  2  0  0  0  0
  7  2  1  0  0  0  0
  7 16  1  0  0  0  0
  8  4  1  0  0  0  0
  8  3  1  0  0  0  0
  9 32  1  0  0  0  0
 10  5  1  0  0  0  0
 10  9  1  0  0  0  0
 11  9  1  0  0  0  0
 11 15  2  0  0  0  0
 12  6  1  0  0  0  0
 13 11  1  0  0  0  0
 14 12  1  0  0  0  0
 14 17  1  0  0  0  0
 16  8  1  0  0  0  0
 17  4  1  0  0  0  0
 17  6  1  0  0  0  0
 18 25  1  0  0  0  0
 18 21  1  0  0  0  0
 19 22  1  0  0  0  0
 20 24  1  0  0  0  0
 20 19  1  0  0  0  0
 21 23  1  0  0  0  0
 22 21  1  0  0  0  0
 24 18  1  0  0  0  0
 25 26  1  0  0  0  0
 28 30  1  0  0  0  0
 28 29  1  0  0  0  0
 29 26  1  0  0  0  0
 29 27  1  0  0  0  0
 30 31  1  0  0  0  0
 31 27  1  0  0  0  0
 32 34  1  0  0  0  0
 33 36  1  0  0  0  0
 33 39  1  0  0  0  0
 34 38  1  0  0  0  0
 34 36  2  0  0  0  0
 35 33  2  0  0  0  0
 37 32  2  0  0  0  0
 37 35  1  0  0  0  0
 39 43  1  0  0  0  0
 40 42  1  0  0  0  0
 40 43  1  0  0  0  0
 42 43  1  0  0  0  0
 42 46  1  0  0  0  0
 43 41  1  0  0  0  0
 44 48  1  0  0  0  0
 44 49  1  0  0  0  0
 45 50  1  0  0  0  0
 46 45  1  0  0  0  0
 47 50  2  0  0  0  0
 48 46  1  0  0  0  0
 49 47  1  0  0  0  0
 51 52  2  0  0  0  0
 52 53  1  0  0  0  0
 53 49  1  0  0  0  0
 54 52  1  0  0  0  0
 56 55  1  0  0  0  0
 57 55  1  0  0  0  0
 58 57  1  0  0  0  0
 59 61  1  0  0  0  0
 59 57  1  0  0  0  0
 60 61  1  0  0  0  0
 62 63  1  0  0  0  0
M  END
>  <MODEL>
3

>  <REMARK>
 VINA RESULT:      -6.8      2.072      2.808
  Name = 
  14 active torsions:
  status: ('A' for Active; 'I' for Inactive)
    1  A    between atoms: C_2  and  C_15
    2  A    between atoms: C_4  and  C_12
    3  A    between atoms: C_4  and  C_14
    4  A    between atoms: C_5  and  C_13
    5  A    between atoms: N_9  and  C_14
    6  A    between atoms: N_9  and  C_41
    7  A    between atoms: N_10  and  C_28
    8  A    between atoms: N_10  and  C_45
    9  A    between atoms: C_11  and  C_37
   10  A    between atoms: C_13  and  C_54
   11  A    between atoms: C_15  and  C_17
   12  A    between atoms: C_17  and  N_52
   13  A    between atoms: C_25  and  N_29
   14  A    between atoms: N_39  and  C_50
                            x       y       z     vdW  Elec       q    Type
                         _______ _______ _______ _____ _____    ______ ____

>  <TORSDO>
F 14

$$$$
=
 OpenBabel11072409343D

 63 71  0  0  1  0  0  0  0  0999 V2000
  191.9670  175.2030  141.8370 C   0  0  0  0  0  2  0  0  0  0  0  0
  188.7190  176.3620  145.9520 C   0  0  2  0  0  3  0  0  0  0  0  0
  190.5200  174.8790  142.2470 C   0  0  2  0  0  0  0  0  0  0  0  0
  191.1130  175.8660  144.6000 C   0  0  2  0  0  3  0  0  0  0  0  0
  192.5260  176.4480  142.5160 C   0  0  0  0  0  2  0  0  0  0  0  0
  191.8980  176.4800  146.9060 C   0  0  0  0  0  0  0  0  0  0  0  0
  188.1750  175.4660  144.8170 C   0  0  0  0  0  2  0  0  0  0  0  0
  190.4480  174.7390  143.7960 C   0  0  1  0  0  3  0  0  0  0  0  0
  193.7700  175.8310  144.6830 C   0  0  1  0  0  3  0  0  0  0  0  0
  192.4720  176.3410  144.0360 C   0  0  2  0  0  3  0  0  0  0  0  0
  194.1170  176.4610  146.0130 C   0  0  0  0  0  0  0  0  0  0  0  0
  190.5890  176.7130  147.6310 C   0  0  0  0  0  2  0  0  0  0  0  0
  193.1200  176.8970  146.9520 N   0  0  0  0  0  0  0  0  0  0  0  0
  189.8330  175.7080  146.8130 C   0  0  2  0  0  3  0  0  0  0  0  0
  195.3310  176.6570  146.2840 O   0  0  0  0  0  0  0  0  0  0  0  0
  189.0840  174.3120  144.3700 C   0  0  0  0  0  2  0  0  0  0  0  0
  191.1350  175.4820  146.0860 C   0  0  1  0  0  3  0  0  0  0  0  0
  190.7100  171.1080  140.0050 C   0  0  1  0  0  3  0  0  0  0  0  0
  190.1650  173.5360  141.5570 C   0  0  2  0  0  3  0  0  0  0  0  0
  190.8840  172.3240  142.1760 C   0  0  0  0  0  2  0  0  0  0  0  0
  189.9450  172.2730  139.3670 C   0  0  2  0  0  3  0  0  0  0  0  0
  190.3830  173.5800  140.0310 C   0  0  0  0  0  2  0  0  0  0  0  0
  188.5620  172.1130  139.5220 O   0  0  0  0  0  1  0  0  0  0  0  0
  190.4660  171.0190  141.5110 C   0  0  0  0  0  2  0  0  0  0  0  0
  190.5580  169.7710  139.2770 C   0  0  0  0  0  2  0  0  0  0  0  0
  190.0830  169.8880  137.8300 C   0  0  0  0  0  2  0  0  0  0  0  0
  190.7570  170.7840  135.7660 C   0  0  0  0  0  2  0  0  0  0  0  0
  191.6050  168.3870  136.3560 S   0  0  0  0  0  0  0  0  0  0  0  0
  191.2130  170.0240  136.9210 N   0  0  0  0  0  0  0  0  0  0  0  0
  191.7150  168.9130  134.6200 C   0  0  0  0  0  2  0  0  0  0  0  0
  191.6340  170.4180  134.5980 C   0  0  0  0  0  2  0  0  0  0  0  0
  194.0870  174.3650  144.5650 C   0  0  0  0  0  0  0  0  0  0  0  0
  194.7520  171.6370  144.3810 C   0  0  0  0  0  0  0  0  0  0  0  0
  195.0060  173.9230  143.5950 C   0  0  0  0  0  0  0  0  0  0  0  0
  193.8410  172.0760  145.3450 C   0  0  0  0  0  3  0  0  0  0  0  0
  195.3400  172.5690  143.5110 C   0  0  0  0  0  3  0  0  0  0  0  0
  193.5160  173.4310  145.4410 C   0  0  0  0  0  3  0  0  0  0  0  0
  195.6260  174.8460  142.7020 N   0  0  0  0  0  1  0  0  0  0  0  0
  195.0890  170.2500  144.3180 N   0  0  0  0  0  2  0  0  0  0  0  0
  195.6190  168.1690  143.0550 C   0  0  0  0  0  2  0  0  0  0  0  0
  193.4180  169.2090  142.8730 O   0  0  0  0  0  1  0  0  0  0  0  0
  195.8010  169.3330  142.0690 C   0  0  2  0  0  3  0  0  0  0  0  0
  194.7660  169.4020  143.1800 C   0  0  1  0  0  0  0  0  0  0  0  0
  197.0470  169.3300  139.1280 C   0  0  0  0  0  2  0  0  0  0  0  0
  194.6920  170.2830  140.2160 C   0  0  0  0  0  2  0  0  0  0  0  0
  195.1770  169.0160  140.7880 N   0  0  1  0  0  0  0  0  0  0  0  0
  194.8960  169.8130  137.7740 C   0  0  0  0  0  3  0  0  0  0  0  0
  196.1950  168.3550  139.9490 C   0  0  0  0  0  2  0  0  0  0  0  0
  196.4030  169.6890  137.7780 C   0  0  2  0  0  3  0  0  0  0  0  0
  194.1290  170.0920  138.8390 C   0  0  0  0  0  3  0  0  0  0  0  0
  197.3010  168.1660  134.5320 N   0  0  0  0  0  2  0  0  0  0  0  0
  196.8470  169.0390  135.3670 C   0  0  0  0  0  0  0  0  0  0  0  0
  196.8080  168.7270  136.7630 N   0  0  0  0  0  2  0  0  0  0  0  0
  196.3300  170.3400  134.8520 C   0  0  0  0  0  1  0  0  0  0  0  0
  187.5390  176.8620  146.7920 C   0  0  1  0  0  3  0  0  0  0  0  0
  187.9120  177.9640  147.5710 O   0  0  0  0  0  1  0  0  0  0  0  0
  186.3200  177.1580  145.9160 C   0  0  1  0  0  3  0  0  0  0  0  0
  185.0700  176.6880  146.6490 C   0  0  0  0  0  1  0  0  0  0  0  0
  186.2150  178.5850  145.6410 N   0  0  0  0  0  2  0  0  0  0  0  0
  185.1220  179.6190  143.8030 N   0  0  0  0  0  1  0  0  0  0  0  0
  186.2120  178.7410  144.1940 C   0  0  0  0  0  2  0  0  0  0  0  0
  189.5680  175.9670  141.7050 C   0  0  0  0  0  2  0  0  0  0  0  0
  188.3320  175.4500  141.3080 O   0  0  0  0  0  1  0  0  0  0  0  0
  1  3  1  0  0  0  0
  1  5  1  0  0  0  0
  2 55  1  1  0  0  0
  2 14  1  0  0  0  0
  3 62  1  6  0  0  0
  3  8  1  0  0  0  0
  4 17  1  0  0  0  0
  5 10  1  0  0  0  0
  6 13  2  0  0  0  0
  6 12  1  0  0  0  0
  7  2  1  0  0  0  0
  8 16  1  0  0  0  0
  8  4  1  0  0  0  0
  9 11  1  0  0  0  0
 10  4  1  0  0  0  0
 10  9  1  0  0  0  0
 11 15  2  0  0  0  0
 11 13  1  0  0  0  0
 14 12  1  0  0  0  0
 16  7  1  0  0  0  0
 17 14  1  0  0  0  0
 17  6  1  0  0  0  0
 18 24  1  0  0  0  0
 19 20  1  0  0  0  0
 19  3  1  0  0  0  0
 21 23  1  0  0  0  0
 21 18  1  0  0  0  0
 21 22  1  0  0  0  0
 22 19  1  0  0  0  0
 24 20  1  0  0  0  0
 25 18  1  0  0  0  0
 26 25  1  0  0  0  0
 27 29  1  0  0  0  0
 28 29  1  0  0  0  0
 29 26  1  0  0  0  0
 30 28  1  0  0  0  0
 31 30  1  0  0  0  0
 31 27  1  0  0  0  0
 32  9  1  0  0  0  0
 32 37  1  0  0  0  0
 33 35  1  0  0  0  0
 34 32  2  0  0  0  0
 35 37  2  0  0  0  0
 36 34  1  0  0  0  0
 36 33  2  0  0  0  0
 38 34  1  0  0  0  0
 39 33  1  0  0  0  0
 40 43  1  0  0  0  0
 41 43  1  0  0  0  0
 42 40  1  0  0  0  0
 42 43  1  0  0  0  0
 43 39  1  0  0  0  0
 44 48  1  0  0  0  0
 45 46  1  0  0  0  0
 46 42  1  0  0  0  0
 47 49  1  0  0  0  0
 47 50  2  0  0  0  0
 48 46  1  0  0  0  0
 49 44  1  0  0  0  0
 50 45  1  0  0  0  0
 51 52  2  0  0  0  0
 52 53  1  0  0  0  0
 53 49  1  0  0  0  0
 54 52  1  0  0  0  0
 55 56  1  0  0  0  0
 57 58  1  0  0  0  0
 57 55  1  0  0  0  0
 59 57  1  0  0  0  0
 60 61  1  0  0  0  0
 61 59  1  0  0  0  0
 63 62  1  0  0  0  0
M  END
>  <MODEL>
4

>  <REMARK>
 VINA RESULT:      -6.7      3.471      9.627
  Name = 
  14 active torsions:
  status: ('A' for Active; 'I' for Inactive)
    1  A    between atoms: C_2  and  C_15
    2  A    between atoms: C_4  and  C_12
    3  A    between atoms: C_4  and  C_14
    4  A    between atoms: C_5  and  C_13
    5  A    between atoms: N_9  and  C_14
    6  A    between atoms: N_9  and  C_41
    7  A    between atoms: N_10  and  C_28
    8  A    between atoms: N_10  and  C_45
    9  A    between atoms: C_11  and  C_37
   10  A    between atoms: C_13  and  C_54
   11  A    between atoms: C_15  and  C_17
   12  A    between atoms: C_17  and  N_52
   13  A    between atoms: C_25  and  N_29
   14  A    between atoms: N_39  and  C_50
                            x       y       z     vdW  Elec       q    Type
                         _______ _______ _______ _____ _____    ______ ____

>  <TORSDO>
F 14

$$$$
=
 OpenBabel11072409343D

 63 71  0  0  1  0  0  0  0  0999 V2000
  192.3100  170.5030  140.5350 C   0  0  0  0  0  2  0  0  0  0  0  0
  194.7790  173.6470  136.9510 C   0  0  2  0  0  3  0  0  0  0  0  0
  191.9180  171.6670  139.6080 C   0  0  2  0  0  0  0  0  0  0  0  0
  194.4810  172.0310  139.2110 C   0  0  2  0  0  3  0  0  0  0  0  0
  193.5770  169.7780  140.0950 C   0  0  0  0  0  2  0  0  0  0  0  0
  196.9450  172.5200  139.2020 C   0  0  0  0  0  0  0  0  0  0  0  0
  193.2750  173.8790  137.2180 C   0  0  0  0  0  2  0  0  0  0  0  0
  193.1120  172.6610  139.5050 C   0  0  1  0  0  3  0  0  0  0  0  0
  195.6510  170.7790  141.2430 C   0  0  1  0  0  3  0  0  0  0  0  0
  194.7660  170.7250  139.9870 C   0  0  2  0  0  3  0  0  0  0  0  0
  197.1320  170.9300  140.9800 C   0  0  0  0  0  0  0  0  0  0  0  0
  197.0820  173.4220  137.9930 C   0  0  0  0  0  2  0  0  0  0  0  0
  197.6540  171.6610  139.8570 N   0  0  0  0  0  0  0  0  0  0  0  0
  195.7090  174.0080  138.1410 C   0  0  2  0  0  3  0  0  0  0  0  0
  197.9400  170.3480  141.7510 O   0  0  0  0  0  0  0  0  0  0  0  0
  192.8510  173.9430  138.6920 C   0  0  0  0  0  2  0  0  0  0  0  0
  195.5700  173.1040  139.3400 C   0  0  1  0  0  3  0  0  0  0  0  0
  189.0990  174.6140  141.2390 C   0  0  1  0  0  3  0  0  0  0  0  0
  190.6900  172.3500  140.2670 C   0  0  2  0  0  3  0  0  0  0  0  0
  189.9120  173.2650  139.3040 C   0  0  0  0  0  2  0  0  0  0  0  0
  189.8170  173.6950  142.2340 C   0  0  2  0  0  3  0  0  0  0  0  0
  191.0580  173.1050  141.5600 C   0  0  0  0  0  2  0  0  0  0  0  0
  188.9780  172.6560  142.6570 O   0  0  0  0  0  1  0  0  0  0  0  0
  188.6830  173.8700  139.9700 C   0  0  0  0  0  2  0  0  0  0  0  0
  187.9820  175.4630  141.8480 C   0  0  0  0  0  2  0  0  0  0  0  0
  187.2630  176.3720  140.8520 C   0  0  0  0  0  2  0  0  0  0  0  0
  185.8930  176.9130  142.6810 C   0  0  0  0  0  2  0  0  0  0  0  0
  185.3760  178.1010  140.4160 S   0  0  0  0  0  0  0  0  0  0  0  0
  186.5990  177.4720  141.5380 N   0  0  0  0  0  0  0  0  0  0  0  0
  184.0870  178.1370  141.6960 C   0  0  0  0  0  2  0  0  0  0  0  0
  184.7520  177.8370  143.0150 C   0  0  0  0  0  2  0  0  0  0  0  0
  195.1310  171.5290  142.4390 C   0  0  0  0  0  0  0  0  0  0  0  0
  194.1280  172.9860  144.6270 C   0  0  0  0  0  0  0  0  0  0  0  0
  195.7670  172.7140  142.8530 C   0  0  0  0  0  0  0  0  0  0  0  0
  193.4950  171.8100  144.2150 C   0  0  0  0  0  3  0  0  0  0  0  0
  195.2620  173.4390  143.9350 C   0  0  0  0  0  3  0  0  0  0  0  0
  193.9890  171.0900  143.1240 C   0  0  0  0  0  3  0  0  0  0  0  0
  196.9170  173.2040  142.1660 N   0  0  0  0  0  1  0  0  0  0  0  0
  193.5900  173.7210  145.7280 N   0  0  0  0  0  2  0  0  0  0  0  0
  193.5310  175.9460  146.8460 C   0  0  0  0  0  2  0  0  0  0  0  0
  193.3840  175.7700  144.4160 O   0  0  0  0  0  1  0  0  0  0  0  0
  192.0710  175.5680  146.5560 C   0  0  2  0  0  3  0  0  0  0  0  0
  193.1940  175.1190  145.6360 C   0  0  1  0  0  0  0  0  0  0  0  0
  188.9990  176.3980  146.8320 C   0  0  0  0  0  2  0  0  0  0  0  0
  190.7700  176.2650  144.7150 C   0  0  0  0  0  2  0  0  0  0  0  0
  191.3550  176.7080  145.9920 N   0  0  1  0  0  0  0  0  0  0  0  0
  188.7240  177.6900  144.6070 C   0  0  0  0  0  3  0  0  0  0  0  0
  190.3400  177.1280  146.9780 C   0  0  0  0  0  2  0  0  0  0  0  0
  188.0610  177.0770  145.8210 C   0  0  2  0  0  3  0  0  0  0  0  0
  189.9120  177.3290  144.0980 C   0  0  0  0  0  3  0  0  0  0  0  0
  185.2630  178.7950  147.5210 N   0  0  0  0  0  2  0  0  0  0  0  0
  185.8880  177.8870  146.8490 C   0  0  0  0  0  0  0  0  0  0  0  0
  187.2570  178.0910  146.4900 N   0  0  0  0  0  2  0  0  0  0  0  0
  185.1530  176.6600  146.4230 C   0  0  0  0  0  1  0  0  0  0  0  0
  195.1670  174.3710  135.6580 C   0  0  1  0  0  3  0  0  0  0  0  0
  194.3460  173.9720  134.5960 O   0  0  0  0  0  1  0  0  0  0  0  0
  195.1650  175.8890  135.8500 C   0  0  1  0  0  3  0  0  0  0  0  0
  196.5830  176.4060  135.6430 C   0  0  0  0  0  1  0  0  0  0  0  0
  194.2690  176.5310  134.8960 N   0  0  0  0  0  2  0  0  0  0  0  0
  191.9370  176.7450  135.2930 N   0  0  0  0  0  1  0  0  0  0  0  0
  193.2550  177.2310  135.6690 C   0  0  0  0  0  2  0  0  0  0  0  0
  191.4840  171.1160  138.2330 C   0  0  0  0  0  2  0  0  0  0  0  0
  191.0750  169.7810  138.2940 O   0  0  0  0  0  1  0  0  0  0  0  0
  2 55  1  6  0  0  0
  2  7  1  0  0  0  0
  2 14  1  0  0  0  0
  3 62  1  6  0  0  0
  3 19  1  0  0  0  0
  3  1  1  0  0  0  0
  4 17  1  0  0  0  0
  4  8  1  0  0  0  0
  4 10  1  0  0  0  0
  5  1  1  0  0  0  0
  6 17  1  0  0  0  0
  6 13  2  0  0  0  0
  7 16  1  0  0  0  0
  8  3  1  0  0  0  0
  9 32  1  0  0  0  0
 10  5  1  0  0  0  0
 10  9  1  0  0  0  0
 11  9  1  0  0  0  0
 11 15  2  0  0  0  0
 12 14  1  0  0  0  0
 12  6  1  0  0  0  0
 13 11  1  0  0  0  0
 14 17  1  0  0  0  0
 16  8  1  0  0  0  0
 18 25  1  0  0  0  0
 18 21  1  0  0  0  0
 19 22  1  0  0  0  0
 20 24  1  0  0  0  0
 20 19  1  0  0  0  0
 21 23  1  0  0  0  0
 22 21  1  0  0  0  0
 24 18  1  0  0  0  0
 26 29  1  0  0  0  0
 26 25  1  0  0  0  0
 27 31  1  0  0  0  0
 28 29  1  0  0  0  0
 28 30  1  0  0  0  0
 29 27  1  0  0  0  0
 30 31  1  0  0  0  0
 32 34  2  0  0  0  0
 32 37  1  0  0  0  0
 33 39  1  0  0  0  0
 34 36  1  0  0  0  0
 35 33  1  0  0  0  0
 36 33  2  0  0  0  0
 37 35  2  0  0  0  0
 38 34  1  0  0  0  0
 41 43  1  0  0  0  0
 42 40  1  0  0  0  0
 43 39  1  0  0  0  0
 43 42  1  0  0  0  0
 43 40  1  0  0  0  0
 44 48  1  0  0  0  0
 45 46  1  0  0  0  0
 46 42  1  0  0  0  0
 46 48  1  0  0  0  0
 47 49  1  0  0  0  0
 49 53  1  0  0  0  0
 49 44  1  0  0  0  0
 50 47  2  0  0  0  0
 50 45  1  0  0  0  0
 52 51  2  0  0  0  0
 53 52  1  0  0  0  0
 54 52  1  0  0  0  0
 55 57  1  0  0  0  0
 56 55  1  0  0  0  0
 58 57  1  0  0  0  0
 59 61  1  0  0  0  0
 59 57  1  0  0  0  0
 60 61  1  0  0  0  0
 62 63  1  0  0  0  0
M  END
>  <MODEL>
5

>  <REMARK>
 VINA RESULT:      -6.5      2.235      4.015
  Name = 
  14 active torsions:
  status: ('A' for Active; 'I' for Inactive)
    1  A    between atoms: C_2  and  C_15
    2  A    between atoms: C_4  and  C_12
    3  A    between atoms: C_4  and  C_14
    4  A    between atoms: C_5  and  C_13
    5  A    between atoms: N_9  and  C_14
    6  A    between atoms: N_9  and  C_41
    7  A    between atoms: N_10  and  C_28
    8  A    between atoms: N_10  and  C_45
    9  A    between atoms: C_11  and  C_37
   10  A    between atoms: C_13  and  C_54
   11  A    between atoms: C_15  and  C_17
   12  A    between atoms: C_17  and  N_52
   13  A    between atoms: C_25  and  N_29
   14  A    between atoms: N_39  and  C_50
                            x       y       z     vdW  Elec       q    Type
                         _______ _______ _______ _____ _____    ______ ____

>  <TORSDO>
F 14

$$$$
=
 OpenBabel11072409343D

 63 71  0  0  1  0  0  0  0  0999 V2000
  190.9860  172.8600  144.0890 C   0  0  0  0  0  2  0  0  0  0  0  0
  195.7130  174.6980  142.3300 C   0  0  2  0  0  3  0  0  0  0  0  0
  191.7610  172.8650  142.7600 C   0  0  2  0  0  0  0  0  0  0  0  0
  193.3900  174.5850  143.8770 C   0  0  2  0  0  3  0  0  0  0  0  0
  191.8750  173.0610  145.3110 C   0  0  0  0  0  2  0  0  0  0  0  0
  194.6520  176.4960  144.9120 C   0  0  0  0  0  0  0  0  0  0  0  0
  194.7910  173.9680  141.3280 C   0  0  0  0  0  2  0  0  0  0  0  0
  192.5640  174.1940  142.6430 C   0  0  1  0  0  3  0  0  0  0  0  0
  192.0200  175.5520  145.9400 C   0  0  1  0  0  3  0  0  0  0  0  0
  192.6740  174.3570  145.2280 C   0  0  2  0  0  3  0  0  0  0  0  0
  192.9820  176.4970  146.6250 C   0  0  0  0  0  0  0  0  0  0  0  0
  195.8890  176.5620  144.0420 C   0  0  0  0  0  2  0  0  0  0  0  0
  194.3060  176.7550  146.1300 N   0  0  0  0  0  0  0  0  0  0  0  0
  195.1820  176.0740  142.8120 C   0  0  2  0  0  3  0  0  0  0  0  0
  192.6230  177.0390  147.7030 O   0  0  0  0  0  0  0  0  0  0  0  0
  193.3200  174.4080  141.3180 C   0  0  0  0  0  2  0  0  0  0  0  0
  193.9510  176.0000  143.6810 C   0  0  1  0  0  3  0  0  0  0  0  0
  189.5230  173.3480  139.0120 C   0  0  1  0  0  3  0  0  0  0  0  0
  190.6950  172.7660  141.6370 C   0  0  2  0  0  3  0  0  0  0  0  0
  191.2240  172.1070  140.3510 C   0  0  0  0  0  2  0  0  0  0  0  0
  188.9340  173.9850  140.2760 C   0  0  2  0  0  3  0  0  0  0  0  0
  190.0390  174.1260  141.3250 C   0  0  0  0  0  2  0  0  0  0  0  0
  187.8950  173.2030  140.7970 O   0  0  0  0  0  1  0  0  0  0  0  0
  190.1340  171.9750  139.2950 C   0  0  0  0  0  2  0  0  0  0  0  0
  188.5960  173.3690  137.7960 C   0  0  0  0  0  2  0  0  0  0  0  0
  189.0210  174.3370  136.6930 C   0  0  0  0  0  2  0  0  0  0  0  0
  189.3110  172.2240  135.7100 C   0  0  0  0  0  2  0  0  0  0  0  0
  191.4220  173.7450  135.9030 S   0  0  0  0  0  0  0  0  0  0  0  0
  189.6770  173.6290  135.6030 N   0  0  0  0  0  0  0  0  0  0  0  0
  191.6890  171.9760  135.5870 C   0  0  0  0  0  2  0  0  0  0  0  0
  190.3960  171.4130  135.0530 C   0  0  0  0  0  2  0  0  0  0  0  0
  190.8390  176.2080  145.2770 C   0  0  0  0  0  0  0  0  0  0  0  0
  188.6220  177.4810  144.1040 C   0  0  0  0  0  0  0  0  0  0  0  0
  189.5350  175.9030  145.7100 C   0  0  0  0  0  0  0  0  0  0  0  0
  189.9170  177.7860  143.6750 C   0  0  0  0  0  3  0  0  0  0  0  0
  188.4370  176.5430  145.1310 C   0  0  0  0  0  3  0  0  0  0  0  0
  191.0180  177.1590  144.2620 C   0  0  0  0  0  3  0  0  0  0  0  0
  189.3150  174.9600  146.7570 N   0  0  0  0  0  1  0  0  0  0  0  0
  187.5120  178.1550  143.5070 N   0  0  0  0  0  2  0  0  0  0  0  0
  186.0260  176.8070  142.0300 C   0  0  0  0  0  2  0  0  0  0  0  0
  185.6320  176.9050  144.4370 O   0  0  0  0  0  1  0  0  0  0  0  0
  185.3050  178.1420  142.2680 C   0  0  2  0  0  3  0  0  0  0  0  0
  186.2050  177.5370  143.3330 C   0  0  1  0  0  0  0  0  0  0  0  0
  182.6980  178.7530  140.5280 C   0  0  0  0  0  2  0  0  0  0  0  0
  183.3750  179.1490  143.1780 C   0  0  0  0  0  2  0  0  0  0  0  0
  183.8970  177.9100  142.5780 N   0  0  1  0  0  0  0  0  0  0  0  0
  180.9900  179.0640  142.4470 C   0  0  0  0  0  3  0  0  0  0  0  0
  183.2190  177.5470  141.3180 C   0  0  0  0  0  2  0  0  0  0  0  0
  181.2900  179.1880  140.9690 C   0  0  2  0  0  3  0  0  0  0  0  0
  181.8990  179.0630  143.4330 C   0  0  0  0  0  3  0  0  0  0  0  0
  178.2760  178.3760  138.9880 N   0  0  0  0  0  2  0  0  0  0  0  0
  179.0830  179.0620  139.7270 C   0  0  0  0  0  0  0  0  0  0  0  0
  180.2830  178.4560  140.2140 N   0  0  0  0  0  2  0  0  0  0  0  0
  178.7200  180.4620  140.0950 C   0  0  0  0  0  1  0  0  0  0  0  0
  197.1200  174.7850  141.7290 C   0  0  1  0  0  3  0  0  0  0  0  0
  197.7960  175.9180  142.1990 O   0  0  0  0  0  1  0  0  0  0  0  0
  197.9090  173.4970  141.9750 C   0  0  1  0  0  3  0  0  0  0  0  0
  197.8470  173.1670  143.4610 C   0  0  0  0  0  1  0  0  0  0  0  0
  197.3490  172.3920  141.2080 N   0  0  0  0  0  2  0  0  0  0  0  0
  197.9410  170.1340  140.7660 N   0  0  0  0  0  1  0  0  0  0  0  0
  197.8670  171.1640  141.7900 C   0  0  0  0  0  2  0  0  0  0  0  0
  192.6650  171.6160  142.6790 C   0  0  0  0  0  2  0  0  0  0  0  0
  192.2310  170.5830  143.5140 O   0  0  0  0  0  1  0  0  0  0  0  0
  1  5  1  0  0  0  0
  2 55  1  6  0  0  0
  2 14  1  0  0  0  0
  3 62  1  6  0  0  0
  3  1  1  0  0  0  0
  4 10  1  0  0  0  0
  6 13  2  0  0  0  0
  7  2  1  0  0  0  0
  8  3  1  0  0  0  0
  8  4  1  0  0  0  0
  9 11  1  0  0  0  0
 10  5  1  0  0  0  0
 10  9  1  0  0  0  0
 11 15  2  0  0  0  0
 12  6  1  0  0  0  0
 13 11  1  0  0  0  0
 14 17  1  0  0  0  0
 14 12  1  0  0  0  0
 16  7  1  0  0  0  0
 16  8  1  0  0  0  0
 17  4  1  0  0  0  0
 17  6  1  0  0  0  0
 18 24  1  0  0  0  0
 18 21  1  0  0  0  0
 19  3  1  0  0  0  0
 20 19  1  0  0  0  0
 21 23  1  0  0  0  0
 21 22  1  0  0  0  0
 22 19  1  0  0  0  0
 24 20  1  0  0  0  0
 25 18  1  0  0  0  0
 26 25  1  0  0  0  0
 29 27  1  0  0  0  0
 29 28  1  0  0  0  0
 29 26  1  0  0  0  0
 30 28  1  0  0  0  0
 31 30  1  0  0  0  0
 31 27  1  0  0  0  0
 32 34  1  0  0  0  0
 32  9  1  0  0  0  0
 33 36  1  0  0  0  0
 34 38  1  0  0  0  0
 35 33  2  0  0  0  0
 35 37  1  0  0  0  0
 36 34  2  0  0  0  0
 37 32  2  0  0  0  0
 39 33  1  0  0  0  0
 40 42  1  0  0  0  0
 40 43  1  0  0  0  0
 42 46  1  0  0  0  0
 42 43  1  0  0  0  0
 43 39  1  0  0  0  0
 43 41  1  0  0  0  0
 44 49  1  0  0  0  0
 44 48  1  0  0  0  0
 45 50  1  0  0  0  0
 46 45  1  0  0  0  0
 47 50  2  0  0  0  0
 48 46  1  0  0  0  0
 49 47  1  0  0  0  0
 51 52  2  0  0  0  0
 52 54  1  0  0  0  0
 52 53  1  0  0  0  0
 53 49  1  0  0  0  0
 55 57  1  0  0  0  0
 55 56  1  0  0  0  0
 57 58  1  0  0  0  0
 59 61  1  0  0  0  0
 59 57  1  0  0  0  0
 60 61  1  0  0  0  0
 62 63  1  0  0  0  0
M  END
>  <MODEL>
6

>  <REMARK>
 VINA RESULT:      -6.2      2.787      4.555
  Name = 
  14 active torsions:
  status: ('A' for Active; 'I' for Inactive)
    1  A    between atoms: C_2  and  C_15
    2  A    between atoms: C_4  and  C_12
    3  A    between atoms: C_4  and  C_14
    4  A    between atoms: C_5  and  C_13
    5  A    between atoms: N_9  and  C_14
    6  A    between atoms: N_9  and  C_41
    7  A    between atoms: N_10  and  C_28
    8  A    between atoms: N_10  and  C_45
    9  A    between atoms: C_11  and  C_37
   10  A    between atoms: C_13  and  C_54
   11  A    between atoms: C_15  and  C_17
   12  A    between atoms: C_17  and  N_52
   13  A    between atoms: C_25  and  N_29
   14  A    between atoms: N_39  and  C_50
                            x       y       z     vdW  Elec       q    Type
                         _______ _______ _______ _____ _____    ______ ____

>  <TORSDO>
F 14

$$$$
=
 OpenBabel11072409343D

 63 71  0  0  1  0  0  0  0  0999 V2000
  190.2600  176.3140  141.9480 C   0  0  0  0  0  2  0  0  0  0  0  0
  186.0520  177.3100  145.1300 C   0  0  2  0  0  3  0  0  0  0  0  0
  188.7370  176.1080  141.8870 C   0  0  2  0  0  0  0  0  0  0  0  0
  188.6930  176.7170  144.4340 C   0  0  2  0  0  3  0  0  0  0  0  0
  190.6880  177.3920  142.9370 C   0  0  0  0  0  2  0  0  0  0  0  0
  188.8170  176.9440  146.9330 C   0  0  0  0  0  0  0  0  0  0  0  0
  185.7970  176.6320  143.7660 C   0  0  0  0  0  2  0  0  0  0  0  0
  188.2090  175.7830  143.3150 C   0  0  1  0  0  3  0  0  0  0  0  0
  191.2010  176.3690  145.2420 C   0  0  1  0  0  3  0  0  0  0  0  0
  190.1880  177.1010  144.3480 C   0  0  2  0  0  3  0  0  0  0  0  0
  191.1920  176.7840  146.6970 C   0  0  0  0  0  0  0  0  0  0  0  0
  187.3750  177.2320  147.2940 C   0  0  0  0  0  2  0  0  0  0  0  0
  190.0000  177.2090  147.3780 N   0  0  0  0  0  0  0  0  0  0  0  0
  186.8180  176.4300  146.1550 C   0  0  2  0  0  3  0  0  0  0  0  0
  192.2860  176.8040  147.3200 O   0  0  0  0  0  0  0  0  0  0  0  0
  186.7090  175.4470  143.4170 C   0  0  0  0  0  2  0  0  0  0  0  0
  188.2540  176.1500  145.7910 C   0  0  1  0  0  3  0  0  0  0  0  0
  189.2270  172.4640  139.4850 C   0  0  1  0  0  3  0  0  0  0  0  0
  188.5000  174.9110  140.9290 C   0  0  2  0  0  3  0  0  0  0  0  0
  188.5610  173.5440  141.6330 C   0  0  0  0  0  2  0  0  0  0  0  0
  189.1260  173.7970  138.7360 C   0  0  2  0  0  3  0  0  0  0  0  0
  189.4390  174.9390  139.7060 C   0  0  0  0  0  2  0  0  0  0  0  0
  187.8440  173.9790  138.2010 O   0  0  0  0  0  1  0  0  0  0  0  0
  188.2660  172.4000  140.6730 C   0  0  0  0  0  2  0  0  0  0  0  0
  189.1810  171.2250  138.5900 C   0  0  0  0  0  2  0  0  0  0  0  0
  189.9110  171.3790  137.2570 C   0  0  0  0  0  2  0  0  0  0  0  0
  190.7870  169.2420  137.6820 C   0  0  0  0  0  2  0  0  0  0  0  0
  191.4050  170.3480  135.4000 S   0  0  0  0  0  0  0  0  0  0  0  0
  190.1810  170.0800  136.6570 N   0  0  0  0  0  0  0  0  0  0  0  0
  192.4120  168.9390  135.9500 C   0  0  0  0  0  2  0  0  0  0  0  0
  191.6140  168.1920  136.9890 C   0  0  0  0  0  2  0  0  0  0  0  0
  191.4300  174.9030  144.9940 C   0  0  0  0  0  0  0  0  0  0  0  0
  191.8960  172.1560  144.6020 C   0  0  0  0  0  0  0  0  0  0  0  0
  192.7120  174.4450  144.6370 C   0  0  0  0  0  0  0  0  0  0  0  0
  190.6230  172.6100  144.9590 C   0  0  0  0  0  3  0  0  0  0  0  0
  192.9410  173.0790  144.4510 C   0  0  0  0  0  3  0  0  0  0  0  0
  190.3930  173.9730  145.1600 C   0  0  0  0  0  3  0  0  0  0  0  0
  193.7960  175.3580  144.4830 N   0  0  0  0  0  1  0  0  0  0  0  0
  192.1140  170.7540  144.4270 N   0  0  0  0  0  2  0  0  0  0  0  0
  193.5380  169.1450  143.1680 C   0  0  0  0  0  2  0  0  0  0  0  0
  191.3510  169.8070  142.3100 O   0  0  0  0  0  1  0  0  0  0  0  0
  193.7570  170.5190  142.5170 C   0  0  2  0  0  3  0  0  0  0  0  0
  192.4200  170.1510  143.1380 C   0  0  1  0  0  0  0  0  0  0  0  0
  195.6050  171.8780  140.2950 C   0  0  0  0  0  2  0  0  0  0  0  0
  192.8790  171.5160  140.5670 C   0  0  0  0  0  2  0  0  0  0  0  0
  193.7100  170.4050  141.0630 N   0  0  1  0  0  0  0  0  0  0  0  0
  193.9160  171.9280  138.3350 C   0  0  0  0  0  3  0  0  0  0  0  0
  195.0990  170.4560  140.5670 C   0  0  0  0  0  2  0  0  0  0  0  0
  195.2560  172.3720  138.8810 C   0  0  2  0  0  3  0  0  0  0  0  0
  192.8530  171.5640  139.0680 C   0  0  0  0  0  3  0  0  0  0  0  0
  197.7920  172.4890  136.1930 N   0  0  0  0  0  2  0  0  0  0  0  0
  196.7990  172.8630  136.9290 C   0  0  0  0  0  0  0  0  0  0  0  0
  196.3040  171.9870  137.9460 N   0  0  0  0  0  2  0  0  0  0  0  0
  196.1600  174.1860  136.6720 C   0  0  0  0  0  1  0  0  0  0  0  0
  184.7200  177.8320  145.6770 C   0  0  1  0  0  3  0  0  0  0  0  0
  184.7490  177.9100  147.0750 O   0  0  0  0  0  1  0  0  0  0  0  0
  184.3400  179.1660  145.0310 C   0  0  1  0  0  3  0  0  0  0  0  0
  185.5670  179.7300  144.3260 C   0  0  0  0  0  1  0  0  0  0  0  0
  183.2640  178.9850  144.0640 N   0  0  0  0  0  2  0  0  0  0  0  0
  183.0490  178.2840  141.8050 N   0  0  0  0  0  1  0  0  0  0  0  0
  183.8670  179.0370  142.7420 C   0  0  0  0  0  2  0  0  0  0  0  0
  188.0660  177.3570  141.2760 C   0  0  0  0  0  2  0  0  0  0  0  0
  188.0090  178.4290  142.1700 O   0  0  0  0  0  1  0  0  0  0  0  0
  1  5  1  0  0  0  0
  2 55  1  1  0  0  0
  2 14  1  0  0  0  0
  3 62  1  6  0  0  0
  3  1  1  0  0  0  0
  3  8  1  0  0  0  0
  4 17  1  0  0  0  0
  5 10  1  0  0  0  0
  6 12  1  0  0  0  0
  6 13  2  0  0  0  0
  7  2  1  0  0  0  0
  8 16  1  0  0  0  0
  8  4  1  0  0  0  0
  9 11  1  0  0  0  0
 10  4  1  0  0  0  0
 10  9  1  0  0  0  0
 11 15  2  0  0  0  0
 11 13  1  0  0  0  0
 14 12  1  0  0  0  0
 16  7  1  0  0  0  0
 17 14  1  0  0  0  0
 17  6  1  0  0  0  0
 18 24  1  0  0  0  0
 19 20  1  0  0  0  0
 19  3  1  0  0  0  0
 21 18  1  0  0  0  0
 21 22  1  0  0  0  0
 22 19  1  0  0  0  0
 23 21  1  0  0  0  0
 24 20  1  0  0  0  0
 25 18  1  0  0  0  0
 26 25  1  0  0  0  0
 28 30  1  0  0  0  0
 28 29  1  0  0  0  0
 29 26  1  0  0  0  0
 29 27  1  0  0  0  0
 30 31  1  0  0  0  0
 31 27  1  0  0  0  0
 32 37  1  0  0  0  0
 32  9  1  0  0  0  0
 33 35  1  0  0  0  0
 34 32  2  0  0  0  0
 35 37  2  0  0  0  0
 36 33  2  0  0  0  0
 36 34  1  0  0  0  0
 38 34  1  0  0  0  0
 39 33  1  0  0  0  0
 41 43  1  0  0  0  0
 42 43  1  0  0  0  0
 42 40  1  0  0  0  0
 43 40  1  0  0  0  0
 43 39  1  0  0  0  0
 44 48  1  0  0  0  0
 45 46  1  0  0  0  0
 46 42  1  0  0  0  0
 47 49  1  0  0  0  0
 47 50  2  0  0  0  0
 48 46  1  0  0  0  0
 49 44  1  0  0  0  0
 50 45  1  0  0  0  0
 51 52  2  0  0  0  0
 52 53  1  0  0  0  0
 53 49  1  0  0  0  0
 54 52  1  0  0  0  0
 55 56  1  0  0  0  0
 57 55  1  0  0  0  0
 58 57  1  0  0  0  0
 59 57  1  0  0  0  0
 60 61  1  0  0  0  0
 61 59  1  0  0  0  0
 62 63  1  0  0  0  0
M  END
>  <MODEL>
7

>  <REMARK>
 VINA RESULT:      -5.7      2.903      9.634
  Name = 
  14 active torsions:
  status: ('A' for Active; 'I' for Inactive)
    1  A    between atoms: C_2  and  C_15
    2  A    between atoms: C_4  and  C_12
    3  A    between atoms: C_4  and  C_14
    4  A    between atoms: C_5  and  C_13
    5  A    between atoms: N_9  and  C_14
    6  A    between atoms: N_9  and  C_41
    7  A    between atoms: N_10  and  C_28
    8  A    between atoms: N_10  and  C_45
    9  A    between atoms: C_11  and  C_37
   10  A    between atoms: C_13  and  C_54
   11  A    between atoms: C_15  and  C_17
   12  A    between atoms: C_17  and  N_52
   13  A    between atoms: C_25  and  N_29
   14  A    between atoms: N_39  and  C_50
                            x       y       z     vdW  Elec       q    Type
                         _______ _______ _______ _____ _____    ______ ____

>  <TORSDO>
F 14

$$$$
=
 OpenBabel11072409343D

 63 71  0  0  1  0  0  0  0  0999 V2000
  193.7680  174.0150  140.0150 C   0  0  0  0  0  2  0  0  0  0  0  0
  194.8570  169.9710  143.3740 C   0  0  2  0  0  3  0  0  0  0  0  0
  194.2320  173.8650  141.4740 C   0  0  2  0  0  0  0  0  0  0  0  0
  193.6340  171.3250  141.2580 C   0  0  2  0  0  3  0  0  0  0  0  0
  194.0400  172.7810  139.1620 C   0  0  0  0  0  2  0  0  0  0  0  0
  192.6810  169.0090  141.0570 C   0  0  0  0  0  0  0  0  0  0  0  0
  195.0030  171.4180  143.8950 C   0  0  0  0  0  2  0  0  0  0  0  0
  193.5570  172.6080  142.0970 C   0  0  1  0  0  3  0  0  0  0  0  0
  192.0070  171.2030  139.1590 C   0  0  1  0  0  3  0  0  0  0  0  0
  193.3900  171.5320  139.7450 C   0  0  2  0  0  3  0  0  0  0  0  0
  191.7130  169.7290  138.9910 C   0  0  0  0  0  0  0  0  0  0  0  0
  193.3280  168.3000  142.2290 C   0  0  0  0  0  2  0  0  0  0  0  0
  192.2330  168.7250  139.8790 N   0  0  0  0  0  0  0  0  0  0  0  0
  193.3960  169.5370  143.0760 C   0  0  2  0  0  3  0  0  0  0  0  0
  191.0250  169.3640  138.0020 O   0  0  0  0  0  0  0  0  0  0  0  0
  193.8350  172.3680  143.5930 C   0  0  0  0  0  2  0  0  0  0  0  0
  192.7590  170.2430  141.9060 C   0  0  1  0  0  3  0  0  0  0  0  0
  192.5740  176.6970  144.3940 C   0  0  1  0  0  3  0  0  0  0  0  0
  193.7750  175.1540  142.2080 C   0  0  2  0  0  3  0  0  0  0  0  0
  194.5230  175.4010  143.5300 C   0  0  0  0  0  2  0  0  0  0  0  0
  191.8170  176.5180  143.0730 C   0  0  2  0  0  3  0  0  0  0  0  0
  192.2490  175.2000  142.4260 C   0  0  0  0  0  2  0  0  0  0  0  0
  192.0800  177.5760  142.1940 O   0  0  0  0  0  1  0  0  0  0  0  0
  194.0890  176.7040  144.1890 C   0  0  0  0  0  2  0  0  0  0  0  0
  192.0670  177.8440  145.2690 C   0  0  0  0  0  2  0  0  0  0  0  0
  191.0870  177.4210  146.3620 C   0  0  0  0  0  2  0  0  0  0  0  0
  189.4550  175.8680  145.7020 C   0  0  0  0  0  2  0  0  0  0  0  0
  190.7140  175.3910  147.9370 S   0  0  0  0  0  0  0  0  0  0  0  0
  190.7880  175.9990  146.2720 N   0  0  0  0  0  0  0  0  0  0  0  0
  189.1650  174.4900  147.6380 C   0  0  0  0  0  2  0  0  0  0  0  0
  188.8860  174.5500  146.1570 C   0  0  0  0  0  2  0  0  0  0  0  0
  190.8380  172.0450  139.5950 C   0  0  0  0  0  0  0  0  0  0  0  0
  188.6050  173.5740  140.3620 C   0  0  0  0  0  0  0  0  0  0  0  0
  190.2980  173.0010  138.7150 C   0  0  0  0  0  0  0  0  0  0  0  0
  189.1410  172.6230  141.2350 C   0  0  0  0  0  3  0  0  0  0  0  0
  189.1840  173.7540  139.0960 C   0  0  0  0  0  3  0  0  0  0  0  0
  190.2450  171.8590  140.8520 C   0  0  0  0  0  3  0  0  0  0  0  0
  190.8600  173.2020  137.4200 N   0  0  0  0  0  1  0  0  0  0  0  0
  187.4590  174.3260  140.7650 N   0  0  0  0  0  2  0  0  0  0  0  0
  188.7480  176.1360  141.8910 C   0  0  0  0  0  2  0  0  0  0  0  0
  187.0940  176.6680  140.1760 O   0  0  0  0  0  1  0  0  0  0  0  0
  187.3890  176.0640  142.6030 C   0  0  2  0  0  3  0  0  0  0  0  0
  187.5170  175.7360  141.1250 C   0  0  1  0  0  0  0  0  0  0  0  0
  186.1140  177.4010  145.2090 C   0  0  0  0  0  2  0  0  0  0  0  0
  185.3990  177.3300  142.5400 C   0  0  0  0  0  2  0  0  0  0  0  0
  186.8470  177.4060  142.7980 N   0  0  1  0  0  0  0  0  0  0  0  0
  184.5510  179.1150  144.0640 C   0  0  0  0  0  3  0  0  0  0  0  0
  187.1690  177.8200  144.1780 C   0  0  0  0  0  2  0  0  0  0  0  0
  184.9740  178.4250  145.3420 C   0  0  2  0  0  3  0  0  0  0  0  0
  184.7160  178.6360  142.8220 C   0  0  0  0  0  3  0  0  0  0  0  0
  186.2860  180.0540  148.3900 N   0  0  0  0  0  2  0  0  0  0  0  0
  185.9230  179.1050  147.5930 C   0  0  0  0  0  0  0  0  0  0  0  0
  185.3220  179.4300  146.3370 N   0  0  0  0  0  2  0  0  0  0  0  0
  186.0970  177.6870  148.0230 C   0  0  0  0  0  1  0  0  0  0  0  0
  195.5690  169.0240  144.3450 C   0  0  1  0  0  3  0  0  0  0  0  0
  194.6540  168.1660  144.9680 O   0  0  0  0  0  1  0  0  0  0  0  0
  196.6970  168.2610  143.6490 C   0  0  1  0  0  3  0  0  0  0  0  0
  196.9390  168.8930  142.2830 C   0  0  0  0  0  1  0  0  0  0  0  0
  197.9230  168.3170  144.4350 N   0  0  0  0  0  2  0  0  0  0  0  0
  197.8860  168.7080  146.7770 N   0  0  0  0  0  1  0  0  0  0  0  0
  197.7200  169.3200  145.4690 C   0  0  0  0  0  2  0  0  0  0  0  0
  195.7730  173.8000  141.5270 C   0  0  0  0  0  2  0  0  0  0  0  0
  196.3800  174.8550  140.8400 O   0  0  0  0  0  1  0  0  0  0  0  0
  1  3  1  0  0  0  0
  2  7  1  0  0  0  0
  2 55  1  1  0  0  0
  3 62  1  1  0  0  0
  3  8  1  0  0  0  0
  3 19  1  0  0  0  0
  4 17  1  0  0  0  0
  4  8  1  0  0  0  0
  5 10  1  0  0  0  0
  5  1  1  0  0  0  0
  6 17  1  0  0  0  0
  6 12  1  0  0  0  0
  8 16  1  0  0  0  0
  9 32  1  0  0  0  0
  9 10  1  0  0  0  0
 10  4  1  0  0  0  0
 11  9  1  0  0  0  0
 11 13  1  0  0  0  0
 12 14  1  0  0  0  0
 13  6  2  0  0  0  0
 14  2  1  0  0  0  0
 15 11  2  0  0  0  0
 16  7  1  0  0  0  0
 17 14  1  0  0  0  0
 18 25  1  0  0  0  0
 19 22  1  0  0  0  0
 19 20  1  0  0  0  0
 20 24  1  0  0  0  0
 21 18  1  0  0  0  0
 22 21  1  0  0  0  0
 23 21  1  0  0  0  0
 24 18  1  0  0  0  0
 25 26  1  0  0  0  0
 27 31  1  0  0  0  0
 27 29  1  0  0  0  0
 29 26  1  0  0  0  0
 29 28  1  0  0  0  0
 30 28  1  0  0  0  0
 31 30  1  0  0  0  0
 32 37  1  0  0  0  0
 33 39  1  0  0  0  0
 33 35  1  0  0  0  0
 34 36  1  0  0  0  0
 34 32  2  0  0  0  0
 36 33  2  0  0  0  0
 37 35  2  0  0  0  0
 38 34  1  0  0  0  0
 39 43  1  0  0  0  0
 40 42  1  0  0  0  0
 41 43  1  0  0  0  0
 42 46  1  0  0  0  0
 43 40  1  0  0  0  0
 43 42  1  0  0  0  0
 44 49  1  0  0  0  0
 45 46  1  0  0  0  0
 45 50  1  0  0  0  0
 46 48  1  0  0  0  0
 47 49  1  0  0  0  0
 48 44  1  0  0  0  0
 49 53  1  0  0  0  0
 50 47  2  0  0  0  0
 52 54  1  0  0  0  0
 52 51  2  0  0  0  0
 53 52  1  0  0  0  0
 55 56  1  0  0  0  0
 57 55  1  0  0  0  0
 57 59  1  0  0  0  0
 58 57  1  0  0  0  0
 59 61  1  0  0  0  0
 61 60  1  0  0  0  0
 63 62  1  0  0  0  0
M  END
>  <MODEL>
8

>  <REMARK>
 VINA RESULT:      -5.7      3.296      7.196
  Name = 
  14 active torsions:
  status: ('A' for Active; 'I' for Inactive)
    1  A    between atoms: C_2  and  C_15
    2  A    between atoms: C_4  and  C_12
    3  A    between atoms: C_4  and  C_14
    4  A    between atoms: C_5  and  C_13
    5  A    between atoms: N_9  and  C_14
    6  A    between atoms: N_9  and  C_41
    7  A    between atoms: N_10  and  C_28
    8  A    between atoms: N_10  and  C_45
    9  A    between atoms: C_11  and  C_37
   10  A    between atoms: C_13  and  C_54
   11  A    between atoms: C_15  and  C_17
   12  A    between atoms: C_17  and  N_52
   13  A    between atoms: C_25  and  N_29
   14  A    between atoms: N_39  and  C_50
                            x       y       z     vdW  Elec       q    Type
                         _______ _______ _______ _____ _____    ______ ____

>  <TORSDO>
F 14

$$$$
=
 OpenBabel11072409343D

 63 71  0  0  1  0  0  0  0  0999 V2000
  191.1560  171.5900  141.4290 C   0  0  0  0  0  2  0  0  0  0  0  0
  195.6200  174.1170  143.0160 C   0  0  2  0  0  3  0  0  0  0  0  0
  192.4260  172.1480  140.7610 C   0  0  2  0  0  0  0  0  0  0  0  0
  192.9400  173.3270  143.0420 C   0  0  2  0  0  3  0  0  0  0  0  0
  191.3270  171.3130  142.9180 C   0  0  0  0  0  2  0  0  0  0  0  0
  193.1320  174.7020  145.1360 C   0  0  0  0  0  0  0  0  0  0  0  0
  195.4400  173.8200  141.5100 C   0  0  0  0  0  2  0  0  0  0  0  0
  192.8720  173.4360  141.5120 C   0  0  1  0  0  3  0  0  0  0  0  0
  190.6080  173.3490  144.3180 C   0  0  1  0  0  3  0  0  0  0  0  0
  191.7630  172.5570  143.6830 C   0  0  2  0  0  3  0  0  0  0  0  0
  190.9160  173.9690  145.6620 C   0  0  0  0  0  0  0  0  0  0  0  0
  194.5790  175.1470  145.0880 C   0  0  0  0  0  2  0  0  0  0  0  0
  192.2250  174.4430  146.0200 N   0  0  0  0  0  0  0  0  0  0  0  0
  194.6330  175.1700  143.5890 C   0  0  2  0  0  3  0  0  0  0  0  0
  189.9970  174.0250  146.5210 O   0  0  0  0  0  0  0  0  0  0  0  0
  194.0760  174.1840  140.9070 C   0  0  0  0  0  2  0  0  0  0  0  0
  193.1950  174.7190  143.6380 C   0  0  1  0  0  3  0  0  0  0  0  0
  190.1880  172.8920  137.0550 C   0  0  1  0  0  3  0  0  0  0  0  0
  192.0350  172.4740  139.2950 C   0  0  2  0  0  3  0  0  0  0  0  0
  191.2090  173.7660  139.1570 C   0  0  0  0  0  2  0  0  0  0  0  0
  191.0320  171.6140  137.1290 C   0  0  2  0  0  3  0  0  0  0  0  0
  191.3280  171.2960  138.5960 C   0  0  0  0  0  2  0  0  0  0  0  0
  192.2370  171.7650  136.4330 O   0  0  0  0  0  1  0  0  0  0  0  0
  190.8960  174.0830  137.7010 C   0  0  0  0  0  2  0  0  0  0  0  0
  189.6100  173.1950  135.6730 C   0  0  0  0  0  2  0  0  0  0  0  0
  190.2150  174.4190  134.9880 C   0  0  0  0  0  2  0  0  0  0  0  0
  189.7410  176.6700  134.5130 C   0  0  0  0  0  2  0  0  0  0  0  0
  187.9060  175.3090  135.7750 S   0  0  0  0  0  0  0  0  0  0  0  0
  189.1740  175.3290  134.5320 N   0  0  0  0  0  0  0  0  0  0  0  0
  187.7750  177.1210  135.8020 C   0  0  0  0  0  2  0  0  0  0  0  0
  188.6090  177.6520  134.6640 C   0  0  0  0  0  2  0  0  0  0  0  0
  189.7400  174.1790  143.4120 C   0  0  0  0  0  0  0  0  0  0  0  0
  188.0620  175.7360  141.7760 C   0  0  0  0  0  0  0  0  0  0  0  0
  188.6000  173.6070  142.8170 C   0  0  0  0  0  0  0  0  0  0  0  0
  189.1930  176.3050  142.3680 C   0  0  0  0  0  3  0  0  0  0  0  0
  187.7650  174.3850  142.0110 C   0  0  0  0  0  3  0  0  0  0  0  0
  190.0220  175.5340  143.1860 C   0  0  0  0  0  3  0  0  0  0  0  0
  188.2680  172.2390  143.0420 N   0  0  0  0  0  1  0  0  0  0  0  0
  187.2140  176.5510  140.9640 N   0  0  0  0  0  2  0  0  0  0  0  0
  185.4750  178.2780  140.5170 C   0  0  0  0  0  2  0  0  0  0  0  0
  185.2180  176.7020  142.3630 O   0  0  0  0  0  1  0  0  0  0  0  0
  186.3550  178.8320  141.6470 C   0  0  2  0  0  3  0  0  0  0  0  0
  186.1140  177.3380  141.5030 C   0  0  1  0  0  0  0  0  0  0  0  0
  186.3410  178.2290  144.7840 C   0  0  0  0  0  2  0  0  0  0  0  0
  184.3650  178.5060  142.8710 C   0  0  0  0  0  2  0  0  0  0  0  0
  185.5250  179.3980  142.7060 N   0  0  1  0  0  0  0  0  0  0  0  0
  183.8720  178.8100  145.2990 C   0  0  0  0  0  3  0  0  0  0  0  0
  186.3580  179.4960  143.9210 C   0  0  0  0  0  2  0  0  0  0  0  0
  185.1720  178.2080  145.7840 C   0  0  2  0  0  3  0  0  0  0  0  0
  183.4960  178.9320  144.0170 C   0  0  0  0  0  3  0  0  0  0  0  0
  187.1090  179.2190  148.7660 N   0  0  0  0  0  2  0  0  0  0  0  0
  186.7770  178.5390  147.7200 C   0  0  0  0  0  0  0  0  0  0  0  0
  185.5680  178.8590  147.0250 N   0  0  0  0  0  2  0  0  0  0  0  0
  187.6400  177.4030  147.2860 C   0  0  0  0  0  1  0  0  0  0  0  0
  197.0860  174.4780  143.2740 C   0  0  1  0  0  3  0  0  0  0  0  0
  197.2040  175.8010  143.7180 O   0  0  0  0  0  1  0  0  0  0  0  0
  197.7410  173.4850  144.2360 C   0  0  1  0  0  3  0  0  0  0  0  0
  197.2950  173.8180  145.6550 C   0  0  0  0  0  1  0  0  0  0  0  0
  197.3520  172.1180  143.9130 N   0  0  0  0  0  2  0  0  0  0  0  0
  197.4360  169.9530  144.8860 N   0  0  0  0  0  1  0  0  0  0  0  0
  197.3250  171.3760  145.1640 C   0  0  0  0  0  2  0  0  0  0  0  0
  193.5230  171.0630  140.7380 C   0  0  0  0  0  2  0  0  0  0  0  0
  194.1930  171.0020  139.5140 O   0  0  0  0  0  1  0  0  0  0  0  0
  1  5  1  0  0  0  0
  2 55  1  6  0  0  0
  2 14  1  0  0  0  0
  3 62  1  1  0  0  0
  3  1  1  0  0  0  0
  3  8  1  0  0  0  0
  4 17  1  0  0  0  0
  4 10  1  0  0  0  0
  5 10  1  0  0  0  0
  6 13  2  0  0  0  0
  7  2  1  0  0  0  0
  8  4  1  0  0  0  0
  9 11  1  0  0  0  0
 10  9  1  0  0  0  0
 11 13  1  0  0  0  0
 11 15  2  0  0  0  0
 12  6  1  0  0  0  0
 14 17  1  0  0  0  0
 14 12  1  0  0  0  0
 16  7  1  0  0  0  0
 16  8  1  0  0  0  0
 17  6  1  0  0  0  0
 18 21  1  0  0  0  0
 18 24  1  0  0  0  0
 19  3  1  0  0  0  0
 20 19  1  0  0  0  0
 21 22  1  0  0  0  0
 22 19  1  0  0  0  0
 23 21  1  0  0  0  0
 24 20  1  0  0  0  0
 25 18  1  0  0  0  0
 26 25  1  0  0  0  0
 27 29  1  0  0  0  0
 27 31  1  0  0  0  0
 28 30  1  0  0  0  0
 29 26  1  0  0  0  0
 29 28  1  0  0  0  0
 31 30  1  0  0  0  0
 32  9  1  0  0  0  0
 33 36  2  0  0  0  0
 33 35  1  0  0  0  0
 34 38  1  0  0  0  0
 34 32  2  0  0  0  0
 35 37  2  0  0  0  0
 36 34  1  0  0  0  0
 37 32  1  0  0  0  0
 39 43  1  0  0  0  0
 39 33  1  0  0  0  0
 40 43  1  0  0  0  0
 40 42  1  0  0  0  0
 42 46  1  0  0  0  0
 43 42  1  0  0  0  0
 43 41  1  0  0  0  0
 44 49  1  0  0  0  0
 45 50  1  0  0  0  0
 46 45  1  0  0  0  0
 46 48  1  0  0  0  0
 47 49  1  0  0  0  0
 48 44  1  0  0  0  0
 49 53  1  0  0  0  0
 50 47  2  0  0  0  0
 52 51  2  0  0  0  0
 53 52  1  0  0  0  0
 54 52  1  0  0  0  0
 55 56  1  0  0  0  0
 55 57  1  0  0  0  0
 57 58  1  0  0  0  0
 59 57  1  0  0  0  0
 59 61  1  0  0  0  0
 60 61  1  0  0  0  0
 63 62  1  0  0  0  0
M  END
>  <MODEL>
9

>  <REMARK>
 VINA RESULT:      -4.9      2.698      5.267
  Name = 
  14 active torsions:
  status: ('A' for Active; 'I' for Inactive)
    1  A    between atoms: C_2  and  C_15
    2  A    between atoms: C_4  and  C_12
    3  A    between atoms: C_4  and  C_14
    4  A    between atoms: C_5  and  C_13
    5  A    between atoms: N_9  and  C_14
    6  A    between atoms: N_9  and  C_41
    7  A    between atoms: N_10  and  C_28
    8  A    between atoms: N_10  and  C_45
    9  A    between atoms: C_11  and  C_37
   10  A    between atoms: C_13  and  C_54
   11  A    between atoms: C_15  and  C_17
   12  A    between atoms: C_17  and  N_52
   13  A    between atoms: C_25  and  N_29
   14  A    between atoms: N_39  and  C_50
                            x       y       z     vdW  Elec       q    Type
                         _______ _______ _______ _____ _____    ______ ____

>  <TORSDO>
F 14

$$$$
