=
 OpenBabel11062421413D

 41 45  0  0  1  0  0  0  0  0999 V2000
  191.7760  174.2880  141.5540 C   0  0  0  0  0  3  0  0  0  0  0  0
  189.3250  172.9020  139.1980 N   0  0  0  0  0  0  0  0  0  0  0  0
  192.8100  174.0160  139.3870 C   0  0  0  0  0  3  0  0  0  0  0  0
  191.5550  173.1270  137.5010 N   0  0  0  0  0  1  0  0  0  0  0  0
  192.9030  174.3990  140.7310 C   0  0  0  0  0  0  0  0  0  0  0  0
  188.2180  172.7610  139.9700 C   0  0  0  0  0  3  0  0  0  0  0  0
  189.4080  173.6860  141.8680 C   0  0  0  0  0  0  0  0  0  0  0  0
  188.2430  173.1460  141.3080 C   0  0  0  0  0  3  0  0  0  0  0  0
  191.6130  173.5230  138.8680 C   0  0  0  0  0  0  0  0  0  0  0  0
  190.5580  173.8100  141.0520 C   0  0  0  0  0  0  0  0  0  0  0  0
  190.4850  173.4100  139.6940 C   0  0  0  0  0  0  0  0  0  0  0  0
  190.0030  174.1480  145.5450 C   0  0  2  0  0  3  0  0  0  0  0  0
  189.8230  173.2400  144.3460 C   0  0  0  0  0  2  0  0  0  0  0  0
  189.1980  175.4650  143.6580 C   0  0  0  0  0  2  0  0  0  0  0  0
  189.3930  174.0880  143.2520 N   0  0  0  0  0  0  0  0  0  0  0  0
  189.4160  175.4980  145.1580 C   0  0  1  0  0  3  0  0  0  0  0  0
  191.4830  174.3140  145.8230 C   0  0  0  0  0  1  0  0  0  0  0  0
  188.1900  175.6740  145.8060 O   0  0  0  0  0  0  0  0  0  0  0  0
  188.1360  176.9930  146.1250 N   0  0  0  0  0  0  0  0  0  0  0  0
  186.4080  178.2400  144.8110 C   0  0  0  0  0  0  0  0  0  0  0  0
  184.8200  178.3810  147.1280 C   0  0  0  0  0  3  0  0  0  0  0  0
  186.8860  177.6990  146.0350 C   0  0  0  0  0  0  0  0  0  0  0  0
  186.0900  177.8010  147.1850 C   0  0  0  0  0  3  0  0  0  0  0  0
  184.3290  178.8610  145.9130 C   0  0  0  0  0  3  0  0  0  0  0  0
  185.1210  178.7890  144.7620 C   0  0  0  0  0  3  0  0  0  0  0  0
  187.1740  178.2800  143.6390 O   0  0  0  0  0  0  0  0  0  0  0  0
  186.6040  178.4730  142.3540 C   0  0  0  0  0  2  0  0  0  0  0  0
  186.3190  177.1320  141.7100 C   0  0  0  0  0  2  0  0  0  0  0  0
  187.4070  176.7700  140.8190 N   0  0  0  0  0  1  0  0  0  0  0  0
  189.6690  177.8570  147.6650 O   0  0  0  0  0  1  0  0  0  0  0  0
  189.3890  177.7180  146.3060 C   0  0  0  0  0  2  0  0  0  0  0  0
  194.9100  175.6620  140.5780 O   0  0  0  0  0  0  0  0  0  0  0  0
  194.1780  174.9080  141.2810 C   0  0  0  0  0  0  0  0  0  0  0  0
  197.0810  176.8010  143.1540 C   0  0  0  0  0  1  0  0  0  0  0  0
  194.5750  174.5880  142.6960 C   0  0  1  0  0  3  0  0  0  0  0  0
  196.2820  175.8040  143.8460 N   0  0  0  0  0  0  0  0  0  0  0  0
  196.5730  173.4790  143.4820 N   0  0  0  0  0  1  0  0  0  0  0  0
  196.0660  174.7130  142.9100 C   0  0  1  0  0  3  0  0  0  0  0  0
  194.7880  176.6700  145.5640 C   0  0  0  0  0  1  0  0  0  0  0  0
  193.9270  175.5050  143.6150 N   0  0  0  0  0  2  0  0  0  0  0  0
  194.9730  176.4040  144.0830 C   0  0  2  0  0  3  0  0  0  0  0  0
  2 11  2  0  0  0  0
  2  6  1  0  0  0  0
  3  5  1  0  0  0  0
  4  9  1  0  0  0  0
  5 33  1  0  0  0  0
  5  1  2  0  0  0  0
  6  8  2  0  0  0  0
  7 15  1  0  0  0  0
  8  7  1  0  0  0  0
  9  3  2  0  0  0  0
  9 11  1  0  0  0  0
 10  1  1  0  0  0  0
 10  7  2  0  0  0  0
 11 10  1  0  0  0  0
 12 17  1  6  0  0  0
 13 12  1  0  0  0  0
 14 16  1  0  0  0  0
 15 14  1  0  0  0  0
 15 13  1  0  0  0  0
 16 12  1  0  0  0  0
 16 18  1  1  0  0  0
 18 19  1  0  0  0  0
 19 31  1  0  0  0  0
 20 22  1  0  0  0  0
 21 23  1  0  0  0  0
 22 19  1  0  0  0  0
 22 23  2  0  0  0  0
 24 21  2  0  0  0  0
 25 20  2  0  0  0  0
 25 24  1  0  0  0  0
 26 20  1  0  0  0  0
 27 26  1  0  0  0  0
 28 27  1  0  0  0  0
 29 28  1  0  0  0  0
 31 30  1  0  0  0  0
 32 33  2  0  0  0  0
 34 36  1  0  0  0  0
 35 33  1  6  0  0  0
 35 38  1  0  0  0  0
 35 40  1  0  0  0  0
 36 41  1  0  0  0  0
 38 37  1  1  0  0  0
 38 36  1  0  0  0  0
 40 41  1  0  0  0  0
 41 39  1  1  0  0  0
M  END
>  <MODEL>
1

>  <REMARK>
 VINA RESULT:      -7.5      0.000      0.000
  Name = 
  10 active torsions:
  status: ('A' for Active; 'I' for Inactive)
    1  A    between atoms: C_2  and  C_39
    2  A    between atoms: C_3  and  O_20
    3  A    between atoms: C_11  and  C_32
    4  A    between atoms: C_12  and  C_32
    5  A    between atoms: C_16  and  N_22
    6  A    between atoms: O_20  and  C_39
    7  A    between atoms: C_21  and  N_26
    8  A    between atoms: N_22  and  O_28
    9  A    between atoms: N_22  and  C_29
   10  A    between atoms: O_28  and  C_36
                            x       y       z     vdW  Elec       q    Type
                         _______ _______ _______ _____ _____    ______ ____

>  <TORSDO>
F 10

$$$$
=
 OpenBabel11062421413D

 41 45  0  0  1  0  0  0  0  0999 V2000
  192.5230  175.0660  142.7820 C   0  0  0  0  0  3  0  0  0  0  0  0
  195.3260  176.4600  144.7010 N   0  0  0  0  0  0  0  0  0  0  0  0
  194.5560  174.8730  141.4910 C   0  0  0  0  0  3  0  0  0  0  0  0
  196.6820  175.6650  142.3700 N   0  0  0  0  0  1  0  0  0  0  0  0
  193.1750  174.6730  141.6070 C   0  0  0  0  0  0  0  0  0  0  0  0
  194.7260  176.8730  145.8460 C   0  0  0  0  0  3  0  0  0  0  0  0
  192.5920  176.0560  145.0370 C   0  0  0  0  0  0  0  0  0  0  0  0
  193.3590  176.6810  146.0300 C   0  0  0  0  0  3  0  0  0  0  0  0
  195.2810  175.4620  142.5260 C   0  0  0  0  0  0  0  0  0  0  0  0
  193.2320  175.6470  143.8430 C   0  0  0  0  0  0  0  0  0  0  0  0
  194.6270  175.8580  143.7020 C   0  0  0  0  0  0  0  0  0  0  0  0
  189.1930  174.8470  146.0720 C   0  0  2  0  0  3  0  0  0  0  0  0
  190.5770  174.5680  145.5210 C   0  0  0  0  0  2  0  0  0  0  0  0
  190.2790  176.9610  145.5300 C   0  0  0  0  0  2  0  0  0  0  0  0
  191.1830  175.8600  145.2680 N   0  0  0  0  0  0  0  0  0  0  0  0
  188.9430  176.3370  145.8820 C   0  0  1  0  0  3  0  0  0  0  0  0
  189.1740  174.5280  147.5530 C   0  0  0  0  0  1  0  0  0  0  0  0
  188.0440  176.5260  144.8280 O   0  0  0  0  0  0  0  0  0  0  0  0
  186.9790  177.1670  145.3730 N   0  0  0  0  0  0  0  0  0  0  0  0
  185.7500  177.2170  143.1920 C   0  0  0  0  0  0  0  0  0  0  0  0
  183.9850  179.1140  144.2870 C   0  0  0  0  0  3  0  0  0  0  0  0
  185.9460  177.6890  144.5180 C   0  0  0  0  0  0  0  0  0  0  0  0
  185.0710  178.6530  145.0380 C   0  0  0  0  0  3  0  0  0  0  0  0
  183.7610  178.6070  143.0060 C   0  0  0  0  0  3  0  0  0  0  0  0
  184.6400  177.6630  142.4650 C   0  0  0  0  0  3  0  0  0  0  0  0
  186.6320  176.3370  142.5520 O   0  0  0  0  0  0  0  0  0  0  0  0
  187.2440  176.6320  141.3060 C   0  0  0  0  0  2  0  0  0  0  0  0
  188.0420  177.9160  141.4160 C   0  0  0  0  0  2  0  0  0  0  0  0
  189.2680  177.6740  142.1550 N   0  0  0  0  0  1  0  0  0  0  0  0
  186.1640  176.7270  147.5190 O   0  0  0  0  0  1  0  0  0  0  0  0
  187.0330  177.5330  146.7840 C   0  0  0  0  0  2  0  0  0  0  0  0
  192.7110  174.3260  139.3030 O   0  0  0  0  0  0  0  0  0  0  0  0
  192.4080  174.0610  140.5010 C   0  0  0  0  0  0  0  0  0  0  0  0
  189.0920  173.8720  138.3830 C   0  0  0  0  0  1  0  0  0  0  0  0
  191.3120  173.0720  140.7940 C   0  0  1  0  0  3  0  0  0  0  0  0
  189.3440  172.9150  139.4460 N   0  0  0  0  0  0  0  0  0  0  0  0
  189.1260  173.4870  141.7370 N   0  0  0  0  0  1  0  0  0  0  0  0
  189.9390  173.6540  140.5470 C   0  0  1  0  0  3  0  0  0  0  0  0
  189.7840  170.6330  138.7160 C   0  0  0  0  0  1  0  0  0  0  0  0
  191.4490  171.9080  139.9390 N   0  0  0  0  0  2  0  0  0  0  0  0
  190.3770  172.0070  138.9580 C   0  0  2  0  0  3  0  0  0  0  0  0
  1 10  1  0  0  0  0
  2  6  1  0  0  0  0
  3  5  1  0  0  0  0
  3  9  2  0  0  0  0
  4  9  1  0  0  0  0
  5  1  2  0  0  0  0
  6  8  2  0  0  0  0
  7 15  1  0  0  0  0
  7  8  1  0  0  0  0
  9 11  1  0  0  0  0
 10  7  2  0  0  0  0
 11 10  1  0  0  0  0
 11  2  2  0  0  0  0
 12 17  1  1  0  0  0
 13 12  1  0  0  0  0
 14 16  1  0  0  0  0
 15 13  1  0  0  0  0
 15 14  1  0  0  0  0
 16 18  1  6  0  0  0
 16 12  1  0  0  0  0
 18 19  1  0  0  0  0
 19 31  1  0  0  0  0
 20 22  1  0  0  0  0
 21 23  1  0  0  0  0
 22 23  2  0  0  0  0
 22 19  1  0  0  0  0
 24 21  2  0  0  0  0
 25 24  1  0  0  0  0
 25 20  2  0  0  0  0
 26 20  1  0  0  0  0
 27 28  1  0  0  0  0
 27 26  1  0  0  0  0
 28 29  1  0  0  0  0
 31 30  1  0  0  0  0
 32 33  2  0  0  0  0
 33  5  1  0  0  0  0
 34 36  1  0  0  0  0
 35 33  1  6  0  0  0
 36 38  1  0  0  0  0
 38 35  1  0  0  0  0
 38 37  1  1  0  0  0
 40 35  1  0  0  0  0
 41 39  1  1  0  0  0
 41 36  1  0  0  0  0
 41 40  1  0  0  0  0
M  END
>  <MODEL>
2

>  <REMARK>
 VINA RESULT:      -7.2      1.693      5.037
  Name = 
  10 active torsions:
  status: ('A' for Active; 'I' for Inactive)
    1  A    between atoms: C_2  and  C_39
    2  A    between atoms: C_3  and  O_20
    3  A    between atoms: C_11  and  C_32
    4  A    between atoms: C_12  and  C_32
    5  A    between atoms: C_16  and  N_22
    6  A    between atoms: O_20  and  C_39
    7  A    between atoms: C_21  and  N_26
    8  A    between atoms: N_22  and  O_28
    9  A    between atoms: N_22  and  C_29
   10  A    between atoms: O_28  and  C_36
                            x       y       z     vdW  Elec       q    Type
                         _______ _______ _______ _____ _____    ______ ____

>  <TORSDO>
F 10

$$$$
=
 OpenBabel11062421413D

 41 45  0  0  1  0  0  0  0  0999 V2000
  192.4990  174.7250  142.0950 C   0  0  0  0  0  3  0  0  0  0  0  0
  195.4780  176.0690  143.7680 N   0  0  0  0  0  0  0  0  0  0  0  0
  194.4180  174.4610  140.6510 C   0  0  0  0  0  3  0  0  0  0  0  0
  196.6260  175.2080  141.3500 N   0  0  0  0  0  1  0  0  0  0  0  0
  193.0450  174.2990  140.8790 C   0  0  0  0  0  0  0  0  0  0  0  0
  194.9810  176.5120  144.9500 C   0  0  0  0  0  3  0  0  0  0  0  0
  192.7690  175.7420  144.3220 C   0  0  0  0  0  0  0  0  0  0  0  0
  193.6270  176.3590  145.2420 C   0  0  0  0  0  3  0  0  0  0  0  0
  195.2360  175.0440  141.6180 C   0  0  0  0  0  0  0  0  0  0  0  0
  193.3030  175.3010  143.0880 C   0  0  0  0  0  0  0  0  0  0  0  0
  194.6870  175.4730  142.8350 C   0  0  0  0  0  0  0  0  0  0  0  0
  189.4570  174.7920  145.8110 C   0  0  2  0  0  3  0  0  0  0  0  0
  190.8260  174.4020  145.2920 C   0  0  0  0  0  2  0  0  0  0  0  0
  190.4480  176.6980  144.6590 C   0  0  0  0  0  2  0  0  0  0  0  0
  191.3780  175.5870  144.6650 N   0  0  0  0  0  0  0  0  0  0  0  0
  189.1500  176.1660  145.2320 C   0  0  1  0  0  3  0  0  0  0  0  0
  189.5090  174.8920  147.3210 C   0  0  0  0  0  1  0  0  0  0  0  0
  188.2030  176.0390  144.2110 O   0  0  0  0  0  0  0  0  0  0  0  0
  187.6280  177.2630  144.0970 N   0  0  0  0  0  0  0  0  0  0  0  0
  185.2760  177.7810  144.7800 C   0  0  0  0  0  0  0  0  0  0  0  0
  186.1960  178.2870  147.3890 C   0  0  0  0  0  3  0  0  0  0  0  0
  186.6630  177.6910  145.0740 C   0  0  0  0  0  0  0  0  0  0  0  0
  187.1060  177.9720  146.3750 C   0  0  0  0  0  3  0  0  0  0  0  0
  184.8290  178.3190  147.1100 C   0  0  0  0  0  3  0  0  0  0  0  0
  184.3740  178.0660  145.8120 C   0  0  0  0  0  3  0  0  0  0  0  0
  184.7540  177.6250  143.4890 O   0  0  0  0  0  0  0  0  0  0  0  0
  183.7650  178.4890  142.9490 C   0  0  0  0  0  2  0  0  0  0  0  0
  183.5790  178.1990  141.4740 C   0  0  0  0  0  2  0  0  0  0  0  0
  184.8710  177.9910  140.8440 N   0  0  0  0  0  1  0  0  0  0  0  0
  188.1650  177.1370  141.8250 O   0  0  0  0  0  1  0  0  0  0  0  0
  187.8120  178.0070  142.8560 C   0  0  0  0  0  2  0  0  0  0  0  0
  192.2580  174.0880  138.6470 O   0  0  0  0  0  0  0  0  0  0  0  0
  192.1780  173.6930  139.8450 C   0  0  0  0  0  0  0  0  0  0  0  0
  188.6230  173.2670  138.2040 C   0  0  0  0  0  1  0  0  0  0  0  0
  191.2510  172.5640  140.2000 C   0  0  1  0  0  3  0  0  0  0  0  0
  189.1320  172.2720  139.1330 N   0  0  0  0  0  0  0  0  0  0  0  0
  189.1980  172.6480  141.4740 N   0  0  0  0  0  1  0  0  0  0  0  0
  189.8020  172.9960  140.2010 C   0  0  1  0  0  3  0  0  0  0  0  0
  189.6980  170.1160  138.1500 C   0  0  0  0  0  1  0  0  0  0  0  0
  191.3820  171.4880  139.2360 N   0  0  0  0  0  2  0  0  0  0  0  0
  190.1710  171.5300  138.4270 C   0  0  2  0  0  3  0  0  0  0  0  0
  1 10  1  0  0  0  0
  2  6  1  0  0  0  0
  3  5  1  0  0  0  0
  3  9  2  0  0  0  0
  4  9  1  0  0  0  0
  5  1  2  0  0  0  0
  6  8  2  0  0  0  0
  7 15  1  0  0  0  0
  7  8  1  0  0  0  0
  9 11  1  0  0  0  0
 10  7  2  0  0  0  0
 11 10  1  0  0  0  0
 11  2  2  0  0  0  0
 12 17  1  1  0  0  0
 13 12  1  0  0  0  0
 14 15  1  0  0  0  0
 14 16  1  0  0  0  0
 15 13  1  0  0  0  0
 16 18  1  6  0  0  0
 16 12  1  0  0  0  0
 19 18  1  0  0  0  0
 19 22  1  0  0  0  0
 20 22  2  0  0  0  0
 20 25  1  0  0  0  0
 22 23  1  0  0  0  0
 23 21  2  0  0  0  0
 24 21  1  0  0  0  0
 25 24  2  0  0  0  0
 26 20  1  0  0  0  0
 27 26  1  0  0  0  0
 28 27  1  0  0  0  0
 29 28  1  0  0  0  0
 30 31  1  0  0  0  0
 31 19  1  0  0  0  0
 32 33  2  0  0  0  0
 33  5  1  0  0  0  0
 34 36  1  0  0  0  0
 35 33  1  6  0  0  0
 35 38  1  0  0  0  0
 36 38  1  0  0  0  0
 38 37  1  1  0  0  0
 40 35  1  0  0  0  0
 41 39  1  1  0  0  0
 41 36  1  0  0  0  0
 41 40  1  0  0  0  0
M  END
>  <MODEL>
3

>  <REMARK>
 VINA RESULT:      -7.1      1.792      5.089
  Name = 
  10 active torsions:
  status: ('A' for Active; 'I' for Inactive)
    1  A    between atoms: C_2  and  C_39
    2  A    between atoms: C_3  and  O_20
    3  A    between atoms: C_11  and  C_32
    4  A    between atoms: C_12  and  C_32
    5  A    between atoms: C_16  and  N_22
    6  A    between atoms: O_20  and  C_39
    7  A    between atoms: C_21  and  N_26
    8  A    between atoms: N_22  and  O_28
    9  A    between atoms: N_22  and  C_29
   10  A    between atoms: O_28  and  C_36
                            x       y       z     vdW  Elec       q    Type
                         _______ _______ _______ _____ _____    ______ ____

>  <TORSDO>
F 10

$$$$
=
 OpenBabel11062421413D

 41 45  0  0  1  0  0  0  0  0999 V2000
  192.8910  175.1210  142.6720 C   0  0  0  0  0  3  0  0  0  0  0  0
  195.4420  174.8670  145.3000 N   0  0  0  0  0  0  0  0  0  0  0  0
  194.6830  173.6870  141.9160 C   0  0  0  0  0  3  0  0  0  0  0  0
  196.6020  173.2210  143.3370 N   0  0  0  0  0  1  0  0  0  0  0  0
  193.4540  174.3150  141.6750 C   0  0  0  0  0  0  0  0  0  0  0  0
  194.9380  175.6560  146.2810 C   0  0  0  0  0  3  0  0  0  0  0  0
  192.9810  176.1140  144.9240 C   0  0  0  0  0  0  0  0  0  0  0  0
  193.7090  176.2900  146.1090 C   0  0  0  0  0  3  0  0  0  0  0  0
  195.3470  173.8620  143.1290 C   0  0  0  0  0  0  0  0  0  0  0  0
  193.5320  175.3000  143.9050 C   0  0  0  0  0  0  0  0  0  0  0  0
  194.7830  174.6720  144.1260 C   0  0  0  0  0  0  0  0  0  0  0  0
  190.0210  178.1560  143.8510 C   0  0  2  0  0  3  0  0  0  0  0  0
  191.5130  178.0210  144.0780 C   0  0  0  0  0  2  0  0  0  0  0  0
  190.4560  176.1180  145.1150 C   0  0  0  0  0  2  0  0  0  0  0  0
  191.7070  176.7720  144.7870 N   0  0  0  0  0  0  0  0  0  0  0  0
  189.3560  177.0650  144.6790 C   0  0  1  0  0  3  0  0  0  0  0  0
  189.7190  177.9180  142.3860 C   0  0  0  0  0  1  0  0  0  0  0  0
  188.7570  177.6380  145.8050 O   0  0  0  0  0  0  0  0  0  0  0  0
  187.4650  177.2230  145.7760 N   0  0  0  0  0  0  0  0  0  0  0  0
  186.1360  176.9550  143.6700 C   0  0  0  0  0  0  0  0  0  0  0  0
  185.1190  179.5500  144.0400 C   0  0  0  0  0  3  0  0  0  0  0  0
  186.5710  177.7390  144.7720 C   0  0  0  0  0  0  0  0  0  0  0  0
  186.0720  179.0400  144.9260 C   0  0  0  0  0  3  0  0  0  0  0  0
  184.6510  178.7580  142.9910 C   0  0  0  0  0  3  0  0  0  0  0  0
  185.1580  177.4670  142.8100 C   0  0  0  0  0  3  0  0  0  0  0  0
  186.6590  175.6880  143.3760 O   0  0  0  0  0  0  0  0  0  0  0  0
  187.2370  175.3690  142.1200 C   0  0  0  0  0  2  0  0  0  0  0  0
  188.3370  174.3420  142.3060 C   0  0  0  0  0  2  0  0  0  0  0  0
  187.8710  173.0360  141.8730 N   0  0  0  0  0  1  0  0  0  0  0  0
  187.8550  175.4620  147.2640 O   0  0  0  0  0  1  0  0  0  0  0  0
  186.9510  176.4620  146.9100 C   0  0  0  0  0  2  0  0  0  0  0  0
  193.2910  174.5720  139.3190 O   0  0  0  0  0  0  0  0  0  0  0  0
  192.7600  174.1390  140.3810 C   0  0  0  0  0  0  0  0  0  0  0  0
  191.8210  171.7740  137.3740 C   0  0  0  0  0  1  0  0  0  0  0  0
  191.4590  173.3880  140.3150 C   0  0  1  0  0  3  0  0  0  0  0  0
  190.9410  171.8910  138.5240 N   0  0  0  0  0  0  0  0  0  0  0  0
  189.5630  173.7900  138.8700 N   0  0  0  0  0  1  0  0  0  0  0  0
  190.9270  173.2950  138.9030 C   0  0  1  0  0  3  0  0  0  0  0  0
  190.8090  169.9170  139.9460 C   0  0  0  0  0  1  0  0  0  0  0  0
  191.6390  172.0330  140.8000 N   0  0  0  0  0  2  0  0  0  0  0  0
  191.5860  171.1780  139.6220 C   0  0  2  0  0  3  0  0  0  0  0  0
  1 10  1  0  0  0  0
  2  6  1  0  0  0  0
  3  9  2  0  0  0  0
  5  3  1  0  0  0  0
  5  1  2  0  0  0  0
  7  8  1  0  0  0  0
  8  6  2  0  0  0  0
  9  4  1  0  0  0  0
  9 11  1  0  0  0  0
 10 11  1  0  0  0  0
 10  7  2  0  0  0  0
 11  2  2  0  0  0  0
 12 17  1  6  0  0  0
 12 13  1  0  0  0  0
 12 16  1  0  0  0  0
 13 15  1  0  0  0  0
 15  7  1  0  0  0  0
 15 14  1  0  0  0  0
 16 14  1  0  0  0  0
 16 18  1  1  0  0  0
 19 18  1  0  0  0  0
 19 31  1  0  0  0  0
 20 22  1  0  0  0  0
 21 23  1  0  0  0  0
 22 23  2  0  0  0  0
 22 19  1  0  0  0  0
 24 21  2  0  0  0  0
 25 24  1  0  0  0  0
 25 20  2  0  0  0  0
 26 20  1  0  0  0  0
 27 28  1  0  0  0  0
 27 26  1  0  0  0  0
 29 28  1  0  0  0  0
 31 30  1  0  0  0  0
 32 33  2  0  0  0  0
 33  5  1  0  0  0  0
 34 36  1  0  0  0  0
 35 33  1  6  0  0  0
 35 40  1  0  0  0  0
 36 38  1  0  0  0  0
 36 41  1  0  0  0  0
 38 37  1  1  0  0  0
 38 35  1  0  0  0  0
 41 39  1  1  0  0  0
 41 40  1  0  0  0  0
M  END
>  <MODEL>
4

>  <REMARK>
 VINA RESULT:      -7.0      1.860      5.182
  Name = 
  10 active torsions:
  status: ('A' for Active; 'I' for Inactive)
    1  A    between atoms: C_2  and  C_39
    2  A    between atoms: C_3  and  O_20
    3  A    between atoms: C_11  and  C_32
    4  A    between atoms: C_12  and  C_32
    5  A    between atoms: C_16  and  N_22
    6  A    between atoms: O_20  and  C_39
    7  A    between atoms: C_21  and  N_26
    8  A    between atoms: N_22  and  O_28
    9  A    between atoms: N_22  and  C_29
   10  A    between atoms: O_28  and  C_36
                            x       y       z     vdW  Elec       q    Type
                         _______ _______ _______ _____ _____    ______ ____

>  <TORSDO>
F 10

$$$$
=
 OpenBabel11062421413D

 41 45  0  0  1  0  0  0  0  0999 V2000
  192.9030  174.8580  141.7640 C   0  0  0  0  0  3  0  0  0  0  0  0
  196.2590  175.1370  143.2270 N   0  0  0  0  0  0  0  0  0  0  0  0
  194.4470  173.4970  140.4980 C   0  0  0  0  0  3  0  0  0  0  0  0
  196.7990  173.3680  141.1090 N   0  0  0  0  0  1  0  0  0  0  0  0
  193.1500  173.9880  140.6950 C   0  0  0  0  0  0  0  0  0  0  0  0
  196.0630  175.9940  144.2600 C   0  0  0  0  0  3  0  0  0  0  0  0
  193.7020  176.1200  143.7230 C   0  0  0  0  0  0  0  0  0  0  0  0
  194.7900  176.4980  144.5200 C   0  0  0  0  0  3  0  0  0  0  0  0
  195.4880  173.8720  141.3470 C   0  0  0  0  0  0  0  0  0  0  0  0
  193.9300  175.2380  142.6390 C   0  0  0  0  0  0  0  0  0  0  0  0
  195.2400  174.7470  142.4150 C   0  0  0  0  0  0  0  0  0  0  0  0
  190.4010  177.9050  143.7690 C   0  0  2  0  0  3  0  0  0  0  0  0
  191.8970  177.9130  143.5290 C   0  0  0  0  0  2  0  0  0  0  0  0
  191.3630  175.8480  144.6530 C   0  0  0  0  0  2  0  0  0  0  0  0
  192.3970  176.6490  144.0310 N   0  0  0  0  0  0  0  0  0  0  0  0
  190.1100  176.7010  144.6520 C   0  0  1  0  0  3  0  0  0  0  0  0
  189.6880  177.7300  142.4440 C   0  0  0  0  0  1  0  0  0  0  0  0
  189.8370  177.1350  145.9540 O   0  0  0  0  0  0  0  0  0  0  0  0
  188.6900  176.5030  146.3120 N   0  0  0  0  0  0  0  0  0  0  0  0
  186.5120  177.2170  145.3040 C   0  0  0  0  0  0  0  0  0  0  0  0
  185.9230  178.6010  147.6800 C   0  0  0  0  0  3  0  0  0  0  0  0
  187.4560  177.2410  146.3660 C   0  0  0  0  0  0  0  0  0  0  0  0
  187.1550  177.9570  147.5330 C   0  0  0  0  0  3  0  0  0  0  0  0
  184.9750  178.5290  146.6590 C   0  0  0  0  0  3  0  0  0  0  0  0
  185.2700  177.8390  145.4790 C   0  0  0  0  0  3  0  0  0  0  0  0
  186.7680  176.6190  144.0630 O   0  0  0  0  0  0  0  0  0  0  0  0
  185.7870  176.5130  143.0430 C   0  0  0  0  0  2  0  0  0  0  0  0
  186.2220  177.3050  141.8270 C   0  0  0  0  0  2  0  0  0  0  0  0
  186.2710  178.7200  142.1500 N   0  0  0  0  0  1  0  0  0  0  0  0
  189.9090  175.0590  147.6880 O   0  0  0  0  0  1  0  0  0  0  0  0
  188.7810  175.1600  146.8750 C   0  0  0  0  0  2  0  0  0  0  0  0
  191.9260  174.1790  138.6680 O   0  0  0  0  0  0  0  0  0  0  0  0
  192.0520  173.5990  139.7840 C   0  0  0  0  0  0  0  0  0  0  0  0
  188.5660  173.0580  138.0320 C   0  0  0  0  0  1  0  0  0  0  0  0
  191.1260  172.4720  140.1500 C   0  0  1  0  0  3  0  0  0  0  0  0
  189.0520  172.1080  139.0180 N   0  0  0  0  0  0  0  0  0  0  0  0
  189.0270  172.5770  141.3420 N   0  0  0  0  0  1  0  0  0  0  0  0
  189.6730  172.8830  140.0790 C   0  0  1  0  0  3  0  0  0  0  0  0
  189.6820  169.9230  138.1430 C   0  0  0  0  0  1  0  0  0  0  0  0
  191.3070  171.3610  139.2340 N   0  0  0  0  0  2  0  0  0  0  0  0
  190.1270  171.3530  138.3810 C   0  0  2  0  0  3  0  0  0  0  0  0
  1 10  1  0  0  0  0
  2  6  1  0  0  0  0
  3  5  1  0  0  0  0
  3  9  2  0  0  0  0
  4  9  1  0  0  0  0
  5  1  2  0  0  0  0
  6  8  2  0  0  0  0
  7 15  1  0  0  0  0
  7  8  1  0  0  0  0
  9 11  1  0  0  0  0
 10  7  2  0  0  0  0
 11 10  1  0  0  0  0
 11  2  2  0  0  0  0
 12 17  1  6  0  0  0
 12 16  1  0  0  0  0
 13 12  1  0  0  0  0
 13 15  1  0  0  0  0
 15 14  1  0  0  0  0
 16 14  1  0  0  0  0
 16 18  1  1  0  0  0
 18 19  1  0  0  0  0
 19 22  1  0  0  0  0
 19 31  1  0  0  0  0
 20 25  2  0  0  0  0
 20 22  1  0  0  0  0
 22 23  2  0  0  0  0
 23 21  1  0  0  0  0
 24 21  2  0  0  0  0
 25 24  1  0  0  0  0
 26 20  1  0  0  0  0
 27 26  1  0  0  0  0
 28 29  1  0  0  0  0
 28 27  1  0  0  0  0
 31 30  1  0  0  0  0
 32 33  2  0  0  0  0
 33  5  1  0  0  0  0
 34 36  1  0  0  0  0
 35 33  1  6  0  0  0
 36 38  1  0  0  0  0
 38 35  1  0  0  0  0
 38 37  1  1  0  0  0
 40 35  1  0  0  0  0
 41 39  1  1  0  0  0
 41 36  1  0  0  0  0
 41 40  1  0  0  0  0
M  END
>  <MODEL>
5

>  <REMARK>
 VINA RESULT:      -7.0      1.849      5.225
  Name = 
  10 active torsions:
  status: ('A' for Active; 'I' for Inactive)
    1  A    between atoms: C_2  and  C_39
    2  A    between atoms: C_3  and  O_20
    3  A    between atoms: C_11  and  C_32
    4  A    between atoms: C_12  and  C_32
    5  A    between atoms: C_16  and  N_22
    6  A    between atoms: O_20  and  C_39
    7  A    between atoms: C_21  and  N_26
    8  A    between atoms: N_22  and  O_28
    9  A    between atoms: N_22  and  C_29
   10  A    between atoms: O_28  and  C_36
                            x       y       z     vdW  Elec       q    Type
                         _______ _______ _______ _____ _____    ______ ____

>  <TORSDO>
F 10

$$$$
=
 OpenBabel11062421413D

 41 45  0  0  1  0  0  0  0  0999 V2000
  193.0160  172.8890  143.7120 C   0  0  0  0  0  3  0  0  0  0  0  0
  191.8910  171.2970  140.6000 N   0  0  0  0  0  0  0  0  0  0  0  0
  194.8840  171.7740  142.6590 C   0  0  0  0  0  3  0  0  0  0  0  0
  194.6100  170.5800  140.5570 N   0  0  0  0  0  1  0  0  0  0  0  0
  194.3700  172.5350  143.7180 C   0  0  0  0  0  0  0  0  0  0  0  0
  190.5700  171.6040  140.5700 C   0  0  0  0  0  3  0  0  0  0  0  0
  190.7990  172.8470  142.6390 C   0  0  0  0  0  0  0  0  0  0  0  0
  190.0060  172.3760  141.5840 C   0  0  0  0  0  3  0  0  0  0  0  0
  194.0600  171.3660  141.6110 C   0  0  0  0  0  0  0  0  0  0  0  0
  192.1720  172.5030  142.6620 C   0  0  0  0  0  0  0  0  0  0  0  0
  192.7030  171.7190  141.6070 C   0  0  0  0  0  0  0  0  0  0  0  0
  189.6260  174.4230  145.8370 C   0  0  2  0  0  3  0  0  0  0  0  0
  189.9040  173.1880  145.0040 C   0  0  0  0  0  2  0  0  0  0  0  0
  190.0340  175.0910  143.5290 C   0  0  0  0  0  2  0  0  0  0  0  0
  190.1860  173.6560  143.6610 N   0  0  0  0  0  0  0  0  0  0  0  0
  189.5110  175.5860  144.8620 C   0  0  1  0  0  3  0  0  0  0  0  0
  190.7980  174.6700  146.7640 C   0  0  0  0  0  1  0  0  0  0  0  0
  188.1670  175.9510  144.7320 O   0  0  0  0  0  0  0  0  0  0  0  0
  188.0400  177.1120  145.4240 N   0  0  0  0  0  0  0  0  0  0  0  0
  186.0740  178.3500  144.4920 C   0  0  0  0  0  0  0  0  0  0  0  0
  184.7950  178.0960  146.9830 C   0  0  0  0  0  3  0  0  0  0  0  0
  186.7430  177.7170  145.5730 C   0  0  0  0  0  0  0  0  0  0  0  0
  186.0990  177.6220  146.8150 C   0  0  0  0  0  3  0  0  0  0  0  0
  184.1180  178.6670  145.9040 C   0  0  0  0  0  3  0  0  0  0  0  0
  184.7570  178.7910  144.6660 C   0  0  0  0  0  3  0  0  0  0  0  0
  186.6760  178.5860  143.2490 O   0  0  0  0  0  0  0  0  0  0  0  0
  186.5410  177.7000  142.1490 C   0  0  0  0  0  2  0  0  0  0  0  0
  187.7700  177.7830  141.2670 C   0  0  0  0  0  2  0  0  0  0  0  0
  188.9330  178.1180  142.0700 N   0  0  0  0  0  1  0  0  0  0  0  0
  189.4020  177.8720  147.1660 O   0  0  0  0  0  1  0  0  0  0  0  0
  189.2490  177.8470  145.7810 C   0  0  0  0  0  2  0  0  0  0  0  0
  195.4910  172.1470  145.7760 O   0  0  0  0  0  0  0  0  0  0  0  0
  195.2440  172.9540  144.8350 C   0  0  0  0  0  0  0  0  0  0  0  0
  193.6740  176.0440  142.9640 C   0  0  0  0  0  1  0  0  0  0  0  0
  195.8930  174.3100  144.8220 C   0  0  1  0  0  3  0  0  0  0  0  0
  194.8840  176.1960  143.7540 N   0  0  0  0  0  0  0  0  0  0  0  0
  196.9950  175.4320  142.9870 N   0  0  0  0  0  1  0  0  0  0  0  0
  195.7020  175.0200  143.5020 C   0  0  1  0  0  3  0  0  0  0  0  0
  194.6380  177.4820  145.8070 C   0  0  0  0  0  1  0  0  0  0  0  0
  195.3130  175.1500  145.8540 N   0  0  0  0  0  2  0  0  0  0  0  0
  194.4840  176.1220  145.1550 C   0  0  2  0  0  3  0  0  0  0  0  0
  1  5  1  0  0  0  0
  2 11  1  0  0  0  0
  3  5  2  0  0  0  0
  4  9  1  0  0  0  0
  5 33  1  0  0  0  0
  6  2  2  0  0  0  0
  6  8  1  0  0  0  0
  7 10  1  0  0  0  0
  7 15  1  0  0  0  0
  8  7  2  0  0  0  0
  9  3  1  0  0  0  0
 10  1  2  0  0  0  0
 11  9  2  0  0  0  0
 11 10  1  0  0  0  0
 12 17  1  1  0  0  0
 13 12  1  0  0  0  0
 14 15  1  0  0  0  0
 14 16  1  0  0  0  0
 15 13  1  0  0  0  0
 16 18  1  6  0  0  0
 16 12  1  0  0  0  0
 18 19  1  0  0  0  0
 19 22  1  0  0  0  0
 19 31  1  0  0  0  0
 20 25  2  0  0  0  0
 20 22  1  0  0  0  0
 22 23  2  0  0  0  0
 23 21  1  0  0  0  0
 24 21  2  0  0  0  0
 25 24  1  0  0  0  0
 26 20  1  0  0  0  0
 27 26  1  0  0  0  0
 28 29  1  0  0  0  0
 28 27  1  0  0  0  0
 31 30  1  0  0  0  0
 33 32  2  0  0  0  0
 34 36  1  0  0  0  0
 35 33  1  6  0  0  0
 35 40  1  0  0  0  0
 36 41  1  0  0  0  0
 38 37  1  1  0  0  0
 38 36  1  0  0  0  0
 38 35  1  0  0  0  0
 41 39  1  1  0  0  0
 41 40  1  0  0  0  0
M  END
>  <MODEL>
6

>  <REMARK>
 VINA RESULT:      -7.0      2.009      2.414
  Name = 
  10 active torsions:
  status: ('A' for Active; 'I' for Inactive)
    1  A    between atoms: C_2  and  C_39
    2  A    between atoms: C_3  and  O_20
    3  A    between atoms: C_11  and  C_32
    4  A    between atoms: C_12  and  C_32
    5  A    between atoms: C_16  and  N_22
    6  A    between atoms: O_20  and  C_39
    7  A    between atoms: C_21  and  N_26
    8  A    between atoms: N_22  and  O_28
    9  A    between atoms: N_22  and  C_29
   10  A    between atoms: O_28  and  C_36
                            x       y       z     vdW  Elec       q    Type
                         _______ _______ _______ _____ _____    ______ ____

>  <TORSDO>
F 10

$$$$
=
 OpenBabel11062421413D

 41 45  0  0  1  0  0  0  0  0999 V2000
  187.9360  176.3760  144.0220 C   0  0  0  0  0  3  0  0  0  0  0  0
  186.0280  178.4180  141.6410 N   0  0  0  0  0  0  0  0  0  0  0  0
  186.8560  178.1870  145.2030 C   0  0  0  0  0  3  0  0  0  0  0  0
  185.4710  179.8030  144.0250 N   0  0  0  0  0  1  0  0  0  0  0  0
  187.6820  177.0560  145.2190 C   0  0  0  0  0  0  0  0  0  0  0  0
  186.2670  177.7980  140.4590 C   0  0  0  0  0  3  0  0  0  0  0  0
  187.6180  176.1330  141.5910 C   0  0  0  0  0  0  0  0  0  0  0  0
  187.0620  176.6550  140.4150 C   0  0  0  0  0  3  0  0  0  0  0  0
  186.2940  178.6410  144.0100 C   0  0  0  0  0  0  0  0  0  0  0  0
  187.3700  176.8040  142.8130 C   0  0  0  0  0  0  0  0  0  0  0  0
  186.5510  177.9610  142.8110 C   0  0  0  0  0  0  0  0  0  0  0  0
  189.0190  172.7060  140.9770 C   0  0  2  0  0  3  0  0  0  0  0  0
  187.8770  173.6010  141.4130 C   0  0  0  0  0  2  0  0  0  0  0  0
  189.8470  174.9820  141.2530 C   0  0  0  0  0  2  0  0  0  0  0  0
  188.4220  174.9410  141.5110 N   0  0  0  0  0  0  0  0  0  0  0  0
  190.2870  173.5420  141.0770 C   0  0  1  0  0  3  0  0  0  0  0  0
  188.8080  172.3010  139.5320 C   0  0  0  0  0  1  0  0  0  0  0  0
  191.0230  173.1360  142.1950 O   0  0  0  0  0  0  0  0  0  0  0  0
  192.2960  172.9770  141.7500 N   0  0  0  0  0  0  0  0  0  0  0  0
  194.2040  173.5680  143.2590 C   0  0  0  0  0  0  0  0  0  0  0  0
  194.5460  175.9550  141.8120 C   0  0  0  0  0  3  0  0  0  0  0  0
  193.3240  173.8830  142.1900 C   0  0  0  0  0  0  0  0  0  0  0  0
  193.4940  175.0900  141.4960 C   0  0  0  0  0  3  0  0  0  0  0  0
  195.4430  175.6170  142.8250 C   0  0  0  0  0  3  0  0  0  0  0  0
  195.2710  174.4290  143.5430 C   0  0  0  0  0  3  0  0  0  0  0  0
  194.0470  172.4410  144.0760 O   0  0  0  0  0  0  0  0  0  0  0  0
  194.4810  172.4040  145.4270 C   0  0  0  0  0  2  0  0  0  0  0  0
  195.5450  171.3380  145.5960 C   0  0  0  0  0  2  0  0  0  0  0  0
  196.7960  171.9500  146.0070 N   0  0  0  0  0  1  0  0  0  0  0  0
  192.5070  170.7390  141.1100 O   0  0  0  0  0  1  0  0  0  0  0  0
  192.5390  172.0540  140.6470 C   0  0  0  0  0  2  0  0  0  0  0  0
  187.6070  175.8860  147.2860 O   0  0  0  0  0  0  0  0  0  0  0  0
  188.2880  176.5860  146.4840 C   0  0  0  0  0  0  0  0  0  0  0  0
  191.2220  174.1950  145.3890 C   0  0  0  0  0  1  0  0  0  0  0  0
  189.7310  176.8800  146.7880 C   0  0  1  0  0  3  0  0  0  0  0  0
  191.5060  175.4610  146.0430 N   0  0  0  0  0  0  0  0  0  0  0  0
  191.1880  175.7790  148.3720 N   0  0  0  0  0  1  0  0  0  0  0  0
  190.5160  175.6240  147.0950 C   0  0  1  0  0  3  0  0  0  0  0  0
  192.5390  177.1580  144.6320 C   0  0  0  0  0  1  0  0  0  0  0  0
  190.3630  177.5170  145.6470 N   0  0  0  0  0  2  0  0  0  0  0  0
  191.2370  176.5100  145.0640 C   0  0  2  0  0  3  0  0  0  0  0  0
  1  5  1  0  0  0  0
  2 11  1  0  0  0  0
  3  5  2  0  0  0  0
  5 33  1  0  0  0  0
  6  2  2  0  0  0  0
  7 10  1  0  0  0  0
  8  6  1  0  0  0  0
  8  7  2  0  0  0  0
  9  4  1  0  0  0  0
  9  3  1  0  0  0  0
 10  1  2  0  0  0  0
 11 10  1  0  0  0  0
 11  9  2  0  0  0  0
 12 17  1  6  0  0  0
 12 16  1  0  0  0  0
 12 13  1  0  0  0  0
 13 15  1  0  0  0  0
 14 15  1  0  0  0  0
 15  7  1  0  0  0  0
 16 14  1  0  0  0  0
 16 18  1  1  0  0  0
 19 22  1  0  0  0  0
 19 18  1  0  0  0  0
 20 25  1  0  0  0  0
 20 26  1  0  0  0  0
 21 24  1  0  0  0  0
 22 20  2  0  0  0  0
 23 21  2  0  0  0  0
 23 22  1  0  0  0  0
 24 25  2  0  0  0  0
 26 27  1  0  0  0  0
 27 28  1  0  0  0  0
 28 29  1  0  0  0  0
 31 30  1  0  0  0  0
 31 19  1  0  0  0  0
 33 32  2  0  0  0  0
 34 36  1  0  0  0  0
 35 33  1  6  0  0  0
 35 38  1  0  0  0  0
 36 38  1  0  0  0  0
 38 37  1  1  0  0  0
 40 35  1  0  0  0  0
 41 39  1  1  0  0  0
 41 40  1  0  0  0  0
 41 36  1  0  0  0  0
M  END
>  <MODEL>
7

>  <REMARK>
 VINA RESULT:      -6.9      2.452      7.738
  Name = 
  10 active torsions:
  status: ('A' for Active; 'I' for Inactive)
    1  A    between atoms: C_2  and  C_39
    2  A    between atoms: C_3  and  O_20
    3  A    between atoms: C_11  and  C_32
    4  A    between atoms: C_12  and  C_32
    5  A    between atoms: C_16  and  N_22
    6  A    between atoms: O_20  and  C_39
    7  A    between atoms: C_21  and  N_26
    8  A    between atoms: N_22  and  O_28
    9  A    between atoms: N_22  and  C_29
   10  A    between atoms: O_28  and  C_36
                            x       y       z     vdW  Elec       q    Type
                         _______ _______ _______ _____ _____    ______ ____

>  <TORSDO>
F 10

$$$$
=
 OpenBabel11062421413D

 41 45  0  0  1  0  0  0  0  0999 V2000
  187.9870  176.4140  143.9970 C   0  0  0  0  0  3  0  0  0  0  0  0
  186.0360  178.2900  141.5160 N   0  0  0  0  0  0  0  0  0  0  0  0
  186.8800  178.2680  145.0810 C   0  0  0  0  0  3  0  0  0  0  0  0
  185.4640  179.7940  143.8220 N   0  0  0  0  0  1  0  0  0  0  0  0
  187.7260  177.1540  145.1560 C   0  0  0  0  0  0  0  0  0  0  0  0
  186.2820  177.6110  140.3680 C   0  0  0  0  0  3  0  0  0  0  0  0
  187.6650  176.0330  141.5840 C   0  0  0  0  0  0  0  0  0  0  0  0
  187.0970  176.4810  140.3840 C   0  0  0  0  0  3  0  0  0  0  0  0
  186.3070  178.6470  143.8680 C   0  0  0  0  0  0  0  0  0  0  0  0
  187.4100  176.7660  142.7680 C   0  0  0  0  0  0  0  0  0  0  0  0
  186.5710  177.9060  142.7060 C   0  0  0  0  0  0  0  0  0  0  0  0
  189.1880  172.6500  141.0210 C   0  0  2  0  0  3  0  0  0  0  0  0
  187.9820  173.5150  141.3300 C   0  0  0  0  0  2  0  0  0  0  0  0
  189.9360  174.9160  141.5160 C   0  0  0  0  0  2  0  0  0  0  0  0
  188.4890  174.8520  141.5650 N   0  0  0  0  0  0  0  0  0  0  0  0
  190.4170  173.4900  141.3390 C   0  0  1  0  0  3  0  0  0  0  0  0
  189.1900  172.3110  139.5450 C   0  0  0  0  0  1  0  0  0  0  0  0
  190.9920  173.0370  142.5310 O   0  0  0  0  0  0  0  0  0  0  0  0
  192.2730  172.7180  142.2150 N   0  0  0  0  0  0  0  0  0  0  0  0
  194.1810  173.8610  143.3640 C   0  0  0  0  0  0  0  0  0  0  0  0
  194.2620  171.7510  145.2210 C   0  0  0  0  0  3  0  0  0  0  0  0
  193.2910  172.7610  143.2300 C   0  0  0  0  0  0  0  0  0  0  0  0
  193.3640  171.7060  144.1520 C   0  0  0  0  0  3  0  0  0  0  0  0
  195.0960  172.8580  145.3840 C   0  0  0  0  0  3  0  0  0  0  0  0
  195.0520  173.9060  144.4590 C   0  0  0  0  0  3  0  0  0  0  0  0
  194.2550  174.9060  142.4340 O   0  0  0  0  0  0  0  0  0  0  0  0
  195.4000  175.1390  141.6290 C   0  0  0  0  0  2  0  0  0  0  0  0
  195.8150  176.5930  141.7330 C   0  0  0  0  0  2  0  0  0  0  0  0
  196.7000  176.7730  142.8710 N   0  0  0  0  0  1  0  0  0  0  0  0
  193.2170  171.3410  140.5780 O   0  0  0  0  0  1  0  0  0  0  0  0
  192.6310  172.5850  140.8070 C   0  0  0  0  0  2  0  0  0  0  0  0
  187.6870  176.0720  147.2710 O   0  0  0  0  0  0  0  0  0  0  0  0
  188.3440  176.7640  146.4420 C   0  0  0  0  0  0  0  0  0  0  0  0
  191.3500  174.3070  145.7780 C   0  0  0  0  0  1  0  0  0  0  0  0
  189.7720  177.1300  146.7380 C   0  0  1  0  0  3  0  0  0  0  0  0
  191.5920  175.6590  146.2500 N   0  0  0  0  0  0  0  0  0  0  0  0
  191.2020  176.2980  148.5000 N   0  0  0  0  0  1  0  0  0  0  0  0
  190.5700  175.9490  147.2420 C   0  0  1  0  0  3  0  0  0  0  0  0
  192.6350  177.1590  144.6380 C   0  0  0  0  0  1  0  0  0  0  0  0
  190.4240  177.6120  145.5350 N   0  0  0  0  0  2  0  0  0  0  0  0
  191.3330  176.5510  145.1240 C   0  0  2  0  0  3  0  0  0  0  0  0
  1  5  1  0  0  0  0
  2 11  1  0  0  0  0
  3  5  2  0  0  0  0
  4  9  1  0  0  0  0
  5 33  1  0  0  0  0
  6  8  1  0  0  0  0
  6  2  2  0  0  0  0
  7 10  1  0  0  0  0
  8  7  2  0  0  0  0
  9  3  1  0  0  0  0
 10  1  2  0  0  0  0
 11 10  1  0  0  0  0
 11  9  2  0  0  0  0
 12 17  1  6  0  0  0
 12 13  1  0  0  0  0
 12 16  1  0  0  0  0
 13 15  1  0  0  0  0
 14 15  1  0  0  0  0
 15  7  1  0  0  0  0
 16 14  1  0  0  0  0
 16 18  1  1  0  0  0
 19 18  1  0  0  0  0
 19 22  1  0  0  0  0
 20 25  1  0  0  0  0
 21 24  1  0  0  0  0
 22 20  2  0  0  0  0
 22 23  1  0  0  0  0
 23 21  2  0  0  0  0
 25 24  2  0  0  0  0
 26 20  1  0  0  0  0
 27 28  1  0  0  0  0
 27 26  1  0  0  0  0
 28 29  1  0  0  0  0
 30 31  1  0  0  0  0
 31 19  1  0  0  0  0
 33 32  2  0  0  0  0
 34 36  1  0  0  0  0
 35 33  1  6  0  0  0
 35 38  1  0  0  0  0
 36 38  1  0  0  0  0
 38 37  1  1  0  0  0
 40 35  1  0  0  0  0
 41 39  1  1  0  0  0
 41 40  1  0  0  0  0
 41 36  1  0  0  0  0
M  END
>  <MODEL>
8

>  <REMARK>
 VINA RESULT:      -6.9      2.348      7.524
  Name = 
  10 active torsions:
  status: ('A' for Active; 'I' for Inactive)
    1  A    between atoms: C_2  and  C_39
    2  A    between atoms: C_3  and  O_20
    3  A    between atoms: C_11  and  C_32
    4  A    between atoms: C_12  and  C_32
    5  A    between atoms: C_16  and  N_22
    6  A    between atoms: O_20  and  C_39
    7  A    between atoms: C_21  and  N_26
    8  A    between atoms: N_22  and  O_28
    9  A    between atoms: N_22  and  C_29
   10  A    between atoms: O_28  and  C_36
                            x       y       z     vdW  Elec       q    Type
                         _______ _______ _______ _____ _____    ______ ____

>  <TORSDO>
F 10

$$$$
=
 OpenBabel11062421413D

 41 45  0  0  1  0  0  0  0  0999 V2000
  193.5360  173.5670  144.0610 C   0  0  0  0  0  3  0  0  0  0  0  0
  196.3430  175.9100  143.7240 N   0  0  0  0  0  0  0  0  0  0  0  0
  195.2890  172.5370  142.7560 C   0  0  0  0  0  3  0  0  0  0  0  0
  197.3590  173.7230  142.2760 N   0  0  0  0  0  1  0  0  0  0  0  0
  194.0160  172.4700  143.3350 C   0  0  0  0  0  0  0  0  0  0  0  0
  195.9040  177.0000  144.4020 C   0  0  0  0  0  3  0  0  0  0  0  0
  193.8440  175.8440  144.9490 C   0  0  0  0  0  0  0  0  0  0  0  0
  194.6550  176.9850  145.0190 C   0  0  0  0  0  3  0  0  0  0  0  0
  196.0740  173.6820  142.8900 C   0  0  0  0  0  0  0  0  0  0  0  0
  194.3120  174.7230  144.2230 C   0  0  0  0  0  0  0  0  0  0  0  0
  195.5910  174.7810  143.6150 C   0  0  0  0  0  0  0  0  0  0  0  0
  190.9960  175.9350  147.3920 C   0  0  2  0  0  3  0  0  0  0  0  0
  192.3540  175.4070  146.9730 C   0  0  0  0  0  2  0  0  0  0  0  0
  191.4220  176.5700  145.0780 C   0  0  0  0  0  2  0  0  0  0  0  0
  192.5650  175.8590  145.6120 N   0  0  0  0  0  0  0  0  0  0  0  0
  190.3390  176.4860  146.1350 C   0  0  1  0  0  3  0  0  0  0  0  0
  191.1880  177.0640  148.3840 C   0  0  0  0  0  1  0  0  0  0  0  0
  189.3380  175.6050  145.7110 O   0  0  0  0  0  0  0  0  0  0  0  0
  188.2630  176.3870  145.4370 N   0  0  0  0  0  0  0  0  0  0  0  0
  187.1870  177.7860  143.6600 C   0  0  0  0  0  0  0  0  0  0  0  0
  187.9780  175.8800  141.7500 C   0  0  0  0  0  3  0  0  0  0  0  0
  187.8730  176.6110  144.0700 C   0  0  0  0  0  0  0  0  0  0  0  0
  188.2370  175.6600  143.1060 C   0  0  0  0  0  3  0  0  0  0  0  0
  187.3550  177.0610  141.3440 C   0  0  0  0  0  3  0  0  0  0  0  0
  186.9640  178.0070  142.2960 C   0  0  0  0  0  3  0  0  0  0  0  0
  186.6910  178.7370  144.5610 O   0  0  0  0  0  0  0  0  0  0  0  0
  185.5260  179.5070  144.3020 C   0  0  0  0  0  2  0  0  0  0  0  0
  184.2910  178.7150  144.6820 C   0  0  0  0  0  2  0  0  0  0  0  0
  184.1660  178.6600  146.1270 N   0  0  0  0  0  1  0  0  0  0  0  0
  186.7140  176.4410  147.1870 O   0  0  0  0  0  1  0  0  0  0  0  0
  187.6850  177.1820  146.5150 C   0  0  0  0  0  2  0  0  0  0  0  0
  193.1110  170.4180  144.1180 O   0  0  0  0  0  0  0  0  0  0  0  0
  193.1810  171.2600  143.1780 C   0  0  0  0  0  0  0  0  0  0  0  0
  189.2970  171.9120  143.0590 C   0  0  0  0  0  1  0  0  0  0  0  0
  192.3620  171.0610  141.9320 C   0  0  1  0  0  3  0  0  0  0  0  0
  190.0210  171.5430  141.8550 N   0  0  0  0  0  0  0  0  0  0  0  0
  190.7520  169.3220  141.4540 N   0  0  0  0  0  1  0  0  0  0  0  0
  190.9830  170.5220  142.2380 C   0  0  1  0  0  3  0  0  0  0  0  0
  190.2340  173.2990  140.1810 C   0  0  0  0  0  1  0  0  0  0  0  0
  192.1890  172.3240  141.2400 N   0  0  0  0  0  2  0  0  0  0  0  0
  190.8020  172.7100  141.4580 C   0  0  2  0  0  3  0  0  0  0  0  0
  1 10  1  0  0  0  0
  2  6  1  0  0  0  0
  3  9  2  0  0  0  0
  3  5  1  0  0  0  0
  4  9  1  0  0  0  0
  5  1  2  0  0  0  0
  6  8  2  0  0  0  0
  7  8  1  0  0  0  0
  7 15  1  0  0  0  0
  9 11  1  0  0  0  0
 10  7  2  0  0  0  0
 11  2  2  0  0  0  0
 11 10  1  0  0  0  0
 12 17  1  1  0  0  0
 13 12  1  0  0  0  0
 14 15  1  0  0  0  0
 14 16  1  0  0  0  0
 15 13  1  0  0  0  0
 16 18  1  6  0  0  0
 16 12  1  0  0  0  0
 19 18  1  0  0  0  0
 19 31  1  0  0  0  0
 20 22  1  0  0  0  0
 20 26  1  0  0  0  0
 21 23  1  0  0  0  0
 22 19  1  0  0  0  0
 23 22  2  0  0  0  0
 24 21  2  0  0  0  0
 24 25  1  0  0  0  0
 25 20  2  0  0  0  0
 27 26  1  0  0  0  0
 27 28  1  0  0  0  0
 28 29  1  0  0  0  0
 31 30  1  0  0  0  0
 33  5  1  0  0  0  0
 33 32  2  0  0  0  0
 35 38  1  0  0  0  0
 35 33  1  1  0  0  0
 36 38  1  0  0  0  0
 36 34  1  0  0  0  0
 38 37  1  6  0  0  0
 40 41  1  0  0  0  0
 40 35  1  0  0  0  0
 41 39  1  6  0  0  0
 41 36  1  0  0  0  0
M  END
>  <MODEL>
9

>  <REMARK>
 VINA RESULT:      -6.8      2.331      5.403
  Name = 
  10 active torsions:
  status: ('A' for Active; 'I' for Inactive)
    1  A    between atoms: C_2  and  C_39
    2  A    between atoms: C_3  and  O_20
    3  A    between atoms: C_11  and  C_32
    4  A    between atoms: C_12  and  C_32
    5  A    between atoms: C_16  and  N_22
    6  A    between atoms: O_20  and  C_39
    7  A    between atoms: C_21  and  N_26
    8  A    between atoms: N_22  and  O_28
    9  A    between atoms: N_22  and  C_29
   10  A    between atoms: O_28  and  C_36
                            x       y       z     vdW  Elec       q    Type
                         _______ _______ _______ _____ _____    ______ ____

>  <TORSDO>
F 10

$$$$
