=
 OpenBabel11062420363D

 32 34  0  0  0  0  0  0  0  0999 V2000
  191.1070  171.6770  142.9770 C   0  0  0  0  0  0  0  0  0  0  0  0
  190.9050  174.1010  142.9140 C   0  0  0  0  0  0  0  0  0  0  0  0
  189.7400  171.5590  142.7390 C   0  0  0  0  0  3  0  0  0  0  0  0
  191.8760  170.5240  143.0970 O   0  0  0  0  0  1  0  0  0  0  0  0
  189.5150  173.9810  142.6800 C   0  0  0  0  0  0  0  0  0  0  0  0
  191.5110  175.3540  142.9690 O   0  0  0  0  0  1  0  0  0  0  0  0
  188.9520  172.6990  142.5970 C   0  0  0  0  0  3  0  0  0  0  0  0
  191.6960  172.9460  143.0840 C   0  0  0  0  0  0  0  0  0  0  0  0
  188.5030  175.6810  141.3710 O   0  0  0  0  0  0  0  0  0  0  0  0
  188.6210  175.1530  142.5120 C   0  0  0  0  0  0  0  0  0  0  0  0
  187.8870  175.6830  143.6280 N   0  0  0  0  0  2  0  0  0  0  0  0
  184.4760  179.9600  144.2990 F   0  0  0  0  0  0  0  0  0  0  0  0
  186.9920  176.8030  143.6240 C   0  0  0  0  0  0  0  0  0  0  0  0
  184.9440  178.6710  144.4670 C   0  0  0  0  0  0  0  0  0  0  0  0
  184.1160  178.0140  145.3580 F   0  0  0  0  0  0  0  0  0  0  0  0
  186.3620  178.7330  145.0740 C   0  0  0  0  0  2  0  0  0  0  0  0
  187.4560  178.1080  144.1970 C   0  0  0  0  0  2  0  0  0  0  0  0
  184.8860  177.9480  143.1130 C   0  0  0  0  0  2  0  0  0  0  0  0
  185.7600  176.7300  143.1110 C   0  0  0  0  0  3  0  0  0  0  0  0
  193.1710  173.0590  143.3520 C   0  0  0  0  0  2  0  0  0  0  0  0
  193.4880  173.0410  144.8190 C   0  0  0  0  0  0  0  0  0  0  0  0
  193.8400  171.9260  145.3690 N   0  0  0  0  0  2  0  0  0  0  0  0
  192.3650  174.6700  146.2980 C   0  0  0  0  0  3  0  0  0  0  0  0
  193.5260  174.2920  145.6080 C   0  0  0  0  0  0  0  0  0  0  0  0
  194.6520  175.1600  145.6270 C   0  0  0  0  0  0  0  0  0  0  0  0
  193.3900  176.7450  146.9790 C   0  0  0  0  0  3  0  0  0  0  0  0
  192.2980  175.8820  146.9840 C   0  0  0  0  0  0  0  0  0  0  0  0
  194.5580  176.3840  146.3070 C   0  0  0  0  0  3  0  0  0  0  0  0
  191.1080  176.2430  147.6750 N   0  0  0  0  0  1  0  0  0  0  0  0
  195.9560  174.8130  145.0140 C   0  0  0  0  0  0  0  0  0  0  0  0
  196.9320  174.1430  145.7400 O   0  0  0  0  0  1  0  0  0  0  0  0
  196.2140  175.1760  143.8350 O   0  0  0  0  0  0  0  0  0  0  0  0
  1  8  1  0  0  0  0
  1  4  1  0  0  0  0
  2  6  1  0  0  0  0
  2  8  2  0  0  0  0
  3  1  2  0  0  0  0
  5  2  1  0  0  0  0
  7  5  2  0  0  0  0
  7  3  1  0  0  0  0
  8 20  1  0  0  0  0
  9 10  2  0  0  0  0
 10  5  1  0  0  0  0
 10 11  1  0  0  0  0
 12 14  1  0  0  0  0
 13 11  1  0  0  0  0
 13 17  1  0  0  0  0
 14 16  1  0  0  0  0
 14 15  1  0  0  0  0
 17 16  1  0  0  0  0
 18 14  1  0  0  0  0
 19 18  1  0  0  0  0
 19 13  2  0  0  0  0
 20 21  1  0  0  0  0
 21 22  2  0  0  0  0
 21 24  1  0  0  0  0
 23 27  1  0  0  0  0
 24 25  1  0  0  0  0
 24 23  2  0  0  0  0
 25 28  2  0  0  0  0
 26 27  2  0  0  0  0
 27 29  1  0  0  0  0
 28 26  1  0  0  0  0
 30 25  1  0  0  0  0
 30 31  1  0  0  0  0
 32 30  2  0  0  0  0
M  END
>  <MODEL>
1

>  <REMARK>
 VINA RESULT:      -7.4      0.000      0.000
  Name = 
  6 active torsions:
  status: ('A' for Active; 'I' for Inactive)
    1  A    between atoms: C_2  and  C_18
    2  A    between atoms: C_2  and  C_23
    3  A    between atoms: C_8  and  C_19
    4  A    between atoms: C_9  and  C_17
    5  A    between atoms: C_11  and  C_18
    6  A    between atoms: C_12  and  N_32
                            x       y       z     vdW  Elec       q    Type
                         _______ _______ _______ _____ _____    ______ ____

>  <TORSDO>
F 6

$$$$
=
 OpenBabel11062420363D

 32 34  0  0  0  0  0  0  0  0999 V2000
  193.7670  176.3180  145.7120 C   0  0  0  0  0  0  0  0  0  0  0  0
  191.8300  176.2340  144.2420 C   0  0  0  0  0  0  0  0  0  0  0  0
  192.9230  176.3660  146.8190 C   0  0  0  0  0  3  0  0  0  0  0  0
  195.1430  176.3090  145.9110 O   0  0  0  0  0  1  0  0  0  0  0  0
  190.9730  176.2900  145.3660 C   0  0  0  0  0  0  0  0  0  0  0  0
  191.3090  176.1310  142.9550 O   0  0  0  0  0  1  0  0  0  0  0  0
  191.5400  176.3570  146.6470 C   0  0  0  0  0  3  0  0  0  0  0  0
  193.2290  176.2700  144.4170 C   0  0  0  0  0  0  0  0  0  0  0  0
  188.9220  175.2770  144.7350 O   0  0  0  0  0  0  0  0  0  0  0  0
  189.4930  176.2760  145.2530 C   0  0  0  0  0  0  0  0  0  0  0  0
  188.7100  177.3800  145.7340 N   0  0  0  0  0  2  0  0  0  0  0  0
  183.3240  178.5510  145.7540 F   0  0  0  0  0  0  0  0  0  0  0  0
  187.2820  177.5140  145.6950 C   0  0  0  0  0  0  0  0  0  0  0  0
  184.6090  178.4770  146.2570 C   0  0  0  0  0  0  0  0  0  0  0  0
  184.6270  179.0680  147.5070 F   0  0  0  0  0  0  0  0  0  0  0  0
  185.5510  179.2720  145.3270 C   0  0  0  0  0  2  0  0  0  0  0  0
  186.6640  178.4330  144.6850 C   0  0  0  0  0  2  0  0  0  0  0  0
  184.9940  176.9970  146.4040 C   0  0  0  0  0  2  0  0  0  0  0  0
  186.4790  176.8330  146.5180 C   0  0  0  0  0  3  0  0  0  0  0  0
  194.1520  176.2300  143.2310 C   0  0  0  0  0  2  0  0  0  0  0  0
  194.4800  174.8270  142.8110 C   0  0  0  0  0  0  0  0  0  0  0  0
  194.0020  174.3810  141.6960 N   0  0  0  0  0  2  0  0  0  0  0  0
  194.9240  172.9350  144.3350 C   0  0  0  0  0  3  0  0  0  0  0  0
  195.4350  174.0010  143.5820 C   0  0  0  0  0  0  0  0  0  0  0  0
  196.8250  174.2950  143.6570 C   0  0  0  0  0  0  0  0  0  0  0  0
  197.1070  172.4770  145.2550 C   0  0  0  0  0  3  0  0  0  0  0  0
  195.7520  172.1730  145.1590 C   0  0  0  0  0  0  0  0  0  0  0  0
  197.6380  173.5280  144.5070 C   0  0  0  0  0  3  0  0  0  0  0  0
  195.2080  171.0970  145.9140 N   0  0  0  0  0  1  0  0  0  0  0  0
  197.4820  175.3340  142.8320 C   0  0  0  0  0  0  0  0  0  0  0  0
  197.5820  176.6460  143.2790 O   0  0  0  0  0  1  0  0  0  0  0  0
  197.9100  175.0480  141.6820 O   0  0  0  0  0  0  0  0  0  0  0  0
  1  4  1  0  0  0  0
  1  3  1  0  0  0  0
  2  8  1  0  0  0  0
  2  5  2  0  0  0  0
  5  7  1  0  0  0  0
  6  2  1  0  0  0  0
  7  3  2  0  0  0  0
  8  1  2  0  0  0  0
  9 10  2  0  0  0  0
 10  5  1  0  0  0  0
 10 11  1  0  0  0  0
 12 14  1  0  0  0  0
 13 11  1  0  0  0  0
 13 19  2  0  0  0  0
 14 18  1  0  0  0  0
 14 15  1  0  0  0  0
 16 14  1  0  0  0  0
 17 16  1  0  0  0  0
 17 13  1  0  0  0  0
 18 19  1  0  0  0  0
 20  8  1  0  0  0  0
 21 20  1  0  0  0  0
 21 24  1  0  0  0  0
 22 21  2  0  0  0  0
 23 27  1  0  0  0  0
 24 25  1  0  0  0  0
 24 23  2  0  0  0  0
 25 28  2  0  0  0  0
 27 26  2  0  0  0  0
 27 29  1  0  0  0  0
 28 26  1  0  0  0  0
 30 31  1  0  0  0  0
 30 25  1  0  0  0  0
 32 30  2  0  0  0  0
M  END
>  <MODEL>
2

>  <REMARK>
 VINA RESULT:      -7.4      2.680      4.012
  Name = 
  6 active torsions:
  status: ('A' for Active; 'I' for Inactive)
    1  A    between atoms: C_2  and  C_18
    2  A    between atoms: C_2  and  C_23
    3  A    between atoms: C_8  and  C_19
    4  A    between atoms: C_9  and  C_17
    5  A    between atoms: C_11  and  C_18
    6  A    between atoms: C_12  and  N_32
                            x       y       z     vdW  Elec       q    Type
                         _______ _______ _______ _____ _____    ______ ____

>  <TORSDO>
F 6

$$$$
=
 OpenBabel11062420363D

 32 34  0  0  0  0  0  0  0  0999 V2000
  190.9590  173.1070  141.3050 C   0  0  0  0  0  0  0  0  0  0  0  0
  190.3400  175.2500  142.2770 C   0  0  0  0  0  0  0  0  0  0  0  0
  189.6590  172.6460  141.4970 C   0  0  0  0  0  3  0  0  0  0  0  0
  191.8920  172.2700  140.7030 O   0  0  0  0  0  1  0  0  0  0  0  0
  189.0210  174.7790  142.4790 C   0  0  0  0  0  0  0  0  0  0  0  0
  190.6900  176.5520  142.6240 O   0  0  0  0  0  1  0  0  0  0  0  0
  188.7010  173.4720  142.0830 C   0  0  0  0  0  3  0  0  0  0  0  0
  191.3140  174.4030  141.7100 C   0  0  0  0  0  0  0  0  0  0  0  0
  186.8360  175.7040  142.5070 O   0  0  0  0  0  0  0  0  0  0  0  0
  187.9520  175.6090  143.0890 C   0  0  0  0  0  0  0  0  0  0  0  0
  188.1740  176.2940  144.3320 N   0  0  0  0  0  2  0  0  0  0  0  0
  184.1460  179.0070  146.9380 F   0  0  0  0  0  0  0  0  0  0  0  0
  187.2470  177.1280  145.0410 C   0  0  0  0  0  0  0  0  0  0  0  0
  184.7590  178.3410  145.8940 C   0  0  0  0  0  0  0  0  0  0  0  0
  183.8540  178.2210  144.8560 F   0  0  0  0  0  0  0  0  0  0  0  0
  185.1460  176.9240  146.3700 C   0  0  0  0  0  2  0  0  0  0  0  0
  186.6510  176.6280  146.3220 C   0  0  0  0  0  2  0  0  0  0  0  0
  185.9550  179.1760  145.4140 C   0  0  0  0  0  2  0  0  0  0  0  0
  186.9070  178.3450  144.6080 C   0  0  0  0  0  3  0  0  0  0  0  0
  192.7240  174.8830  141.5060 C   0  0  0  0  0  2  0  0  0  0  0  0
  193.6510  174.4030  142.5840 C   0  0  0  0  0  0  0  0  0  0  0  0
  194.6010  173.5840  142.2720 N   0  0  0  0  0  2  0  0  0  0  0  0
  194.2200  176.1630  144.2200 C   0  0  0  0  0  3  0  0  0  0  0  0
  193.5740  174.9470  143.9580 C   0  0  0  0  0  0  0  0  0  0  0  0
  192.9490  174.2520  145.0300 C   0  0  0  0  0  0  0  0  0  0  0  0
  193.6830  175.9940  146.5670 C   0  0  0  0  0  3  0  0  0  0  0  0
  194.2700  176.6880  145.5110 C   0  0  0  0  0  0  0  0  0  0  0  0
  193.0260  174.7870  146.3260 C   0  0  0  0  0  3  0  0  0  0  0  0
  194.9330  177.9220  145.7530 N   0  0  0  0  0  1  0  0  0  0  0  0
  192.1590  173.0130  144.8450 C   0  0  0  0  0  0  0  0  0  0  0  0
  190.7740  173.0240  144.9560 O   0  0  0  0  0  1  0  0  0  0  0  0
  192.7450  171.9170  144.6380 O   0  0  0  0  0  0  0  0  0  0  0  0
  1  3  2  0  0  0  0
  1  8  1  0  0  0  0
  2  5  1  0  0  0  0
  2  6  1  0  0  0  0
  3  7  1  0  0  0  0
  4  1  1  0  0  0  0
  5 10  1  0  0  0  0
  7  5  2  0  0  0  0
  8  2  2  0  0  0  0
  9 10  2  0  0  0  0
 10 11  1  0  0  0  0
 11 13  1  0  0  0  0
 13 17  1  0  0  0  0
 14 16  1  0  0  0  0
 14 12  1  0  0  0  0
 15 14  1  0  0  0  0
 17 16  1  0  0  0  0
 18 14  1  0  0  0  0
 19 13  2  0  0  0  0
 19 18  1  0  0  0  0
 20  8  1  0  0  0  0
 20 21  1  0  0  0  0
 21 24  1  0  0  0  0
 22 21  2  0  0  0  0
 23 27  1  0  0  0  0
 24 23  2  0  0  0  0
 24 25  1  0  0  0  0
 25 28  2  0  0  0  0
 27 29  1  0  0  0  0
 27 26  2  0  0  0  0
 28 26  1  0  0  0  0
 30 31  1  0  0  0  0
 30 25  1  0  0  0  0
 32 30  2  0  0  0  0
M  END
>  <MODEL>
3

>  <REMARK>
 VINA RESULT:      -7.4      2.136      2.690
  Name = 
  6 active torsions:
  status: ('A' for Active; 'I' for Inactive)
    1  A    between atoms: C_2  and  C_18
    2  A    between atoms: C_2  and  C_23
    3  A    between atoms: C_8  and  C_19
    4  A    between atoms: C_9  and  C_17
    5  A    between atoms: C_11  and  C_18
    6  A    between atoms: C_12  and  N_32
                            x       y       z     vdW  Elec       q    Type
                         _______ _______ _______ _____ _____    ______ ____

>  <TORSDO>
F 6

$$$$
=
 OpenBabel11062420363D

 32 34  0  0  0  0  0  0  0  0999 V2000
  193.4750  175.8900  143.9420 C   0  0  0  0  0  0  0  0  0  0  0  0
  191.3970  175.1210  144.9450 C   0  0  0  0  0  0  0  0  0  0  0  0
  192.7640  176.8210  143.1870 C   0  0  0  0  0  3  0  0  0  0  0  0
  194.8600  175.8410  143.8260 O   0  0  0  0  0  1  0  0  0  0  0  0
  190.6740  176.0610  144.1740 C   0  0  0  0  0  0  0  0  0  0  0  0
  190.7400  174.2920  145.8520 O   0  0  0  0  0  1  0  0  0  0  0  0
  191.3770  176.9010  143.2980 C   0  0  0  0  0  3  0  0  0  0  0  0
  192.7960  175.0220  144.8110 C   0  0  0  0  0  0  0  0  0  0  0  0
  188.4690  175.4710  143.5260 O   0  0  0  0  0  0  0  0  0  0  0  0
  189.1980  176.2040  144.2500 C   0  0  0  0  0  0  0  0  0  0  0  0
  188.5980  177.1570  145.1420 N   0  0  0  0  0  2  0  0  0  0  0  0
  183.4030  178.7710  146.0250 F   0  0  0  0  0  0  0  0  0  0  0  0
  187.1990  177.4100  145.3270 C   0  0  0  0  0  0  0  0  0  0  0  0
  184.7370  178.5690  146.3220 C   0  0  0  0  0  0  0  0  0  0  0  0
  184.9960  179.1000  147.5710 F   0  0  0  0  0  0  0  0  0  0  0  0
  185.5960  179.3210  145.2830 C   0  0  0  0  0  2  0  0  0  0  0  0
  186.5210  178.4210  144.4520 C   0  0  0  0  0  2  0  0  0  0  0  0
  185.0060  177.0560  146.3630 C   0  0  0  0  0  2  0  0  0  0  0  0
  186.4710  176.7640  146.2420 C   0  0  0  0  0  3  0  0  0  0  0  0
  193.5750  174.0160  145.6110 C   0  0  0  0  0  2  0  0  0  0  0  0
  193.8480  172.7600  144.8370 C   0  0  0  0  0  0  0  0  0  0  0  0
  193.3150  172.6170  143.6680 N   0  0  0  0  0  2  0  0  0  0  0  0
  194.2960  170.5820  145.9120 C   0  0  0  0  0  3  0  0  0  0  0  0
  194.8100  171.7500  145.3320 C   0  0  0  0  0  0  0  0  0  0  0  0
  196.2170  171.9530  145.3190 C   0  0  0  0  0  0  0  0  0  0  0  0
  196.5170  169.8420  146.4970 C   0  0  0  0  0  3  0  0  0  0  0  0
  195.1400  169.6310  146.4840 C   0  0  0  0  0  0  0  0  0  0  0  0
  197.0500  170.9930  145.9170 C   0  0  0  0  0  3  0  0  0  0  0  0
  194.5950  168.4550  147.0680 N   0  0  0  0  0  1  0  0  0  0  0  0
  196.8670  173.1020  144.6470 C   0  0  0  0  0  0  0  0  0  0  0  0
  197.3150  174.1970  145.3750 O   0  0  0  0  0  1  0  0  0  0  0  0
  196.9700  173.1210  143.3920 O   0  0  0  0  0  0  0  0  0  0  0  0
  1  8  1  0  0  0  0
  2  6  1  0  0  0  0
  3  7  1  0  0  0  0
  3  1  2  0  0  0  0
  4  1  1  0  0  0  0
  5 10  1  0  0  0  0
  5  2  1  0  0  0  0
  7  5  2  0  0  0  0
  8  2  2  0  0  0  0
  8 20  1  0  0  0  0
  9 10  2  0  0  0  0
 10 11  1  0  0  0  0
 11 13  1  0  0  0  0
 12 14  1  0  0  0  0
 13 19  2  0  0  0  0
 14 18  1  0  0  0  0
 14 15  1  0  0  0  0
 16 14  1  0  0  0  0
 17 16  1  0  0  0  0
 17 13  1  0  0  0  0
 19 18  1  0  0  0  0
 21 24  1  0  0  0  0
 21 20  1  0  0  0  0
 22 21  2  0  0  0  0
 23 27  1  0  0  0  0
 24 23  2  0  0  0  0
 25 24  1  0  0  0  0
 25 28  2  0  0  0  0
 27 26  2  0  0  0  0
 27 29  1  0  0  0  0
 28 26  1  0  0  0  0
 30 25  1  0  0  0  0
 30 31  1  0  0  0  0
 32 30  2  0  0  0  0
M  END
>  <MODEL>
4

>  <REMARK>
 VINA RESULT:      -7.4      2.447      3.899
  Name = 
  6 active torsions:
  status: ('A' for Active; 'I' for Inactive)
    1  A    between atoms: C_2  and  C_18
    2  A    between atoms: C_2  and  C_23
    3  A    between atoms: C_8  and  C_19
    4  A    between atoms: C_9  and  C_17
    5  A    between atoms: C_11  and  C_18
    6  A    between atoms: C_12  and  N_32
                            x       y       z     vdW  Elec       q    Type
                         _______ _______ _______ _____ _____    ______ ____

>  <TORSDO>
F 6

$$$$
=
 OpenBabel11062420363D

 32 34  0  0  0  0  0  0  0  0999 V2000
  189.9980  177.1720  146.7700 C   0  0  0  0  0  0  0  0  0  0  0  0
  191.4670  176.5350  144.9370 C   0  0  0  0  0  0  0  0  0  0  0  0
  190.8240  176.4950  147.6640 C   0  0  0  0  0  3  0  0  0  0  0  0
  188.8780  177.8390  147.2540 O   0  0  0  0  0  1  0  0  0  0  0  0
  192.3020  175.8420  145.8450 C   0  0  0  0  0  0  0  0  0  0  0  0
  191.7880  176.5990  143.5840 O   0  0  0  0  0  1  0  0  0  0  0  0
  191.9610  175.8330  147.2060 C   0  0  0  0  0  3  0  0  0  0  0  0
  190.3020  177.1810  145.3990 C   0  0  0  0  0  0  0  0  0  0  0  0
  194.4360  175.7570  144.8130 O   0  0  0  0  0  0  0  0  0  0  0  0
  193.5310  175.1240  145.4240 C   0  0  0  0  0  0  0  0  0  0  0  0
  193.7000  173.7270  145.7130 N   0  0  0  0  0  2  0  0  0  0  0  0
  197.6850  170.0460  144.7370 F   0  0  0  0  0  0  0  0  0  0  0  0
  194.8220  172.9010  145.3730 C   0  0  0  0  0  0  0  0  0  0  0  0
  196.8000  170.7880  145.4960 C   0  0  0  0  0  0  0  0  0  0  0  0
  196.9070  170.3880  146.8140 F   0  0  0  0  0  0  0  0  0  0  0  0
  195.3640  170.4930  145.0110 C   0  0  0  0  0  2  0  0  0  0  0  0
  194.6100  171.7190  144.4770 C   0  0  0  0  0  2  0  0  0  0  0  0
  197.1900  172.2700  145.3950 C   0  0  0  0  0  2  0  0  0  0  0  0
  196.0570  173.1580  145.8130 C   0  0  0  0  0  3  0  0  0  0  0  0
  189.3960  177.9060  144.4440 C   0  0  0  0  0  2  0  0  0  0  0  0
  188.1960  177.0870  144.0630 C   0  0  0  0  0  0  0  0  0  0  0  0
  188.3180  175.8040  143.9760 N   0  0  0  0  0  2  0  0  0  0  0  0
  186.1130  177.9420  145.0760 C   0  0  0  0  0  3  0  0  0  0  0  0
  186.8620  177.7090  143.9140 C   0  0  0  0  0  0  0  0  0  0  0  0
  186.2810  177.9980  142.6490 C   0  0  0  0  0  0  0  0  0  0  0  0
  184.2310  178.6940  143.7650 C   0  0  0  0  0  3  0  0  0  0  0  0
  184.8110  178.4380  145.0050 C   0  0  0  0  0  0  0  0  0  0  0  0
  184.9630  178.4780  142.5970 C   0  0  0  0  0  3  0  0  0  0  0  0
  184.0700  178.6640  146.1980 N   0  0  0  0  0  1  0  0  0  0  0  0
  187.0200  177.8800  141.3700 C   0  0  0  0  0  0  0  0  0  0  0  0
  188.3420  178.2930  141.2660 O   0  0  0  0  0  1  0  0  0  0  0  0
  186.4320  177.4520  140.3410 O   0  0  0  0  0  0  0  0  0  0  0  0
  1  4  1  0  0  0  0
  1  3  1  0  0  0  0
  2  8  1  0  0  0  0
  2  5  2  0  0  0  0
  5  7  1  0  0  0  0
  6  2  1  0  0  0  0
  7  3  2  0  0  0  0
  8  1  2  0  0  0  0
  9 10  2  0  0  0  0
 10 11  1  0  0  0  0
 10  5  1  0  0  0  0
 12 14  1  0  0  0  0
 13 11  1  0  0  0  0
 13 19  2  0  0  0  0
 14 15  1  0  0  0  0
 16 14  1  0  0  0  0
 17 16  1  0  0  0  0
 17 13  1  0  0  0  0
 18 14  1  0  0  0  0
 18 19  1  0  0  0  0
 20  8  1  0  0  0  0
 21 20  1  0  0  0  0
 22 21  2  0  0  0  0
 24 21  1  0  0  0  0
 24 23  2  0  0  0  0
 25 24  1  0  0  0  0
 26 27  2  0  0  0  0
 27 23  1  0  0  0  0
 27 29  1  0  0  0  0
 28 25  2  0  0  0  0
 28 26  1  0  0  0  0
 30 25  1  0  0  0  0
 31 30  1  0  0  0  0
 32 30  2  0  0  0  0
M  END
>  <MODEL>
5

>  <REMARK>
 VINA RESULT:      -7.2      4.637      9.219
  Name = 
  6 active torsions:
  status: ('A' for Active; 'I' for Inactive)
    1  A    between atoms: C_2  and  C_18
    2  A    between atoms: C_2  and  C_23
    3  A    between atoms: C_8  and  C_19
    4  A    between atoms: C_9  and  C_17
    5  A    between atoms: C_11  and  C_18
    6  A    between atoms: C_12  and  N_32
                            x       y       z     vdW  Elec       q    Type
                         _______ _______ _______ _____ _____    ______ ____

>  <TORSDO>
F 6

$$$$
=
 OpenBabel11062420363D

 32 34  0  0  0  0  0  0  0  0999 V2000
  188.2690  174.7320  142.4090 C   0  0  0  0  0  0  0  0  0  0  0  0
  190.6560  174.7370  142.8840 C   0  0  0  0  0  0  0  0  0  0  0  0
  188.2840  173.3400  142.3620 C   0  0  0  0  0  3  0  0  0  0  0  0
  187.0670  175.4040  142.2210 O   0  0  0  0  0  1  0  0  0  0  0  0
  190.6710  173.3230  142.8300 C   0  0  0  0  0  0  0  0  0  0  0  0
  191.8160  175.4490  143.1780 O   0  0  0  0  0  1  0  0  0  0  0  0
  189.4730  172.6430  142.5660 C   0  0  0  0  0  3  0  0  0  0  0  0
  189.4570  175.4400  142.6520 C   0  0  0  0  0  0  0  0  0  0  0  0
  192.7500  172.4310  142.1140 O   0  0  0  0  0  0  0  0  0  0  0  0
  191.9010  172.5210  143.0440 C   0  0  0  0  0  0  0  0  0  0  0  0
  192.1370  171.8580  144.2970 N   0  0  0  0  0  2  0  0  0  0  0  0
  196.0400  168.3630  146.0070 F   0  0  0  0  0  0  0  0  0  0  0  0
  193.2680  171.0520  144.6530 C   0  0  0  0  0  0  0  0  0  0  0  0
  194.9790  169.2390  146.1290 C   0  0  0  0  0  0  0  0  0  0  0  0
  194.6000  169.2890  147.4570 F   0  0  0  0  0  0  0  0  0  0  0  0
  193.7930  168.7000  145.3020 C   0  0  0  0  0  2  0  0  0  0  0  0
  193.3310  169.6330  144.1730 C   0  0  0  0  0  2  0  0  0  0  0  0
  195.4470  170.6380  145.6960 C   0  0  0  0  0  2  0  0  0  0  0  0
  194.2800  171.5260  145.3850 C   0  0  0  0  0  3  0  0  0  0  0  0
  189.4290  176.9430  142.6880 C   0  0  0  0  0  2  0  0  0  0  0  0
  189.3740  177.4790  144.0890 C   0  0  0  0  0  0  0  0  0  0  0  0
  190.3470  178.2150  144.5150 N   0  0  0  0  0  2  0  0  0  0  0  0
  187.0270  178.0250  144.6270 C   0  0  0  0  0  3  0  0  0  0  0  0
  188.1760  177.2850  144.9350 C   0  0  0  0  0  0  0  0  0  0  0  0
  188.1710  176.4510  146.0880 C   0  0  0  0  0  0  0  0  0  0  0  0
  185.8960  177.1700  146.5800 C   0  0  0  0  0  3  0  0  0  0  0  0
  185.8920  177.9640  145.4360 C   0  0  0  0  0  0  0  0  0  0  0  0
  187.0270  176.4180  146.9000 C   0  0  0  0  0  3  0  0  0  0  0  0
  184.7390  178.7260  145.1020 N   0  0  0  0  0  1  0  0  0  0  0  0
  189.2960  175.5560  146.4490 C   0  0  0  0  0  0  0  0  0  0  0  0
  190.3690  176.0230  147.1960 O   0  0  0  0  0  1  0  0  0  0  0  0
  189.3150  174.3690  146.0300 O   0  0  0  0  0  0  0  0  0  0  0  0
  1  8  1  0  0  0  0
  2  6  1  0  0  0  0
  3  1  2  0  0  0  0
  3  7  1  0  0  0  0
  4  1  1  0  0  0  0
  5  2  1  0  0  0  0
  5 10  1  0  0  0  0
  7  5  2  0  0  0  0
  8 20  1  0  0  0  0
  8  2  2  0  0  0  0
  9 10  2  0  0  0  0
 10 11  1  0  0  0  0
 11 13  1  0  0  0  0
 12 14  1  0  0  0  0
 13 19  2  0  0  0  0
 14 15  1  0  0  0  0
 16 14  1  0  0  0  0
 17 13  1  0  0  0  0
 17 16  1  0  0  0  0
 18 14  1  0  0  0  0
 19 18  1  0  0  0  0
 20 21  1  0  0  0  0
 21 22  2  0  0  0  0
 21 24  1  0  0  0  0
 23 24  2  0  0  0  0
 23 27  1  0  0  0  0
 24 25  1  0  0  0  0
 25 30  1  0  0  0  0
 25 28  2  0  0  0  0
 26 28  1  0  0  0  0
 27 26  2  0  0  0  0
 29 27  1  0  0  0  0
 30 31  1  0  0  0  0
 32 30  2  0  0  0  0
M  END
>  <MODEL>
6

>  <REMARK>
 VINA RESULT:      -7.2      4.463      7.982
  Name = 
  6 active torsions:
  status: ('A' for Active; 'I' for Inactive)
    1  A    between atoms: C_2  and  C_18
    2  A    between atoms: C_2  and  C_23
    3  A    between atoms: C_8  and  C_19
    4  A    between atoms: C_9  and  C_17
    5  A    between atoms: C_11  and  C_18
    6  A    between atoms: C_12  and  N_32
                            x       y       z     vdW  Elec       q    Type
                         _______ _______ _______ _____ _____    ______ ____

>  <TORSDO>
F 6

$$$$
=
 OpenBabel11062420363D

 32 34  0  0  0  0  0  0  0  0999 V2000
  193.3160  174.7090  145.2380 C   0  0  0  0  0  0  0  0  0  0  0  0
  191.4350  175.8600  144.2100 C   0  0  0  0  0  0  0  0  0  0  0  0
  192.7740  174.9530  146.4980 C   0  0  0  0  0  3  0  0  0  0  0  0
  194.5030  173.9930  145.1390 O   0  0  0  0  0  1  0  0  0  0  0  0
  190.8880  176.1140  145.4900 C   0  0  0  0  0  0  0  0  0  0  0  0
  190.7670  176.2700  143.0580 O   0  0  0  0  0  1  0  0  0  0  0  0
  191.5750  175.6530  146.6220 C   0  0  0  0  0  3  0  0  0  0  0  0
  192.6610  175.1750  144.0870 C   0  0  0  0  0  0  0  0  0  0  0  0
  189.6370  177.9960  146.2130 O   0  0  0  0  0  0  0  0  0  0  0  0
  189.6130  176.8460  145.6920 C   0  0  0  0  0  0  0  0  0  0  0  0
  188.3610  176.2640  145.2940 N   0  0  0  0  0  2  0  0  0  0  0  0
  183.6620  179.0950  145.8210 F   0  0  0  0  0  0  0  0  0  0  0  0
  187.0560  176.8430  145.4240 C   0  0  0  0  0  0  0  0  0  0  0  0
  184.9380  178.6810  146.1500 C   0  0  0  0  0  0  0  0  0  0  0  0
  185.3620  179.3970  147.2540 F   0  0  0  0  0  0  0  0  0  0  0  0
  185.8820  178.9970  144.9700 C   0  0  0  0  0  2  0  0  0  0  0  0
  186.5590  177.7660  144.3520 C   0  0  0  0  0  2  0  0  0  0  0  0
  184.8900  177.1900  146.5180 C   0  0  0  0  0  2  0  0  0  0  0  0
  186.2560  176.5740  146.4590 C   0  0  0  0  0  3  0  0  0  0  0  0
  193.2630  174.9140  142.7350 C   0  0  0  0  0  2  0  0  0  0  0  0
  192.9180  173.5510  142.2110 C   0  0  0  0  0  0  0  0  0  0  0  0
  193.8160  172.6230  142.2440 N   0  0  0  0  0  2  0  0  0  0  0  0
  191.1520  173.5910  140.4850 C   0  0  0  0  0  3  0  0  0  0  0  0
  191.5410  173.2230  141.7810 C   0  0  0  0  0  0  0  0  0  0  0  0
  190.5800  172.6320  142.6480 C   0  0  0  0  0  0  0  0  0  0  0  0
  188.8940  172.8460  140.9020 C   0  0  0  0  0  3  0  0  0  0  0  0
  189.8420  173.3990  140.0450 C   0  0  0  0  0  0  0  0  0  0  0  0
  189.2630  172.4640  142.1920 C   0  0  0  0  0  3  0  0  0  0  0  0
  189.4720  173.7830  138.7260 N   0  0  0  0  0  1  0  0  0  0  0  0
  190.9110  172.1190  143.9980 C   0  0  0  0  0  0  0  0  0  0  0  0
  191.7710  171.0420  144.1630 O   0  0  0  0  0  0  0  0  0  0  0  0
  190.3650  172.6260  145.0140 O   0  0  0  0  0  1  0  0  0  0  0  0
  1  3  1  0  0  0  0
  2  5  2  0  0  0  0
  3  7  2  0  0  0  0
  4  1  1  0  0  0  0
  5 10  1  0  0  0  0
  5  7  1  0  0  0  0
  6  2  1  0  0  0  0
  8  2  1  0  0  0  0
  8  1  2  0  0  0  0
 10  9  2  0  0  0  0
 11 13  1  0  0  0  0
 11 10  1  0  0  0  0
 12 14  1  0  0  0  0
 13 19  2  0  0  0  0
 14 18  1  0  0  0  0
 14 15  1  0  0  0  0
 16 14  1  0  0  0  0
 17 16  1  0  0  0  0
 17 13  1  0  0  0  0
 19 18  1  0  0  0  0
 20  8  1  0  0  0  0
 21 22  2  0  0  0  0
 21 20  1  0  0  0  0
 23 24  1  0  0  0  0
 24 21  1  0  0  0  0
 24 25  2  0  0  0  0
 25 30  1  0  0  0  0
 26 28  2  0  0  0  0
 27 23  2  0  0  0  0
 27 26  1  0  0  0  0
 28 25  1  0  0  0  0
 29 27  1  0  0  0  0
 30 31  2  0  0  0  0
 30 32  1  0  0  0  0
M  END
>  <MODEL>
7

>  <REMARK>
 VINA RESULT:      -7.1      2.254      4.782
  Name = 
  6 active torsions:
  status: ('A' for Active; 'I' for Inactive)
    1  A    between atoms: C_2  and  C_18
    2  A    between atoms: C_2  and  C_23
    3  A    between atoms: C_8  and  C_19
    4  A    between atoms: C_9  and  C_17
    5  A    between atoms: C_11  and  C_18
    6  A    between atoms: C_12  and  N_32
                            x       y       z     vdW  Elec       q    Type
                         _______ _______ _______ _____ _____    ______ ____

>  <TORSDO>
F 6

$$$$
=
 OpenBabel11062420363D

 32 34  0  0  0  0  0  0  0  0999 V2000
  193.5920  175.8500  146.1490 C   0  0  0  0  0  0  0  0  0  0  0  0
  191.7670  175.9510  144.5430 C   0  0  0  0  0  0  0  0  0  0  0  0
  192.6740  175.9360  147.1940 C   0  0  0  0  0  3  0  0  0  0  0  0
  194.9450  175.7310  146.4450 O   0  0  0  0  0  1  0  0  0  0  0  0
  190.8360  176.0460  145.6040 C   0  0  0  0  0  0  0  0  0  0  0  0
  191.3350  175.9200  143.2190 O   0  0  0  0  0  1  0  0  0  0  0  0
  191.3110  176.0380  146.9230 C   0  0  0  0  0  3  0  0  0  0  0  0
  193.1470  175.8750  144.8180 C   0  0  0  0  0  0  0  0  0  0  0  0
  188.8010  175.3200  144.6230 O   0  0  0  0  0  0  0  0  0  0  0  0
  189.3710  176.1490  145.3850 C   0  0  0  0  0  0  0  0  0  0  0  0
  188.6020  177.1720  146.0380 N   0  0  0  0  0  2  0  0  0  0  0  0
  183.3090  178.6910  145.8050 F   0  0  0  0  0  0  0  0  0  0  0  0
  187.1900  177.3990  145.9270 C   0  0  0  0  0  0  0  0  0  0  0  0
  184.5570  178.5210  146.3730 C   0  0  0  0  0  0  0  0  0  0  0  0
  184.5450  179.0770  147.6380 F   0  0  0  0  0  0  0  0  0  0  0  0
  185.5970  179.2750  145.5180 C   0  0  0  0  0  2  0  0  0  0  0  0
  186.6890  178.3820  144.9120 C   0  0  0  0  0  2  0  0  0  0  0  0
  184.8380  177.0160  146.4980 C   0  0  0  0  0  2  0  0  0  0  0  0
  186.3010  176.7520  146.6860 C   0  0  0  0  0  3  0  0  0  0  0  0
  194.1490  175.7930  143.7010 C   0  0  0  0  0  2  0  0  0  0  0  0
  194.1940  174.4300  143.0740 C   0  0  0  0  0  0  0  0  0  0  0  0
  194.1860  174.3340  141.7850 N   0  0  0  0  0  2  0  0  0  0  0  0
  195.6340  172.9920  144.4730 C   0  0  0  0  0  3  0  0  0  0  0  0
  194.3750  173.2150  143.8980 C   0  0  0  0  0  0  0  0  0  0  0  0
  193.3600  172.2320  144.0590 C   0  0  0  0  0  0  0  0  0  0  0  0
  194.9210  170.8470  145.3170 C   0  0  0  0  0  3  0  0  0  0  0  0
  195.9050  171.8230  145.1830 C   0  0  0  0  0  0  0  0  0  0  0  0
  193.6580  171.0530  144.7610 C   0  0  0  0  0  3  0  0  0  0  0  0
  197.1920  171.6200  145.7550 N   0  0  0  0  0  1  0  0  0  0  0  0
  191.9710  172.4110  143.5770 C   0  0  0  0  0  0  0  0  0  0  0  0
  190.9430  172.7260  144.4570 O   0  0  0  0  0  1  0  0  0  0  0  0
  191.6970  172.2240  142.3620 O   0  0  0  0  0  0  0  0  0  0  0  0
  1  4  1  0  0  0  0
  1  3  1  0  0  0  0
  2  8  1  0  0  0  0
  2  5  2  0  0  0  0
  5  7  1  0  0  0  0
  6  2  1  0  0  0  0
  7  3  2  0  0  0  0
  8  1  2  0  0  0  0
  9 10  2  0  0  0  0
 10  5  1  0  0  0  0
 10 11  1  0  0  0  0
 12 14  1  0  0  0  0
 13 11  1  0  0  0  0
 13 19  2  0  0  0  0
 14 18  1  0  0  0  0
 14 15  1  0  0  0  0
 16 14  1  0  0  0  0
 17 16  1  0  0  0  0
 17 13  1  0  0  0  0
 18 19  1  0  0  0  0
 20  8  1  0  0  0  0
 21 20  1  0  0  0  0
 21 24  1  0  0  0  0
 22 21  2  0  0  0  0
 23 27  1  0  0  0  0
 24 25  1  0  0  0  0
 24 23  2  0  0  0  0
 25 28  2  0  0  0  0
 27 26  2  0  0  0  0
 27 29  1  0  0  0  0
 28 26  1  0  0  0  0
 30 25  1  0  0  0  0
 30 31  1  0  0  0  0
 32 30  2  0  0  0  0
M  END
>  <MODEL>
8

>  <REMARK>
 VINA RESULT:      -7.1      2.192      4.351
  Name = 
  6 active torsions:
  status: ('A' for Active; 'I' for Inactive)
    1  A    between atoms: C_2  and  C_18
    2  A    between atoms: C_2  and  C_23
    3  A    between atoms: C_8  and  C_19
    4  A    between atoms: C_9  and  C_17
    5  A    between atoms: C_11  and  C_18
    6  A    between atoms: C_12  and  N_32
                            x       y       z     vdW  Elec       q    Type
                         _______ _______ _______ _____ _____    ______ ____

>  <TORSDO>
F 6

$$$$
=
 OpenBabel11062420363D

 32 34  0  0  0  0  0  0  0  0999 V2000
  193.7160  175.3860  146.1890 C   0  0  0  0  0  0  0  0  0  0  0  0
  191.6340  174.4560  145.3410 C   0  0  0  0  0  0  0  0  0  0  0  0
  193.0770  176.6020  146.4200 C   0  0  0  0  0  3  0  0  0  0  0  0
  195.0590  175.2520  146.5240 O   0  0  0  0  0  1  0  0  0  0  0  0
  190.9860  175.6930  145.5700 C   0  0  0  0  0  0  0  0  0  0  0  0
  190.9260  173.3660  144.8400 O   0  0  0  0  0  1  0  0  0  0  0  0
  191.7270  176.7550  146.1090 C   0  0  0  0  0  3  0  0  0  0  0  0
  193.0050  174.3110  145.6310 C   0  0  0  0  0  0  0  0  0  0  0  0
  189.0280  175.3370  144.2790 O   0  0  0  0  0  0  0  0  0  0  0  0
  189.5510  175.9210  145.2680 C   0  0  0  0  0  0  0  0  0  0  0  0
  188.7560  176.7870  146.0930 N   0  0  0  0  0  2  0  0  0  0  0  0
  183.5910  178.6550  145.6270 F   0  0  0  0  0  0  0  0  0  0  0  0
  187.3670  177.1050  145.9310 C   0  0  0  0  0  0  0  0  0  0  0  0
  184.8110  178.4340  146.2380 C   0  0  0  0  0  0  0  0  0  0  0  0
  184.8100  179.0680  147.4660 F   0  0  0  0  0  0  0  0  0  0  0  0
  185.9220  179.0590  145.3660 C   0  0  0  0  0  2  0  0  0  0  0  0
  186.9590  178.0550  144.8450 C   0  0  0  0  0  2  0  0  0  0  0  0
  184.9810  176.9240  146.4610 C   0  0  0  0  0  2  0  0  0  0  0  0
  186.4170  176.5700  146.7040 C   0  0  0  0  0  3  0  0  0  0  0  0
  193.7110  173.0090  145.3760 C   0  0  0  0  0  2  0  0  0  0  0  0
  194.3070  172.9420  144.0010 C   0  0  0  0  0  0  0  0  0  0  0  0
  193.7220  172.2220  143.1000 N   0  0  0  0  0  2  0  0  0  0  0  0
  195.2430  174.8770  142.7850 C   0  0  0  0  0  3  0  0  0  0  0  0
  195.4680  173.7800  143.6290 C   0  0  0  0  0  0  0  0  0  0  0  0
  196.8000  173.4710  144.0190 C   0  0  0  0  0  0  0  0  0  0  0  0
  197.6090  175.3360  142.6760 C   0  0  0  0  0  3  0  0  0  0  0  0
  196.3020  175.6540  142.3170 C   0  0  0  0  0  0  0  0  0  0  0  0
  197.8540  174.2540  143.5220 C   0  0  0  0  0  3  0  0  0  0  0  0
  196.0480  176.7610  141.4610 N   0  0  0  0  0  1  0  0  0  0  0  0
  197.1370  172.3970  144.9810 C   0  0  0  0  0  0  0  0  0  0  0  0
  197.4640  171.1200  144.5430 O   0  0  0  0  0  0  0  0  0  0  0  0
  197.0750  172.6190  146.2190 O   0  0  0  0  0  1  0  0  0  0  0  0
  1  3  1  0  0  0  0
  1  4  1  0  0  0  0
  2  5  2  0  0  0  0
  2  8  1  0  0  0  0
  5  7  1  0  0  0  0
  6  2  1  0  0  0  0
  7  3  2  0  0  0  0
  8  1  2  0  0  0  0
  9 10  2  0  0  0  0
 10  5  1  0  0  0  0
 10 11  1  0  0  0  0
 12 14  1  0  0  0  0
 13 11  1  0  0  0  0
 13 19  2  0  0  0  0
 14 18  1  0  0  0  0
 14 15  1  0  0  0  0
 16 14  1  0  0  0  0
 17 16  1  0  0  0  0
 17 13  1  0  0  0  0
 18 19  1  0  0  0  0
 20  8  1  0  0  0  0
 21 20  1  0  0  0  0
 22 21  2  0  0  0  0
 23 24  1  0  0  0  0
 24 21  1  0  0  0  0
 24 25  2  0  0  0  0
 25 30  1  0  0  0  0
 26 28  2  0  0  0  0
 27 26  1  0  0  0  0
 27 23  2  0  0  0  0
 28 25  1  0  0  0  0
 29 27  1  0  0  0  0
 30 32  1  0  0  0  0
 31 30  2  0  0  0  0
M  END
>  <MODEL>
9

>  <REMARK>
 VINA RESULT:      -7.1      2.388      4.010
  Name = 
  6 active torsions:
  status: ('A' for Active; 'I' for Inactive)
    1  A    between atoms: C_2  and  C_18
    2  A    between atoms: C_2  and  C_23
    3  A    between atoms: C_8  and  C_19
    4  A    between atoms: C_9  and  C_17
    5  A    between atoms: C_11  and  C_18
    6  A    between atoms: C_12  and  N_32
                            x       y       z     vdW  Elec       q    Type
                         _______ _______ _______ _____ _____    ______ ____

>  <TORSDO>
F 6

$$$$
