=
 OpenBabel11062420503D

 50 54  0  0  1  0  0  0  0  0999 V2000
  190.4480  172.7610  141.5590 C   0  0  1  0  0  3  0  0  0  0  0  0
  188.8900  173.4970  143.2250 O   0  0  0  0  0  1  0  0  0  0  0  0
  189.5340  173.8810  142.0470 C   0  0  1  0  0  3  0  0  0  0  0  0
  190.3640  175.1440  142.2930 C   0  0  0  0  0  2  0  0  0  0  0  0
  189.0550  177.8830  142.2230 C   0  0  0  0  0  2  0  0  0  0  0  0
  189.7390  177.3410  143.4550 C   0  0  2  0  0  0  0  0  0  0  0  0
  190.7100  178.2130  144.1950 C   0  0  0  0  0  2  0  0  0  0  0  0
  190.0600  175.8640  143.6140 C   0  0  2  0  0  3  0  0  0  0  0  0
  191.2460  175.8380  144.5720 C   0  0  0  0  0  2  0  0  0  0  0  0
  188.2840  177.8000  143.5390 C   0  0  2  0  0  3  0  0  0  0  0  0
  191.4060  177.2480  145.1410 C   0  0  0  0  0  2  0  0  0  0  0  0
  186.7200  176.4550  144.9390 C   0  0  0  0  0  2  0  0  0  0  0  0
  187.2680  176.6460  143.5090 C   0  0  1  0  0  3  0  0  0  0  0  0
  185.2080  176.6960  145.0760 C   0  0  0  0  0  2  0  0  0  0  0  0
  185.3020  178.1260  142.9570 C   0  0  2  0  0  3  0  0  0  0  0  0
  187.4760  176.3470  140.6070 O   0  0  0  0  0  0  0  0  0  0  0  0
  186.4930  176.9870  141.0650 C   0  0  0  0  0  0  0  0  0  0  0  0
  184.2320  178.4930  141.9680 C   0  0  0  0  0  2  0  0  0  0  0  0
  186.1170  176.9000  142.5190 C   0  0  1  0  0  3  0  0  0  0  0  0
  185.6200  177.6850  140.1720 N   0  0  0  0  0  0  0  0  0  0  0  0
  184.4310  178.3240  140.6580 C   0  0  0  0  0  3  0  0  0  0  0  0
  184.7470  177.9980  144.3880 C   0  0  2  0  0  3  0  0  0  0  0  0
  185.1200  179.2270  145.2240 C   0  0  2  0  0  3  0  0  0  0  0  0
  185.9510  180.0800  144.4940 O   0  0  0  0  0  1  0  0  0  0  0  0
  185.8380  178.8200  146.4970 C   0  0  0  0  0  1  0  0  0  0  0  0
  190.3670  171.6540  142.4080 O   0  0  0  0  0  0  0  0  0  0  0  0
  191.3190  171.6690  144.4770 F   0  0  0  0  0  0  0  0  0  0  0  0
  191.5720  171.6540  143.1170 C   0  0  1  0  0  3  0  0  0  0  0  0
  192.3920  170.4280  142.7560 C   0  0  0  0  0  2  0  0  0  0  0  0
  193.3690  170.1880  143.7220 O   0  0  0  0  0  0  0  0  0  0  0  0
  194.4990  170.8690  143.2690 C   0  0  0  0  0  2  0  0  0  0  0  0
  196.4850  173.8260  145.8650 C   0  0  0  0  0  3  0  0  0  0  0  0
  195.1340  171.5630  144.3800 N   0  0  0  0  0  0  0  0  0  0  0  0
  194.3410  171.7760  145.5860 C   0  0  0  0  0  2  0  0  0  0  0  0
  197.1330  172.7650  145.3780 C   0  0  0  0  0  3  0  0  0  0  0  0
  193.9980  173.2520  145.7930 C   0  0  0  0  0  2  0  0  0  0  0  0
  195.1150  174.2290  145.4010 C   0  0  1  0  0  3  0  0  0  0  0  0
  196.5510  171.8270  144.4010 C   0  0  0  0  0  0  0  0  0  0  0  0
  197.5820  170.9660  143.4590 S   0  0  0  0  0  0  0  0  0  0  0  0
  194.7730  175.6610  145.8120 C   0  0  0  0  0  2  0  0  0  0  0  0
  195.0520  176.6850  144.7140 C   0  0  0  0  0  2  0  0  0  0  0  0
  193.9080  176.3030  142.6500 O   0  0  0  0  0  1  0  0  0  0  0  0
  195.0860  176.0260  143.3470 C   0  0  1  0  0  3  0  0  0  0  0  0
  196.2750  176.5130  141.3220 O   0  0  0  0  0  0  0  0  0  0  0  0
  196.2780  176.5020  142.5820 C   0  0  0  0  0  0  0  0  0  0  0  0
  197.3780  176.9950  143.2690 O   0  0  0  0  0  1  0  0  0  0  0  0
  190.0470  172.3450  140.1490 C   0  0  0  0  0  2  0  0  0  0  0  0
  190.4300  173.3470  139.2100 O   0  0  0  0  0  0  0  0  0  0  0  0
  189.6600  173.6750  138.1080 N   0  0  0  0  0  0  0  0  0  0  0  0
  189.2500  172.7990  137.2470 C   0  0  0  0  0  2  0  0  0  0  0  0
  1 47  1  6  0  0  0
  1  3  1  0  0  0  0
  1 26  1  0  0  0  0
  3  4  1  0  0  0  0
  3  2  1  1  0  0  0
  6  5  1  6  0  0  0
  6 10  1  0  0  0  0
  6  8  1  0  0  0  0
  6  7  1  0  0  0  0
  7 11  1  0  0  0  0
  8  4  1  6  0  0  0
  8  9  1  0  0  0  0
  9 11  1  0  0  0  0
 10  5  1  6  0  0  0
 12 14  1  0  0  0  0
 13 10  1  0  0  0  0
 13 12  1  1  0  0  0
 15 18  1  6  0  0  0
 15 22  1  0  0  0  0
 16 17  2  0  0  0  0
 19 17  1  6  0  0  0
 19 15  1  0  0  0  0
 19 13  1  0  0  0  0
 20 21  2  0  0  0  0
 20 17  1  0  0  0  0
 21 18  1  0  0  0  0
 22 14  1  0  0  0  0
 22 23  1  1  0  0  0
 23 25  1  1  0  0  0
 24 23  1  0  0  0  0
 26 28  1  0  0  0  0
 28 27  1  1  0  0  0
 29 28  1  0  0  0  0
 29 30  1  0  0  0  0
 31 30  1  0  0  0  0
 31 33  1  0  0  0  0
 33 38  1  0  0  0  0
 33 34  1  0  0  0  0
 34 36  1  0  0  0  0
 35 32  2  0  0  0  0
 37 36  1  0  0  0  0
 37 40  1  1  0  0  0
 37 32  1  0  0  0  0
 38 35  1  0  0  0  0
 39 38  2  0  0  0  0
 41 40  1  0  0  0  0
 43 42  1  6  0  0  0
 43 41  1  0  0  0  0
 44 45  2  0  0  0  0
 45 46  1  0  0  0  0
 45 43  1  0  0  0  0
 48 47  1  0  0  0  0
 49 48  1  0  0  0  0
 50 49  2  0  0  0  0
M  END
>  <MODEL>
1

>  <REMARK>
 VINA RESULT:      -7.1      0.000      0.000
  Name = 
  18 active torsions:
  status: ('A' for Active; 'I' for Inactive)
    1  A    between atoms: C_4  and  C_7
    2  A    between atoms: C_4  and  C_43
    3  A    between atoms: C_4  and  O_44
    4  A    between atoms: O_5  and  C_15
    5  A    between atoms: O_5  and  C_36
    6  A    between atoms: C_6  and  C_48
    7  A    between atoms: C_7  and  O_45
    8  A    between atoms: C_9  and  C_40
    9  A    between atoms: C_11  and  C_25
   10  A    between atoms: C_11  and  C_29
   11  A    between atoms: N_12  and  C_36
   12  A    between atoms: C_15  and  C_39
   13  A    between atoms: C_21  and  C_49
   14  A    between atoms: C_23  and  C_25
   15  A    between atoms: C_29  and  C_34
   16  A    between atoms: N_33  and  O_45
   17  A    between atoms: C_39  and  O_44
   18  A    between atoms: C_43  and  C_49
                            x       y       z     vdW  Elec       q    Type
                         _______ _______ _______ _____ _____    ______ ____

>  <TORSDO>
F 18

$$$$
=
 OpenBabel11062420503D

 50 54  0  0  1  0  0  0  0  0999 V2000
  194.7560  175.2570  144.8600 C   0  0  1  0  0  3  0  0  0  0  0  0
  193.2290  176.6750  146.0420 O   0  0  0  0  0  1  0  0  0  0  0  0
  193.8590  175.4300  146.0820 C   0  0  1  0  0  3  0  0  0  0  0  0
  192.8110  174.3140  146.1070 C   0  0  0  0  0  2  0  0  0  0  0  0
  189.7770  174.2110  146.1610 C   0  0  0  0  0  2  0  0  0  0  0  0
  190.5850  173.7420  144.9750 C   0  0  2  0  0  0  0  0  0  0  0  0
  190.2670  172.4130  144.3550 C   0  0  0  0  0  2  0  0  0  0  0  0
  192.0440  174.1250  144.7910 C   0  0  2  0  0  3  0  0  0  0  0  0
  192.6240  173.0000  143.9410 C   0  0  0  0  0  2  0  0  0  0  0  0
  189.5050  174.8050  144.7810 C   0  0  2  0  0  3  0  0  0  0  0  0
  191.4530  172.1550  143.4390 C   0  0  0  0  0  2  0  0  0  0  0  0
  190.6280  176.4290  143.2580 C   0  0  0  0  0  2  0  0  0  0  0  0
  190.0570  176.2360  144.6790 C   0  0  1  0  0  3  0  0  0  0  0  0
  189.9230  177.5190  142.4340 C   0  0  0  0  0  2  0  0  0  0  0  0
  187.8680  177.2420  143.9330 C   0  0  2  0  0  3  0  0  0  0  0  0
  189.1230  176.9400  147.3600 O   0  0  0  0  0  0  0  0  0  0  0  0
  188.4280  177.3110  146.3770 C   0  0  0  0  0  0  0  0  0  0  0  0
  186.7380  178.1830  144.2390 C   0  0  0  0  0  3  0  0  0  0  0  0
  188.9880  177.3030  144.9810 C   0  0  1  0  0  3  0  0  0  0  0  0
  187.1420  177.8970  146.5960 N   0  0  0  0  0  2  0  0  0  0  0  0
  186.3840  178.4310  145.5030 C   0  0  0  0  0  3  0  0  0  0  0  0
  188.3850  177.4080  142.4910 C   0  0  2  0  0  3  0  0  0  0  0  0
  187.8790  176.2670  141.6020 C   0  0  2  0  0  3  0  0  0  0  0  0
  187.0280  176.7600  140.6110 O   0  0  0  0  0  1  0  0  0  0  0  0
  187.1260  175.2340  142.4200 C   0  0  0  0  0  1  0  0  0  0  0  0
  194.7940  176.4330  144.1060 O   0  0  0  0  0  0  0  0  0  0  0  0
  193.5440  176.6000  142.2090 F   0  0  0  0  0  0  0  0  0  0  0  0
  194.6610  176.0150  142.7780 C   0  0  1  0  0  3  0  0  0  0  0  0
  195.9020  176.3900  141.9860 C   0  0  0  0  0  2  0  0  0  0  0  0
  196.7910  175.3160  141.9290 O   0  0  0  0  0  0  0  0  0  0  0  0
  196.9690  175.0680  140.5680 C   0  0  0  0  0  2  0  0  0  0  0  0
  193.5000  172.3750  140.2050 C   0  0  0  0  0  3  0  0  0  0  0  0
  195.9790  174.1040  140.1090 N   0  0  0  0  0  0  0  0  0  0  0  0
  195.2190  174.4350  138.9100 C   0  0  0  0  0  2  0  0  0  0  0  0
  194.7360  171.9110  140.3990 C   0  0  0  0  0  3  0  0  0  0  0  0
  193.7490  174.7180  139.2240 C   0  0  0  0  0  2  0  0  0  0  0  0
  193.1460  173.8300  140.3200 C   0  0  1  0  0  3  0  0  0  0  0  0
  195.9030  172.7730  140.6600 C   0  0  0  0  0  0  0  0  0  0  0  0
  197.1810  172.1140  141.4480 S   0  0  0  0  0  0  0  0  0  0  0  0
  191.6370  174.0410  140.4420 C   0  0  0  0  0  2  0  0  0  0  0  0
  190.8190  172.8900  139.8600 C   0  0  0  0  0  2  0  0  0  0  0  0
  190.3100  172.3800  137.5800 O   0  0  0  0  0  1  0  0  0  0  0  0
  190.0990  173.3170  138.5930 C   0  0  1  0  0  3  0  0  0  0  0  0
  188.0190  172.6450  139.5800 O   0  0  0  0  0  1  0  0  0  0  0  0
  188.6390  173.4780  138.8680 C   0  0  0  0  0  0  0  0  0  0  0  0
  187.9720  174.5950  138.3820 O   0  0  0  0  0  0  0  0  0  0  0  0
  196.1680  174.8960  145.3030 C   0  0  0  0  0  2  0  0  0  0  0  0
  196.1500  173.7110  146.0970 O   0  0  0  0  0  0  0  0  0  0  0  0
  196.6210  172.4930  145.6390 N   0  0  0  0  0  0  0  0  0  0  0  0
  195.8540  171.4670  145.4490 C   0  0  0  0  0  2  0  0  0  0  0  0
  1 47  1  1  0  0  0
  1  3  1  0  0  0  0
  3  2  1  6  0  0  0
  3  4  1  0  0  0  0
  6  7  1  6  0  0  0
  6  5  1  0  0  0  0
  8  6  1  0  0  0  0
  8  4  1  1  0  0  0
  9  8  1  0  0  0  0
 10  6  1  0  0  0  0
 10  5  1  1  0  0  0
 11  9  1  0  0  0  0
 11  7  1  0  0  0  0
 13 12  1  6  0  0  0
 13 10  1  0  0  0  0
 13 19  1  0  0  0  0
 14 22  1  0  0  0  0
 14 12  1  0  0  0  0
 15 18  1  1  0  0  0
 15 19  1  0  0  0  0
 17 20  1  0  0  0  0
 17 16  2  0  0  0  0
 18 21  2  0  0  0  0
 19 17  1  1  0  0  0
 21 20  1  0  0  0  0
 22 23  1  6  0  0  0
 22 15  1  0  0  0  0
 23 25  1  1  0  0  0
 24 23  1  0  0  0  0
 26  1  1  0  0  0  0
 28 27  1  6  0  0  0
 28 26  1  0  0  0  0
 29 28  1  0  0  0  0
 30 29  1  0  0  0  0
 31 30  1  0  0  0  0
 32 37  1  0  0  0  0
 32 35  2  0  0  0  0
 33 31  1  0  0  0  0
 33 38  1  0  0  0  0
 34 36  1  0  0  0  0
 34 33  1  0  0  0  0
 35 38  1  0  0  0  0
 36 37  1  0  0  0  0
 37 40  1  6  0  0  0
 38 39  2  0  0  0  0
 41 40  1  0  0  0  0
 43 42  1  6  0  0  0
 43 45  1  0  0  0  0
 43 41  1  0  0  0  0
 45 44  1  0  0  0  0
 46 45  2  0  0  0  0
 47 48  1  0  0  0  0
 49 48  1  0  0  0  0
 50 49  2  0  0  0  0
M  END
>  <MODEL>
2

>  <REMARK>
 VINA RESULT:      -6.8      2.671      6.257
  Name = 
  18 active torsions:
  status: ('A' for Active; 'I' for Inactive)
    1  A    between atoms: C_4  and  C_7
    2  A    between atoms: C_4  and  C_43
    3  A    between atoms: C_4  and  O_44
    4  A    between atoms: O_5  and  C_15
    5  A    between atoms: O_5  and  C_36
    6  A    between atoms: C_6  and  C_48
    7  A    between atoms: C_7  and  O_45
    8  A    between atoms: C_9  and  C_40
    9  A    between atoms: C_11  and  C_25
   10  A    between atoms: C_11  and  C_29
   11  A    between atoms: N_12  and  C_36
   12  A    between atoms: C_15  and  C_39
   13  A    between atoms: C_21  and  C_49
   14  A    between atoms: C_23  and  C_25
   15  A    between atoms: C_29  and  C_34
   16  A    between atoms: N_33  and  O_45
   17  A    between atoms: C_39  and  O_44
   18  A    between atoms: C_43  and  C_49
                            x       y       z     vdW  Elec       q    Type
                         _______ _______ _______ _____ _____    ______ ____

>  <TORSDO>
F 18

$$$$
=
 OpenBabel11062420503D

 50 54  0  0  1  0  0  0  0  0999 V2000
  190.3290  172.9050  141.5570 C   0  0  1  0  0  3  0  0  0  0  0  0
  189.0600  173.4440  143.5170 O   0  0  0  0  0  1  0  0  0  0  0  0
  189.4220  173.9150  142.2540 C   0  0  1  0  0  3  0  0  0  0  0  0
  190.1550  175.2520  142.3840 C   0  0  0  0  0  2  0  0  0  0  0  0
  188.7740  177.9500  142.5820 C   0  0  0  0  0  2  0  0  0  0  0  0
  189.6390  177.3960  143.6890 C   0  0  2  0  0  0  0  0  0  0  0  0
  190.6790  178.2790  144.3140 C   0  0  0  0  0  2  0  0  0  0  0  0
  190.0210  175.9270  143.7560 C   0  0  2  0  0  3  0  0  0  0  0  0
  191.3290  175.9130  144.5380 C   0  0  0  0  0  2  0  0  0  0  0  0
  188.1970  177.8070  143.9890 C   0  0  2  0  0  3  0  0  0  0  0  0
  191.5280  177.3120  145.1240 C   0  0  0  0  0  2  0  0  0  0  0  0
  186.8620  176.3940  145.5500 C   0  0  0  0  0  2  0  0  0  0  0  0
  187.2210  176.6220  144.0660 C   0  0  1  0  0  3  0  0  0  0  0  0
  185.3730  176.5850  145.8790 C   0  0  0  0  0  2  0  0  0  0  0  0
  185.1580  178.0480  143.7900 C   0  0  2  0  0  3  0  0  0  0  0  0
  187.0710  176.3720  141.1560 O   0  0  0  0  0  0  0  0  0  0  0  0
  186.1350  176.9740  141.7440 C   0  0  0  0  0  0  0  0  0  0  0  0
  183.9630  178.3950  142.9490 C   0  0  0  0  0  2  0  0  0  0  0  0
  185.9470  176.8540  143.2320 C   0  0  1  0  0  3  0  0  0  0  0  0
  185.1380  177.6570  140.9810 N   0  0  0  0  0  0  0  0  0  0  0  0
  184.0010  178.2510  141.6220 C   0  0  0  0  0  3  0  0  0  0  0  0
  184.7910  177.8820  145.2770 C   0  0  2  0  0  3  0  0  0  0  0  0
  185.2300  179.1100  146.0820 C   0  0  2  0  0  3  0  0  0  0  0  0
  186.1450  179.8710  145.3510 O   0  0  0  0  0  1  0  0  0  0  0  0
  185.8760  178.6980  147.3920 C   0  0  0  0  0  1  0  0  0  0  0  0
  190.6850  171.8760  142.4340 O   0  0  0  0  0  0  0  0  0  0  0  0
  192.5430  173.0920  141.9270 F   0  0  0  0  0  0  0  0  0  0  0  0
  192.0820  171.9150  142.4880 C   0  0  1  0  0  3  0  0  0  0  0  0
  192.5520  171.8070  143.9280 C   0  0  0  0  0  2  0  0  0  0  0  0
  192.9630  173.0520  144.4040 O   0  0  0  0  0  0  0  0  0  0  0  0
  193.8210  172.7650  145.4670 C   0  0  0  0  0  2  0  0  0  0  0  0
  197.3650  174.9660  144.0490 C   0  0  0  0  0  3  0  0  0  0  0  0
  195.0200  173.5840  145.3670 N   0  0  0  0  0  0  0  0  0  0  0  0
  194.9110  174.9900  145.7390 C   0  0  0  0  0  2  0  0  0  0  0  0
  197.4710  173.8420  144.7620 C   0  0  0  0  0  3  0  0  0  0  0  0
  195.0440  175.9150  144.5270 C   0  0  0  0  0  2  0  0  0  0  0  0
  196.0640  175.4530  143.4780 C   0  0  1  0  0  3  0  0  0  0  0  0
  196.3200  173.0020  145.1410 C   0  0  0  0  0  0  0  0  0  0  0  0
  196.6020  171.4190  145.4650 S   0  0  0  0  0  0  0  0  0  0  0  0
  196.2770  176.5150  142.4010 C   0  0  0  0  0  2  0  0  0  0  0  0
  196.8580  175.9510  141.1060 C   0  0  0  0  0  2  0  0  0  0  0  0
  194.6160  175.8600  140.2790 O   0  0  0  0  0  1  0  0  0  0  0  0
  195.8170  175.1510  140.3430 C   0  0  1  0  0  3  0  0  0  0  0  0
  195.7130  174.0210  138.2300 O   0  0  0  0  0  0  0  0  0  0  0  0
  196.3210  174.8380  138.9710 C   0  0  0  0  0  0  0  0  0  0  0  0
  197.4370  175.5050  138.4850 O   0  0  0  0  0  1  0  0  0  0  0  0
  189.6120  172.3130  140.3500 C   0  0  0  0  0  2  0  0  0  0  0  0
  188.4510  173.0810  140.0380 O   0  0  0  0  0  0  0  0  0  0  0  0
  188.3150  173.7890  138.8570 N   0  0  0  0  0  0  0  0  0  0  0  0
  189.2350  173.8250  137.9470 C   0  0  0  0  0  2  0  0  0  0  0  0
  1 47  1  6  0  0  0
  1  3  1  0  0  0  0
  1 26  1  0  0  0  0
  3  4  1  0  0  0  0
  3  2  1  1  0  0  0
  6  5  1  6  0  0  0
  6  8  1  0  0  0  0
  6 10  1  0  0  0  0
  6  7  1  0  0  0  0
  7 11  1  0  0  0  0
  8  4  1  6  0  0  0
  8  9  1  0  0  0  0
  9 11  1  0  0  0  0
 10  5  1  6  0  0  0
 10 13  1  0  0  0  0
 12 14  1  0  0  0  0
 13 12  1  1  0  0  0
 15 18  1  6  0  0  0
 15 22  1  0  0  0  0
 16 17  2  0  0  0  0
 19 17  1  6  0  0  0
 19 15  1  0  0  0  0
 19 13  1  0  0  0  0
 20 21  2  0  0  0  0
 20 17  1  0  0  0  0
 21 18  1  0  0  0  0
 22 14  1  0  0  0  0
 22 23  1  1  0  0  0
 23 25  1  1  0  0  0
 24 23  1  0  0  0  0
 26 28  1  0  0  0  0
 28 27  1  1  0  0  0
 28 29  1  0  0  0  0
 29 30  1  0  0  0  0
 30 31  1  0  0  0  0
 32 35  2  0  0  0  0
 33 31  1  0  0  0  0
 33 34  1  0  0  0  0
 35 38  1  0  0  0  0
 36 34  1  0  0  0  0
 37 40  1  6  0  0  0
 37 32  1  0  0  0  0
 37 36  1  0  0  0  0
 38 33  1  0  0  0  0
 38 39  2  0  0  0  0
 41 40  1  0  0  0  0
 43 42  1  6  0  0  0
 43 41  1  0  0  0  0
 44 45  2  0  0  0  0
 45 43  1  0  0  0  0
 46 45  1  0  0  0  0
 48 47  1  0  0  0  0
 49 48  1  0  0  0  0
 50 49  2  0  0  0  0
M  END
>  <MODEL>
3

>  <REMARK>
 VINA RESULT:      -6.8      1.530      2.012
  Name = 
  18 active torsions:
  status: ('A' for Active; 'I' for Inactive)
    1  A    between atoms: C_4  and  C_7
    2  A    between atoms: C_4  and  C_43
    3  A    between atoms: C_4  and  O_44
    4  A    between atoms: O_5  and  C_15
    5  A    between atoms: O_5  and  C_36
    6  A    between atoms: C_6  and  C_48
    7  A    between atoms: C_7  and  O_45
    8  A    between atoms: C_9  and  C_40
    9  A    between atoms: C_11  and  C_25
   10  A    between atoms: C_11  and  C_29
   11  A    between atoms: N_12  and  C_36
   12  A    between atoms: C_15  and  C_39
   13  A    between atoms: C_21  and  C_49
   14  A    between atoms: C_23  and  C_25
   15  A    between atoms: C_29  and  C_34
   16  A    between atoms: N_33  and  O_45
   17  A    between atoms: C_39  and  O_44
   18  A    between atoms: C_43  and  C_49
                            x       y       z     vdW  Elec       q    Type
                         _______ _______ _______ _____ _____    ______ ____

>  <TORSDO>
F 18

$$$$
=
 OpenBabel11062420503D

 50 54  0  0  1  0  0  0  0  0999 V2000
  187.1070  176.5370  142.8260 C   0  0  1  0  0  3  0  0  0  0  0  0
  188.9870  177.9920  143.1270 O   0  0  0  0  0  1  0  0  0  0  0  0
  188.5260  176.6960  143.3640 C   0  0  1  0  0  3  0  0  0  0  0  0
  188.5370  176.4040  144.8670 C   0  0  0  0  0  2  0  0  0  0  0  0
  189.7570  173.7490  145.6960 C   0  0  0  0  0  2  0  0  0  0  0  0
  190.2850  175.0760  146.1880 C   0  0  2  0  0  0  0  0  0  0  0  0
  190.5550  175.2550  147.6530 C   0  0  0  0  0  2  0  0  0  0  0  0
  189.9320  176.3870  145.5070 C   0  0  2  0  0  3  0  0  0  0  0  0
  190.0760  177.4330  146.6060 C   0  0  0  0  0  2  0  0  0  0  0  0
  191.2290  174.1000  145.4850 C   0  0  2  0  0  3  0  0  0  0  0  0
  190.7540  176.7550  147.7980 C   0  0  0  0  0  2  0  0  0  0  0  0
  192.1900  175.8400  143.9800 C   0  0  0  0  0  2  0  0  0  0  0  0
  191.5050  174.4570  144.0160 C   0  0  1  0  0  3  0  0  0  0  0  0
  193.6100  175.8280  143.3920 C   0  0  0  0  0  2  0  0  0  0  0  0
  193.7640  173.3390  143.9610 C   0  0  2  0  0  3  0  0  0  0  0  0
  190.5350  171.8710  143.0560 O   0  0  0  0  0  0  0  0  0  0  0  0
  191.7790  172.0310  143.1610 C   0  0  0  0  0  0  0  0  0  0  0  0
  194.6230  172.2480  143.3860 C   0  0  0  0  0  2  0  0  0  0  0  0
  192.3760  173.4040  143.3080 C   0  0  1  0  0  3  0  0  0  0  0  0
  192.6570  170.9170  142.9830 N   0  0  0  0  0  0  0  0  0  0  0  0
  194.0800  171.0970  142.9830 C   0  0  0  0  0  3  0  0  0  0  0  0
  194.4870  174.6990  143.9720 C   0  0  2  0  0  3  0  0  0  0  0  0
  194.9680  175.0440  145.3860 C   0  0  2  0  0  3  0  0  0  0  0  0
  195.1920  176.4160  145.5040 O   0  0  0  0  0  1  0  0  0  0  0  0
  196.2560  174.3100  145.7150 C   0  0  0  0  0  1  0  0  0  0  0  0
  186.9420  175.2810  142.2360 O   0  0  0  0  0  0  0  0  0  0  0  0
  188.6300  173.7700  142.4710 F   0  0  0  0  0  0  0  0  0  0  0  0
  188.2200  174.9120  141.8070 C   0  0  1  0  0  3  0  0  0  0  0  0
  188.2180  174.6670  140.3080 C   0  0  0  0  0  2  0  0  0  0  0  0
  188.5660  173.3460  140.0260 O   0  0  0  0  0  0  0  0  0  0  0  0
  188.5960  173.2710  138.6330 C   0  0  0  0  0  2  0  0  0  0  0  0
  192.8590  173.9730  137.7660 C   0  0  0  0  0  3  0  0  0  0  0  0
  189.9740  173.1640  138.1760 N   0  0  0  0  0  0  0  0  0  0  0  0
  190.7720  172.0570  138.6890 C   0  0  0  0  0  2  0  0  0  0  0  0
  191.9230  174.0560  136.8180 C   0  0  0  0  0  3  0  0  0  0  0  0
  191.8760  172.5370  139.6340 C   0  0  0  0  0  2  0  0  0  0  0  0
  192.5340  173.8620  139.2280 C   0  0  1  0  0  3  0  0  0  0  0  0
  190.4760  173.9630  137.0850 C   0  0  0  0  0  0  0  0  0  0  0  0
  189.4530  174.6530  136.0050 S   0  0  0  0  0  0  0  0  0  0  0  0
  193.7450  174.1760  140.1060 C   0  0  0  0  0  2  0  0  0  0  0  0
  194.5670  175.3580  139.5970 C   0  0  0  0  0  2  0  0  0  0  0  0
  196.6450  175.3570  138.4140 O   0  0  0  0  0  1  0  0  0  0  0  0
  196.0530  175.0510  139.6410 C   0  0  1  0  0  3  0  0  0  0  0  0
  197.8210  175.4760  141.2050 O   0  0  0  0  0  0  0  0  0  0  0  0
  196.7000  175.8210  140.7470 C   0  0  0  0  0  0  0  0  0  0  0  0
  196.0850  176.9660  141.2310 O   0  0  0  0  0  1  0  0  0  0  0  0
  186.1030  176.6970  143.9600 C   0  0  0  0  0  2  0  0  0  0  0  0
  185.4010  177.9310  143.8290 O   0  0  0  0  0  0  0  0  0  0  0  0
  185.1610  178.5320  142.6060 N   0  0  0  0  0  0  0  0  0  0  0  0
  184.1540  178.2230  141.8540 C   0  0  0  0  0  2  0  0  0  0  0  0
  1  3  1  0  0  0  0
  1 47  1  1  0  0  0
  3  2  1  1  0  0  0
  3  4  1  0  0  0  0
  6  5  1  6  0  0  0
  6  7  1  0  0  0  0
  7 11  1  0  0  0  0
  8  4  1  1  0  0  0
  8  6  1  0  0  0  0
  8  9  1  0  0  0  0
  9 11  1  0  0  0  0
 10  5  1  6  0  0  0
 10  6  1  0  0  0  0
 13 12  1  1  0  0  0
 13 10  1  0  0  0  0
 14 22  1  0  0  0  0
 14 12  1  0  0  0  0
 15 18  1  6  0  0  0
 15 22  1  0  0  0  0
 16 17  2  0  0  0  0
 19 17  1  1  0  0  0
 19 15  1  0  0  0  0
 19 13  1  0  0  0  0
 20 17  1  0  0  0  0
 21 20  2  0  0  0  0
 21 18  1  0  0  0  0
 22 23  1  1  0  0  0
 23 24  1  0  0  0  0
 23 25  1  6  0  0  0
 26  1  1  0  0  0  0
 28 26  1  0  0  0  0
 28 27  1  1  0  0  0
 29 28  1  0  0  0  0
 30 29  1  0  0  0  0
 31 30  1  0  0  0  0
 32 37  1  0  0  0  0
 33 31  1  0  0  0  0
 33 34  1  0  0  0  0
 34 36  1  0  0  0  0
 35 38  1  0  0  0  0
 35 32  2  0  0  0  0
 37 36  1  0  0  0  0
 37 40  1  1  0  0  0
 38 33  1  0  0  0  0
 39 38  2  0  0  0  0
 41 43  1  0  0  0  0
 41 40  1  0  0  0  0
 43 42  1  6  0  0  0
 43 45  1  0  0  0  0
 45 44  2  0  0  0  0
 45 46  1  0  0  0  0
 48 47  1  0  0  0  0
 49 48  1  0  0  0  0
 50 49  2  0  0  0  0
M  END
>  <MODEL>
4

>  <REMARK>
 VINA RESULT:      -6.4      2.748      7.235
  Name = 
  18 active torsions:
  status: ('A' for Active; 'I' for Inactive)
    1  A    between atoms: C_4  and  C_7
    2  A    between atoms: C_4  and  C_43
    3  A    between atoms: C_4  and  O_44
    4  A    between atoms: O_5  and  C_15
    5  A    between atoms: O_5  and  C_36
    6  A    between atoms: C_6  and  C_48
    7  A    between atoms: C_7  and  O_45
    8  A    between atoms: C_9  and  C_40
    9  A    between atoms: C_11  and  C_25
   10  A    between atoms: C_11  and  C_29
   11  A    between atoms: N_12  and  C_36
   12  A    between atoms: C_15  and  C_39
   13  A    between atoms: C_21  and  C_49
   14  A    between atoms: C_23  and  C_25
   15  A    between atoms: C_29  and  C_34
   16  A    between atoms: N_33  and  O_45
   17  A    between atoms: C_39  and  O_44
   18  A    between atoms: C_43  and  C_49
                            x       y       z     vdW  Elec       q    Type
                         _______ _______ _______ _____ _____    ______ ____

>  <TORSDO>
F 18

$$$$
=
 OpenBabel11062420503D

 50 54  0  0  1  0  0  0  0  0999 V2000
  192.3510  176.4910  146.0900 C   0  0  1  0  0  3  0  0  0  0  0  0
  194.4590  177.4850  146.6470 O   0  0  0  0  0  1  0  0  0  0  0  0
  193.8620  176.4850  145.8780 C   0  0  1  0  0  3  0  0  0  0  0  0
  194.4260  175.1170  146.2690 C   0  0  0  0  0  2  0  0  0  0  0  0
  193.1860  172.6670  144.9710 C   0  0  0  0  0  2  0  0  0  0  0  0
  194.6490  173.0100  144.8270 C   0  0  2  0  0  0  0  0  0  0  0  0
  195.6760  171.9380  145.0480 C   0  0  0  0  0  2  0  0  0  0  0  0
  195.1890  174.3930  145.1500 C   0  0  2  0  0  3  0  0  0  0  0  0
  196.6510  174.1530  145.5100 C   0  0  0  0  0  2  0  0  0  0  0  0
  193.7910  172.8180  143.5770 C   0  0  2  0  0  3  0  0  0  0  0  0
  196.9830  172.7090  145.1330 C   0  0  0  0  0  2  0  0  0  0  0  0
  194.5650  174.7440  142.1970 C   0  0  0  0  0  2  0  0  0  0  0  0
  193.3460  174.1360  142.9240 C   0  0  1  0  0  3  0  0  0  0  0  0
  194.3920  174.8820  140.6760 C   0  0  0  0  0  2  0  0  0  0  0  0
  192.6080  173.0510  140.7700 C   0  0  2  0  0  3  0  0  0  0  0  0
  190.5580  173.7570  143.7210 O   0  0  0  0  0  0  0  0  0  0  0  0
  190.8780  173.4650  142.5380 C   0  0  0  0  0  0  0  0  0  0  0  0
  191.4740  172.7300  139.8380 C   0  0  0  0  0  3  0  0  0  0  0  0
  192.1750  173.9410  141.9440 C   0  0  1  0  0  3  0  0  0  0  0  0
  189.9350  172.8060  141.6890 N   0  0  0  0  0  2  0  0  0  0  0  0
  190.2340  172.5680  140.3070 C   0  0  0  0  0  3  0  0  0  0  0  0
  193.8360  173.6000  140.0200 C   0  0  2  0  0  3  0  0  0  0  0  0
  194.9220  172.5260  139.9000 C   0  0  2  0  0  3  0  0  0  0  0  0
  195.9330  172.7460  140.8370 O   0  0  0  0  0  1  0  0  0  0  0  0
  195.5350  172.5270  138.5120 C   0  0  0  0  0  1  0  0  0  0  0  0
  191.6820  176.2890  144.8790 O   0  0  0  0  0  0  0  0  0  0  0  0
  191.0200  177.9200  143.4350 F   0  0  0  0  0  0  0  0  0  0  0  0
  190.8790  177.4220  144.7170 C   0  0  1  0  0  3  0  0  0  0  0  0
  189.4240  177.0730  144.9800 C   0  0  0  0  0  2  0  0  0  0  0  0
  188.8420  178.0090  145.8350 O   0  0  0  0  0  0  0  0  0  0  0  0
  188.0070  177.2640  146.6690 C   0  0  0  0  0  2  0  0  0  0  0  0
  184.2650  178.7430  144.8730 C   0  0  0  0  0  3  0  0  0  0  0  0
  186.6170  177.4890  146.3020 N   0  0  0  0  0  0  0  0  0  0  0  0
  185.8940  176.3840  145.6830 C   0  0  0  0  0  2  0  0  0  0  0  0
  184.5980  179.0170  146.1370 C   0  0  0  0  0  3  0  0  0  0  0  0
  185.5810  176.6580  144.2110 C   0  0  0  0  0  2  0  0  0  0  0  0
  185.2160  178.1150  143.8950 C   0  0  1  0  0  3  0  0  0  0  0  0
  185.8960  178.6600  146.7370 C   0  0  0  0  0  0  0  0  0  0  0  0
  186.4090  179.5340  148.0260 S   0  0  0  0  0  0  0  0  0  0  0  0
  184.7340  178.2700  142.4530 C   0  0  0  0  0  2  0  0  0  0  0  0
  185.8520  178.6440  141.4830 C   0  0  0  0  0  2  0  0  0  0  0  0
  186.5550  177.5370  139.4840 O   0  0  0  0  0  1  0  0  0  0  0  0
  186.4840  177.4070  140.8720 C   0  0  1  0  0  3  0  0  0  0  0  0
  188.2600  176.0310  141.7110 O   0  0  0  0  0  1  0  0  0  0  0  0
  187.8440  177.1910  141.4530 C   0  0  0  0  0  0  0  0  0  0  0  0
  188.6830  178.2790  141.6500 O   0  0  0  0  0  0  0  0  0  0  0  0
  191.9620  175.3920  147.0700 C   0  0  0  0  0  2  0  0  0  0  0  0
  191.1800  175.9300  148.1340 O   0  0  0  0  0  0  0  0  0  0  0  0
  191.0870  177.2880  148.3840 N   0  0  0  0  0  0  0  0  0  0  0  0
  191.5790  177.8460  149.4430 C   0  0  0  0  0  2  0  0  0  0  0  0
  1 47  1  1  0  0  0
  3  1  1  0  0  0  0
  3  4  1  0  0  0  0
  3  2  1  1  0  0  0
  6  5  1  1  0  0  0
  6  7  1  0  0  0  0
  6  8  1  0  0  0  0
  7 11  1  0  0  0  0
  8  9  1  0  0  0  0
  8  4  1  1  0  0  0
 10  6  1  0  0  0  0
 10  5  1  1  0  0  0
 11  9  1  0  0  0  0
 13 12  1  6  0  0  0
 13 10  1  0  0  0  0
 14 12  1  0  0  0  0
 15 18  1  6  0  0  0
 15 19  1  0  0  0  0
 17 16  2  0  0  0  0
 18 21  2  0  0  0  0
 19 17  1  1  0  0  0
 19 13  1  0  0  0  0
 20 17  1  0  0  0  0
 21 20  1  0  0  0  0
 22 23  1  1  0  0  0
 22 14  1  0  0  0  0
 22 15  1  0  0  0  0
 23 25  1  6  0  0  0
 23 24  1  0  0  0  0
 26  1  1  0  0  0  0
 28 27  1  6  0  0  0
 28 26  1  0  0  0  0
 28 29  1  0  0  0  0
 29 30  1  0  0  0  0
 30 31  1  0  0  0  0
 32 35  2  0  0  0  0
 33 31  1  0  0  0  0
 33 38  1  0  0  0  0
 34 33  1  0  0  0  0
 35 38  1  0  0  0  0
 36 34  1  0  0  0  0
 37 40  1  6  0  0  0
 37 36  1  0  0  0  0
 37 32  1  0  0  0  0
 38 39  2  0  0  0  0
 41 40  1  0  0  0  0
 43 42  1  6  0  0  0
 43 45  1  0  0  0  0
 43 41  1  0  0  0  0
 45 46  2  0  0  0  0
 45 44  1  0  0  0  0
 47 48  1  0  0  0  0
 48 49  1  0  0  0  0
 49 50  2  0  0  0  0
M  END
>  <MODEL>
5

>  <REMARK>
 VINA RESULT:      -6.4      3.548      9.279
  Name = 
  18 active torsions:
  status: ('A' for Active; 'I' for Inactive)
    1  A    between atoms: C_4  and  C_7
    2  A    between atoms: C_4  and  C_43
    3  A    between atoms: C_4  and  O_44
    4  A    between atoms: O_5  and  C_15
    5  A    between atoms: O_5  and  C_36
    6  A    between atoms: C_6  and  C_48
    7  A    between atoms: C_7  and  O_45
    8  A    between atoms: C_9  and  C_40
    9  A    between atoms: C_11  and  C_25
   10  A    between atoms: C_11  and  C_29
   11  A    between atoms: N_12  and  C_36
   12  A    between atoms: C_15  and  C_39
   13  A    between atoms: C_21  and  C_49
   14  A    between atoms: C_23  and  C_25
   15  A    between atoms: C_29  and  C_34
   16  A    between atoms: N_33  and  O_45
   17  A    between atoms: C_39  and  O_44
   18  A    between atoms: C_43  and  C_49
                            x       y       z     vdW  Elec       q    Type
                         _______ _______ _______ _____ _____    ______ ____

>  <TORSDO>
F 18

$$$$
=
 OpenBabel11062420503D

 50 54  0  0  1  0  0  0  0  0999 V2000
  192.6750  175.6850  144.7700 C   0  0  1  0  0  3  0  0  0  0  0  0
  194.4280  175.4610  146.3880 O   0  0  0  0  0  1  0  0  0  0  0  0
  193.8750  174.8730  145.2500 C   0  0  1  0  0  3  0  0  0  0  0  0
  193.4300  173.4430  145.5630 C   0  0  0  0  0  2  0  0  0  0  0  0
  191.0810  172.1460  144.1400 C   0  0  0  0  0  2  0  0  0  0  0  0
  192.4860  171.5990  144.0540 C   0  0  2  0  0  0  0  0  0  0  0  0
  192.7120  170.1310  144.2670 C   0  0  0  0  0  2  0  0  0  0  0  0
  193.6990  172.4270  144.4430 C   0  0  2  0  0  3  0  0  0  0  0  0
  194.7490  171.3950  144.8400 C   0  0  0  0  0  2  0  0  0  0  0  0
  191.7290  171.9430  142.7720 C   0  0  2  0  0  3  0  0  0  0  0  0
  194.2210  170.0220  144.4220 C   0  0  0  0  0  2  0  0  0  0  0  0
  193.4080  173.0560  141.3030 C   0  0  0  0  0  2  0  0  0  0  0  0
  192.1400  173.2880  142.1520 C   0  0  1  0  0  3  0  0  0  0  0  0
  193.2310  173.3520  139.8060 C   0  0  0  0  0  2  0  0  0  0  0  0
  190.7130  173.0040  140.0930 C   0  0  2  0  0  3  0  0  0  0  0  0
  189.7920  174.6630  143.2240 O   0  0  0  0  0  0  0  0  0  0  0  0
  189.7630  174.3000  142.0190 C   0  0  0  0  0  0  0  0  0  0  0  0
  189.5510  173.4990  139.2800 C   0  0  0  0  0  3  0  0  0  0  0  0
  191.0220  173.9080  141.2940 C   0  0  1  0  0  3  0  0  0  0  0  0
  188.5480  174.4070  141.2720 N   0  0  0  0  0  2  0  0  0  0  0  0
  188.5200  174.1100  139.8700 C   0  0  0  0  0  3  0  0  0  0  0  0
  191.9510  172.7200  139.2200 C   0  0  2  0  0  3  0  0  0  0  0  0
  192.1260  171.2140  139.0040 C   0  0  2  0  0  3  0  0  0  0  0  0
  192.0880  170.9080  137.6430 O   0  0  0  0  0  1  0  0  0  0  0  0
  191.0310  170.4340  139.7090 C   0  0  0  0  0  1  0  0  0  0  0  0
  192.2860  176.6110  145.7420 O   0  0  0  0  0  0  0  0  0  0  0  0
  191.2020  175.5180  147.4210 F   0  0  0  0  0  0  0  0  0  0  0  0
  191.0470  176.1530  146.2020 C   0  0  1  0  0  3  0  0  0  0  0  0
  190.0800  177.3160  146.3420 C   0  0  0  0  0  2  0  0  0  0  0  0
  188.7610  176.8700  146.2510 O   0  0  0  0  0  0  0  0  0  0  0  0
  188.0720  177.5820  147.2340 C   0  0  0  0  0  2  0  0  0  0  0  0
  184.2030  178.5830  145.3770 C   0  0  0  0  0  3  0  0  0  0  0  0
  186.6620  177.6690  146.8810 N   0  0  0  0  0  0  0  0  0  0  0  0
  186.0050  176.4520  146.4190 C   0  0  0  0  0  2  0  0  0  0  0  0
  184.5410  179.0310  146.5880 C   0  0  0  0  0  3  0  0  0  0  0  0
  185.6450  176.5240  144.9340 C   0  0  0  0  0  2  0  0  0  0  0  0
  185.1750  177.9040  144.4560 C   0  0  1  0  0  3  0  0  0  0  0  0
  185.8720  178.8350  147.1910 C   0  0  0  0  0  0  0  0  0  0  0  0
  186.3500  179.8920  148.3510 S   0  0  0  0  0  0  0  0  0  0  0  0
  184.6560  177.8500  143.0190 C   0  0  0  0  0  2  0  0  0  0  0  0
  185.6000  178.5050  142.0130 C   0  0  0  0  0  2  0  0  0  0  0  0
  186.6750  177.4810  140.1390 O   0  0  0  0  0  1  0  0  0  0  0  0
  186.6550  177.5240  141.5340 C   0  0  1  0  0  3  0  0  0  0  0  0
  188.3660  177.5470  143.2150 O   0  0  0  0  0  1  0  0  0  0  0  0
  187.9950  177.9160  142.0700 C   0  0  0  0  0  0  0  0  0  0  0  0
  188.8640  178.6430  141.2690 O   0  0  0  0  0  0  0  0  0  0  0  0
  193.0290  176.4210  143.4850 C   0  0  0  0  0  2  0  0  0  0  0  0
  194.2980  175.9880  142.9990 O   0  0  0  0  0  0  0  0  0  0  0  0
  194.8060  176.3790  141.7730 N   0  0  0  0  0  0  0  0  0  0  0  0
  196.0580  176.6420  141.5800 C   0  0  0  0  0  2  0  0  0  0  0  0
  1 47  1  6  0  0  0
  1  3  1  0  0  0  0
  1 26  1  0  0  0  0
  3  4  1  0  0  0  0
  3  2  1  1  0  0  0
  6  5  1  1  0  0  0
  6  7  1  0  0  0  0
  6  8  1  0  0  0  0
  7 11  1  0  0  0  0
  8  9  1  0  0  0  0
  8  4  1  1  0  0  0
 10  6  1  0  0  0  0
 10  5  1  1  0  0  0
 11  9  1  0  0  0  0
 13 12  1  6  0  0  0
 13 10  1  0  0  0  0
 14 12  1  0  0  0  0
 15 18  1  6  0  0  0
 15 19  1  0  0  0  0
 17 16  2  0  0  0  0
 18 21  2  0  0  0  0
 19 17  1  1  0  0  0
 19 13  1  0  0  0  0
 20 17  1  0  0  0  0
 21 20  1  0  0  0  0
 22 23  1  1  0  0  0
 22 14  1  0  0  0  0
 22 15  1  0  0  0  0
 23 25  1  1  0  0  0
 24 23  1  0  0  0  0
 26 28  1  0  0  0  0
 28 29  1  0  0  0  0
 28 27  1  1  0  0  0
 30 29  1  0  0  0  0
 30 31  1  0  0  0  0
 32 35  2  0  0  0  0
 33 38  1  0  0  0  0
 33 31  1  0  0  0  0
 34 33  1  0  0  0  0
 35 38  1  0  0  0  0
 36 34  1  0  0  0  0
 37 40  1  6  0  0  0
 37 36  1  0  0  0  0
 37 32  1  0  0  0  0
 38 39  2  0  0  0  0
 41 40  1  0  0  0  0
 43 42  1  6  0  0  0
 43 41  1  0  0  0  0
 43 45  1  0  0  0  0
 45 44  1  0  0  0  0
 46 45  2  0  0  0  0
 48 47  1  0  0  0  0
 49 48  1  0  0  0  0
 50 49  2  0  0  0  0
M  END
>  <MODEL>
6

>  <REMARK>
 VINA RESULT:      -6.4      3.210      8.653
  Name = 
  18 active torsions:
  status: ('A' for Active; 'I' for Inactive)
    1  A    between atoms: C_4  and  C_7
    2  A    between atoms: C_4  and  C_43
    3  A    between atoms: C_4  and  O_44
    4  A    between atoms: O_5  and  C_15
    5  A    between atoms: O_5  and  C_36
    6  A    between atoms: C_6  and  C_48
    7  A    between atoms: C_7  and  O_45
    8  A    between atoms: C_9  and  C_40
    9  A    between atoms: C_11  and  C_25
   10  A    between atoms: C_11  and  C_29
   11  A    between atoms: N_12  and  C_36
   12  A    between atoms: C_15  and  C_39
   13  A    between atoms: C_21  and  C_49
   14  A    between atoms: C_23  and  C_25
   15  A    between atoms: C_29  and  C_34
   16  A    between atoms: N_33  and  O_45
   17  A    between atoms: C_39  and  O_44
   18  A    between atoms: C_43  and  C_49
                            x       y       z     vdW  Elec       q    Type
                         _______ _______ _______ _____ _____    ______ ____

>  <TORSDO>
F 18

$$$$
=
 OpenBabel11062420503D

 50 54  0  0  1  0  0  0  0  0999 V2000
  189.7770  173.0720  140.3230 C   0  0  1  0  0  3  0  0  0  0  0  0
  190.4440  170.9970  141.3180 O   0  0  0  0  0  1  0  0  0  0  0  0
  190.8760  172.2950  141.0420 C   0  0  1  0  0  3  0  0  0  0  0  0
  192.1290  172.2540  140.1640 C   0  0  0  0  0  2  0  0  0  0  0  0
  193.9160  174.5720  140.9720 C   0  0  0  0  0  2  0  0  0  0  0  0
  194.3970  173.1410  140.9600 C   0  0  2  0  0  0  0  0  0  0  0  0
  195.7100  172.8170  140.3080 C   0  0  0  0  0  2  0  0  0  0  0  0
  193.4340  171.9670  140.9200 C   0  0  2  0  0  3  0  0  0  0  0  0
  194.2370  170.8410  140.2780 C   0  0  0  0  0  2  0  0  0  0  0  0
  194.5130  173.9660  142.2410 C   0  0  2  0  0  3  0  0  0  0  0  0
  195.6950  171.3000  140.2120 C   0  0  0  0  0  2  0  0  0  0  0  0
  193.6370  172.2260  143.7970 C   0  0  0  0  0  2  0  0  0  0  0  0
  193.4170  173.6620  143.2740 C   0  0  1  0  0  3  0  0  0  0  0  0
  193.9370  172.1380  145.3010 C   0  0  0  0  0  2  0  0  0  0  0  0
  194.7280  174.5700  145.2280 C   0  0  2  0  0  3  0  0  0  0  0  0
  192.3290  176.3730  143.1300 O   0  0  0  0  0  0  0  0  0  0  0  0
  193.0900  176.0940  144.0940 C   0  0  0  0  0  0  0  0  0  0  0  0
  194.8310  175.6060  146.3120 C   0  0  0  0  0  2  0  0  0  0  0  0
  193.4130  174.6660  144.4420 C   0  0  1  0  0  3  0  0  0  0  0  0
  193.5340  177.1310  144.9730 N   0  0  0  0  0  0  0  0  0  0  0  0
  194.3050  176.8210  146.1420 C   0  0  0  0  0  3  0  0  0  0  0  0
  195.0100  173.1500  145.7560 C   0  0  2  0  0  3  0  0  0  0  0  0
  196.4130  172.6910  145.3470 C   0  0  2  0  0  3  0  0  0  0  0  0
  196.8120  171.5960  146.1160 O   0  0  0  0  0  1  0  0  0  0  0  0
  197.4250  173.8080  145.5290 C   0  0  0  0  0  1  0  0  0  0  0  0
  189.5390  174.2930  140.9600 O   0  0  0  0  0  0  0  0  0  0  0  0
  189.0040  174.0680  143.1620 F   0  0  0  0  0  0  0  0  0  0  0  0
  188.5110  174.0320  141.8700 C   0  0  1  0  0  3  0  0  0  0  0  0
  187.3990  175.0550  141.7110 C   0  0  0  0  0  2  0  0  0  0  0  0
  187.9060  176.2560  141.2150 O   0  0  0  0  0  0  0  0  0  0  0  0
  186.9140  177.2020  141.4780 C   0  0  0  0  0  2  0  0  0  0  0  0
  186.8690  177.5350  145.8710 C   0  0  0  0  0  3  0  0  0  0  0  0
  187.0250  177.6620  142.8540 N   0  0  0  0  0  0  0  0  0  0  0  0
  188.3500  178.0360  143.3350 C   0  0  0  0  0  2  0  0  0  0  0  0
  185.9700  178.1590  145.1070 C   0  0  0  0  0  3  0  0  0  0  0  0
  188.8810  177.0490  144.3770 C   0  0  0  0  0  2  0  0  0  0  0  0
  187.8180  176.5010  145.3380 C   0  0  1  0  0  3  0  0  0  0  0  0
  185.8630  177.9700  143.6490 C   0  0  0  0  0  0  0  0  0  0  0  0
  184.4180  178.2890  142.9400 S   0  0  0  0  0  0  0  0  0  0  0  0
  188.4510  175.6770  146.4590 C   0  0  0  0  0  2  0  0  0  0  0  0
  189.9580  175.4970  146.2950 C   0  0  0  0  0  2  0  0  0  0  0  0
  191.8870  174.9010  147.5770 O   0  0  0  0  0  1  0  0  0  0  0  0
  190.6680  175.5800  147.6350 C   0  0  1  0  0  3  0  0  0  0  0  0
  191.8110  177.3440  148.7890 O   0  0  0  0  0  1  0  0  0  0  0  0
  190.8790  177.0110  148.0110 C   0  0  0  0  0  0  0  0  0  0  0  0
  190.0740  177.9910  147.4470 O   0  0  0  0  0  0  0  0  0  0  0  0
  190.1850  173.3280  138.8780 C   0  0  0  0  0  2  0  0  0  0  0  0
  189.2490  172.7270  137.9850 O   0  0  0  0  0  0  0  0  0  0  0  0
  188.9520  173.2570  136.7420 N   0  0  0  0  0  0  0  0  0  0  0  0
  189.0360  174.5220  136.4760 C   0  0  0  0  0  2  0  0  0  0  0  0
  1 47  1  6  0  0  0
  1 26  1  0  0  0  0
  1  3  1  0  0  0  0
  3  2  1  6  0  0  0
  4  3  1  0  0  0  0
  6  7  1  6  0  0  0
  6  5  1  0  0  0  0
  6 10  1  0  0  0  0
  8  4  1  6  0  0  0
  8  6  1  0  0  0  0
  9  8  1  0  0  0  0
 10  5  1  6  0  0  0
 10 13  1  0  0  0  0
 11  9  1  0  0  0  0
 11  7  1  0  0  0  0
 12 14  1  0  0  0  0
 13 12  1  1  0  0  0
 13 19  1  0  0  0  0
 14 22  1  0  0  0  0
 15 22  1  0  0  0  0
 15 18  1  1  0  0  0
 16 17  2  0  0  0  0
 17 20  1  0  0  0  0
 19 17  1  6  0  0  0
 19 15  1  0  0  0  0
 20 21  2  0  0  0  0
 21 18  1  0  0  0  0
 22 23  1  6  0  0  0
 23 25  1  1  0  0  0
 23 24  1  0  0  0  0
 26 28  1  0  0  0  0
 28 27  1  1  0  0  0
 29 28  1  0  0  0  0
 30 31  1  0  0  0  0
 30 29  1  0  0  0  0
 31 33  1  0  0  0  0
 33 34  1  0  0  0  0
 33 38  1  0  0  0  0
 34 36  1  0  0  0  0
 35 32  2  0  0  0  0
 36 37  1  0  0  0  0
 37 32  1  0  0  0  0
 37 40  1  1  0  0  0
 38 35  1  0  0  0  0
 39 38  2  0  0  0  0
 41 40  1  0  0  0  0
 41 43  1  0  0  0  0
 43 42  1  6  0  0  0
 43 45  1  0  0  0  0
 45 44  1  0  0  0  0
 46 45  2  0  0  0  0
 48 47  1  0  0  0  0
 49 48  1  0  0  0  0
 50 49  2  0  0  0  0
M  END
>  <MODEL>
7

>  <REMARK>
 VINA RESULT:      -6.2      3.362      8.273
  Name = 
  18 active torsions:
  status: ('A' for Active; 'I' for Inactive)
    1  A    between atoms: C_4  and  C_7
    2  A    between atoms: C_4  and  C_43
    3  A    between atoms: C_4  and  O_44
    4  A    between atoms: O_5  and  C_15
    5  A    between atoms: O_5  and  C_36
    6  A    between atoms: C_6  and  C_48
    7  A    between atoms: C_7  and  O_45
    8  A    between atoms: C_9  and  C_40
    9  A    between atoms: C_11  and  C_25
   10  A    between atoms: C_11  and  C_29
   11  A    between atoms: N_12  and  C_36
   12  A    between atoms: C_15  and  C_39
   13  A    between atoms: C_21  and  C_49
   14  A    between atoms: C_23  and  C_25
   15  A    between atoms: C_29  and  C_34
   16  A    between atoms: N_33  and  O_45
   17  A    between atoms: C_39  and  O_44
   18  A    between atoms: C_43  and  C_49
                            x       y       z     vdW  Elec       q    Type
                         _______ _______ _______ _____ _____    ______ ____

>  <TORSDO>
F 18

$$$$
=
 OpenBabel11062420503D

 50 54  0  0  1  0  0  0  0  0999 V2000
  191.8410  176.4450  146.1130 C   0  0  1  0  0  3  0  0  0  0  0  0
  194.0310  177.3830  145.8560 O   0  0  0  0  0  1  0  0  0  0  0  0
  193.2360  176.2890  145.5130 C   0  0  1  0  0  3  0  0  0  0  0  0
  193.8720  174.9970  146.0320 C   0  0  0  0  0  2  0  0  0  0  0  0
  192.9050  172.3600  144.8770 C   0  0  0  0  0  2  0  0  0  0  0  0
  194.3410  172.8140  144.7750 C   0  0  2  0  0  0  0  0  0  0  0  0
  195.4380  171.8520  145.1270 C   0  0  0  0  0  2  0  0  0  0  0  0
  194.7490  174.2580  145.0120 C   0  0  2  0  0  3  0  0  0  0  0  0
  196.2040  174.1710  145.4570 C   0  0  0  0  0  2  0  0  0  0  0  0
  193.5690  172.4560  143.5060 C   0  0  2  0  0  3  0  0  0  0  0  0
  196.6730  172.7360  145.2120 C   0  0  0  0  0  2  0  0  0  0  0  0
  194.2380  174.2770  141.9400 C   0  0  0  0  0  2  0  0  0  0  0  0
  193.0540  173.6780  142.7290 C   0  0  1  0  0  3  0  0  0  0  0  0
  194.0570  174.2560  140.4130 C   0  0  0  0  0  2  0  0  0  0  0  0
  192.3740  172.3500  140.6960 C   0  0  2  0  0  3  0  0  0  0  0  0
  190.2910  173.2310  143.5750 O   0  0  0  0  0  0  0  0  0  0  0  0
  190.6250  172.8430  142.4250 C   0  0  0  0  0  0  0  0  0  0  0  0
  191.2590  171.8810  139.8060 C   0  0  0  0  0  3  0  0  0  0  0  0
  191.8940  173.3270  141.7790 C   0  0  1  0  0  3  0  0  0  0  0  0
  189.7180  172.0550  141.6490 N   0  0  0  0  0  2  0  0  0  0  0  0
  190.0290  171.7000  140.2950 C   0  0  0  0  0  3  0  0  0  0  0  0
  193.5710  172.8890  139.8890 C   0  0  2  0  0  3  0  0  0  0  0  0
  194.7120  171.8660  139.8680 C   0  0  2  0  0  3  0  0  0  0  0  0
  195.1850  171.6880  138.5670 O   0  0  0  0  0  1  0  0  0  0  0  0
  194.2480  170.5240  140.4050 C   0  0  0  0  0  1  0  0  0  0  0  0
  190.8620  176.3120  145.1240 O   0  0  0  0  0  0  0  0  0  0  0  0
  189.8530  178.1770  144.2920 F   0  0  0  0  0  0  0  0  0  0  0  0
  189.9440  177.3340  145.3850 C   0  0  1  0  0  3  0  0  0  0  0  0
  188.5800  176.7440  145.6990 C   0  0  0  0  0  2  0  0  0  0  0  0
  187.5650  177.5680  145.2130 O   0  0  0  0  0  0  0  0  0  0  0  0
  186.8380  176.7630  144.3350 C   0  0  0  0  0  2  0  0  0  0  0  0
  185.4010  178.0540  140.3740 C   0  0  0  0  0  3  0  0  0  0  0  0
  186.5940  177.4840  143.0940 N   0  0  0  0  0  0  0  0  0  0  0  0
  186.0060  178.8150  143.1910 C   0  0  0  0  0  2  0  0  0  0  0  0
  186.6390  177.5920  140.5590 C   0  0  0  0  0  3  0  0  0  0  0  0
  184.5730  178.8470  142.6550 C   0  0  0  0  0  2  0  0  0  0  0  0
  184.3300  177.9650  141.4240 C   0  0  1  0  0  3  0  0  0  0  0  0
  187.1200  177.0250  141.8320 C   0  0  0  0  0  0  0  0  0  0  0  0
  188.3870  175.9840  141.7760 S   0  0  0  0  0  0  0  0  0  0  0  0
  182.9380  178.1960  140.8370 C   0  0  0  0  0  2  0  0  0  0  0  0
  181.8990  178.5830  141.8880 C   0  0  0  0  0  2  0  0  0  0  0  0
  180.4580  178.1350  140.0330 O   0  0  0  0  0  1  0  0  0  0  0  0
  180.5370  178.8060  141.2550 C   0  0  1  0  0  3  0  0  0  0  0  0
  179.0430  179.0860  143.1100 O   0  0  0  0  0  1  0  0  0  0  0  0
  179.4620  178.3430  142.1830 C   0  0  0  0  0  0  0  0  0  0  0  0
  178.8750  177.1020  141.9820 O   0  0  0  0  0  0  0  0  0  0  0  0
  191.6190  175.3880  147.1870 C   0  0  0  0  0  2  0  0  0  0  0  0
  191.1820  175.9990  148.4000 O   0  0  0  0  0  0  0  0  0  0  0  0
  191.1730  177.3700  148.5880 N   0  0  0  0  0  0  0  0  0  0  0  0
  191.5790  177.9340  149.6800 C   0  0  0  0  0  2  0  0  0  0  0  0
  1 47  1  1  0  0  0
  3  2  1  1  0  0  0
  3  4  1  0  0  0  0
  3  1  1  0  0  0  0
  6  5  1  1  0  0  0
  6  8  1  0  0  0  0
  6  7  1  0  0  0  0
  7 11  1  0  0  0  0
  8  9  1  0  0  0  0
  8  4  1  1  0  0  0
 10  6  1  0  0  0  0
 10  5  1  1  0  0  0
 11  9  1  0  0  0  0
 13 12  1  6  0  0  0
 13 10  1  0  0  0  0
 14 12  1  0  0  0  0
 15 18  1  6  0  0  0
 15 19  1  0  0  0  0
 17 16  2  0  0  0  0
 18 21  2  0  0  0  0
 19 17  1  1  0  0  0
 19 13  1  0  0  0  0
 20 17  1  0  0  0  0
 21 20  1  0  0  0  0
 22 23  1  1  0  0  0
 22 14  1  0  0  0  0
 22 15  1  0  0  0  0
 23 25  1  6  0  0  0
 24 23  1  0  0  0  0
 26 28  1  0  0  0  0
 26  1  1  0  0  0  0
 28 27  1  6  0  0  0
 28 29  1  0  0  0  0
 30 29  1  0  0  0  0
 31 30  1  0  0  0  0
 32 35  2  0  0  0  0
 32 37  1  0  0  0  0
 33 34  1  0  0  0  0
 33 31  1  0  0  0  0
 35 38  1  0  0  0  0
 36 34  1  0  0  0  0
 37 40  1  6  0  0  0
 37 36  1  0  0  0  0
 38 33  1  0  0  0  0
 39 38  2  0  0  0  0
 40 41  1  0  0  0  0
 43 42  1  6  0  0  0
 43 41  1  0  0  0  0
 43 45  1  0  0  0  0
 45 44  1  0  0  0  0
 46 45  2  0  0  0  0
 47 48  1  0  0  0  0
 48 49  1  0  0  0  0
 49 50  2  0  0  0  0
M  END
>  <MODEL>
8

>  <REMARK>
 VINA RESULT:      -6.2      3.714     10.370
  Name = 
  18 active torsions:
  status: ('A' for Active; 'I' for Inactive)
    1  A    between atoms: C_4  and  C_7
    2  A    between atoms: C_4  and  C_43
    3  A    between atoms: C_4  and  O_44
    4  A    between atoms: O_5  and  C_15
    5  A    between atoms: O_5  and  C_36
    6  A    between atoms: C_6  and  C_48
    7  A    between atoms: C_7  and  O_45
    8  A    between atoms: C_9  and  C_40
    9  A    between atoms: C_11  and  C_25
   10  A    between atoms: C_11  and  C_29
   11  A    between atoms: N_12  and  C_36
   12  A    between atoms: C_15  and  C_39
   13  A    between atoms: C_21  and  C_49
   14  A    between atoms: C_23  and  C_25
   15  A    between atoms: C_29  and  C_34
   16  A    between atoms: N_33  and  O_45
   17  A    between atoms: C_39  and  O_44
   18  A    between atoms: C_43  and  C_49
                            x       y       z     vdW  Elec       q    Type
                         _______ _______ _______ _____ _____    ______ ____

>  <TORSDO>
F 18

$$$$
=
 OpenBabel11062420503D

 50 54  0  0  1  0  0  0  0  0999 V2000
  189.6760  172.4590  139.4200 C   0  0  1  0  0  3  0  0  0  0  0  0
  190.7390  170.5780  138.3850 O   0  0  0  0  0  1  0  0  0  0  0  0
  190.6620  171.3040  139.5740 C   0  0  1  0  0  3  0  0  0  0  0  0
  192.0410  171.8590  139.9400 C   0  0  0  0  0  2  0  0  0  0  0  0
  194.9670  172.3920  140.5550 C   0  0  0  0  0  2  0  0  0  0  0  0
  194.1870  171.2820  141.2170 C   0  0  2  0  0  0  0  0  0  0  0  0
  194.7880  169.9080  141.2870 C   0  0  0  0  0  2  0  0  0  0  0  0
  192.6680  171.2410  141.1980 C   0  0  2  0  0  3  0  0  0  0  0  0
  192.3290  169.7620  141.3460 C   0  0  0  0  0  2  0  0  0  0  0  0
  194.8940  172.3270  142.0790 C   0  0  2  0  0  3  0  0  0  0  0  0
  193.6210  169.0300  141.7100 C   0  0  0  0  0  2  0  0  0  0  0  0
  193.5020  172.9760  144.0430 C   0  0  0  0  0  2  0  0  0  0  0  0
  193.9540  173.4100  142.6330 C   0  0  1  0  0  3  0  0  0  0  0  0
  193.9310  173.9300  145.1690 C   0  0  0  0  0  2  0  0  0  0  0  0
  195.8100  174.7800  143.6530 C   0  0  2  0  0  3  0  0  0  0  0  0
  194.3550  175.1450  140.3130 O   0  0  0  0  0  0  0  0  0  0  0  0
  195.0060  175.4020  141.3600 C   0  0  0  0  0  0  0  0  0  0  0  0
  196.5710  176.0750  143.6590 C   0  0  0  0  0  2  0  0  0  0  0  0
  194.6200  174.7970  142.6830 C   0  0  1  0  0  3  0  0  0  0  0  0
  196.0290  176.4000  141.3350 N   0  0  0  0  0  0  0  0  0  0  0  0
  196.7030  176.7910  142.5390 C   0  0  0  0  0  3  0  0  0  0  0  0
  195.4190  174.3320  145.0740 C   0  0  2  0  0  3  0  0  0  0  0  0
  196.3300  173.1970  145.5530 C   0  0  2  0  0  3  0  0  0  0  0  0
  197.0610  173.5960  146.6730 O   0  0  0  0  0  1  0  0  0  0  0  0
  197.2990  172.7820  144.4610 C   0  0  0  0  0  1  0  0  0  0  0  0
  189.9970  173.5020  140.2930 O   0  0  0  0  0  0  0  0  0  0  0  0
  187.8980  172.7680  140.7840 F   0  0  0  0  0  0  0  0  0  0  0  0
  188.9740  173.5050  141.2460 C   0  0  1  0  0  3  0  0  0  0  0  0
  189.4770  172.9230  142.5550 C   0  0  0  0  0  2  0  0  0  0  0  0
  188.9990  173.6630  143.6370 O   0  0  0  0  0  0  0  0  0  0  0  0
  190.0620  173.7080  144.5400 C   0  0  0  0  0  2  0  0  0  0  0  0
  188.9230  177.6020  146.2580 C   0  0  0  0  0  3  0  0  0  0  0  0
  190.0090  174.9460  145.3020 N   0  0  0  0  0  0  0  0  0  0  0  0
  189.9300  174.8430  146.7550 C   0  0  0  0  0  2  0  0  0  0  0  0
  189.9310  177.4810  145.3910 C   0  0  0  0  0  3  0  0  0  0  0  0
  188.5690  175.2940  147.2880 C   0  0  0  0  0  2  0  0  0  0  0  0
  187.9560  176.4900  146.5480 C   0  0  1  0  0  3  0  0  0  0  0  0
  190.2610  176.2270  144.6900 C   0  0  0  0  0  0  0  0  0  0  0  0
  191.0770  176.3360  143.2710 S   0  0  0  0  0  0  0  0  0  0  0  0
  186.6990  176.9980  147.2530 C   0  0  0  0  0  2  0  0  0  0  0  0
  185.4180  176.7310  146.4660 C   0  0  0  0  0  2  0  0  0  0  0  0
  185.1420  179.0560  146.9540 O   0  0  0  0  0  1  0  0  0  0  0  0
  184.7130  178.0280  146.1110 C   0  0  1  0  0  3  0  0  0  0  0  0
  184.7230  179.5270  144.2390 O   0  0  0  0  0  1  0  0  0  0  0  0
  184.9740  178.3750  144.6810 C   0  0  0  0  0  0  0  0  0  0  0  0
  185.5580  177.4330  143.8460 O   0  0  0  0  0  0  0  0  0  0  0  0
  189.7030  172.9740  137.9870 C   0  0  0  0  0  2  0  0  0  0  0  0
  188.3970  173.3770  137.5800 O   0  0  0  0  0  0  0  0  0  0  0  0
  187.8140  174.5620  137.9940 N   0  0  0  0  0  0  0  0  0  0  0  0
  187.2960  175.4180  137.1720 C   0  0  0  0  0  2  0  0  0  0  0  0
  1 47  1  6  0  0  0
  1  3  1  0  0  0  0
  1 26  1  0  0  0  0
  3  2  1  6  0  0  0
  3  4  1  0  0  0  0
  6  5  1  6  0  0  0
  6  7  1  0  0  0  0
  6 10  1  0  0  0  0
  7 11  1  0  0  0  0
  8  4  1  6  0  0  0
  8  6  1  0  0  0  0
  8  9  1  0  0  0  0
  9 11  1  0  0  0  0
 10  5  1  6  0  0  0
 10 13  1  0  0  0  0
 12 14  1  0  0  0  0
 13 19  1  0  0  0  0
 13 12  1  1  0  0  0
 15 18  1  1  0  0  0
 15 22  1  0  0  0  0
 16 17  2  0  0  0  0
 19 17  1  6  0  0  0
 19 15  1  0  0  0  0
 20 17  1  0  0  0  0
 20 21  2  0  0  0  0
 21 18  1  0  0  0  0
 22 14  1  0  0  0  0
 22 23  1  6  0  0  0
 23 25  1  6  0  0  0
 23 24  1  0  0  0  0
 26 28  1  0  0  0  0
 28 27  1  6  0  0  0
 28 29  1  0  0  0  0
 29 30  1  0  0  0  0
 30 31  1  0  0  0  0
 31 33  1  0  0  0  0
 32 37  1  0  0  0  0
 33 34  1  0  0  0  0
 34 36  1  0  0  0  0
 35 32  2  0  0  0  0
 37 40  1  1  0  0  0
 37 36  1  0  0  0  0
 38 33  1  0  0  0  0
 38 35  1  0  0  0  0
 39 38  2  0  0  0  0
 41 40  1  0  0  0  0
 43 41  1  0  0  0  0
 43 42  1  1  0  0  0
 44 45  1  0  0  0  0
 45 43  1  0  0  0  0
 46 45  2  0  0  0  0
 48 47  1  0  0  0  0
 48 49  1  0  0  0  0
 50 49  2  0  0  0  0
M  END
>  <MODEL>
9

>  <REMARK>
 VINA RESULT:      -6.2      2.771      8.396
  Name = 
  18 active torsions:
  status: ('A' for Active; 'I' for Inactive)
    1  A    between atoms: C_4  and  C_7
    2  A    between atoms: C_4  and  C_43
    3  A    between atoms: C_4  and  O_44
    4  A    between atoms: O_5  and  C_15
    5  A    between atoms: O_5  and  C_36
    6  A    between atoms: C_6  and  C_48
    7  A    between atoms: C_7  and  O_45
    8  A    between atoms: C_9  and  C_40
    9  A    between atoms: C_11  and  C_25
   10  A    between atoms: C_11  and  C_29
   11  A    between atoms: N_12  and  C_36
   12  A    between atoms: C_15  and  C_39
   13  A    between atoms: C_21  and  C_49
   14  A    between atoms: C_23  and  C_25
   15  A    between atoms: C_29  and  C_34
   16  A    between atoms: N_33  and  O_45
   17  A    between atoms: C_39  and  O_44
   18  A    between atoms: C_43  and  C_49
                            x       y       z     vdW  Elec       q    Type
                         _______ _______ _______ _____ _____    ______ ____

>  <TORSDO>
F 18

$$$$
