=
 OpenBabel11072408483D

 26 30  0  0  1  0  0  0  0  0999 V2000
  187.3040  177.7470  147.2530 C   0  0  0  0  0  3  0  0  0  0  0  0
  188.8240  175.9630  145.6580 C   0  0  2  0  0  0  0  0  0  0  0  0
  191.0880  176.2030  145.1780 C   0  0  0  0  0  0  0  0  0  0  0  0
  193.4850  176.6930  145.3850 C   0  0  0  0  0  2  0  0  0  0  0  0
  187.3490  176.1770  145.2810 C   0  0  2  0  0  3  0  0  0  0  0  0
  192.6990  174.9480  143.7390 C   0  0  1  0  0  3  0  0  0  0  0  0
  192.3460  175.9300  144.8130 C   0  0  0  0  0  0  0  0  0  0  0  0
  189.8510  175.5560  144.6070 C   0  0  0  0  0  2  0  0  0  0  0  0
  184.9360  178.2320  144.8210 C   0  0  2  0  0  3  0  0  0  0  0  0
  190.7640  177.1390  146.1560 O   0  0  0  0  0  0  0  0  0  0  0  0
  194.2100  174.9400  143.6020 C   0  0  0  0  0  2  0  0  0  0  0  0
  188.7110  177.7150  147.2960 O   0  0  0  0  0  0  0  0  0  0  0  0
  187.0680  176.5130  143.8090 C   0  0  0  0  0  2  0  0  0  0  0  0
  187.1400  178.0040  143.4520 C   0  0  2  0  0  3  0  0  0  0  0  0
  185.1550  177.3340  146.0590 C   0  0  2  0  0  3  0  0  0  0  0  0
  188.8770  174.9290  146.7850 C   0  0  0  0  0  1  0  0  0  0  0  0
  189.3660  177.2960  146.1090 C   0  0  2  0  0  3  0  0  0  0  0  0
  194.8840  176.5010  144.2470 S   0  0  0  0  0  0  0  0  0  0  0  0
  186.1960  178.9150  144.2550 C   0  0  0  0  0  2  0  0  0  0  0  0
  184.7280  178.7840  146.2140 C   0  0  0  0  0  2  0  0  0  0  0  0
  186.6230  177.0840  146.2840 C   0  0  0  0  0  0  0  0  0  0  0  0
  192.5730  173.0360  145.1590 O   0  0  0  0  0  1  0  0  0  0  0  0
  192.2320  173.5640  144.0690 C   0  0  0  0  0  0  0  0  0  0  0  0
  191.4110  172.8670  143.1910 O   0  0  0  0  0  0  0  0  0  0  0  0
  186.8210  176.8630  141.5820 C   0  0  0  0  0  1  0  0  0  0  0  0
  186.8920  178.1630  142.0870 O   0  0  0  0  0  0  0  0  0  0  0  0
  1 12  1  0  0  0  0
  2 17  1  0  0  0  0
  2 16  1  1  0  0  0
  3 10  1  0  0  0  0
  5 13  1  6  0  0  0
  5  2  1  0  0  0  0
  5 21  1  0  0  0  0
  6 23  1  1  0  0  0
  6  7  1  0  0  0  0
  7  3  2  0  0  0  0
  7  4  1  0  0  0  0
  8  3  1  0  0  0  0
  8  2  1  0  0  0  0
  9 19  1  1  0  0  0
  9 15  1  0  0  0  0
  9 20  1  0  0  0  0
 11  6  1  0  0  0  0
 11 18  1  0  0  0  0
 14 26  1  6  0  0  0
 14 13  1  0  0  0  0
 14 19  1  0  0  0  0
 15 20  1  1  0  0  0
 15 21  1  0  0  0  0
 17 10  1  1  0  0  0
 17 12  1  0  0  0  0
 18  4  1  0  0  0  0
 21  1  2  0  0  0  0
 23 22  1  0  0  0  0
 24 23  2  0  0  0  0
 25 26  1  0  0  0  0
M  END
>  <MODEL>
1

>  <REMARK>
 VINA RESULT:      -7.9      0.000      0.000
  Name = 
  2 active torsions:
  status: ('A' for Active; 'I' for Inactive)
    1  A    between atoms: C_6  and  C_8
    2  A    between atoms: C_17  and  O_24
                            x       y       z     vdW  Elec       q    Type
                         _______ _______ _______ _____ _____    ______ ____

>  <TORSDO>
F 2

$$$$
=
 OpenBabel11072408483D

 26 30  0  0  1  0  0  0  0  0999 V2000
  185.8400  177.5090  142.4460 C   0  0  0  0  0  3  0  0  0  0  0  0
  188.3960  177.0970  143.6020 C   0  0  2  0  0  0  0  0  0  0  0  0
  189.4950  175.0500  143.7100 C   0  0  0  0  0  0  0  0  0  0  0  0
  190.3460  172.8180  143.1420 C   0  0  0  0  0  2  0  0  0  0  0  0
  187.4860  178.1600  144.2400 C   0  0  2  0  0  3  0  0  0  0  0  0
  191.6370  174.2830  144.7420 C   0  0  1  0  0  3  0  0  0  0  0  0
  190.4580  174.1290  143.8310 C   0  0  0  0  0  0  0  0  0  0  0  0
  189.4580  176.3770  144.4250 C   0  0  0  0  0  2  0  0  0  0  0  0
  184.5660  178.9650  145.2770 C   0  0  2  0  0  3  0  0  0  0  0  0
  188.3860  174.8880  142.8840 O   0  0  0  0  0  0  0  0  0  0  0  0
  192.4800  173.0270  144.6200 C   0  0  0  0  0  2  0  0  0  0  0  0
  186.6160  176.3700  142.1630 O   0  0  0  0  0  0  0  0  0  0  0  0
  187.3000  178.0660  145.7620 C   0  0  0  0  0  2  0  0  0  0  0  0
  186.1660  177.1440  146.2280 C   0  0  2  0  0  3  0  0  0  0  0  0
  185.2210  179.4010  143.9470 C   0  0  2  0  0  3  0  0  0  0  0  0
  189.0930  177.7350  142.3980 C   0  0  0  0  0  1  0  0  0  0  0  0
  187.5110  175.9500  143.1810 C   0  0  2  0  0  3  0  0  0  0  0  0
  191.4460  171.6620  144.0060 S   0  0  0  0  0  0  0  0  0  0  0  0
  184.7720  177.4920  145.6770 C   0  0  0  0  0  2  0  0  0  0  0  0
  183.7670  178.9610  143.9910 C   0  0  0  0  0  2  0  0  0  0  0  0
  186.1810  178.3500  143.4550 C   0  0  0  0  0  0  0  0  0  0  0  0
  192.8460  176.2670  145.2790 O   0  0  0  0  0  1  0  0  0  0  0  0
  192.4740  175.4690  144.3790 C   0  0  0  0  0  0  0  0  0  0  0  0
  192.8590  175.6870  143.0610 O   0  0  0  0  0  0  0  0  0  0  0  0
  186.6500  178.3670  148.0070 C   0  0  0  0  0  1  0  0  0  0  0  0
  186.1260  177.1320  147.6230 O   0  0  0  0  0  0  0  0  0  0  0  0
  1 21  2  0  0  0  0
  2 16  1  6  0  0  0
  2  5  1  0  0  0  0
  2  8  1  0  0  0  0
  3  7  2  0  0  0  0
  3  8  1  0  0  0  0
  4  7  1  0  0  0  0
  4 18  1  0  0  0  0
  5 13  1  1  0  0  0
  6 23  1  6  0  0  0
  7  6  1  0  0  0  0
  9 20  1  6  0  0  0
  9 19  1  0  0  0  0
 10 17  1  0  0  0  0
 10  3  1  0  0  0  0
 11  6  1  0  0  0  0
 12  1  1  0  0  0  0
 13 14  1  0  0  0  0
 14 26  1  1  0  0  0
 15 20  1  6  0  0  0
 15  9  1  0  0  0  0
 17 12  1  6  0  0  0
 17  2  1  0  0  0  0
 18 11  1  0  0  0  0
 19 14  1  0  0  0  0
 21 15  1  0  0  0  0
 21  5  1  0  0  0  0
 23 22  1  0  0  0  0
 24 23  2  0  0  0  0
 26 25  1  0  0  0  0
M  END
>  <MODEL>
2

>  <REMARK>
 VINA RESULT:      -7.7      2.065      3.764
  Name = 
  2 active torsions:
  status: ('A' for Active; 'I' for Inactive)
    1  A    between atoms: C_6  and  C_8
    2  A    between atoms: C_17  and  O_24
                            x       y       z     vdW  Elec       q    Type
                         _______ _______ _______ _____ _____    ______ ____

>  <TORSDO>
F 2

$$$$
=
 OpenBabel11072408483D

 26 30  0  0  1  0  0  0  0  0999 V2000
  192.3490  176.2110  144.6750 C   0  0  0  0  0  3  0  0  0  0  0  0
  189.6900  176.6010  143.7730 C   0  0  2  0  0  0  0  0  0  0  0  0
  187.9140  177.2820  145.1140 C   0  0  0  0  0  0  0  0  0  0  0  0
  186.5830  178.4250  146.8310 C   0  0  0  0  0  2  0  0  0  0  0  0
  190.5110  175.4820  143.1120 C   0  0  2  0  0  3  0  0  0  0  0  0
  185.4670  177.5960  144.7240 C   0  0  1  0  0  3  0  0  0  0  0  0
  186.7320  177.7700  145.5070 C   0  0  0  0  0  0  0  0  0  0  0  0
  188.1680  176.5260  143.8340 C   0  0  0  0  0  2  0  0  0  0  0  0
  192.5060  173.0040  143.4720 C   0  0  2  0  0  3  0  0  0  0  0  0
  189.0820  177.4210  145.8600 O   0  0  0  0  0  0  0  0  0  0  0  0
  184.3480  178.2610  145.5050 C   0  0  0  0  0  2  0  0  0  0  0  0
  191.4130  176.9670  145.4050 O   0  0  0  0  0  0  0  0  0  0  0  0
  189.8380  174.1040  143.0350 C   0  0  0  0  0  2  0  0  0  0  0  0
  190.0350  173.2090  144.2650 C   0  0  2  0  0  3  0  0  0  0  0  0
  192.8860  174.4300  143.0150 C   0  0  2  0  0  3  0  0  0  0  0  0
  190.0640  177.9220  143.0990 C   0  0  0  0  0  1  0  0  0  0  0  0
  190.0500  176.6100  145.2380 C   0  0  2  0  0  3  0  0  0  0  0  0
  184.8210  178.3780  147.2580 S   0  0  0  0  0  0  0  0  0  0  0  0
  191.4990  172.9160  144.6350 C   0  0  0  0  0  2  0  0  0  0  0  0
  193.7460  173.6800  144.0180 C   0  0  0  0  0  2  0  0  0  0  0  0
  191.9580  175.4500  143.6220 C   0  0  0  0  0  0  0  0  0  0  0  0
  185.9420  179.4160  143.2580 O   0  0  0  0  0  1  0  0  0  0  0  0
  185.5550  178.2240  143.3680 C   0  0  0  0  0  0  0  0  0  0  0  0
  185.2310  177.4950  142.2300 O   0  0  0  0  0  0  0  0  0  0  0  0
  189.1670  171.9160  142.6930 C   0  0  0  0  0  1  0  0  0  0  0  0
  189.3530  172.0050  144.0730 O   0  0  0  0  0  0  0  0  0  0  0  0
  1 12  1  0  0  0  0
  2 16  1  6  0  0  0
  2  8  1  0  0  0  0
  2 17  1  0  0  0  0
  3  7  2  0  0  0  0
  3 10  1  0  0  0  0
  4 18  1  0  0  0  0
  5 13  1  1  0  0  0
  5 21  1  0  0  0  0
  5  2  1  0  0  0  0
  6 23  1  6  0  0  0
  6 11  1  0  0  0  0
  6  7  1  0  0  0  0
  7  4  1  0  0  0  0
  8  3  1  0  0  0  0
  9 20  1  1  0  0  0
  9 19  1  0  0  0  0
 11 18  1  0  0  0  0
 13 14  1  0  0  0  0
 14 26  1  6  0  0  0
 14 19  1  0  0  0  0
 15  9  1  0  0  0  0
 15 21  1  0  0  0  0
 15 20  1  1  0  0  0
 17 12  1  6  0  0  0
 17 10  1  0  0  0  0
 21  1  2  0  0  0  0
 22 23  1  0  0  0  0
 24 23  2  0  0  0  0
 25 26  1  0  0  0  0
M  END
>  <MODEL>
3

>  <REMARK>
 VINA RESULT:      -7.0      2.640      6.804
  Name = 
  2 active torsions:
  status: ('A' for Active; 'I' for Inactive)
    1  A    between atoms: C_6  and  C_8
    2  A    between atoms: C_17  and  O_24
                            x       y       z     vdW  Elec       q    Type
                         _______ _______ _______ _____ _____    ______ ____

>  <TORSDO>
F 2

$$$$
=
 OpenBabel11072408483D

 26 30  0  0  1  0  0  0  0  0999 V2000
  192.2880  172.8250  143.9620 C   0  0  0  0  0  3  0  0  0  0  0  0
  190.6000  174.7460  145.1880 C   0  0  2  0  0  0  0  0  0  0  0  0
  189.0490  176.0670  144.0660 C   0  0  0  0  0  0  0  0  0  0  0  0
  187.3220  176.8240  142.4930 C   0  0  0  0  0  2  0  0  0  0  0  0
  192.0050  174.5470  145.7810 C   0  0  2  0  0  3  0  0  0  0  0  0
  187.5200  177.9160  144.7610 C   0  0  1  0  0  3  0  0  0  0  0  0
  188.0030  176.8630  143.8120 C   0  0  0  0  0  0  0  0  0  0  0  0
  189.8690  176.0760  145.3310 C   0  0  0  0  0  2  0  0  0  0  0  0
  195.1460  174.2020  145.2630 C   0  0  2  0  0  3  0  0  0  0  0  0
  189.5130  175.1100  143.1680 O   0  0  0  0  0  0  0  0  0  0  0  0
  186.3430  178.6170  144.1070 C   0  0  0  0  0  2  0  0  0  0  0  0
  191.1300  173.3190  143.3300 O   0  0  0  0  0  0  0  0  0  0  0  0
  192.8330  175.8210  146.0020 C   0  0  0  0  0  2  0  0  0  0  0  0
  193.6570  176.2860  144.7940 C   0  0  2  0  0  3  0  0  0  0  0  0
  194.1430  173.0790  145.6080 C   0  0  2  0  0  3  0  0  0  0  0  0
  189.6910  173.6520  145.7530 C   0  0  0  0  0  1  0  0  0  0  0  0
  190.7310  174.6320  143.6890 C   0  0  2  0  0  3  0  0  0  0  0  0
  186.4300  178.3920  142.3040 S   0  0  0  0  0  0  0  0  0  0  0  0
  194.6570  175.2520  144.2480 C   0  0  0  0  0  2  0  0  0  0  0  0
  195.1970  172.8780  144.5320 C   0  0  0  0  0  2  0  0  0  0  0  0
  192.7690  173.4110  145.0870 C   0  0  0  0  0  0  0  0  0  0  0  0
  186.2130  176.4180  146.0790 O   0  0  0  0  0  0  0  0  0  0  0  0
  187.0770  177.3340  146.0660 C   0  0  0  0  0  0  0  0  0  0  0  0
  187.6230  177.7840  147.2630 O   0  0  0  0  0  1  0  0  0  0  0  0
  194.4600  177.4250  146.5130 C   0  0  0  0  0  1  0  0  0  0  0  0
  194.3350  177.4610  145.1230 O   0  0  0  0  0  0  0  0  0  0  0  0
  1 21  2  0  0  0  0
  2  8  1  0  0  0  0
  2 16  1  1  0  0  0
  2  5  1  0  0  0  0
  3  8  1  0  0  0  0
  4  7  1  0  0  0  0
  5 13  1  6  0  0  0
  6 23  1  1  0  0  0
  7  3  2  0  0  0  0
  7  6  1  0  0  0  0
  9 19  1  6  0  0  0
  9 15  1  0  0  0  0
 10  3  1  0  0  0  0
 11  6  1  0  0  0  0
 12 17  1  0  0  0  0
 12  1  1  0  0  0  0
 14 26  1  1  0  0  0
 14 13  1  0  0  0  0
 15 20  1  6  0  0  0
 17 10  1  6  0  0  0
 17  2  1  0  0  0  0
 18  4  1  0  0  0  0
 18 11  1  0  0  0  0
 19 14  1  0  0  0  0
 20  9  1  0  0  0  0
 21 15  1  0  0  0  0
 21  5  1  0  0  0  0
 23 22  2  0  0  0  0
 23 24  1  0  0  0  0
 26 25  1  0  0  0  0
M  END
>  <MODEL>
4

>  <REMARK>
 VINA RESULT:      -6.8      2.426      7.122
  Name = 
  2 active torsions:
  status: ('A' for Active; 'I' for Inactive)
    1  A    between atoms: C_6  and  C_8
    2  A    between atoms: C_17  and  O_24
                            x       y       z     vdW  Elec       q    Type
                         _______ _______ _______ _____ _____    ______ ____

>  <TORSDO>
F 2

$$$$
=
 OpenBabel11072408483D

 26 30  0  0  1  0  0  0  0  0999 V2000
  187.6950  177.1630  141.9290 C   0  0  0  0  0  3  0  0  0  0  0  0
  189.8640  177.0490  143.7510 C   0  0  2  0  0  0  0  0  0  0  0  0
  191.2120  175.1850  144.1030 C   0  0  0  0  0  0  0  0  0  0  0  0
  192.5410  173.1550  143.7310 C   0  0  0  0  0  2  0  0  0  0  0  0
  188.6520  177.9120  144.1370 C   0  0  2  0  0  3  0  0  0  0  0  0
  193.0820  174.6700  145.6770 C   0  0  1  0  0  3  0  0  0  0  0  0
  192.2420  174.4110  144.4650 C   0  0  0  0  0  0  0  0  0  0  0  0
  190.7620  176.4340  144.8190 C   0  0  0  0  0  2  0  0  0  0  0  0
  185.4680  178.1920  144.3250 C   0  0  2  0  0  3  0  0  0  0  0  0
  190.4160  174.9240  142.9910 O   0  0  0  0  0  0  0  0  0  0  0  0
  194.1200  173.5660  145.7600 C   0  0  0  0  0  2  0  0  0  0  0  0
  188.6950  176.1760  141.8430 O   0  0  0  0  0  0  0  0  0  0  0  0
  188.0720  177.6760  145.5390 C   0  0  0  0  0  2  0  0  0  0  0  0
  187.0210  176.5620  145.6350 C   0  0  2  0  0  3  0  0  0  0  0  0
  186.3840  178.8210  143.2510 C   0  0  2  0  0  3  0  0  0  0  0  0
  190.7510  177.8730  142.8160 C   0  0  0  0  0  1  0  0  0  0  0  0
  189.3310  175.8180  143.0600 C   0  0  2  0  0  3  0  0  0  0  0  0
  193.5340  172.1130  144.8350 S   0  0  0  0  0  0  0  0  0  0  0  0
  185.7950  176.7400  144.7220 C   0  0  0  0  0  2  0  0  0  0  0  0
  185.0670  178.1680  142.8660 C   0  0  0  0  0  2  0  0  0  0  0  0
  187.6010  177.9650  143.0200 C   0  0  0  0  0  0  0  0  0  0  0  0
  193.8170  176.7320  146.6210 O   0  0  0  0  0  1  0  0  0  0  0  0
  193.7800  175.9910  145.6050 C   0  0  0  0  0  0  0  0  0  0  0  0
  194.4030  176.3990  144.4310 O   0  0  0  0  0  0  0  0  0  0  0  0
  187.6940  175.8920  147.6330 C   0  0  0  0  0  1  0  0  0  0  0  0
  186.6000  176.4380  146.9600 O   0  0  0  0  0  0  0  0  0  0  0  0
  1 21  2  0  0  0  0
  2 16  1  6  0  0  0
  2  5  1  0  0  0  0
  2  8  1  0  0  0  0
  3  7  2  0  0  0  0
  3  8  1  0  0  0  0
  4  7  1  0  0  0  0
  4 18  1  0  0  0  0
  5 13  1  1  0  0  0
  6 23  1  6  0  0  0
  6 11  1  0  0  0  0
  7  6  1  0  0  0  0
  9 20  1  6  0  0  0
  9 19  1  0  0  0  0
 10 17  1  0  0  0  0
 10  3  1  0  0  0  0
 12  1  1  0  0  0  0
 13 14  1  0  0  0  0
 14 26  1  1  0  0  0
 15 20  1  6  0  0  0
 15  9  1  0  0  0  0
 17 12  1  6  0  0  0
 17  2  1  0  0  0  0
 18 11  1  0  0  0  0
 19 14  1  0  0  0  0
 21 15  1  0  0  0  0
 21  5  1  0  0  0  0
 23 22  1  0  0  0  0
 24 23  2  0  0  0  0
 26 25  1  0  0  0  0
M  END
>  <MODEL>
5

>  <REMARK>
 VINA RESULT:      -6.8      2.061      3.676
  Name = 
  2 active torsions:
  status: ('A' for Active; 'I' for Inactive)
    1  A    between atoms: C_6  and  C_8
    2  A    between atoms: C_17  and  O_24
                            x       y       z     vdW  Elec       q    Type
                         _______ _______ _______ _____ _____    ______ ____

>  <TORSDO>
F 2

$$$$
=
 OpenBabel11072408483D

 26 30  0  0  1  0  0  0  0  0999 V2000
  188.8810  177.4080  147.0190 C   0  0  0  0  0  3  0  0  0  0  0  0
  189.5830  175.5590  144.9870 C   0  0  2  0  0  0  0  0  0  0  0  0
  191.4400  175.7480  143.5970 C   0  0  0  0  0  0  0  0  0  0  0  0
  193.7060  176.2010  142.7680 C   0  0  0  0  0  2  0  0  0  0  0  0
  188.0870  175.7900  145.2560 C   0  0  2  0  0  3  0  0  0  0  0  0
  192.2930  174.4300  141.6550 C   0  0  1  0  0  3  0  0  0  0  0  0
  192.4280  175.4440  142.7480 C   0  0  0  0  0  0  0  0  0  0  0  0
  190.0740  175.1090  143.6150 C   0  0  0  0  0  2  0  0  0  0  0  0
  185.7150  177.8750  145.7870 C   0  0  2  0  0  3  0  0  0  0  0  0
  191.5600  176.7130  144.5940 O   0  0  0  0  0  0  0  0  0  0  0  0
  193.6080  174.3930  140.8980 C   0  0  0  0  0  2  0  0  0  0  0  0
  190.1760  177.3530  146.4700 O   0  0  0  0  0  0  0  0  0  0  0  0
  187.2180  176.0960  144.0270 C   0  0  0  0  0  2  0  0  0  0  0  0
  187.1420  177.5750  143.6290 C   0  0  2  0  0  3  0  0  0  0  0  0
  186.4270  177.0030  146.8460 C   0  0  2  0  0  3  0  0  0  0  0  0
  190.0970  174.5520  146.0180 C   0  0  0  0  0  1  0  0  0  0  0  0
  190.2720  176.8940  145.1310 C   0  0  2  0  0  3  0  0  0  0  0  0
  194.4990  175.9570  141.1560 S   0  0  0  0  0  0  0  0  0  0  0  0
  186.6260  178.5230  144.7260 C   0  0  0  0  0  2  0  0  0  0  0  0
  186.1120  178.4640  147.1230 C   0  0  0  0  0  2  0  0  0  0  0  0
  187.8530  176.7330  146.4440 C   0  0  0  0  0  0  0  0  0  0  0  0
  192.7190  172.5860  143.1040 O   0  0  0  0  0  1  0  0  0  0  0  0
  191.9990  173.0640  142.1900 C   0  0  0  0  0  0  0  0  0  0  0  0
  190.9280  172.3270  141.6980 O   0  0  0  0  0  0  0  0  0  0  0  0
  185.9470  179.0430  142.4830 C   0  0  0  0  0  1  0  0  0  0  0  0
  186.3460  177.7060  142.4890 O   0  0  0  0  0  0  0  0  0  0  0  0
  2 17  1  0  0  0  0
  2  5  1  0  0  0  0
  2 16  1  1  0  0  0
  3  8  1  0  0  0  0
  3 10  1  0  0  0  0
  5 13  1  6  0  0  0
  5 21  1  0  0  0  0
  6 23  1  1  0  0  0
  6  7  1  0  0  0  0
  7  4  1  0  0  0  0
  7  3  2  0  0  0  0
  8  2  1  0  0  0  0
  9 19  1  6  0  0  0
  9 15  1  0  0  0  0
  9 20  1  0  0  0  0
 11 18  1  0  0  0  0
 11  6  1  0  0  0  0
 12  1  1  0  0  0  0
 14 26  1  6  0  0  0
 14 13  1  0  0  0  0
 14 19  1  0  0  0  0
 15 20  1  1  0  0  0
 17 10  1  1  0  0  0
 17 12  1  0  0  0  0
 18  4  1  0  0  0  0
 21 15  1  0  0  0  0
 21  1  2  0  0  0  0
 23 22  1  0  0  0  0
 24 23  2  0  0  0  0
 25 26  1  0  0  0  0
M  END
>  <MODEL>
6

>  <REMARK>
 VINA RESULT:      -6.6      1.482      1.764
  Name = 
  2 active torsions:
  status: ('A' for Active; 'I' for Inactive)
    1  A    between atoms: C_6  and  C_8
    2  A    between atoms: C_17  and  O_24
                            x       y       z     vdW  Elec       q    Type
                         _______ _______ _______ _____ _____    ______ ____

>  <TORSDO>
F 2

$$$$
=
 OpenBabel11072408483D

 26 30  0  0  1  0  0  0  0  0999 V2000
  188.6620  177.8050  144.9980 C   0  0  0  0  0  3  0  0  0  0  0  0
  190.2120  175.4610  144.6210 C   0  0  2  0  0  0  0  0  0  0  0  0
  192.4660  175.4310  144.0440 C   0  0  0  0  0  0  0  0  0  0  0  0
  194.8520  175.9920  143.8990 C   0  0  0  0  0  2  0  0  0  0  0  0
  188.7300  175.4090  144.2180 C   0  0  2  0  0  3  0  0  0  0  0  0
  194.0950  173.6170  143.5040 C   0  0  1  0  0  3  0  0  0  0  0  0
  193.7270  175.0220  143.8650 C   0  0  0  0  0  0  0  0  0  0  0  0
  191.2410  174.5580  143.9480 C   0  0  0  0  0  2  0  0  0  0  0  0
  186.2650  176.8310  142.7480 C   0  0  2  0  0  3  0  0  0  0  0  0
  192.1270  176.7470  144.3510 O   0  0  0  0  0  0  0  0  0  0  0  0
  195.6050  173.5580  143.3640 C   0  0  0  0  0  2  0  0  0  0  0  0
  190.0700  177.8240  145.0240 O   0  0  0  0  0  0  0  0  0  0  0  0
  188.4290  174.8730  142.8100 C   0  0  0  0  0  2  0  0  0  0  0  0
  188.4630  175.9200  141.6890 C   0  0  2  0  0  3  0  0  0  0  0  0
  186.5150  176.7680  144.2720 C   0  0  2  0  0  3  0  0  0  0  0  0
  190.2990  175.2210  146.1300 C   0  0  0  0  0  1  0  0  0  0  0  0
  190.7260  176.8300  144.2520 C   0  0  2  0  0  3  0  0  0  0  0  0
  196.2460  175.2260  143.0280 S   0  0  0  0  0  0  0  0  0  0  0  0
  187.5030  177.1090  141.8750 C   0  0  0  0  0  2  0  0  0  0  0  0
  186.0540  178.0570  143.6110 C   0  0  0  0  0  2  0  0  0  0  0  0
  187.9900  176.7070  144.5690 C   0  0  0  0  0  0  0  0  0  0  0  0
  193.9500  172.8500  145.7580 O   0  0  0  0  0  1  0  0  0  0  0  0
  193.6640  172.6370  144.5510 C   0  0  0  0  0  0  0  0  0  0  0  0
  192.9350  171.5060  144.2040 O   0  0  0  0  0  0  0  0  0  0  0  0
  188.6940  173.9990  140.6150 C   0  0  0  0  0  1  0  0  0  0  0  0
  188.2010  175.2970  140.4680 O   0  0  0  0  0  0  0  0  0  0  0  0
  1 12  1  0  0  0  0
  2 16  1  1  0  0  0
  3 10  1  0  0  0  0
  5 13  1  6  0  0  0
  5 21  1  0  0  0  0
  5  2  1  0  0  0  0
  6  7  1  0  0  0  0
  6 23  1  1  0  0  0
  7  4  1  0  0  0  0
  7  3  2  0  0  0  0
  8  3  1  0  0  0  0
  8  2  1  0  0  0  0
  9 19  1  6  0  0  0
  9 20  1  0  0  0  0
  9 15  1  0  0  0  0
 11  6  1  0  0  0  0
 14 26  1  6  0  0  0
 14 19  1  0  0  0  0
 14 13  1  0  0  0  0
 15 20  1  1  0  0  0
 15 21  1  0  0  0  0
 17 10  1  1  0  0  0
 17  2  1  0  0  0  0
 17 12  1  0  0  0  0
 18 11  1  0  0  0  0
 18  4  1  0  0  0  0
 21  1  2  0  0  0  0
 23 22  1  0  0  0  0
 24 23  2  0  0  0  0
 26 25  1  0  0  0  0
M  END
>  <MODEL>
7

>  <REMARK>
 VINA RESULT:      -6.4      1.794      2.408
  Name = 
  2 active torsions:
  status: ('A' for Active; 'I' for Inactive)
    1  A    between atoms: C_6  and  C_8
    2  A    between atoms: C_17  and  O_24
                            x       y       z     vdW  Elec       q    Type
                         _______ _______ _______ _____ _____    ______ ____

>  <TORSDO>
F 2

$$$$
=
 OpenBabel11072408483D

 26 30  0  0  1  0  0  0  0  0999 V2000
  188.5230  176.3690  143.5320 C   0  0  0  0  0  3  0  0  0  0  0  0
  191.3330  176.5960  143.8320 C   0  0  2  0  0  0  0  0  0  0  0  0
  192.8840  175.0240  143.0970 C   0  0  0  0  0  0  0  0  0  0  0  0
  194.0320  173.3230  141.7510 C   0  0  0  0  0  2  0  0  0  0  0  0
  190.4470  177.1790  144.9450 C   0  0  2  0  0  3  0  0  0  0  0  0
  195.3640  174.8120  143.2940 C   0  0  1  0  0  3  0  0  0  0  0  0
  194.0320  174.4540  142.7130 C   0  0  0  0  0  0  0  0  0  0  0  0
  192.7510  176.1180  144.1270 C   0  0  0  0  0  2  0  0  0  0  0  0
  187.9230  176.8060  146.8800 C   0  0  2  0  0  3  0  0  0  0  0  0
  191.6430  174.6670  142.5750 O   0  0  0  0  0  0  0  0  0  0  0  0
  196.4070  173.9350  142.6250 C   0  0  0  0  0  2  0  0  0  0  0  0
  189.4230  175.6080  142.7620 O   0  0  0  0  0  0  0  0  0  0  0  0
  190.7980  176.7580  146.3800 C   0  0  0  0  0  2  0  0  0  0  0  0
  190.1480  175.4530  146.8580 C   0  0  2  0  0  3  0  0  0  0  0  0
  187.9760  177.6600  145.5930 C   0  0  2  0  0  3  0  0  0  0  0  0
  191.4150  177.6290  142.7060 C   0  0  0  0  0  1  0  0  0  0  0  0
  190.6770  175.3220  143.3620 C   0  0  2  0  0  3  0  0  0  0  0  0
  195.6060  172.4450  141.9570 S   0  0  0  0  0  0  0  0  0  0  0  0
  188.6110  175.4290  146.8020 C   0  0  0  0  0  2  0  0  0  0  0  0
  186.7760  176.7780  145.8920 C   0  0  0  0  0  2  0  0  0  0  0  0
  188.9540  177.0780  144.6060 C   0  0  0  0  0  0  0  0  0  0  0  0
  196.0680  176.9680  144.0280 O   0  0  0  0  0  1  0  0  0  0  0  0
  195.7120  176.2480  143.0590 C   0  0  0  0  0  0  0  0  0  0  0  0
  195.6620  176.7880  141.7790 O   0  0  0  0  0  0  0  0  0  0  0  0
  191.5700  176.1180  148.4180 C   0  0  0  0  0  1  0  0  0  0  0  0
  190.5710  175.1780  148.1600 O   0  0  0  0  0  0  0  0  0  0  0  0
  1 21  2  0  0  0  0
  2 16  1  6  0  0  0
  2  8  1  0  0  0  0
  2  5  1  0  0  0  0
  3  8  1  0  0  0  0
  4 18  1  0  0  0  0
  4  7  1  0  0  0  0
  5 13  1  1  0  0  0
  6 23  1  6  0  0  0
  7  3  2  0  0  0  0
  7  6  1  0  0  0  0
  9 20  1  6  0  0  0
 10  3  1  0  0  0  0
 11  6  1  0  0  0  0
 12 17  1  0  0  0  0
 12  1  1  0  0  0  0
 13 14  1  0  0  0  0
 14 26  1  1  0  0  0
 15 20  1  6  0  0  0
 15  9  1  0  0  0  0
 17 10  1  6  0  0  0
 17  2  1  0  0  0  0
 18 11  1  0  0  0  0
 19 14  1  0  0  0  0
 19  9  1  0  0  0  0
 21  5  1  0  0  0  0
 21 15  1  0  0  0  0
 23 22  1  0  0  0  0
 24 23  2  0  0  0  0
 26 25  1  0  0  0  0
M  END
>  <MODEL>
8

>  <REMARK>
 VINA RESULT:      -6.4      2.538      4.563
  Name = 
  2 active torsions:
  status: ('A' for Active; 'I' for Inactive)
    1  A    between atoms: C_6  and  C_8
    2  A    between atoms: C_17  and  O_24
                            x       y       z     vdW  Elec       q    Type
                         _______ _______ _______ _____ _____    ______ ____

>  <TORSDO>
F 2

$$$$
=
 OpenBabel11072408483D

 26 30  0  0  1  0  0  0  0  0999 V2000
  194.3830  172.4210  145.6270 C   0  0  0  0  0  3  0  0  0  0  0  0
  193.0790  174.8630  145.0150 C   0  0  2  0  0  0  0  0  0  0  0  0
  191.2150  175.0700  143.6370 C   0  0  0  0  0  0  0  0  0  0  0  0
  189.0690  174.6440  142.5250 C   0  0  0  0  0  2  0  0  0  0  0  0
  194.6030  174.8980  145.2140 C   0  0  2  0  0  3  0  0  0  0  0  0
  189.9030  177.0130  142.7750 C   0  0  1  0  0  3  0  0  0  0  0  0
  190.1150  175.5570  143.0520 C   0  0  0  0  0  0  0  0  0  0  0  0
  192.3790  175.8920  144.1330 C   0  0  0  0  0  2  0  0  0  0  0  0
  197.4510  173.5660  144.6080 C   0  0  2  0  0  3  0  0  0  0  0  0
  191.4200  173.7120  143.8660 O   0  0  0  0  0  0  0  0  0  0  0  0
  188.5600  177.1590  142.0820 C   0  0  0  0  0  2  0  0  0  0  0  0
  193.0720  172.4640  145.1140 O   0  0  0  0  0  0  0  0  0  0  0  0
  195.4140  175.5970  144.1130 C   0  0  0  0  0  2  0  0  0  0  0  0
  195.8170  174.7050  142.9310 C   0  0  2  0  0  3  0  0  0  0  0  0
  196.6380  173.4430  145.9170 C   0  0  2  0  0  3  0  0  0  0  0  0
  192.4220  174.9100  146.3960 C   0  0  0  0  0  1  0  0  0  0  0  0
  192.7540  173.5780  144.2950 C   0  0  2  0  0  3  0  0  0  0  0  0
  188.1070  175.5790  141.3040 S   0  0  0  0  0  0  0  0  0  0  0  0
  196.6410  173.4600  143.3020 C   0  0  0  0  0  2  0  0  0  0  0  0
  197.3250  172.2300  145.3100 C   0  0  0  0  0  2  0  0  0  0  0  0
  195.1610  173.5330  145.6390 C   0  0  0  0  0  0  0  0  0  0  0  0
  190.7360  178.7540  144.1750 O   0  0  0  0  0  0  0  0  0  0  0  0
  189.8960  177.8280  144.0300 C   0  0  0  0  0  0  0  0  0  0  0  0
  188.9590  177.5830  145.0270 O   0  0  0  0  0  1  0  0  0  0  0  0
  196.7970  176.6700  142.6530 C   0  0  0  0  0  1  0  0  0  0  0  0
  196.5220  175.4690  141.9980 O   0  0  0  0  0  0  0  0  0  0  0  0
  1 21  2  0  0  0  0
  2  5  1  0  0  0  0
  2 16  1  1  0  0  0
  3 10  1  0  0  0  0
  3  8  1  0  0  0  0
  4  7  1  0  0  0  0
  5 13  1  6  0  0  0
  5 21  1  0  0  0  0
  6  7  1  0  0  0  0
  6 23  1  1  0  0  0
  7  3  2  0  0  0  0
  8  2  1  0  0  0  0
  9 19  1  6  0  0  0
  9 20  1  0  0  0  0
  9 15  1  0  0  0  0
 11  6  1  0  0  0  0
 12  1  1  0  0  0  0
 14 26  1  6  0  0  0
 14 19  1  0  0  0  0
 14 13  1  0  0  0  0
 15 20  1  6  0  0  0
 17 10  1  1  0  0  0
 17  2  1  0  0  0  0
 17 12  1  0  0  0  0
 18 11  1  0  0  0  0
 18  4  1  0  0  0  0
 21 15  1  0  0  0  0
 23 22  2  0  0  0  0
 23 24  1  0  0  0  0
 26 25  1  0  0  0  0
M  END
>  <MODEL>
9

>  <REMARK>
 VINA RESULT:      -6.3      3.225      7.910
  Name = 
  2 active torsions:
  status: ('A' for Active; 'I' for Inactive)
    1  A    between atoms: C_6  and  C_8
    2  A    between atoms: C_17  and  O_24
                            x       y       z     vdW  Elec       q    Type
                         _______ _______ _______ _____ _____    ______ ____

>  <TORSDO>
F 2

$$$$
