=
 OpenBabel11062419343D

 40 42  0  0  1  0  0  0  0  0999 V2000
  193.7630  175.7470  145.7040 C   0  0  1  0  0  3  0  0  0  0  0  0
  194.0820  177.2350  145.6700 C   0  0  0  0  0  1  0  0  0  0  0  0
  195.0380  174.9220  145.8650 C   0  0  0  0  0  2  0  0  0  0  0  0
  195.1030  173.6780  144.9670 C   0  0  2  0  0  3  0  0  0  0  0  0
  194.3370  171.2850  145.4770 C   0  0  0  0  0  2  0  0  0  0  0  0
  196.0170  169.5630  145.5230 O   0  0  0  0  0  0  0  0  0  0  0  0
  197.0050  170.4570  145.9670 C   0  0  0  0  0  2  0  0  0  0  0  0
  196.8000  171.8320  145.3220 C   0  0  0  0  0  2  0  0  0  0  0  0
  195.4100  172.3580  145.6860 C   0  0  0  0  0  3  0  0  0  0  0  0
  194.8080  169.9760  146.1120 C   0  0  0  0  0  2  0  0  0  0  0  0
  196.1180  173.9180  143.4680 S   0  0  0  0  0  0  0  0  0  0  0  0
  192.5810  173.1460  140.6410 C   0  0  0  0  0  0  0  0  0  0  0  0
  193.4210  172.0920  141.0250 C   0  0  0  0  0  3  0  0  0  0  0  0
  193.9030  174.6690  141.9950 C   0  0  0  0  0  3  0  0  0  0  0  0
  194.7370  173.6140  142.3720 C   0  0  0  0  0  0  0  0  0  0  0  0
  194.4960  172.3250  141.8860 C   0  0  0  0  0  3  0  0  0  0  0  0
  192.8300  174.4370  141.1330 C   0  0  0  0  0  3  0  0  0  0  0  0
  190.6120  171.7680  139.8970 N   0  0  0  0  0  1  0  0  0  0  0  0
  191.2240  173.7040  138.7790 O   0  0  0  0  0  0  0  0  0  0  0  0
  191.4530  172.9060  139.7250 C   0  0  0  0  0  0  0  0  0  0  0  0
  192.8000  175.4360  146.8440 C   0  0  0  0  0  2  0  0  0  0  0  0
  192.1980  176.6110  147.3170 O   0  0  0  0  0  0  0  0  0  0  0  0
  190.9000  176.2320  147.6720 C   0  0  0  0  0  2  0  0  0  0  0  0
  189.8900  177.1140  146.9590 C   0  0  0  0  0  2  0  0  0  0  0  0
  188.6470  177.3310  144.8490 C   0  0  2  0  0  3  0  0  0  0  0  0
  189.9310  176.8170  144.5870 O   0  0  0  0  0  0  0  0  0  0  0  0
  189.3070  176.3760  145.7680 C   0  0  1  0  0  3  0  0  0  0  0  0
  187.6200  176.5850  144.0060 C   0  0  2  0  0  3  0  0  0  0  0  0
  187.8530  177.9490  142.0800 O   0  0  0  0  0  0  0  0  0  0  0  0
  187.8200  176.8140  142.5350 C   0  0  0  0  0  0  0  0  0  0  0  0
  187.9620  175.6340  141.6250 C   0  0  0  0  0  2  0  0  0  0  0  0
  189.2810  174.8950  141.8460 C   0  0  0  0  0  2  0  0  0  0  0  0
  189.1060  173.6310  142.6780 C   0  0  0  0  0  2  0  0  0  0  0  0
  191.1910  173.2570  144.3030 C   0  0  0  0  0  3  0  0  0  0  0  0
  190.2510  173.4210  143.5680 C   0  0  0  0  0  0  0  0  0  0  0  0
  186.1960  176.9080  144.4470 C   0  0  0  0  0  2  0  0  0  0  0  0
  186.1930  177.7680  145.5500 O   0  0  0  0  0  0  0  0  0  0  0  0
  185.4720  180.0740  144.1900 O   0  0  0  0  0  0  0  0  0  0  0  0
  183.6910  178.9520  145.7430 O   0  0  0  0  0  0  0  0  0  0  0  0
  185.0790  178.9730  145.1430 P   0  0  0  0  0  0  0  0  0  0  0  0
  1  2  1  1  0  0  0
  1  3  1  0  0  0  0
  1 21  1  0  0  0  0
  4  9  1  0  0  0  0
  4  3  1  1  0  0  0
  5  9  1  0  0  0  0
  5 10  1  0  0  0  0
  6  7  1  0  0  0  0
  6 10  1  0  0  0  0
  8  9  1  0  0  0  0
  8  7  1  0  0  0  0
 11  4  1  0  0  0  0
 12 13  2  0  0  0  0
 12 17  1  0  0  0  0
 13 16  1  0  0  0  0
 14 15  1  0  0  0  0
 15 11  1  0  0  0  0
 16 15  2  0  0  0  0
 17 14  2  0  0  0  0
 19 20  2  0  0  0  0
 20 18  1  0  0  0  0
 20 12  1  0  0  0  0
 21 22  1  0  0  0  0
 22 23  1  0  0  0  0
 24 23  1  0  0  0  0
 25 28  1  6  0  0  0
 25 27  1  0  0  0  0
 26 25  1  0  0  0  0
 26 27  1  0  0  0  0
 27 24  1  1  0  0  0
 28 36  1  1  0  0  0
 29 30  2  0  0  0  0
 30 28  1  0  0  0  0
 31 32  1  0  0  0  0
 31 30  1  0  0  0  0
 32 33  1  0  0  0  0
 33 35  1  0  0  0  0
 35 34  3  0  0  0  0
 36 37  1  0  0  0  0
 38 40  2  0  0  0  0
 40 37  1  0  0  0  0
 40 39  2  0  0  0  0
M  END
>  <MODEL>
1

>  <REMARK>
 VINA RESULT:      -5.1      0.000      0.000
  Name = 
  20 active torsions:
  status: ('A' for Active; 'I' for Inactive)
    1  A    between atoms: C_2  and  C_8
    2  A    between atoms: C_3  and  C_32
    3  A    between atoms: C_3  and  C_33
    4  A    between atoms: C_5  and  C_38
    5  A    between atoms: O_6  and  P_35
    6  A    between atoms: O_6  and  C_40
    7  A    between atoms: C_8  and  C_13
    8  A    between atoms: C_8  and  C_40
    9  A    between atoms: C_12  and  C_21
   10  A    between atoms: C_12  and  C_30
   11  A    between atoms: C_13  and  C_39
   12  A    between atoms: C_20  and  O_28
   13  A    between atoms: C_20  and  C_37
   14  A    between atoms: C_21  and  C_39
   15  A    between atoms: C_22  and  C_27
   16  A    between atoms: C_24  and  S_31
   17  A    between atoms: C_27  and  S_31
   18  A    between atoms: C_27  and  C_32
   19  A    between atoms: O_28  and  C_33
   20  A    between atoms: C_34  and  C_37
                            x       y       z     vdW  Elec       q    Type
                         _______ _______ _______ _____ _____    ______ ____

>  <TORSDO>
F 20

$$$$
=
 OpenBabel11062419343D

 40 42  0  0  1  0  0  0  0  0999 V2000
  191.2290  171.4670  142.0220 C   0  0  1  0  0  3  0  0  0  0  0  0
  191.6100  170.3330  141.0810 C   0  0  0  0  0  1  0  0  0  0  0  0
  189.7480  171.8090  141.8890 C   0  0  0  0  0  2  0  0  0  0  0  0
  189.4680  173.2630  141.4850 C   0  0  2  0  0  3  0  0  0  0  0  0
  190.9120  173.4840  139.3770 C   0  0  0  0  0  2  0  0  0  0  0  0
  190.0170  172.6210  137.3170 O   0  0  0  0  0  0  0  0  0  0  0  0
  188.6950  172.8960  137.7090 C   0  0  0  0  0  2  0  0  0  0  0  0
  188.5300  172.6540  139.2120 C   0  0  0  0  0  2  0  0  0  0  0  0
  189.5050  173.5510  139.9780 C   0  0  0  0  0  3  0  0  0  0  0  0
  190.8160  173.6440  137.8590 C   0  0  0  0  0  2  0  0  0  0  0  0
  190.4160  174.4820  142.4590 S   0  0  0  0  0  0  0  0  0  0  0  0
  186.9470  177.4920  142.5010 C   0  0  0  0  0  0  0  0  0  0  0  0
  186.6940  176.1200  142.6310 C   0  0  0  0  0  3  0  0  0  0  0  0
  189.3260  177.0190  142.3540 C   0  0  0  0  0  3  0  0  0  0  0  0
  189.0650  175.6540  142.4830 C   0  0  0  0  0  0  0  0  0  0  0  0
  187.7480  175.2040  142.6200 C   0  0  0  0  0  3  0  0  0  0  0  0
  188.2720  177.9360  142.3620 C   0  0  0  0  0  3  0  0  0  0  0  0
  184.8300  178.4060  141.4940 N   0  0  0  0  0  1  0  0  0  0  0  0
  185.7700  179.3460  143.3920 O   0  0  0  0  0  0  0  0  0  0  0  0
  185.8370  178.4600  142.5010 C   0  0  0  0  0  0  0  0  0  0  0  0
  191.5440  171.0870  143.4650 C   0  0  0  0  0  2  0  0  0  0  0  0
  192.7940  170.4580  143.5500 O   0  0  0  0  0  0  0  0  0  0  0  0
  193.4040  171.0200  144.6750 C   0  0  0  0  0  2  0  0  0  0  0  0
  194.0090  172.3660  144.3180 C   0  0  0  0  0  2  0  0  0  0  0  0
  193.1370  174.5580  145.0090 C   0  0  2  0  0  3  0  0  0  0  0  0
  192.4610  173.5420  145.7100 O   0  0  0  0  0  0  0  0  0  0  0  0
  193.8320  173.3350  145.4720 C   0  0  1  0  0  3  0  0  0  0  0  0
  193.4560  175.7050  145.9610 C   0  0  2  0  0  3  0  0  0  0  0  0
  192.0980  176.6770  147.6450 O   0  0  0  0  0  0  0  0  0  0  0  0
  192.2160  176.3870  146.4620 C   0  0  0  0  0  0  0  0  0  0  0  0
  191.1120  176.6950  145.4990 C   0  0  0  0  0  2  0  0  0  0  0  0
  189.7450  176.2760  146.0390 C   0  0  0  0  0  2  0  0  0  0  0  0
  188.8340  177.4680  146.3010 C   0  0  0  0  0  2  0  0  0  0  0  0
  186.2600  176.7750  146.1530 C   0  0  0  0  0  3  0  0  0  0  0  0
  187.4220  177.0830  146.2190 C   0  0  0  0  0  0  0  0  0  0  0  0
  194.4390  176.6910  145.3360 C   0  0  0  0  0  2  0  0  0  0  0  0
  194.6040  176.4410  143.9700 O   0  0  0  0  0  0  0  0  0  0  0  0
  197.1750  177.1780  143.2420 O   0  0  0  0  0  0  0  0  0  0  0  0
  196.8060  174.7670  144.1860 O   0  0  0  0  0  0  0  0  0  0  0  0
  196.2550  176.1200  143.7950 P   0  0  0  0  0  0  0  0  0  0  0  0
  1  2  1  6  0  0  0
  1 21  1  0  0  0  0
  3  1  1  0  0  0  0
  4  3  1  6  0  0  0
  4 11  1  0  0  0  0
  5  9  1  0  0  0  0
  6  7  1  0  0  0  0
  6 10  1  0  0  0  0
  7  8  1  0  0  0  0
  8  9  1  0  0  0  0
  9  4  1  0  0  0  0
 10  5  1  0  0  0  0
 11 15  1  0  0  0  0
 12 20  1  0  0  0  0
 12 13  1  0  0  0  0
 14 17  1  0  0  0  0
 14 15  2  0  0  0  0
 15 16  1  0  0  0  0
 16 13  2  0  0  0  0
 17 12  2  0  0  0  0
 18 20  1  0  0  0  0
 20 19  2  0  0  0  0
 21 22  1  0  0  0  0
 22 23  1  0  0  0  0
 24 23  1  0  0  0  0
 25 27  1  0  0  0  0
 25 26  1  0  0  0  0
 25 28  1  1  0  0  0
 27 24  1  6  0  0  0
 27 26  1  0  0  0  0
 28 36  1  6  0  0  0
 28 30  1  0  0  0  0
 30 29  2  0  0  0  0
 31 32  1  0  0  0  0
 31 30  1  0  0  0  0
 32 33  1  0  0  0  0
 34 35  3  0  0  0  0
 35 33  1  0  0  0  0
 37 36  1  0  0  0  0
 38 40  2  0  0  0  0
 40 37  1  0  0  0  0
 40 39  2  0  0  0  0
M  END
>  <MODEL>
2

>  <REMARK>
 VINA RESULT:      -5.0      3.399      7.846
  Name = 
  20 active torsions:
  status: ('A' for Active; 'I' for Inactive)
    1  A    between atoms: C_2  and  C_8
    2  A    between atoms: C_3  and  C_32
    3  A    between atoms: C_3  and  C_33
    4  A    between atoms: C_5  and  C_38
    5  A    between atoms: O_6  and  P_35
    6  A    between atoms: O_6  and  C_40
    7  A    between atoms: C_8  and  C_13
    8  A    between atoms: C_8  and  C_40
    9  A    between atoms: C_12  and  C_21
   10  A    between atoms: C_12  and  C_30
   11  A    between atoms: C_13  and  C_39
   12  A    between atoms: C_20  and  O_28
   13  A    between atoms: C_20  and  C_37
   14  A    between atoms: C_21  and  C_39
   15  A    between atoms: C_22  and  C_27
   16  A    between atoms: C_24  and  S_31
   17  A    between atoms: C_27  and  S_31
   18  A    between atoms: C_27  and  C_32
   19  A    between atoms: O_28  and  C_33
   20  A    between atoms: C_34  and  C_37
                            x       y       z     vdW  Elec       q    Type
                         _______ _______ _______ _____ _____    ______ ____

>  <TORSDO>
F 20

$$$$
=
 OpenBabel11062419343D

 40 42  0  0  1  0  0  0  0  0999 V2000
  189.8470  177.4660  143.7230 C   0  0  1  0  0  3  0  0  0  0  0  0
  191.1660  178.2250  143.6840 C   0  0  0  0  0  1  0  0  0  0  0  0
  189.0530  177.8200  144.9780 C   0  0  0  0  0  2  0  0  0  0  0  0
  188.0510  176.7420  145.4160 C   0  0  2  0  0  3  0  0  0  0  0  0
  185.8240  177.0540  146.6500 C   0  0  0  0  0  2  0  0  0  0  0  0
  184.4570  178.9330  146.0250 O   0  0  0  0  0  0  0  0  0  0  0  0
  184.9170  178.9010  144.6970 C   0  0  0  0  0  2  0  0  0  0  0  0
  186.3980  178.5070  144.6620 C   0  0  0  0  0  2  0  0  0  0  0  0
  186.5710  177.1340  145.3140 C   0  0  0  0  0  3  0  0  0  0  0  0
  184.4070  177.5970  146.4640 C   0  0  0  0  0  2  0  0  0  0  0  0
  188.4680  175.9710  147.0180 S   0  0  0  0  0  0  0  0  0  0  0  0
  192.5250  174.4320  145.5120 C   0  0  0  0  0  0  0  0  0  0  0  0
  191.3330  173.9070  144.9930 C   0  0  0  0  0  3  0  0  0  0  0  0
  191.2300  175.9040  146.9470 C   0  0  0  0  0  3  0  0  0  0  0  0
  190.0470  175.3760  146.4260 C   0  0  0  0  0  0  0  0  0  0  0  0
  190.0990  174.3750  145.4500 C   0  0  0  0  0  3  0  0  0  0  0  0
  192.4640  175.4350  146.4930 C   0  0  0  0  0  3  0  0  0  0  0  0
  194.1940  174.0480  143.6690 N   0  0  0  0  0  1  0  0  0  0  0  0
  194.6300  173.3960  145.8490 O   0  0  0  0  0  0  0  0  0  0  0  0
  193.8290  173.9330  145.0410 C   0  0  0  0  0  0  0  0  0  0  0  0
  189.0180  177.7800  142.4820 C   0  0  0  0  0  2  0  0  0  0  0  0
  188.9370  176.6590  141.6440 O   0  0  0  0  0  0  0  0  0  0  0  0
  187.6160  176.2150  141.7640 C   0  0  0  0  0  2  0  0  0  0  0  0
  187.5850  174.8590  142.4460 C   0  0  0  0  0  2  0  0  0  0  0  0
  189.1660  173.0060  142.1100 C   0  0  2  0  0  3  0  0  0  0  0  0
  187.8470  172.5160  142.0490 O   0  0  0  0  0  0  0  0  0  0  0  0
  188.0710  173.7870  141.4880 C   0  0  1  0  0  3  0  0  0  0  0  0
  190.0000  172.3560  141.0130 C   0  0  2  0  0  3  0  0  0  0  0  0
  190.5170  170.0870  141.4710 O   0  0  0  0  0  0  0  0  0  0  0  0
  190.8730  171.2550  141.5430 C   0  0  0  0  0  0  0  0  0  0  0  0
  192.1830  171.6040  142.1780 C   0  0  0  0  0  2  0  0  0  0  0  0
  192.4580  170.7650  143.4250 C   0  0  0  0  0  2  0  0  0  0  0  0
  193.9140  170.3290  143.5230 C   0  0  0  0  0  2  0  0  0  0  0  0
  194.5980  169.8390  146.0560 C   0  0  0  0  0  3  0  0  0  0  0  0
  194.2940  170.0620  144.9130 C   0  0  0  0  0  0  0  0  0  0  0  0
  190.7990  173.3940  140.2310 C   0  0  0  0  0  2  0  0  0  0  0  0
  191.4450  172.8120  139.1360 O   0  0  0  0  0  0  0  0  0  0  0  0
  190.5040  174.2910  136.9880 O   0  0  0  0  0  0  0  0  0  0  0  0
  189.3090  172.0310  137.5460 O   0  0  0  0  0  0  0  0  0  0  0  0
  190.3840  173.0540  137.8410 P   0  0  0  0  0  0  0  0  0  0  0  0
  1  2  1  6  0  0  0
  1  3  1  0  0  0  0
  4  3  1  1  0  0  0
  4 11  1  0  0  0  0
  6 10  1  0  0  0  0
  7  6  1  0  0  0  0
  8  7  1  0  0  0  0
  8  9  1  0  0  0  0
  9  4  1  0  0  0  0
  9  5  1  0  0  0  0
 10  5  1  0  0  0  0
 12 17  1  0  0  0  0
 13 16  1  0  0  0  0
 13 12  2  0  0  0  0
 15 14  1  0  0  0  0
 15 11  1  0  0  0  0
 16 15  2  0  0  0  0
 17 14  2  0  0  0  0
 18 20  1  0  0  0  0
 20 12  1  0  0  0  0
 20 19  2  0  0  0  0
 21  1  1  0  0  0  0
 22 23  1  0  0  0  0
 22 21  1  0  0  0  0
 23 24  1  0  0  0  0
 25 28  1  6  0  0  0
 26 25  1  0  0  0  0
 27 26  1  0  0  0  0
 27 25  1  0  0  0  0
 27 24  1  1  0  0  0
 28 36  1  1  0  0  0
 28 30  1  0  0  0  0
 29 30  2  0  0  0  0
 30 31  1  0  0  0  0
 31 32  1  0  0  0  0
 32 33  1  0  0  0  0
 33 35  1  0  0  0  0
 35 34  3  0  0  0  0
 37 36  1  0  0  0  0
 38 40  2  0  0  0  0
 39 40  2  0  0  0  0
 40 37  1  0  0  0  0
M  END
>  <MODEL>
3

>  <REMARK>
 VINA RESULT:      -4.9      3.104      7.998
  Name = 
  20 active torsions:
  status: ('A' for Active; 'I' for Inactive)
    1  A    between atoms: C_2  and  C_8
    2  A    between atoms: C_3  and  C_32
    3  A    between atoms: C_3  and  C_33
    4  A    between atoms: C_5  and  C_38
    5  A    between atoms: O_6  and  P_35
    6  A    between atoms: O_6  and  C_40
    7  A    between atoms: C_8  and  C_13
    8  A    between atoms: C_8  and  C_40
    9  A    between atoms: C_12  and  C_21
   10  A    between atoms: C_12  and  C_30
   11  A    between atoms: C_13  and  C_39
   12  A    between atoms: C_20  and  O_28
   13  A    between atoms: C_20  and  C_37
   14  A    between atoms: C_21  and  C_39
   15  A    between atoms: C_22  and  C_27
   16  A    between atoms: C_24  and  S_31
   17  A    between atoms: C_27  and  S_31
   18  A    between atoms: C_27  and  C_32
   19  A    between atoms: O_28  and  C_33
   20  A    between atoms: C_34  and  C_37
                            x       y       z     vdW  Elec       q    Type
                         _______ _______ _______ _____ _____    ______ ____

>  <TORSDO>
F 20

$$$$
=
 OpenBabel11062419343D

 40 42  0  0  1  0  0  0  0  0999 V2000
  194.2730  175.5190  145.4270 C   0  0  1  0  0  3  0  0  0  0  0  0
  194.5060  177.0220  145.4880 C   0  0  0  0  0  1  0  0  0  0  0  0
  195.4110  174.7650  146.1090 C   0  0  0  0  0  2  0  0  0  0  0  0
  196.0700  173.6890  145.2340 C   0  0  2  0  0  3  0  0  0  0  0  0
  194.7510  171.5200  145.5990 C   0  0  0  0  0  2  0  0  0  0  0  0
  195.9410  169.4410  145.3760 O   0  0  0  0  0  0  0  0  0  0  0  0
  197.1450  170.0150  145.8180 C   0  0  0  0  0  2  0  0  0  0  0  0
  197.2610  171.4550  145.3070 C   0  0  0  0  0  2  0  0  0  0  0  0
  196.0700  172.2690  145.8160 C   0  0  0  0  0  3  0  0  0  0  0  0
  194.9070  170.0790  146.0860 C   0  0  0  0  0  2  0  0  0  0  0  0
  197.7030  174.1840  144.5820 S   0  0  0  0  0  0  0  0  0  0  0  0
  196.0810  174.8950  140.3440 C   0  0  0  0  0  0  0  0  0  0  0  0
  196.3270  173.5920  140.7970 C   0  0  0  0  0  3  0  0  0  0  0  0
  196.8210  175.7600  142.4900 C   0  0  0  0  0  3  0  0  0  0  0  0
  197.0650  174.4590  142.9340 C   0  0  0  0  0  0  0  0  0  0  0  0
  196.8190  173.3740  142.0860 C   0  0  0  0  0  3  0  0  0  0  0  0
  196.3310  175.9790  141.2010 C   0  0  0  0  0  3  0  0  0  0  0  0
  194.1700  175.1540  138.7270 N   0  0  0  0  0  1  0  0  0  0  0  0
  196.3750  175.3060  138.0280 O   0  0  0  0  0  0  0  0  0  0  0  0
  195.5720  175.1290  138.9810 C   0  0  0  0  0  0  0  0  0  0  0  0
  192.9470  175.1610  146.0890 C   0  0  0  0  0  2  0  0  0  0  0  0
  192.5070  176.2060  146.9140 O   0  0  0  0  0  0  0  0  0  0  0  0
  191.1910  175.8710  147.2480 C   0  0  0  0  0  2  0  0  0  0  0  0
  190.2430  176.9550  146.7670 C   0  0  0  0  0  2  0  0  0  0  0  0
  189.1180  177.6710  144.7010 C   0  0  2  0  0  3  0  0  0  0  0  0
  190.2610  176.9150  144.3760 O   0  0  0  0  0  0  0  0  0  0  0  0
  189.5320  176.4990  145.5060 C   0  0  1  0  0  3  0  0  0  0  0  0
  187.9670  177.2680  143.7880 C   0  0  2  0  0  3  0  0  0  0  0  0
  188.5260  178.2840  141.7190 O   0  0  0  0  0  0  0  0  0  0  0  0
  188.3720  177.2430  142.3420 C   0  0  0  0  0  0  0  0  0  0  0  0
  188.5720  175.9240  141.6620 C   0  0  0  0  0  2  0  0  0  0  0  0
  188.0860  174.7570  142.5200 C   0  0  0  0  0  2  0  0  0  0  0  0
  188.9930  173.5370  142.4110 C   0  0  0  0  0  2  0  0  0  0  0  0
  190.0040  172.8760  144.7900 C   0  0  0  0  0  3  0  0  0  0  0  0
  189.5530  173.1750  143.7150 C   0  0  0  0  0  0  0  0  0  0  0  0
  186.7370  178.1410  144.0220 C   0  0  0  0  0  2  0  0  0  0  0  0
  186.6220  178.4970  145.3700 O   0  0  0  0  0  0  0  0  0  0  0  0
  184.9150  176.6280  146.4990 O   0  0  0  0  0  0  0  0  0  0  0  0
  183.8710  178.8210  145.5270 O   0  0  0  0  0  0  0  0  0  0  0  0
  185.0820  177.9630  145.8180 P   0  0  0  0  0  0  0  0  0  0  0  0
  1  2  1  1  0  0  0
  1 21  1  0  0  0  0
  1  3  1  0  0  0  0
  4  9  1  0  0  0  0
  4  3  1  1  0  0  0
  5  9  1  0  0  0  0
  5 10  1  0  0  0  0
  6  7  1  0  0  0  0
  6 10  1  0  0  0  0
  8  9  1  0  0  0  0
  8  7  1  0  0  0  0
 11  4  1  0  0  0  0
 12 13  2  0  0  0  0
 12 17  1  0  0  0  0
 13 16  1  0  0  0  0
 14 15  1  0  0  0  0
 15 11  1  0  0  0  0
 16 15  2  0  0  0  0
 17 14  2  0  0  0  0
 18 20  1  0  0  0  0
 19 20  2  0  0  0  0
 20 12  1  0  0  0  0
 21 22  1  0  0  0  0
 22 23  1  0  0  0  0
 24 23  1  0  0  0  0
 25 28  1  6  0  0  0
 25 27  1  0  0  0  0
 26 25  1  0  0  0  0
 26 27  1  0  0  0  0
 27 24  1  1  0  0  0
 28 36  1  6  0  0  0
 29 30  2  0  0  0  0
 30 28  1  0  0  0  0
 31 30  1  0  0  0  0
 31 32  1  0  0  0  0
 33 32  1  0  0  0  0
 33 35  1  0  0  0  0
 35 34  3  0  0  0  0
 36 37  1  0  0  0  0
 37 40  1  0  0  0  0
 39 40  2  0  0  0  0
 40 38  2  0  0  0  0
M  END
>  <MODEL>
4

>  <REMARK>
 VINA RESULT:      -4.9      1.928      2.117
  Name = 
  20 active torsions:
  status: ('A' for Active; 'I' for Inactive)
    1  A    between atoms: C_2  and  C_8
    2  A    between atoms: C_3  and  C_32
    3  A    between atoms: C_3  and  C_33
    4  A    between atoms: C_5  and  C_38
    5  A    between atoms: O_6  and  P_35
    6  A    between atoms: O_6  and  C_40
    7  A    between atoms: C_8  and  C_13
    8  A    between atoms: C_8  and  C_40
    9  A    between atoms: C_12  and  C_21
   10  A    between atoms: C_12  and  C_30
   11  A    between atoms: C_13  and  C_39
   12  A    between atoms: C_20  and  O_28
   13  A    between atoms: C_20  and  C_37
   14  A    between atoms: C_21  and  C_39
   15  A    between atoms: C_22  and  C_27
   16  A    between atoms: C_24  and  S_31
   17  A    between atoms: C_27  and  S_31
   18  A    between atoms: C_27  and  C_32
   19  A    between atoms: O_28  and  C_33
   20  A    between atoms: C_34  and  C_37
                            x       y       z     vdW  Elec       q    Type
                         _______ _______ _______ _____ _____    ______ ____

>  <TORSDO>
F 20

$$$$
=
 OpenBabel11062419343D

 40 42  0  0  1  0  0  0  0  0999 V2000
  189.7770  177.5460  143.7190 C   0  0  1  0  0  3  0  0  0  0  0  0
  189.3590  176.2420  143.0540 C   0  0  0  0  0  1  0  0  0  0  0  0
  189.1710  177.6640  145.1140 C   0  0  0  0  0  2  0  0  0  0  0  0
  188.0530  176.6520  145.4050 C   0  0  2  0  0  3  0  0  0  0  0  0
  185.7700  177.1760  146.4480 C   0  0  0  0  0  2  0  0  0  0  0  0
  184.6180  179.1430  145.6780 O   0  0  0  0  0  0  0  0  0  0  0  0
  185.1770  179.0390  144.3930 C   0  0  0  0  0  2  0  0  0  0  0  0
  186.6180  178.5250  144.4860 C   0  0  0  0  0  2  0  0  0  0  0  0
  186.6240  177.1600  145.1760 C   0  0  0  0  0  3  0  0  0  0  0  0
  184.4220  177.8280  146.1380 C   0  0  0  0  0  2  0  0  0  0  0  0
  188.2500  175.7930  147.0040 S   0  0  0  0  0  0  0  0  0  0  0  0
  192.3410  174.0690  145.8280 C   0  0  0  0  0  0  0  0  0  0  0  0
  192.2520  175.0790  146.7960 C   0  0  0  0  0  3  0  0  0  0  0  0
  189.9240  174.1110  145.5880 C   0  0  0  0  0  3  0  0  0  0  0  0
  189.8430  175.1180  146.5520 C   0  0  0  0  0  0  0  0  0  0  0  0
  191.0080  175.6030  147.1560 C   0  0  0  0  0  3  0  0  0  0  0  0
  191.1680  173.5890  145.2270 C   0  0  0  0  0  3  0  0  0  0  0  0
  193.7450  172.2480  144.8070 N   0  0  0  0  0  1  0  0  0  0  0  0
  194.7030  174.1770  145.6640 O   0  0  0  0  0  0  0  0  0  0  0  0
  193.6520  173.5220  145.4390 C   0  0  0  0  0  0  0  0  0  0  0  0
  191.2970  177.6320  143.8060 C   0  0  0  0  0  2  0  0  0  0  0  0
  191.8950  176.9140  142.7610 O   0  0  0  0  0  0  0  0  0  0  0  0
  193.0380  176.3420  143.3260 C   0  0  0  0  0  2  0  0  0  0  0  0
  193.7900  175.5420  142.2760 C   0  0  0  0  0  2  0  0  0  0  0  0
  193.3050  173.5310  140.9480 C   0  0  2  0  0  3  0  0  0  0  0  0
  192.3090  173.6970  141.9290 O   0  0  0  0  0  0  0  0  0  0  0  0
  192.8070  174.8710  141.3340 C   0  0  1  0  0  3  0  0  0  0  0  0
  192.6560  173.1180  139.6320 C   0  0  2  0  0  3  0  0  0  0  0  0
  192.2790  170.8440  140.1890 O   0  0  0  0  0  0  0  0  0  0  0  0
  191.8000  171.8930  139.7820 C   0  0  0  0  0  0  0  0  0  0  0  0
  190.3520  171.9640  139.4110 C   0  0  0  0  0  2  0  0  0  0  0  0
  189.8300  173.4010  139.4080 C   0  0  0  0  0  2  0  0  0  0  0  0
  188.5560  173.5580  140.2280 C   0  0  0  0  0  2  0  0  0  0  0  0
  188.7830  172.3360  142.5900 C   0  0  0  0  0  3  0  0  0  0  0  0
  188.6770  172.8900  141.5260 C   0  0  0  0  0  0  0  0  0  0  0  0
  193.6940  172.9590  138.5240 C   0  0  0  0  0  2  0  0  0  0  0  0
  193.3820  173.7620  137.4230 O   0  0  0  0  0  0  0  0  0  0  0  0
  195.3520  175.2350  138.7010 O   0  0  0  0  0  0  0  0  0  0  0  0
  194.7640  175.8500  136.2280 O   0  0  0  0  0  0  0  0  0  0  0  0
  194.5440  174.9910  137.4520 P   0  0  0  0  0  0  0  0  0  0  0  0
  1  2  1  1  0  0  0
  1 21  1  0  0  0  0
  1  3  1  0  0  0  0
  4  3  1  1  0  0  0
  4 11  1  0  0  0  0
  6 10  1  0  0  0  0
  7  8  1  0  0  0  0
  7  6  1  0  0  0  0
  8  9  1  0  0  0  0
  9  4  1  0  0  0  0
  9  5  1  0  0  0  0
 10  5  1  0  0  0  0
 12 13  1  0  0  0  0
 13 16  2  0  0  0  0
 14 15  2  0  0  0  0
 15 11  1  0  0  0  0
 15 16  1  0  0  0  0
 17 14  1  0  0  0  0
 17 12  2  0  0  0  0
 18 20  1  0  0  0  0
 20 19  2  0  0  0  0
 20 12  1  0  0  0  0
 22 23  1  0  0  0  0
 22 21  1  0  0  0  0
 24 23  1  0  0  0  0
 25 28  1  6  0  0  0
 25 27  1  0  0  0  0
 25 26  1  0  0  0  0
 27 26  1  0  0  0  0
 27 24  1  1  0  0  0
 28 36  1  6  0  0  0
 28 30  1  0  0  0  0
 30 29  2  0  0  0  0
 31 30  1  0  0  0  0
 32 31  1  0  0  0  0
 32 33  1  0  0  0  0
 33 35  1  0  0  0  0
 35 34  3  0  0  0  0
 37 40  1  0  0  0  0
 37 36  1  0  0  0  0
 39 40  2  0  0  0  0
 40 38  2  0  0  0  0
M  END
>  <MODEL>
5

>  <REMARK>
 VINA RESULT:      -4.8      3.431      8.315
  Name = 
  20 active torsions:
  status: ('A' for Active; 'I' for Inactive)
    1  A    between atoms: C_2  and  C_8
    2  A    between atoms: C_3  and  C_32
    3  A    between atoms: C_3  and  C_33
    4  A    between atoms: C_5  and  C_38
    5  A    between atoms: O_6  and  P_35
    6  A    between atoms: O_6  and  C_40
    7  A    between atoms: C_8  and  C_13
    8  A    between atoms: C_8  and  C_40
    9  A    between atoms: C_12  and  C_21
   10  A    between atoms: C_12  and  C_30
   11  A    between atoms: C_13  and  C_39
   12  A    between atoms: C_20  and  O_28
   13  A    between atoms: C_20  and  C_37
   14  A    between atoms: C_21  and  C_39
   15  A    between atoms: C_22  and  C_27
   16  A    between atoms: C_24  and  S_31
   17  A    between atoms: C_27  and  S_31
   18  A    between atoms: C_27  and  C_32
   19  A    between atoms: O_28  and  C_33
   20  A    between atoms: C_34  and  C_37
                            x       y       z     vdW  Elec       q    Type
                         _______ _______ _______ _____ _____    ______ ____

>  <TORSDO>
F 20

$$$$
=
 OpenBabel11062419343D

 40 42  0  0  1  0  0  0  0  0999 V2000
  188.4870  175.7620  146.1440 C   0  0  1  0  0  3  0  0  0  0  0  0
  187.4050  176.6110  146.7970 C   0  0  0  0  0  1  0  0  0  0  0  0
  189.2100  176.5470  145.0540 C   0  0  0  0  0  2  0  0  0  0  0  0
  188.6570  176.3220  143.6400 C   0  0  2  0  0  3  0  0  0  0  0  0
  188.0090  174.4990  141.9560 C   0  0  0  0  0  2  0  0  0  0  0  0
  189.7680  173.5330  140.6280 O   0  0  0  0  0  0  0  0  0  0  0  0
  190.7190  173.7210  141.6450 C   0  0  0  0  0  2  0  0  0  0  0  0
  190.4420  175.0310  142.3890 C   0  0  0  0  0  2  0  0  0  0  0  0
  189.0340  174.9860  142.9860 C   0  0  0  0  0  3  0  0  0  0  0  0
  188.5490  173.2440  141.2680 C   0  0  0  0  0  2  0  0  0  0  0  0
  188.9070  177.7480  142.5270 S   0  0  0  0  0  0  0  0  0  0  0  0
  184.4390  178.0590  141.5110 C   0  0  0  0  0  0  0  0  0  0  0  0
  185.3880  177.9190  140.4890 C   0  0  0  0  0  3  0  0  0  0  0  0
  186.2270  178.0000  143.1540 C   0  0  0  0  0  3  0  0  0  0  0  0
  187.1670  177.8620  142.1300 C   0  0  0  0  0  0  0  0  0  0  0  0
  186.7470  177.8230  140.7960 C   0  0  0  0  0  3  0  0  0  0  0  0
  184.8690  178.0980  142.8460 C   0  0  0  0  0  3  0  0  0  0  0  0
  182.0840  178.6690  142.1560 N   0  0  0  0  0  1  0  0  0  0  0  0
  182.5830  177.8250  140.0560 O   0  0  0  0  0  0  0  0  0  0  0  0
  183.0050  178.1710  141.1890 C   0  0  0  0  0  0  0  0  0  0  0  0
  189.4890  175.2860  147.1900 C   0  0  0  0  0  2  0  0  0  0  0  0
  190.7030  174.9290  146.5860 O   0  0  0  0  0  0  0  0  0  0  0  0
  191.6900  175.4420  147.4330 C   0  0  0  0  0  2  0  0  0  0  0  0
  192.6080  176.3700  146.6560 C   0  0  0  0  0  2  0  0  0  0  0  0
  194.3680  175.7670  145.0480 C   0  0  2  0  0  3  0  0  0  0  0  0
  194.8860  176.6730  145.9940 O   0  0  0  0  0  0  0  0  0  0  0  0
  193.9670  175.7200  146.4730 C   0  0  1  0  0  3  0  0  0  0  0  0
  195.3930  174.6720  144.7810 C   0  0  2  0  0  3  0  0  0  0  0  0
  197.7030  174.7250  144.2490 O   0  0  0  0  0  0  0  0  0  0  0  0
  196.5900  175.1850  144.0350 C   0  0  0  0  0  0  0  0  0  0  0  0
  196.4110  176.2830  143.0340 C   0  0  0  0  0  2  0  0  0  0  0  0
  197.1270  175.9820  141.7170 C   0  0  0  0  0  2  0  0  0  0  0  0
  196.5960  174.7240  141.0420 C   0  0  0  0  0  2  0  0  0  0  0  0
  194.0330  175.0100  140.3540 C   0  0  0  0  0  3  0  0  0  0  0  0
  195.1910  174.8820  140.6590 C   0  0  0  0  0  0  0  0  0  0  0  0
  194.7570  173.4710  144.0860 C   0  0  0  0  0  2  0  0  0  0  0  0
  194.4880  172.4450  144.9970 O   0  0  0  0  0  0  0  0  0  0  0  0
  191.7560  172.2420  144.5720 O   0  0  0  0  0  0  0  0  0  0  0  0
  193.2980  170.3700  143.5920 O   0  0  0  0  0  0  0  0  0  0  0  0
  193.1310  171.6600  144.3620 P   0  0  0  0  0  0  0  0  0  0  0  0
  1  2  1  1  0  0  0
  1 21  1  0  0  0  0
  3  1  1  0  0  0  0
  4  3  1  1  0  0  0
  5  9  1  0  0  0  0
  6 10  1  0  0  0  0
  6  7  1  0  0  0  0
  7  8  1  0  0  0  0
  8  9  1  0  0  0  0
  9  4  1  0  0  0  0
 10  5  1  0  0  0  0
 11  4  1  0  0  0  0
 12 17  1  0  0  0  0
 13 16  1  0  0  0  0
 13 12  2  0  0  0  0
 15 11  1  0  0  0  0
 15 14  1  0  0  0  0
 16 15  2  0  0  0  0
 17 14  2  0  0  0  0
 19 20  2  0  0  0  0
 20 12  1  0  0  0  0
 20 18  1  0  0  0  0
 22 21  1  0  0  0  0
 22 23  1  0  0  0  0
 24 23  1  0  0  0  0
 25 28  1  1  0  0  0
 25 26  1  0  0  0  0
 25 27  1  0  0  0  0
 26 27  1  0  0  0  0
 27 24  1  6  0  0  0
 28 36  1  6  0  0  0
 30 29  2  0  0  0  0
 30 28  1  0  0  0  0
 31 30  1  0  0  0  0
 32 31  1  0  0  0  0
 33 32  1  0  0  0  0
 34 35  3  0  0  0  0
 35 33  1  0  0  0  0
 36 37  1  0  0  0  0
 39 40  2  0  0  0  0
 40 38  2  0  0  0  0
 40 37  1  0  0  0  0
M  END
>  <MODEL>
6

>  <REMARK>
 VINA RESULT:      -4.8      3.821      8.148
  Name = 
  20 active torsions:
  status: ('A' for Active; 'I' for Inactive)
    1  A    between atoms: C_2  and  C_8
    2  A    between atoms: C_3  and  C_32
    3  A    between atoms: C_3  and  C_33
    4  A    between atoms: C_5  and  C_38
    5  A    between atoms: O_6  and  P_35
    6  A    between atoms: O_6  and  C_40
    7  A    between atoms: C_8  and  C_13
    8  A    between atoms: C_8  and  C_40
    9  A    between atoms: C_12  and  C_21
   10  A    between atoms: C_12  and  C_30
   11  A    between atoms: C_13  and  C_39
   12  A    between atoms: C_20  and  O_28
   13  A    between atoms: C_20  and  C_37
   14  A    between atoms: C_21  and  C_39
   15  A    between atoms: C_22  and  C_27
   16  A    between atoms: C_24  and  S_31
   17  A    between atoms: C_27  and  S_31
   18  A    between atoms: C_27  and  C_32
   19  A    between atoms: O_28  and  C_33
   20  A    between atoms: C_34  and  C_37
                            x       y       z     vdW  Elec       q    Type
                         _______ _______ _______ _____ _____    ______ ____

>  <TORSDO>
F 20

$$$$
=
 OpenBabel11062419343D

 40 42  0  0  1  0  0  0  0  0999 V2000
  186.1620  177.5800  145.3620 C   0  0  1  0  0  3  0  0  0  0  0  0
  185.5490  178.9560  145.5860 C   0  0  0  0  0  1  0  0  0  0  0  0
  187.2170  177.6290  144.2610 C   0  0  0  0  0  2  0  0  0  0  0  0
  186.7510  177.0570  142.9140 C   0  0  2  0  0  3  0  0  0  0  0  0
  187.8070  175.6960  141.0140 C   0  0  0  0  0  2  0  0  0  0  0  0
  189.7230  174.3410  141.5460 O   0  0  0  0  0  0  0  0  0  0  0  0
  189.2780  174.1240  142.8610 C   0  0  0  0  0  2  0  0  0  0  0  0
  188.5870  175.3820  143.3980 C   0  0  0  0  0  2  0  0  0  0  0  0
  187.4060  175.7350  142.4930 C   0  0  0  0  0  3  0  0  0  0  0  0
  188.5730  174.4010  140.7380 C   0  0  0  0  0  2  0  0  0  0  0  0
  186.7280  178.2930  141.5700 S   0  0  0  0  0  0  0  0  0  0  0  0
  182.1430  178.2840  141.2990 C   0  0  0  0  0  0  0  0  0  0  0  0
  182.9170  177.9200  140.1880 C   0  0  0  0  0  3  0  0  0  0  0  0
  184.1780  178.6450  142.5750 C   0  0  0  0  0  3  0  0  0  0  0  0
  184.9420  178.2830  141.4650 C   0  0  0  0  0  0  0  0  0  0  0  0
  184.3110  177.9210  140.2700 C   0  0  0  0  0  3  0  0  0  0  0  0
  182.7840  178.6470  142.4930 C   0  0  0  0  0  3  0  0  0  0  0  0
  180.0100  179.1190  140.2580 N   0  0  0  0  0  1  0  0  0  0  0  0
  179.9880  177.5750  141.9850 O   0  0  0  0  0  0  0  0  0  0  0  0
  180.6720  178.2950  141.2130 C   0  0  0  0  0  0  0  0  0  0  0  0
  186.7860  177.0620  146.6530 C   0  0  0  0  0  2  0  0  0  0  0  0
  187.9830  176.3830  146.3870 O   0  0  0  0  0  0  0  0  0  0  0  0
  188.9550  177.0640  147.1250 C   0  0  0  0  0  2  0  0  0  0  0  0
  190.1170  177.4450  146.2230 C   0  0  0  0  0  2  0  0  0  0  0  0
  192.4240  176.7610  145.7200 C   0  0  2  0  0  3  0  0  0  0  0  0
  192.1060  176.4010  147.0430 O   0  0  0  0  0  0  0  0  0  0  0  0
  191.0760  176.2760  146.0930 C   0  0  1  0  0  3  0  0  0  0  0  0
  193.1970  175.6280  145.0570 C   0  0  2  0  0  3  0  0  0  0  0  0
  195.2800  176.6490  144.5640 O   0  0  0  0  0  0  0  0  0  0  0  0
  194.6830  175.7940  145.2030 C   0  0  0  0  0  0  0  0  0  0  0  0
  195.4310  174.8880  146.1300 C   0  0  0  0  0  2  0  0  0  0  0  0
  196.5450  174.1260  145.4130 C   0  0  0  0  0  2  0  0  0  0  0  0
  196.5210  172.6340  145.7210 C   0  0  0  0  0  2  0  0  0  0  0  0
  194.0950  171.6010  145.3080 C   0  0  0  0  0  3  0  0  0  0  0  0
  195.1880  172.0700  145.4980 C   0  0  0  0  0  0  0  0  0  0  0  0
  192.7820  175.4470  143.6000 C   0  0  0  0  0  2  0  0  0  0  0  0
  192.9310  174.1170  143.1950 O   0  0  0  0  0  0  0  0  0  0  0  0
  195.4100  173.6510  142.0440 O   0  0  0  0  0  0  0  0  0  0  0  0
  193.5700  174.8020  140.5840 O   0  0  0  0  0  0  0  0  0  0  0  0
  194.0090  174.1890  141.8940 P   0  0  0  0  0  0  0  0  0  0  0  0
  1  2  1  1  0  0  0
  1 21  1  0  0  0  0
  3  1  1  0  0  0  0
  4  3  1  1  0  0  0
  5  9  1  0  0  0  0
  6  7  1  0  0  0  0
  7  8  1  0  0  0  0
  9  4  1  0  0  0  0
  9  8  1  0  0  0  0
 10  5  1  0  0  0  0
 10  6  1  0  0  0  0
 11  4  1  0  0  0  0
 12 17  1  0  0  0  0
 13 16  1  0  0  0  0
 13 12  2  0  0  0  0
 15 11  1  0  0  0  0
 15 14  1  0  0  0  0
 16 15  2  0  0  0  0
 17 14  2  0  0  0  0
 18 20  1  0  0  0  0
 20 12  1  0  0  0  0
 20 19  2  0  0  0  0
 22 21  1  0  0  0  0
 22 23  1  0  0  0  0
 24 23  1  0  0  0  0
 25 28  1  6  0  0  0
 25 27  1  0  0  0  0
 25 26  1  0  0  0  0
 27 24  1  1  0  0  0
 27 26  1  0  0  0  0
 28 36  1  6  0  0  0
 28 30  1  0  0  0  0
 29 30  2  0  0  0  0
 30 31  1  0  0  0  0
 32 33  1  0  0  0  0
 32 31  1  0  0  0  0
 34 35  3  0  0  0  0
 35 33  1  0  0  0  0
 37 36  1  0  0  0  0
 39 40  2  0  0  0  0
 40 38  2  0  0  0  0
 40 37  1  0  0  0  0
M  END
>  <MODEL>
7

>  <REMARK>
 VINA RESULT:      -4.6      4.211      8.863
  Name = 
  20 active torsions:
  status: ('A' for Active; 'I' for Inactive)
    1  A    between atoms: C_2  and  C_8
    2  A    between atoms: C_3  and  C_32
    3  A    between atoms: C_3  and  C_33
    4  A    between atoms: C_5  and  C_38
    5  A    between atoms: O_6  and  P_35
    6  A    between atoms: O_6  and  C_40
    7  A    between atoms: C_8  and  C_13
    8  A    between atoms: C_8  and  C_40
    9  A    between atoms: C_12  and  C_21
   10  A    between atoms: C_12  and  C_30
   11  A    between atoms: C_13  and  C_39
   12  A    between atoms: C_20  and  O_28
   13  A    between atoms: C_20  and  C_37
   14  A    between atoms: C_21  and  C_39
   15  A    between atoms: C_22  and  C_27
   16  A    between atoms: C_24  and  S_31
   17  A    between atoms: C_27  and  S_31
   18  A    between atoms: C_27  and  C_32
   19  A    between atoms: O_28  and  C_33
   20  A    between atoms: C_34  and  C_37
                            x       y       z     vdW  Elec       q    Type
                         _______ _______ _______ _____ _____    ______ ____

>  <TORSDO>
F 20

$$$$
=
 OpenBabel11062419343D

 40 42  0  0  1  0  0  0  0  0999 V2000
  191.1840  174.5250  145.4980 C   0  0  1  0  0  3  0  0  0  0  0  0
  189.7240  174.1710  145.7440 C   0  0  0  0  0  1  0  0  0  0  0  0
  191.3840  175.0530  144.0800 C   0  0  0  0  0  2  0  0  0  0  0  0
  190.0800  175.3580  143.3300 C   0  0  2  0  0  3  0  0  0  0  0  0
  188.6580  174.9250  141.2400 C   0  0  0  0  0  2  0  0  0  0  0  0
  189.7010  173.7740  139.4020 O   0  0  0  0  0  0  0  0  0  0  0  0
  190.5430  173.0450  140.2590 C   0  0  0  0  0  2  0  0  0  0  0  0
  190.9670  173.9160  141.4460 C   0  0  0  0  0  2  0  0  0  0  0  0
  189.7210  174.3820  142.2010 C   0  0  0  0  0  3  0  0  0  0  0  0
  188.4810  173.9400  140.0830 C   0  0  0  0  0  2  0  0  0  0  0  0
  189.9230  177.1070  142.8270 S   0  0  0  0  0  0  0  0  0  0  0  0
  186.4340  177.8870  145.7100 C   0  0  0  0  0  0  0  0  0  0  0  0
  186.2150  177.8620  144.3260 C   0  0  0  0  0  3  0  0  0  0  0  0
  188.7880  177.4270  145.3270 C   0  0  0  0  0  3  0  0  0  0  0  0
  188.5620  177.4040  143.9490 C   0  0  0  0  0  0  0  0  0  0  0  0
  187.2750  177.6230  143.4480 C   0  0  0  0  0  3  0  0  0  0  0  0
  187.7290  177.6680  146.2040 C   0  0  0  0  0  3  0  0  0  0  0  0
  184.0620  178.6040  146.1470 N   0  0  0  0  0  1  0  0  0  0  0  0
  185.4720  177.9750  147.8740 O   0  0  0  0  0  0  0  0  0  0  0  0
  185.3200  178.1500  146.6380 C   0  0  0  0  0  0  0  0  0  0  0  0
  191.6550  175.5650  146.5080 C   0  0  0  0  0  2  0  0  0  0  0  0
  193.0320  175.4410  146.7420 O   0  0  0  0  0  0  0  0  0  0  0  0
  193.5590  176.7080  146.4730 C   0  0  0  0  0  2  0  0  0  0  0  0
  194.9340  176.5740  145.8420 C   0  0  0  0  0  2  0  0  0  0  0  0
  196.4210  174.9810  144.7040 C   0  0  2  0  0  3  0  0  0  0  0  0
  195.7470  174.3270  145.7530 O   0  0  0  0  0  0  0  0  0  0  0  0
  195.0110  175.2890  145.0370 C   0  0  1  0  0  3  0  0  0  0  0  0
  196.4570  174.0720  143.4810 C   0  0  2  0  0  3  0  0  0  0  0  0
  197.6580  172.2250  144.3580 O   0  0  0  0  0  0  0  0  0  0  0  0
  196.6180  172.6270  143.8530 C   0  0  0  0  0  0  0  0  0  0  0  0
  195.4960  171.6740  143.5840 C   0  0  0  0  0  2  0  0  0  0  0  0
  194.9370  171.8290  142.1700 C   0  0  0  0  0  2  0  0  0  0  0  0
  193.6910  170.9830  141.9410 C   0  0  0  0  0  2  0  0  0  0  0  0
  191.9420  171.2700  143.9370 C   0  0  0  0  0  3  0  0  0  0  0  0
  192.7340  171.1430  143.0390 C   0  0  0  0  0  0  0  0  0  0  0  0
  197.5150  174.5270  142.4800 C   0  0  0  0  0  2  0  0  0  0  0  0
  197.4270  175.9030  142.2430 O   0  0  0  0  0  0  0  0  0  0  0  0
  194.9350  176.5080  141.1890 O   0  0  0  0  0  0  0  0  0  0  0  0
  196.8000  175.6850  139.5490 O   0  0  0  0  0  0  0  0  0  0  0  0
  196.3480  176.0400  140.9480 P   0  0  0  0  0  0  0  0  0  0  0  0
  1  2  1  1  0  0  0
  1 21  1  0  0  0  0
  3  1  1  0  0  0  0
  4  3  1  6  0  0  0
  5  9  1  0  0  0  0
  6 10  1  0  0  0  0
  6  7  1  0  0  0  0
  7  8  1  0  0  0  0
  8  9  1  0  0  0  0
  9  4  1  0  0  0  0
 10  5  1  0  0  0  0
 11  4  1  0  0  0  0
 11 15  1  0  0  0  0
 12 17  1  0  0  0  0
 12 20  1  0  0  0  0
 13 12  2  0  0  0  0
 14 17  2  0  0  0  0
 15 14  1  0  0  0  0
 16 15  2  0  0  0  0
 16 13  1  0  0  0  0
 18 20  1  0  0  0  0
 20 19  2  0  0  0  0
 21 22  1  0  0  0  0
 23 22  1  0  0  0  0
 24 23  1  0  0  0  0
 25 28  1  6  0  0  0
 25 27  1  0  0  0  0
 25 26  1  0  0  0  0
 27 26  1  0  0  0  0
 27 24  1  1  0  0  0
 28 36  1  6  0  0  0
 28 30  1  0  0  0  0
 30 29  2  0  0  0  0
 31 30  1  0  0  0  0
 32 31  1  0  0  0  0
 33 32  1  0  0  0  0
 33 35  1  0  0  0  0
 35 34  3  0  0  0  0
 37 36  1  0  0  0  0
 39 40  2  0  0  0  0
 40 38  2  0  0  0  0
 40 37  1  0  0  0  0
M  END
>  <MODEL>
8

>  <REMARK>
 VINA RESULT:      -4.6      3.779      8.354
  Name = 
  20 active torsions:
  status: ('A' for Active; 'I' for Inactive)
    1  A    between atoms: C_2  and  C_8
    2  A    between atoms: C_3  and  C_32
    3  A    between atoms: C_3  and  C_33
    4  A    between atoms: C_5  and  C_38
    5  A    between atoms: O_6  and  P_35
    6  A    between atoms: O_6  and  C_40
    7  A    between atoms: C_8  and  C_13
    8  A    between atoms: C_8  and  C_40
    9  A    between atoms: C_12  and  C_21
   10  A    between atoms: C_12  and  C_30
   11  A    between atoms: C_13  and  C_39
   12  A    between atoms: C_20  and  O_28
   13  A    between atoms: C_20  and  C_37
   14  A    between atoms: C_21  and  C_39
   15  A    between atoms: C_22  and  C_27
   16  A    between atoms: C_24  and  S_31
   17  A    between atoms: C_27  and  S_31
   18  A    between atoms: C_27  and  C_32
   19  A    between atoms: O_28  and  C_33
   20  A    between atoms: C_34  and  C_37
                            x       y       z     vdW  Elec       q    Type
                         _______ _______ _______ _____ _____    ______ ____

>  <TORSDO>
F 20

$$$$
=
 OpenBabel11062419343D

 40 42  0  0  1  0  0  0  0  0999 V2000
  192.1820  170.8780  141.4040 C   0  0  1  0  0  3  0  0  0  0  0  0
  191.7270  169.4260  141.3510 C   0  0  0  0  0  1  0  0  0  0  0  0
  192.0330  171.5440  140.0390 C   0  0  0  0  0  2  0  0  0  0  0  0
  191.8140  173.0620  140.0970 C   0  0  2  0  0  3  0  0  0  0  0  0
  190.8210  173.8090  137.8540 C   0  0  0  0  0  2  0  0  0  0  0  0
  188.5560  173.1590  137.3660 O   0  0  0  0  0  0  0  0  0  0  0  0
  188.1950  173.1810  138.7240 C   0  0  0  0  0  2  0  0  0  0  0  0
  189.3610  172.6880  139.5860 C   0  0  0  0  0  2  0  0  0  0  0  0
  190.5790  173.5830  139.3500 C   0  0  0  0  0  3  0  0  0  0  0  0
  189.4980  174.1880  137.1850 C   0  0  0  0  0  2  0  0  0  0  0  0
  193.3200  174.0270  139.7300 S   0  0  0  0  0  0  0  0  0  0  0  0
  194.1820  174.7890  144.1770 C   0  0  0  0  0  0  0  0  0  0  0  0
  194.9350  173.8470  143.4620 C   0  0  0  0  0  3  0  0  0  0  0  0
  192.9080  175.2680  142.1650 C   0  0  0  0  0  3  0  0  0  0  0  0
  193.6620  174.3280  141.4600 C   0  0  0  0  0  0  0  0  0  0  0  0
  194.6750  173.6150  142.1100 C   0  0  0  0  0  3  0  0  0  0  0  0
  193.1660  175.4980  143.5180 C   0  0  0  0  0  3  0  0  0  0  0  0
  193.3790  175.3410  146.4970 N   0  0  0  0  0  1  0  0  0  0  0  0
  195.6210  174.9580  146.0520 O   0  0  0  0  0  0  0  0  0  0  0  0
  194.4470  175.0270  145.6060 C   0  0  0  0  0  0  0  0  0  0  0  0
  191.3780  171.6470  142.4450 C   0  0  0  0  0  2  0  0  0  0  0  0
  190.2180  170.9430  142.7950 O   0  0  0  0  0  0  0  0  0  0  0  0
  189.2830  171.9290  143.1240 C   0  0  0  0  0  2  0  0  0  0  0  0
  189.9890  173.2520  143.3670 C   0  0  0  0  0  2  0  0  0  0  0  0
  189.3910  175.6020  142.9630 C   0  0  2  0  0  3  0  0  0  0  0  0
  188.4100  174.7640  142.4000 O   0  0  0  0  0  0  0  0  0  0  0  0
  188.9680  174.3450  143.6220 C   0  0  1  0  0  3  0  0  0  0  0  0
  188.7170  176.7800  143.6550 C   0  0  2  0  0  3  0  0  0  0  0  0
  188.3750  178.2630  141.8370 O   0  0  0  0  0  0  0  0  0  0  0  0
  187.8640  177.5790  142.7120 C   0  0  0  0  0  0  0  0  0  0  0  0
  186.3750  177.5420  142.8650 C   0  0  0  0  0  2  0  0  0  0  0  0
  185.7830  178.9390  143.0510 C   0  0  0  0  0  2  0  0  0  0  0  0
  185.8540  179.4130  144.4980 C   0  0  0  0  0  2  0  0  0  0  0  0
  184.9430  177.5460  146.1740 C   0  0  0  0  0  3  0  0  0  0  0  0
  185.3500  178.3880  145.4150 C   0  0  0  0  0  0  0  0  0  0  0  0
  189.7330  177.6530  144.3870 C   0  0  0  0  0  2  0  0  0  0  0  0
  190.5320  176.8870  145.2410 O   0  0  0  0  0  0  0  0  0  0  0  0
  188.4410  177.5530  146.9340 O   0  0  0  0  0  0  0  0  0  0  0  0
  190.7680  177.0150  148.0020 O   0  0  0  0  0  0  0  0  0  0  0  0
  189.8880  177.1590  146.7810 P   0  0  0  0  0  0  0  0  0  0  0  0
  1  2  1  6  0  0  0
  1 21  1  0  0  0  0
  3  1  1  0  0  0  0
  4  3  1  6  0  0  0
  5  9  1  0  0  0  0
  6  7  1  0  0  0  0
  7  8  1  0  0  0  0
  9  8  1  0  0  0  0
  9  4  1  0  0  0  0
 10  6  1  0  0  0  0
 10  5  1  0  0  0  0
 11  4  1  0  0  0  0
 11 15  1  0  0  0  0
 12 20  1  0  0  0  0
 13 12  2  0  0  0  0
 14 17  2  0  0  0  0
 15 16  2  0  0  0  0
 15 14  1  0  0  0  0
 16 13  1  0  0  0  0
 17 12  1  0  0  0  0
 20 19  2  0  0  0  0
 20 18  1  0  0  0  0
 21 22  1  0  0  0  0
 22 23  1  0  0  0  0
 23 24  1  0  0  0  0
 25 27  1  0  0  0  0
 25 28  1  1  0  0  0
 26 25  1  0  0  0  0
 26 27  1  0  0  0  0
 27 24  1  6  0  0  0
 28 36  1  6  0  0  0
 29 30  2  0  0  0  0
 30 31  1  0  0  0  0
 30 28  1  0  0  0  0
 31 32  1  0  0  0  0
 32 33  1  0  0  0  0
 33 35  1  0  0  0  0
 35 34  3  0  0  0  0
 36 37  1  0  0  0  0
 37 40  1  0  0  0  0
 40 38  2  0  0  0  0
 40 39  2  0  0  0  0
M  END
>  <MODEL>
9

>  <REMARK>
 VINA RESULT:      -4.6      2.927      6.385
  Name = 
  20 active torsions:
  status: ('A' for Active; 'I' for Inactive)
    1  A    between atoms: C_2  and  C_8
    2  A    between atoms: C_3  and  C_32
    3  A    between atoms: C_3  and  C_33
    4  A    between atoms: C_5  and  C_38
    5  A    between atoms: O_6  and  P_35
    6  A    between atoms: O_6  and  C_40
    7  A    between atoms: C_8  and  C_13
    8  A    between atoms: C_8  and  C_40
    9  A    between atoms: C_12  and  C_21
   10  A    between atoms: C_12  and  C_30
   11  A    between atoms: C_13  and  C_39
   12  A    between atoms: C_20  and  O_28
   13  A    between atoms: C_20  and  C_37
   14  A    between atoms: C_21  and  C_39
   15  A    between atoms: C_22  and  C_27
   16  A    between atoms: C_24  and  S_31
   17  A    between atoms: C_27  and  S_31
   18  A    between atoms: C_27  and  C_32
   19  A    between atoms: O_28  and  C_33
   20  A    between atoms: C_34  and  C_37
                            x       y       z     vdW  Elec       q    Type
                         _______ _______ _______ _____ _____    ______ ____

>  <TORSDO>
F 20

$$$$
