=
 OpenBabel11062419433D

 30 35  0  0  1  0  0  0  0  0999 V2000
  189.5240  175.3370  147.3320 C   0  0  0  0  0  2  0  0  0  0  0  0
  192.9430  173.6700  145.2760 C   0  0  0  0  0  2  0  0  0  0  0  0
  191.9060  175.1470  146.9770 N   0  0  0  0  0  0  0  0  0  0  0  0
  187.8310  172.8820  141.8320 C   0  0  0  0  0  1  0  0  0  0  0  0
  190.5120  174.3670  145.2220 N   0  0  0  0  0  2  0  0  0  0  0  0
  193.1210  174.8720  146.2030 C   0  0  0  0  0  2  0  0  0  0  0  0
  191.3980  172.9180  143.3260 C   0  0  2  0  0  3  0  0  0  0  0  0
  191.6660  173.8720  144.4790 C   0  0  2  0  0  0  0  0  0  0  0  0
  191.8270  174.3750  143.0550 C   0  0  2  0  0  3  0  0  0  0  0  0
  189.3020  173.2070  141.9760 C   0  0  2  0  0  0  0  0  0  0  0  0
  190.6860  175.2790  142.5740 C   0  0  0  0  0  2  0  0  0  0  0  0
  190.7070  174.9830  146.5000 C   0  0  0  0  0  0  0  0  0  0  0  0
  189.9580  172.6710  143.1850 N   0  0  0  0  0  2  0  0  0  0  0  0
  191.4000  173.2400  140.6960 F   0  0  0  0  0  0  0  0  0  0  0  0
  189.6190  174.6560  141.6530 C   0  0  1  0  0  3  0  0  0  0  0  0
  190.0490  173.5340  140.6790 C   0  0  2  0  0  3  0  0  0  0  0  0
  188.4180  175.5560  146.5040 O   0  0  0  0  0  0  0  0  0  0  0  0
  188.2230  176.9430  146.5110 C   0  0  1  0  0  3  0  0  0  0  0  0
  185.7860  176.7970  145.8590 C   0  0  0  0  0  2  0  0  0  0  0  0
  188.5290  177.5010  145.1510 C   0  0  0  0  0  0  0  0  0  0  0  0
  185.0960  177.5140  143.5660 C   0  0  0  0  0  3  0  0  0  0  0  0
  185.3850  177.9920  142.2850 C   0  0  0  0  0  0  0  0  0  0  0  0
  189.7190  177.7940  144.8590 O   0  0  0  0  0  0  0  0  0  0  0  0
  186.7810  177.2750  146.9160 C   0  0  0  0  0  2  0  0  0  0  0  0
  187.4500  177.6620  144.1540 C   0  0  0  0  0  0  0  0  0  0  0  0
  186.1180  177.3580  144.5070 C   0  0  0  0  0  0  0  0  0  0  0  0
  187.7310  178.1430  142.8680 C   0  0  0  0  0  3  0  0  0  0  0  0
  186.7020  178.3060  141.9370 C   0  0  0  0  0  3  0  0  0  0  0  0
  183.4810  178.2890  140.5510 N   0  0  0  0  0  0  0  0  0  0  0  0
  184.3300  178.1560  141.3250 C   0  0  0  0  0  0  0  0  0  0  0  0
  2  6  1  0  0  0  0
  5 12  1  0  0  0  0
  6  3  1  0  0  0  0
  7 13  1  6  0  0  0
  7  8  1  0  0  0  0
  8  5  1  0  0  0  0
  8  2  1  1  0  0  0
  9 11  1  6  0  0  0
  9  7  1  0  0  0  0
  9  8  1  0  0  0  0
 10  4  1  6  0  0  0
 10 13  1  0  0  0  0
 12  3  2  0  0  0  0
 12  1  1  0  0  0  0
 15 10  1  0  0  0  0
 15 11  1  1  0  0  0
 16 14  1  1  0  0  0
 16 15  1  0  0  0  0
 16 10  1  0  0  0  0
 17  1  1  0  0  0  0
 18 17  1  6  0  0  0
 18 24  1  0  0  0  0
 19 24  1  0  0  0  0
 20 18  1  0  0  0  0
 21 26  1  0  0  0  0
 22 21  2  0  0  0  0
 23 20  2  0  0  0  0
 25 26  2  0  0  0  0
 25 20  1  0  0  0  0
 26 19  1  0  0  0  0
 27 25  1  0  0  0  0
 28 22  1  0  0  0  0
 28 27  2  0  0  0  0
 29 30  3  0  0  0  0
 30 22  1  0  0  0  0
M  END
>  <MODEL>
1

>  <REMARK>
 VINA RESULT:      -7.9      0.000      0.000
  Name = 
  4 active torsions:
  status: ('A' for Active; 'I' for Inactive)
    1  A    between atoms: C_3  and  O_18
    2  A    between atoms: C_12  and  O_18
    3  A    between atoms: C_12  and  C_19
    4  A    between atoms: C_16  and  C_29
                            x       y       z     vdW  Elec       q    Type
                         _______ _______ _______ _____ _____    ______ ____

>  <TORSDO>
F 4

$$$$
=
 OpenBabel11062419433D

 30 35  0  0  1  0  0  0  0  0999 V2000
  189.4230  175.2950  146.9910 C   0  0  0  0  0  2  0  0  0  0  0  0
  191.1230  173.2460  143.5840 C   0  0  0  0  0  2  0  0  0  0  0  0
  189.5590  173.3960  145.5030 N   0  0  0  0  0  0  0  0  0  0  0  0
  194.9880  177.7240  145.4870 C   0  0  0  0  0  1  0  0  0  0  0  0
  191.4110  174.8800  145.4930 N   0  0  0  0  0  2  0  0  0  0  0  0
  190.2140  172.4910  144.5530 C   0  0  0  0  0  2  0  0  0  0  0  0
  193.1840  174.8280  143.6670 C   0  0  2  0  0  3  0  0  0  0  0  0
  192.0360  174.1480  144.3970 C   0  0  2  0  0  0  0  0  0  0  0  0
  193.4520  173.6500  144.6280 C   0  0  2  0  0  3  0  0  0  0  0  0
  194.7220  176.3300  144.9620 C   0  0  2  0  0  0  0  0  0  0  0  0
  194.0550  174.0720  145.9730 C   0  0  0  0  0  2  0  0  0  0  0  0
  190.1370  174.4560  145.9890 C   0  0  0  0  0  0  0  0  0  0  0  0
  193.4460  176.1530  144.2410 N   0  0  0  0  0  2  0  0  0  0  0  0
  195.8100  174.4890  143.7510 F   0  0  0  0  0  0  0  0  0  0  0  0
  195.0520  175.2480  145.9730 C   0  0  1  0  0  3  0  0  0  0  0  0
  195.9550  175.4500  144.7350 C   0  0  2  0  0  3  0  0  0  0  0  0
  188.1140  175.5290  146.5580 O   0  0  0  0  0  0  0  0  0  0  0  0
  187.9720  176.9220  146.5520 C   0  0  1  0  0  3  0  0  0  0  0  0
  185.5330  176.8640  145.8910 C   0  0  0  0  0  2  0  0  0  0  0  0
  188.3040  177.4560  145.1890 C   0  0  0  0  0  0  0  0  0  0  0  0
  184.8810  177.5870  143.5890 C   0  0  0  0  0  3  0  0  0  0  0  0
  185.1940  178.0430  142.3050 C   0  0  0  0  0  0  0  0  0  0  0  0
  189.5060  177.7010  144.9000 O   0  0  0  0  0  0  0  0  0  0  0  0
  186.5420  177.3120  146.9480 C   0  0  0  0  0  2  0  0  0  0  0  0
  187.2360  177.6500  144.1860 C   0  0  0  0  0  0  0  0  0  0  0  0
  185.8920  177.4010  144.5350 C   0  0  0  0  0  0  0  0  0  0  0  0
  187.5410  178.1090  142.8970 C   0  0  0  0  0  3  0  0  0  0  0  0
  186.5220  178.3040  141.9600 C   0  0  0  0  0  3  0  0  0  0  0  0
  183.3080  178.3970  140.5610 N   0  0  0  0  0  0  0  0  0  0  0  0
  184.1500  178.2390  141.3390 C   0  0  0  0  0  0  0  0  0  0  0  0
  2  6  1  0  0  0  0
  3 12  2  0  0  0  0
  5 12  1  0  0  0  0
  6  3  1  0  0  0  0
  7 13  1  1  0  0  0
  7  8  1  0  0  0  0
  7  9  1  0  0  0  0
  8  2  1  6  0  0  0
  8  9  1  0  0  0  0
  8  5  1  0  0  0  0
  9 11  1  1  0  0  0
 10  4  1  1  0  0  0
 10 15  1  0  0  0  0
 12  1  1  0  0  0  0
 13 10  1  0  0  0  0
 15 11  1  6  0  0  0
 16 14  1  6  0  0  0
 16 10  1  0  0  0  0
 16 15  1  0  0  0  0
 17  1  1  0  0  0  0
 18 17  1  6  0  0  0
 18 24  1  0  0  0  0
 19 24  1  0  0  0  0
 20 18  1  0  0  0  0
 21 26  1  0  0  0  0
 22 21  2  0  0  0  0
 23 20  2  0  0  0  0
 25 26  2  0  0  0  0
 25 20  1  0  0  0  0
 26 19  1  0  0  0  0
 27 25  1  0  0  0  0
 28 22  1  0  0  0  0
 28 27  2  0  0  0  0
 29 30  3  0  0  0  0
 30 22  1  0  0  0  0
M  END
>  <MODEL>
2

>  <REMARK>
 VINA RESULT:      -7.7      1.718      3.509
  Name = 
  4 active torsions:
  status: ('A' for Active; 'I' for Inactive)
    1  A    between atoms: C_3  and  O_18
    2  A    between atoms: C_12  and  O_18
    3  A    between atoms: C_12  and  C_19
    4  A    between atoms: C_16  and  C_29
                            x       y       z     vdW  Elec       q    Type
                         _______ _______ _______ _____ _____    ______ ____

>  <TORSDO>
F 4

$$$$
=
 OpenBabel11062419433D

 30 35  0  0  1  0  0  0  0  0999 V2000
  190.5570  177.5630  144.9880 C   0  0  0  0  0  2  0  0  0  0  0  0
  187.6970  175.6700  142.3540 C   0  0  0  0  0  2  0  0  0  0  0  0
  189.9750  176.4790  142.9080 N   0  0  0  0  0  0  0  0  0  0  0  0
  184.7040  179.0410  146.6310 C   0  0  0  0  0  1  0  0  0  0  0  0
  188.1740  177.3490  144.1850 N   0  0  0  0  0  2  0  0  0  0  0  0
  189.0750  176.0660  141.8260 C   0  0  0  0  0  2  0  0  0  0  0  0
  185.7510  176.7220  143.7190 C   0  0  2  0  0  3  0  0  0  0  0  0
  187.1980  176.7840  143.2580 C   0  0  2  0  0  0  0  0  0  0  0  0
  186.1920  177.7490  142.6550 C   0  0  2  0  0  3  0  0  0  0  0  0
  184.8770  178.5380  145.2140 C   0  0  2  0  0  0  0  0  0  0  0  0
  186.3000  179.1840  143.1850 C   0  0  0  0  0  2  0  0  0  0  0  0
  189.5700  177.1320  143.9590 C   0  0  0  0  0  0  0  0  0  0  0  0
  185.6180  177.2690  145.0740 N   0  0  0  0  0  2  0  0  0  0  0  0
  183.6200  178.1830  143.1320 F   0  0  0  0  0  0  0  0  0  0  0  0
  185.2760  179.6340  144.2450 C   0  0  1  0  0  3  0  0  0  0  0  0
  183.8500  179.0390  144.1930 C   0  0  2  0  0  3  0  0  0  0  0  0
  191.7270  176.8080  144.8600 O   0  0  0  0  0  0  0  0  0  0  0  0
  191.7750  176.0070  146.0070 C   0  0  1  0  0  3  0  0  0  0  0  0
  194.2980  176.0400  146.1580 C   0  0  0  0  0  2  0  0  0  0  0  0
  191.8420  174.5610  145.6090 C   0  0  0  0  0  0  0  0  0  0  0  0
  195.5750  173.9590  145.6210 C   0  0  0  0  0  3  0  0  0  0  0  0
  195.6400  172.6250  145.2080 C   0  0  0  0  0  0  0  0  0  0  0  0
  190.7720  173.9390  145.3700 O   0  0  0  0  0  0  0  0  0  0  0  0
  192.9880  176.3830  146.8680 C   0  0  0  0  0  2  0  0  0  0  0  0
  193.1500  173.8910  145.4590 C   0  0  0  0  0  0  0  0  0  0  0  0
  194.3360  174.5930  145.7600 C   0  0  0  0  0  0  0  0  0  0  0  0
  193.2250  172.5530  145.0470 C   0  0  0  0  0  3  0  0  0  0  0  0
  194.4670  171.9230  144.9220 C   0  0  0  0  0  3  0  0  0  0  0  0
  197.9410  171.4560  144.9660 N   0  0  0  0  0  0  0  0  0  0  0  0
  196.9140  171.9780  145.0750 C   0  0  0  0  0  0  0  0  0  0  0  0
  3 12  2  0  0  0  0
  6  2  1  0  0  0  0
  6  3  1  0  0  0  0
  7 13  1  1  0  0  0
  8  2  1  6  0  0  0
  8  7  1  0  0  0  0
  8  5  1  0  0  0  0
  9 11  1  1  0  0  0
  9  8  1  0  0  0  0
  9  7  1  0  0  0  0
 10  4  1  1  0  0  0
 12  5  1  0  0  0  0
 12  1  1  0  0  0  0
 13 10  1  0  0  0  0
 15 11  1  6  0  0  0
 15 10  1  0  0  0  0
 16 14  1  6  0  0  0
 16 15  1  0  0  0  0
 16 10  1  0  0  0  0
 17  1  1  0  0  0  0
 18 17  1  6  0  0  0
 18 24  1  0  0  0  0
 19 24  1  0  0  0  0
 20 18  1  0  0  0  0
 21 26  1  0  0  0  0
 22 21  2  0  0  0  0
 23 20  2  0  0  0  0
 25 20  1  0  0  0  0
 25 26  2  0  0  0  0
 26 19  1  0  0  0  0
 27 25  1  0  0  0  0
 28 27  2  0  0  0  0
 28 22  1  0  0  0  0
 29 30  3  0  0  0  0
 30 22  1  0  0  0  0
M  END
>  <MODEL>
3

>  <REMARK>
 VINA RESULT:      -7.5      3.181      8.004
  Name = 
  4 active torsions:
  status: ('A' for Active; 'I' for Inactive)
    1  A    between atoms: C_3  and  O_18
    2  A    between atoms: C_12  and  O_18
    3  A    between atoms: C_12  and  C_19
    4  A    between atoms: C_16  and  C_29
                            x       y       z     vdW  Elec       q    Type
                         _______ _______ _______ _____ _____    ______ ____

>  <TORSDO>
F 4

$$$$
=
 OpenBabel11062419433D

 30 35  0  0  1  0  0  0  0  0999 V2000
  190.5250  176.8390  147.5290 C   0  0  0  0  0  2  0  0  0  0  0  0
  194.1180  175.1010  145.8670 C   0  0  0  0  0  2  0  0  0  0  0  0
  192.9170  176.8220  147.1880 N   0  0  0  0  0  0  0  0  0  0  0  0
  189.1460  172.9890  142.7950 C   0  0  0  0  0  1  0  0  0  0  0  0
  191.6270  175.5070  145.6920 N   0  0  0  0  0  2  0  0  0  0  0  0
  194.1610  176.5000  146.4800 C   0  0  0  0  0  2  0  0  0  0  0  0
  192.6770  173.7510  144.1760 C   0  0  2  0  0  3  0  0  0  0  0  0
  192.8330  174.9740  145.0660 C   0  0  2  0  0  0  0  0  0  0  0  0
  192.9510  175.1390  143.5610 C   0  0  2  0  0  3  0  0  0  0  0  0
  190.5730  173.4910  142.8330 C   0  0  2  0  0  0  0  0  0  0  0  0
  191.7250  175.7790  142.9000 C   0  0  0  0  0  2  0  0  0  0  0  0
  191.7460  176.4240  146.7840 C   0  0  0  0  0  0  0  0  0  0  0  0
  191.2730  173.3290  144.1230 N   0  0  0  0  0  2  0  0  0  0  0  0
  192.6660  173.4400  141.5450 F   0  0  0  0  0  0  0  0  0  0  0  0
  190.7370  174.8460  142.1710 C   0  0  1  0  0  3  0  0  0  0  0  0
  191.2920  173.5780  141.4830 C   0  0  2  0  0  3  0  0  0  0  0  0
  189.6320  177.4660  146.6540 O   0  0  0  0  0  0  0  0  0  0  0  0
  188.4100  176.8110  146.8450 C   0  0  1  0  0  3  0  0  0  0  0  0
  188.1640  176.1500  144.4180 C   0  0  0  0  0  2  0  0  0  0  0  0
  187.2830  177.7870  146.6680 C   0  0  0  0  0  0  0  0  0  0  0  0
  186.4290  177.2820  143.0200 C   0  0  0  0  0  3  0  0  0  0  0  0
  185.4090  178.2210  142.8420 C   0  0  0  0  0  0  0  0  0  0  0  0
  186.9180  178.4900  147.6490 O   0  0  0  0  0  0  0  0  0  0  0  0
  188.2700  175.6460  145.8570 C   0  0  0  0  0  2  0  0  0  0  0  0
  186.6400  177.9490  145.3480 C   0  0  0  0  0  0  0  0  0  0  0  0
  187.0380  177.1320  144.2690 C   0  0  0  0  0  0  0  0  0  0  0  0
  185.6140  178.8870  145.1620 C   0  0  0  0  0  3  0  0  0  0  0  0
  185.0020  179.0220  143.9130 C   0  0  0  0  0  3  0  0  0  0  0  0
  184.2760  178.4820  140.5250 N   0  0  0  0  0  0  0  0  0  0  0  0
  184.7820  178.3650  141.5590 C   0  0  0  0  0  0  0  0  0  0  0  0
  2  6  1  0  0  0  0
  5 12  1  0  0  0  0
  6  3  1  0  0  0  0
  7 13  1  6  0  0  0
  7  8  1  0  0  0  0
  8  5  1  0  0  0  0
  8  2  1  1  0  0  0
  9 11  1  6  0  0  0
  9  7  1  0  0  0  0
  9  8  1  0  0  0  0
 10  4  1  6  0  0  0
 10 13  1  0  0  0  0
 12  3  2  0  0  0  0
 12  1  1  0  0  0  0
 15 10  1  0  0  0  0
 15 11  1  1  0  0  0
 16 14  1  1  0  0  0
 16 15  1  0  0  0  0
 16 10  1  0  0  0  0
 17  1  1  0  0  0  0
 18 17  1  6  0  0  0
 19 24  1  0  0  0  0
 20 18  1  0  0  0  0
 20 23  2  0  0  0  0
 21 26  1  0  0  0  0
 22 21  2  0  0  0  0
 22 28  1  0  0  0  0
 24 18  1  0  0  0  0
 25 20  1  0  0  0  0
 26 19  1  0  0  0  0
 26 25  2  0  0  0  0
 27 25  1  0  0  0  0
 28 27  2  0  0  0  0
 29 30  3  0  0  0  0
 30 22  1  0  0  0  0
M  END
>  <MODEL>
4

>  <REMARK>
 VINA RESULT:      -7.5      1.467      1.899
  Name = 
  4 active torsions:
  status: ('A' for Active; 'I' for Inactive)
    1  A    between atoms: C_3  and  O_18
    2  A    between atoms: C_12  and  O_18
    3  A    between atoms: C_12  and  C_19
    4  A    between atoms: C_16  and  C_29
                            x       y       z     vdW  Elec       q    Type
                         _______ _______ _______ _____ _____    ______ ____

>  <TORSDO>
F 4

$$$$
=
 OpenBabel11062419433D

 30 35  0  0  1  0  0  0  0  0999 V2000
  188.2640  177.4970  147.4600 C   0  0  0  0  0  2  0  0  0  0  0  0
  184.4790  178.8960  145.9060 C   0  0  0  0  0  2  0  0  0  0  0  0
  185.8760  177.8120  147.6450 N   0  0  0  0  0  0  0  0  0  0  0  0
  188.5630  178.2930  141.2620 C   0  0  0  0  0  1  0  0  0  0  0  0
  186.7970  177.9830  145.4650 N   0  0  0  0  0  2  0  0  0  0  0  0
  184.5110  177.9930  147.1390 C   0  0  0  0  0  2  0  0  0  0  0  0
  185.4950  178.9750  143.5150 C   0  0  2  0  0  3  0  0  0  0  0  0
  185.5050  178.3770  144.9130 C   0  0  2  0  0  0  0  0  0  0  0  0
  184.9730  177.5440  143.7600 C   0  0  2  0  0  3  0  0  0  0  0  0
  187.1700  178.1550  141.8350 C   0  0  2  0  0  0  0  0  0  0  0  0
  185.9290  176.4440  143.2840 C   0  0  0  0  0  2  0  0  0  0  0  0
  186.9180  177.7360  146.8700 C   0  0  0  0  0  0  0  0  0  0  0  0
  186.8580  179.0410  142.9740 N   0  0  0  0  0  2  0  0  0  0  0  0
  184.8150  177.9920  141.1510 F   0  0  0  0  0  0  0  0  0  0  0  0
  186.7430  176.7080  142.0020 C   0  0  1  0  0  3  0  0  0  0  0  0
  186.1090  177.5780  140.8920 C   0  0  2  0  0  3  0  0  0  0  0  0
  189.2210  177.4510  146.4410 O   0  0  0  0  0  0  0  0  0  0  0  0
  189.5940  176.1050  146.3480 C   0  0  1  0  0  3  0  0  0  0  0  0
  191.9830  176.5190  147.0590 C   0  0  0  0  0  2  0  0  0  0  0  0
  190.0830  175.8120  144.9590 C   0  0  0  0  0  0  0  0  0  0  0  0
  193.8090  176.3150  145.3640 C   0  0  0  0  0  3  0  0  0  0  0  0
  194.2610  176.0860  144.0620 C   0  0  0  0  0  0  0  0  0  0  0  0
  189.2490  175.5140  144.0620 O   0  0  0  0  0  0  0  0  0  0  0  0
  190.6830  175.7820  147.3790 C   0  0  0  0  0  2  0  0  0  0  0  0
  191.5230  175.9160  144.6410 C   0  0  0  0  0  0  0  0  0  0  0  0
  192.4470  176.2200  145.6630 C   0  0  0  0  0  0  0  0  0  0  0  0
  191.9850  175.6850  143.3370 C   0  0  0  0  0  3  0  0  0  0  0  0
  193.3500  175.7710  143.0500 C   0  0  0  0  0  3  0  0  0  0  0  0
  196.7920  176.2520  143.5210 N   0  0  0  0  0  0  0  0  0  0  0  0
  195.6620  176.1780  143.7620 C   0  0  0  0  0  0  0  0  0  0  0  0
  2  6  1  0  0  0  0
  5 12  1  0  0  0  0
  6  3  1  0  0  0  0
  7 13  1  6  0  0  0
  7  9  1  0  0  0  0
  7  8  1  0  0  0  0
  8  5  1  0  0  0  0
  8  2  1  1  0  0  0
  9 11  1  6  0  0  0
  9  8  1  0  0  0  0
 10  4  1  6  0  0  0
 10 15  1  0  0  0  0
 10 13  1  0  0  0  0
 12  1  1  0  0  0  0
 12  3  2  0  0  0  0
 15 11  1  1  0  0  0
 16 14  1  1  0  0  0
 16 10  1  0  0  0  0
 16 15  1  0  0  0  0
 17  1  1  0  0  0  0
 18 17  1  6  0  0  0
 18 24  1  0  0  0  0
 19 24  1  0  0  0  0
 20 18  1  0  0  0  0
 21 26  1  0  0  0  0
 22 21  2  0  0  0  0
 23 20  2  0  0  0  0
 25 20  1  0  0  0  0
 25 26  2  0  0  0  0
 26 19  1  0  0  0  0
 27 25  1  0  0  0  0
 28 27  2  0  0  0  0
 28 22  1  0  0  0  0
 29 30  3  0  0  0  0
 30 22  1  0  0  0  0
M  END
>  <MODEL>
5

>  <REMARK>
 VINA RESULT:      -7.4      3.193      6.891
  Name = 
  4 active torsions:
  status: ('A' for Active; 'I' for Inactive)
    1  A    between atoms: C_3  and  O_18
    2  A    between atoms: C_12  and  O_18
    3  A    between atoms: C_12  and  C_19
    4  A    between atoms: C_16  and  C_29
                            x       y       z     vdW  Elec       q    Type
                         _______ _______ _______ _____ _____    ______ ____

>  <TORSDO>
F 4

$$$$
=
 OpenBabel11062419433D

 30 35  0  0  1  0  0  0  0  0999 V2000
  188.6980  174.9700  141.6290 C   0  0  0  0  0  2  0  0  0  0  0  0
  185.3140  177.5410  140.8310 C   0  0  0  0  0  2  0  0  0  0  0  0
  187.4500  176.4570  140.1900 N   0  0  0  0  0  0  0  0  0  0  0  0
  185.9340  176.7250  146.9600 C   0  0  0  0  0  1  0  0  0  0  0  0
  186.9280  176.5420  142.5030 N   0  0  0  0  0  2  0  0  0  0  0  0
  186.5150  177.5450  139.8860 C   0  0  0  0  0  2  0  0  0  0  0  0
  184.8330  177.6910  143.3810 C   0  0  2  0  0  3  0  0  0  0  0  0
  185.8340  177.4750  142.2570 C   0  0  2  0  0  0  0  0  0  0  0  0
  185.8660  178.7830  143.0300 C   0  0  2  0  0  3  0  0  0  0  0  0
  185.6390  177.5920  145.7560 C   0  0  2  0  0  0  0  0  0  0  0  0
  187.0190  178.8940  144.0330 C   0  0  0  0  0  2  0  0  0  0  0  0
  187.6930  176.0450  141.4000 C   0  0  0  0  0  0  0  0  0  0  0  0
  185.1860  176.8740  144.5480 N   0  0  0  0  0  2  0  0  0  0  0  0
  184.4840  179.6650  145.1140 F   0  0  0  0  0  0  0  0  0  0  0  0
  186.6980  178.6540  145.5210 C   0  0  1  0  0  3  0  0  0  0  0  0
  185.3020  179.0580  146.0490 C   0  0  2  0  0  3  0  0  0  0  0  0
  189.7850  175.4880  142.3390 O   0  0  0  0  0  0  0  0  0  0  0  0
  190.1660  174.4710  143.2220 C   0  0  1  0  0  3  0  0  0  0  0  0
  188.9700  175.4810  145.2060 C   0  0  0  0  0  2  0  0  0  0  0  0
  191.4770  174.8250  143.8630 C   0  0  0  0  0  0  0  0  0  0  0  0
  190.3180  176.4930  147.0520 C   0  0  0  0  0  3  0  0  0  0  0  0
  191.5360  176.8630  147.6290 C   0  0  0  0  0  0  0  0  0  0  0  0
  192.5500  174.5400  143.2670 O   0  0  0  0  0  0  0  0  0  0  0  0
  189.0860  174.2620  144.2910 C   0  0  0  0  0  2  0  0  0  0  0  0
  191.5030  175.5380  145.1570 C   0  0  0  0  0  0  0  0  0  0  0  0
  190.2940  175.8220  145.8260 C   0  0  0  0  0  0  0  0  0  0  0  0
  192.7210  175.9100  145.7440 C   0  0  0  0  0  3  0  0  0  0  0  0
  192.7370  176.5710  146.9750 C   0  0  0  0  0  3  0  0  0  0  0  0
  191.5690  178.0970  149.9080 N   0  0  0  0  0  0  0  0  0  0  0  0
  191.5550  177.5460  148.8910 C   0  0  0  0  0  0  0  0  0  0  0  0
  1 17  1  0  0  0  0
  3 12  2  0  0  0  0
  6  3  1  0  0  0  0
  6  2  1  0  0  0  0
  7 13  1  1  0  0  0
  8  2  1  6  0  0  0
  8  5  1  0  0  0  0
  8  9  1  0  0  0  0
  8  7  1  0  0  0  0
  9  7  1  0  0  0  0
  9 11  1  1  0  0  0
 10 16  1  0  0  0  0
 10  4  1  1  0  0  0
 12  1  1  0  0  0  0
 12  5  1  0  0  0  0
 13 10  1  0  0  0  0
 15 11  1  6  0  0  0
 15 10  1  0  0  0  0
 15 16  1  0  0  0  0
 16 14  1  6  0  0  0
 18 17  1  6  0  0  0
 18 20  1  0  0  0  0
 18 24  1  0  0  0  0
 19 26  1  0  0  0  0
 20 25  1  0  0  0  0
 21 22  1  0  0  0  0
 22 30  1  0  0  0  0
 23 20  2  0  0  0  0
 24 19  1  0  0  0  0
 25 27  2  0  0  0  0
 25 26  1  0  0  0  0
 26 21  2  0  0  0  0
 27 28  1  0  0  0  0
 28 22  2  0  0  0  0
 30 29  3  0  0  0  0
M  END
>  <MODEL>
6

>  <REMARK>
 VINA RESULT:      -7.4      3.087      7.166
  Name = 
  4 active torsions:
  status: ('A' for Active; 'I' for Inactive)
    1  A    between atoms: C_3  and  O_18
    2  A    between atoms: C_12  and  O_18
    3  A    between atoms: C_12  and  C_19
    4  A    between atoms: C_16  and  C_29
                            x       y       z     vdW  Elec       q    Type
                         _______ _______ _______ _____ _____    ______ ____

>  <TORSDO>
F 4

$$$$
=
 OpenBabel11062419433D

 30 35  0  0  1  0  0  0  0  0999 V2000
  191.9270  175.2790  146.5660 C   0  0  0  0  0  2  0  0  0  0  0  0
  192.7960  171.6890  144.3180 C   0  0  0  0  0  2  0  0  0  0  0  0
  193.4460  173.5580  145.8130 N   0  0  0  0  0  0  0  0  0  0  0  0
  187.5780  174.2960  142.1770 C   0  0  0  0  0  1  0  0  0  0  0  0
  191.4370  173.8070  144.5760 N   0  0  0  0  0  2  0  0  0  0  0  0
  193.9390  172.5190  144.9030 C   0  0  0  0  0  2  0  0  0  0  0  0
  190.6380  172.0490  142.9160 C   0  0  2  0  0  3  0  0  0  0  0  0
  191.7580  172.6440  143.7550 C   0  0  2  0  0  0  0  0  0  0  0  0
  191.7740  172.8550  142.2500 C   0  0  2  0  0  3  0  0  0  0  0  0
  188.8950  173.5820  141.9620 C   0  0  2  0  0  0  0  0  0  0  0  0
  191.3600  174.2620  141.8080 C   0  0  0  0  0  2  0  0  0  0  0  0
  192.3300  174.1990  145.6230 C   0  0  0  0  0  0  0  0  0  0  0  0
  189.3930  172.8020  143.1120 N   0  0  0  0  0  2  0  0  0  0  0  0
  190.0760  172.1750  140.3300 F   0  0  0  0  0  0  0  0  0  0  0  0
  189.9280  174.4520  141.2700 C   0  0  1  0  0  3  0  0  0  0  0  0
  189.2660  173.2810  140.5060 C   0  0  2  0  0  3  0  0  0  0  0  0
  190.5800  175.5990  146.3630 O   0  0  0  0  0  0  0  0  0  0  0  0
  190.5480  176.9920  146.2360 C   0  0  1  0  0  3  0  0  0  0  0  0
  188.0360  177.1050  145.9920 C   0  0  0  0  0  2  0  0  0  0  0  0
  190.6820  177.3690  144.7890 C   0  0  0  0  0  0  0  0  0  0  0  0
  187.0550  177.6790  143.7650 C   0  0  0  0  0  3  0  0  0  0  0  0
  187.1780  177.9870  142.4070 C   0  0  0  0  0  0  0  0  0  0  0  0
  191.8320  177.4740  144.2840 O   0  0  0  0  0  0  0  0  0  0  0  0
  189.2430  177.5500  146.8180 C   0  0  0  0  0  2  0  0  0  0  0  0
  189.4760  177.5730  143.9600 C   0  0  0  0  0  0  0  0  0  0  0  0
  188.1970  177.4830  144.5480 C   0  0  0  0  0  0  0  0  0  0  0  0
  189.5900  177.8850  142.5970 C   0  0  0  0  0  3  0  0  0  0  0  0
  188.4440  178.0900  141.8240 C   0  0  0  0  0  3  0  0  0  0  0  0
  185.0550  178.3600  140.9670 N   0  0  0  0  0  0  0  0  0  0  0  0
  186.0020  178.1940  141.6100 C   0  0  0  0  0  0  0  0  0  0  0  0
  2  6  1  0  0  0  0
  5 12  1  0  0  0  0
  6  3  1  0  0  0  0
  7 13  1  1  0  0  0
  7  8  1  0  0  0  0
  8  2  1  1  0  0  0
  8  5  1  0  0  0  0
  9 11  1  1  0  0  0
  9  7  1  0  0  0  0
  9  8  1  0  0  0  0
 10  4  1  1  0  0  0
 10 13  1  0  0  0  0
 12  3  2  0  0  0  0
 12  1  1  0  0  0  0
 15 11  1  1  0  0  0
 15 10  1  0  0  0  0
 16 14  1  1  0  0  0
 16 15  1  0  0  0  0
 16 10  1  0  0  0  0
 17  1  1  0  0  0  0
 18 17  1  6  0  0  0
 18 24  1  0  0  0  0
 19 24  1  0  0  0  0
 20 18  1  0  0  0  0
 21 26  1  0  0  0  0
 22 21  2  0  0  0  0
 23 20  2  0  0  0  0
 25 26  2  0  0  0  0
 25 20  1  0  0  0  0
 26 19  1  0  0  0  0
 27 25  1  0  0  0  0
 28 22  1  0  0  0  0
 28 27  2  0  0  0  0
 29 30  3  0  0  0  0
 30 22  1  0  0  0  0
M  END
>  <MODEL>
7

>  <REMARK>
 VINA RESULT:      -7.4      1.430      1.875
  Name = 
  4 active torsions:
  status: ('A' for Active; 'I' for Inactive)
    1  A    between atoms: C_3  and  O_18
    2  A    between atoms: C_12  and  O_18
    3  A    between atoms: C_12  and  C_19
    4  A    between atoms: C_16  and  C_29
                            x       y       z     vdW  Elec       q    Type
                         _______ _______ _______ _____ _____    ______ ____

>  <TORSDO>
F 4

$$$$
=
 OpenBabel11062419433D

 30 35  0  0  1  0  0  0  0  0999 V2000
  188.7820  176.5060  144.8210 C   0  0  0  0  0  2  0  0  0  0  0  0
  191.1940  174.1810  142.0880 C   0  0  0  0  0  2  0  0  0  0  0  0
  189.0760  174.6660  143.2830 N   0  0  0  0  0  0  0  0  0  0  0  0
  194.8740  177.5310  145.8090 C   0  0  0  0  0  1  0  0  0  0  0  0
  191.0570  175.6510  144.1420 N   0  0  0  0  0  2  0  0  0  0  0  0
  189.8380  173.6490  142.5500 C   0  0  0  0  0  2  0  0  0  0  0  0
  193.3470  175.2070  143.1220 C   0  0  2  0  0  3  0  0  0  0  0  0
  191.8870  174.8140  143.2830 C   0  0  2  0  0  0  0  0  0  0  0  0
  192.9550  173.9790  143.9690 C   0  0  2  0  0  3  0  0  0  0  0  0
  194.5390  176.2570  145.0640 C   0  0  2  0  0  0  0  0  0  0  0  0
  193.0580  174.2090  145.4810 C   0  0  0  0  0  2  0  0  0  0  0  0
  189.6320  175.5410  144.0700 C   0  0  0  0  0  0  0  0  0  0  0  0
  193.6440  176.4150  143.9010 N   0  0  0  0  0  2  0  0  0  0  0  0
  195.5890  174.2330  144.1450 F   0  0  0  0  0  0  0  0  0  0  0  0
  194.2040  175.1050  145.9920 C   0  0  1  0  0  3  0  0  0  0  0  0
  195.5410  175.1070  145.2150 C   0  0  2  0  0  3  0  0  0  0  0  0
  187.5320  176.6100  144.2030 O   0  0  0  0  0  0  0  0  0  0  0  0
  187.4330  177.9460  143.7970 C   0  0  1  0  0  3  0  0  0  0  0  0
  184.9850  178.1450  144.3890 C   0  0  0  0  0  2  0  0  0  0  0  0
  187.0620  178.0040  142.3430 C   0  0  0  0  0  0  0  0  0  0  0  0
  183.2970  178.2940  142.5500 C   0  0  0  0  0  3  0  0  0  0  0  0
  182.9470  178.3040  141.1970 C   0  0  0  0  0  0  0  0  0  0  0  0
  187.9710  177.9360  141.4720 O   0  0  0  0  0  0  0  0  0  0  0  0
  186.3920  178.6850  144.6460 C   0  0  0  0  0  2  0  0  0  0  0  0
  185.6430  178.0970  141.9420 C   0  0  0  0  0  0  0  0  0  0  0  0
  184.6400  178.2030  142.9290 C   0  0  0  0  0  0  0  0  0  0  0  0
  185.2820  178.1100  140.5870 C   0  0  0  0  0  3  0  0  0  0  0  0
  183.9380  178.2130  140.2170 C   0  0  0  0  0  3  0  0  0  0  0  0
  180.4550  178.4870  140.5070 N   0  0  0  0  0  0  0  0  0  0  0  0
  181.5670  178.4050  140.8150 C   0  0  0  0  0  0  0  0  0  0  0  0
  2  6  1  0  0  0  0
  3 12  2  0  0  0  0
  6  3  1  0  0  0  0
  7  8  1  0  0  0  0
  7 13  1  1  0  0  0
  7  9  1  0  0  0  0
  8  2  1  6  0  0  0
  8  9  1  0  0  0  0
  8  5  1  0  0  0  0
  9 11  1  1  0  0  0
 10 16  1  0  0  0  0
 10  4  1  1  0  0  0
 10 15  1  0  0  0  0
 12  5  1  0  0  0  0
 12  1  1  0  0  0  0
 13 10  1  0  0  0  0
 15 11  1  6  0  0  0
 16 14  1  6  0  0  0
 16 15  1  0  0  0  0
 17  1  1  0  0  0  0
 18 17  1  1  0  0  0
 18 24  1  0  0  0  0
 19 24  1  0  0  0  0
 20 18  1  0  0  0  0
 21 26  1  0  0  0  0
 22 21  2  0  0  0  0
 23 20  2  0  0  0  0
 25 20  1  0  0  0  0
 25 26  2  0  0  0  0
 26 19  1  0  0  0  0
 27 25  1  0  0  0  0
 28 27  2  0  0  0  0
 28 22  1  0  0  0  0
 29 30  3  0  0  0  0
 30 22  1  0  0  0  0
M  END
>  <MODEL>
8

>  <REMARK>
 VINA RESULT:      -7.3      2.150      4.129
  Name = 
  4 active torsions:
  status: ('A' for Active; 'I' for Inactive)
    1  A    between atoms: C_3  and  O_18
    2  A    between atoms: C_12  and  O_18
    3  A    between atoms: C_12  and  C_19
    4  A    between atoms: C_16  and  C_29
                            x       y       z     vdW  Elec       q    Type
                         _______ _______ _______ _____ _____    ______ ____

>  <TORSDO>
F 4

$$$$
=
 OpenBabel11062419433D

 30 35  0  0  1  0  0  0  0  0999 V2000
  188.7010  177.5850  147.4590 C   0  0  0  0  0  2  0  0  0  0  0  0
  184.8210  179.0400  146.2220 C   0  0  0  0  0  2  0  0  0  0  0  0
  186.3490  177.9690  147.8560 N   0  0  0  0  0  0  0  0  0  0  0  0
  188.4370  178.2000  141.2390 C   0  0  0  0  0  1  0  0  0  0  0  0
  187.0650  178.0540  145.5960 N   0  0  0  0  0  2  0  0  0  0  0  0
  184.9480  178.1720  147.4740 C   0  0  0  0  0  2  0  0  0  0  0  0
  185.6110  179.0260  143.7460 C   0  0  2  0  0  3  0  0  0  0  0  0
  185.7370  178.4670  145.1540 C   0  0  2  0  0  0  0  0  0  0  0  0
  185.0800  177.6160  144.0810 C   0  0  2  0  0  3  0  0  0  0  0  0
  187.1010  178.1150  141.9430 C   0  0  2  0  0  0  0  0  0  0  0  0
  185.9610  176.4790  143.5520 C   0  0  0  0  0  2  0  0  0  0  0  0
  187.3110  177.8430  146.9900 C   0  0  0  0  0  0  0  0  0  0  0  0
  186.9180  179.0410  143.0780 N   0  0  0  0  0  2  0  0  0  0  0  0
  184.6880  177.9950  141.4860 F   0  0  0  0  0  0  0  0  0  0  0  0
  186.6570  176.6850  142.1930 C   0  0  1  0  0  3  0  0  0  0  0  0
  185.9420  177.5410  141.1210 C   0  0  2  0  0  3  0  0  0  0  0  0
  189.5810  177.6470  146.3740 O   0  0  0  0  0  0  0  0  0  0  0  0
  190.4150  176.5310  146.5130 C   0  0  1  0  0  3  0  0  0  0  0  0
  191.5590  176.8680  144.2850 C   0  0  0  0  0  2  0  0  0  0  0  0
  189.7310  175.3180  145.9520 C   0  0  0  0  0  0  0  0  0  0  0  0
  191.0770  175.2760  142.4190 C   0  0  0  0  0  3  0  0  0  0  0  0
  190.4080  174.1730  141.8820 C   0  0  0  0  0  0  0  0  0  0  0  0
  188.9410  174.6630  146.6840 O   0  0  0  0  0  0  0  0  0  0  0  0
  191.7510  176.7730  145.7980 C   0  0  0  0  0  2  0  0  0  0  0  0
  189.9530  174.9240  144.5450 C   0  0  0  0  0  0  0  0  0  0  0  0
  190.8640  175.6490  143.7490 C   0  0  0  0  0  0  0  0  0  0  0  0
  189.2870  173.8170  143.9990 C   0  0  0  0  0  3  0  0  0  0  0  0
  189.5140  173.4440  142.6720 C   0  0  0  0  0  3  0  0  0  0  0  0
  190.8180  173.4810  139.4170 N   0  0  0  0  0  0  0  0  0  0  0  0
  190.6350  173.7900  140.5170 C   0  0  0  0  0  0  0  0  0  0  0  0
  2  6  1  0  0  0  0
  5 12  1  0  0  0  0
  6  3  1  0  0  0  0
  7 13  1  6  0  0  0
  7  9  1  0  0  0  0
  7  8  1  0  0  0  0
  8  5  1  0  0  0  0
  8  2  1  1  0  0  0
  9 11  1  6  0  0  0
  9  8  1  0  0  0  0
 10  4  1  6  0  0  0
 10 15  1  0  0  0  0
 10 13  1  0  0  0  0
 12  1  1  0  0  0  0
 12  3  2  0  0  0  0
 15 11  1  1  0  0  0
 16 14  1  1  0  0  0
 16 10  1  0  0  0  0
 16 15  1  0  0  0  0
 17  1  1  0  0  0  0
 18 17  1  6  0  0  0
 19 24  1  0  0  0  0
 20 18  1  0  0  0  0
 20 23  2  0  0  0  0
 21 26  1  0  0  0  0
 22 21  2  0  0  0  0
 22 28  1  0  0  0  0
 24 18  1  0  0  0  0
 25 20  1  0  0  0  0
 26 19  1  0  0  0  0
 26 25  2  0  0  0  0
 27 25  1  0  0  0  0
 28 27  2  0  0  0  0
 29 30  3  0  0  0  0
 30 22  1  0  0  0  0
M  END
>  <MODEL>
9

>  <REMARK>
 VINA RESULT:      -7.0      2.729      6.070
  Name = 
  4 active torsions:
  status: ('A' for Active; 'I' for Inactive)
    1  A    between atoms: C_3  and  O_18
    2  A    between atoms: C_12  and  O_18
    3  A    between atoms: C_12  and  C_19
    4  A    between atoms: C_16  and  C_29
                            x       y       z     vdW  Elec       q    Type
                         _______ _______ _______ _____ _____    ______ ____

>  <TORSDO>
F 4

$$$$
