=
 OpenBabel11062423103D

 28 31  0  0  1  0  0  0  0  0999 V2000
  188.8580  176.2640  145.4550 C   0  0  1  0  0  3  0  0  0  0  0  0
  191.3890  176.1560  143.8840 C   0  0  0  0  0  0  0  0  0  0  0  0
  189.5230  174.9800  145.1970 C   0  0  2  0  0  3  0  0  0  0  0  0
  192.6450  176.3410  143.6140 N   0  0  0  0  0  0  0  0  0  0  0  0
  193.6830  175.5300  144.2540 C   0  0  2  0  0  3  0  0  0  0  0  0
  190.9800  175.2330  144.9380 C   0  0  0  0  0  0  0  0  0  0  0  0
  189.1200  176.2280  143.0190 C   0  0  2  0  0  3  0  0  0  0  0  0
  188.5570  175.5430  144.2080 N   0  0  2  0  0  0  0  0  0  0  0  0
  191.8750  174.7460  145.7480 N   0  0  0  0  0  0  0  0  0  0  0  0
  193.2830  175.1480  145.6860 C   0  0  0  0  0  2  0  0  0  0  0  0
  190.4010  176.8330  143.1960 O   0  0  0  0  0  0  0  0  0  0  0  0
  195.8710  176.0760  143.1310 N   0  0  0  0  0  2  0  0  0  0  0  0
  195.3140  176.9940  145.2050 O   0  0  0  0  0  0  0  0  0  0  0  0
  197.1590  176.7430  143.0590 C   0  0  0  0  0  1  0  0  0  0  0  0
  194.9900  176.2480  144.2400 C   0  0  0  0  0  0  0  0  0  0  0  0
  188.7990  178.2640  141.7920 O   0  0  0  0  0  1  0  0  0  0  0  0
  188.1280  177.2260  142.4390 C   0  0  0  0  0  2  0  0  0  0  0  0
  187.8080  176.0740  146.3680 O   0  0  0  0  0  0  0  0  0  0  0  0
  186.9080  177.1550  146.2520 C   0  0  1  0  0  3  0  0  0  0  0  0
  185.5410  176.7230  145.6900 C   0  0  0  0  0  2  0  0  0  0  0  0
  186.7650  177.8500  147.4720 O   0  0  0  0  0  0  0  0  0  0  0  0
  186.1890  179.9400  148.3330 N   0  0  0  0  0  1  0  0  0  0  0  0
  184.6310  177.9410  145.5180 C   0  0  1  0  0  3  0  0  0  0  0  0
  186.1490  179.0760  147.1680 C   0  0  2  0  0  3  0  0  0  0  0  0
  184.6930  178.8440  146.7560 C   0  0  0  0  0  2  0  0  0  0  0  0
  185.0070  178.7040  144.2510 C   0  0  0  0  0  2  0  0  0  0  0  0
  184.9050  178.5710  141.8650 O   0  0  0  0  0  1  0  0  0  0  0  0
  184.2750  178.1540  143.0380 C   0  0  0  0  0  2  0  0  0  0  0  0
  1 18  1  1  0  0  0
  2  6  1  0  0  0  0
  3  6  1  6  0  0  0
  3  1  1  0  0  0  0
  4  2  2  0  0  0  0
  4  5  1  0  0  0  0
  5 15  1  1  0  0  0
  5 10  1  0  0  0  0
  6  9  2  0  0  0  0
  7 17  1  1  0  0  0
  7 11  1  0  0  0  0
  7  8  1  0  0  0  0
  8  3  1  0  0  0  0
  8  1  1  0  0  0  0
 10  9  1  0  0  0  0
 11  2  1  0  0  0  0
 12 15  1  0  0  0  0
 14 12  1  0  0  0  0
 15 13  2  0  0  0  0
 16 17  1  0  0  0  0
 19 18  1  0  0  0  0
 19 21  1  0  0  0  0
 20 19  1  0  0  0  0
 23 20  1  0  0  0  0
 23 25  1  0  0  0  0
 24 21  1  0  0  0  0
 24 22  1  0  0  0  0
 25 24  1  0  0  0  0
 26 23  1  0  0  0  0
 27 28  1  0  0  0  0
 28 26  1  0  0  0  0
M  END
>  <MODEL>
1

>  <REMARK>
 VINA RESULT:      -6.9      0.000      0.000
  Name = 
  6 active torsions:
  status: ('A' for Active; 'I' for Inactive)
    1  A    between atoms: C_1  and  O_27
    2  A    between atoms: C_2  and  O_27
    3  A    between atoms: C_9  and  C_28
    4  A    between atoms: C_12  and  C_25
    5  A    between atoms: C_15  and  C_19
    6  A    between atoms: C_15  and  C_26
                            x       y       z     vdW  Elec       q    Type
                         _______ _______ _______ _____ _____    ______ ____

>  <TORSDO>
F 6

$$$$
=
 OpenBabel11062423103D

 28 31  0  0  1  0  0  0  0  0999 V2000
  189.6610  174.1400  143.0040 C   0  0  1  0  0  3  0  0  0  0  0  0
  187.8410  175.9090  141.4420 C   0  0  0  0  0  0  0  0  0  0  0  0
  190.0410  175.5280  142.7070 C   0  0  2  0  0  3  0  0  0  0  0  0
  186.7870  176.6230  141.1830 N   0  0  0  0  0  0  0  0  0  0  0  0
  186.5950  177.9370  141.8010 C   0  0  2  0  0  3  0  0  0  0  0  0
  188.7940  176.3290  142.4640 C   0  0  0  0  0  0  0  0  0  0  0  0
  189.4310  174.2950  140.5690 C   0  0  2  0  0  3  0  0  0  0  0  0
  190.3410  174.4380  141.7330 N   0  0  2  0  0  0  0  0  0  0  0  0
  188.4900  177.3110  143.2610 N   0  0  0  0  0  0  0  0  0  0  0  0
  187.1840  177.9750  143.2180 C   0  0  0  0  0  2  0  0  0  0  0  0
  188.0860  174.7270  140.7720 O   0  0  0  0  0  0  0  0  0  0  0  0
  184.3560  178.0650  140.6520 N   0  0  0  0  0  2  0  0  0  0  0  0
  184.6350  178.8170  142.8470 O   0  0  0  0  0  0  0  0  0  0  0  0
  182.9440  178.4010  140.6020 C   0  0  0  0  0  1  0  0  0  0  0  0
  185.1480  178.3000  141.8170 C   0  0  0  0  0  0  0  0  0  0  0  0
  188.2020  172.5000  139.5580 O   0  0  0  0  0  1  0  0  0  0  0  0
  189.4650  172.8770  140.0170 C   0  0  0  0  0  2  0  0  0  0  0  0
  190.5820  173.5840  143.9050 O   0  0  0  0  0  0  0  0  0  0  0  0
  190.7190  174.4560  145.0070 C   0  0  1  0  0  3  0  0  0  0  0  0
  189.6880  174.1680  146.1140 C   0  0  0  0  0  2  0  0  0  0  0  0
  192.0350  174.4520  145.5170 O   0  0  0  0  0  0  0  0  0  0  0  0
  193.5390  175.7710  146.7170 N   0  0  0  0  0  1  0  0  0  0  0  0
  189.8340  175.1840  147.2490 C   0  0  1  0  0  3  0  0  0  0  0  0
  192.1480  175.5770  146.3510 C   0  0  2  0  0  3  0  0  0  0  0  0
  191.3110  175.3790  147.6160 C   0  0  0  0  0  2  0  0  0  0  0  0
  189.1770  176.5050  146.8610 C   0  0  0  0  0  2  0  0  0  0  0  0
  187.0460  177.5910  146.8050 O   0  0  0  0  0  1  0  0  0  0  0  0
  187.6730  176.3490  146.7060 C   0  0  0  0  0  2  0  0  0  0  0  0
  1 18  1  1  0  0  0
  2  6  1  0  0  0  0
  3  6  1  6  0  0  0
  3  1  1  0  0  0  0
  4  2  2  0  0  0  0
  4  5  1  0  0  0  0
  5 15  1  1  0  0  0
  5 10  1  0  0  0  0
  6  9  2  0  0  0  0
  7 17  1  1  0  0  0
  7 11  1  0  0  0  0
  7  8  1  0  0  0  0
  8  3  1  0  0  0  0
  8  1  1  0  0  0  0
 10  9  1  0  0  0  0
 11  2  1  0  0  0  0
 12 15  1  0  0  0  0
 14 12  1  0  0  0  0
 15 13  2  0  0  0  0
 16 17  1  0  0  0  0
 18 19  1  0  0  0  0
 19 21  1  0  0  0  0
 19 20  1  0  0  0  0
 20 23  1  0  0  0  0
 21 24  1  0  0  0  0
 23 25  1  0  0  0  0
 24 22  1  0  0  0  0
 24 25  1  0  0  0  0
 26 23  1  0  0  0  0
 28 27  1  0  0  0  0
 28 26  1  0  0  0  0
M  END
>  <MODEL>
2

>  <REMARK>
 VINA RESULT:      -6.9      2.953      6.881
  Name = 
  6 active torsions:
  status: ('A' for Active; 'I' for Inactive)
    1  A    between atoms: C_1  and  O_27
    2  A    between atoms: C_2  and  O_27
    3  A    between atoms: C_9  and  C_28
    4  A    between atoms: C_12  and  C_25
    5  A    between atoms: C_15  and  C_19
    6  A    between atoms: C_15  and  C_26
                            x       y       z     vdW  Elec       q    Type
                         _______ _______ _______ _____ _____    ______ ____

>  <TORSDO>
F 6

$$$$
=
 OpenBabel11062423103D

 28 31  0  0  1  0  0  0  0  0999 V2000
  189.7360  175.3580  145.4730 C   0  0  1  0  0  3  0  0  0  0  0  0
  192.4590  174.2590  144.9610 C   0  0  0  0  0  0  0  0  0  0  0  0
  190.5630  174.8640  146.5820 C   0  0  2  0  0  3  0  0  0  0  0  0
  193.7140  174.2620  144.6270 N   0  0  0  0  0  0  0  0  0  0  0  0
  194.7320  174.8130  145.5250 C   0  0  2  0  0  3  0  0  0  0  0  0
  192.0070  174.9320  146.1750 C   0  0  0  0  0  0  0  0  0  0  0  0
  190.3400  173.0860  144.7780 C   0  0  2  0  0  3  0  0  0  0  0  0
  189.6910  173.9270  145.8150 N   0  0  2  0  0  0  0  0  0  0  0  0
  192.8260  175.7090  146.8210 N   0  0  0  0  0  0  0  0  0  0  0  0
  194.1780  175.9940  146.3330 C   0  0  0  0  0  2  0  0  0  0  0  0
  191.5110  173.6350  144.1740 O   0  0  0  0  0  0  0  0  0  0  0  0
  195.8860  176.3670  143.9120 N   0  0  0  0  0  2  0  0  0  0  0  0
  197.0060  174.5400  144.8420 O   0  0  0  0  0  0  0  0  0  0  0  0
  197.0290  176.8080  143.1320 C   0  0  0  0  0  1  0  0  0  0  0  0
  195.9440  175.2160  144.7540 C   0  0  0  0  0  0  0  0  0  0  0  0
  189.7690  173.0420  142.4490 O   0  0  0  0  0  1  0  0  0  0  0  0
  189.3380  172.6530  143.7180 C   0  0  0  0  0  2  0  0  0  0  0  0
  188.5950  175.9950  145.9860 O   0  0  0  0  0  0  0  0  0  0  0  0
  187.7920  176.4210  144.9060 C   0  0  1  0  0  3  0  0  0  0  0  0
  187.4350  177.9160  144.9940 C   0  0  0  0  0  2  0  0  0  0  0  0
  188.3790  176.1060  143.6610 O   0  0  0  0  0  0  0  0  0  0  0  0
  187.8360  175.7070  141.4280 N   0  0  0  0  0  1  0  0  0  0  0  0
  186.5080  178.3070  143.8410 C   0  0  1  0  0  3  0  0  0  0  0  0
  187.3700  176.2460  142.6930 C   0  0  2  0  0  3  0  0  0  0  0  0
  187.0130  177.7230  142.5160 C   0  0  0  0  0  2  0  0  0  0  0  0
  185.0790  177.8600  144.1400 C   0  0  0  0  0  2  0  0  0  0  0  0
  184.1440  177.9340  146.3400 O   0  0  0  0  0  1  0  0  0  0  0  0
  184.4480  178.7160  145.2260 C   0  0  0  0  0  2  0  0  0  0  0  0
  1  8  1  0  0  0  0
  1 18  1  1  0  0  0
  1  3  1  0  0  0  0
  2  6  1  0  0  0  0
  3  6  1  6  0  0  0
  4  2  2  0  0  0  0
  4  5  1  0  0  0  0
  5 15  1  6  0  0  0
  5 10  1  0  0  0  0
  6  9  2  0  0  0  0
  7 17  1  6  0  0  0
  7  8  1  0  0  0  0
  8  3  1  0  0  0  0
 10  9  1  0  0  0  0
 11  7  1  0  0  0  0
 11  2  1  0  0  0  0
 12 15  1  0  0  0  0
 14 12  1  0  0  0  0
 15 13  2  0  0  0  0
 16 17  1  0  0  0  0
 19 20  1  0  0  0  0
 19 18  1  0  0  0  0
 21 19  1  0  0  0  0
 22 24  1  0  0  0  0
 23 26  1  0  0  0  0
 23 20  1  0  0  0  0
 24 21  1  0  0  0  0
 25 24  1  0  0  0  0
 25 23  1  0  0  0  0
 26 28  1  0  0  0  0
 28 27  1  0  0  0  0
M  END
>  <MODEL>
3

>  <REMARK>
 VINA RESULT:      -6.7      2.420      3.334
  Name = 
  6 active torsions:
  status: ('A' for Active; 'I' for Inactive)
    1  A    between atoms: C_1  and  O_27
    2  A    between atoms: C_2  and  O_27
    3  A    between atoms: C_9  and  C_28
    4  A    between atoms: C_12  and  C_25
    5  A    between atoms: C_15  and  C_19
    6  A    between atoms: C_15  and  C_26
                            x       y       z     vdW  Elec       q    Type
                         _______ _______ _______ _____ _____    ______ ____

>  <TORSDO>
F 6

$$$$
=
 OpenBabel11062423103D

 28 31  0  0  1  0  0  0  0  0999 V2000
  188.5730  176.0600  144.6470 C   0  0  1  0  0  3  0  0  0  0  0  0
  187.0880  177.0230  142.2480 C   0  0  0  0  0  0  0  0  0  0  0  0
  188.5420  177.4900  144.3110 C   0  0  2  0  0  3  0  0  0  0  0  0
  186.0650  177.2910  141.4950 N   0  0  0  0  0  0  0  0  0  0  0  0
  185.1960  178.4350  141.7800 C   0  0  2  0  0  3  0  0  0  0  0  0
  187.3200  177.7660  143.4830 C   0  0  0  0  0  0  0  0  0  0  0  0
  189.3430  176.1250  142.3210 C   0  0  2  0  0  3  0  0  0  0  0  0
  189.5740  176.5950  143.7090 N   0  0  2  0  0  0  0  0  0  0  0  0
  186.3960  178.5610  143.9380 N   0  0  0  0  0  0  0  0  0  0  0  0
  185.0880  178.6860  143.2900 C   0  0  0  0  0  2  0  0  0  0  0  0
  187.9780  176.0210  141.9170 O   0  0  0  0  0  0  0  0  0  0  0  0
  182.6850  178.4150  141.9840 N   0  0  0  0  0  2  0  0  0  0  0  0
  183.7390  177.8860  139.9670 O   0  0  0  0  0  0  0  0  0  0  0  0
  181.3440  178.2250  141.4570 C   0  0  0  0  0  1  0  0  0  0  0  0
  183.8470  178.2290  141.1770 C   0  0  0  0  0  0  0  0  0  0  0  0
  189.6170  174.2260  140.8810 O   0  0  0  0  0  1  0  0  0  0  0  0
  190.0860  174.8250  142.0510 C   0  0  0  0  0  2  0  0  0  0  0  0
  189.1620  175.8870  145.9090 O   0  0  0  0  0  0  0  0  0  0  0  0
  190.5260  175.5710  145.7300 C   0  0  1  0  0  3  0  0  0  0  0  0
  191.4140  176.1480  146.8480 C   0  0  0  0  0  2  0  0  0  0  0  0
  190.7260  174.1820  145.5810 O   0  0  0  0  0  0  0  0  0  0  0  0
  192.2100  172.6320  144.6660 N   0  0  0  0  0  1  0  0  0  0  0  0
  192.8860  175.8370  146.5690 C   0  0  1  0  0  3  0  0  0  0  0  0
  192.0250  174.0130  145.0700 C   0  0  2  0  0  3  0  0  0  0  0  0
  193.0600  174.3760  146.1370 C   0  0  0  0  0  2  0  0  0  0  0  0
  193.4360  176.7980  145.5180 C   0  0  0  0  0  2  0  0  0  0  0  0
  195.0080  176.1300  143.8440 O   0  0  0  0  0  1  0  0  0  0  0  0
  194.8860  176.4840  145.1880 C   0  0  0  0  0  2  0  0  0  0  0  0
  1 18  1  1  0  0  0
  2  6  1  0  0  0  0
  3  6  1  6  0  0  0
  3  1  1  0  0  0  0
  4  5  1  0  0  0  0
  4  2  2  0  0  0  0
  5 15  1  1  0  0  0
  5 10  1  0  0  0  0
  6  9  2  0  0  0  0
  7 17  1  1  0  0  0
  7  8  1  0  0  0  0
  8  3  1  0  0  0  0
  8  1  1  0  0  0  0
 10  9  1  0  0  0  0
 11  2  1  0  0  0  0
 11  7  1  0  0  0  0
 13 15  2  0  0  0  0
 14 12  1  0  0  0  0
 15 12  1  0  0  0  0
 16 17  1  0  0  0  0
 19 18  1  0  0  0  0
 19 20  1  0  0  0  0
 21 19  1  0  0  0  0
 22 24  1  0  0  0  0
 23 20  1  0  0  0  0
 24 21  1  0  0  0  0
 24 25  1  0  0  0  0
 25 23  1  0  0  0  0
 26 23  1  0  0  0  0
 27 28  1  0  0  0  0
 28 26  1  0  0  0  0
M  END
>  <MODEL>
4

>  <REMARK>
 VINA RESULT:      -6.7      2.527      8.066
  Name = 
  6 active torsions:
  status: ('A' for Active; 'I' for Inactive)
    1  A    between atoms: C_1  and  O_27
    2  A    between atoms: C_2  and  O_27
    3  A    between atoms: C_9  and  C_28
    4  A    between atoms: C_12  and  C_25
    5  A    between atoms: C_15  and  C_19
    6  A    between atoms: C_15  and  C_26
                            x       y       z     vdW  Elec       q    Type
                         _______ _______ _______ _____ _____    ______ ____

>  <TORSDO>
F 6

$$$$
=
 OpenBabel11062423103D

 28 31  0  0  1  0  0  0  0  0999 V2000
  188.3280  177.5480  142.5490 C   0  0  1  0  0  3  0  0  0  0  0  0
  189.9660  175.3370  143.6950 C   0  0  0  0  0  0  0  0  0  0  0  0
  187.9910  176.9690  143.8560 C   0  0  2  0  0  3  0  0  0  0  0  0
  191.0040  174.7540  144.2130 N   0  0  0  0  0  0  0  0  0  0  0  0
  191.3800  174.9840  145.6100 C   0  0  2  0  0  3  0  0  0  0  0  0
  189.2270  176.3490  144.4430 C   0  0  0  0  0  0  0  0  0  0  0  0
  188.1520  175.1460  142.0910 C   0  0  2  0  0  3  0  0  0  0  0  0
  187.4630  176.3570  142.6020 N   0  0  2  0  0  0  0  0  0  0  0  0
  189.7220  176.8180  145.5510 N   0  0  0  0  0  0  0  0  0  0  0  0
  191.0420  176.4160  146.0460 C   0  0  0  0  0  2  0  0  0  0  0  0
  189.5360  175.0320  142.4190 O   0  0  0  0  0  0  0  0  0  0  0  0
  193.3980  173.5270  145.2220 N   0  0  0  0  0  2  0  0  0  0  0  0
  193.5390  175.4680  146.5140 O   0  0  0  0  0  0  0  0  0  0  0  0
  194.8000  173.1850  145.3880 C   0  0  0  0  0  1  0  0  0  0  0  0
  192.8280  174.6930  145.8150 C   0  0  0  0  0  0  0  0  0  0  0  0
  188.9230  174.1640  140.0430 O   0  0  0  0  0  1  0  0  0  0  0  0
  187.9360  174.9820  140.5940 C   0  0  0  0  0  2  0  0  0  0  0  0
  187.5380  178.6860  142.3220 O   0  0  0  0  0  0  0  0  0  0  0  0
  186.2980  178.5120  142.9720 C   0  0  1  0  0  3  0  0  0  0  0  0
  186.1420  179.4320  144.1960 C   0  0  0  0  0  2  0  0  0  0  0  0
  185.2140  178.6570  142.0790 O   0  0  0  0  0  0  0  0  0  0  0  0
  182.9880  178.0270  141.7810 N   0  0  0  0  0  1  0  0  0  0  0  0
  184.8140  179.1530  144.9030 C   0  0  1  0  0  3  0  0  0  0  0  0
  184.0840  178.1310  142.7270 C   0  0  2  0  0  3  0  0  0  0  0  0
  183.6720  179.0410  143.8860 C   0  0  0  0  0  2  0  0  0  0  0  0
  184.9280  177.8940  145.7570 C   0  0  0  0  0  2  0  0  0  0  0  0
  186.4860  176.7880  147.1960 O   0  0  0  0  0  1  0  0  0  0  0  0
  186.0060  178.0420  146.8190 C   0  0  0  0  0  2  0  0  0  0  0  0
  1 18  1  1  0  0  0
  1  8  1  0  0  0  0
  1  3  1  0  0  0  0
  2  4  2  0  0  0  0
  2  6  1  0  0  0  0
  3  6  1  6  0  0  0
  4  5  1  0  0  0  0
  5 15  1  6  0  0  0
  5 10  1  0  0  0  0
  6  9  2  0  0  0  0
  7 17  1  6  0  0  0
  7 11  1  0  0  0  0
  7  8  1  0  0  0  0
  8  3  1  0  0  0  0
  9 10  1  0  0  0  0
 11  2  1  0  0  0  0
 12 14  1  0  0  0  0
 12 15  1  0  0  0  0
 15 13  2  0  0  0  0
 16 17  1  0  0  0  0
 18 19  1  0  0  0  0
 19 20  1  0  0  0  0
 20 23  1  0  0  0  0
 21 24  1  0  0  0  0
 21 19  1  0  0  0  0
 22 24  1  0  0  0  0
 23 26  1  0  0  0  0
 24 25  1  0  0  0  0
 25 23  1  0  0  0  0
 26 28  1  0  0  0  0
 28 27  1  0  0  0  0
M  END
>  <MODEL>
5

>  <REMARK>
 VINA RESULT:      -6.5      2.178      3.673
  Name = 
  6 active torsions:
  status: ('A' for Active; 'I' for Inactive)
    1  A    between atoms: C_1  and  O_27
    2  A    between atoms: C_2  and  O_27
    3  A    between atoms: C_9  and  C_28
    4  A    between atoms: C_12  and  C_25
    5  A    between atoms: C_15  and  C_19
    6  A    between atoms: C_15  and  C_26
                            x       y       z     vdW  Elec       q    Type
                         _______ _______ _______ _____ _____    ______ ____

>  <TORSDO>
F 6

$$$$
=
 OpenBabel11062423103D

 28 31  0  0  1  0  0  0  0  0999 V2000
  190.5260  174.0170  143.0210 C   0  0  1  0  0  3  0  0  0  0  0  0
  188.0270  175.5890  142.6060 C   0  0  0  0  0  0  0  0  0  0  0  0
  190.5890  175.4310  142.6270 C   0  0  2  0  0  3  0  0  0  0  0  0
  186.9230  176.1970  142.9170 N   0  0  0  0  0  0  0  0  0  0  0  0
  186.9420  177.4940  143.5990 C   0  0  2  0  0  3  0  0  0  0  0  0
  189.3170  176.1080  143.0500 C   0  0  0  0  0  0  0  0  0  0  0  0
  189.1260  174.1220  141.0120 C   0  0  2  0  0  3  0  0  0  0  0  0
  190.4710  174.3630  141.5910 N   0  0  2  0  0  0  0  0  0  0  0  0
  189.3550  177.0660  143.9290 N   0  0  0  0  0  0  0  0  0  0  0  0
  188.1400  177.6030  144.5500 C   0  0  0  0  0  2  0  0  0  0  0  0
  188.0180  174.4280  141.8580 O   0  0  0  0  0  0  0  0  0  0  0  0
  185.6570  177.7040  145.7550 N   0  0  0  0  0  2  0  0  0  0  0  0
  184.5900  177.9100  143.6870 O   0  0  0  0  0  0  0  0  0  0  0  0
  184.4420  177.9110  146.5240 C   0  0  0  0  0  1  0  0  0  0  0  0
  185.6600  177.7180  144.3280 C   0  0  0  0  0  0  0  0  0  0  0  0
  188.1230  172.6700  139.3870 O   0  0  0  0  0  1  0  0  0  0  0  0
  189.0110  172.7070  140.4630 C   0  0  0  0  0  2  0  0  0  0  0  0
  191.8140  173.5610  143.3400 O   0  0  0  0  0  0  0  0  0  0  0  0
  192.4400  174.5180  144.1670 C   0  0  1  0  0  3  0  0  0  0  0  0
  192.3490  174.1520  145.6600 C   0  0  0  0  0  2  0  0  0  0  0  0
  193.7760  174.7530  143.7770 O   0  0  0  0  0  0  0  0  0  0  0  0
  195.4560  176.3680  143.8740 N   0  0  0  0  0  1  0  0  0  0  0  0
  192.9790  175.2550  146.5140 C   0  0  1  0  0  3  0  0  0  0  0  0
  194.1810  175.9370  144.4160 C   0  0  2  0  0  3  0  0  0  0  0  0
  194.3210  175.7000  145.9210 C   0  0  0  0  0  2  0  0  0  0  0  0
  192.0130  176.4280  146.6540 C   0  0  0  0  0  2  0  0  0  0  0  0
  189.7660  175.8800  147.2630 O   0  0  0  0  0  1  0  0  0  0  0  0
  191.0210  176.1960  147.7820 C   0  0  0  0  0  2  0  0  0  0  0  0
  1 18  1  6  0  0  0
  2  4  2  0  0  0  0
  2  6  1  0  0  0  0
  3  1  1  0  0  0  0
  3  6  1  1  0  0  0
  4  5  1  0  0  0  0
  5 15  1  1  0  0  0
  5 10  1  0  0  0  0
  6  9  2  0  0  0  0
  7 17  1  1  0  0  0
  7  8  1  0  0  0  0
  7 11  1  0  0  0  0
  8  3  1  0  0  0  0
  8  1  1  0  0  0  0
  9 10  1  0  0  0  0
 11  2  1  0  0  0  0
 12 14  1  0  0  0  0
 13 15  2  0  0  0  0
 15 12  1  0  0  0  0
 16 17  1  0  0  0  0
 18 19  1  0  0  0  0
 19 20  1  0  0  0  0
 20 23  1  0  0  0  0
 21 19  1  0  0  0  0
 21 24  1  0  0  0  0
 22 24  1  0  0  0  0
 23 26  1  0  0  0  0
 24 25  1  0  0  0  0
 25 23  1  0  0  0  0
 26 28  1  0  0  0  0
 27 28  1  0  0  0  0
M  END
>  <MODEL>
6

>  <REMARK>
 VINA RESULT:      -6.4      2.531      7.413
  Name = 
  6 active torsions:
  status: ('A' for Active; 'I' for Inactive)
    1  A    between atoms: C_1  and  O_27
    2  A    between atoms: C_2  and  O_27
    3  A    between atoms: C_9  and  C_28
    4  A    between atoms: C_12  and  C_25
    5  A    between atoms: C_15  and  C_19
    6  A    between atoms: C_15  and  C_26
                            x       y       z     vdW  Elec       q    Type
                         _______ _______ _______ _____ _____    ______ ____

>  <TORSDO>
F 6

$$$$
=
 OpenBabel11062423103D

 28 31  0  0  1  0  0  0  0  0999 V2000
  190.4920  176.1630  146.0810 C   0  0  1  0  0  3  0  0  0  0  0  0
  192.9800  175.1850  144.7610 C   0  0  0  0  0  0  0  0  0  0  0  0
  191.6720  175.8070  146.8800 C   0  0  2  0  0  3  0  0  0  0  0  0
  194.0530  175.2330  144.0320 N   0  0  0  0  0  0  0  0  0  0  0  0
  195.2600  175.9110  144.5110 C   0  0  2  0  0  3  0  0  0  0  0  0
  192.8950  175.9250  146.0160 C   0  0  0  0  0  0  0  0  0  0  0  0
  191.0180  173.8820  145.3550 C   0  0  2  0  0  3  0  0  0  0  0  0
  190.6760  174.7630  146.4990 N   0  0  2  0  0  0  0  0  0  0  0  0
  193.8150  176.7960  146.3110 N   0  0  0  0  0  0  0  0  0  0  0  0
  194.9070  177.1190  145.3890 C   0  0  0  0  0  2  0  0  0  0  0  0
  191.8810  174.4460  144.3680 O   0  0  0  0  0  0  0  0  0  0  0  0
  195.9440  175.6830  142.0970 N   0  0  0  0  0  2  0  0  0  0  0  0
  196.9970  177.2150  143.5130 O   0  0  0  0  0  0  0  0  0  0  0  0
  196.7520  176.0330  140.9420 C   0  0  0  0  0  1  0  0  0  0  0  0
  196.1190  176.3200  143.3630 C   0  0  0  0  0  0  0  0  0  0  0  0
  189.6260  171.9560  145.0260 O   0  0  0  0  0  1  0  0  0  0  0  0
  189.7640  173.3080  144.7110 C   0  0  0  0  0  2  0  0  0  0  0  0
  189.5330  176.7720  146.9050 O   0  0  0  0  0  0  0  0  0  0  0  0
  188.4730  177.2360  146.0970 C   0  0  1  0  0  3  0  0  0  0  0  0
  188.1680  176.2830  144.9260 C   0  0  0  0  0  2  0  0  0  0  0  0
  187.3140  177.5020  146.8570 O   0  0  0  0  0  0  0  0  0  0  0  0
  185.3640  178.7820  146.8360 N   0  0  0  0  0  1  0  0  0  0  0  0
  187.0620  176.8660  144.0440 C   0  0  1  0  0  3  0  0  0  0  0  0
  186.4640  178.2690  146.0410 C   0  0  2  0  0  3  0  0  0  0  0  0
  185.9120  177.4090  144.9020 C   0  0  0  0  0  2  0  0  0  0  0  0
  187.6330  177.9470  143.1290 C   0  0  0  0  0  2  0  0  0  0  0  0
  186.0960  177.2770  141.4230 O   0  0  0  0  0  1  0  0  0  0  0  0
  187.4340  177.5920  141.6650 C   0  0  0  0  0  2  0  0  0  0  0  0
  1  8  1  0  0  0  0
  1  3  1  0  0  0  0
  1 18  1  1  0  0  0
  2  6  1  0  0  0  0
  3  6  1  6  0  0  0
  4  5  1  0  0  0  0
  4  2  2  0  0  0  0
  5 15  1  6  0  0  0
  5 10  1  0  0  0  0
  6  9  2  0  0  0  0
  7 17  1  6  0  0  0
  7  8  1  0  0  0  0
  8  3  1  0  0  0  0
 10  9  1  0  0  0  0
 11  2  1  0  0  0  0
 11  7  1  0  0  0  0
 12 15  1  0  0  0  0
 14 12  1  0  0  0  0
 15 13  2  0  0  0  0
 17 16  1  0  0  0  0
 19 21  1  0  0  0  0
 19 18  1  0  0  0  0
 20 19  1  0  0  0  0
 23 25  1  0  0  0  0
 23 20  1  0  0  0  0
 24 22  1  0  0  0  0
 24 21  1  0  0  0  0
 25 24  1  0  0  0  0
 26 23  1  0  0  0  0
 27 28  1  0  0  0  0
 28 26  1  0  0  0  0
M  END
>  <MODEL>
7

>  <REMARK>
 VINA RESULT:      -6.3      1.870      2.839
  Name = 
  6 active torsions:
  status: ('A' for Active; 'I' for Inactive)
    1  A    between atoms: C_1  and  O_27
    2  A    between atoms: C_2  and  O_27
    3  A    between atoms: C_9  and  C_28
    4  A    between atoms: C_12  and  C_25
    5  A    between atoms: C_15  and  C_19
    6  A    between atoms: C_15  and  C_26
                            x       y       z     vdW  Elec       q    Type
                         _______ _______ _______ _____ _____    ______ ____

>  <TORSDO>
F 6

$$$$
=
 OpenBabel11062423103D

 28 31  0  0  1  0  0  0  0  0999 V2000
  189.8280  175.2560  145.3750 C   0  0  1  0  0  3  0  0  0  0  0  0
  188.0700  177.6070  144.8570 C   0  0  0  0  0  0  0  0  0  0  0  0
  189.2510  176.0180  146.4900 C   0  0  2  0  0  3  0  0  0  0  0  0
  187.0170  178.2580  144.4660 N   0  0  0  0  0  0  0  0  0  0  0  0
  185.7790  178.2300  145.2480 C   0  0  2  0  0  3  0  0  0  0  0  0
  188.0100  176.7140  146.0100 C   0  0  0  0  0  0  0  0  0  0  0  0
  190.4980  177.5670  144.9060 C   0  0  2  0  0  3  0  0  0  0  0  0
  190.5420  176.4430  145.8740 N   0  0  2  0  0  0  0  0  0  0  0  0
  186.8560  176.4090  146.5270 N   0  0  0  0  0  0  0  0  0  0  0  0
  185.5940  176.8770  145.9470 C   0  0  0  0  0  2  0  0  0  0  0  0
  189.2740  177.7250  144.1910 O   0  0  0  0  0  0  0  0  0  0  0  0
  184.5540  178.0160  143.0560 N   0  0  0  0  0  2  0  0  0  0  0  0
  183.6770  179.2820  144.8130 O   0  0  0  0  0  0  0  0  0  0  0  0
  183.4440  178.2900  142.1610 C   0  0  0  0  0  1  0  0  0  0  0  0
  184.6070  178.5460  144.3810 C   0  0  0  0  0  0  0  0  0  0  0  0
  192.8520  177.1950  144.6360 O   0  0  0  0  0  1  0  0  0  0  0  0
  191.6800  177.5130  143.9490 C   0  0  0  0  0  2  0  0  0  0  0  0
  190.4490  174.0980  145.8690 O   0  0  0  0  0  0  0  0  0  0  0  0
  190.6430  173.1990  144.7980 C   0  0  1  0  0  3  0  0  0  0  0  0
  190.4290  173.8650  143.4260 C   0  0  0  0  0  2  0  0  0  0  0  0
  191.9020  172.5640  144.8700 O   0  0  0  0  0  0  0  0  0  0  0  0
  193.0190  170.6310  144.1950 N   0  0  0  0  0  1  0  0  0  0  0  0
  190.5820  172.8320  142.3080 C   0  0  1  0  0  3  0  0  0  0  0  0
  191.8510  171.4670  143.9930 C   0  0  2  0  0  3  0  0  0  0  0  0
  191.8180  171.9550  142.5430 C   0  0  0  0  0  2  0  0  0  0  0  0
  189.3140  171.9900  142.1930 C   0  0  0  0  0  2  0  0  0  0  0  0
  188.1950  173.0060  140.3390 O   0  0  0  0  0  1  0  0  0  0  0  0
  188.1360  172.8280  141.7210 C   0  0  0  0  0  2  0  0  0  0  0  0
  1 18  1  1  0  0  0
  1  8  1  0  0  0  0
  1  3  1  0  0  0  0
  2  6  1  0  0  0  0
  3  6  1  6  0  0  0
  4  2  2  0  0  0  0
  4  5  1  0  0  0  0
  5 15  1  6  0  0  0
  5 10  1  0  0  0  0
  6  9  2  0  0  0  0
  7 17  1  6  0  0  0
  7  8  1  0  0  0  0
  8  3  1  0  0  0  0
 10  9  1  0  0  0  0
 11  2  1  0  0  0  0
 11  7  1  0  0  0  0
 12 15  1  0  0  0  0
 14 12  1  0  0  0  0
 15 13  2  0  0  0  0
 17 16  1  0  0  0  0
 19 21  1  0  0  0  0
 19 18  1  0  0  0  0
 20 19  1  0  0  0  0
 23 25  1  0  0  0  0
 23 20  1  0  0  0  0
 24 22  1  0  0  0  0
 24 21  1  0  0  0  0
 25 24  1  0  0  0  0
 26 23  1  0  0  0  0
 27 28  1  0  0  0  0
 28 26  1  0  0  0  0
M  END
>  <MODEL>
8

>  <REMARK>
 VINA RESULT:      -6.3      2.995      7.562
  Name = 
  6 active torsions:
  status: ('A' for Active; 'I' for Inactive)
    1  A    between atoms: C_1  and  O_27
    2  A    between atoms: C_2  and  O_27
    3  A    between atoms: C_9  and  C_28
    4  A    between atoms: C_12  and  C_25
    5  A    between atoms: C_15  and  C_19
    6  A    between atoms: C_15  and  C_26
                            x       y       z     vdW  Elec       q    Type
                         _______ _______ _______ _____ _____    ______ ____

>  <TORSDO>
F 6

$$$$
=
 OpenBabel11062423103D

 28 31  0  0  1  0  0  0  0  0999 V2000
  188.7610  176.0930  143.0280 C   0  0  1  0  0  3  0  0  0  0  0  0
  190.1440  173.4550  143.1310 C   0  0  0  0  0  0  0  0  0  0  0  0
  190.1520  175.9610  142.5770 C   0  0  2  0  0  3  0  0  0  0  0  0
  190.4060  172.2220  142.8210 N   0  0  0  0  0  0  0  0  0  0  0  0
  191.0940  171.8870  141.5720 C   0  0  2  0  0  3  0  0  0  0  0  0
  190.3990  174.5330  142.1810 C   0  0  0  0  0  0  0  0  0  0  0  0
  189.8940  175.0570  144.9390 C   0  0  2  0  0  3  0  0  0  0  0  0
  189.8460  176.2170  144.0150 N   0  0  2  0  0  0  0  0  0  0  0  0
  190.6980  174.2460  140.9480 N   0  0  0  0  0  0  0  0  0  0  0  0
  190.7200  172.8670  140.4530 C   0  0  0  0  0  2  0  0  0  0  0  0
  189.6050  173.7860  144.3590 O   0  0  0  0  0  0  0  0  0  0  0  0
  190.7950  170.1330  139.7880 N   0  0  0  0  0  2  0  0  0  0  0  0
  190.5350  169.6130  142.0500 O   0  0  0  0  0  0  0  0  0  0  0  0
  190.5070  168.7850  139.3330 C   0  0  0  0  0  1  0  0  0  0  0  0
  190.7940  170.4810  141.1720 C   0  0  0  0  0  0  0  0  0  0  0  0
  189.2150  174.2820  147.1050 O   0  0  0  0  0  1  0  0  0  0  0  0
  189.0290  175.2990  146.1680 C   0  0  0  0  0  2  0  0  0  0  0  0
  188.2800  177.3710  142.7020 O   0  0  0  0  0  0  0  0  0  0  0  0
  186.9970  177.5290  143.2690 C   0  0  1  0  0  3  0  0  0  0  0  0
  187.0370  178.2940  144.6050 C   0  0  0  0  0  2  0  0  0  0  0  0
  186.0950  178.1260  142.3620 O   0  0  0  0  0  0  0  0  0  0  0  0
  183.8170  178.2910  141.8860 N   0  0  0  0  0  1  0  0  0  0  0  0
  185.6340  178.3750  145.2090 C   0  0  1  0  0  3  0  0  0  0  0  0
  184.8050  177.9180  142.8810 C   0  0  2  0  0  3  0  0  0  0  0  0
  184.6040  178.7640  144.1410 C   0  0  0  0  0  2  0  0  0  0  0  0
  185.2720  177.0520  145.8780 C   0  0  0  0  0  2  0  0  0  0  0  0
  185.7010  178.0310  148.0180 O   0  0  0  0  0  1  0  0  0  0  0  0
  185.9570  176.9110  147.2280 C   0  0  0  0  0  2  0  0  0  0  0  0
  1 18  1  6  0  0  0
  1  8  1  0  0  0  0
  2 11  1  0  0  0  0
  3  6  1  1  0  0  0
  3  1  1  0  0  0  0
  3  8  1  0  0  0  0
  4  2  2  0  0  0  0
  5 15  1  6  0  0  0
  5  4  1  0  0  0  0
  6  2  1  0  0  0  0
  7 17  1  1  0  0  0
  8  7  1  0  0  0  0
  9  6  2  0  0  0  0
 10  9  1  0  0  0  0
 10  5  1  0  0  0  0
 11  7  1  0  0  0  0
 12 15  1  0  0  0  0
 14 12  1  0  0  0  0
 15 13  2  0  0  0  0
 17 16  1  0  0  0  0
 18 19  1  0  0  0  0
 19 20  1  0  0  0  0
 20 23  1  0  0  0  0
 21 24  1  0  0  0  0
 21 19  1  0  0  0  0
 22 24  1  0  0  0  0
 23 26  1  0  0  0  0
 24 25  1  0  0  0  0
 25 23  1  0  0  0  0
 26 28  1  0  0  0  0
 28 27  1  0  0  0  0
M  END
>  <MODEL>
9

>  <REMARK>
 VINA RESULT:      -6.2      3.658      5.248
  Name = 
  6 active torsions:
  status: ('A' for Active; 'I' for Inactive)
    1  A    between atoms: C_1  and  O_27
    2  A    between atoms: C_2  and  O_27
    3  A    between atoms: C_9  and  C_28
    4  A    between atoms: C_12  and  C_25
    5  A    between atoms: C_15  and  C_19
    6  A    between atoms: C_15  and  C_26
                            x       y       z     vdW  Elec       q    Type
                         _______ _______ _______ _____ _____    ______ ____

>  <TORSDO>
F 6

$$$$
