=
 OpenBabel11072409033D

 47 52  0  0  1  0  0  0  0  0999 V2000
  194.9100  175.2450  146.1880 C   0  0  0  0  0  3  0  0  0  0  0  0
  192.0470  173.8270  144.1480 C   0  0  2  0  0  3  0  0  0  0  0  0
  194.5060  173.4680  141.9990 C   0  0  0  0  0  2  0  0  0  0  0  0
  192.2270  175.0670  145.0620 C   0  0  2  0  0  3  0  0  0  0  0  0
  195.4080  174.1850  145.6160 N   0  0  0  0  0  0  0  0  0  0  0  0
  189.7690  174.8310  145.5410 C   0  0  2  0  0  3  0  0  0  0  0  0
  190.9070  175.8210  145.2640 C   0  0  1  0  0  3  0  0  0  0  0  0
  194.3420  176.4280  145.4450 C   0  0  0  0  0  2  0  0  0  0  0  0
  196.6560  174.5060  143.5170 N   0  0  0  0  0  1  0  0  0  0  0  0
  194.4850  173.4650  143.5040 C   0  0  0  0  0  0  0  0  0  0  0  0
  189.7010  177.5410  146.6930 C   0  0  1  0  0  3  0  0  0  0  0  0
  189.8820  178.4180  147.9210 C   0  0  0  0  0  1  0  0  0  0  0  0
  195.5060  174.0030  144.1970 C   0  0  0  0  0  0  0  0  0  0  0  0
  193.8470  172.2460  141.4100 C   0  0  0  0  0  0  0  0  0  0  0  0
  192.4910  170.6060  144.2130 O   0  0  0  0  0  0  0  0  0  0  0  0
  191.0280  176.8130  146.4290 C   0  0  0  0  0  2  0  0  0  0  0  0
  193.2570  176.0160  144.4540 C   0  0  0  0  0  2  0  0  0  0  0  0
  189.6560  173.9190  144.4830 O   0  0  0  0  0  0  0  0  0  0  0  0
  190.7760  173.0830  144.5840 C   0  0  0  0  0  2  0  0  0  0  0  0
  193.1870  171.3930  142.1360 N   0  0  0  0  0  0  0  0  0  0  0  0
  193.2750  172.8820  144.2040 C   0  0  2  0  0  3  0  0  0  0  0  0
  188.4730  175.6020  145.6780 C   0  0  0  0  0  2  0  0  0  0  0  0
  188.5500  176.5370  146.8890 C   0  0  2  0  0  3  0  0  0  0  0  0
  192.9740  171.5590  143.5420 C   0  0  0  0  0  0  0  0  0  0  0  0
  186.3230  176.2990  147.7800 O   0  0  0  0  0  1  0  0  0  0  0  0
  187.1900  177.2130  147.1760 C   0  0  2  0  0  3  0  0  0  0  0  0
  185.5440  176.9450  145.2340 C   0  0  0  0  0  2  0  0  0  0  0  0
  186.5430  177.8200  145.9220 C   0  0  1  0  0  3  0  0  0  0  0  0
  184.9060  179.2390  145.1520 N   0  0  0  0  0  2  0  0  0  0  0  0
  184.8370  177.9790  144.3920 C   0  0  1  0  0  3  0  0  0  0  0  0
  185.8530  179.0680  146.1910 N   0  0  0  0  0  2  0  0  0  0  0  0
  184.8590  178.4130  141.8920 C   0  0  0  0  0  3  0  0  0  0  0  0
  187.4410  176.5000  140.6680 O   0  0  0  0  0  0  0  0  0  0  0  0
  185.5010  177.9170  140.8370 C   0  0  0  0  0  3  0  0  0  0  0  0
  185.5460  178.1340  143.1180 N   0  0  0  0  0  0  0  0  0  0  0  0
  186.7900  177.4340  142.8130 C   0  0  0  0  0  2  0  0  0  0  0  0
  186.6830  177.2470  141.3460 C   0  0  0  0  0  0  0  0  0  0  0  0
  193.9620  172.0060  139.9460 C   0  0  0  0  0  2  0  0  0  0  0  0
  191.8200  172.6400  138.7860 C   0  0  0  0  0  0  0  0  0  0  0  0
  192.6580  171.6490  139.3970 N   0  0  0  0  0  2  0  0  0  0  0  0
  192.2500  173.8210  138.6610 O   0  0  0  0  0  0  0  0  0  0  0  0
  190.1080  170.8500  138.6640 C   0  0  0  0  0  1  0  0  0  0  0  0
  190.4490  172.2880  138.2610 C   0  0  2  0  0  0  0  0  0  0  0  0
  190.3570  172.4330  136.7360 C   0  0  0  0  0  2  0  0  0  0  0  0
  189.8580  171.1680  136.0460 C   0  0  0  0  0  1  0  0  0  0  0  0
  189.4430  173.2490  138.9020 C   0  0  0  0  0  2  0  0  0  0  0  0
  188.1810  172.6620  139.0500 O   0  0  0  0  0  1  0  0  0  0  0  0
  2 21  1  0  0  0  0
  2 19  1  1  0  0  0
  2  4  1  0  0  0  0
  3 10  1  0  0  0  0
  4 17  1  6  0  0  0
  4  7  1  0  0  0  0
  5  1  2  0  0  0  0
  6 22  1  6  0  0  0
  7  6  1  0  0  0  0
  7 16  1  1  0  0  0
  8  1  1  0  0  0  0
  9 13  1  0  0  0  0
 10 13  2  0  0  0  0
 11 23  1  0  0  0  0
 11 12  1  1  0  0  0
 13  5  1  0  0  0  0
 14  3  1  0  0  0  0
 14 20  2  0  0  0  0
 16 11  1  0  0  0  0
 17  8  1  0  0  0  0
 18 19  1  0  0  0  0
 18  6  1  0  0  0  0
 20 24  1  0  0  0  0
 21 10  1  6  0  0  0
 22 23  1  0  0  0  0
 23 26  1  6  0  0  0
 24 21  1  0  0  0  0
 24 15  2  0  0  0  0
 26 25  1  6  0  0  0
 27 28  1  0  0  0  0
 28 31  1  0  0  0  0
 28 26  1  1  0  0  0
 29 31  1  0  0  0  0
 30 35  1  6  0  0  0
 30 29  1  0  0  0  0
 30 27  1  0  0  0  0
 32 35  1  0  0  0  0
 33 37  2  0  0  0  0
 34 37  1  0  0  0  0
 34 32  2  0  0  0  0
 36 35  1  0  0  0  0
 37 36  1  0  0  0  0
 38 14  1  0  0  0  0
 39 40  1  0  0  0  0
 40 38  1  0  0  0  0
 41 39  2  0  0  0  0
 43 42  1  1  0  0  0
 43 39  1  0  0  0  0
 43 46  1  0  0  0  0
 44 43  1  0  0  0  0
 45 44  1  0  0  0  0
 46 47  1  0  0  0  0
M  END
>  <MODEL>
1

>  <REMARK>
 VINA RESULT:      -8.1      0.000      0.000
  Name = 
  8 active torsions:
  status: ('A' for Active; 'I' for Inactive)
    1  A    between atoms: C_8  and  C_33
    2  A    between atoms: C_10  and  C_33
    3  A    between atoms: C_16  and  C_24
    4  A    between atoms: C_16  and  C_39
    5  A    between atoms: C_20  and  C_40
    6  A    between atoms: N_30  and  C_44
    7  A    between atoms: C_33  and  C_43
    8  A    between atoms: C_40  and  N_41
                            x       y       z     vdW  Elec       q    Type
                         _______ _______ _______ _____ _____    ______ ____

>  <TORSDO>
F 8

$$$$
=
 OpenBabel11072409033D

 47 52  0  0  1  0  0  0  0  0999 V2000
  194.8540  175.5860  146.1150 C   0  0  0  0  0  3  0  0  0  0  0  0
  192.1720  174.9960  143.5020 C   0  0  2  0  0  3  0  0  0  0  0  0
  194.8040  175.2850  141.5570 C   0  0  0  0  0  2  0  0  0  0  0  0
  192.2760  175.8640  144.7820 C   0  0  2  0  0  3  0  0  0  0  0  0
  195.3980  174.7560  145.2690 N   0  0  0  0  0  0  0  0  0  0  0  0
  189.7860  175.5570  144.9610 C   0  0  2  0  0  3  0  0  0  0  0  0
  190.9460  176.5500  145.1150 C   0  0  1  0  0  3  0  0  0  0  0  0
  194.3530  176.9630  145.7570 C   0  0  0  0  0  2  0  0  0  0  0  0
  196.8200  175.7070  143.4960 N   0  0  0  0  0  1  0  0  0  0  0  0
  194.6550  174.7920  142.9710 C   0  0  0  0  0  0  0  0  0  0  0  0
  189.6260  177.7440  146.9270 C   0  0  1  0  0  3  0  0  0  0  0  0
  189.7040  178.1670  148.3860 C   0  0  0  0  0  1  0  0  0  0  0  0
  195.6150  175.0440  143.8810 C   0  0  0  0  0  0  0  0  0  0  0  0
  194.1950  174.3410  140.5490 C   0  0  0  0  0  0  0  0  0  0  0  0
  192.6030  171.9180  142.5440 O   0  0  0  0  0  0  0  0  0  0  0  0
  190.9690  177.1040  146.5460 C   0  0  0  0  0  2  0  0  0  0  0  0
  193.3560  176.9290  144.6030 C   0  0  0  0  0  2  0  0  0  0  0  0
  189.7610  175.0430  143.6580 O   0  0  0  0  0  0  0  0  0  0  0  0
  190.8670  174.1880  143.5680 C   0  0  0  0  0  2  0  0  0  0  0  0
  193.4740  173.3180  140.9020 N   0  0  0  0  0  0  0  0  0  0  0  0
  193.3900  174.0480  143.3430 C   0  0  2  0  0  3  0  0  0  0  0  0
  188.4850  176.2790  145.2390 C   0  0  0  0  0  2  0  0  0  0  0  0
  188.4600  176.7660  146.6920 C   0  0  2  0  0  3  0  0  0  0  0  0
  193.1440  173.0230  142.2620 C   0  0  0  0  0  0  0  0  0  0  0  0
  186.2840  176.3540  147.6430 O   0  0  0  0  0  1  0  0  0  0  0  0
  187.0820  177.3510  147.0760 C   0  0  2  0  0  3  0  0  0  0  0  0
  185.3890  177.1310  145.1690 C   0  0  0  0  0  2  0  0  0  0  0  0
  186.3580  178.0100  145.8920 C   0  0  1  0  0  3  0  0  0  0  0  0
  184.6160  179.3820  145.2840 N   0  0  0  0  0  2  0  0  0  0  0  0
  184.5940  178.1810  144.4310 C   0  0  1  0  0  3  0  0  0  0  0  0
  185.6070  179.1910  146.2770 N   0  0  0  0  0  2  0  0  0  0  0  0
  184.5470  178.4100  141.9040 C   0  0  0  0  0  3  0  0  0  0  0  0
  187.6630  177.4090  140.8500 O   0  0  0  0  0  0  0  0  0  0  0  0
  185.3530  178.0870  140.8950 C   0  0  0  0  0  3  0  0  0  0  0  0
  185.2480  178.4740  143.1520 N   0  0  0  0  0  0  0  0  0  0  0  0
  186.6650  178.2210  142.9100 C   0  0  0  0  0  2  0  0  0  0  0  0
  186.6750  177.9010  141.4620 C   0  0  0  0  0  0  0  0  0  0  0  0
  194.4340  174.5880  139.1010 C   0  0  0  0  0  2  0  0  0  0  0  0
  192.7950  174.7840  137.2010 C   0  0  0  0  0  0  0  0  0  0  0  0
  193.3230  174.0560  138.3170 N   0  0  0  0  0  2  0  0  0  0  0  0
  193.3450  175.8660  136.8530 O   0  0  0  0  0  0  0  0  0  0  0  0
  191.1140  175.3610  135.4710 C   0  0  0  0  0  1  0  0  0  0  0  0
  191.6140  174.2630  136.4160 C   0  0  2  0  0  0  0  0  0  0  0  0
  190.4690  173.8040  137.3270 C   0  0  0  0  0  2  0  0  0  0  0  0
  189.0920  174.1810  136.7920 C   0  0  0  0  0  1  0  0  0  0  0  0
  192.0940  173.0630  135.5940 C   0  0  0  0  0  2  0  0  0  0  0  0
  193.3290  173.3110  134.9810 O   0  0  0  0  0  1  0  0  0  0  0  0
  2 19  1  1  0  0  0
  2  4  1  0  0  0  0
  3 10  1  0  0  0  0
  4 17  1  6  0  0  0
  4  7  1  0  0  0  0
  5  1  2  0  0  0  0
  6  7  1  0  0  0  0
  6 22  1  6  0  0  0
  7 16  1  1  0  0  0
  8  1  1  0  0  0  0
  9 13  1  0  0  0  0
 10 21  1  0  0  0  0
 10 13  2  0  0  0  0
 11 12  1  1  0  0  0
 13  5  1  0  0  0  0
 14 20  2  0  0  0  0
 14  3  1  0  0  0  0
 16 11  1  0  0  0  0
 17  8  1  0  0  0  0
 18  6  1  0  0  0  0
 19 18  1  0  0  0  0
 20 24  1  0  0  0  0
 21 24  1  6  0  0  0
 21  2  1  0  0  0  0
 22 23  1  0  0  0  0
 23 11  1  0  0  0  0
 23 26  1  6  0  0  0
 24 15  2  0  0  0  0
 26 25  1  6  0  0  0
 27 28  1  0  0  0  0
 28 31  1  0  0  0  0
 28 26  1  1  0  0  0
 29 31  1  0  0  0  0
 30 35  1  6  0  0  0
 30 27  1  0  0  0  0
 30 29  1  0  0  0  0
 32 35  1  0  0  0  0
 33 37  2  0  0  0  0
 34 37  1  0  0  0  0
 34 32  2  0  0  0  0
 36 35  1  0  0  0  0
 37 36  1  0  0  0  0
 38 14  1  0  0  0  0
 39 40  1  0  0  0  0
 40 38  1  0  0  0  0
 41 39  2  0  0  0  0
 43 42  1  6  0  0  0
 43 39  1  0  0  0  0
 43 44  1  0  0  0  0
 45 44  1  0  0  0  0
 46 43  1  0  0  0  0
 47 46  1  0  0  0  0
M  END
>  <MODEL>
2

>  <REMARK>
 VINA RESULT:      -7.8      1.587      2.007
  Name = 
  8 active torsions:
  status: ('A' for Active; 'I' for Inactive)
    1  A    between atoms: C_8  and  C_33
    2  A    between atoms: C_10  and  C_33
    3  A    between atoms: C_16  and  C_24
    4  A    between atoms: C_16  and  C_39
    5  A    between atoms: C_20  and  C_40
    6  A    between atoms: N_30  and  C_44
    7  A    between atoms: C_33  and  C_43
    8  A    between atoms: C_40  and  N_41
                            x       y       z     vdW  Elec       q    Type
                         _______ _______ _______ _____ _____    ______ ____

>  <TORSDO>
F 8

$$$$
=
 OpenBabel11072409033D

 47 52  0  0  1  0  0  0  0  0999 V2000
  194.6280  175.6210  146.4230 C   0  0  0  0  0  3  0  0  0  0  0  0
  191.8350  174.4440  144.1470 C   0  0  2  0  0  3  0  0  0  0  0  0
  194.3700  174.2810  142.0640 C   0  0  0  0  0  2  0  0  0  0  0  0
  191.9880  175.5830  145.1870 C   0  0  2  0  0  3  0  0  0  0  0  0
  195.1420  174.6200  145.7650 N   0  0  0  0  0  0  0  0  0  0  0  0
  189.5130  175.3240  145.5500 C   0  0  2  0  0  3  0  0  0  0  0  0
  190.6660  176.3260  145.4170 C   0  0  1  0  0  3  0  0  0  0  0  0
  194.0950  176.8790  145.7830 C   0  0  0  0  0  2  0  0  0  0  0  0
  196.4690  175.1390  143.7560 N   0  0  0  0  0  1  0  0  0  0  0  0
  194.2930  174.1260  143.5590 C   0  0  0  0  0  0  0  0  0  0  0  0
  189.4180  177.9040  146.9680 C   0  0  1  0  0  3  0  0  0  0  0  0
  189.5580  178.6510  148.2850 C   0  0  0  0  0  1  0  0  0  0  0  0
  195.2910  174.5810  144.3390 C   0  0  0  0  0  0  0  0  0  0  0  0
  193.7270  173.1310  141.3290 C   0  0  0  0  0  0  0  0  0  0  0  0
  192.2570  171.2290  143.9000 O   0  0  0  0  0  0  0  0  0  0  0  0
  190.7490  177.1940  146.6800 C   0  0  0  0  0  2  0  0  0  0  0  0
  193.0460  176.5800  144.7170 C   0  0  0  0  0  2  0  0  0  0  0  0
  189.4340  174.5240  144.4020 O   0  0  0  0  0  0  0  0  0  0  0  0
  190.5440  173.6720  144.4590 C   0  0  0  0  0  2  0  0  0  0  0  0
  193.0350  172.2150  141.9410 N   0  0  0  0  0  0  0  0  0  0  0  0
  193.0550  173.4870  144.1510 C   0  0  2  0  0  3  0  0  0  0  0  0
  188.2170  176.0890  145.7170 C   0  0  0  0  0  2  0  0  0  0  0  0
  188.2540  176.8960  147.0190 C   0  0  2  0  0  3  0  0  0  0  0  0
  192.7710  172.2400  143.3470 C   0  0  0  0  0  0  0  0  0  0  0  0
  186.1000  176.6800  148.0780 O   0  0  0  0  0  1  0  0  0  0  0  0
  186.8890  177.5530  147.3240 C   0  0  2  0  0  3  0  0  0  0  0  0
  184.7170  177.5480  145.9700 C   0  0  0  0  0  2  0  0  0  0  0  0
  186.1400  177.9980  146.0590 C   0  0  1  0  0  3  0  0  0  0  0  0
  185.0060  179.7310  145.0600 N   0  0  0  0  0  2  0  0  0  0  0  0
  184.2150  178.4970  144.9090 C   0  0  1  0  0  3  0  0  0  0  0  0
  186.1060  179.4410  145.9020 N   0  0  0  0  0  2  0  0  0  0  0  0
  185.7630  177.4980  143.1630 C   0  0  0  0  0  3  0  0  0  0  0  0
  184.5050  178.5430  140.1390 O   0  0  0  0  0  0  0  0  0  0  0  0
  185.9190  177.6020  141.8460 C   0  0  0  0  0  3  0  0  0  0  0  0
  184.4590  177.9170  143.5850 N   0  0  0  0  0  0  0  0  0  0  0  0
  183.6760  178.2750  142.4050 C   0  0  0  0  0  2  0  0  0  0  0  0
  184.6760  178.1330  141.3200 C   0  0  0  0  0  0  0  0  0  0  0  0
  193.8950  173.0390  139.8540 C   0  0  0  0  0  2  0  0  0  0  0  0
  192.5420  172.4040  137.8280 C   0  0  0  0  0  0  0  0  0  0  0  0
  192.6190  172.7050  139.2290 N   0  0  0  0  0  2  0  0  0  0  0  0
  193.6030  172.3610  137.1460 O   0  0  0  0  0  0  0  0  0  0  0  0
  190.5950  173.4170  136.6730 C   0  0  0  0  0  1  0  0  0  0  0  0
  191.2180  172.1070  137.1640 C   0  0  2  0  0  0  0  0  0  0  0  0
  190.2420  171.3940  138.1100 C   0  0  0  0  0  2  0  0  0  0  0  0
  190.6420  169.9520  138.4040 C   0  0  0  0  0  1  0  0  0  0  0  0
  191.4930  171.1920  135.9670 C   0  0  0  0  0  2  0  0  0  0  0  0
  190.5060  171.3130  134.9810 O   0  0  0  0  0  1  0  0  0  0  0  0
  2 21  1  0  0  0  0
  2 19  1  1  0  0  0
  2  4  1  0  0  0  0
  3 10  1  0  0  0  0
  4 17  1  6  0  0  0
  4  7  1  0  0  0  0
  5  1  2  0  0  0  0
  6 22  1  6  0  0  0
  7  6  1  0  0  0  0
  7 16  1  1  0  0  0
  8  1  1  0  0  0  0
  9 13  1  0  0  0  0
 10 21  1  0  0  0  0
 10 13  2  0  0  0  0
 11 23  1  0  0  0  0
 11 12  1  1  0  0  0
 13  5  1  0  0  0  0
 14 20  2  0  0  0  0
 14  3  1  0  0  0  0
 16 11  1  0  0  0  0
 17  8  1  0  0  0  0
 18 19  1  0  0  0  0
 18  6  1  0  0  0  0
 20 24  1  0  0  0  0
 21 24  1  6  0  0  0
 22 23  1  0  0  0  0
 23 26  1  6  0  0  0
 24 15  2  0  0  0  0
 26 25  1  6  0  0  0
 27 28  1  0  0  0  0
 28 26  1  1  0  0  0
 29 31  1  0  0  0  0
 30 35  1  6  0  0  0
 30 29  1  0  0  0  0
 30 27  1  0  0  0  0
 31 28  1  0  0  0  0
 32 35  1  0  0  0  0
 33 37  2  0  0  0  0
 34 32  2  0  0  0  0
 36 35  1  0  0  0  0
 37 34  1  0  0  0  0
 37 36  1  0  0  0  0
 38 14  1  0  0  0  0
 39 40  1  0  0  0  0
 40 38  1  0  0  0  0
 41 39  2  0  0  0  0
 43 42  1  6  0  0  0
 43 39  1  0  0  0  0
 43 44  1  0  0  0  0
 44 45  1  0  0  0  0
 46 43  1  0  0  0  0
 47 46  1  0  0  0  0
M  END
>  <MODEL>
3

>  <REMARK>
 VINA RESULT:      -7.5      1.268      1.614
  Name = 
  8 active torsions:
  status: ('A' for Active; 'I' for Inactive)
    1  A    between atoms: C_8  and  C_33
    2  A    between atoms: C_10  and  C_33
    3  A    between atoms: C_16  and  C_24
    4  A    between atoms: C_16  and  C_39
    5  A    between atoms: C_20  and  C_40
    6  A    between atoms: N_30  and  C_44
    7  A    between atoms: C_33  and  C_43
    8  A    between atoms: C_40  and  N_41
                            x       y       z     vdW  Elec       q    Type
                         _______ _______ _______ _____ _____    ______ ____

>  <TORSDO>
F 8

$$$$
=
 OpenBabel11072409033D

 47 52  0  0  1  0  0  0  0  0999 V2000
  194.8000  175.5670  146.1290 C   0  0  0  0  0  3  0  0  0  0  0  0
  192.1420  175.2440  143.4460 C   0  0  2  0  0  3  0  0  0  0  0  0
  194.8090  175.6020  141.5610 C   0  0  0  0  0  2  0  0  0  0  0  0
  192.2500  176.0130  144.7880 C   0  0  2  0  0  3  0  0  0  0  0  0
  195.3340  174.7870  145.2310 N   0  0  0  0  0  0  0  0  0  0  0  0
  189.7500  175.7630  144.9120 C   0  0  2  0  0  3  0  0  0  0  0  0
  190.9340  176.7100  145.1530 C   0  0  1  0  0  3  0  0  0  0  0  0
  194.3410  176.9800  145.8670 C   0  0  0  0  0  2  0  0  0  0  0  0
  196.8070  175.8250  143.5520 N   0  0  0  0  0  1  0  0  0  0  0  0
  194.6270  175.0110  142.9330 C   0  0  0  0  0  0  0  0  0  0  0  0
  189.6200  177.8040  147.0320 C   0  0  1  0  0  3  0  0  0  0  0  0
  189.6870  178.1170  148.5180 C   0  0  0  0  0  1  0  0  0  0  0  0
  195.5790  175.1700  143.8710 C   0  0  0  0  0  0  0  0  0  0  0  0
  194.1900  174.7530  140.4790 C   0  0  0  0  0  0  0  0  0  0  0  0
  192.5050  172.2350  142.2690 O   0  0  0  0  0  0  0  0  0  0  0  0
  190.9500  177.1560  146.6210 C   0  0  0  0  0  2  0  0  0  0  0  0
  193.3610  177.0580  144.7010 C   0  0  0  0  0  2  0  0  0  0  0  0
  189.7310  175.3470  143.5740 O   0  0  0  0  0  0  0  0  0  0  0  0
  190.8150  174.4700  143.4360 C   0  0  0  0  0  2  0  0  0  0  0  0
  193.4370  173.7260  140.7460 N   0  0  0  0  0  0  0  0  0  0  0  0
  193.3360  174.2780  143.2330 C   0  0  2  0  0  3  0  0  0  0  0  0
  188.4650  176.4990  145.2260 C   0  0  0  0  0  2  0  0  0  0  0  0
  188.4320  176.8780  146.7100 C   0  0  2  0  0  3  0  0  0  0  0  0
  193.0790  173.3420  142.0770 C   0  0  0  0  0  0  0  0  0  0  0  0
  186.3360  176.5290  147.8480 O   0  0  0  0  0  1  0  0  0  0  0  0
  187.0640  177.4710  147.1180 C   0  0  2  0  0  3  0  0  0  0  0  0
  184.8160  177.5330  145.8960 C   0  0  0  0  0  2  0  0  0  0  0  0
  186.2450  177.9730  145.9200 C   0  0  1  0  0  3  0  0  0  0  0  0
  185.0650  179.7510  145.0640 N   0  0  0  0  0  2  0  0  0  0  0  0
  184.2580  178.5280  144.9080 C   0  0  1  0  0  3  0  0  0  0  0  0
  186.2120  179.4210  145.8260 N   0  0  0  0  0  2  0  0  0  0  0  0
  185.7080  177.7430  142.9790 C   0  0  0  0  0  3  0  0  0  0  0  0
  184.0200  178.6930  140.1380 O   0  0  0  0  0  0  0  0  0  0  0  0
  185.7070  177.8880  141.6560 C   0  0  0  0  0  3  0  0  0  0  0  0
  184.4190  178.0030  143.5490 N   0  0  0  0  0  0  0  0  0  0  0  0
  183.4770  178.2920  142.4710 C   0  0  0  0  0  2  0  0  0  0  0  0
  184.3630  178.2840  141.2810 C   0  0  0  0  0  0  0  0  0  0  0  0
  194.4570  175.0980  139.0570 C   0  0  0  0  0  2  0  0  0  0  0  0
  196.3620  173.7190  138.1600 C   0  0  0  0  0  0  0  0  0  0  0  0
  194.9540  173.9250  138.3450 N   0  0  0  0  0  2  0  0  0  0  0  0
  197.1790  174.5280  138.6810 O   0  0  0  0  0  0  0  0  0  0  0  0
  195.7120  171.6110  137.0270 C   0  0  0  0  0  1  0  0  0  0  0  0
  196.8820  172.5330  137.3820 C   0  0  2  0  0  0  0  0  0  0  0  0
  197.9410  171.7460  138.1640 C   0  0  0  0  0  2  0  0  0  0  0  0
  197.4380  171.2440  139.5130 C   0  0  0  0  0  1  0  0  0  0  0  0
  197.5210  173.0640  136.0960 C   0  0  0  0  0  2  0  0  0  0  0  0
  196.9430  174.2720  135.6860 O   0  0  0  0  0  1  0  0  0  0  0  0
  2 19  1  1  0  0  0
  2  4  1  0  0  0  0
  3 10  1  0  0  0  0
  4 17  1  6  0  0  0
  4  7  1  0  0  0  0
  5  1  2  0  0  0  0
  6  7  1  0  0  0  0
  6 22  1  6  0  0  0
  7 16  1  1  0  0  0
  8  1  1  0  0  0  0
  9 13  1  0  0  0  0
 10 21  1  0  0  0  0
 10 13  2  0  0  0  0
 11 12  1  1  0  0  0
 13  5  1  0  0  0  0
 14 20  2  0  0  0  0
 14  3  1  0  0  0  0
 16 11  1  0  0  0  0
 17  8  1  0  0  0  0
 18  6  1  0  0  0  0
 19 18  1  0  0  0  0
 20 24  1  0  0  0  0
 21 24  1  6  0  0  0
 21  2  1  0  0  0  0
 22 23  1  0  0  0  0
 23 11  1  0  0  0  0
 23 26  1  6  0  0  0
 24 15  2  0  0  0  0
 26 25  1  6  0  0  0
 27 28  1  0  0  0  0
 28 26  1  1  0  0  0
 29 31  1  0  0  0  0
 30 35  1  6  0  0  0
 30 29  1  0  0  0  0
 30 27  1  0  0  0  0
 31 28  1  0  0  0  0
 32 35  1  0  0  0  0
 33 37  2  0  0  0  0
 34 32  2  0  0  0  0
 36 35  1  0  0  0  0
 37 34  1  0  0  0  0
 37 36  1  0  0  0  0
 38 14  1  0  0  0  0
 39 40  1  0  0  0  0
 39 41  2  0  0  0  0
 40 38  1  0  0  0  0
 43 42  1  6  0  0  0
 43 39  1  0  0  0  0
 43 44  1  0  0  0  0
 44 45  1  0  0  0  0
 46 43  1  0  0  0  0
 47 46  1  0  0  0  0
M  END
>  <MODEL>
4

>  <REMARK>
 VINA RESULT:      -7.3      2.442      3.384
  Name = 
  8 active torsions:
  status: ('A' for Active; 'I' for Inactive)
    1  A    between atoms: C_8  and  C_33
    2  A    between atoms: C_10  and  C_33
    3  A    between atoms: C_16  and  C_24
    4  A    between atoms: C_16  and  C_39
    5  A    between atoms: C_20  and  C_40
    6  A    between atoms: N_30  and  C_44
    7  A    between atoms: C_33  and  C_43
    8  A    between atoms: C_40  and  N_41
                            x       y       z     vdW  Elec       q    Type
                         _______ _______ _______ _____ _____    ______ ____

>  <TORSDO>
F 8

$$$$
=
 OpenBabel11072409033D

 47 52  0  0  1  0  0  0  0  0999 V2000
  187.9460  175.9860  147.1380 C   0  0  0  0  0  3  0  0  0  0  0  0
  189.4040  175.8030  143.6440 C   0  0  2  0  0  3  0  0  0  0  0  0
  192.1670  176.1020  145.3950 C   0  0  0  0  0  2  0  0  0  0  0  0
  188.2040  176.5430  144.2880 C   0  0  2  0  0  3  0  0  0  0  0  0
  188.9830  175.2050  147.2560 N   0  0  0  0  0  0  0  0  0  0  0  0
  187.1300  176.3770  142.0190 C   0  0  2  0  0  3  0  0  0  0  0  0
  187.3590  177.2780  143.2400 C   0  0  1  0  0  3  0  0  0  0  0  0
  188.0070  177.4190  146.6690 C   0  0  0  0  0  2  0  0  0  0  0  0
  191.0950  176.2210  148.0110 N   0  0  0  0  0  1  0  0  0  0  0  0
  190.8320  175.4940  145.7300 C   0  0  0  0  0  0  0  0  0  0  0  0
  185.1160  178.3830  142.7900 C   0  0  1  0  0  3  0  0  0  0  0  0
  183.7690  178.6670  143.4350 C   0  0  0  0  0  1  0  0  0  0  0  0
  190.3310  175.6020  146.9750 C   0  0  0  0  0  0  0  0  0  0  0  0
  192.9320  175.2940  144.3760 C   0  0  0  0  0  0  0  0  0  0  0  0
  190.6400  172.8040  143.4110 O   0  0  0  0  0  0  0  0  0  0  0  0
  186.0080  177.6970  143.8360 C   0  0  0  0  0  2  0  0  0  0  0  0
  188.7070  177.5510  145.3200 C   0  0  0  0  0  2  0  0  0  0  0  0
  188.3600  175.9860  141.4720 O   0  0  0  0  0  0  0  0  0  0  0  0
  188.9060  175.0750  142.3860 C   0  0  0  0  0  2  0  0  0  0  0  0
  192.3990  174.2890  143.7450 N   0  0  0  0  0  0  0  0  0  0  0  0
  190.0630  174.8000  144.6260 C   0  0  2  0  0  3  0  0  0  0  0  0
  186.3450  177.1500  140.9820 C   0  0  0  0  0  2  0  0  0  0  0  0
  184.9600  177.5040  141.5350 C   0  0  2  0  0  3  0  0  0  0  0  0
  191.0340  173.8930  143.9090 C   0  0  0  0  0  0  0  0  0  0  0  0
  184.3690  179.4890  140.3030 O   0  0  0  0  0  1  0  0  0  0  0  0
  184.0560  178.1360  140.4530 C   0  0  2  0  0  3  0  0  0  0  0  0
  181.7840  179.2300  140.8890 C   0  0  0  0  0  2  0  0  0  0  0  0
  182.5580  177.9590  140.7430 C   0  0  1  0  0  3  0  0  0  0  0  0
  180.5000  177.5400  139.8060 N   0  0  0  0  0  2  0  0  0  0  0  0
  180.3830  178.6980  140.7100 C   0  0  1  0  0  3  0  0  0  0  0  0
  181.8720  177.1970  139.7170 N   0  0  0  0  0  2  0  0  0  0  0  0
  178.7890  177.3140  142.1190 C   0  0  0  0  0  3  0  0  0  0  0  0
  178.1360  179.2370  144.8930 O   0  0  0  0  0  0  0  0  0  0  0  0
  178.0700  177.5040  143.2220 C   0  0  0  0  0  3  0  0  0  0  0  0
  179.8620  178.2570  142.0070 N   0  0  0  0  0  0  0  0  0  0  0  0
  179.8660  179.1080  143.1940 C   0  0  0  0  0  2  0  0  0  0  0  0
  178.6530  178.6410  143.9080 C   0  0  0  0  0  0  0  0  0  0  0  0
  194.3460  175.6550  144.0900 C   0  0  0  0  0  2  0  0  0  0  0  0
  195.6890  175.5280  141.9640 C   0  0  0  0  0  0  0  0  0  0  0  0
  194.8230  174.9120  142.9270 N   0  0  0  0  0  2  0  0  0  0  0  0
  196.0970  176.7060  142.1640 O   0  0  0  0  0  0  0  0  0  0  0  0
  195.8830  173.2850  140.9260 C   0  0  0  0  0  1  0  0  0  0  0  0
  196.1460  174.7820  140.7330 C   0  0  2  0  0  0  0  0  0  0  0  0
  197.6330  175.0100  140.4350 C   0  0  0  0  0  2  0  0  0  0  0  0
  197.9080  175.3110  138.9660 C   0  0  0  0  0  1  0  0  0  0  0  0
  195.3260  175.2950  139.5460 C   0  0  0  0  0  2  0  0  0  0  0  0
  194.1710  174.5300  139.3400 O   0  0  0  0  0  1  0  0  0  0  0  0
  1  5  2  0  0  0  0
  2 19  1  6  0  0  0
  2  4  1  0  0  0  0
  2 21  1  0  0  0  0
  3 10  1  0  0  0  0
  4 17  1  1  0  0  0
  6 22  1  6  0  0  0
  6  7  1  0  0  0  0
  7 16  1  1  0  0  0
  7  4  1  0  0  0  0
  8  1  1  0  0  0  0
 10 13  2  0  0  0  0
 11 12  1  1  0  0  0
 11 16  1  0  0  0  0
 13  5  1  0  0  0  0
 13  9  1  0  0  0  0
 14  3  1  0  0  0  0
 15 24  2  0  0  0  0
 17  8  1  0  0  0  0
 18  6  1  0  0  0  0
 18 19  1  0  0  0  0
 20 24  1  0  0  0  0
 20 14  2  0  0  0  0
 21 24  1  6  0  0  0
 21 10  1  0  0  0  0
 22 23  1  0  0  0  0
 23 26  1  6  0  0  0
 23 11  1  0  0  0  0
 26 25  1  1  0  0  0
 28 26  1  6  0  0  0
 28 27  1  0  0  0  0
 29 30  1  0  0  0  0
 30 27  1  1  0  0  0
 30 35  1  0  0  0  0
 31 29  1  0  0  0  0
 31 28  1  0  0  0  0
 32 34  2  0  0  0  0
 34 37  1  0  0  0  0
 35 32  1  0  0  0  0
 35 36  1  0  0  0  0
 36 37  1  0  0  0  0
 37 33  2  0  0  0  0
 38 14  1  0  0  0  0
 39 41  2  0  0  0  0
 39 40  1  0  0  0  0
 40 38  1  0  0  0  0
 43 42  1  1  0  0  0
 43 39  1  0  0  0  0
 44 43  1  0  0  0  0
 45 44  1  0  0  0  0
 46 43  1  0  0  0  0
 47 46  1  0  0  0  0
M  END
>  <MODEL>
5

>  <REMARK>
 VINA RESULT:      -7.2      3.600      6.255
  Name = 
  8 active torsions:
  status: ('A' for Active; 'I' for Inactive)
    1  A    between atoms: C_8  and  C_33
    2  A    between atoms: C_10  and  C_33
    3  A    between atoms: C_16  and  C_24
    4  A    between atoms: C_16  and  C_39
    5  A    between atoms: C_20  and  C_40
    6  A    between atoms: N_30  and  C_44
    7  A    between atoms: C_33  and  C_43
    8  A    between atoms: C_40  and  N_41
                            x       y       z     vdW  Elec       q    Type
                         _______ _______ _______ _____ _____    ______ ____

>  <TORSDO>
F 8

$$$$
=
 OpenBabel11072409033D

 47 52  0  0  1  0  0  0  0  0999 V2000
  194.3080  175.5560  146.4950 C   0  0  0  0  0  3  0  0  0  0  0  0
  191.5260  175.6290  143.9220 C   0  0  2  0  0  3  0  0  0  0  0  0
  189.8040  176.3040  146.6380 C   0  0  0  0  0  2  0  0  0  0  0  0
  192.7340  174.6980  144.1960 C   0  0  2  0  0  3  0  0  0  0  0  0
  193.5850  176.5890  146.8240 N   0  0  0  0  0  0  0  0  0  0  0  0
  192.7160  174.2640  141.7180 C   0  0  2  0  0  3  0  0  0  0  0  0
  192.8900  173.6310  143.1050 C   0  0  1  0  0  3  0  0  0  0  0  0
  193.7950  174.1380  146.4390 C   0  0  0  0  0  2  0  0  0  0  0  0
  191.8730  176.2710  148.5670 N   0  0  0  0  0  1  0  0  0  0  0  0
  191.2350  176.5840  146.2660 C   0  0  0  0  0  0  0  0  0  0  0  0
  194.4740  171.9290  142.0820 C   0  0  1  0  0  3  0  0  0  0  0  0
  195.8940  171.3960  142.1900 C   0  0  0  0  0  1  0  0  0  0  0  0
  192.2030  176.5210  147.2000 C   0  0  0  0  0  0  0  0  0  0  0  0
  188.8270  177.1350  145.8440 C   0  0  0  0  0  0  0  0  0  0  0  0
  190.8650  178.7850  143.4960 O   0  0  0  0  0  0  0  0  0  0  0  0
  194.2670  172.9610  143.2000 C   0  0  0  0  0  2  0  0  0  0  0  0
  192.5640  174.0080  145.5480 C   0  0  0  0  0  2  0  0  0  0  0  0
  191.4620  174.8830  141.6250 O   0  0  0  0  0  0  0  0  0  0  0  0
  191.5420  176.0220  142.4370 C   0  0  0  0  0  2  0  0  0  0  0  0
  189.1980  177.8690  144.8360 N   0  0  0  0  0  0  0  0  0  0  0  0
  191.5530  176.8940  144.8190 C   0  0  2  0  0  3  0  0  0  0  0  0
  192.8170  173.1780  140.6690 C   0  0  0  0  0  2  0  0  0  0  0  0
  194.2170  172.5560  140.6980 C   0  0  2  0  0  3  0  0  0  0  0  0
  190.5430  177.9150  144.3510 C   0  0  0  0  0  0  0  0  0  0  0  0
  195.4730  172.0100  138.7140 O   0  0  0  0  0  1  0  0  0  0  0  0
  194.4280  171.5670  139.5290 C   0  0  2  0  0  3  0  0  0  0  0  0
  193.2250  171.8230  137.2850 C   0  0  0  0  0  2  0  0  0  0  0  0
  193.1570  171.3390  138.6980 C   0  0  1  0  0  3  0  0  0  0  0  0
  191.9700  169.8060  137.4610 N   0  0  0  0  0  2  0  0  0  0  0  0
  192.0620  171.0630  136.6980 C   0  0  1  0  0  3  0  0  0  0  0  0
  192.7800  169.9400  138.6160 N   0  0  0  0  0  2  0  0  0  0  0  0
  190.8370  173.2700  136.9630 C   0  0  0  0  0  3  0  0  0  0  0  0
  188.2160  172.5970  139.0850 O   0  0  0  0  0  0  0  0  0  0  0  0
  189.8400  173.7300  137.7150 C   0  0  0  0  0  3  0  0  0  0  0  0
  190.8320  171.8390  136.8820 N   0  0  0  0  0  0  0  0  0  0  0  0
  189.6750  171.3300  137.6140 C   0  0  0  0  0  2  0  0  0  0  0  0
  189.1120  172.5720  138.1960 C   0  0  0  0  0  0  0  0  0  0  0  0
  187.3910  177.1180  146.2320 C   0  0  0  0  0  2  0  0  0  0  0  0
  185.9130  177.7010  144.2790 C   0  0  0  0  0  0  0  0  0  0  0  0
  186.6520  178.0990  145.4420 N   0  0  0  0  0  2  0  0  0  0  0  0
  185.8470  176.4770  143.9770 O   0  0  0  0  0  0  0  0  0  0  0  0
  185.4800  180.1220  143.9630 C   0  0  0  0  0  1  0  0  0  0  0  0
  185.1870  178.7170  143.4290 C   0  0  2  0  0  0  0  0  0  0  0  0
  183.6720  178.4780  143.4070 C   0  0  0  0  0  2  0  0  0  0  0  0
  183.1170  178.2940  141.9990 C   0  0  0  0  0  1  0  0  0  0  0  0
  185.7200  178.5940  141.9990 C   0  0  0  0  0  2  0  0  0  0  0  0
  187.0980  178.8380  141.9330 O   0  0  0  0  0  1  0  0  0  0  0  0
  1  5  2  0  0  0  0
  2 19  1  6  0  0  0
  2  4  1  0  0  0  0
  2 21  1  0  0  0  0
  4 17  1  1  0  0  0
  5 13  1  0  0  0  0
  6 22  1  6  0  0  0
  6  7  1  0  0  0  0
  7 16  1  6  0  0  0
  7  4  1  0  0  0  0
  8  1  1  0  0  0  0
 10  3  1  0  0  0  0
 10 13  2  0  0  0  0
 11 12  1  6  0  0  0
 11 16  1  0  0  0  0
 13  9  1  0  0  0  0
 14 38  1  0  0  0  0
 14  3  1  0  0  0  0
 15 24  2  0  0  0  0
 17  8  1  0  0  0  0
 18  6  1  0  0  0  0
 18 19  1  0  0  0  0
 20 14  2  0  0  0  0
 21 24  1  6  0  0  0
 21 10  1  0  0  0  0
 22 23  1  0  0  0  0
 23 26  1  6  0  0  0
 23 11  1  0  0  0  0
 24 20  1  0  0  0  0
 26 25  1  6  0  0  0
 27 28  1  0  0  0  0
 28 26  1  6  0  0  0
 29 31  1  0  0  0  0
 30 35  1  1  0  0  0
 30 27  1  0  0  0  0
 30 29  1  0  0  0  0
 31 28  1  0  0  0  0
 32 34  2  0  0  0  0
 34 37  1  0  0  0  0
 35 32  1  0  0  0  0
 35 36  1  0  0  0  0
 36 37  1  0  0  0  0
 37 33  2  0  0  0  0
 39 40  1  0  0  0  0
 40 38  1  0  0  0  0
 41 39  2  0  0  0  0
 43 42  1  1  0  0  0
 43 39  1  0  0  0  0
 44 43  1  0  0  0  0
 45 44  1  0  0  0  0
 46 43  1  0  0  0  0
 47 46  1  0  0  0  0
M  END
>  <MODEL>
6

>  <REMARK>
 VINA RESULT:      -7.2      2.164      8.493
  Name = 
  8 active torsions:
  status: ('A' for Active; 'I' for Inactive)
    1  A    between atoms: C_8  and  C_33
    2  A    between atoms: C_10  and  C_33
    3  A    between atoms: C_16  and  C_24
    4  A    between atoms: C_16  and  C_39
    5  A    between atoms: C_20  and  C_40
    6  A    between atoms: N_30  and  C_44
    7  A    between atoms: C_33  and  C_43
    8  A    between atoms: C_40  and  N_41
                            x       y       z     vdW  Elec       q    Type
                         _______ _______ _______ _____ _____    ______ ____

>  <TORSDO>
F 8

$$$$
=
 OpenBabel11072409033D

 47 52  0  0  1  0  0  0  0  0999 V2000
  196.4090  174.8810  143.4380 C   0  0  0  0  0  3  0  0  0  0  0  0
  193.0230  174.0240  141.9660 C   0  0  2  0  0  3  0  0  0  0  0  0
  194.6780  174.7120  139.2140 C   0  0  0  0  0  2  0  0  0  0  0  0
  193.5050  174.8590  143.1800 C   0  0  2  0  0  3  0  0  0  0  0  0
  196.6810  174.1550  142.3900 N   0  0  0  0  0  0  0  0  0  0  0  0
  191.3150  174.2250  144.2430 C   0  0  2  0  0  3  0  0  0  0  0  0
  192.3310  175.3560  144.0320 C   0  0  1  0  0  3  0  0  0  0  0  0
  195.6620  176.1910  143.3970 C   0  0  0  0  0  2  0  0  0  0  0  0
  197.2170  175.3350  140.2960 N   0  0  0  0  0  1  0  0  0  0  0  0
  195.1290  174.1620  140.5400 C   0  0  0  0  0  0  0  0  0  0  0  0
  191.6680  176.3130  146.2900 C   0  0  1  0  0  3  0  0  0  0  0  0
  192.2420  176.6990  147.6440 C   0  0  0  0  0  1  0  0  0  0  0  0
  196.3260  174.5100  141.0470 C   0  0  0  0  0  0  0  0  0  0  0  0
  193.8430  173.7270  138.4340 C   0  0  0  0  0  0  0  0  0  0  0  0
  193.3960  171.0590  140.6840 O   0  0  0  0  0  0  0  0  0  0  0  0
  192.8300  175.8650  145.3910 C   0  0  0  0  0  2  0  0  0  0  0  0
  194.3140  176.0610  142.6950 C   0  0  0  0  0  2  0  0  0  0  0  0
  190.8580  173.7520  143.0060 O   0  0  0  0  0  0  0  0  0  0  0  0
  191.9350  173.0510  142.4480 C   0  0  0  0  0  2  0  0  0  0  0  0
  193.4250  172.6080  138.9480 N   0  0  0  0  0  0  0  0  0  0  0  0
  194.1860  173.2490  141.2960 C   0  0  2  0  0  3  0  0  0  0  0  0
  190.1440  174.7630  145.0370 C   0  0  0  0  0  2  0  0  0  0  0  0
  190.6150  175.1980  146.4280 C   0  0  2  0  0  3  0  0  0  0  0  0
  193.6650  172.2320  140.3080 C   0  0  0  0  0  0  0  0  0  0  0  0
  188.7050  174.4440  147.6900 O   0  0  0  0  0  1  0  0  0  0  0  0
  189.4280  175.5860  147.3380 C   0  0  2  0  0  3  0  0  0  0  0  0
  187.1380  176.1410  146.3380 C   0  0  0  0  0  2  0  0  0  0  0  0
  188.5020  176.6350  146.7040 C   0  0  1  0  0  3  0  0  0  0  0  0
  187.0750  178.3870  147.1320 N   0  0  0  0  0  2  0  0  0  0  0  0
  186.4200  177.4600  146.1920 C   0  0  1  0  0  3  0  0  0  0  0  0
  188.2860  177.7880  147.5580 N   0  0  0  0  0  2  0  0  0  0  0  0
  186.0820  179.2290  144.4030 C   0  0  0  0  0  3  0  0  0  0  0  0
  185.6840  177.4790  141.4700 O   0  0  0  0  0  0  0  0  0  0  0  0
  185.7610  179.2390  143.1120 C   0  0  0  0  0  3  0  0  0  0  0  0
  186.5850  177.9540  144.8210 N   0  0  0  0  0  0  0  0  0  0  0  0
  186.6450  177.0680  143.6620 C   0  0  0  0  0  2  0  0  0  0  0  0
  186.0350  177.9080  142.6040 C   0  0  0  0  0  0  0  0  0  0  0  0
  193.4900  174.0460  137.0240 C   0  0  0  0  0  2  0  0  0  0  0  0
  191.4280  173.1090  135.9240 C   0  0  0  0  0  0  0  0  0  0  0  0
  192.0400  174.0120  136.8550 N   0  0  0  0  0  2  0  0  0  0  0  0
  192.1510  172.2860  135.2960 O   0  0  0  0  0  0  0  0  0  0  0  0
  189.4620  171.6620  135.4880 C   0  0  0  0  0  1  0  0  0  0  0  0
  189.9340  173.1030  135.7080 C   0  0  2  0  0  0  0  0  0  0  0  0
  189.5170  173.9710  134.5140 C   0  0  0  0  0  2  0  0  0  0  0  0
  189.1910  175.4080  134.9050 C   0  0  0  0  0  1  0  0  0  0  0  0
  189.2780  173.6660  136.9720 C   0  0  0  0  0  2  0  0  0  0  0  0
  188.9140  172.6520  137.8670 O   0  0  0  0  0  1  0  0  0  0  0  0
  2 19  1  1  0  0  0
  2  4  1  0  0  0  0
  3 10  1  0  0  0  0
  4 17  1  6  0  0  0
  4  7  1  0  0  0  0
  5  1  2  0  0  0  0
  6 22  1  1  0  0  0
  7  6  1  0  0  0  0
  7 16  1  1  0  0  0
  8  1  1  0  0  0  0
  9 13  1  0  0  0  0
 10 13  2  0  0  0  0
 10 21  1  0  0  0  0
 11 23  1  0  0  0  0
 11 12  1  1  0  0  0
 13  5  1  0  0  0  0
 14 20  2  0  0  0  0
 14  3  1  0  0  0  0
 16 11  1  0  0  0  0
 17  8  1  0  0  0  0
 18  6  1  0  0  0  0
 19 18  1  0  0  0  0
 20 24  1  0  0  0  0
 21 24  1  6  0  0  0
 21  2  1  0  0  0  0
 22 23  1  0  0  0  0
 23 26  1  1  0  0  0
 24 15  2  0  0  0  0
 26 25  1  6  0  0  0
 27 28  1  0  0  0  0
 28 26  1  1  0  0  0
 28 31  1  0  0  0  0
 29 31  1  0  0  0  0
 30 35  1  6  0  0  0
 30 27  1  0  0  0  0
 30 29  1  0  0  0  0
 32 35  1  0  0  0  0
 33 37  2  0  0  0  0
 34 32  2  0  0  0  0
 36 35  1  0  0  0  0
 37 34  1  0  0  0  0
 37 36  1  0  0  0  0
 38 14  1  0  0  0  0
 39 40  1  0  0  0  0
 40 38  1  0  0  0  0
 41 39  2  0  0  0  0
 43 42  1  6  0  0  0
 43 39  1  0  0  0  0
 43 46  1  0  0  0  0
 44 45  1  0  0  0  0
 44 43  1  0  0  0  0
 46 47  1  0  0  0  0
M  END
>  <MODEL>
7

>  <REMARK>
 VINA RESULT:      -7.0      2.010      2.798
  Name = 
  8 active torsions:
  status: ('A' for Active; 'I' for Inactive)
    1  A    between atoms: C_8  and  C_33
    2  A    between atoms: C_10  and  C_33
    3  A    between atoms: C_16  and  C_24
    4  A    between atoms: C_16  and  C_39
    5  A    between atoms: C_20  and  C_40
    6  A    between atoms: N_30  and  C_44
    7  A    between atoms: C_33  and  C_43
    8  A    between atoms: C_40  and  N_41
                            x       y       z     vdW  Elec       q    Type
                         _______ _______ _______ _____ _____    ______ ____

>  <TORSDO>
F 8

$$$$
=
 OpenBabel11072409033D

 47 52  0  0  1  0  0  0  0  0999 V2000
  197.5750  171.6170  143.0490 C   0  0  0  0  0  3  0  0  0  0  0  0
  195.2100  174.4660  142.2400 C   0  0  2  0  0  3  0  0  0  0  0  0
  195.0590  174.5190  145.5210 C   0  0  0  0  0  2  0  0  0  0  0  0
  195.4340  173.0400  141.6740 C   0  0  2  0  0  3  0  0  0  0  0  0
  197.8750  172.5470  143.9120 N   0  0  0  0  0  0  0  0  0  0  0  0
  194.6160  173.9850  139.4910 C   0  0  2  0  0  3  0  0  0  0  0  0
  194.5700  172.7760  140.4350 C   0  0  1  0  0  3  0  0  0  0  0  0
  196.2170  170.9700  142.9290 C   0  0  0  0  0  2  0  0  0  0  0  0
  196.8370  172.4080  146.1410 N   0  0  0  0  0  1  0  0  0  0  0  0
  196.1560  174.1070  144.5770 C   0  0  0  0  0  0  0  0  0  0  0  0
  194.2470  171.2670  138.4170 C   0  0  1  0  0  3  0  0  0  0  0  0
  194.8620  170.0760  137.7000 C   0  0  0  0  0  1  0  0  0  0  0  0
  196.9610  173.0730  144.8830 C   0  0  0  0  0  0  0  0  0  0  0  0
  194.8170  176.0080  145.5120 C   0  0  0  0  0  0  0  0  0  0  0  0
  196.8920  177.1650  142.9160 O   0  0  0  0  0  0  0  0  0  0  0  0
  195.0570  171.5220  139.6970 C   0  0  0  0  0  2  0  0  0  0  0  0
  195.1060  171.9990  142.7430 C   0  0  0  0  0  2  0  0  0  0  0  0
  194.1770  175.1350  140.1600 O   0  0  0  0  0  0  0  0  0  0  0  0
  195.1960  175.4570  141.0660 C   0  0  0  0  0  2  0  0  0  0  0  0
  195.3820  176.7990  144.6480 N   0  0  0  0  0  0  0  0  0  0  0  0
  196.2990  174.8600  143.2710 C   0  0  2  0  0  3  0  0  0  0  0  0
  193.7090  173.7160  138.3090 C   0  0  0  0  0  2  0  0  0  0  0  0
  194.2320  172.5150  137.5150 C   0  0  2  0  0  3  0  0  0  0  0  0
  196.2330  176.3320  143.5970 C   0  0  0  0  0  0  0  0  0  0  0  0
  193.6420  173.4060  135.3540 O   0  0  0  0  0  1  0  0  0  0  0  0
  193.4450  172.3120  136.2000 C   0  0  2  0  0  3  0  0  0  0  0  0
  191.0380  173.1090  135.8460 C   0  0  0  0  0  2  0  0  0  0  0  0
  191.9450  172.0730  136.4300 C   0  0  1  0  0  3  0  0  0  0  0  0
  190.0910  170.9290  135.6940 N   0  0  0  0  0  2  0  0  0  0  0  0
  189.7350  172.3490  135.8640 C   0  0  1  0  0  3  0  0  0  0  0  0
  191.4870  170.8050  135.8930 N   0  0  0  0  0  2  0  0  0  0  0  0
  188.7120  173.8340  137.6490 C   0  0  0  0  0  3  0  0  0  0  0  0
  189.4690  172.3070  140.6350 O   0  0  0  0  0  0  0  0  0  0  0  0
  188.7340  173.8930  138.9790 C   0  0  0  0  0  3  0  0  0  0  0  0
  189.0810  172.5380  137.1620 N   0  0  0  0  0  0  0  0  0  0  0  0
  189.3090  171.6540  138.3020 C   0  0  0  0  0  2  0  0  0  0  0  0
  189.1520  172.5840  139.4460 C   0  0  0  0  0  0  0  0  0  0  0  0
  193.9040  176.5920  146.5320 C   0  0  0  0  0  2  0  0  0  0  0  0
  191.6330  176.5660  145.4470 C   0  0  0  0  0  0  0  0  0  0  0  0
  192.5680  176.0210  146.3870 N   0  0  0  0  0  2  0  0  0  0  0  0
  191.9960  177.5070  144.6880 O   0  0  0  0  0  0  0  0  0  0  0  0
  189.2280  177.0850  145.7630 C   0  0  0  0  0  1  0  0  0  0  0  0
  190.2320  176.0130  145.3270 C   0  0  2  0  0  0  0  0  0  0  0  0
  190.0350  174.7470  146.1710 C   0  0  0  0  0  2  0  0  0  0  0  0
  188.9750  174.9110  147.2550 C   0  0  0  0  0  1  0  0  0  0  0  0
  189.9950  175.6600  143.8560 C   0  0  0  0  0  2  0  0  0  0  0  0
  189.4760  174.3680  143.7070 O   0  0  0  0  0  1  0  0  0  0  0  0
  1  5  2  0  0  0  0
  2 19  1  6  0  0  0
  2 21  1  0  0  0  0
  4  2  1  0  0  0  0
  4 17  1  1  0  0  0
  5 13  1  0  0  0  0
  6 22  1  6  0  0  0
  6 18  1  0  0  0  0
  6  7  1  0  0  0  0
  7 16  1  6  0  0  0
  7  4  1  0  0  0  0
  8  1  1  0  0  0  0
 10 13  2  0  0  0  0
 10  3  1  0  0  0  0
 11 12  1  6  0  0  0
 11 16  1  0  0  0  0
 13  9  1  0  0  0  0
 14  3  1  0  0  0  0
 14 38  1  0  0  0  0
 15 24  2  0  0  0  0
 17  8  1  0  0  0  0
 18 19  1  0  0  0  0
 20 14  2  0  0  0  0
 21 24  1  1  0  0  0
 21 10  1  0  0  0  0
 23 26  1  6  0  0  0
 23 22  1  0  0  0  0
 23 11  1  0  0  0  0
 24 20  1  0  0  0  0
 26 25  1  6  0  0  0
 27 28  1  0  0  0  0
 28 26  1  6  0  0  0
 29 30  1  0  0  0  0
 29 31  1  0  0  0  0
 30 27  1  1  0  0  0
 30 35  1  0  0  0  0
 31 28  1  0  0  0  0
 32 34  2  0  0  0  0
 34 37  1  0  0  0  0
 35 32  1  0  0  0  0
 35 36  1  0  0  0  0
 36 37  1  0  0  0  0
 37 33  2  0  0  0  0
 39 40  1  0  0  0  0
 40 38  1  0  0  0  0
 41 39  2  0  0  0  0
 43 39  1  0  0  0  0
 43 42  1  1  0  0  0
 43 44  1  0  0  0  0
 44 45  1  0  0  0  0
 46 43  1  0  0  0  0
 47 46  1  0  0  0  0
M  END
>  <MODEL>
8

>  <REMARK>
 VINA RESULT:      -7.0      3.400      8.447
  Name = 
  8 active torsions:
  status: ('A' for Active; 'I' for Inactive)
    1  A    between atoms: C_8  and  C_33
    2  A    between atoms: C_10  and  C_33
    3  A    between atoms: C_16  and  C_24
    4  A    between atoms: C_16  and  C_39
    5  A    between atoms: C_20  and  C_40
    6  A    between atoms: N_30  and  C_44
    7  A    between atoms: C_33  and  C_43
    8  A    between atoms: C_40  and  N_41
                            x       y       z     vdW  Elec       q    Type
                         _______ _______ _______ _____ _____    ______ ____

>  <TORSDO>
F 8

$$$$
=
 OpenBabel11072409033D

 47 52  0  0  1  0  0  0  0  0999 V2000
  195.2900  174.4710  143.4540 C   0  0  0  0  0  3  0  0  0  0  0  0
  191.5200  174.7720  143.2000 C   0  0  2  0  0  3  0  0  0  0  0  0
  191.9740  175.9080  146.2490 C   0  0  0  0  0  2  0  0  0  0  0  0
  192.5570  173.6900  142.8030 C   0  0  2  0  0  3  0  0  0  0  0  0
  195.0150  175.6250  143.9950 N   0  0  0  0  0  0  0  0  0  0  0  0
  190.9350  173.0760  140.9820 C   0  0  2  0  0  3  0  0  0  0  0  0
  191.9080  172.5320  142.0370 C   0  0  1  0  0  3  0  0  0  0  0  0
  194.7620  173.1490  143.9520 C   0  0  0  0  0  2  0  0  0  0  0  0
  194.7890  175.7070  146.4470 N   0  0  0  0  0  1  0  0  0  0  0  0
  192.8560  175.9360  145.0300 C   0  0  0  0  0  0  0  0  0  0  0  0
  192.3540  170.5340  140.5320 C   0  0  1  0  0  3  0  0  0  0  0  0
  193.4760  169.8000  139.8150 C   0  0  0  0  0  1  0  0  0  0  0  0
  194.1890  175.7980  145.1540 C   0  0  0  0  0  0  0  0  0  0  0  0
  190.7760  176.8150  146.1170 C   0  0  0  0  0  0  0  0  0  0  0  0
  190.9610  177.9490  142.7910 O   0  0  0  0  0  0  0  0  0  0  0  0
  192.9790  171.6680  141.3580 C   0  0  0  0  0  2  0  0  0  0  0  0
  193.2400  173.1400  144.0540 C   0  0  0  0  0  2  0  0  0  0  0  0
  189.9560  173.8700  141.5940 O   0  0  0  0  0  0  0  0  0  0  0  0
  190.6130  175.0420  141.9890 C   0  0  0  0  0  2  0  0  0  0  0  0
  190.4700  177.4050  144.9990 N   0  0  0  0  0  0  0  0  0  0  0  0
  192.1990  176.0830  143.6730 C   0  0  2  0  0  3  0  0  0  0  0  0
  190.2690  171.9090  140.2840 C   0  0  0  0  0  2  0  0  0  0  0  0
  191.3190  171.0850  139.5330 C   0  0  2  0  0  3  0  0  0  0  0  0
  191.1970  177.2070  143.7830 C   0  0  0  0  0  0  0  0  0  0  0  0
  190.5560  168.8030  139.3890 O   0  0  0  0  0  1  0  0  0  0  0  0
  190.6680  169.9890  138.6590 C   0  0  2  0  0  3  0  0  0  0  0  0
  191.5890  168.3030  136.9670 C   0  0  0  0  0  2  0  0  0  0  0  0
  191.4220  169.7410  137.3440 C   0  0  1  0  0  3  0  0  0  0  0  0
  191.2330  169.6770  135.0530 N   0  0  0  0  0  2  0  0  0  0  0  0
  191.9300  168.4610  135.5050 C   0  0  1  0  0  3  0  0  0  0  0  0
  190.7900  170.3760  136.2030 N   0  0  0  0  0  2  0  0  0  0  0  0
  194.3050  168.2020  136.3620 C   0  0  0  0  0  3  0  0  0  0  0  0
  195.9780  170.9860  135.2340 O   0  0  0  0  0  0  0  0  0  0  0  0
  195.4030  168.9540  136.3910 C   0  0  0  0  0  3  0  0  0  0  0  0
  193.3780  168.6430  135.3630 N   0  0  0  0  0  0  0  0  0  0  0  0
  193.9680  169.7640  134.6350 C   0  0  0  0  0  2  0  0  0  0  0  0
  195.2320  169.9790  135.3780 C   0  0  0  0  0  0  0  0  0  0  0  0
  189.9190  177.0480  147.3110 C   0  0  0  0  0  2  0  0  0  0  0  0
  187.5010  177.0480  146.6130 C   0  0  0  0  0  0  0  0  0  0  0  0
  188.7070  177.7610  146.9210 N   0  0  0  0  0  2  0  0  0  0  0  0
  187.4720  175.7930  146.7500 O   0  0  0  0  0  0  0  0  0  0  0  0
  185.0840  176.7910  146.1200 C   0  0  0  0  0  1  0  0  0  0  0  0
  186.2570  177.7760  146.1610 C   0  0  2  0  0  0  0  0  0  0  0  0
  186.4340  178.4250  144.7820 C   0  0  0  0  0  2  0  0  0  0  0  0
  185.2920  179.3650  144.4140 C   0  0  0  0  0  1  0  0  0  0  0  0
  185.9630  178.8770  147.1840 C   0  0  0  0  0  2  0  0  0  0  0  0
  184.7040  178.7150  147.7760 O   0  0  0  0  0  1  0  0  0  0  0  0
  1  8  1  0  0  0  0
  1  5  2  0  0  0  0
  2 19  1  6  0  0  0
  2 21  1  0  0  0  0
  4  2  1  0  0  0  0
  4 17  1  1  0  0  0
  5 13  1  0  0  0  0
  6 22  1  1  0  0  0
  6 18  1  0  0  0  0
  6  7  1  0  0  0  0
  7 16  1  6  0  0  0
  7  4  1  0  0  0  0
  8 17  1  0  0  0  0
 10 13  2  0  0  0  0
 10  3  1  0  0  0  0
 11 12  1  6  0  0  0
 11 16  1  0  0  0  0
 13  9  1  0  0  0  0
 14  3  1  0  0  0  0
 14 38  1  0  0  0  0
 15 24  2  0  0  0  0
 18 19  1  0  0  0  0
 20 14  2  0  0  0  0
 21 24  1  1  0  0  0
 21 10  1  0  0  0  0
 23 26  1  1  0  0  0
 23 22  1  0  0  0  0
 23 11  1  0  0  0  0
 24 20  1  0  0  0  0
 26 25  1  1  0  0  0
 27 28  1  0  0  0  0
 28 26  1  1  0  0  0
 29 30  1  0  0  0  0
 29 31  1  0  0  0  0
 30 35  1  1  0  0  0
 30 27  1  0  0  0  0
 31 28  1  0  0  0  0
 32 34  2  0  0  0  0
 33 37  2  0  0  0  0
 35 32  1  0  0  0  0
 36 35  1  0  0  0  0
 36 37  1  0  0  0  0
 37 34  1  0  0  0  0
 39 41  2  0  0  0  0
 39 40  1  0  0  0  0
 40 38  1  0  0  0  0
 43 42  1  6  0  0  0
 43 39  1  0  0  0  0
 43 46  1  0  0  0  0
 44 43  1  0  0  0  0
 45 44  1  0  0  0  0
 46 47  1  0  0  0  0
M  END
>  <MODEL>
9

>  <REMARK>
 VINA RESULT:      -7.0      2.878      9.607
  Name = 
  8 active torsions:
  status: ('A' for Active; 'I' for Inactive)
    1  A    between atoms: C_8  and  C_33
    2  A    between atoms: C_10  and  C_33
    3  A    between atoms: C_16  and  C_24
    4  A    between atoms: C_16  and  C_39
    5  A    between atoms: C_20  and  C_40
    6  A    between atoms: N_30  and  C_44
    7  A    between atoms: C_33  and  C_43
    8  A    between atoms: C_40  and  N_41
                            x       y       z     vdW  Elec       q    Type
                         _______ _______ _______ _____ _____    ______ ____

>  <TORSDO>
F 8

$$$$
