=
 OpenBabel11062422073D

 34 37  0  0  1  0  0  0  0  0999 V2000
  189.9510  177.1900  146.0930 C   0  0  0  0  0  3  0  0  0  0  0  0
  192.1320  175.0360  145.6030 C   0  0  0  0  0  0  0  0  0  0  0  0
  189.7840  176.1290  147.1280 C   0  0  0  0  0  2  0  0  0  0  0  0
  191.5290  175.8510  144.7200 C   0  0  0  0  0  3  0  0  0  0  0  0
  192.1060  175.2580  147.0680 C   0  0  0  0  0  3  0  0  0  0  0  0
  190.7130  177.0510  145.0070 C   0  0  0  0  0  0  0  0  0  0  0  0
  191.0880  175.7750  147.7560 C   0  0  0  0  0  3  0  0  0  0  0  0
  192.5800  170.4110  143.9290 O   0  0  0  0  0  0  0  0  0  0  0  0
  193.0780  171.5310  144.2080 C   0  0  0  0  0  0  0  0  0  0  0  0
  192.9250  173.9090  145.0650 C   0  0  0  0  0  0  0  0  0  0  0  0
  196.7960  174.4680  144.6450 C   0  0  1  0  0  3  0  0  0  0  0  0
  194.4880  171.7360  144.0620 N   0  0  0  0  0  0  0  0  0  0  0  0
  195.0240  172.8710  144.3770 C   0  0  0  0  0  0  0  0  0  0  0  0
  195.2990  175.4130  145.1700 S   0  0  0  0  0  0  0  0  0  0  0  0
  192.1790  172.6480  144.6740 C   0  0  0  0  0  2  0  0  0  0  0  0
  194.2600  173.9810  144.8950 C   0  0  0  0  0  0  0  0  0  0  0  0
  196.4060  173.1250  144.2330 N   0  0  0  0  0  2  0  0  0  0  0  0
  197.6000  175.3170  143.2560 S   0  0  0  0  0  0  0  0  0  0  0  0
  196.2190  176.4790  143.0600 C   0  0  0  0  0  2  0  0  0  0  0  0
  195.4030  176.2010  141.4630 S   0  0  0  0  0  0  0  0  0  0  0  0
  196.9430  176.0520  140.6160 N   0  0  0  0  0  1  0  0  0  0  0  0
  190.6920  178.1430  143.9910 C   0  0  0  0  0  2  0  0  0  0  0  0
  189.8510  177.7700  142.8590 N   0  0  0  0  0  2  0  0  0  0  0  0
  187.9970  176.1610  142.5820 C   0  0  0  0  0  3  0  0  0  0  0  0
  188.4680  177.4230  142.9730 C   0  0  0  0  0  0  0  0  0  0  0  0
  186.6410  175.8460  142.7030 C   0  0  0  0  0  3  0  0  0  0  0  0
  185.7490  176.7890  143.2190 C   0  0  0  0  0  3  0  0  0  0  0  0
  186.2130  178.0450  143.6200 C   0  0  0  0  0  0  0  0  0  0  0  0
  187.5700  178.3610  143.4930 C   0  0  0  0  0  3  0  0  0  0  0  0
  185.0720  179.2580  144.2720 S   0  0  0  0  0  0  0  0  0  0  0  0
  184.5480  178.1900  145.6500 C   0  0  0  0  0  2  0  0  0  0  0  0
  185.8040  179.3960  147.4320 O   0  0  0  0  0  1  0  0  0  0  0  0
  186.2120  177.1780  147.0240 O   0  0  0  0  0  0  0  0  0  0  0  0
  185.5610  178.2180  146.7410 C   0  0  0  0  0  0  0  0  0  0  0  0
  1  3  1  0  0  0  0
  2  5  1  0  0  0  0
  3  7  1  0  0  0  0
  4  6  1  0  0  0  0
  4  2  2  0  0  0  0
  5  7  2  0  0  0  0
  6  1  2  0  0  0  0
  8  9  2  0  0  0  0
  9 15  1  0  0  0  0
 10  2  1  0  0  0  0
 11 18  1  6  0  0  0
 11 14  1  0  0  0  0
 12  9  1  0  0  0  0
 12 13  2  0  0  0  0
 13 16  1  0  0  0  0
 15 10  1  0  0  0  0
 16 10  2  0  0  0  0
 16 14  1  0  0  0  0
 17 13  1  0  0  0  0
 17 11  1  0  0  0  0
 19 18  1  0  0  0  0
 20 19  1  0  0  0  0
 21 20  1  0  0  0  0
 22  6  1  0  0  0  0
 23 25  1  0  0  0  0
 23 22  1  0  0  0  0
 24 26  2  0  0  0  0
 24 25  1  0  0  0  0
 25 29  2  0  0  0  0
 26 27  1  0  0  0  0
 27 28  2  0  0  0  0
 28 30  1  0  0  0  0
 29 28  1  0  0  0  0
 30 31  1  0  0  0  0
 31 34  1  0  0  0  0
 34 33  2  0  0  0  0
 34 32  1  0  0  0  0
M  END
>  <MODEL>
1

>  <REMARK>
 VINA RESULT:      -6.8      0.000      0.000
  Name = 
  10 active torsions:
  status: ('A' for Active; 'I' for Inactive)
    1  A    between atoms: S_4  and  C_17
    2  A    between atoms: C_6  and  N_18
    3  A    between atoms: C_7  and  C_11
    4  A    between atoms: C_9  and  S_22
    5  A    between atoms: C_13  and  S_23
    6  A    between atoms: C_13  and  C_27
    7  A    between atoms: C_17  and  S_22
    8  A    between atoms: N_18  and  C_21
    9  A    between atoms: C_21  and  C_32
   10  A    between atoms: S_23  and  C_28
                            x       y       z     vdW  Elec       q    Type
                         _______ _______ _______ _____ _____    ______ ____

>  <TORSDO>
F 10

$$$$
=
 OpenBabel11062422073D

 34 37  0  0  1  0  0  0  0  0999 V2000
  188.8530  172.9880  142.1280 C   0  0  0  0  0  3  0  0  0  0  0  0
  190.2650  174.2820  144.5720 C   0  0  0  0  0  0  0  0  0  0  0  0
  189.7020  171.9430  142.7700 C   0  0  0  0  0  2  0  0  0  0  0  0
  189.8590  174.8530  143.4250 C   0  0  0  0  0  3  0  0  0  0  0  0
  189.7950  172.9540  145.0330 C   0  0  0  0  0  3  0  0  0  0  0  0
  188.9440  174.2900  142.4070 C   0  0  0  0  0  0  0  0  0  0  0  0
  189.5070  171.9180  144.2470 C   0  0  0  0  0  3  0  0  0  0  0  0
  191.1800  176.9830  148.6040 O   0  0  0  0  0  0  0  0  0  0  0  0
  191.5630  176.4330  147.5400 C   0  0  0  0  0  0  0  0  0  0  0  0
  191.1640  175.0650  145.4470 C   0  0  0  0  0  0  0  0  0  0  0  0
  194.8850  175.5270  144.2560 C   0  0  1  0  0  3  0  0  0  0  0  0
  192.9160  176.6050  147.1010 N   0  0  0  0  0  0  0  0  0  0  0  0
  193.3190  176.0750  145.9910 C   0  0  0  0  0  0  0  0  0  0  0  0
  193.3430  174.6700  143.7130 S   0  0  0  0  0  0  0  0  0  0  0  0
  190.5960  175.5860  146.7540 C   0  0  0  0  0  2  0  0  0  0  0  0
  192.4530  175.3020  145.1320 C   0  0  0  0  0  0  0  0  0  0  0  0
  194.6470  176.2020  145.5260 N   0  0  0  0  0  2  0  0  0  0  0  0
  196.2210  174.3140  144.4580 S   0  0  0  0  0  0  0  0  0  0  0  0
  197.1750  175.0120  143.0800 C   0  0  0  0  0  2  0  0  0  0  0  0
  196.8390  176.7910  142.9380 S   0  0  0  0  0  0  0  0  0  0  0  0
  196.3420  176.6400  141.2520 N   0  0  0  0  0  1  0  0  0  0  0  0
  188.1230  175.2390  141.6020 C   0  0  0  0  0  2  0  0  0  0  0  0
  188.3180  176.6060  142.0680 N   0  0  0  0  0  2  0  0  0  0  0  0
  186.8490  178.5690  142.3760 C   0  0  0  0  0  3  0  0  0  0  0  0
  187.3480  177.3370  142.8240 C   0  0  0  0  0  0  0  0  0  0  0  0
  185.9020  179.2640  143.1320 C   0  0  0  0  0  3  0  0  0  0  0  0
  185.4440  178.7300  144.3390 C   0  0  0  0  0  3  0  0  0  0  0  0
  185.9290  177.4970  144.7870 C   0  0  0  0  0  0  0  0  0  0  0  0
  186.8820  176.8050  144.0310 C   0  0  0  0  0  3  0  0  0  0  0  0
  185.3520  176.8150  146.3360 S   0  0  0  0  0  0  0  0  0  0  0  0
  186.7860  177.4320  147.2720 C   0  0  0  0  0  2  0  0  0  0  0  0
  187.3850  179.3340  148.7680 O   0  0  0  0  0  1  0  0  0  0  0  0
  185.3210  179.2440  147.7740 O   0  0  0  0  0  0  0  0  0  0  0  0
  186.4540  178.7210  147.9410 C   0  0  0  0  0  0  0  0  0  0  0  0
  1  6  2  0  0  0  0
  1  3  1  0  0  0  0
  2  5  1  0  0  0  0
  2 10  1  0  0  0  0
  3  7  1  0  0  0  0
  4  2  2  0  0  0  0
  6  4  1  0  0  0  0
  7  5  2  0  0  0  0
  9  8  2  0  0  0  0
 10 15  1  0  0  0  0
 11 18  1  1  0  0  0
 11 17  1  0  0  0  0
 12  9  1  0  0  0  0
 13 12  2  0  0  0  0
 14 11  1  0  0  0  0
 14 16  1  0  0  0  0
 15  9  1  0  0  0  0
 16 10  2  0  0  0  0
 16 13  1  0  0  0  0
 17 13  1  0  0  0  0
 19 18  1  0  0  0  0
 20 19  1  0  0  0  0
 21 20  1  0  0  0  0
 22 23  1  0  0  0  0
 22  6  1  0  0  0  0
 23 25  1  0  0  0  0
 24 25  2  0  0  0  0
 24 26  1  0  0  0  0
 25 29  1  0  0  0  0
 26 27  2  0  0  0  0
 27 28  1  0  0  0  0
 28 30  1  0  0  0  0
 29 28  2  0  0  0  0
 30 31  1  0  0  0  0
 31 34  1  0  0  0  0
 33 34  2  0  0  0  0
 34 32  1  0  0  0  0
M  END
>  <MODEL>
2

>  <REMARK>
 VINA RESULT:      -6.8      2.505      3.639
  Name = 
  10 active torsions:
  status: ('A' for Active; 'I' for Inactive)
    1  A    between atoms: S_4  and  C_17
    2  A    between atoms: C_6  and  N_18
    3  A    between atoms: C_7  and  C_11
    4  A    between atoms: C_9  and  S_22
    5  A    between atoms: C_13  and  S_23
    6  A    between atoms: C_13  and  C_27
    7  A    between atoms: C_17  and  S_22
    8  A    between atoms: N_18  and  C_21
    9  A    between atoms: C_21  and  C_32
   10  A    between atoms: S_23  and  C_28
                            x       y       z     vdW  Elec       q    Type
                         _______ _______ _______ _____ _____    ______ ____

>  <TORSDO>
F 10

$$$$
=
 OpenBabel11062422073D

 34 37  0  0  1  0  0  0  0  0999 V2000
  190.5540  175.6990  147.3830 C   0  0  0  0  0  3  0  0  0  0  0  0
  190.5320  174.8240  144.4050 C   0  0  0  0  0  0  0  0  0  0  0  0
  191.9240  175.2230  147.0380 C   0  0  0  0  0  2  0  0  0  0  0  0
  189.5300  174.8140  145.3010 C   0  0  0  0  0  3  0  0  0  0  0  0
  191.7840  175.5950  144.5900 C   0  0  0  0  0  3  0  0  0  0  0  0
  189.4830  175.4930  146.6150 C   0  0  0  0  0  0  0  0  0  0  0  0
  192.3960  175.8120  145.7540 C   0  0  0  0  0  3  0  0  0  0  0  0
  188.6690  174.3930  139.8510 O   0  0  0  0  0  0  0  0  0  0  0  0
  189.3490  173.9400  140.8070 C   0  0  0  0  0  0  0  0  0  0  0  0
  190.3270  174.0880  143.1380 C   0  0  0  0  0  0  0  0  0  0  0  0
  191.8930  170.4890  142.8700 C   0  0  1  0  0  3  0  0  0  0  0  0
  189.9150  172.6280  140.7150 N   0  0  0  0  0  0  0  0  0  0  0  0
  190.5890  172.1320  141.7020 C   0  0  0  0  0  0  0  0  0  0  0  0
  191.8210  171.8940  144.0660 S   0  0  0  0  0  0  0  0  0  0  0  0
  189.5720  174.7950  142.0280 C   0  0  0  0  0  2  0  0  0  0  0  0
  190.8030  172.8430  142.9400 C   0  0  0  0  0  0  0  0  0  0  0  0
  191.1810  170.8500  141.6510 N   0  0  0  0  0  2  0  0  0  0  0  0
  193.6240  170.1140  142.4700 S   0  0  0  0  0  0  0  0  0  0  0  0
  194.2400  171.5090  143.4570 C   0  0  0  0  0  2  0  0  0  0  0  0
  195.4340  172.4700  142.4840 S   0  0  0  0  0  0  0  0  0  0  0  0
  194.2250  172.8850  141.2690 N   0  0  0  0  0  1  0  0  0  0  0  0
  188.1520  175.9130  147.1390 C   0  0  0  0  0  2  0  0  0  0  0  0
  187.8670  177.2930  146.7620 N   0  0  0  0  0  2  0  0  0  0  0  0
  185.5870  178.1850  147.0950 C   0  0  0  0  0  3  0  0  0  0  0  0
  186.6080  177.7340  146.2450 C   0  0  0  0  0  0  0  0  0  0  0  0
  184.3650  178.6110  146.5660 C   0  0  0  0  0  3  0  0  0  0  0  0
  184.1600  178.5930  145.1840 C   0  0  0  0  0  3  0  0  0  0  0  0
  185.1770  178.1540  144.3310 C   0  0  0  0  0  0  0  0  0  0  0  0
  186.3970  177.7220  144.8630 C   0  0  0  0  0  3  0  0  0  0  0  0
  184.9120  178.1210  142.5620 S   0  0  0  0  0  0  0  0  0  0  0  0
  186.2840  176.9620  142.2650 C   0  0  0  0  0  2  0  0  0  0  0  0
  188.3590  178.0860  141.4650 O   0  0  0  0  0  1  0  0  0  0  0  0
  186.7930  177.3390  139.9670 O   0  0  0  0  0  0  0  0  0  0  0  0
  187.1560  177.4620  141.1660 C   0  0  0  0  0  0  0  0  0  0  0  0
  2  5  1  0  0  0  0
  2  4  2  0  0  0  0
  3  1  1  0  0  0  0
  4  6  1  0  0  0  0
  5  7  2  0  0  0  0
  6 22  1  0  0  0  0
  6  1  2  0  0  0  0
  7  3  1  0  0  0  0
  8  9  2  0  0  0  0
  9 15  1  0  0  0  0
 10  2  1  0  0  0  0
 11 18  1  6  0  0  0
 11 14  1  0  0  0  0
 12  9  1  0  0  0  0
 12 13  2  0  0  0  0
 13 16  1  0  0  0  0
 15 10  1  0  0  0  0
 16 10  2  0  0  0  0
 16 14  1  0  0  0  0
 17 13  1  0  0  0  0
 17 11  1  0  0  0  0
 18 19  1  0  0  0  0
 20 19  1  0  0  0  0
 21 20  1  0  0  0  0
 23 22  1  0  0  0  0
 25 23  1  0  0  0  0
 25 24  2  0  0  0  0
 26 24  1  0  0  0  0
 27 26  2  0  0  0  0
 28 29  2  0  0  0  0
 28 27  1  0  0  0  0
 29 25  1  0  0  0  0
 30 28  1  0  0  0  0
 31 30  1  0  0  0  0
 33 34  2  0  0  0  0
 34 32  1  0  0  0  0
 34 31  1  0  0  0  0
M  END
>  <MODEL>
3

>  <REMARK>
 VINA RESULT:      -6.8      3.261      4.577
  Name = 
  10 active torsions:
  status: ('A' for Active; 'I' for Inactive)
    1  A    between atoms: S_4  and  C_17
    2  A    between atoms: C_6  and  N_18
    3  A    between atoms: C_7  and  C_11
    4  A    between atoms: C_9  and  S_22
    5  A    between atoms: C_13  and  S_23
    6  A    between atoms: C_13  and  C_27
    7  A    between atoms: C_17  and  S_22
    8  A    between atoms: N_18  and  C_21
    9  A    between atoms: C_21  and  C_32
   10  A    between atoms: S_23  and  C_28
                            x       y       z     vdW  Elec       q    Type
                         _______ _______ _______ _____ _____    ______ ____

>  <TORSDO>
F 10

$$$$
=
 OpenBabel11062422073D

 34 37  0  0  1  0  0  0  0  0999 V2000
  191.9230  176.3710  147.1850 C   0  0  0  0  0  3  0  0  0  0  0  0
  190.2910  175.4440  144.7120 C   0  0  0  0  0  0  0  0  0  0  0  0
  190.4920  176.2740  147.5940 C   0  0  0  0  0  2  0  0  0  0  0  0
  191.4280  176.1580  144.7610 C   0  0  0  0  0  3  0  0  0  0  0  0
  189.7740  174.6560  145.8560 C   0  0  0  0  0  3  0  0  0  0  0  0
  192.3330  176.3430  145.9160 C   0  0  0  0  0  0  0  0  0  0  0  0
  189.8850  174.9910  147.1410 C   0  0  0  0  0  3  0  0  0  0  0  0
  189.4560  173.4790  140.2590 O   0  0  0  0  0  0  0  0  0  0  0  0
  189.1920  174.3200  141.1550 C   0  0  0  0  0  0  0  0  0  0  0  0
  189.5720  175.3850  143.4210 C   0  0  0  0  0  0  0  0  0  0  0  0
  186.8110  178.1110  142.7690 C   0  0  1  0  0  3  0  0  0  0  0  0
  188.1920  175.3180  140.9180 N   0  0  0  0  0  0  0  0  0  0  0  0
  187.9310  176.2140  141.8150 C   0  0  0  0  0  0  0  0  0  0  0  0
  187.9750  177.5960  144.1070 S   0  0  0  0  0  0  0  0  0  0  0  0
  189.9210  174.2540  142.4730 C   0  0  0  0  0  2  0  0  0  0  0  0
  188.6200  176.2760  143.0830 C   0  0  0  0  0  0  0  0  0  0  0  0
  186.9410  177.2050  141.6340 N   0  0  0  0  0  2  0  0  0  0  0  0
  185.1050  178.0610  143.3890 S   0  0  0  0  0  0  0  0  0  0  0  0
  185.5660  178.8480  144.9590 C   0  0  0  0  0  2  0  0  0  0  0  0
  184.3690  178.3990  146.2470 S   0  0  0  0  0  0  0  0  0  0  0  0
  185.0710  176.7920  146.4460 N   0  0  0  0  0  1  0  0  0  0  0  0
  193.7810  176.5760  145.6420 C   0  0  0  0  0  2  0  0  0  0  0  0
  194.2820  175.6010  144.6810 N   0  0  0  0  0  2  0  0  0  0  0  0
  196.1280  174.3390  145.7320 C   0  0  0  0  0  3  0  0  0  0  0  0
  194.9030  174.3650  145.0490 C   0  0  0  0  0  0  0  0  0  0  0  0
  196.7150  173.1190  146.0800 C   0  0  0  0  0  3  0  0  0  0  0  0
  196.0790  171.9200  145.7500 C   0  0  0  0  0  3  0  0  0  0  0  0
  194.8540  171.9390  145.0780 C   0  0  0  0  0  0  0  0  0  0  0  0
  194.2700  173.1610  144.7250 C   0  0  0  0  0  3  0  0  0  0  0  0
  194.0430  170.4050  144.6460 S   0  0  0  0  0  0  0  0  0  0  0  0
  192.4910  171.2280  144.1670 C   0  0  0  0  0  2  0  0  0  0  0  0
  192.6920  169.7100  142.2010 O   0  0  0  0  0  0  0  0  0  0  0  0
  190.7510  170.8690  142.5790 O   0  0  0  0  0  1  0  0  0  0  0  0
  191.9220  170.5920  142.9470 C   0  0  0  0  0  0  0  0  0  0  0  0
  1  3  1  0  0  0  0
  2  4  2  0  0  0  0
  2  5  1  0  0  0  0
  4  6  1  0  0  0  0
  5  7  2  0  0  0  0
  6  1  2  0  0  0  0
  7  3  1  0  0  0  0
  8  9  2  0  0  0  0
  9 15  1  0  0  0  0
 10  2  1  0  0  0  0
 11 18  1  1  0  0  0
 11 14  1  0  0  0  0
 12  9  1  0  0  0  0
 12 13  2  0  0  0  0
 13 16  1  0  0  0  0
 15 10  1  0  0  0  0
 16 10  2  0  0  0  0
 16 14  1  0  0  0  0
 17 13  1  0  0  0  0
 17 11  1  0  0  0  0
 18 19  1  0  0  0  0
 19 20  1  0  0  0  0
 20 21  1  0  0  0  0
 22  6  1  0  0  0  0
 23 25  1  0  0  0  0
 23 22  1  0  0  0  0
 24 26  1  0  0  0  0
 25 24  2  0  0  0  0
 27 26  2  0  0  0  0
 28 27  1  0  0  0  0
 29 25  1  0  0  0  0
 29 28  2  0  0  0  0
 30 28  1  0  0  0  0
 31 30  1  0  0  0  0
 32 34  2  0  0  0  0
 33 34  1  0  0  0  0
 34 31  1  0  0  0  0
M  END
>  <MODEL>
4

>  <REMARK>
 VINA RESULT:      -6.7      3.410      8.481
  Name = 
  10 active torsions:
  status: ('A' for Active; 'I' for Inactive)
    1  A    between atoms: S_4  and  C_17
    2  A    between atoms: C_6  and  N_18
    3  A    between atoms: C_7  and  C_11
    4  A    between atoms: C_9  and  S_22
    5  A    between atoms: C_13  and  S_23
    6  A    between atoms: C_13  and  C_27
    7  A    between atoms: C_17  and  S_22
    8  A    between atoms: N_18  and  C_21
    9  A    between atoms: C_21  and  C_32
   10  A    between atoms: S_23  and  C_28
                            x       y       z     vdW  Elec       q    Type
                         _______ _______ _______ _____ _____    ______ ____

>  <TORSDO>
F 10

$$$$
=
 OpenBabel11062422073D

 34 37  0  0  1  0  0  0  0  0999 V2000
  187.4340  177.9020  147.4520 C   0  0  0  0  0  3  0  0  0  0  0  0
  186.9720  176.9710  144.5270 C   0  0  0  0  0  0  0  0  0  0  0  0
  186.0650  178.3340  147.0480 C   0  0  0  0  0  2  0  0  0  0  0  0
  188.1200  177.3030  145.1410 C   0  0  0  0  0  3  0  0  0  0  0  0
  185.7190  176.6560  145.2540 C   0  0  0  0  0  3  0  0  0  0  0  0
  188.3560  177.4650  146.5930 C   0  0  0  0  0  0  0  0  0  0  0  0
  185.3190  177.2240  146.3910 C   0  0  0  0  0  3  0  0  0  0  0  0
  185.5140  178.2910  139.9960 O   0  0  0  0  0  0  0  0  0  0  0  0
  186.2110  177.5760  140.7610 C   0  0  0  0  0  0  0  0  0  0  0  0
  186.9950  176.8390  143.0540 C   0  0  0  0  0  0  0  0  0  0  0  0
  189.2580  174.0040  141.5330 C   0  0  1  0  0  3  0  0  0  0  0  0
  187.0310  176.5380  140.2110 N   0  0  0  0  0  0  0  0  0  0  0  0
  187.7280  175.7700  140.9860 C   0  0  0  0  0  0  0  0  0  0  0  0
  188.8360  174.7170  143.1830 S   0  0  0  0  0  0  0  0  0  0  0  0
  186.1850  177.8360  142.2460 C   0  0  0  0  0  2  0  0  0  0  0  0
  187.7200  175.8940  142.4240 C   0  0  0  0  0  0  0  0  0  0  0  0
  188.5640  174.7470  140.4880 N   0  0  0  0  0  2  0  0  0  0  0  0
  191.0500  174.1100  141.2610 S   0  0  0  0  0  0  0  0  0  0  0  0
  191.3150  172.3920  141.7880 C   0  0  0  0  0  2  0  0  0  0  0  0
  192.4650  172.3500  143.1910 S   0  0  0  0  0  0  0  0  0  0  0  0
  191.1580  172.1150  144.3530 N   0  0  0  0  0  1  0  0  0  0  0  0
  189.7250  177.1850  147.1150 C   0  0  0  0  0  2  0  0  0  0  0  0
  190.3870  176.1750  146.2970 N   0  0  0  0  0  2  0  0  0  0  0  0
  192.7760  176.3940  146.8890 C   0  0  0  0  0  3  0  0  0  0  0  0
  191.7680  176.2290  145.9270 C   0  0  0  0  0  0  0  0  0  0  0  0
  194.1180  176.4440  146.5020 C   0  0  0  0  0  3  0  0  0  0  0  0
  194.4600  176.3250  145.1530 C   0  0  0  0  0  3  0  0  0  0  0  0
  193.4610  176.1510  144.1900 C   0  0  0  0  0  0  0  0  0  0  0  0
  192.1170  176.1070  144.5780 C   0  0  0  0  0  3  0  0  0  0  0  0
  193.8960  176.0090  142.4610 S   0  0  0  0  0  0  0  0  0  0  0  0
  195.6060  175.4960  142.8170 C   0  0  0  0  0  2  0  0  0  0  0  0
  197.5010  177.0820  143.1390 O   0  0  0  0  0  1  0  0  0  0  0  0
  196.5270  176.8410  141.0780 O   0  0  0  0  0  0  0  0  0  0  0  0
  196.5690  176.5010  142.2900 C   0  0  0  0  0  0  0  0  0  0  0  0
  2  4  2  0  0  0  0
  2  5  1  0  0  0  0
  3  1  1  0  0  0  0
  4  6  1  0  0  0  0
  5  7  2  0  0  0  0
  6 22  1  0  0  0  0
  6  1  2  0  0  0  0
  7  3  1  0  0  0  0
  8  9  2  0  0  0  0
  9 15  1  0  0  0  0
 10  2  1  0  0  0  0
 11 18  1  6  0  0  0
 11 14  1  0  0  0  0
 12  9  1  0  0  0  0
 12 13  2  0  0  0  0
 13 16  1  0  0  0  0
 15 10  1  0  0  0  0
 16 10  2  0  0  0  0
 16 14  1  0  0  0  0
 17 13  1  0  0  0  0
 17 11  1  0  0  0  0
 18 19  1  0  0  0  0
 19 20  1  0  0  0  0
 20 21  1  0  0  0  0
 23 22  1  0  0  0  0
 25 23  1  0  0  0  0
 25 24  2  0  0  0  0
 26 24  1  0  0  0  0
 27 26  2  0  0  0  0
 28 29  2  0  0  0  0
 28 27  1  0  0  0  0
 29 25  1  0  0  0  0
 30 31  1  0  0  0  0
 30 28  1  0  0  0  0
 33 34  2  0  0  0  0
 34 31  1  0  0  0  0
 34 32  1  0  0  0  0
M  END
>  <MODEL>
5

>  <REMARK>
 VINA RESULT:      -6.7      3.566      7.845
  Name = 
  10 active torsions:
  status: ('A' for Active; 'I' for Inactive)
    1  A    between atoms: S_4  and  C_17
    2  A    between atoms: C_6  and  N_18
    3  A    between atoms: C_7  and  C_11
    4  A    between atoms: C_9  and  S_22
    5  A    between atoms: C_13  and  S_23
    6  A    between atoms: C_13  and  C_27
    7  A    between atoms: C_17  and  S_22
    8  A    between atoms: N_18  and  C_21
    9  A    between atoms: C_21  and  C_32
   10  A    between atoms: S_23  and  C_28
                            x       y       z     vdW  Elec       q    Type
                         _______ _______ _______ _____ _____    ______ ____

>  <TORSDO>
F 10

$$$$
=
 OpenBabel11062422073D

 34 37  0  0  1  0  0  0  0  0999 V2000
  190.5430  176.3300  147.2650 C   0  0  0  0  0  3  0  0  0  0  0  0
  191.3000  174.4920  144.8800 C   0  0  0  0  0  0  0  0  0  0  0  0
  192.0300  176.2280  147.2230 C   0  0  0  0  0  2  0  0  0  0  0  0
  190.1930  174.4820  145.6430 C   0  0  0  0  0  3  0  0  0  0  0  0
  192.2400  175.6370  144.8230 C   0  0  0  0  0  3  0  0  0  0  0  0
  189.7260  175.5310  146.5760 C   0  0  0  0  0  0  0  0  0  0  0  0
  192.5490  176.4380  145.8420 C   0  0  0  0  0  3  0  0  0  0  0  0
  193.2660  170.0650  143.9130 O   0  0  0  0  0  0  0  0  0  0  0  0
  192.5660  171.0540  143.5750 C   0  0  0  0  0  0  0  0  0  0  0  0
  191.5360  173.3290  143.9980 C   0  0  0  0  0  0  0  0  0  0  0  0
  189.9880  173.4650  140.3840 C   0  0  1  0  0  3  0  0  0  0  0  0
  192.0060  171.1100  142.2580 N   0  0  0  0  0  0  0  0  0  0  0  0
  191.3120  172.1350  141.8800 C   0  0  0  0  0  0  0  0  0  0  0  0
  190.0280  174.4830  141.9230 S   0  0  0  0  0  0  0  0  0  0  0  0
  192.3120  172.1580  144.5700 C   0  0  0  0  0  2  0  0  0  0  0  0
  191.0680  173.2730  142.7350 C   0  0  0  0  0  0  0  0  0  0  0  0
  190.7260  172.2260  140.5990 N   0  0  0  0  0  2  0  0  0  0  0  0
  188.2680  173.0750  139.9520 S   0  0  0  0  0  0  0  0  0  0  0  0
  188.2830  174.2030  138.5290 C   0  0  0  0  0  2  0  0  0  0  0  0
  189.3530  173.5320  137.2250 S   0  0  0  0  0  0  0  0  0  0  0  0
  188.9030  174.8100  136.0940 N   0  0  0  0  0  1  0  0  0  0  0  0
  188.2590  175.6600  146.8070 C   0  0  0  0  0  2  0  0  0  0  0  0
  187.8680  177.0650  146.8390 N   0  0  0  0  0  2  0  0  0  0  0  0
  185.6660  178.1460  147.1320 C   0  0  0  0  0  3  0  0  0  0  0  0
  186.6370  177.5620  146.3050 C   0  0  0  0  0  0  0  0  0  0  0  0
  184.4710  178.6240  146.5870 C   0  0  0  0  0  3  0  0  0  0  0  0
  184.2430  178.5250  145.2120 C   0  0  0  0  0  3  0  0  0  0  0  0
  185.2110  177.9530  144.3810 C   0  0  0  0  0  0  0  0  0  0  0  0
  186.4040  177.4690  144.9290 C   0  0  0  0  0  3  0  0  0  0  0  0
  184.9160  177.8160  142.6230 S   0  0  0  0  0  0  0  0  0  0  0  0
  186.3840  176.7770  142.3430 C   0  0  0  0  0  2  0  0  0  0  0  0
  186.8030  177.2180  139.9260 O   0  0  0  0  0  0  0  0  0  0  0  0
  188.3070  177.9130  141.5100 O   0  0  0  0  0  1  0  0  0  0  0  0
  187.2170  177.3420  141.2450 C   0  0  0  0  0  0  0  0  0  0  0  0
  2  4  2  0  0  0  0
  3  1  1  0  0  0  0
  4  6  1  0  0  0  0
  5  2  1  0  0  0  0
  5  7  2  0  0  0  0
  6 22  1  0  0  0  0
  6  1  2  0  0  0  0
  7  3  1  0  0  0  0
  9  8  2  0  0  0  0
  9 15  1  0  0  0  0
 10 15  1  0  0  0  0
 10  2  1  0  0  0  0
 11 18  1  1  0  0  0
 11 17  1  0  0  0  0
 11 14  1  0  0  0  0
 12  9  1  0  0  0  0
 13 12  2  0  0  0  0
 13 16  1  0  0  0  0
 14 16  1  0  0  0  0
 16 10  2  0  0  0  0
 17 13  1  0  0  0  0
 19 18  1  0  0  0  0
 20 19  1  0  0  0  0
 21 20  1  0  0  0  0
 22 23  1  0  0  0  0
 25 23  1  0  0  0  0
 25 24  2  0  0  0  0
 26 24  1  0  0  0  0
 27 26  2  0  0  0  0
 28 29  2  0  0  0  0
 28 27  1  0  0  0  0
 29 25  1  0  0  0  0
 30 28  1  0  0  0  0
 31 30  1  0  0  0  0
 32 34  2  0  0  0  0
 34 33  1  0  0  0  0
 34 31  1  0  0  0  0
M  END
>  <MODEL>
6

>  <REMARK>
 VINA RESULT:      -6.7      3.591      5.007
  Name = 
  10 active torsions:
  status: ('A' for Active; 'I' for Inactive)
    1  A    between atoms: S_4  and  C_17
    2  A    between atoms: C_6  and  N_18
    3  A    between atoms: C_7  and  C_11
    4  A    between atoms: C_9  and  S_22
    5  A    between atoms: C_13  and  S_23
    6  A    between atoms: C_13  and  C_27
    7  A    between atoms: C_17  and  S_22
    8  A    between atoms: N_18  and  C_21
    9  A    between atoms: C_21  and  C_32
   10  A    between atoms: S_23  and  C_28
                            x       y       z     vdW  Elec       q    Type
                         _______ _______ _______ _____ _____    ______ ____

>  <TORSDO>
F 10

$$$$
=
 OpenBabel11062422073D

 34 37  0  0  1  0  0  0  0  0999 V2000
  191.8780  176.3530  147.2430 C   0  0  0  0  0  3  0  0  0  0  0  0
  190.2570  175.3080  144.8110 C   0  0  0  0  0  0  0  0  0  0  0  0
  190.4400  176.3190  147.6360 C   0  0  0  0  0  2  0  0  0  0  0  0
  191.4120  175.9960  144.8300 C   0  0  0  0  0  3  0  0  0  0  0  0
  189.7040  174.6100  145.9960 C   0  0  0  0  0  3  0  0  0  0  0  0
  192.3060  176.2320  145.9850 C   0  0  0  0  0  0  0  0  0  0  0  0
  189.8060  175.0240  147.2580 C   0  0  0  0  0  3  0  0  0  0  0  0
  189.3470  173.0120  140.5340 O   0  0  0  0  0  0  0  0  0  0  0  0
  189.1310  173.9480  141.3460 C   0  0  0  0  0  0  0  0  0  0  0  0
  189.5540  175.1840  143.5150 C   0  0  0  0  0  0  0  0  0  0  0  0
  187.0060  178.0270  142.5660 C   0  0  1  0  0  3  0  0  0  0  0  0
  188.2090  174.9880  141.0000 N   0  0  0  0  0  0  0  0  0  0  0  0
  188.0000  175.9770  141.8080 C   0  0  0  0  0  0  0  0  0  0  0  0
  188.1110  177.5540  143.9680 S   0  0  0  0  0  0  0  0  0  0  0  0
  189.8350  173.9490  142.6790 C   0  0  0  0  0  2  0  0  0  0  0  0
  188.6730  176.1060  143.0790 C   0  0  0  0  0  0  0  0  0  0  0  0
  187.0870  177.0150  141.5190 N   0  0  0  0  0  2  0  0  0  0  0  0
  185.2920  178.1530  143.1520 S   0  0  0  0  0  0  0  0  0  0  0  0
  185.8030  178.8630  144.7440 C   0  0  0  0  0  2  0  0  0  0  0  0
  184.4710  178.6650  145.9610 S   0  0  0  0  0  0  0  0  0  0  0  0
  185.5910  178.7830  147.3190 N   0  0  0  0  0  1  0  0  0  0  0  0
  193.7620  176.4100  145.7190 C   0  0  0  0  0  2  0  0  0  0  0  0
  194.2290  175.4220  144.7530 N   0  0  0  0  0  2  0  0  0  0  0  0
  196.1700  174.3970  145.8880 C   0  0  0  0  0  3  0  0  0  0  0  0
  195.0150  174.2780  145.1000 C   0  0  0  0  0  0  0  0  0  0  0  0
  196.9220  173.2650  146.2140 C   0  0  0  0  0  3  0  0  0  0  0  0
  196.5210  172.0070  145.7570 C   0  0  0  0  0  3  0  0  0  0  0  0
  195.3660  171.8800  144.9790 C   0  0  0  0  0  0  0  0  0  0  0  0
  194.6180  173.0160  144.6490 C   0  0  0  0  0  3  0  0  0  0  0  0
  194.8570  170.2720  144.3850 S   0  0  0  0  0  0  0  0  0  0  0  0
  195.8330  169.3760  145.6330 C   0  0  0  0  0  2  0  0  0  0  0  0
  195.2920  168.5690  147.9280 O   0  0  0  0  0  1  0  0  0  0  0  0
  193.8560  168.1660  146.1880 O   0  0  0  0  0  0  0  0  0  0  0  0
  194.9330  168.6780  146.5920 C   0  0  0  0  0  0  0  0  0  0  0  0
  1  3  1  0  0  0  0
  2  4  2  0  0  0  0
  2  5  1  0  0  0  0
  4  6  1  0  0  0  0
  5  7  2  0  0  0  0
  6  1  2  0  0  0  0
  7  3  1  0  0  0  0
  8  9  2  0  0  0  0
  9 15  1  0  0  0  0
 10  2  1  0  0  0  0
 11 18  1  1  0  0  0
 11 14  1  0  0  0  0
 12  9  1  0  0  0  0
 12 13  2  0  0  0  0
 13 16  1  0  0  0  0
 15 10  1  0  0  0  0
 16 10  2  0  0  0  0
 16 14  1  0  0  0  0
 17 13  1  0  0  0  0
 17 11  1  0  0  0  0
 18 19  1  0  0  0  0
 19 20  1  0  0  0  0
 20 21  1  0  0  0  0
 22  6  1  0  0  0  0
 23 25  1  0  0  0  0
 23 22  1  0  0  0  0
 24 26  1  0  0  0  0
 25 24  2  0  0  0  0
 27 26  2  0  0  0  0
 28 27  1  0  0  0  0
 29 28  2  0  0  0  0
 29 25  1  0  0  0  0
 30 28  1  0  0  0  0
 30 31  1  0  0  0  0
 31 34  1  0  0  0  0
 33 34  2  0  0  0  0
 34 32  1  0  0  0  0
M  END
>  <MODEL>
7

>  <REMARK>
 VINA RESULT:      -6.7      3.479      8.945
  Name = 
  10 active torsions:
  status: ('A' for Active; 'I' for Inactive)
    1  A    between atoms: S_4  and  C_17
    2  A    between atoms: C_6  and  N_18
    3  A    between atoms: C_7  and  C_11
    4  A    between atoms: C_9  and  S_22
    5  A    between atoms: C_13  and  S_23
    6  A    between atoms: C_13  and  C_27
    7  A    between atoms: C_17  and  S_22
    8  A    between atoms: N_18  and  C_21
    9  A    between atoms: C_21  and  C_32
   10  A    between atoms: S_23  and  C_28
                            x       y       z     vdW  Elec       q    Type
                         _______ _______ _______ _____ _____    ______ ____

>  <TORSDO>
F 10

$$$$
=
 OpenBabel11062422073D

 34 37  0  0  1  0  0  0  0  0999 V2000
  189.3060  175.2120  145.9630 C   0  0  0  0  0  3  0  0  0  0  0  0
  192.3390  174.6220  145.6620 C   0  0  0  0  0  0  0  0  0  0  0  0
  189.8490  174.9150  147.3200 C   0  0  0  0  0  2  0  0  0  0  0  0
  191.3430  174.4240  144.7810 C   0  0  0  0  0  3  0  0  0  0  0  0
  192.2140  175.4990  146.8510 C   0  0  0  0  0  3  0  0  0  0  0  0
  189.9680  174.9680  144.8310 C   0  0  0  0  0  0  0  0  0  0  0  0
  191.1090  175.6690  147.5760 C   0  0  0  0  0  3  0  0  0  0  0  0
  195.4920  170.8240  145.8370 O   0  0  0  0  0  0  0  0  0  0  0  0
  195.2050  171.9990  145.4920 C   0  0  0  0  0  0  0  0  0  0  0  0
  193.6450  173.9910  145.3750 C   0  0  0  0  0  0  0  0  0  0  0  0
  196.3540  176.1960  143.5650 C   0  0  1  0  0  3  0  0  0  0  0  0
  196.1910  172.8070  144.8390 N   0  0  0  0  0  0  0  0  0  0  0  0
  195.9260  174.0300  144.5070 C   0  0  0  0  0  0  0  0  0  0  0  0
  194.6030  176.3260  144.1350 S   0  0  0  0  0  0  0  0  0  0  0  0
  193.8200  172.5320  145.7550 C   0  0  0  0  0  2  0  0  0  0  0  0
  194.6520  174.6550  144.7750 C   0  0  0  0  0  0  0  0  0  0  0  0
  196.8600  174.8580  143.8460 N   0  0  0  0  0  2  0  0  0  0  0  0
  196.4420  176.5130  141.7800 S   0  0  0  0  0  0  0  0  0  0  0  0
  194.6790  176.1470  141.5450 C   0  0  0  0  0  2  0  0  0  0  0  0
  194.4900  174.5900  140.6310 S   0  0  0  0  0  0  0  0  0  0  0  0
  193.0500  174.1400  141.5460 N   0  0  0  0  0  1  0  0  0  0  0  0
  189.2580  175.1970  143.5400 C   0  0  0  0  0  2  0  0  0  0  0  0
  189.0500  176.6230  143.3170 N   0  0  0  0  0  2  0  0  0  0  0  0
  187.2760  177.0500  141.6510 C   0  0  0  0  0  3  0  0  0  0  0  0
  187.7930  177.1970  142.9470 C   0  0  0  0  0  0  0  0  0  0  0  0
  186.0460  177.6200  141.3130 C   0  0  0  0  0  3  0  0  0  0  0  0
  185.3230  178.3370  142.2700 C   0  0  0  0  0  3  0  0  0  0  0  0
  185.8280  178.4790  143.5670 C   0  0  0  0  0  0  0  0  0  0  0  0
  187.0630  177.9120  143.9010 C   0  0  0  0  0  3  0  0  0  0  0  0
  184.9090  179.4040  144.7910 S   0  0  0  0  0  0  0  0  0  0  0  0
  184.7690  177.9860  145.9220 C   0  0  0  0  0  2  0  0  0  0  0  0
  185.8670  179.4220  147.6380 O   0  0  0  0  0  1  0  0  0  0  0  0
  186.2920  177.1700  147.5650 O   0  0  0  0  0  0  0  0  0  0  0  0
  185.6780  178.1610  147.0890 C   0  0  0  0  0  0  0  0  0  0  0  0
  1  3  1  0  0  0  0
  2  5  1  0  0  0  0
  3  7  1  0  0  0  0
  4  6  1  0  0  0  0
  4  2  2  0  0  0  0
  5  7  2  0  0  0  0
  6  1  2  0  0  0  0
  9 15  1  0  0  0  0
  9  8  2  0  0  0  0
 10  2  1  0  0  0  0
 10 15  1  0  0  0  0
 11 18  1  6  0  0  0
 11 17  1  0  0  0  0
 11 14  1  0  0  0  0
 12  9  1  0  0  0  0
 13 16  1  0  0  0  0
 13 12  2  0  0  0  0
 14 16  1  0  0  0  0
 16 10  2  0  0  0  0
 17 13  1  0  0  0  0
 19 18  1  0  0  0  0
 20 19  1  0  0  0  0
 20 21  1  0  0  0  0
 22  6  1  0  0  0  0
 23 22  1  0  0  0  0
 24 25  1  0  0  0  0
 25 23  1  0  0  0  0
 25 29  2  0  0  0  0
 26 24  2  0  0  0  0
 26 27  1  0  0  0  0
 27 28  2  0  0  0  0
 28 29  1  0  0  0  0
 28 30  1  0  0  0  0
 30 31  1  0  0  0  0
 31 34  1  0  0  0  0
 34 33  2  0  0  0  0
 34 32  1  0  0  0  0
M  END
>  <MODEL>
8

>  <REMARK>
 VINA RESULT:      -6.7      1.588      1.832
  Name = 
  10 active torsions:
  status: ('A' for Active; 'I' for Inactive)
    1  A    between atoms: S_4  and  C_17
    2  A    between atoms: C_6  and  N_18
    3  A    between atoms: C_7  and  C_11
    4  A    between atoms: C_9  and  S_22
    5  A    between atoms: C_13  and  S_23
    6  A    between atoms: C_13  and  C_27
    7  A    between atoms: C_17  and  S_22
    8  A    between atoms: N_18  and  C_21
    9  A    between atoms: C_21  and  C_32
   10  A    between atoms: S_23  and  C_28
                            x       y       z     vdW  Elec       q    Type
                         _______ _______ _______ _____ _____    ______ ____

>  <TORSDO>
F 10

$$$$
=
 OpenBabel11062422073D

 34 37  0  0  1  0  0  0  0  0999 V2000
  191.8920  176.3720  146.9290 C   0  0  0  0  0  3  0  0  0  0  0  0
  190.1420  175.5380  144.5040 C   0  0  0  0  0  0  0  0  0  0  0  0
  190.4950  176.1930  147.4160 C   0  0  0  0  0  2  0  0  0  0  0  0
  191.2540  176.2920  144.5300 C   0  0  0  0  0  3  0  0  0  0  0  0
  189.7260  174.6600  145.6240 C   0  0  0  0  0  3  0  0  0  0  0  0
  192.2230  176.4400  145.6380 C   0  0  0  0  0  0  0  0  0  0  0  0
  189.9060  174.9170  146.9190 C   0  0  0  0  0  3  0  0  0  0  0  0
  189.0000  173.7240  140.0540 O   0  0  0  0  0  0  0  0  0  0  0  0
  188.8080  174.5430  140.9890 C   0  0  0  0  0  0  0  0  0  0  0  0
  189.3450  175.5310  143.2580 C   0  0  0  0  0  0  0  0  0  0  0  0
  186.6050  178.3250  142.8560 C   0  0  1  0  0  3  0  0  0  0  0  0
  187.8150  175.5650  140.8430 N   0  0  0  0  0  0  0  0  0  0  0  0
  187.6270  176.4380  141.7800 C   0  0  0  0  0  0  0  0  0  0  0  0
  187.8370  177.7490  144.1040 S   0  0  0  0  0  0  0  0  0  0  0  0
  189.6130  174.4230  142.2580 C   0  0  0  0  0  2  0  0  0  0  0  0
  188.3920  176.4500  143.0050 C   0  0  0  0  0  0  0  0  0  0  0  0
  186.6480  177.4520  141.6890 N   0  0  0  0  0  2  0  0  0  0  0  0
  184.9390  178.2870  143.5770 S   0  0  0  0  0  0  0  0  0  0  0  0
  185.5200  178.9640  145.1590 C   0  0  0  0  0  2  0  0  0  0  0  0
  184.4450  178.3890  146.5050 S   0  0  0  0  0  0  0  0  0  0  0  0
  185.1860  176.7880  146.5150 N   0  0  0  0  0  1  0  0  0  0  0  0
  193.6410  176.7470  145.2920 C   0  0  0  0  0  2  0  0  0  0  0  0
  194.5470  175.8870  146.0430 N   0  0  0  0  0  2  0  0  0  0  0  0
  196.2100  174.0610  146.1220 C   0  0  0  0  0  3  0  0  0  0  0  0
  195.6080  175.1340  145.4470 C   0  0  0  0  0  0  0  0  0  0  0  0
  197.2450  173.3400  145.5180 C   0  0  0  0  0  3  0  0  0  0  0  0
  197.6810  173.6860  144.2370 C   0  0  0  0  0  3  0  0  0  0  0  0
  197.0790  174.7490  143.5560 C   0  0  0  0  0  0  0  0  0  0  0  0
  196.0470  175.4720  144.1630 C   0  0  0  0  0  3  0  0  0  0  0  0
  197.6420  175.1990  141.9190 S   0  0  0  0  0  0  0  0  0  0  0  0
  196.1750  174.5010  141.0990 C   0  0  0  0  0  2  0  0  0  0  0  0
  194.8740  175.3080  139.1330 O   0  0  0  0  0  0  0  0  0  0  0  0
  195.3130  176.7130  140.8900 O   0  0  0  0  0  1  0  0  0  0  0  0
  195.4270  175.5680  140.3790 C   0  0  0  0  0  0  0  0  0  0  0  0
  1  3  1  0  0  0  0
  2  4  2  0  0  0  0
  2  5  1  0  0  0  0
  4  6  1  0  0  0  0
  5  7  2  0  0  0  0
  6  1  2  0  0  0  0
  7  3  1  0  0  0  0
  8  9  2  0  0  0  0
  9 15  1  0  0  0  0
 10  2  1  0  0  0  0
 11 18  1  1  0  0  0
 11 14  1  0  0  0  0
 12  9  1  0  0  0  0
 12 13  2  0  0  0  0
 13 16  1  0  0  0  0
 15 10  1  0  0  0  0
 16 10  2  0  0  0  0
 16 14  1  0  0  0  0
 17 13  1  0  0  0  0
 17 11  1  0  0  0  0
 18 19  1  0  0  0  0
 19 20  1  0  0  0  0
 20 21  1  0  0  0  0
 22  6  1  0  0  0  0
 22 23  1  0  0  0  0
 25 23  1  0  0  0  0
 25 24  2  0  0  0  0
 26 24  1  0  0  0  0
 27 26  2  0  0  0  0
 28 29  2  0  0  0  0
 28 27  1  0  0  0  0
 29 25  1  0  0  0  0
 30 28  1  0  0  0  0
 31 30  1  0  0  0  0
 32 34  2  0  0  0  0
 34 33  1  0  0  0  0
 34 31  1  0  0  0  0
M  END
>  <MODEL>
9

>  <REMARK>
 VINA RESULT:      -6.7      3.386      8.934
  Name = 
  10 active torsions:
  status: ('A' for Active; 'I' for Inactive)
    1  A    between atoms: S_4  and  C_17
    2  A    between atoms: C_6  and  N_18
    3  A    between atoms: C_7  and  C_11
    4  A    between atoms: C_9  and  S_22
    5  A    between atoms: C_13  and  S_23
    6  A    between atoms: C_13  and  C_27
    7  A    between atoms: C_17  and  S_22
    8  A    between atoms: N_18  and  C_21
    9  A    between atoms: C_21  and  C_32
   10  A    between atoms: S_23  and  C_28
                            x       y       z     vdW  Elec       q    Type
                         _______ _______ _______ _____ _____    ______ ____

>  <TORSDO>
F 10

$$$$
