=
 OpenBabel11062421543D

 37 39  0  0  1  0  0  0  0  0999 V2000
  188.8070  172.7380  139.3970 N   0  0  0  0  0  0  0  0  0  0  0  0
  188.0210  172.5770  140.4240 C   0  0  0  0  0  3  0  0  0  0  0  0
  188.9240  172.5170  142.7110 C   0  0  0  0  0  2  0  0  0  0  0  0
  188.2080  173.1400  141.7790 C   0  0  0  0  0  0  0  0  0  0  0  0
  189.4690  175.7870  142.1100 O   0  0  0  0  0  0  0  0  0  0  0  0
  188.2420  175.6360  142.3580 C   0  0  0  0  0  0  0  0  0  0  0  0
  187.5790  174.3990  142.0620 N   0  0  0  0  0  2  0  0  0  0  0  0
  187.4490  176.7550  142.9700 C   0  0  2  0  0  3  0  0  0  0  0  0
  185.8290  176.6170  144.9140 C   0  0  0  0  0  2  0  0  0  0  0  0
  187.3050  176.6570  144.4910 C   0  0  0  0  0  3  0  0  0  0  0  0
  185.6060  177.0280  146.3760 C   0  0  0  0  0  2  0  0  0  0  0  0
  186.8210  176.7090  147.2400 C   0  0  0  0  0  2  0  0  0  0  0  0
  188.0620  177.4780  146.7660 C   0  0  0  0  0  2  0  0  0  0  0  0
  188.0950  177.7270  145.2520 C   0  0  0  0  0  2  0  0  0  0  0  0
  186.3070  177.6400  140.9470 C   0  0  0  0  0  0  0  0  0  0  0  0
  184.2410  178.4500  142.0380 C   0  0  0  0  0  1  0  0  0  0  0  0
  186.6620  177.6640  139.7820 O   0  0  0  0  0  0  0  0  0  0  0  0
  185.7400  178.3060  142.1990 C   0  0  1  0  0  3  0  0  0  0  0  0
  186.0990  176.9230  142.2820 C   0  0  2  0  0  3  0  0  0  0  0  0
  190.0700  173.4620  139.3900 C   0  0  0  0  0  2  0  0  0  0  0  0
  192.4500  172.8560  140.0610 N   0  0  0  0  0  2  0  0  0  0  0  0
  191.0700  171.3500  138.9490 O   0  0  0  0  0  0  0  0  0  0  0  0
  191.2040  172.4940  139.4550 C   0  0  0  0  0  0  0  0  0  0  0  0
  192.6620  174.1110  140.7680 C   0  0  0  0  0  2  0  0  0  0  0  0
  192.3280  173.9540  142.2410 C   0  0  0  0  0  2  0  0  0  0  0  0
  193.0220  175.3010  143.1780 S   0  0  0  0  0  0  0  0  0  0  0  0
  194.4870  175.0440  143.4080 O   0  0  0  0  0  0  0  0  0  0  0  0
  192.8480  176.5750  142.4000 O   0  0  0  0  0  0  0  0  0  0  0  0
  190.9260  175.5720  147.2210 C   0  0  0  0  0  3  0  0  0  0  0  0
  192.6990  176.3090  145.7280 C   0  0  0  0  0  0  0  0  0  0  0  0
  190.4470  174.7100  146.2340 C   0  0  0  0  0  0  0  0  0  0  0  0
  192.2120  175.4370  144.7360 C   0  0  0  0  0  0  0  0  0  0  0  0
  189.3080  173.8960  146.4880 N   0  0  0  0  0  1  0  0  0  0  0  0
  191.0870  174.6440  144.9960 C   0  0  0  0  0  3  0  0  0  0  0  0
  192.0460  176.3690  146.9710 C   0  0  0  0  0  3  0  0  0  0  0  0
  194.7090  177.5440  146.4860 C   0  0  0  0  0  1  0  0  0  0  0  0
  193.8220  177.1030  145.4660 O   0  0  0  0  0  0  0  0  0  0  0  0
  1  2  2  0  0  0  0
  2  4  1  0  0  0  0
  4  7  1  0  0  0  0
  4  3  2  0  0  0  0
  5  6  2  0  0  0  0
  7  6  1  0  0  0  0
  8  6  1  6  0  0  0
  8 10  1  0  0  0  0
  9 11  1  0  0  0  0
 10  9  1  0  0  0  0
 10 14  1  0  0  0  0
 11 12  1  0  0  0  0
 13 12  1  0  0  0  0
 14 13  1  0  0  0  0
 15 18  1  0  0  0  0
 15 19  1  0  0  0  0
 17 15  2  0  0  0  0
 18 16  1  6  0  0  0
 18 19  1  0  0  0  0
 19  8  1  1  0  0  0
 20  1  1  0  0  0  0
 20 23  1  0  0  0  0
 21 24  1  0  0  0  0
 22 23  2  0  0  0  0
 23 21  1  0  0  0  0
 24 25  1  0  0  0  0
 25 26  1  0  0  0  0
 26 27  2  0  0  0  0
 26 32  1  0  0  0  0
 28 26  2  0  0  0  0
 30 35  2  0  0  0  0
 31 33  1  0  0  0  0
 31 29  2  0  0  0  0
 32 34  2  0  0  0  0
 32 30  1  0  0  0  0
 34 31  1  0  0  0  0
 35 29  1  0  0  0  0
 37 30  1  0  0  0  0
 37 36  1  0  0  0  0
M  END
>  <MODEL>
1

>  <REMARK>
 VINA RESULT:      -6.5      0.000      0.000
  Name = 
  12 active torsions:
  status: ('A' for Active; 'I' for Inactive)
    1  A    between atoms: N_1  and  C_16
    2  A    between atoms: C_5  and  O_34
    3  A    between atoms: C_6  and  C_17
    4  A    between atoms: N_13  and  C_36
    5  A    between atoms: C_15  and  C_17
    6  A    between atoms: C_16  and  C_32
    7  A    between atoms: C_17  and  C_35
    8  A    between atoms: C_19  and  S_20
    9  A    between atoms: S_20  and  C_27
   10  A    between atoms: C_21  and  N_23
   11  A    between atoms: C_21  and  C_28
   12  A    between atoms: C_27  and  C_36
                            x       y       z     vdW  Elec       q    Type
                         _______ _______ _______ _____ _____    ______ ____

>  <TORSDO>
F 12

$$$$
=
 OpenBabel11062421543D

 37 39  0  0  1  0  0  0  0  0999 V2000
  191.2640  173.9650  142.6970 N   0  0  0  0  0  0  0  0  0  0  0  0
  190.6590  174.8740  141.9860 C   0  0  0  0  0  3  0  0  0  0  0  0
  188.5020  174.7010  140.8160 C   0  0  0  0  0  2  0  0  0  0  0  0
  189.1990  175.0900  141.8810 C   0  0  0  0  0  0  0  0  0  0  0  0
  189.1020  177.9740  142.4990 O   0  0  0  0  0  0  0  0  0  0  0  0
  188.6480  177.1340  143.3230 C   0  0  0  0  0  0  0  0  0  0  0  0
  188.5490  175.7460  142.9800 N   0  0  0  0  0  2  0  0  0  0  0  0
  188.1990  177.5780  144.6860 C   0  0  2  0  0  3  0  0  0  0  0  0
  190.4800  177.0540  145.6580 C   0  0  0  0  0  2  0  0  0  0  0  0
  188.9610  176.9170  145.8380 C   0  0  0  0  0  3  0  0  0  0  0  0
  191.2810  176.0160  146.4570 C   0  0  0  0  0  2  0  0  0  0  0  0
  190.5380  175.5810  147.7160 C   0  0  0  0  0  2  0  0  0  0  0  0
  189.1990  174.9140  147.3720 C   0  0  0  0  0  2  0  0  0  0  0  0
  188.5390  175.4680  146.1030 C   0  0  0  0  0  2  0  0  0  0  0  0
  186.0490  178.8230  144.7470 C   0  0  0  0  0  0  0  0  0  0  0  0
  184.9200  177.4860  146.4950 C   0  0  0  0  0  1  0  0  0  0  0  0
  185.6740  179.7920  144.1100 O   0  0  0  0  0  0  0  0  0  0  0  0
  186.2490  178.0650  146.0580 C   0  0  1  0  0  3  0  0  0  0  0  0
  186.6900  177.4380  144.8490 C   0  0  2  0  0  3  0  0  0  0  0  0
  190.6200  172.9300  143.4930 C   0  0  0  0  0  2  0  0  0  0  0  0
  191.8140  170.7120  143.1220 N   0  0  0  0  0  2  0  0  0  0  0  0
  189.9200  171.3000  141.9090 O   0  0  0  0  0  0  0  0  0  0  0  0
  190.7480  171.6130  142.8020 C   0  0  0  0  0  0  0  0  0  0  0  0
  192.7520  170.9380  144.2130 C   0  0  0  0  0  2  0  0  0  0  0  0
  194.0300  171.5710  143.6930 C   0  0  0  0  0  2  0  0  0  0  0  0
  194.5490  172.8910  144.7720 S   0  0  0  0  0  0  0  0  0  0  0  0
  193.3700  173.3700  145.5740 O   0  0  0  0  0  0  0  0  0  0  0  0
  195.6130  172.3710  145.6980 O   0  0  0  0  0  0  0  0  0  0  0  0
  196.1330  176.3600  142.2690 C   0  0  0  0  0  3  0  0  0  0  0  0
  195.4800  175.4670  144.4350 C   0  0  0  0  0  0  0  0  0  0  0  0
  195.8380  175.1340  141.6700 C   0  0  0  0  0  0  0  0  0  0  0  0
  195.1840  174.2330  143.8260 C   0  0  0  0  0  0  0  0  0  0  0  0
  196.0160  174.9630  140.2690 N   0  0  0  0  0  1  0  0  0  0  0  0
  195.3670  174.0750  142.4470 C   0  0  0  0  0  3  0  0  0  0  0  0
  195.9560  176.5280  143.6440 C   0  0  0  0  0  3  0  0  0  0  0  0
  194.5940  176.7210  146.3800 C   0  0  0  0  0  1  0  0  0  0  0  0
  195.2990  175.6240  145.8140 O   0  0  0  0  0  0  0  0  0  0  0  0
  1 20  1  0  0  0  0
  2  1  2  0  0  0  0
  3  4  2  0  0  0  0
  4  2  1  0  0  0  0
  4  7  1  0  0  0  0
  5  6  2  0  0  0  0
  7  6  1  0  0  0  0
  8  6  1  6  0  0  0
  8 10  1  0  0  0  0
  9 10  1  0  0  0  0
  9 11  1  0  0  0  0
 10 14  1  0  0  0  0
 11 12  1  0  0  0  0
 13 12  1  0  0  0  0
 14 13  1  0  0  0  0
 15 19  1  0  0  0  0
 15 18  1  0  0  0  0
 17 15  2  0  0  0  0
 18 16  1  6  0  0  0
 19  8  1  1  0  0  0
 19 18  1  0  0  0  0
 21 24  1  0  0  0  0
 22 23  2  0  0  0  0
 23 21  1  0  0  0  0
 23 20  1  0  0  0  0
 25 24  1  0  0  0  0
 25 26  1  0  0  0  0
 26 27  2  0  0  0  0
 26 28  2  0  0  0  0
 29 35  1  0  0  0  0
 30 37  1  0  0  0  0
 31 29  2  0  0  0  0
 31 34  1  0  0  0  0
 32 30  1  0  0  0  0
 32 26  1  0  0  0  0
 33 31  1  0  0  0  0
 34 32  2  0  0  0  0
 35 30  2  0  0  0  0
 37 36  1  0  0  0  0
M  END
>  <MODEL>
2

>  <REMARK>
 VINA RESULT:      -6.3      2.645      4.171
  Name = 
  12 active torsions:
  status: ('A' for Active; 'I' for Inactive)
    1  A    between atoms: N_1  and  C_16
    2  A    between atoms: C_5  and  O_34
    3  A    between atoms: C_6  and  C_17
    4  A    between atoms: N_13  and  C_36
    5  A    between atoms: C_15  and  C_17
    6  A    between atoms: C_16  and  C_32
    7  A    between atoms: C_17  and  C_35
    8  A    between atoms: C_19  and  S_20
    9  A    between atoms: S_20  and  C_27
   10  A    between atoms: C_21  and  N_23
   11  A    between atoms: C_21  and  C_28
   12  A    between atoms: C_27  and  C_36
                            x       y       z     vdW  Elec       q    Type
                         _______ _______ _______ _____ _____    ______ ____

>  <TORSDO>
F 12

$$$$
=
 OpenBabel11062421543D

 37 39  0  0  1  0  0  0  0  0999 V2000
  191.1250  173.6860  142.2180 N   0  0  0  0  0  0  0  0  0  0  0  0
  190.5380  174.5970  141.4930 C   0  0  0  0  0  3  0  0  0  0  0  0
  188.3140  174.7030  140.4480 C   0  0  0  0  0  2  0  0  0  0  0  0
  189.1000  174.9410  141.4960 C   0  0  0  0  0  0  0  0  0  0  0  0
  189.4200  177.7230  142.4260 O   0  0  0  0  0  0  0  0  0  0  0  0
  188.8700  176.8660  143.1700 C   0  0  0  0  0  0  0  0  0  0  0  0
  188.5710  175.5510  142.6820 N   0  0  0  0  0  2  0  0  0  0  0  0
  188.5160  177.2110  144.5880 C   0  0  2  0  0  3  0  0  0  0  0  0
  188.8220  175.2210  146.1270 C   0  0  0  0  0  2  0  0  0  0  0  0
  189.4170  176.5490  145.6340 C   0  0  0  0  0  3  0  0  0  0  0  0
  189.3750  174.7770  147.4890 C   0  0  0  0  0  2  0  0  0  0  0  0
  190.7930  175.2910  147.7120 C   0  0  0  0  0  2  0  0  0  0  0  0
  190.8380  176.8250  147.7130 C   0  0  0  0  0  2  0  0  0  0  0  0
  189.7980  177.4760  146.7920 C   0  0  0  0  0  2  0  0  0  0  0  0
  186.2420  178.2110  144.4980 C   0  0  0  0  0  0  0  0  0  0  0  0
  185.3360  177.2080  146.5690 C   0  0  0  0  0  1  0  0  0  0  0  0
  185.7370  178.9630  143.6830 O   0  0  0  0  0  0  0  0  0  0  0  0
  186.5740  177.8020  145.9310 C   0  0  1  0  0  3  0  0  0  0  0  0
  187.0390  176.9600  144.8710 C   0  0  2  0  0  3  0  0  0  0  0  0
  190.4680  172.7750  143.1440 C   0  0  0  0  0  2  0  0  0  0  0  0
  192.1230  170.8430  143.2630 N   0  0  0  0  0  2  0  0  0  0  0  0
  190.0890  170.6460  142.1530 O   0  0  0  0  0  0  0  0  0  0  0  0
  190.8640  171.3700  142.8290 C   0  0  0  0  0  0  0  0  0  0  0  0
  193.0340  171.5650  144.1400 C   0  0  0  0  0  2  0  0  0  0  0  0
  194.4560  171.4790  143.6160 C   0  0  0  0  0  2  0  0  0  0  0  0
  194.9620  173.0500  142.9430 S   0  0  0  0  0  0  0  0  0  0  0  0
  196.4470  173.0340  142.7050 O   0  0  0  0  0  0  0  0  0  0  0  0
  194.2430  173.2760  141.6430 O   0  0  0  0  0  0  0  0  0  0  0  0
  193.8830  176.3930  145.8540 C   0  0  0  0  0  3  0  0  0  0  0  0
  195.1370  174.3680  145.3620 C   0  0  0  0  0  0  0  0  0  0  0  0
  193.3310  176.3670  144.5720 C   0  0  0  0  0  0  0  0  0  0  0  0
  194.5760  174.3450  144.0710 C   0  0  0  0  0  0  0  0  0  0  0  0
  192.4140  177.3770  144.1690 N   0  0  0  0  0  1  0  0  0  0  0  0
  193.6780  175.3480  143.6850 C   0  0  0  0  0  3  0  0  0  0  0  0
  194.7830  175.4000  146.2480 C   0  0  0  0  0  3  0  0  0  0  0  0
  197.2200  173.6370  146.4890 C   0  0  0  0  0  1  0  0  0  0  0  0
  196.0370  173.3670  145.7480 O   0  0  0  0  0  0  0  0  0  0  0  0
  1 20  1  0  0  0  0
  2  4  1  0  0  0  0
  2  1  2  0  0  0  0
  3  4  2  0  0  0  0
  4  7  1  0  0  0  0
  5  6  2  0  0  0  0
  7  6  1  0  0  0  0
  8  6  1  6  0  0  0
  8 10  1  0  0  0  0
  9 11  1  0  0  0  0
 10  9  1  0  0  0  0
 10 14  1  0  0  0  0
 11 12  1  0  0  0  0
 12 13  1  0  0  0  0
 14 13  1  0  0  0  0
 15 19  1  0  0  0  0
 15 18  1  0  0  0  0
 17 15  2  0  0  0  0
 18 16  1  1  0  0  0
 19  8  1  6  0  0  0
 19 18  1  0  0  0  0
 21 24  1  0  0  0  0
 22 23  2  0  0  0  0
 23 20  1  0  0  0  0
 23 21  1  0  0  0  0
 25 24  1  0  0  0  0
 26 25  1  0  0  0  0
 26 32  1  0  0  0  0
 27 26  2  0  0  0  0
 28 26  2  0  0  0  0
 29 35  1  0  0  0  0
 30 37  1  0  0  0  0
 30 35  2  0  0  0  0
 31 29  2  0  0  0  0
 32 30  1  0  0  0  0
 33 31  1  0  0  0  0
 34 32  2  0  0  0  0
 34 31  1  0  0  0  0
 37 36  1  0  0  0  0
M  END
>  <MODEL>
3

>  <REMARK>
 VINA RESULT:      -6.3      2.500      3.461
  Name = 
  12 active torsions:
  status: ('A' for Active; 'I' for Inactive)
    1  A    between atoms: N_1  and  C_16
    2  A    between atoms: C_5  and  O_34
    3  A    between atoms: C_6  and  C_17
    4  A    between atoms: N_13  and  C_36
    5  A    between atoms: C_15  and  C_17
    6  A    between atoms: C_16  and  C_32
    7  A    between atoms: C_17  and  C_35
    8  A    between atoms: C_19  and  S_20
    9  A    between atoms: S_20  and  C_27
   10  A    between atoms: C_21  and  N_23
   11  A    between atoms: C_21  and  C_28
   12  A    between atoms: C_27  and  C_36
                            x       y       z     vdW  Elec       q    Type
                         _______ _______ _______ _____ _____    ______ ____

>  <TORSDO>
F 12

$$$$
=
 OpenBabel11062421543D

 37 39  0  0  1  0  0  0  0  0999 V2000
  190.5280  171.5590  140.6490 N   0  0  0  0  0  0  0  0  0  0  0  0
  191.8030  171.8240  140.6780 C   0  0  0  0  0  3  0  0  0  0  0  0
  192.4150  174.1970  140.8800 C   0  0  0  0  0  2  0  0  0  0  0  0
  192.4560  172.9590  141.3650 C   0  0  0  0  0  0  0  0  0  0  0  0
  191.3980  172.9860  144.1200 O   0  0  0  0  0  0  0  0  0  0  0  0
  192.6340  172.8430  143.9180 C   0  0  0  0  0  0  0  0  0  0  0  0
  193.1490  172.6770  142.5900 N   0  0  0  0  0  2  0  0  0  0  0  0
  193.5950  172.8410  145.0730 C   0  0  2  0  0  3  0  0  0  0  0  0
  192.8270  174.7520  146.5500 C   0  0  0  0  0  2  0  0  0  0  0  0
  193.9260  174.2370  145.6100 C   0  0  0  0  0  3  0  0  0  0  0  0
  192.8300  176.2790  146.7080 C   0  0  0  0  0  2  0  0  0  0  0  0
  194.2270  176.8600  146.5190 C   0  0  0  0  0  2  0  0  0  0  0  0
  194.7650  176.5750  145.1090 C   0  0  0  0  0  2  0  0  0  0  0  0
  194.2700  175.2500  144.5130 C   0  0  0  0  0  2  0  0  0  0  0  0
  194.9870  170.8990  145.7580 C   0  0  0  0  0  0  0  0  0  0  0  0
  197.2080  171.8720  145.2710 C   0  0  0  0  0  1  0  0  0  0  0  0
  194.6670  169.8090  146.1980 O   0  0  0  0  0  0  0  0  0  0  0  0
  195.8210  172.1770  145.7970 C   0  0  1  0  0  3  0  0  0  0  0  0
  194.8530  172.0430  144.7520 C   0  0  2  0  0  3  0  0  0  0  0  0
  189.4710  172.3650  141.2420 C   0  0  0  0  0  2  0  0  0  0  0  0
  188.4710  174.5540  140.4080 N   0  0  0  0  0  2  0  0  0  0  0  0
  188.5180  172.6450  139.0810 O   0  0  0  0  0  0  0  0  0  0  0  0
  188.8070  173.1800  140.1810 C   0  0  0  0  0  0  0  0  0  0  0  0
  188.8630  175.2870  141.6020 C   0  0  0  0  0  2  0  0  0  0  0  0
  187.6420  175.6400  142.4330 C   0  0  0  0  0  2  0  0  0  0  0  0
  187.7210  177.3430  142.9540 S   0  0  0  0  0  0  0  0  0  0  0  0
  189.1600  177.7720  143.0330 O   0  0  0  0  0  0  0  0  0  0  0  0
  186.9940  178.1920  141.9500 O   0  0  0  0  0  0  0  0  0  0  0  0
  185.7330  177.7820  147.0370 C   0  0  0  0  0  3  0  0  0  0  0  0
  187.6460  177.0940  145.7020 C   0  0  0  0  0  0  0  0  0  0  0  0
  185.0770  178.2110  145.8820 C   0  0  0  0  0  0  0  0  0  0  0  0
  186.9800  177.5260  144.5410 C   0  0  0  0  0  0  0  0  0  0  0  0
  183.7730  178.7740  145.9690 N   0  0  0  0  0  1  0  0  0  0  0  0
  185.6990  178.0840  144.6390 C   0  0  0  0  0  3  0  0  0  0  0  0
  187.0120  177.2280  146.9500 C   0  0  0  0  0  3  0  0  0  0  0  0
  189.1980  175.1690  145.8680 C   0  0  0  0  0  1  0  0  0  0  0  0
  188.9280  176.5390  145.6030 O   0  0  0  0  0  0  0  0  0  0  0  0
  1  2  2  0  0  0  0
  1 20  1  0  0  0  0
  2  4  1  0  0  0  0
  3  4  2  0  0  0  0
  4  7  1  0  0  0  0
  6  5  2  0  0  0  0
  7  6  1  0  0  0  0
  8  6  1  6  0  0  0
  8 10  1  0  0  0  0
  9 11  1  0  0  0  0
 10  9  1  0  0  0  0
 12 11  1  0  0  0  0
 13 12  1  0  0  0  0
 14 13  1  0  0  0  0
 14 10  1  0  0  0  0
 15 18  1  0  0  0  0
 15 17  2  0  0  0  0
 18 16  1  6  0  0  0
 19  8  1  1  0  0  0
 19 15  1  0  0  0  0
 19 18  1  0  0  0  0
 21 24  1  0  0  0  0
 22 23  2  0  0  0  0
 23 21  1  0  0  0  0
 23 20  1  0  0  0  0
 24 25  1  0  0  0  0
 25 26  1  0  0  0  0
 26 27  2  0  0  0  0
 26 32  1  0  0  0  0
 28 26  2  0  0  0  0
 30 35  2  0  0  0  0
 31 33  1  0  0  0  0
 31 29  2  0  0  0  0
 32 34  2  0  0  0  0
 32 30  1  0  0  0  0
 34 31  1  0  0  0  0
 35 29  1  0  0  0  0
 37 30  1  0  0  0  0
 37 36  1  0  0  0  0
M  END
>  <MODEL>
4

>  <REMARK>
 VINA RESULT:      -6.3      3.001      6.960
  Name = 
  12 active torsions:
  status: ('A' for Active; 'I' for Inactive)
    1  A    between atoms: N_1  and  C_16
    2  A    between atoms: C_5  and  O_34
    3  A    between atoms: C_6  and  C_17
    4  A    between atoms: N_13  and  C_36
    5  A    between atoms: C_15  and  C_17
    6  A    between atoms: C_16  and  C_32
    7  A    between atoms: C_17  and  C_35
    8  A    between atoms: C_19  and  S_20
    9  A    between atoms: S_20  and  C_27
   10  A    between atoms: C_21  and  N_23
   11  A    between atoms: C_21  and  C_28
   12  A    between atoms: C_27  and  C_36
                            x       y       z     vdW  Elec       q    Type
                         _______ _______ _______ _____ _____    ______ ____

>  <TORSDO>
F 12

$$$$
=
 OpenBabel11062421543D

 37 39  0  0  1  0  0  0  0  0999 V2000
  192.4770  175.6030  146.5270 N   0  0  0  0  0  0  0  0  0  0  0  0
  191.7530  175.8040  147.5910 C   0  0  0  0  0  3  0  0  0  0  0  0
  191.1530  177.7030  149.0350 C   0  0  0  0  0  2  0  0  0  0  0  0
  190.9660  177.0150  147.9120 C   0  0  0  0  0  0  0  0  0  0  0  0
  188.4940  175.6170  147.1100 O   0  0  0  0  0  0  0  0  0  0  0  0
  188.8640  176.6510  146.4920 C   0  0  0  0  0  0  0  0  0  0  0  0
  189.9760  177.4280  146.9580 N   0  0  0  0  0  2  0  0  0  0  0  0
  188.1420  177.0910  145.2510 C   0  0  2  0  0  3  0  0  0  0  0  0
  186.2770  178.6230  144.4770 C   0  0  0  0  0  2  0  0  0  0  0  0
  186.7050  177.5600  145.5000 C   0  0  0  0  0  3  0  0  0  0  0  0
  185.0970  179.4810  144.9530 C   0  0  0  0  0  2  0  0  0  0  0  0
  184.1970  178.7140  145.9150 C   0  0  0  0  0  2  0  0  0  0  0  0
  184.9590  178.2970  147.1810 C   0  0  0  0  0  2  0  0  0  0  0  0
  186.4470  178.0080  146.9420 C   0  0  0  0  0  2  0  0  0  0  0  0
  189.3160  176.4050  143.1710 C   0  0  0  0  0  0  0  0  0  0  0  0
  187.3710  175.4710  141.9620 C   0  0  0  0  0  1  0  0  0  0  0  0
  190.4880  176.5030  142.8510 O   0  0  0  0  0  0  0  0  0  0  0  0
  187.8240  176.5760  142.8940 C   0  0  1  0  0  3  0  0  0  0  0  0
  188.2110  176.0300  144.1590 C   0  0  2  0  0  3  0  0  0  0  0  0
  192.7070  176.5590  145.4540 C   0  0  0  0  0  2  0  0  0  0  0  0
  194.8430  176.3200  144.0890 N   0  0  0  0  0  2  0  0  0  0  0  0
  194.8370  177.3240  146.1860 O   0  0  0  0  0  0  0  0  0  0  0  0
  194.1740  176.7670  145.2730 C   0  0  0  0  0  0  0  0  0  0  0  0
  194.1460  175.7670  142.9360 C   0  0  0  0  0  2  0  0  0  0  0  0
  194.2420  174.2520  142.9330 C   0  0  0  0  0  2  0  0  0  0  0  0
  193.3020  173.5760  141.5790 S   0  0  0  0  0  0  0  0  0  0  0  0
  193.1530  174.6200  140.5060 O   0  0  0  0  0  0  0  0  0  0  0  0
  194.0320  172.3840  141.0280 O   0  0  0  0  0  0  0  0  0  0  0  0
  189.1500  172.3940  143.0550 C   0  0  0  0  0  3  0  0  0  0  0  0
  190.7340  172.6270  141.2240 C   0  0  0  0  0  0  0  0  0  0  0  0
  190.1140  172.8550  143.9530 C   0  0  0  0  0  0  0  0  0  0  0  0
  191.7020  173.0920  142.1330 C   0  0  0  0  0  0  0  0  0  0  0  0
  189.8020  172.9750  145.3360 N   0  0  0  0  0  1  0  0  0  0  0  0
  191.3850  173.2010  143.4930 C   0  0  0  0  0  3  0  0  0  0  0  0
  189.4570  172.2780  141.6970 C   0  0  0  0  0  3  0  0  0  0  0  0
  190.0860  172.2060  138.8690 C   0  0  0  0  0  1  0  0  0  0  0  0
  191.0520  172.5160  139.8650 O   0  0  0  0  0  0  0  0  0  0  0  0
  1  2  2  0  0  0  0
  2  4  1  0  0  0  0
  4  3  2  0  0  0  0
  6  7  1  0  0  0  0
  6  5  2  0  0  0  0
  7  4  1  0  0  0  0
  8 10  1  0  0  0  0
  8  6  1  1  0  0  0
  9 11  1  0  0  0  0
  9 10  1  0  0  0  0
 10 14  1  0  0  0  0
 11 12  1  0  0  0  0
 12 13  1  0  0  0  0
 14 13  1  0  0  0  0
 15 19  1  0  0  0  0
 17 15  2  0  0  0  0
 18 16  1  6  0  0  0
 18 15  1  0  0  0  0
 18 19  1  0  0  0  0
 19  8  1  1  0  0  0
 20  1  1  0  0  0  0
 21 23  1  0  0  0  0
 23 20  1  0  0  0  0
 23 22  2  0  0  0  0
 24 21  1  0  0  0  0
 25 24  1  0  0  0  0
 26 32  1  0  0  0  0
 26 25  1  0  0  0  0
 27 26  2  0  0  0  0
 28 26  2  0  0  0  0
 29 31  1  0  0  0  0
 30 35  1  0  0  0  0
 30 32  2  0  0  0  0
 31 33  1  0  0  0  0
 32 34  1  0  0  0  0
 34 31  2  0  0  0  0
 35 29  2  0  0  0  0
 36 37  1  0  0  0  0
 37 30  1  0  0  0  0
M  END
>  <MODEL>
5

>  <REMARK>
 VINA RESULT:      -6.3      2.381      5.468
  Name = 
  12 active torsions:
  status: ('A' for Active; 'I' for Inactive)
    1  A    between atoms: N_1  and  C_16
    2  A    between atoms: C_5  and  O_34
    3  A    between atoms: C_6  and  C_17
    4  A    between atoms: N_13  and  C_36
    5  A    between atoms: C_15  and  C_17
    6  A    between atoms: C_16  and  C_32
    7  A    between atoms: C_17  and  C_35
    8  A    between atoms: C_19  and  S_20
    9  A    between atoms: S_20  and  C_27
   10  A    between atoms: C_21  and  N_23
   11  A    between atoms: C_21  and  C_28
   12  A    between atoms: C_27  and  C_36
                            x       y       z     vdW  Elec       q    Type
                         _______ _______ _______ _____ _____    ______ ____

>  <TORSDO>
F 12

$$$$
=
 OpenBabel11062421543D

 37 39  0  0  1  0  0  0  0  0999 V2000
  191.3670  173.8110  142.6380 N   0  0  0  0  0  0  0  0  0  0  0  0
  190.7660  174.7630  141.9820 C   0  0  0  0  0  3  0  0  0  0  0  0
  188.5950  174.6080  140.8370 C   0  0  0  0  0  2  0  0  0  0  0  0
  189.3080  174.9930  141.8920 C   0  0  0  0  0  0  0  0  0  0  0  0
  189.3790  177.8590  142.5900 O   0  0  0  0  0  0  0  0  0  0  0  0
  188.8560  177.0290  143.3810 C   0  0  0  0  0  0  0  0  0  0  0  0
  188.6770  175.6590  142.9970 N   0  0  0  0  0  2  0  0  0  0  0  0
  188.4080  177.4630  144.7470 C   0  0  2  0  0  3  0  0  0  0  0  0
  190.7050  176.9210  145.6690 C   0  0  0  0  0  2  0  0  0  0  0  0
  189.1890  176.8160  145.8940 C   0  0  0  0  0  3  0  0  0  0  0  0
  191.5090  175.8880  146.4710 C   0  0  0  0  0  2  0  0  0  0  0  0
  190.7940  175.4980  147.7600 C   0  0  0  0  0  2  0  0  0  0  0  0
  189.4340  174.8460  147.4690 C   0  0  0  0  0  2  0  0  0  0  0  0
  188.7490  175.3820  146.2050 C   0  0  0  0  0  2  0  0  0  0  0  0
  186.2240  178.6490  144.7140 C   0  0  0  0  0  0  0  0  0  0  0  0
  185.1280  177.4170  146.5570 C   0  0  0  0  0  1  0  0  0  0  0  0
  185.8240  179.5580  144.0060 O   0  0  0  0  0  0  0  0  0  0  0  0
  186.4420  177.9980  146.0770 C   0  0  1  0  0  3  0  0  0  0  0  0
  186.9020  177.2950  144.9200 C   0  0  2  0  0  3  0  0  0  0  0  0
  190.7180  172.7370  143.3760 C   0  0  0  0  0  2  0  0  0  0  0  0
  191.8640  170.5370  142.8020 N   0  0  0  0  0  2  0  0  0  0  0  0
  189.9270  171.2280  141.7170 O   0  0  0  0  0  0  0  0  0  0  0  0
  190.7980  171.4700  142.5920 C   0  0  0  0  0  0  0  0  0  0  0  0
  192.8510  170.6760  143.8640 C   0  0  0  0  0  2  0  0  0  0  0  0
  194.0880  171.3900  143.3480 C   0  0  0  0  0  2  0  0  0  0  0  0
  194.9600  172.1640  144.6950 S   0  0  0  0  0  0  0  0  0  0  0  0
  194.0790  172.1800  145.9150 O   0  0  0  0  0  0  0  0  0  0  0  0
  196.2080  171.3770  144.9830 O   0  0  0  0  0  0  0  0  0  0  0  0
  196.0750  176.4690  143.6750 C   0  0  0  0  0  3  0  0  0  0  0  0
  196.2540  174.0900  143.2000 C   0  0  0  0  0  0  0  0  0  0  0  0
  195.2110  176.1960  144.7360 C   0  0  0  0  0  0  0  0  0  0  0  0
  195.3830  173.8200  144.2720 C   0  0  0  0  0  0  0  0  0  0  0  0
  194.6830  177.2600  145.5190 N   0  0  0  0  0  1  0  0  0  0  0  0
  194.8650  174.8770  145.0320 C   0  0  0  0  0  3  0  0  0  0  0  0
  196.5940  175.4230  142.9080 C   0  0  0  0  0  3  0  0  0  0  0  0
  196.6200  172.9560  141.0260 C   0  0  0  0  0  1  0  0  0  0  0  0
  196.7690  173.0340  142.4380 O   0  0  0  0  0  0  0  0  0  0  0  0
  1 20  1  0  0  0  0
  2  1  2  0  0  0  0
  3  4  2  0  0  0  0
  4  2  1  0  0  0  0
  4  7  1  0  0  0  0
  5  6  2  0  0  0  0
  7  6  1  0  0  0  0
  8  6  1  6  0  0  0
  8 10  1  0  0  0  0
  9 10  1  0  0  0  0
  9 11  1  0  0  0  0
 10 14  1  0  0  0  0
 11 12  1  0  0  0  0
 13 12  1  0  0  0  0
 14 13  1  0  0  0  0
 15 19  1  0  0  0  0
 15 18  1  0  0  0  0
 17 15  2  0  0  0  0
 18 16  1  6  0  0  0
 19  8  1  1  0  0  0
 19 18  1  0  0  0  0
 21 24  1  0  0  0  0
 22 23  2  0  0  0  0
 23 21  1  0  0  0  0
 23 20  1  0  0  0  0
 25 24  1  0  0  0  0
 25 26  1  0  0  0  0
 26 28  2  0  0  0  0
 26 27  2  0  0  0  0
 29 31  1  0  0  0  0
 30 32  2  0  0  0  0
 31 34  2  0  0  0  0
 31 33  1  0  0  0  0
 32 26  1  0  0  0  0
 32 34  1  0  0  0  0
 35 30  1  0  0  0  0
 35 29  2  0  0  0  0
 36 37  1  0  0  0  0
 37 30  1  0  0  0  0
M  END
>  <MODEL>
6

>  <REMARK>
 VINA RESULT:      -6.3      2.925      4.315
  Name = 
  12 active torsions:
  status: ('A' for Active; 'I' for Inactive)
    1  A    between atoms: N_1  and  C_16
    2  A    between atoms: C_5  and  O_34
    3  A    between atoms: C_6  and  C_17
    4  A    between atoms: N_13  and  C_36
    5  A    between atoms: C_15  and  C_17
    6  A    between atoms: C_16  and  C_32
    7  A    between atoms: C_17  and  C_35
    8  A    between atoms: C_19  and  S_20
    9  A    between atoms: S_20  and  C_27
   10  A    between atoms: C_21  and  N_23
   11  A    between atoms: C_21  and  C_28
   12  A    between atoms: C_27  and  C_36
                            x       y       z     vdW  Elec       q    Type
                         _______ _______ _______ _____ _____    ______ ____

>  <TORSDO>
F 12

$$$$
=
 OpenBabel11062421543D

 37 39  0  0  1  0  0  0  0  0999 V2000
  190.9550  172.3990  139.8960 N   0  0  0  0  0  0  0  0  0  0  0  0
  192.2510  172.4970  139.9840 C   0  0  0  0  0  3  0  0  0  0  0  0
  193.6060  174.5380  139.7620 C   0  0  0  0  0  2  0  0  0  0  0  0
  193.0180  173.6330  140.5400 C   0  0  0  0  0  0  0  0  0  0  0  0
  191.7460  175.5980  142.3360 O   0  0  0  0  0  0  0  0  0  0  0  0
  192.5950  174.7840  142.7890 C   0  0  0  0  0  0  0  0  0  0  0  0
  193.1120  173.7280  141.9690 N   0  0  0  0  0  2  0  0  0  0  0  0
  193.0810  174.9070  144.2050 C   0  0  2  0  0  3  0  0  0  0  0  0
  191.0410  173.6440  145.0230 C   0  0  0  0  0  2  0  0  0  0  0  0
  191.9660  174.8480  145.2540 C   0  0  0  0  0  3  0  0  0  0  0  0
  189.6640  173.8020  145.6810 C   0  0  0  0  0  2  0  0  0  0  0  0
  189.7330  174.6850  146.9220 C   0  0  0  0  0  2  0  0  0  0  0  0
  190.2040  176.1040  146.5720 C   0  0  0  0  0  2  0  0  0  0  0  0
  191.1840  176.1580  145.3930 C   0  0  0  0  0  2  0  0  0  0  0  0
  195.4180  175.6780  144.5540 C   0  0  0  0  0  0  0  0  0  0  0  0
  194.9380  177.5740  146.0680 C   0  0  0  0  0  1  0  0  0  0  0  0
  196.4700  175.2500  144.1130 O   0  0  0  0  0  0  0  0  0  0  0  0
  194.5330  176.1610  145.7010 C   0  0  1  0  0  3  0  0  0  0  0  0
  193.9670  176.1330  144.3870 C   0  0  2  0  0  3  0  0  0  0  0  0
  189.9910  173.4200  140.2770 C   0  0  0  0  0  2  0  0  0  0  0  0
  188.5660  173.9810  142.3120 N   0  0  0  0  0  2  0  0  0  0  0  0
  189.4670  171.8610  141.9960 O   0  0  0  0  0  0  0  0  0  0  0  0
  189.3300  173.0330  141.5590 C   0  0  0  0  0  0  0  0  0  0  0  0
  188.2610  175.3230  141.8350 C   0  0  0  0  0  2  0  0  0  0  0  0
  187.0270  175.8670  142.5340 C   0  0  0  0  0  2  0  0  0  0  0  0
  187.3150  177.5380  143.0820 S   0  0  0  0  0  0  0  0  0  0  0  0
  188.7130  177.6490  143.6280 O   0  0  0  0  0  0  0  0  0  0  0  0
  187.1540  178.4670  141.9120 O   0  0  0  0  0  0  0  0  0  0  0  0
  184.4070  178.6870  146.4030 C   0  0  0  0  0  3  0  0  0  0  0  0
  184.9440  178.5820  144.0340 C   0  0  0  0  0  0  0  0  0  0  0  0
  185.6230  178.0760  146.7100 C   0  0  0  0  0  0  0  0  0  0  0  0
  186.1700  177.9670  144.3490 C   0  0  0  0  0  0  0  0  0  0  0  0
  185.9720  177.8210  148.0660 N   0  0  0  0  0  1  0  0  0  0  0  0
  186.5000  177.7160  145.6860 C   0  0  0  0  0  3  0  0  0  0  0  0
  184.0660  178.9390  145.0720 C   0  0  0  0  0  3  0  0  0  0  0  0
  183.4530  178.2900  142.0750 C   0  0  0  0  0  1  0  0  0  0  0  0
  184.6130  178.8300  142.6960 O   0  0  0  0  0  0  0  0  0  0  0  0
  1  2  2  0  0  0  0
  1 20  1  0  0  0  0
  2  4  1  0  0  0  0
  3  4  2  0  0  0  0
  4  7  1  0  0  0  0
  5  6  2  0  0  0  0
  7  6  1  0  0  0  0
  8  6  1  6  0  0  0
  8 10  1  0  0  0  0
  9 10  1  0  0  0  0
  9 11  1  0  0  0  0
 10 14  1  0  0  0  0
 11 12  1  0  0  0  0
 13 12  1  0  0  0  0
 14 13  1  0  0  0  0
 15 18  1  0  0  0  0
 17 15  2  0  0  0  0
 18 16  1  6  0  0  0
 19  8  1  1  0  0  0
 19 15  1  0  0  0  0
 19 18  1  0  0  0  0
 20 23  1  0  0  0  0
 23 22  2  0  0  0  0
 23 21  1  0  0  0  0
 24 21  1  0  0  0  0
 24 25  1  0  0  0  0
 25 26  1  0  0  0  0
 26 27  2  0  0  0  0
 26 32  1  0  0  0  0
 28 26  2  0  0  0  0
 29 31  1  0  0  0  0
 30 32  2  0  0  0  0
 30 35  1  0  0  0  0
 31 33  1  0  0  0  0
 32 34  1  0  0  0  0
 34 31  2  0  0  0  0
 35 29  2  0  0  0  0
 36 37  1  0  0  0  0
 37 30  1  0  0  0  0
M  END
>  <MODEL>
7

>  <REMARK>
 VINA RESULT:      -6.2      2.163      6.564
  Name = 
  12 active torsions:
  status: ('A' for Active; 'I' for Inactive)
    1  A    between atoms: N_1  and  C_16
    2  A    between atoms: C_5  and  O_34
    3  A    between atoms: C_6  and  C_17
    4  A    between atoms: N_13  and  C_36
    5  A    between atoms: C_15  and  C_17
    6  A    between atoms: C_16  and  C_32
    7  A    between atoms: C_17  and  C_35
    8  A    between atoms: C_19  and  S_20
    9  A    between atoms: S_20  and  C_27
   10  A    between atoms: C_21  and  N_23
   11  A    between atoms: C_21  and  C_28
   12  A    between atoms: C_27  and  C_36
                            x       y       z     vdW  Elec       q    Type
                         _______ _______ _______ _____ _____    ______ ____

>  <TORSDO>
F 12

$$$$
=
 OpenBabel11062421543D

 37 39  0  0  1  0  0  0  0  0999 V2000
  189.7330  172.2580  143.7340 N   0  0  0  0  0  0  0  0  0  0  0  0
  188.7640  172.2930  142.8630 C   0  0  0  0  0  3  0  0  0  0  0  0
  189.0920  173.1120  140.5670 C   0  0  0  0  0  2  0  0  0  0  0  0
  188.5790  173.2860  141.7820 C   0  0  0  0  0  0  0  0  0  0  0  0
  189.5210  176.0730  142.0050 O   0  0  0  0  0  0  0  0  0  0  0  0
  188.3410  175.7760  142.3340 C   0  0  0  0  0  0  0  0  0  0  0  0
  187.8180  174.4630  142.0930 N   0  0  0  0  0  2  0  0  0  0  0  0
  187.4560  176.8000  142.9840 C   0  0  2  0  0  3  0  0  0  0  0  0
  185.8720  176.7900  144.9630 C   0  0  0  0  0  2  0  0  0  0  0  0
  187.3290  176.6400  144.5020 C   0  0  0  0  0  3  0  0  0  0  0  0
  185.7400  177.1470  146.4500 C   0  0  0  0  0  2  0  0  0  0  0  0
  186.9120  176.6080  147.2630 C   0  0  0  0  0  2  0  0  0  0  0  0
  188.2430  177.2140  146.7950 C   0  0  0  0  0  2  0  0  0  0  0  0
  188.2820  177.5390  145.2960 C   0  0  0  0  0  2  0  0  0  0  0  0
  186.2510  177.5440  140.9420 C   0  0  0  0  0  0  0  0  0  0  0  0
  184.1560  178.2900  142.0240 C   0  0  0  0  0  1  0  0  0  0  0  0
  186.5930  177.5400  139.7720 O   0  0  0  0  0  0  0  0  0  0  0  0
  185.6620  178.2300  142.1720 C   0  0  1  0  0  3  0  0  0  0  0  0
  186.0920  176.8720  142.3060 C   0  0  2  0  0  3  0  0  0  0  0  0
  190.8090  173.2300  143.8570 C   0  0  0  0  0  2  0  0  0  0  0  0
  191.1680  175.4500  145.0530 N   0  0  0  0  0  2  0  0  0  0  0  0
  189.6330  173.8810  145.8200 O   0  0  0  0  0  0  0  0  0  0  0  0
  190.4910  174.1920  144.9550 C   0  0  0  0  0  0  0  0  0  0  0  0
  192.0930  175.9420  144.0410 C   0  0  0  0  0  2  0  0  0  0  0  0
  192.9870  177.0240  144.6210 C   0  0  0  0  0  2  0  0  0  0  0  0
  194.5350  176.3240  145.1580 S   0  0  0  0  0  0  0  0  0  0  0  0
  195.6690  177.1650  144.6380 O   0  0  0  0  0  0  0  0  0  0  0  0
  194.5660  176.3070  146.6610 O   0  0  0  0  0  0  0  0  0  0  0  0
  194.9040  172.0590  143.5810 C   0  0  0  0  0  3  0  0  0  0  0  0
  195.1070  174.4540  143.2100 C   0  0  0  0  0  0  0  0  0  0  0  0
  194.5080  172.2930  144.8990 C   0  0  0  0  0  0  0  0  0  0  0  0
  194.7060  174.6840  144.5390 C   0  0  0  0  0  0  0  0  0  0  0  0
  194.2000  171.2000  145.7570 N   0  0  0  0  0  1  0  0  0  0  0  0
  194.4110  173.6000  145.3760 C   0  0  0  0  0  3  0  0  0  0  0  0
  195.2030  173.1320  142.7400 C   0  0  0  0  0  3  0  0  0  0  0  0
  194.5650  175.9360  141.2990 C   0  0  0  0  0  1  0  0  0  0  0  0
  195.4050  175.5370  142.3750 O   0  0  0  0  0  0  0  0  0  0  0  0
  1 20  1  0  0  0  0
  2  1  2  0  0  0  0
  3  4  2  0  0  0  0
  4  7  1  0  0  0  0
  4  2  1  0  0  0  0
  5  6  2  0  0  0  0
  7  6  1  0  0  0  0
  8  6  1  6  0  0  0
  8 10  1  0  0  0  0
  9 11  1  0  0  0  0
 10  9  1  0  0  0  0
 10 14  1  0  0  0  0
 11 12  1  0  0  0  0
 13 12  1  0  0  0  0
 14 13  1  0  0  0  0
 15 18  1  0  0  0  0
 15 19  1  0  0  0  0
 17 15  2  0  0  0  0
 18 16  1  6  0  0  0
 18 19  1  0  0  0  0
 19  8  1  1  0  0  0
 20 23  1  0  0  0  0
 23 21  1  0  0  0  0
 23 22  2  0  0  0  0
 24 25  1  0  0  0  0
 24 21  1  0  0  0  0
 25 26  1  0  0  0  0
 26 28  2  0  0  0  0
 27 26  2  0  0  0  0
 29 31  1  0  0  0  0
 30 32  2  0  0  0  0
 31 34  2  0  0  0  0
 31 33  1  0  0  0  0
 32 26  1  0  0  0  0
 32 34  1  0  0  0  0
 35 30  1  0  0  0  0
 35 29  2  0  0  0  0
 36 37  1  0  0  0  0
 37 30  1  0  0  0  0
M  END
>  <MODEL>
8

>  <REMARK>
 VINA RESULT:      -6.2      2.078      3.508
  Name = 
  12 active torsions:
  status: ('A' for Active; 'I' for Inactive)
    1  A    between atoms: N_1  and  C_16
    2  A    between atoms: C_5  and  O_34
    3  A    between atoms: C_6  and  C_17
    4  A    between atoms: N_13  and  C_36
    5  A    between atoms: C_15  and  C_17
    6  A    between atoms: C_16  and  C_32
    7  A    between atoms: C_17  and  C_35
    8  A    between atoms: C_19  and  S_20
    9  A    between atoms: S_20  and  C_27
   10  A    between atoms: C_21  and  N_23
   11  A    between atoms: C_21  and  C_28
   12  A    between atoms: C_27  and  C_36
                            x       y       z     vdW  Elec       q    Type
                         _______ _______ _______ _____ _____    ______ ____

>  <TORSDO>
F 12

$$$$
=
 OpenBabel11062421543D

 37 39  0  0  1  0  0  0  0  0999 V2000
  188.8010  173.2260  142.1770 N   0  0  0  0  0  0  0  0  0  0  0  0
  187.7210  173.9260  141.9780 C   0  0  0  0  0  3  0  0  0  0  0  0
  187.8040  175.9510  140.5840 C   0  0  0  0  0  2  0  0  0  0  0  0
  187.6370  175.3900  141.7790 C   0  0  0  0  0  0  0  0  0  0  0  0
  189.0580  177.8060  142.6990 O   0  0  0  0  0  0  0  0  0  0  0  0
  188.1730  177.2780  143.4250 C   0  0  0  0  0  0  0  0  0  0  0  0
  187.3680  176.1970  142.9340 N   0  0  0  0  0  2  0  0  0  0  0  0
  187.9420  177.7780  144.8220 C   0  0  2  0  0  3  0  0  0  0  0  0
  190.2740  177.2340  145.6520 C   0  0  0  0  0  2  0  0  0  0  0  0
  188.7670  177.0510  145.8880 C   0  0  0  0  0  3  0  0  0  0  0  0
  191.1300  176.1580  146.3350 C   0  0  0  0  0  2  0  0  0  0  0  0
  190.4530  175.6160  147.5890 C   0  0  0  0  0  2  0  0  0  0  0  0
  189.1130  174.9460  147.2550 C   0  0  0  0  0  2  0  0  0  0  0  0
  188.3850  175.5770  146.0620 C   0  0  0  0  0  2  0  0  0  0  0  0
  185.9230  179.2190  144.9880 C   0  0  0  0  0  0  0  0  0  0  0  0
  184.9130  178.1770  146.9900 C   0  0  0  0  0  1  0  0  0  0  0  0
  185.5530  180.1500  144.2940 O   0  0  0  0  0  0  0  0  0  0  0  0
  186.2210  178.5820  146.3430 C   0  0  1  0  0  3  0  0  0  0  0  0
  186.4570  177.7980  145.1700 C   0  0  2  0  0  3  0  0  0  0  0  0
  190.1520  173.7530  142.3020 C   0  0  0  0  0  2  0  0  0  0  0  0
  192.3730  173.5940  141.0670 N   0  0  0  0  0  2  0  0  0  0  0  0
  190.4050  172.7530  140.1590 O   0  0  0  0  0  0  0  0  0  0  0  0
  190.9670  173.3300  141.1250 C   0  0  0  0  0  0  0  0  0  0  0  0
  193.1290  174.1540  142.1780 C   0  0  0  0  0  2  0  0  0  0  0  0
  193.7440  175.4860  141.7840 C   0  0  0  0  0  2  0  0  0  0  0  0
  195.5190  175.4130  141.9290 S   0  0  0  0  0  0  0  0  0  0  0  0
  196.0790  174.6100  140.7870 O   0  0  0  0  0  0  0  0  0  0  0  0
  196.0670  176.8120  141.8800 O   0  0  0  0  0  0  0  0  0  0  0  0
  196.7710  173.4220  145.8380 C   0  0  0  0  0  3  0  0  0  0  0  0
  195.5880  175.2050  144.6800 C   0  0  0  0  0  0  0  0  0  0  0  0
  197.1480  172.8720  144.6120 C   0  0  0  0  0  0  0  0  0  0  0  0
  195.9720  174.6460  143.4470 C   0  0  0  0  0  0  0  0  0  0  0  0
  197.9410  171.6910  144.5740 N   0  0  0  0  0  1  0  0  0  0  0  0
  196.7490  173.4810  143.4220 C   0  0  0  0  0  3  0  0  0  0  0  0
  195.9940  174.5820  145.8740 C   0  0  0  0  0  3  0  0  0  0  0  0
  194.5710  177.1120  145.8930 C   0  0  0  0  0  1  0  0  0  0  0  0
  194.8090  176.3680  144.7050 O   0  0  0  0  0  0  0  0  0  0  0  0
  1 20  1  0  0  0  0
  2  1  2  0  0  0  0
  3  4  2  0  0  0  0
  4  2  1  0  0  0  0
  4  7  1  0  0  0  0
  5  6  2  0  0  0  0
  7  6  1  0  0  0  0
  8  6  1  6  0  0  0
  8 10  1  0  0  0  0
  9 10  1  0  0  0  0
  9 11  1  0  0  0  0
 10 14  1  0  0  0  0
 11 12  1  0  0  0  0
 13 12  1  0  0  0  0
 14 13  1  0  0  0  0
 15 19  1  0  0  0  0
 15 18  1  0  0  0  0
 17 15  2  0  0  0  0
 18 16  1  1  0  0  0
 19  8  1  6  0  0  0
 19 18  1  0  0  0  0
 21 23  1  0  0  0  0
 21 24  1  0  0  0  0
 22 23  2  0  0  0  0
 23 20  1  0  0  0  0
 25 26  1  0  0  0  0
 25 24  1  0  0  0  0
 26 32  1  0  0  0  0
 27 26  2  0  0  0  0
 28 26  2  0  0  0  0
 29 35  1  0  0  0  0
 30 37  1  0  0  0  0
 30 35  2  0  0  0  0
 31 29  2  0  0  0  0
 32 30  1  0  0  0  0
 33 31  1  0  0  0  0
 34 32  2  0  0  0  0
 34 31  1  0  0  0  0
 37 36  1  0  0  0  0
M  END
>  <MODEL>
9

>  <REMARK>
 VINA RESULT:      -6.2      2.748      3.846
  Name = 
  12 active torsions:
  status: ('A' for Active; 'I' for Inactive)
    1  A    between atoms: N_1  and  C_16
    2  A    between atoms: C_5  and  O_34
    3  A    between atoms: C_6  and  C_17
    4  A    between atoms: N_13  and  C_36
    5  A    between atoms: C_15  and  C_17
    6  A    between atoms: C_16  and  C_32
    7  A    between atoms: C_17  and  C_35
    8  A    between atoms: C_19  and  S_20
    9  A    between atoms: S_20  and  C_27
   10  A    between atoms: C_21  and  N_23
   11  A    between atoms: C_21  and  C_28
   12  A    between atoms: C_27  and  C_36
                            x       y       z     vdW  Elec       q    Type
                         _______ _______ _______ _____ _____    ______ ____

>  <TORSDO>
F 12

$$$$
