=
 OpenBabel11062419233D

 38 44  0  0  1  0  0  0  0  0999 V2000
  187.2870  178.3580  142.8740 C   0  0  2  0  0  3  0  0  0  0  0  0
  188.5820  177.5470  144.8630 C   0  0  0  0  0  3  0  0  0  0  0  0
  188.6080  177.0610  146.1730 C   0  0  0  0  0  0  0  0  0  0  0  0
  186.1320  177.5140  144.9090 C   0  0  0  0  0  0  0  0  0  0  0  0
  186.6310  177.1850  142.1890 C   0  0  1  0  0  0  0  0  0  0  0  0
  187.4120  176.8170  146.8550 C   0  0  0  0  0  3  0  0  0  0  0  0
  184.4770  177.8810  142.8730 C   0  0  0  0  0  3  0  0  0  0  0  0
  184.8340  177.7040  144.2750 N   0  0  0  0  0  2  0  0  0  0  0  0
  185.0350  176.8010  146.9130 F   0  0  0  0  0  0  0  0  0  0  0  0
  185.3050  177.6660  141.8830 N   0  0  0  0  0  0  0  0  0  0  0  0
  186.1810  177.0510  146.2320 C   0  0  0  0  0  0  0  0  0  0  0  0
  187.8540  177.8830  141.5530 C   0  0  2  0  0  3  0  0  0  0  0  0
  187.3030  176.6060  140.9740 C   0  0  1  0  0  3  0  0  0  0  0  0
  187.3570  177.7710  144.2310 C   0  0  0  0  0  0  0  0  0  0  0  0
  187.9050  174.9060  142.5220 O   0  0  0  0  0  0  0  0  0  0  0  0
  188.1040  175.4070  141.3830 C   0  0  0  0  0  0  0  0  0  0  0  0
  189.0730  174.8310  140.5020 N   0  0  0  0  0  2  0  0  0  0  0  0
  189.8770  173.6790  140.8780 C   0  0  0  0  0  2  0  0  0  0  0  0
  190.6360  173.2420  138.6000 N   0  0  0  0  0  0  0  0  0  0  0  0
  190.0870  172.8130  139.6880 C   0  0  0  0  0  0  0  0  0  0  0  0
  190.7220  172.1140  137.6840 C   0  0  1  0  0  3  0  0  0  0  0  0
  190.0110  169.5980  138.0830 C   0  0  0  0  0  1  0  0  0  0  0  0
  189.7740  171.4280  139.6770 N   0  0  0  0  0  0  0  0  0  0  0  0
  190.1370  171.0170  138.5100 C   0  0  0  0  0  0  0  0  0  0  0  0
  190.1820  174.1670  136.1360 C   0  0  0  0  0  1  0  0  0  0  0  0
  189.6750  172.4270  136.2270 S   0  0  0  0  0  0  0  0  0  0  0  0
  190.1770  176.7160  146.9590 S   0  0  0  0  0  0  0  0  0  0  0  0
  193.1150  175.0530  143.2300 N   0  0  0  0  0  0  0  0  0  0  0  0
  191.6720  175.6130  144.8800 C   0  0  0  0  0  0  0  0  0  0  0  0
  192.0160  174.6420  144.0020 C   0  0  2  0  0  3  0  0  0  0  0  0
  190.2720  173.2180  144.8230 C   0  0  0  0  0  0  0  0  0  0  0  0
  193.5170  176.3530  143.6000 N   0  0  0  0  0  0  0  0  0  0  0  0
  189.9090  174.2260  145.7430 C   0  0  0  0  0  3  0  0  0  0  0  0
  192.6010  176.7580  144.6900 C   0  0  0  0  0  3  0  0  0  0  0  0
  191.3410  173.4250  143.9330 C   0  0  0  0  0  3  0  0  0  0  0  0
  190.6130  175.4420  145.7760 C   0  0  0  0  0  0  0  0  0  0  0  0
  189.5020  171.9470  144.7760 C   0  0  0  0  0  2  0  0  0  0  0  0
  188.9470  171.7790  143.5090 O   0  0  0  0  0  1  0  0  0  0  0  0
  1 14  1  1  0  0  0
  2  3  1  0  0  0  0
  3  6  2  0  0  0  0
  3 27  1  0  0  0  0
  4 11  2  0  0  0  0
  5 10  1  6  0  0  0
  5  1  1  0  0  0  0
  7  8  1  0  0  0  0
  8  4  1  0  0  0  0
 10  7  2  0  0  0  0
 11  6  1  0  0  0  0
 11  9  1  0  0  0  0
 12  5  1  0  0  0  0
 12  1  1  0  0  0  0
 13 16  1  0  0  0  0
 13 12  1  0  0  0  0
 13  5  1  0  0  0  0
 14  2  2  0  0  0  0
 14  4  1  0  0  0  0
 16 15  2  0  0  0  0
 17 18  1  0  0  0  0
 17 16  1  0  0  0  0
 19 20  2  0  0  0  0
 20 18  1  0  0  0  0
 21 24  1  0  0  0  0
 21 19  1  0  0  0  0
 22 24  1  0  0  0  0
 23 20  1  0  0  0  0
 24 23  2  0  0  0  0
 25 26  1  0  0  0  0
 26 21  1  0  0  0  0
 28 32  2  0  0  0  0
 28 30  1  0  0  0  0
 29 36  1  0  0  0  0
 30 29  1  0  0  0  0
 31 33  1  0  0  0  0
 32 34  1  0  0  0  0
 33 36  2  0  0  0  0
 34 29  2  0  0  0  0
 35 30  1  0  0  0  0
 35 31  2  0  0  0  0
 36 27  1  0  0  0  0
 37 31  1  0  0  0  0
 38 37  1  0  0  0  0
M  END
>  <MODEL>
1

>  <REMARK>
 VINA RESULT:      -8.1      0.000      0.000
  Name = 
  7 active torsions:
  status: ('A' for Active; 'I' for Inactive)
    1  A    between atoms: C_4  and  C_21
    2  A    between atoms: C_4  and  N_34
    3  A    between atoms: S_8  and  C_23
    4  A    between atoms: C_9  and  S_35
    5  A    between atoms: C_16  and  C_31
    6  A    between atoms: C_17  and  C_19
    7  A    between atoms: S_35  and  C_38
                            x       y       z     vdW  Elec       q    Type
                         _______ _______ _______ _____ _____    ______ ____

>  <TORSDO>
F 7

$$$$
=
 OpenBabel11062419233D

 38 44  0  0  1  0  0  0  0  0999 V2000
  189.5750  173.2610  140.7860 C   0  0  2  0  0  3  0  0  0  0  0  0
  189.5810  175.3790  142.1310 C   0  0  0  0  0  3  0  0  0  0  0  0
  189.6020  176.0240  143.3690 C   0  0  0  0  0  0  0  0  0  0  0  0
  189.7830  173.2160  143.2640 C   0  0  0  0  0  0  0  0  0  0  0  0
  190.9550  172.6520  140.8020 C   0  0  1  0  0  0  0  0  0  0  0  0
  189.6970  175.2790  144.5480 C   0  0  0  0  0  3  0  0  0  0  0  0
  190.2370  170.8520  142.1580 C   0  0  0  0  0  3  0  0  0  0  0  0
  189.9120  171.7650  143.2470 N   0  0  0  0  0  2  0  0  0  0  0  0
  189.8730  173.1820  145.6560 F   0  0  0  0  0  0  0  0  0  0  0  0
  190.7040  171.2440  141.0000 N   0  0  0  0  0  0  0  0  0  0  0  0
  189.7770  173.8830  144.4990 C   0  0  0  0  0  0  0  0  0  0  0  0
  190.4160  173.3440  139.5300 C   0  0  2  0  0  3  0  0  0  0  0  0
  191.8500  172.8920  139.6170 C   0  0  1  0  0  3  0  0  0  0  0  0
  189.6730  173.9870  142.0730 C   0  0  0  0  0  0  0  0  0  0  0  0
  193.3130  174.6520  138.9770 O   0  0  0  0  0  0  0  0  0  0  0  0
  192.7820  174.0240  139.9310 C   0  0  0  0  0  0  0  0  0  0  0  0
  193.0640  174.3950  141.2830 N   0  0  0  0  0  2  0  0  0  0  0  0
  193.9770  175.4760  141.6180 C   0  0  0  0  0  2  0  0  0  0  0  0
  195.4200  175.6260  143.5810 N   0  0  0  0  0  0  0  0  0  0  0  0
  194.2390  175.4680  143.0820 C   0  0  0  0  0  0  0  0  0  0  0  0
  195.2820  175.6130  145.0300 C   0  0  1  0  0  3  0  0  0  0  0  0
  193.0840  175.4070  146.4850 C   0  0  0  0  0  1  0  0  0  0  0  0
  193.2050  175.3660  144.0500 N   0  0  0  0  0  0  0  0  0  0  0  0
  193.8080  175.4440  145.1860 C   0  0  0  0  0  0  0  0  0  0  0  0
  197.5460  174.3610  144.5650 C   0  0  0  0  0  1  0  0  0  0  0  0
  196.1550  174.1690  145.7150 S   0  0  0  0  0  0  0  0  0  0  0  0
  189.5480  177.8110  143.4380 S   0  0  0  0  0  0  0  0  0  0  0  0
  184.7850  177.9490  141.8260 N   0  0  0  0  0  0  0  0  0  0  0  0
  186.8450  177.9030  142.7610 C   0  0  0  0  0  0  0  0  0  0  0  0
  185.5180  177.9110  143.0250 C   0  0  2  0  0  3  0  0  0  0  0  0
  185.9390  177.8210  145.3820 C   0  0  0  0  0  0  0  0  0  0  0  0
  185.6570  177.9750  140.7190 N   0  0  0  0  0  0  0  0  0  0  0  0
  187.3250  177.8100  145.1150 C   0  0  0  0  0  3  0  0  0  0  0  0
  187.0230  177.9360  141.2850 C   0  0  0  0  0  3  0  0  0  0  0  0
  185.0140  177.8750  144.3230 C   0  0  0  0  0  3  0  0  0  0  0  0
  187.7910  177.8530  143.7880 C   0  0  0  0  0  0  0  0  0  0  0  0
  185.4560  177.8040  146.7890 C   0  0  0  0  0  2  0  0  0  0  0  0
  184.1010  178.1260  146.8260 O   0  0  0  0  0  1  0  0  0  0  0  0
  1  5  1  0  0  0  0
  1 14  1  1  0  0  0
  2  3  1  0  0  0  0
  3 27  1  0  0  0  0
  3  6  2  0  0  0  0
  4 11  2  0  0  0  0
  5 10  1  6  0  0  0
  7  8  1  0  0  0  0
  8  4  1  0  0  0  0
 10  7  2  0  0  0  0
 11  6  1  0  0  0  0
 11  9  1  0  0  0  0
 12 13  1  0  0  0  0
 12  1  1  0  0  0  0
 12  5  1  0  0  0  0
 13 16  1  0  0  0  0
 13  5  1  0  0  0  0
 14  2  2  0  0  0  0
 14  4  1  0  0  0  0
 15 16  2  0  0  0  0
 16 17  1  0  0  0  0
 17 18  1  0  0  0  0
 18 20  1  0  0  0  0
 19 21  1  0  0  0  0
 20 19  2  0  0  0  0
 20 23  1  0  0  0  0
 21 24  1  0  0  0  0
 21 26  1  0  0  0  0
 23 24  2  0  0  0  0
 24 22  1  0  0  0  0
 25 26  1  0  0  0  0
 27 36  1  0  0  0  0
 28 30  1  0  0  0  0
 29 30  1  0  0  0  0
 29 36  1  0  0  0  0
 30 35  1  0  0  0  0
 31 37  1  0  0  0  0
 32 34  1  0  0  0  0
 32 28  2  0  0  0  0
 33 31  1  0  0  0  0
 34 29  2  0  0  0  0
 35 31  2  0  0  0  0
 36 33  2  0  0  0  0
 37 38  1  0  0  0  0
M  END
>  <MODEL>
2

>  <REMARK>
 VINA RESULT:      -7.8      3.008      7.004
  Name = 
  7 active torsions:
  status: ('A' for Active; 'I' for Inactive)
    1  A    between atoms: C_4  and  C_21
    2  A    between atoms: C_4  and  N_34
    3  A    between atoms: S_8  and  C_23
    4  A    between atoms: C_9  and  S_35
    5  A    between atoms: C_16  and  C_31
    6  A    between atoms: C_17  and  C_19
    7  A    between atoms: S_35  and  C_38
                            x       y       z     vdW  Elec       q    Type
                         _______ _______ _______ _____ _____    ______ ____

>  <TORSDO>
F 7

$$$$
=
 OpenBabel11062419233D

 38 44  0  0  1  0  0  0  0  0999 V2000
  189.6090  173.2910  140.7170 C   0  0  2  0  0  3  0  0  0  0  0  0
  189.5410  175.3890  142.0910 C   0  0  0  0  0  3  0  0  0  0  0  0
  189.5190  176.0170  143.3390 C   0  0  0  0  0  0  0  0  0  0  0  0
  189.7540  173.2130  143.1990 C   0  0  0  0  0  0  0  0  0  0  0  0
  190.9980  172.7070  140.7590 C   0  0  1  0  0  0  0  0  0  0  0  0
  189.5970  175.2550  144.5090 C   0  0  0  0  0  3  0  0  0  0  0  0
  190.2790  170.8750  142.0710 C   0  0  0  0  0  3  0  0  0  0  0  0
  189.9110  171.7660  143.1640 N   0  0  0  0  0  2  0  0  0  0  0  0
  189.7840  173.1460  145.5910 F   0  0  0  0  0  0  0  0  0  0  0  0
  190.7680  171.2920  140.9310 N   0  0  0  0  0  0  0  0  0  0  0  0
  189.7040  173.8620  144.4420 C   0  0  0  0  0  0  0  0  0  0  0  0
  190.4800  173.4080  139.4850 C   0  0  2  0  0  3  0  0  0  0  0  0
  191.9190  172.9810  139.6020 C   0  0  1  0  0  3  0  0  0  0  0  0
  189.6600  174.0000  142.0170 C   0  0  0  0  0  0  0  0  0  0  0  0
  193.4230  174.7290  139.0280 O   0  0  0  0  0  0  0  0  0  0  0  0
  192.8220  174.1250  139.9560 C   0  0  0  0  0  0  0  0  0  0  0  0
  192.9980  174.5330  141.3150 N   0  0  0  0  0  2  0  0  0  0  0  0
  193.8800  175.6270  141.6890 C   0  0  0  0  0  2  0  0  0  0  0  0
  195.3400  175.6950  143.6440 N   0  0  0  0  0  0  0  0  0  0  0  0
  194.1530  175.5650  143.1500 C   0  0  0  0  0  0  0  0  0  0  0  0
  195.2130  175.6330  145.0930 C   0  0  1  0  0  3  0  0  0  0  0  0
  193.0250  175.3940  146.5580 C   0  0  0  0  0  1  0  0  0  0  0  0
  193.1260  175.4370  144.1220 N   0  0  0  0  0  0  0  0  0  0  0  0
  193.7390  175.4700  145.2550 C   0  0  0  0  0  0  0  0  0  0  0  0
  197.4710  174.3900  144.5790 C   0  0  0  0  0  1  0  0  0  0  0  0
  196.0790  174.1580  145.7200 S   0  0  0  0  0  0  0  0  0  0  0  0
  189.4300  177.8010  143.4320 S   0  0  0  0  0  0  0  0  0  0  0  0
  184.8290  177.6730  145.4600 N   0  0  0  0  0  0  0  0  0  0  0  0
  186.7970  177.7320  144.3460 C   0  0  0  0  0  0  0  0  0  0  0  0
  185.4520  177.7770  144.2050 C   0  0  0  0  0  0  0  0  0  0  0  0
  185.6620  178.0270  141.8310 C   0  0  0  0  0  0  0  0  0  0  0  0
  185.7950  177.5430  146.4790 N   0  0  0  0  0  2  0  0  0  0  0  0
  187.0670  177.9820  141.9710 C   0  0  0  0  0  3  0  0  0  0  0  0
  187.1050  177.5870  145.7930 C   0  0  0  0  0  3  0  0  0  0  0  0
  184.8360  177.9200  142.9640 C   0  0  0  0  0  3  0  0  0  0  0  0
  187.6480  177.8310  143.2420 C   0  0  0  0  0  0  0  0  0  0  0  0
  185.0570  178.1570  140.4790 C   0  0  0  0  0  2  0  0  0  0  0  0
  183.6670  178.1800  140.5860 O   0  0  0  0  0  1  0  0  0  0  0  0
  1  5  1  0  0  0  0
  1 14  1  1  0  0  0
  2  3  1  0  0  0  0
  3 27  1  0  0  0  0
  3  6  2  0  0  0  0
  4 11  2  0  0  0  0
  5 10  1  6  0  0  0
  7  8  1  0  0  0  0
  8  4  1  0  0  0  0
 10  7  2  0  0  0  0
 11  6  1  0  0  0  0
 11  9  1  0  0  0  0
 12 13  1  0  0  0  0
 12  1  1  0  0  0  0
 12  5  1  0  0  0  0
 13 16  1  0  0  0  0
 13  5  1  0  0  0  0
 14  2  2  0  0  0  0
 14  4  1  0  0  0  0
 15 16  2  0  0  0  0
 16 17  1  0  0  0  0
 17 18  1  0  0  0  0
 18 20  1  0  0  0  0
 19 21  1  0  0  0  0
 20 19  2  0  0  0  0
 20 23  1  0  0  0  0
 21 24  1  0  0  0  0
 21 26  1  0  0  0  0
 23 24  2  0  0  0  0
 24 22  1  0  0  0  0
 25 26  1  0  0  0  0
 28 32  1  0  0  0  0
 29 34  2  0  0  0  0
 30 29  1  0  0  0  0
 30 28  2  0  0  0  0
 31 33  1  0  0  0  0
 31 35  2  0  0  0  0
 33 36  2  0  0  0  0
 34 32  1  0  0  0  0
 35 30  1  0  0  0  0
 36 27  1  0  0  0  0
 36 29  1  0  0  0  0
 37 38  1  0  0  0  0
 37 31  1  0  0  0  0
M  END
>  <MODEL>
3

>  <REMARK>
 VINA RESULT:      -7.7      3.001      7.083
  Name = 
  7 active torsions:
  status: ('A' for Active; 'I' for Inactive)
    1  A    between atoms: C_4  and  C_21
    2  A    between atoms: C_4  and  N_34
    3  A    between atoms: S_8  and  C_23
    4  A    between atoms: C_9  and  S_35
    5  A    between atoms: C_16  and  C_31
    6  A    between atoms: C_17  and  C_19
    7  A    between atoms: S_35  and  C_38
                            x       y       z     vdW  Elec       q    Type
                         _______ _______ _______ _____ _____    ______ ____

>  <TORSDO>
F 7

$$$$
=
 OpenBabel11062419233D

 38 44  0  0  1  0  0  0  0  0999 V2000
  188.4740  178.2730  143.6430 C   0  0  2  0  0  3  0  0  0  0  0  0
  188.7860  176.5100  145.4010 C   0  0  0  0  0  3  0  0  0  0  0  0
  188.3380  175.8590  146.5540 C   0  0  0  0  0  0  0  0  0  0  0  0
  186.7480  177.8710  145.3890 C   0  0  0  0  0  0  0  0  0  0  0  0
  187.3980  177.8370  142.6810 C   0  0  1  0  0  0  0  0  0  0  0  0
  187.1160  176.2160  147.1320 C   0  0  0  0  0  3  0  0  0  0  0  0
  185.9040  179.4910  143.4710 C   0  0  0  0  0  3  0  0  0  0  0  0
  185.8830  178.8810  144.7950 N   0  0  0  0  0  2  0  0  0  0  0  0
  185.1450  177.5470  147.1370 F   0  0  0  0  0  0  0  0  0  0  0  0
  186.6190  179.0350  142.4750 N   0  0  0  0  0  0  0  0  0  0  0  0
  186.3290  177.2220  146.5600 C   0  0  0  0  0  0  0  0  0  0  0  0
  188.8830  177.8190  142.2590 C   0  0  2  0  0  3  0  0  0  0  0  0
  187.8200  177.2210  141.3750 C   0  0  1  0  0  3  0  0  0  0  0  0
  188.0000  177.5060  144.8190 C   0  0  0  0  0  0  0  0  0  0  0  0
  187.0380  175.2240  142.3990 O   0  0  0  0  0  0  0  0  0  0  0  0
  187.7570  175.7280  141.4960 C   0  0  0  0  0  0  0  0  0  0  0  0
  188.4900  174.8840  140.6040 N   0  0  0  0  0  2  0  0  0  0  0  0
  188.4630  173.4340  140.7080 C   0  0  0  0  0  2  0  0  0  0  0  0
  190.2710  173.4160  139.0680 N   0  0  0  0  0  0  0  0  0  0  0  0
  189.2340  172.8420  139.5820 C   0  0  0  0  0  0  0  0  0  0  0  0
  190.7890  172.5300  138.0370 C   0  0  1  0  0  3  0  0  0  0  0  0
  189.9220  170.1380  137.3170 C   0  0  0  0  0  1  0  0  0  0  0  0
  188.9420  171.5650  139.0340 N   0  0  0  0  0  0  0  0  0  0  0  0
  189.8410  171.3810  138.1300 C   0  0  0  0  0  0  0  0  0  0  0  0
  191.9400  174.5400  136.7960 C   0  0  0  0  0  1  0  0  0  0  0  0
  190.6420  173.3340  136.4090 S   0  0  0  0  0  0  0  0  0  0  0  0
  189.3170  174.5410  147.2630 S   0  0  0  0  0  0  0  0  0  0  0  0
  192.1340  174.2880  143.1040 N   0  0  0  0  0  0  0  0  0  0  0  0
  191.0340  174.5250  145.0660 C   0  0  0  0  0  0  0  0  0  0  0  0
  192.1370  174.8900  144.3730 C   0  0  2  0  0  3  0  0  0  0  0  0
  192.8830  176.2580  146.1950 C   0  0  0  0  0  0  0  0  0  0  0  0
  190.9900  173.4810  142.9450 N   0  0  0  0  0  0  0  0  0  0  0  0
  191.7330  175.8820  146.9230 C   0  0  0  0  0  3  0  0  0  0  0  0
  190.2300  173.6140  144.2080 C   0  0  0  0  0  3  0  0  0  0  0  0
  193.0950  175.7540  144.8980 C   0  0  0  0  0  3  0  0  0  0  0  0
  190.7930  175.0020  146.3570 C   0  0  0  0  0  0  0  0  0  0  0  0
  193.8860  177.1650  146.8120 C   0  0  0  0  0  2  0  0  0  0  0  0
  194.8200  177.5570  145.8540 O   0  0  0  0  0  1  0  0  0  0  0  0
  1 14  1  1  0  0  0
  2  3  1  0  0  0  0
  3  6  2  0  0  0  0
  3 27  1  0  0  0  0
  4 11  2  0  0  0  0
  5 10  1  6  0  0  0
  5  1  1  0  0  0  0
  7  8  1  0  0  0  0
  8  4  1  0  0  0  0
 10  7  2  0  0  0  0
 11  6  1  0  0  0  0
 11  9  1  0  0  0  0
 12  5  1  0  0  0  0
 12  1  1  0  0  0  0
 13 16  1  0  0  0  0
 13 12  1  0  0  0  0
 13  5  1  0  0  0  0
 14  4  1  0  0  0  0
 14  2  2  0  0  0  0
 16 15  2  0  0  0  0
 17 18  1  0  0  0  0
 17 16  1  0  0  0  0
 19 20  2  0  0  0  0
 20 18  1  0  0  0  0
 21 24  1  0  0  0  0
 21 19  1  0  0  0  0
 22 24  1  0  0  0  0
 23 20  1  0  0  0  0
 24 23  2  0  0  0  0
 26 25  1  0  0  0  0
 26 21  1  0  0  0  0
 28 30  1  0  0  0  0
 29 36  1  0  0  0  0
 30 35  1  0  0  0  0
 30 29  1  0  0  0  0
 31 37  1  0  0  0  0
 31 33  1  0  0  0  0
 32 28  2  0  0  0  0
 32 34  1  0  0  0  0
 34 29  2  0  0  0  0
 35 31  2  0  0  0  0
 36 33  2  0  0  0  0
 36 27  1  0  0  0  0
 38 37  1  0  0  0  0
M  END
>  <MODEL>
4

>  <REMARK>
 VINA RESULT:      -7.5      1.837      2.488
  Name = 
  7 active torsions:
  status: ('A' for Active; 'I' for Inactive)
    1  A    between atoms: C_4  and  C_21
    2  A    between atoms: C_4  and  N_34
    3  A    between atoms: S_8  and  C_23
    4  A    between atoms: C_9  and  S_35
    5  A    between atoms: C_16  and  C_31
    6  A    between atoms: C_17  and  C_19
    7  A    between atoms: S_35  and  C_38
                            x       y       z     vdW  Elec       q    Type
                         _______ _______ _______ _____ _____    ______ ____

>  <TORSDO>
F 7

$$$$
=
 OpenBabel11062419233D

 38 44  0  0  1  0  0  0  0  0999 V2000
  192.2600  174.7700  145.0090 C   0  0  2  0  0  3  0  0  0  0  0  0
  190.3130  175.5080  143.6080 C   0  0  0  0  0  3  0  0  0  0  0  0
  189.5730  176.5300  143.0090 C   0  0  0  0  0  0  0  0  0  0  0  0
  191.9430  177.1600  144.3950 C   0  0  0  0  0  0  0  0  0  0  0  0
  193.5290  174.8790  144.2020 C   0  0  1  0  0  0  0  0  0  0  0  0
  190.0000  177.8580  143.1110 C   0  0  0  0  0  3  0  0  0  0  0  0
  194.3020  176.6940  145.5050 C   0  0  0  0  0  3  0  0  0  0  0  0
  193.1810  177.5190  145.0740 N   0  0  0  0  0  2  0  0  0  0  0  0
  191.5670  179.4690  143.8870 F   0  0  0  0  0  0  0  0  0  0  0  0
  194.4750  175.4530  145.1290 N   0  0  0  0  0  0  0  0  0  0  0  0
  191.1720  178.1740  143.8070 C   0  0  0  0  0  0  0  0  0  0  0  0
  192.9100  173.4980  144.5110 C   0  0  2  0  0  3  0  0  0  0  0  0
  194.0710  173.6310  143.5600 C   0  0  1  0  0  3  0  0  0  0  0  0
  191.4900  175.8150  144.2940 C   0  0  0  0  0  0  0  0  0  0  0  0
  193.9060  174.5710  141.3840 O   0  0  0  0  0  0  0  0  0  0  0  0
  193.6370  173.5900  142.1260 C   0  0  0  0  0  0  0  0  0  0  0  0
  192.9360  172.4600  141.6000 N   0  0  0  0  0  2  0  0  0  0  0  0
  192.4870  172.3980  140.2180 C   0  0  0  0  0  2  0  0  0  0  0  0
  190.3320  172.4280  139.0730 N   0  0  0  0  0  0  0  0  0  0  0  0
  191.0040  172.4970  140.1740 C   0  0  0  0  0  0  0  0  0  0  0  0
  188.9210  172.5100  139.4220 C   0  0  1  0  0  3  0  0  0  0  0  0
  187.8120  172.6770  141.8160 C   0  0  0  0  0  1  0  0  0  0  0  0
  190.2020  172.5960  141.3420 N   0  0  0  0  0  0  0  0  0  0  0  0
  188.9890  172.6100  140.9090 C   0  0  0  0  0  0  0  0  0  0  0  0
  189.1580  173.8730  137.1870 C   0  0  0  0  0  1  0  0  0  0  0  0
  188.2050  174.0320  138.7230 S   0  0  0  0  0  0  0  0  0  0  0  0
  188.1000  176.1280  142.0770 S   0  0  0  0  0  0  0  0  0  0  0  0
  183.9020  178.5760  143.3730 N   0  0  0  0  0  0  0  0  0  0  0  0
  185.8370  177.4620  143.0110 C   0  0  0  0  0  0  0  0  0  0  0  0
  184.9920  177.9170  143.9650 C   0  0  0  0  0  0  0  0  0  0  0  0
  186.3810  177.0080  145.6940 C   0  0  0  0  0  0  0  0  0  0  0  0
  184.0260  178.5690  141.9690 N   0  0  0  0  0  0  0  0  0  0  0  0
  187.2660  176.5290  144.7030 C   0  0  0  0  0  3  0  0  0  0  0  0
  185.2810  177.8370  141.6840 C   0  0  0  0  0  3  0  0  0  0  0  0
  185.2240  177.7180  145.3240 C   0  0  0  0  0  3  0  0  0  0  0  0
  186.9970  176.7570  143.3420 C   0  0  1  0  0  3  0  0  0  0  0  0
  186.6890  176.7860  147.1310 C   0  0  0  0  0  2  0  0  0  0  0  0
  186.0910  177.7840  147.9000 O   0  0  0  0  0  1  0  0  0  0  0  0
  1 14  1  6  0  0  0
  2 14  1  0  0  0  0
  3  6  1  0  0  0  0
  3  2  2  0  0  0  0
  4  8  1  0  0  0  0
  5 12  1  0  0  0  0
  5  1  1  0  0  0  0
  5 10  1  1  0  0  0
  6 11  2  0  0  0  0
  8  7  1  0  0  0  0
 10  7  2  0  0  0  0
 11  9  1  0  0  0  0
 11  4  1  0  0  0  0
 12  1  1  0  0  0  0
 13  5  1  0  0  0  0
 13 12  1  0  0  0  0
 14  4  2  0  0  0  0
 15 16  2  0  0  0  0
 16 13  1  0  0  0  0
 17 16  1  0  0  0  0
 18 17  1  0  0  0  0
 19 21  1  0  0  0  0
 19 20  2  0  0  0  0
 20 18  1  0  0  0  0
 20 23  1  0  0  0  0
 21 24  1  0  0  0  0
 24 23  2  0  0  0  0
 24 22  1  0  0  0  0
 25 26  1  0  0  0  0
 26 21  1  0  0  0  0
 27  3  1  0  0  0  0
 27 36  1  0  0  0  0
 28 30  1  0  0  0  0
 29 36  1  0  0  0  0
 29 30  1  0  0  0  0
 30 35  2  0  0  0  0
 31 37  1  0  0  0  0
 32 28  2  0  0  0  0
 33 31  2  0  0  0  0
 34 32  1  0  0  0  0
 34 29  2  0  0  0  0
 35 31  1  0  0  0  0
 36 33  1  0  0  0  0
 37 38  1  0  0  0  0
M  END
>  <MODEL>
5

>  <REMARK>
 VINA RESULT:      -7.5      2.763      6.185
  Name = 
  7 active torsions:
  status: ('A' for Active; 'I' for Inactive)
    1  A    between atoms: C_4  and  C_21
    2  A    between atoms: C_4  and  N_34
    3  A    between atoms: S_8  and  C_23
    4  A    between atoms: C_9  and  S_35
    5  A    between atoms: C_16  and  C_31
    6  A    between atoms: C_17  and  C_19
    7  A    between atoms: S_35  and  C_38
                            x       y       z     vdW  Elec       q    Type
                         _______ _______ _______ _____ _____    ______ ____

>  <TORSDO>
F 7

$$$$
=
 OpenBabel11062419233D

 38 44  0  0  1  0  0  0  0  0999 V2000
  192.1610  174.3630  145.2260 C   0  0  2  0  0  3  0  0  0  0  0  0
  189.9450  175.4180  145.7470 C   0  0  0  0  0  3  0  0  0  0  0  0
  189.0980  176.5280  145.7160 C   0  0  0  0  0  0  0  0  0  0  0  0
  191.6370  176.6860  144.5070 C   0  0  0  0  0  0  0  0  0  0  0  0
  192.2460  174.0760  143.7480 C   0  0  1  0  0  0  0  0  0  0  0  0
  189.5150  177.7130  145.1020 C   0  0  0  0  0  3  0  0  0  0  0  0
  193.8730  175.7620  143.4280 C   0  0  0  0  0  3  0  0  0  0  0  0
  192.9280  176.7920  143.8420 N   0  0  0  0  0  2  0  0  0  0  0  0
  191.1590  178.9550  143.9160 F   0  0  0  0  0  0  0  0  0  0  0  0
  193.5850  174.4870  143.3970 N   0  0  0  0  0  0  0  0  0  0  0  0
  190.7800  177.7960  144.5100 C   0  0  0  0  0  0  0  0  0  0  0  0
  192.0480  172.9270  144.7600 C   0  0  2  0  0  3  0  0  0  0  0  0
  191.9550  172.6770  143.2780 C   0  0  1  0  0  3  0  0  0  0  0  0
  191.2040  175.4900  145.1470 C   0  0  0  0  0  0  0  0  0  0  0  0
  189.8740  171.5580  143.0330 O   0  0  0  0  0  0  0  0  0  0  0  0
  190.5350  172.6050  142.8040 C   0  0  0  0  0  0  0  0  0  0  0  0
  189.9330  173.7010  142.1100 N   0  0  0  0  0  2  0  0  0  0  0  0
  188.5640  173.6540  141.6230 C   0  0  0  0  0  2  0  0  0  0  0  0
  188.8520  172.4470  139.5200 N   0  0  0  0  0  0  0  0  0  0  0  0
  188.5690  173.5460  140.1390 C   0  0  0  0  0  0  0  0  0  0  0  0
  188.7060  172.7050  138.0950 C   0  0  1  0  0  3  0  0  0  0  0  0
  187.9280  174.9220  136.8820 C   0  0  0  0  0  1  0  0  0  0  0  0
  188.1880  174.6160  139.2870 N   0  0  0  0  0  0  0  0  0  0  0  0
  188.2720  174.1320  138.0950 C   0  0  0  0  0  0  0  0  0  0  0  0
  189.6490  171.4660  135.9780 C   0  0  0  0  0  1  0  0  0  0  0  0
  190.3240  172.5410  137.2750 S   0  0  0  0  0  0  0  0  0  0  0  0
  187.4620  176.4140  146.4300 S   0  0  0  0  0  0  0  0  0  0  0  0
  183.7530  179.0460  144.2830 N   0  0  0  0  0  0  0  0  0  0  0  0
  185.4900  177.8090  145.0400 C   0  0  0  0  0  0  0  0  0  0  0  0
  184.8940  178.3050  143.9310 C   0  0  0  0  0  0  0  0  0  0  0  0
  186.5740  177.3230  142.5330 C   0  0  0  0  0  0  0  0  0  0  0  0
  183.5740  179.0380  145.6810 N   0  0  0  0  0  2  0  0  0  0  0  0
  187.2020  176.8030  143.6860 C   0  0  0  0  0  3  0  0  0  0  0  0
  184.7000  178.2440  146.2220 C   0  0  0  0  0  3  0  0  0  0  0  0
  185.3980  178.0850  142.6510 C   0  0  0  0  0  3  0  0  0  0  0  0
  186.6560  177.0450  144.9590 C   0  0  0  0  0  0  0  0  0  0  0  0
  187.1430  177.0370  141.1880 C   0  0  0  0  0  2  0  0  0  0  0  0
  186.4080  177.7110  140.2140 O   0  0  0  0  0  1  0  0  0  0  0  0
  1 14  1  6  0  0  0
  3  2  1  0  0  0  0
  3 27  1  0  0  0  0
  4 11  2  0  0  0  0
  4 14  1  0  0  0  0
  5 10  1  6  0  0  0
  5 12  1  0  0  0  0
  5  1  1  0  0  0  0
  6  3  2  0  0  0  0
  7  8  1  0  0  0  0
  8  4  1  0  0  0  0
  9 11  1  0  0  0  0
 10  7  2  0  0  0  0
 11  6  1  0  0  0  0
 12  1  1  0  0  0  0
 13  5  1  0  0  0  0
 13 12  1  0  0  0  0
 14  2  2  0  0  0  0
 16 15  2  0  0  0  0
 16 13  1  0  0  0  0
 17 16  1  0  0  0  0
 18 17  1  0  0  0  0
 19 20  2  0  0  0  0
 20 18  1  0  0  0  0
 21 19  1  0  0  0  0
 22 24  1  0  0  0  0
 23 20  1  0  0  0  0
 24 21  1  0  0  0  0
 24 23  2  0  0  0  0
 25 26  1  0  0  0  0
 26 21  1  0  0  0  0
 28 32  1  0  0  0  0
 29 34  2  0  0  0  0
 30 28  2  0  0  0  0
 30 29  1  0  0  0  0
 31 35  2  0  0  0  0
 31 33  1  0  0  0  0
 32 34  1  0  0  0  0
 33 36  2  0  0  0  0
 35 30  1  0  0  0  0
 36 29  1  0  0  0  0
 36 27  1  0  0  0  0
 37 31  1  0  0  0  0
 38 37  1  0  0  0  0
M  END
>  <MODEL>
6

>  <REMARK>
 VINA RESULT:      -7.4      2.051      5.879
  Name = 
  7 active torsions:
  status: ('A' for Active; 'I' for Inactive)
    1  A    between atoms: C_4  and  C_21
    2  A    between atoms: C_4  and  N_34
    3  A    between atoms: S_8  and  C_23
    4  A    between atoms: C_9  and  S_35
    5  A    between atoms: C_16  and  C_31
    6  A    between atoms: C_17  and  C_19
    7  A    between atoms: S_35  and  C_38
                            x       y       z     vdW  Elec       q    Type
                         _______ _______ _______ _____ _____    ______ ____

>  <TORSDO>
F 7

$$$$
=
 OpenBabel11062419233D

 38 44  0  0  1  0  0  0  0  0999 V2000
  187.4160  178.3330  142.7470 C   0  0  2  0  0  3  0  0  0  0  0  0
  188.7100  177.5410  144.7450 C   0  0  0  0  0  3  0  0  0  0  0  0
  188.7360  177.0840  146.0660 C   0  0  0  0  0  0  0  0  0  0  0  0
  186.2600  177.5600  144.8100 C   0  0  0  0  0  0  0  0  0  0  0  0
  186.7310  177.1600  142.0940 C   0  0  1  0  0  0  0  0  0  0  0  0
  187.5400  176.8810  146.7620 C   0  0  0  0  0  3  0  0  0  0  0  0
  184.5980  177.9160  142.7780 C   0  0  0  0  0  3  0  0  0  0  0  0
  184.9620  177.7630  144.1810 N   0  0  0  0  0  2  0  0  0  0  0  0
  185.1640  176.9160  146.8370 F   0  0  0  0  0  0  0  0  0  0  0  0
  185.4130  177.6610  141.7870 N   0  0  0  0  0  0  0  0  0  0  0  0
  186.3100  177.1260  146.1430 C   0  0  0  0  0  0  0  0  0  0  0  0
  187.9630  177.8170  141.4340 C   0  0  2  0  0  3  0  0  0  0  0  0
  187.3820  176.5390  140.8880 C   0  0  1  0  0  3  0  0  0  0  0  0
  187.4850  177.7750  144.1180 C   0  0  0  0  0  0  0  0  0  0  0  0
  188.1690  175.0230  142.5390 O   0  0  0  0  0  0  0  0  0  0  0  0
  188.1610  175.3330  141.3180 C   0  0  0  0  0  0  0  0  0  0  0  0
  188.8790  174.5410  140.3680 N   0  0  0  0  0  2  0  0  0  0  0  0
  189.6570  173.3760  140.7580 C   0  0  0  0  0  2  0  0  0  0  0  0
  190.0920  171.2080  139.7250 N   0  0  0  0  0  0  0  0  0  0  0  0
  189.7890  172.4570  139.5960 C   0  0  0  0  0  0  0  0  0  0  0  0
  190.0800  170.6200  138.3940 C   0  0  1  0  0  3  0  0  0  0  0  0
  189.4800  171.7590  136.0840 C   0  0  0  0  0  1  0  0  0  0  0  0
  189.5180  172.8570  138.2610 N   0  0  0  0  0  0  0  0  0  0  0  0
  189.6910  171.7920  137.5560 C   0  0  0  0  0  0  0  0  0  0  0  0
  191.1440  168.5190  137.2290 C   0  0  0  0  0  1  0  0  0  0  0  0
  191.7580  170.0650  137.9540 S   0  0  0  0  0  0  0  0  0  0  0  0
  190.3040  176.7240  146.8480 S   0  0  0  0  0  0  0  0  0  0  0  0
  190.5190  172.5400  144.0640 N   0  0  0  0  0  0  0  0  0  0  0  0
  190.5770  174.5100  145.1760 C   0  0  0  0  0  0  0  0  0  0  0  0
  191.0350  173.8470  144.0890 C   0  0  0  0  0  0  0  0  0  0  0  0
  192.2630  175.7770  143.3730 C   0  0  0  0  0  0  0  0  0  0  0  0
  189.6910  172.3180  145.1830 N   0  0  0  0  0  2  0  0  0  0  0  0
  191.7880  176.4740  144.5050 C   0  0  0  0  0  3  0  0  0  0  0  0
  189.6910  173.5900  145.9380 C   0  0  0  0  0  3  0  0  0  0  0  0
  191.8860  174.4380  143.1580 C   0  0  0  0  0  3  0  0  0  0  0  0
  190.9340  175.8370  145.4230 C   0  0  0  0  0  0  0  0  0  0  0  0
  193.1880  176.4500  142.4230 C   0  0  0  0  0  2  0  0  0  0  0  0
  193.7760  175.5020  141.5870 O   0  0  0  0  0  1  0  0  0  0  0  0
  1 14  1  1  0  0  0
  2  3  1  0  0  0  0
  3  6  2  0  0  0  0
  3 27  1  0  0  0  0
  4 11  2  0  0  0  0
  5 10  1  6  0  0  0
  5  1  1  0  0  0  0
  7  8  1  0  0  0  0
  8  4  1  0  0  0  0
 10  7  2  0  0  0  0
 11  6  1  0  0  0  0
 11  9  1  0  0  0  0
 12  5  1  0  0  0  0
 12  1  1  0  0  0  0
 13 16  1  0  0  0  0
 13 12  1  0  0  0  0
 13  5  1  0  0  0  0
 14  2  2  0  0  0  0
 14  4  1  0  0  0  0
 16 15  2  0  0  0  0
 17 18  1  0  0  0  0
 17 16  1  0  0  0  0
 20 19  2  0  0  0  0
 20 18  1  0  0  0  0
 21 19  1  0  0  0  0
 22 24  1  0  0  0  0
 23 20  1  0  0  0  0
 24 23  2  0  0  0  0
 24 21  1  0  0  0  0
 25 26  1  0  0  0  0
 26 21  1  0  0  0  0
 28 30  2  0  0  0  0
 28 32  1  0  0  0  0
 29 36  1  0  0  0  0
 29 34  2  0  0  0  0
 30 29  1  0  0  0  0
 31 33  1  0  0  0  0
 32 34  1  0  0  0  0
 33 36  2  0  0  0  0
 35 31  2  0  0  0  0
 35 30  1  0  0  0  0
 36 27  1  0  0  0  0
 37 31  1  0  0  0  0
 38 37  1  0  0  0  0
M  END
>  <MODEL>
7

>  <REMARK>
 VINA RESULT:      -7.4      1.684      2.556
  Name = 
  7 active torsions:
  status: ('A' for Active; 'I' for Inactive)
    1  A    between atoms: C_4  and  C_21
    2  A    between atoms: C_4  and  N_34
    3  A    between atoms: S_8  and  C_23
    4  A    between atoms: C_9  and  S_35
    5  A    between atoms: C_16  and  C_31
    6  A    between atoms: C_17  and  C_19
    7  A    between atoms: S_35  and  C_38
                            x       y       z     vdW  Elec       q    Type
                         _______ _______ _______ _____ _____    ______ ____

>  <TORSDO>
F 7

$$$$
=
 OpenBabel11062419233D

 38 44  0  0  1  0  0  0  0  0999 V2000
  186.8030  178.6990  144.7660 C   0  0  2  0  0  3  0  0  0  0  0  0
  189.0870  177.9980  143.9980 C   0  0  0  0  0  3  0  0  0  0  0  0
  190.1660  177.1120  144.0640 C   0  0  0  0  0  0  0  0  0  0  0  0
  187.8500  176.5960  145.5830 C   0  0  0  0  0  0  0  0  0  0  0  0
  185.7680  177.7820  144.1650 C   0  0  1  0  0  0  0  0  0  0  0  0
  190.1000  175.9860  144.8900 C   0  0  0  0  0  3  0  0  0  0  0  0
  185.2980  176.7980  146.2630 C   0  0  0  0  0  3  0  0  0  0  0  0
  186.6570  176.2780  146.3550 N   0  0  0  0  0  2  0  0  0  0  0  0
  188.9140  174.6310  146.4430 F   0  0  0  0  0  0  0  0  0  0  0  0
  184.8660  177.5200  145.2610 N   0  0  0  0  0  0  0  0  0  0  0  0
  188.9550  175.7330  145.6530 C   0  0  0  0  0  0  0  0  0  0  0  0
  185.9310  179.2290  143.6490 C   0  0  2  0  0  3  0  0  0  0  0  0
  185.0290  178.2520  142.9410 C   0  0  1  0  0  3  0  0  0  0  0  0
  187.9360  177.7450  144.7480 C   0  0  0  0  0  0  0  0  0  0  0  0
  185.3260  178.0860  140.5890 O   0  0  0  0  0  0  0  0  0  0  0  0
  185.6760  177.6640  141.7230 C   0  0  0  0  0  0  0  0  0  0  0  0
  186.6770  176.6490  141.8360 N   0  0  0  0  0  2  0  0  0  0  0  0
  187.3090  176.0470  140.6730 C   0  0  0  0  0  2  0  0  0  0  0  0
  189.2140  174.5430  140.4160 N   0  0  0  0  0  0  0  0  0  0  0  0
  188.1990  174.9390  141.1100 C   0  0  0  0  0  0  0  0  0  0  0  0
  189.8710  173.4890  141.1730 C   0  0  1  0  0  3  0  0  0  0  0  0
  189.2610  172.5360  143.5630 C   0  0  0  0  0  1  0  0  0  0  0  0
  188.0530  174.2790  142.3590 N   0  0  0  0  0  0  0  0  0  0  0  0
  189.0210  173.4300  142.3980 C   0  0  0  0  0  0  0  0  0  0  0  0
  189.8630  172.7530  138.6500 C   0  0  0  0  0  1  0  0  0  0  0  0
  189.7610  171.9180  140.2580 S   0  0  0  0  0  0  0  0  0  0  0  0
  191.6140  177.4050  143.0560 S   0  0  0  0  0  0  0  0  0  0  0  0
  194.7260  175.4920  146.5140 N   0  0  0  0  0  0  0  0  0  0  0  0
  193.3280  176.1490  144.8610 C   0  0  0  0  0  0  0  0  0  0  0  0
  193.9840  175.0910  145.3910 C   0  0  0  0  0  0  0  0  0  0  0  0
  193.0620  173.6290  143.7300 C   0  0  0  0  0  0  0  0  0  0  0  0
  194.5680  176.8750  146.7380 N   0  0  0  0  0  2  0  0  0  0  0  0
  192.3740  174.7290  143.1730 C   0  0  0  0  0  3  0  0  0  0  0  0
  193.6480  177.3480  145.6800 C   0  0  0  0  0  3  0  0  0  0  0  0
  193.8850  173.8080  144.8570 C   0  0  0  0  0  3  0  0  0  0  0  0
  192.5060  176.0080  143.7400 C   0  0  0  0  0  0  0  0  0  0  0  0
  192.9380  172.2850  143.1060 C   0  0  0  0  0  2  0  0  0  0  0  0
  194.2070  171.7650  142.8520 O   0  0  0  0  0  1  0  0  0  0  0  0
  1 14  1  6  0  0  0
  2  3  2  0  0  0  0
  2 14  1  0  0  0  0
  3  6  1  0  0  0  0
  4 11  1  0  0  0  0
  4  8  1  0  0  0  0
  5  1  1  0  0  0  0
  5 10  1  1  0  0  0
  6 11  2  0  0  0  0
  7  8  1  0  0  0  0
 10  7  2  0  0  0  0
 11  9  1  0  0  0  0
 12  5  1  0  0  0  0
 12  1  1  0  0  0  0
 13 12  1  0  0  0  0
 13  5  1  0  0  0  0
 14  4  2  0  0  0  0
 15 16  2  0  0  0  0
 16 17  1  0  0  0  0
 16 13  1  0  0  0  0
 18 20  1  0  0  0  0
 18 17  1  0  0  0  0
 19 20  2  0  0  0  0
 19 21  1  0  0  0  0
 20 23  1  0  0  0  0
 21 24  1  0  0  0  0
 23 24  2  0  0  0  0
 24 22  1  0  0  0  0
 25 26  1  0  0  0  0
 26 21  1  0  0  0  0
 27 36  1  0  0  0  0
 27  3  1  0  0  0  0
 28 32  1  0  0  0  0
 29 30  1  0  0  0  0
 29 34  2  0  0  0  0
 30 28  2  0  0  0  0
 31 35  2  0  0  0  0
 33 31  1  0  0  0  0
 33 36  2  0  0  0  0
 34 32  1  0  0  0  0
 35 30  1  0  0  0  0
 36 29  1  0  0  0  0
 37 31  1  0  0  0  0
 38 37  1  0  0  0  0
M  END
>  <MODEL>
8

>  <REMARK>
 VINA RESULT:      -7.4      2.329      3.423
  Name = 
  7 active torsions:
  status: ('A' for Active; 'I' for Inactive)
    1  A    between atoms: C_4  and  C_21
    2  A    between atoms: C_4  and  N_34
    3  A    between atoms: S_8  and  C_23
    4  A    between atoms: C_9  and  S_35
    5  A    between atoms: C_16  and  C_31
    6  A    between atoms: C_17  and  C_19
    7  A    between atoms: S_35  and  C_38
                            x       y       z     vdW  Elec       q    Type
                         _______ _______ _______ _____ _____    ______ ____

>  <TORSDO>
F 7

$$$$
=
 OpenBabel11062419233D

 38 44  0  0  1  0  0  0  0  0999 V2000
  188.2940  178.3130  143.5810 C   0  0  2  0  0  3  0  0  0  0  0  0
  188.7410  176.5640  145.3230 C   0  0  0  0  0  3  0  0  0  0  0  0
  188.3720  175.9070  146.5000 C   0  0  0  0  0  0  0  0  0  0  0  0
  186.6760  177.8790  145.4190 C   0  0  0  0  0  0  0  0  0  0  0  0
  187.1770  177.8510  142.6800 C   0  0  1  0  0  0  0  0  0  0  0  0
  187.1760  176.2390  147.1430 C   0  0  0  0  0  3  0  0  0  0  0  0
  185.6920  179.4740  143.5470 C   0  0  0  0  0  3  0  0  0  0  0  0
  185.7570  178.8680  144.8710 N   0  0  0  0  0  2  0  0  0  0  0  0
  185.1790  177.5250  147.2540 F   0  0  0  0  0  0  0  0  0  0  0  0
  186.3620  179.0310  142.5140 N   0  0  0  0  0  0  0  0  0  0  0  0
  186.3360  177.2250  146.6130 C   0  0  0  0  0  0  0  0  0  0  0  0
  188.6370  177.8640  142.1770 C   0  0  2  0  0  3  0  0  0  0  0  0
  187.5410  177.2400  141.3540 C   0  0  1  0  0  3  0  0  0  0  0  0
  187.9020  177.5400  144.7820 C   0  0  0  0  0  0  0  0  0  0  0  0
  186.8760  175.2300  142.4340 O   0  0  0  0  0  0  0  0  0  0  0  0
  187.5180  175.7460  141.4820 C   0  0  0  0  0  0  0  0  0  0  0  0
  188.2040  174.9150  140.5410 N   0  0  0  0  0  2  0  0  0  0  0  0
  188.2140  173.4650  140.6490 C   0  0  0  0  0  2  0  0  0  0  0  0
  189.3090  171.6790  139.3960 N   0  0  0  0  0  0  0  0  0  0  0  0
  188.8390  172.8820  139.4320 C   0  0  0  0  0  0  0  0  0  0  0  0
  189.7880  171.4420  138.0420 C   0  0  1  0  0  3  0  0  0  0  0  0
  189.6920  173.0490  135.9450 C   0  0  0  0  0  1  0  0  0  0  0  0
  188.9010  173.5700  138.1910 N   0  0  0  0  0  0  0  0  0  0  0  0
  189.4570  172.7380  137.3800 C   0  0  0  0  0  0  0  0  0  0  0  0
  191.4640  169.5870  137.2330 C   0  0  0  0  0  1  0  0  0  0  0  0
  191.5920  171.1930  138.0670 S   0  0  0  0  0  0  0  0  0  0  0  0
  189.4180  174.6130  147.1570 S   0  0  0  0  0  0  0  0  0  0  0  0
  193.7890  176.5320  145.5740 N   0  0  0  0  0  0  0  0  0  0  0  0
  191.7970  175.5860  146.0770 C   0  0  0  0  0  0  0  0  0  0  0  0
  192.7410  175.7160  145.1170 C   0  0  0  0  0  0  0  0  0  0  0  0
  191.4960  174.3000  143.6370 C   0  0  0  0  0  0  0  0  0  0  0  0
  193.5320  176.9720  146.8880 N   0  0  0  0  0  2  0  0  0  0  0  0
  190.5080  174.1580  144.6360 C   0  0  0  0  0  3  0  0  0  0  0  0
  192.2360  176.3660  147.2650 C   0  0  0  0  0  3  0  0  0  0  0  0
  192.6330  175.0940  143.8750 C   0  0  0  0  0  3  0  0  0  0  0  0
  190.6540  174.8100  145.8740 C   0  0  0  0  0  0  0  0  0  0  0  0
  191.3190  173.6310  142.3210 C   0  0  0  0  0  2  0  0  0  0  0  0
  191.5660  174.5400  141.2940 O   0  0  0  0  0  1  0  0  0  0  0  0
  1 14  1  1  0  0  0
  2  3  1  0  0  0  0
  3  6  2  0  0  0  0
  3 27  1  0  0  0  0
  4 11  2  0  0  0  0
  5 10  1  6  0  0  0
  5  1  1  0  0  0  0
  7  8  1  0  0  0  0
  8  4  1  0  0  0  0
 10  7  2  0  0  0  0
 11  6  1  0  0  0  0
 11  9  1  0  0  0  0
 12  5  1  0  0  0  0
 12  1  1  0  0  0  0
 13 16  1  0  0  0  0
 13 12  1  0  0  0  0
 13  5  1  0  0  0  0
 14  2  2  0  0  0  0
 14  4  1  0  0  0  0
 16 15  2  0  0  0  0
 17 18  1  0  0  0  0
 17 16  1  0  0  0  0
 19 20  2  0  0  0  0
 20 18  1  0  0  0  0
 21 26  1  0  0  0  0
 21 19  1  0  0  0  0
 22 24  1  0  0  0  0
 23 20  1  0  0  0  0
 24 21  1  0  0  0  0
 24 23  2  0  0  0  0
 25 26  1  0  0  0  0
 28 32  1  0  0  0  0
 29 34  2  0  0  0  0
 30 28  2  0  0  0  0
 30 29  1  0  0  0  0
 31 35  2  0  0  0  0
 31 33  1  0  0  0  0
 32 34  1  0  0  0  0
 33 36  2  0  0  0  0
 35 30  1  0  0  0  0
 36 29  1  0  0  0  0
 36 27  1  0  0  0  0
 37 31  1  0  0  0  0
 38 37  1  0  0  0  0
M  END
>  <MODEL>
9

>  <REMARK>
 VINA RESULT:      -7.2      1.568      2.128
  Name = 
  7 active torsions:
  status: ('A' for Active; 'I' for Inactive)
    1  A    between atoms: C_4  and  C_21
    2  A    between atoms: C_4  and  N_34
    3  A    between atoms: S_8  and  C_23
    4  A    between atoms: C_9  and  S_35
    5  A    between atoms: C_16  and  C_31
    6  A    between atoms: C_17  and  C_19
    7  A    between atoms: S_35  and  C_38
                            x       y       z     vdW  Elec       q    Type
                         _______ _______ _______ _____ _____    ______ ____

>  <TORSDO>
F 7

$$$$
