=
 OpenBabel11072409113D

 65 71  0  0  1  0  0  0  0  0999 V2000
  196.5400  173.9070  138.0070 C   0  0  0  0  0  0  0  0  0  0  0  0
  192.1470  173.3710  135.1710 C   0  0  0  0  0  2  0  0  0  0  0  0
  196.7840  174.3220  136.6940 N   0  0  0  0  0  0  0  0  0  0  0  0
  195.2240  173.4700  138.1380 N   0  0  0  0  0  0  0  0  0  0  0  0
  189.5290  172.9300  137.9720 C   0  0  1  0  0  3  0  0  0  0  0  0
  192.6970  170.9640  134.8890 C   0  0  0  0  0  3  0  0  0  0  0  0
  187.8790  175.8170  142.2970 C   0  0  0  0  0  2  0  0  0  0  0  0
  191.8800  176.1920  147.4230 C   0  0  1  0  0  3  0  0  0  0  0  0
  197.3790  173.9630  138.9450 O   0  0  0  0  0  0  0  0  0  0  0  0
  190.4880  176.5400  146.8920 C   0  0  0  0  0  2  0  0  0  0  0  0
  188.5290  171.8920  137.9170 N   0  0  0  0  0  2  0  0  0  0  0  0
  188.5060  171.4510  136.5770 N   0  0  0  0  0  2  0  0  0  0  0  0
  189.1200  176.9180  144.2110 C   0  0  0  0  0  2  0  0  0  0  0  0
  192.5970  174.1850  143.9370 C   0  0  0  0  0  2  0  0  0  0  0  0
  190.9290  171.8730  139.8350 C   0  0  0  0  0  2  0  0  0  0  0  0
  193.0480  172.2010  135.4420 C   0  0  0  0  0  0  0  0  0  0  0  0
  188.9320  175.8510  141.1960 C   0  0  0  0  0  2  0  0  0  0  0  0
  194.9510  174.1190  141.6670 C   0  0  1  0  0  3  0  0  0  0  0  0
  190.1380  173.0930  139.3730 C   0  0  2  0  0  3  0  0  0  0  0  0
  191.2390  173.7240  136.3520 C   0  0  0  0  0  2  0  0  0  0  0  0
  189.9240  175.5060  145.9190 C   0  0  2  0  0  3  0  0  0  0  0  0
  192.3390  172.2770  140.1280 C   0  0  0  0  0  3  0  0  0  0  0  0
  193.4990  169.8400  135.0910 C   0  0  0  0  0  0  0  0  0  0  0  0
  194.5200  173.2070  139.3980 C   0  0  2  0  0  3  0  0  0  0  0  0
  190.5160  172.5170  136.9440 C   0  0  2  0  0  3  0  0  0  0  0  0
  188.7190  176.0170  145.2860 N   0  0  0  0  0  2  0  0  0  0  0  0
  189.7200  171.8230  135.9520 N   0  0  0  0  0  2  0  0  0  0  0  0
  189.0940  173.4860  140.4090 C   0  0  0  0  0  2  0  0  0  0  0  0
  196.3430  174.2000  141.7440 O   0  0  0  0  0  1  0  0  0  0  0  0
  192.3860  174.1210  145.3230 O   0  0  0  0  0  0  0  0  0  0  0  0
  194.0830  174.2240  143.6980 C   0  0  2  0  0  3  0  0  0  0  0  0
  194.6620  169.9440  135.8570 C   0  0  0  0  0  3  0  0  0  0  0  0
  194.6240  174.8620  144.9370 C   0  0  1  0  0  3  0  0  0  0  0  0
  191.8770  175.0140  148.1830 O   0  0  0  0  0  1  0  0  0  0  0  0
  195.0240  171.1720  136.4130 C   0  0  0  0  0  3  0  0  0  0  0  0
  194.2190  172.3080  136.2260 C   0  0  0  0  0  0  0  0  0  0  0  0
  188.5540  174.8740  140.1000 C   0  0  0  0  0  2  0  0  0  0  0  0
  194.3760  175.0080  142.5780 O   0  0  0  0  0  0  0  0  0  0  0  0
  193.1200  172.7370  139.1500 C   0  0  0  0  0  3  0  0  0  0  0  0
  192.9920  176.2340  146.3580 C   0  0  2  0  0  3  0  0  0  0  0  0
  195.6600  174.1960  135.9290 O   0  0  0  0  0  0  0  0  0  0  0  0
  194.4990  174.4620  140.2600 C   0  0  0  0  0  2  0  0  0  0  0  0
  193.4520  174.8260  145.9140 C   0  0  1  0  0  3  0  0  0  0  0  0
  194.6610  173.6330  136.7910 C   0  0  2  0  0  3  0  0  0  0  0  0
  189.6090  174.3320  146.6090 O   0  0  0  0  0  1  0  0  0  0  0  0
  188.0160  177.0650  143.1650 C   0  0  2  0  0  3  0  0  0  0  0  0
  195.2440  177.2050  145.8680 C   0  0  0  0  0  2  0  0  0  0  0  0
  194.1590  177.0480  146.9160 C   0  0  0  0  0  3  0  0  0  0  0  0
  194.2950  178.3460  146.1390 C   0  0  0  0  0  2  0  0  0  0  0  0
  195.7730  174.0100  145.4580 C   0  0  0  0  0  2  0  0  0  0  0  0
  195.3040  172.6030  145.7690 C   0  0  0  0  0  2  0  0  0  0  0  0
  195.7430  171.7380  144.7660 O   0  0  0  0  0  1  0  0  0  0  0  0
  186.6850  177.5710  143.7450 C   0  0  1  0  0  3  0  0  0  0  0  0
  186.3410  178.3820  141.4070 O   0  0  0  0  0  0  0  0  0  0  0  0
  184.8970  179.0270  143.0710 O   0  0  0  0  0  1  0  0  0  0  0  0
  185.9040  178.3490  142.7290 C   0  0  0  0  0  0  0  0  0  0  0  0
  185.3260  176.8700  145.7240 C   0  0  0  0  0  1  0  0  0  0  0  0
  185.8370  176.4610  144.3570 C   0  0  0  0  0  2  0  0  0  0  0  0
  197.8000  175.3160  136.3830 C   0  0  0  0  0  2  0  0  0  0  0  0
  197.1740  176.5220  135.7610 C   0  0  0  0  0  3  0  0  0  0  0  0
  196.5940  176.4410  134.5660 C   0  0  0  0  0  2  0  0  0  0  0  0
  193.0960  168.5290  134.5140 C   0  0  0  0  0  2  0  0  0  0  0  0
  191.8370  168.1660  134.9950 O   0  0  0  0  0  0  0  0  0  0  0  0
  191.9740  168.1660  136.3420 N   0  0  0  0  0  2  0  0  0  0  0  0
  190.6810  168.5300  136.8950 C   0  0  0  0  0  1  0  0  0  0  0  0
  1  4  1  0  0  0  0
  1  9  2  0  0  0  0
  2 16  1  0  0  0  0
  2 20  1  0  0  0  0
  3  1  1  0  0  0  0
  4 24  1  0  0  0  0
  5 11  1  1  0  0  0
  5 19  1  0  0  0  0
  6 23  2  0  0  0  0
  6 16  1  0  0  0  0
  7 46  1  0  0  0  0
  8 34  1  6  0  0  0
 10  8  1  0  0  0  0
 12 11  1  0  0  0  0
 13 26  1  0  0  0  0
 14 30  1  0  0  0  0
 15 22  1  0  0  0  0
 16 36  2  0  0  0  0
 17  7  1  0  0  0  0
 18 29  1  6  0  0  0
 18 38  1  0  0  0  0
 19 15  1  1  0  0  0
 19 28  1  0  0  0  0
 21 45  1  1  0  0  0
 21 10  1  0  0  0  0
 23 32  1  0  0  0  0
 24 39  1  6  0  0  0
 24 42  1  0  0  0  0
 25 20  1  6  0  0  0
 25  5  1  0  0  0  0
 26 21  1  0  0  0  0
 27 12  1  0  0  0  0
 27 25  1  0  0  0  0
 31 14  1  1  0  0  0
 31 33  1  0  0  0  0
 32 35  2  0  0  0  0
 33 50  1  1  0  0  0
 33 43  1  0  0  0  0
 36 35  1  0  0  0  0
 36 44  1  0  0  0  0
 37 28  1  0  0  0  0
 37 17  1  0  0  0  0
 38 31  1  0  0  0  0
 39 22  2  0  0  0  0
 40 48  1  1  0  0  0
 40  8  1  0  0  0  0
 41  3  1  0  0  0  0
 42 18  1  0  0  0  0
 43 30  1  6  0  0  0
 43 40  1  0  0  0  0
 44 41  1  6  0  0  0
 44  4  1  0  0  0  0
 46 53  1  1  0  0  0
 46 13  1  0  0  0  0
 47 49  1  0  0  0  0
 47 48  1  0  0  0  0
 49 48  1  0  0  0  0
 50 51  1  0  0  0  0
 52 51  1  0  0  0  0
 53 58  1  6  0  0  0
 54 56  2  0  0  0  0
 56 55  1  0  0  0  0
 56 53  1  0  0  0  0
 58 57  1  0  0  0  0
 59  3  1  0  0  0  0
 60 59  1  0  0  0  0
 61 60  2  0  0  0  0
 62 63  1  0  0  0  0
 62 23  1  0  0  0  0
 63 64  1  0  0  0  0
 64 65  1  0  0  0  0
M  END
>  <MODEL>
1

>  <REMARK>
 VINA RESULT:      -5.4      0.000      0.000
  Name = 
  11 active torsions:
  status: ('A' for Active; 'I' for Inactive)
    1  A    between atoms: C_1  and  C_8
    2  A    between atoms: C_1  and  C_47
    3  A    between atoms: C_2  and  C_44
    4  A    between atoms: C_2  and  C_53
    5  A    between atoms: C_2  and  C_65
    6  A    between atoms: N_6  and  C_21
    7  A    between atoms: C_11  and  C_21
    8  A    between atoms: O_15  and  N_18
    9  A    between atoms: O_15  and  C_22
   10  A    between atoms: C_22  and  C_34
   11  A    between atoms: C_54  and  C_57
                            x       y       z     vdW  Elec       q    Type
                         _______ _______ _______ _____ _____    ______ ____

>  <TORSDO>
F 11

$$$$
=
 OpenBabel11072409113D

 65 71  0  0  1  0  0  0  0  0999 V2000
  187.4390  175.5370  136.6310 C   0  0  0  0  0  0  0  0  0  0  0  0
  186.6610  179.1210  140.3970 C   0  0  0  0  0  2  0  0  0  0  0  0
  187.2160  176.7860  136.0420 N   0  0  0  0  0  0  0  0  0  0  0  0
  187.3650  175.6380  138.0180 N   0  0  0  0  0  0  0  0  0  0  0  0
  187.9470  177.2070  143.4910 C   0  0  1  0  0  3  0  0  0  0  0  0
  184.2970  178.3700  140.5370 C   0  0  0  0  0  3  0  0  0  0  0  0
  192.6280  174.8310  144.9770 C   0  0  0  0  0  2  0  0  0  0  0  0
  194.2870  169.2580  142.0420 C   0  0  1  0  0  3  0  0  0  0  0  0
  187.7100  174.4820  135.9980 O   0  0  0  0  0  0  0  0  0  0  0  0
  194.6530  170.2480  143.1500 C   0  0  0  0  0  2  0  0  0  0  0  0
  187.2000  177.1740  144.7250 N   0  0  0  0  0  2  0  0  0  0  0  0
  186.2590  178.2200  144.6330 N   0  0  0  0  0  2  0  0  0  0  0  0
  194.1510  173.1600  143.8360 C   0  0  0  0  0  2  0  0  0  0  0  0
  190.9200  171.4590  141.3260 C   0  0  0  0  0  2  0  0  0  0  0  0
  187.5000  174.7770  142.8270 C   0  0  0  0  0  2  0  0  0  0  0  0
  185.5550  178.2120  139.9440 C   0  0  0  0  0  0  0  0  0  0  0  0
  191.9940  175.5270  143.7790 C   0  0  0  0  0  2  0  0  0  0  0  0
  189.4550  172.7950  138.7240 C   0  0  1  0  0  3  0  0  0  0  0  0
  188.5500  175.8430  143.1260 C   0  0  2  0  0  3  0  0  0  0  0  0
  187.6430  178.4480  141.3590 C   0  0  0  0  0  2  0  0  0  0  0  0
  193.4430  170.9120  143.8060 C   0  0  2  0  0  3  0  0  0  0  0  0
  187.7000  174.2590  141.4370 C   0  0  0  0  0  3  0  0  0  0  0  0
  183.2220  177.5670  140.1510 C   0  0  0  0  0  0  0  0  0  0  0  0
  187.7920  174.6210  138.9850 C   0  0  2  0  0  3  0  0  0  0  0  0
  186.9590  177.7000  142.5000 C   0  0  2  0  0  3  0  0  0  0  0  0
  193.8750  171.9970  144.6720 N   0  0  0  0  0  2  0  0  0  0  0  0
  186.0900  178.5660  143.2720 N   0  0  0  0  0  2  0  0  0  0  0  0
  189.5350  175.3520  144.1790 C   0  0  0  0  0  2  0  0  0  0  0  0
  189.2830  172.3620  137.4090 O   0  0  0  0  0  1  0  0  0  0  0  0
  191.4770  170.2600  141.7950 O   0  0  0  0  0  0  0  0  0  0  0  0
  190.5600  171.2660  139.8770 C   0  0  2  0  0  3  0  0  0  0  0  0
  183.4000  176.5910  139.1680 C   0  0  0  0  0  3  0  0  0  0  0  0
  191.5330  170.2310  139.4060 C   0  0  1  0  0  3  0  0  0  0  0  0
  193.5550  168.1660  142.5290 O   0  0  0  0  0  1  0  0  0  0  0  0
  184.6500  176.4250  138.5680 C   0  0  0  0  0  3  0  0  0  0  0  0
  185.7420  177.2200  138.9560 C   0  0  0  0  0  0  0  0  0  0  0  0
  190.7480  176.2690  144.2210 C   0  0  0  0  0  2  0  0  0  0  0  0
  190.7370  172.4580  139.1680 O   0  0  0  0  0  0  0  0  0  0  0  0
  187.5500  175.0720  140.3920 C   0  0  0  0  0  3  0  0  0  0  0  0
  193.6630  169.9080  140.7930 C   0  0  2  0  0  3  0  0  0  0  0  0
  187.0100  177.7410  136.9950 O   0  0  0  0  0  0  0  0  0  0  0  0
  189.2680  174.2990  138.7930 C   0  0  0  0  0  2  0  0  0  0  0  0
  192.1380  169.6790  140.6950 C   0  0  1  0  0  3  0  0  0  0  0  0
  187.0650  177.0570  138.2550 C   0  0  2  0  0  3  0  0  0  0  0  0
  192.7480  169.9720  144.5720 O   0  0  0  0  0  1  0  0  0  0  0  0
  194.0680  174.4570  144.6390 C   0  0  2  0  0  3  0  0  0  0  0  0
  194.7440  170.5000  138.6170 C   0  0  0  0  0  2  0  0  0  0  0  0
  194.3860  169.3670  139.5590 C   0  0  0  0  0  3  0  0  0  0  0  0
  195.8030  169.9120  139.5170 C   0  0  0  0  0  2  0  0  0  0  0  0
  190.7640  169.1420  138.6730 C   0  0  0  0  0  2  0  0  0  0  0  0
  191.4090  168.8310  137.3370 C   0  0  0  0  0  2  0  0  0  0  0  0
  190.8590  169.6570  136.3560 O   0  0  0  0  0  1  0  0  0  0  0  0
  195.0220  174.4950  145.8440 C   0  0  1  0  0  3  0  0  0  0  0  0
  197.0940  173.1180  146.0680 O   0  0  0  0  0  1  0  0  0  0  0  0
  197.0380  174.8770  144.5960 O   0  0  0  0  0  0  0  0  0  0  0  0
  196.4290  174.1690  145.4430 C   0  0  0  0  0  0  0  0  0  0  0  0
  194.8110  176.9800  145.6650 C   0  0  0  0  0  1  0  0  0  0  0  0
  194.9620  175.8100  146.6160 C   0  0  0  0  0  2  0  0  0  0  0  0
  187.7700  177.1260  134.7400 C   0  0  0  0  0  2  0  0  0  0  0  0
  189.2090  177.5030  134.8700 C   0  0  0  0  0  3  0  0  0  0  0  0
  190.1650  176.6490  134.5130 C   0  0  0  0  0  2  0  0  0  0  0  0
  181.8980  177.7350  140.8090 C   0  0  0  0  0  2  0  0  0  0  0  0
  180.9030  177.8890  139.8410 O   0  0  0  0  0  0  0  0  0  0  0  0
  179.9950  178.7140  140.4150 N   0  0  0  0  0  2  0  0  0  0  0  0
  180.3950  178.8760  141.8020 C   0  0  0  0  0  1  0  0  0  0  0  0
  1  4  1  0  0  0  0
  2 20  1  0  0  0  0
  3  1  1  0  0  0  0
  3 41  1  0  0  0  0
  4 44  1  0  0  0  0
  4 24  1  0  0  0  0
  5 11  1  1  0  0  0
  8 34  1  1  0  0  0
  8 10  1  0  0  0  0
  9  1  2  0  0  0  0
 10 21  1  0  0  0  0
 12 11  1  0  0  0  0
 13 46  1  0  0  0  0
 13 26  1  0  0  0  0
 14 30  1  0  0  0  0
 16  2  1  0  0  0  0
 16  6  2  0  0  0  0
 17 37  1  0  0  0  0
 17  7  1  0  0  0  0
 18 29  1  6  0  0  0
 18 42  1  0  0  0  0
 18 38  1  0  0  0  0
 19 15  1  1  0  0  0
 19  5  1  0  0  0  0
 19 28  1  0  0  0  0
 21 45  1  1  0  0  0
 21 26  1  0  0  0  0
 22 15  1  0  0  0  0
 23  6  1  0  0  0  0
 23 62  1  0  0  0  0
 24 42  1  1  0  0  0
 24 39  1  0  0  0  0
 25 20  1  6  0  0  0
 25 27  1  0  0  0  0
 25  5  1  0  0  0  0
 27 12  1  0  0  0  0
 28 37  1  0  0  0  0
 31 14  1  1  0  0  0
 32 23  2  0  0  0  0
 33 50  1  1  0  0  0
 33 31  1  0  0  0  0
 33 43  1  0  0  0  0
 35 36  2  0  0  0  0
 35 32  1  0  0  0  0
 36 16  1  0  0  0  0
 38 31  1  0  0  0  0
 39 22  2  0  0  0  0
 40 48  1  6  0  0  0
 40  8  1  0  0  0  0
 43 40  1  0  0  0  0
 43 30  1  1  0  0  0
 44 41  1  6  0  0  0
 44 36  1  0  0  0  0
 46  7  1  0  0  0  0
 46 53  1  1  0  0  0
 47 49  1  0  0  0  0
 47 48  1  0  0  0  0
 49 48  1  0  0  0  0
 51 50  1  0  0  0  0
 52 51  1  0  0  0  0
 53 58  1  6  0  0  0
 55 56  2  0  0  0  0
 56 53  1  0  0  0  0
 56 54  1  0  0  0  0
 57 58  1  0  0  0  0
 59 60  1  0  0  0  0
 59  3  1  0  0  0  0
 61 60  2  0  0  0  0
 63 64  1  0  0  0  0
 63 62  1  0  0  0  0
 64 65  1  0  0  0  0
M  END
>  <MODEL>
2

>  <REMARK>
 VINA RESULT:      -2.8      3.668      9.340
  Name = 
  11 active torsions:
  status: ('A' for Active; 'I' for Inactive)
    1  A    between atoms: C_1  and  C_8
    2  A    between atoms: C_1  and  C_47
    3  A    between atoms: C_2  and  C_44
    4  A    between atoms: C_2  and  C_53
    5  A    between atoms: C_2  and  C_65
    6  A    between atoms: N_6  and  C_21
    7  A    between atoms: C_11  and  C_21
    8  A    between atoms: O_15  and  N_18
    9  A    between atoms: O_15  and  C_22
   10  A    between atoms: C_22  and  C_34
   11  A    between atoms: C_54  and  C_57
                            x       y       z     vdW  Elec       q    Type
                         _______ _______ _______ _____ _____    ______ ____

>  <TORSDO>
F 11

$$$$
