=
 OpenBabel11062421523D

 37 40  0  0  1  0  0  0  0  0999 V2000
  189.0790  175.3980  145.5680 C   0  0  0  0  0  0  0  0  0  0  0  0
  187.8520  175.6580  147.5580 O   0  0  0  0  0  1  0  0  0  0  0  0
  189.5230  174.0760  145.5220 C   0  0  0  0  0  3  0  0  0  0  0  0
  192.7880  174.5780  143.5830 C   0  0  0  0  0  3  0  0  0  0  0  0
  192.4820  172.1560  144.3100 N   0  0  0  0  0  0  0  0  0  0  0  0
  191.2230  172.4540  144.8480 N   0  0  0  0  0  0  0  0  0  0  0  0
  189.8030  176.4080  144.9940 C   0  0  0  0  0  0  0  0  0  0  0  0
  194.5470  172.8510  143.3690 C   0  0  0  0  0  2  0  0  0  0  0  0
  191.4990  174.8420  144.3080 C   0  0  0  0  0  0  0  0  0  0  0  0
  190.7430  173.7960  144.8880 C   0  0  0  0  0  0  0  0  0  0  0  0
  187.8250  175.8850  146.1800 C   0  0  1  0  0  3  0  0  0  0  0  0
  187.8450  177.4090  145.9120 C   0  0  1  0  0  3  0  0  0  0  0  0
  193.3160  173.1780  143.7620 C   0  0  0  0  0  0  0  0  0  0  0  0
  189.1350  177.7170  145.1210 C   0  0  0  0  0  2  0  0  0  0  0  0
  191.0150  176.1580  144.3530 C   0  0  0  0  0  3  0  0  0  0  0  0
  196.7830  175.6460  143.6000 C   0  0  0  0  0  0  0  0  0  0  0  0
  196.3720  174.4480  143.8560 C   0  0  0  0  0  0  0  0  0  0  0  0
  195.6850  175.4110  141.1110 C   0  0  0  0  0  2  0  0  0  0  0  0
  197.4170  177.8620  143.5110 F   0  0  0  0  0  0  0  0  0  0  0  0
  196.9180  176.7450  142.9310 C   0  0  0  0  0  0  0  0  0  0  0  0
  195.5160  173.8260  142.7720 C   0  0  2  0  0  3  0  0  0  0  0  0
  196.1950  176.7990  141.6030 C   0  0  0  0  0  2  0  0  0  0  0  0
  194.8010  174.8190  142.0450 O   0  0  0  0  0  0  0  0  0  0  0  0
  196.7940  173.7540  144.9840 O   0  0  0  0  0  1  0  0  0  0  0  0
  185.4900  176.8220  145.1700 C   0  0  0  0  0  1  0  0  0  0  0  0
  185.9800  179.0540  146.0840 C   0  0  0  0  0  1  0  0  0  0  0  0
  186.5480  177.9230  145.2330 C   0  0  0  0  0  0  0  0  0  0  0  0
  186.3010  179.7910  143.6830 O   0  0  0  0  0  1  0  0  0  0  0  0
  186.8310  178.5020  143.8240 C   0  0  2  0  0  3  0  0  0  0  0  0
  186.4100  177.6100  142.6430 C   0  0  1  0  0  3  0  0  0  0  0  0
  185.8140  177.9150  140.3040 C   0  0  0  0  0  1  0  0  0  0  0  0
  184.1540  177.9200  141.9650 C   0  0  0  0  0  1  0  0  0  0  0  0
  185.5290  178.2990  141.6820 N   0  0  0  0  0  0  0  0  0  0  0  0
  188.5900  177.4830  141.6320 O   0  0  0  0  0  0  0  0  0  0  0  0
  187.5640  176.8620  142.0250 C   0  0  0  0  0  0  0  0  0  0  0  0
  187.4660  175.4790  141.8660 O   0  0  0  0  0  0  0  0  0  0  0  0
  188.6140  174.6450  141.8540 C   0  0  0  0  0  1  0  0  0  0  0  0
  1 11  1  0  0  0  0
  3  1  1  0  0  0  0
  4 13  2  0  0  0  0
  4  9  1  0  0  0  0
  5  6  2  0  0  0  0
  6 10  1  0  0  0  0
  7 14  1  0  0  0  0
  7  1  2  0  0  0  0
  8 13  1  0  0  0  0
  9 15  2  0  0  0  0
  9 10  1  0  0  0  0
 10  3  2  0  0  0  0
 11  2  1  1  0  0  0
 12 27  1  6  0  0  0
 12 11  1  0  0  0  0
 13  5  1  0  0  0  0
 14 12  1  0  0  0  0
 15  7  1  0  0  0  0
 16 17  2  0  0  0  0
 17 24  1  0  0  0  0
 18 22  1  0  0  0  0
 18 23  1  0  0  0  0
 20 19  1  0  0  0  0
 20 16  2  0  0  0  0
 21  8  1  1  0  0  0
 21 17  1  0  0  0  0
 22 20  1  0  0  0  0
 23 21  1  0  0  0  0
 25 27  1  0  0  0  0
 27 26  1  0  0  0  0
 29 28  1  6  0  0  0
 29 27  1  0  0  0  0
 30 35  1  6  0  0  0
 30 29  1  0  0  0  0
 31 33  1  0  0  0  0
 33 32  1  0  0  0  0
 33 30  1  0  0  0  0
 34 35  2  0  0  0  0
 36 35  1  0  0  0  0
 37 36  1  0  0  0  0
M  END
>  <MODEL>
1

>  <REMARK>
 VINA RESULT:      -7.5      0.000      0.000
  Name = 
  7 active torsions:
  status: ('A' for Active; 'I' for Inactive)
    1  A    between atoms: O_2  and  C_16
    2  A    between atoms: C_6  and  C_16
    3  A    between atoms: C_6  and  N_23
    4  A    between atoms: C_6  and  C_25
    5  A    between atoms: C_20  and  C_26
    6  A    between atoms: C_25  and  C_28
    7  A    between atoms: C_28  and  C_34
                            x       y       z     vdW  Elec       q    Type
                         _______ _______ _______ _____ _____    ______ ____

>  <TORSDO>
F 7

$$$$
=
 OpenBabel11062421523D

 37 40  0  0  1  0  0  0  0  0999 V2000
  191.6040  173.2860  144.2010 C   0  0  0  0  0  0  0  0  0  0  0  0
  192.2480  171.0240  144.1670 O   0  0  0  0  0  1  0  0  0  0  0  0
  191.0140  173.5330  145.4400 C   0  0  0  0  0  3  0  0  0  0  0  0
  188.5240  176.2590  144.4180 C   0  0  0  0  0  3  0  0  0  0  0  0
  188.2780  175.6260  146.8720 N   0  0  0  0  0  0  0  0  0  0  0  0
  189.3650  174.7460  146.7760 N   0  0  0  0  0  0  0  0  0  0  0  0
  191.2160  173.9730  143.0820 C   0  0  0  0  0  0  0  0  0  0  0  0
  186.6760  177.0530  145.8580 C   0  0  0  0  0  2  0  0  0  0  0  0
  189.5820  175.1930  144.3640 C   0  0  0  0  0  0  0  0  0  0  0  0
  189.9940  174.4940  145.5220 C   0  0  0  0  0  0  0  0  0  0  0  0
  192.6910  172.3250  143.9180 C   0  0  1  0  0  3  0  0  0  0  0  0
  192.9560  172.4940  142.4040 C   0  0  1  0  0  3  0  0  0  0  0  0
  187.7800  176.3180  145.7260 C   0  0  0  0  0  0  0  0  0  0  0  0
  191.9950  173.5880  141.8900 C   0  0  0  0  0  2  0  0  0  0  0  0
  190.2090  174.9370  143.1360 C   0  0  0  0  0  3  0  0  0  0  0  0
  184.0000  178.9620  144.4230 C   0  0  0  0  0  0  0  0  0  0  0  0
  184.9510  178.7220  145.2650 C   0  0  0  0  0  0  0  0  0  0  0  0
  185.4490  177.6360  142.5260 C   0  0  0  0  0  2  0  0  0  0  0  0
  182.0660  179.3220  143.2180 F   0  0  0  0  0  0  0  0  0  0  0  0
  183.3490  178.8960  143.3080 C   0  0  0  0  0  0  0  0  0  0  0  0
  186.0570  177.8320  144.7380 C   0  0  2  0  0  3  0  0  0  0  0  0
  183.9710  178.0320  142.2320 C   0  0  0  0  0  2  0  0  0  0  0  0
  185.5680  176.9320  143.7490 O   0  0  0  0  0  0  0  0  0  0  0  0
  185.0000  179.3420  146.5080 O   0  0  0  0  0  1  0  0  0  0  0  0
  195.3630  171.9440  142.9880 C   0  0  0  0  0  1  0  0  0  0  0  0
  194.7110  172.3030  140.6430 C   0  0  0  0  0  1  0  0  0  0  0  0
  194.4500  172.7590  142.0750 C   0  0  0  0  0  0  0  0  0  0  0  0
  195.3930  174.7170  140.9660 O   0  0  0  0  0  1  0  0  0  0  0  0
  194.7920  174.2680  142.1490 C   0  0  2  0  0  3  0  0  0  0  0  0
  195.6170  174.7020  143.3740 C   0  0  1  0  0  3  0  0  0  0  0  0
  196.8940  176.7670  143.2300 C   0  0  0  0  0  1  0  0  0  0  0  0
  197.9410  174.7640  143.8660 C   0  0  0  0  0  1  0  0  0  0  0  0
  196.9040  175.3240  143.0140 N   0  0  0  0  0  0  0  0  0  0  0  0
  195.0700  175.3500  145.6260 O   0  0  0  0  0  0  0  0  0  0  0  0
  194.8070  175.4590  144.3960 C   0  0  0  0  0  0  0  0  0  0  0  0
  193.7450  176.2530  143.9630 O   0  0  0  0  0  0  0  0  0  0  0  0
  192.8630  176.8860  144.8780 C   0  0  0  0  0  1  0  0  0  0  0  0
  1  3  1  0  0  0  0
  3 10  2  0  0  0  0
  4 13  2  0  0  0  0
  6  5  2  0  0  0  0
  7 15  1  0  0  0  0
  7  1  2  0  0  0  0
  9  4  1  0  0  0  0
  9 10  1  0  0  0  0
 10  6  1  0  0  0  0
 11  2  1  6  0  0  0
 11  1  1  0  0  0  0
 12 27  1  1  0  0  0
 12 11  1  0  0  0  0
 13  8  1  0  0  0  0
 13  5  1  0  0  0  0
 14 12  1  0  0  0  0
 14  7  1  0  0  0  0
 15  9  2  0  0  0  0
 16 17  2  0  0  0  0
 17 24  1  0  0  0  0
 18 23  1  0  0  0  0
 19 20  1  0  0  0  0
 20 16  2  0  0  0  0
 21 17  1  0  0  0  0
 21  8  1  1  0  0  0
 22 18  1  0  0  0  0
 22 20  1  0  0  0  0
 23 21  1  0  0  0  0
 26 27  1  0  0  0  0
 27 29  1  0  0  0  0
 27 25  1  0  0  0  0
 29 28  1  6  0  0  0
 29 30  1  0  0  0  0
 30 35  1  6  0  0  0
 33 31  1  0  0  0  0
 33 30  1  0  0  0  0
 33 32  1  0  0  0  0
 35 34  2  0  0  0  0
 36 35  1  0  0  0  0
 36 37  1  0  0  0  0
M  END
>  <MODEL>
2

>  <REMARK>
 VINA RESULT:      -7.3      3.396      9.248
  Name = 
  7 active torsions:
  status: ('A' for Active; 'I' for Inactive)
    1  A    between atoms: O_2  and  C_16
    2  A    between atoms: C_6  and  C_16
    3  A    between atoms: C_6  and  N_23
    4  A    between atoms: C_6  and  C_25
    5  A    between atoms: C_20  and  C_26
    6  A    between atoms: C_25  and  C_28
    7  A    between atoms: C_28  and  C_34
                            x       y       z     vdW  Elec       q    Type
                         _______ _______ _______ _____ _____    ______ ____

>  <TORSDO>
F 7

$$$$
=
 OpenBabel11062421523D

 37 40  0  0  1  0  0  0  0  0999 V2000
  192.7270  174.7610  144.8430 C   0  0  0  0  0  0  0  0  0  0  0  0
  193.8570  172.7730  144.2910 O   0  0  0  0  0  1  0  0  0  0  0  0
  191.9020  174.4830  145.9330 C   0  0  0  0  0  3  0  0  0  0  0  0
  189.0690  176.9610  145.2240 C   0  0  0  0  0  3  0  0  0  0  0  0
  188.5720  175.5140  147.2600 N   0  0  0  0  0  0  0  0  0  0  0  0
  189.8280  174.9010  147.1570 N   0  0  0  0  0  0  0  0  0  0  0  0
  192.3840  175.7110  143.9200 C   0  0  0  0  0  0  0  0  0  0  0  0
  186.8800  176.9230  146.3760 C   0  0  0  0  0  2  0  0  0  0  0  0
  190.3310  176.1570  145.0990 C   0  0  0  0  0  0  0  0  0  0  0  0
  190.6940  175.1860  146.0610 C   0  0  0  0  0  0  0  0  0  0  0  0
  194.0320  174.1350  144.5440 C   0  0  1  0  0  3  0  0  0  0  0  0
  194.4970  174.8410  143.2480 C   0  0  1  0  0  3  0  0  0  0  0  0
  188.1260  176.4610  146.2870 C   0  0  0  0  0  0  0  0  0  0  0  0
  193.4140  175.8750  142.8760 C   0  0  0  0  0  2  0  0  0  0  0  0
  191.1930  176.4280  144.0260 C   0  0  0  0  0  3  0  0  0  0  0  0
  184.1210  178.7700  145.0170 C   0  0  0  0  0  0  0  0  0  0  0  0
  184.9550  178.4140  145.9370 C   0  0  0  0  0  0  0  0  0  0  0  0
  186.0980  178.3720  143.1760 C   0  0  0  0  0  2  0  0  0  0  0  0
  182.3690  179.2070  143.5820 F   0  0  0  0  0  0  0  0  0  0  0  0
  183.6820  178.9740  143.8180 C   0  0  0  0  0  0  0  0  0  0  0  0
  186.2940  177.9230  145.4260 C   0  0  2  0  0  3  0  0  0  0  0  0
  184.6340  178.6130  142.6980 C   0  0  0  0  0  2  0  0  0  0  0  0
  186.1690  177.3330  144.1360 O   0  0  0  0  0  0  0  0  0  0  0  0
  184.6760  178.5920  147.2870 O   0  0  0  0  0  1  0  0  0  0  0  0
  195.9000  176.8090  144.0230 C   0  0  0  0  0  1  0  0  0  0  0  0
  196.7560  174.5140  144.2500 C   0  0  0  0  0  1  0  0  0  0  0  0
  195.9270  175.4330  143.3590 C   0  0  0  0  0  0  0  0  0  0  0  0
  196.7610  176.8150  141.5290 O   0  0  0  0  0  1  0  0  0  0  0  0
  196.6290  175.4960  141.9790 C   0  0  2  0  0  3  0  0  0  0  0  0
  196.0150  174.6070  140.8820 C   0  0  1  0  0  3  0  0  0  0  0  0
  196.7020  174.9130  138.5690 C   0  0  0  0  0  1  0  0  0  0  0  0
  194.4320  175.0240  139.1600 C   0  0  0  0  0  1  0  0  0  0  0  0
  195.7780  175.3280  139.6190 N   0  0  0  0  0  0  0  0  0  0  0  0
  197.9410  173.1700  141.0070 O   0  0  0  0  0  0  0  0  0  0  0  0
  196.7130  173.2790  140.7360 C   0  0  0  0  0  0  0  0  0  0  0  0
  195.9890  172.1820  140.2680 O   0  0  0  0  0  0  0  0  0  0  0  0
  194.8900  171.6470  140.9900 C   0  0  0  0  0  1  0  0  0  0  0  0
  1  3  1  0  0  0  0
  3 10  2  0  0  0  0
  4 13  2  0  0  0  0
  6  5  2  0  0  0  0
  7 15  1  0  0  0  0
  7  1  2  0  0  0  0
  9  4  1  0  0  0  0
  9 10  1  0  0  0  0
 10  6  1  0  0  0  0
 11  2  1  6  0  0  0
 11  1  1  0  0  0  0
 12 27  1  1  0  0  0
 12 11  1  0  0  0  0
 13  8  1  0  0  0  0
 13  5  1  0  0  0  0
 14 12  1  0  0  0  0
 14  7  1  0  0  0  0
 15  9  2  0  0  0  0
 16 17  2  0  0  0  0
 17 24  1  0  0  0  0
 18 23  1  0  0  0  0
 19 20  1  0  0  0  0
 20 16  2  0  0  0  0
 21 17  1  0  0  0  0
 21  8  1  1  0  0  0
 22 18  1  0  0  0  0
 22 20  1  0  0  0  0
 23 21  1  0  0  0  0
 27 25  1  0  0  0  0
 27 26  1  0  0  0  0
 29 28  1  6  0  0  0
 29 27  1  0  0  0  0
 30 35  1  6  0  0  0
 30 29  1  0  0  0  0
 31 33  1  0  0  0  0
 32 33  1  0  0  0  0
 33 30  1  0  0  0  0
 35 34  2  0  0  0  0
 36 35  1  0  0  0  0
 36 37  1  0  0  0  0
M  END
>  <MODEL>
3

>  <REMARK>
 VINA RESULT:      -7.2      3.445      9.237
  Name = 
  7 active torsions:
  status: ('A' for Active; 'I' for Inactive)
    1  A    between atoms: O_2  and  C_16
    2  A    between atoms: C_6  and  C_16
    3  A    between atoms: C_6  and  N_23
    4  A    between atoms: C_6  and  C_25
    5  A    between atoms: C_20  and  C_26
    6  A    between atoms: C_25  and  C_28
    7  A    between atoms: C_28  and  C_34
                            x       y       z     vdW  Elec       q    Type
                         _______ _______ _______ _____ _____    ______ ____

>  <TORSDO>
F 7

$$$$
=
 OpenBabel11062421523D

 37 40  0  0  1  0  0  0  0  0999 V2000
  191.9580  175.8580  143.1850 C   0  0  0  0  0  0  0  0  0  0  0  0
  193.8700  176.4630  141.9560 O   0  0  0  0  0  1  0  0  0  0  0  0
  190.9460  175.5700  142.2680 C   0  0  0  0  0  3  0  0  0  0  0  0
  187.9010  176.6200  144.3400 C   0  0  0  0  0  3  0  0  0  0  0  0
  187.2410  175.8980  141.9890 N   0  0  0  0  0  0  0  0  0  0  0  0
  188.5700  175.5590  141.6970 N   0  0  0  0  0  0  0  0  0  0  0  0
  191.6670  176.3670  144.4220 C   0  0  0  0  0  0  0  0  0  0  0  0
  185.6270  176.9020  143.4090 C   0  0  0  0  0  2  0  0  0  0  0  0
  189.3150  176.3690  143.9010 C   0  0  0  0  0  0  0  0  0  0  0  0
  189.6150  175.8290  142.6280 C   0  0  0  0  0  0  0  0  0  0  0  0
  193.4080  175.6490  142.9920 C   0  0  1  0  0  3  0  0  0  0  0  0
  194.0340  176.1150  144.3280 C   0  0  1  0  0  3  0  0  0  0  0  0
  186.8850  176.4990  143.2350 C   0  0  0  0  0  0  0  0  0  0  0  0
  192.8760  176.5590  145.2460 C   0  0  0  0  0  2  0  0  0  0  0  0
  190.3530  176.6290  144.8080 C   0  0  0  0  0  3  0  0  0  0  0  0
  185.7560  179.4200  145.9600 C   0  0  0  0  0  0  0  0  0  0  0  0
  185.5980  178.9750  144.7570 C   0  0  0  0  0  0  0  0  0  0  0  0
  184.7130  177.0720  146.8850 C   0  0  0  0  0  2  0  0  0  0  0  0
  186.3720  180.3640  147.9730 F   0  0  0  0  0  0  0  0  0  0  0  0
  185.7700  179.3870  147.2530 C   0  0  0  0  0  0  0  0  0  0  0  0
  185.1240  177.5390  144.6680 C   0  0  2  0  0  3  0  0  0  0  0  0
  185.3820  178.0670  147.8810 C   0  0  0  0  0  2  0  0  0  0  0  0
  185.5630  176.7800  145.7900 O   0  0  0  0  0  0  0  0  0  0  0  0
  185.7350  179.8000  143.6470 O   0  0  0  0  0  1  0  0  0  0  0  0
  196.4150  175.2510  144.4970 C   0  0  0  0  0  1  0  0  0  0  0  0
  194.9510  175.2390  146.4740 C   0  0  0  0  0  1  0  0  0  0  0  0
  194.9730  175.0530  144.9610 C   0  0  0  0  0  0  0  0  0  0  0  0
  193.8110  173.0630  145.7630 O   0  0  0  0  0  1  0  0  0  0  0  0
  194.4860  173.6120  144.6660 C   0  0  2  0  0  3  0  0  0  0  0  0
  195.5640  172.6400  144.1510 C   0  0  1  0  0  3  0  0  0  0  0  0
  195.4500  170.2240  144.4030 C   0  0  0  0  0  1  0  0  0  0  0  0
  197.1910  171.4420  145.4020 C   0  0  0  0  0  1  0  0  0  0  0  0
  195.7810  171.4900  145.0470 N   0  0  0  0  0  0  0  0  0  0  0  0
  194.2480  172.2300  142.1790 O   0  0  0  0  0  0  0  0  0  0  0  0
  195.3990  172.2910  142.6940 C   0  0  0  0  0  0  0  0  0  0  0  0
  196.5330  172.0060  141.9340 O   0  0  0  0  0  0  0  0  0  0  0  0
  197.7220  172.7740  142.0460 C   0  0  0  0  0  1  0  0  0  0  0  0
  1  7  1  0  0  0  0
  3 10  1  0  0  0  0
  3  1  2  0  0  0  0
  5 13  1  0  0  0  0
  6  5  2  0  0  0  0
  6 10  1  0  0  0  0
  7 15  2  0  0  0  0
  7 14  1  0  0  0  0
  9  4  1  0  0  0  0
  9 15  1  0  0  0  0
 10  9  2  0  0  0  0
 11  2  1  6  0  0  0
 11  1  1  0  0  0  0
 11 12  1  0  0  0  0
 12 27  1  1  0  0  0
 12 14  1  0  0  0  0
 13  8  1  0  0  0  0
 13  4  2  0  0  0  0
 16 20  2  0  0  0  0
 17 16  2  0  0  0  0
 18 22  1  0  0  0  0
 20 22  1  0  0  0  0
 20 19  1  0  0  0  0
 21  8  1  6  0  0  0
 21 17  1  0  0  0  0
 21 23  1  0  0  0  0
 23 18  1  0  0  0  0
 24 17  1  0  0  0  0
 25 27  1  0  0  0  0
 27 26  1  0  0  0  0
 29 27  1  0  0  0  0
 29 28  1  1  0  0  0
 30 35  1  6  0  0  0
 30 29  1  0  0  0  0
 30 33  1  0  0  0  0
 31 33  1  0  0  0  0
 33 32  1  0  0  0  0
 34 35  2  0  0  0  0
 36 37  1  0  0  0  0
 36 35  1  0  0  0  0
M  END
>  <MODEL>
4

>  <REMARK>
 VINA RESULT:      -7.2      3.067      9.337
  Name = 
  7 active torsions:
  status: ('A' for Active; 'I' for Inactive)
    1  A    between atoms: O_2  and  C_16
    2  A    between atoms: C_6  and  C_16
    3  A    between atoms: C_6  and  N_23
    4  A    between atoms: C_6  and  C_25
    5  A    between atoms: C_20  and  C_26
    6  A    between atoms: C_25  and  C_28
    7  A    between atoms: C_28  and  C_34
                            x       y       z     vdW  Elec       q    Type
                         _______ _______ _______ _____ _____    ______ ____

>  <TORSDO>
F 7

$$$$
=
 OpenBabel11062421523D

 37 40  0  0  1  0  0  0  0  0999 V2000
  191.8130  175.3870  142.9560 C   0  0  0  0  0  0  0  0  0  0  0  0
  193.8060  175.9620  141.8490 O   0  0  0  0  0  1  0  0  0  0  0  0
  190.7940  175.3800  142.0040 C   0  0  0  0  0  3  0  0  0  0  0  0
  187.8500  176.4160  144.2260 C   0  0  0  0  0  3  0  0  0  0  0  0
  187.1580  176.1860  141.7860 N   0  0  0  0  0  0  0  0  0  0  0  0
  188.4440  175.7470  141.4410 N   0  0  0  0  0  0  0  0  0  0  0  0
  191.5590  175.7100  144.2620 C   0  0  0  0  0  0  0  0  0  0  0  0
  185.6430  177.1180  143.3570 C   0  0  0  0  0  2  0  0  0  0  0  0
  189.2350  176.0780  143.7500 C   0  0  0  0  0  0  0  0  0  0  0  0
  189.4950  175.7300  142.4040 C   0  0  0  0  0  0  0  0  0  0  0  0
  193.2330  175.0440  142.7300 C   0  0  1  0  0  3  0  0  0  0  0  0
  193.8820  175.2000  144.1260 C   0  0  1  0  0  3  0  0  0  0  0  0
  186.8500  176.6050  143.1160 C   0  0  0  0  0  0  0  0  0  0  0  0
  192.7650  175.6150  145.1070 C   0  0  0  0  0  2  0  0  0  0  0  0
  190.2770  176.0560  144.6880 C   0  0  0  0  0  3  0  0  0  0  0  0
  185.7880  179.3750  146.1410 C   0  0  0  0  0  0  0  0  0  0  0  0
  185.5710  179.0400  144.9120 C   0  0  0  0  0  0  0  0  0  0  0  0
  184.9830  176.8740  146.8860 C   0  0  0  0  0  2  0  0  0  0  0  0
  186.4860  180.1600  148.1950 F   0  0  0  0  0  0  0  0  0  0  0  0
  185.9010  179.2160  147.4200 C   0  0  0  0  0  0  0  0  0  0  0  0
  185.1930  177.5870  144.7070 C   0  0  2  0  0  3  0  0  0  0  0  0
  185.6540  177.8140  147.9330 C   0  0  0  0  0  2  0  0  0  0  0  0
  185.7660  176.7580  145.7120 O   0  0  0  0  0  0  0  0  0  0  0  0
  185.5670  179.9790  143.8880 O   0  0  0  0  0  1  0  0  0  0  0  0
  195.6350  173.4860  143.4680 C   0  0  0  0  0  1  0  0  0  0  0  0
  195.5230  174.3160  145.7820 C   0  0  0  0  0  1  0  0  0  0  0  0
  194.6780  173.9430  144.5680 C   0  0  0  0  0  0  0  0  0  0  0  0
  194.2150  172.1330  146.1380 O   0  0  0  0  0  1  0  0  0  0  0  0
  193.7350  172.7910  144.9990 C   0  0  2  0  0  3  0  0  0  0  0  0
  193.3790  171.7780  143.8960 C   0  0  1  0  0  3  0  0  0  0  0  0
  193.0570  169.4300  144.4450 C   0  0  0  0  0  1  0  0  0  0  0  0
  194.6410  170.0680  142.8340 C   0  0  0  0  0  1  0  0  0  0  0  0
  194.0210  170.4650  144.0880 N   0  0  0  0  0  0  0  0  0  0  0  0
  191.5010  171.5310  142.4120 O   0  0  0  0  0  0  0  0  0  0  0  0
  191.9030  171.7270  143.5930 C   0  0  0  0  0  0  0  0  0  0  0  0
  190.9920  171.9310  144.6300 O   0  0  0  0  0  0  0  0  0  0  0  0
  189.6790  172.4120  144.3880 C   0  0  0  0  0  1  0  0  0  0  0  0
  1  7  1  0  0  0  0
  3 10  1  0  0  0  0
  3  1  2  0  0  0  0
  5 13  1  0  0  0  0
  6  5  2  0  0  0  0
  6 10  1  0  0  0  0
  7 15  2  0  0  0  0
  7 14  1  0  0  0  0
  9  4  1  0  0  0  0
  9 15  1  0  0  0  0
 10  9  2  0  0  0  0
 11  2  1  6  0  0  0
 11  1  1  0  0  0  0
 11 12  1  0  0  0  0
 12 27  1  1  0  0  0
 12 14  1  0  0  0  0
 13  8  1  0  0  0  0
 13  4  2  0  0  0  0
 16 20  2  0  0  0  0
 17 16  2  0  0  0  0
 18 22  1  0  0  0  0
 20 22  1  0  0  0  0
 20 19  1  0  0  0  0
 21  8  1  6  0  0  0
 21 17  1  0  0  0  0
 21 23  1  0  0  0  0
 23 18  1  0  0  0  0
 24 17  1  0  0  0  0
 25 27  1  0  0  0  0
 27 29  1  0  0  0  0
 27 26  1  0  0  0  0
 29 28  1  1  0  0  0
 30 35  1  1  0  0  0
 30 33  1  0  0  0  0
 30 29  1  0  0  0  0
 32 33  1  0  0  0  0
 33 31  1  0  0  0  0
 34 35  2  0  0  0  0
 35 36  1  0  0  0  0
 37 36  1  0  0  0  0
M  END
>  <MODEL>
5

>  <REMARK>
 VINA RESULT:      -7.2      2.993      8.927
  Name = 
  7 active torsions:
  status: ('A' for Active; 'I' for Inactive)
    1  A    between atoms: O_2  and  C_16
    2  A    between atoms: C_6  and  C_16
    3  A    between atoms: C_6  and  N_23
    4  A    between atoms: C_6  and  C_25
    5  A    between atoms: C_20  and  C_26
    6  A    between atoms: C_25  and  C_28
    7  A    between atoms: C_28  and  C_34
                            x       y       z     vdW  Elec       q    Type
                         _______ _______ _______ _____ _____    ______ ____

>  <TORSDO>
F 7

$$$$
=
 OpenBabel11062421523D

 37 40  0  0  1  0  0  0  0  0999 V2000
  193.2160  174.3090  141.1090 C   0  0  0  0  0  0  0  0  0  0  0  0
  194.3700  173.8420  139.1130 O   0  0  0  0  0  1  0  0  0  0  0  0
  192.0380  173.5620  141.0930 C   0  0  0  0  0  3  0  0  0  0  0  0
  189.7840  175.9060  143.1180 C   0  0  0  0  0  3  0  0  0  0  0  0
  188.5080  173.8760  142.2580 N   0  0  0  0  0  0  0  0  0  0  0  0
  189.6840  173.3420  141.7130 N   0  0  0  0  0  0  0  0  0  0  0  0
  193.2800  175.5170  141.7480 C   0  0  0  0  0  0  0  0  0  0  0  0
  187.3260  175.6660  143.2730 C   0  0  0  0  0  2  0  0  0  0  0  0
  190.9640  175.3370  142.3830 C   0  0  0  0  0  0  0  0  0  0  0  0
  190.9030  174.0810  141.7350 C   0  0  0  0  0  0  0  0  0  0  0  0
  194.5080  173.9290  140.5000 C   0  0  1  0  0  3  0  0  0  0  0  0
  195.4480  175.1080  140.8480 C   0  0  1  0  0  3  0  0  0  0  0  0
  188.4950  175.1650  142.8750 C   0  0  0  0  0  0  0  0  0  0  0  0
  194.6260  176.1170  141.6780 C   0  0  0  0  0  2  0  0  0  0  0  0
  192.1690  176.0540  142.3980 C   0  0  0  0  0  3  0  0  0  0  0  0
  186.4560  177.7350  146.0710 C   0  0  0  0  0  0  0  0  0  0  0  0
  187.1410  176.8360  145.4440 C   0  0  0  0  0  0  0  0  0  0  0  0
  186.1210  179.0310  143.6910 C   0  0  0  0  0  2  0  0  0  0  0  0
  185.0900  179.0420  147.3930 F   0  0  0  0  0  0  0  0  0  0  0  0
  185.7060  178.7790  146.2160 C   0  0  0  0  0  0  0  0  0  0  0  0
  187.1770  177.0000  143.9390 C   0  0  2  0  0  3  0  0  0  0  0  0
  185.3020  179.4810  144.9380 C   0  0  0  0  0  2  0  0  0  0  0  0
  185.9990  177.6390  143.4600 O   0  0  0  0  0  0  0  0  0  0  0  0
  187.8810  175.8750  146.1230 O   0  0  0  0  0  1  0  0  0  0  0  0
  197.0650  173.1870  141.2180 C   0  0  0  0  0  1  0  0  0  0  0  0
  197.9100  175.4820  140.9560 C   0  0  0  0  0  1  0  0  0  0  0  0
  196.7660  174.6520  141.5290 C   0  0  0  0  0  0  0  0  0  0  0  0
  197.9410  175.4470  143.5140 O   0  0  0  0  0  1  0  0  0  0  0  0
  196.7350  174.9010  143.0580 C   0  0  2  0  0  3  0  0  0  0  0  0
  196.3280  173.6920  143.9190 C   0  0  1  0  0  3  0  0  0  0  0  0
  197.0570  173.4530  146.2270 C   0  0  0  0  0  1  0  0  0  0  0  0
  197.5890  171.8100  144.6360 C   0  0  0  0  0  1  0  0  0  0  0  0
  197.3990  173.2390  144.8250 N   0  0  0  0  0  0  0  0  0  0  0  0
  194.2010  172.8600  144.6790 O   0  0  0  0  0  0  0  0  0  0  0  0
  194.9740  173.8520  144.5620 C   0  0  0  0  0  0  0  0  0  0  0  0
  194.5770  175.1170  144.9970 O   0  0  0  0  0  0  0  0  0  0  0  0
  193.7510  175.2920  146.1370 C   0  0  0  0  0  1  0  0  0  0  0  0
  1  7  1  0  0  0  0
  3  1  2  0  0  0  0
  3 10  1  0  0  0  0
  5 13  2  0  0  0  0
  6 10  2  0  0  0  0
  6  5  1  0  0  0  0
  7 15  2  0  0  0  0
  9 15  1  0  0  0  0
  9  4  2  0  0  0  0
 10  9  1  0  0  0  0
 11  2  1  6  0  0  0
 11 12  1  0  0  0  0
 11  1  1  0  0  0  0
 12 27  1  1  0  0  0
 12 14  1  0  0  0  0
 13  4  1  0  0  0  0
 13  8  1  0  0  0  0
 14  7  1  0  0  0  0
 16 20  2  0  0  0  0
 17 16  2  0  0  0  0
 17 24  1  0  0  0  0
 18 22  1  0  0  0  0
 20 19  1  0  0  0  0
 21  8  1  6  0  0  0
 21 17  1  0  0  0  0
 22 20  1  0  0  0  0
 23 18  1  0  0  0  0
 23 21  1  0  0  0  0
 25 27  1  0  0  0  0
 26 27  1  0  0  0  0
 27 29  1  0  0  0  0
 29 28  1  1  0  0  0
 29 30  1  0  0  0  0
 30 35  1  1  0  0  0
 30 33  1  0  0  0  0
 32 33  1  0  0  0  0
 33 31  1  0  0  0  0
 35 34  2  0  0  0  0
 35 36  1  0  0  0  0
 36 37  1  0  0  0  0
M  END
>  <MODEL>
6

>  <REMARK>
 VINA RESULT:      -7.1      3.131      9.401
  Name = 
  7 active torsions:
  status: ('A' for Active; 'I' for Inactive)
    1  A    between atoms: O_2  and  C_16
    2  A    between atoms: C_6  and  C_16
    3  A    between atoms: C_6  and  N_23
    4  A    between atoms: C_6  and  C_25
    5  A    between atoms: C_20  and  C_26
    6  A    between atoms: C_25  and  C_28
    7  A    between atoms: C_28  and  C_34
                            x       y       z     vdW  Elec       q    Type
                         _______ _______ _______ _____ _____    ______ ____

>  <TORSDO>
F 7

$$$$
=
 OpenBabel11062421523D

 37 40  0  0  1  0  0  0  0  0999 V2000
  194.4310  174.4420  144.2680 C   0  0  0  0  0  0  0  0  0  0  0  0
  196.6810  174.8320  144.8300 O   0  0  0  0  0  1  0  0  0  0  0  0
  194.0120  175.5030  143.4640 C   0  0  0  0  0  3  0  0  0  0  0  0
  190.3110  175.6120  144.4450 C   0  0  0  0  0  3  0  0  0  0  0  0
  190.9180  177.4890  142.8340 N   0  0  0  0  0  0  0  0  0  0  0  0
  192.2270  177.0000  142.7240 N   0  0  0  0  0  0  0  0  0  0  0  0
  193.5530  173.7880  145.0900 C   0  0  0  0  0  0  0  0  0  0  0  0
  188.7840  177.4730  143.8720 C   0  0  0  0  0  2  0  0  0  0  0  0
  191.7650  175.2400  144.3850 C   0  0  0  0  0  0  0  0  0  0  0  0
  192.6690  175.9050  143.5240 C   0  0  0  0  0  0  0  0  0  0  0  0
  195.7930  173.8730  144.3370 C   0  0  1  0  0  3  0  0  0  0  0  0
  195.6650  172.7200  145.3600 C   0  0  1  0  0  3  0  0  0  0  0  0
  189.9760  176.8950  143.7290 C   0  0  0  0  0  0  0  0  0  0  0  0
  194.1920  172.6760  145.8190 C   0  0  0  0  0  2  0  0  0  0  0  0
  192.2120  174.1640  145.1650 C   0  0  0  0  0  3  0  0  0  0  0  0
  185.4160  177.4410  145.1040 C   0  0  0  0  0  0  0  0  0  0  0  0
  186.3420  177.2930  144.2150 C   0  0  0  0  0  0  0  0  0  0  0  0
  187.2110  176.6320  146.9970 C   0  0  0  0  0  2  0  0  0  0  0  0
  183.6630  178.0190  146.4880 F   0  0  0  0  0  0  0  0  0  0  0  0
  184.8920  177.4880  146.2860 C   0  0  0  0  0  0  0  0  0  0  0  0
  187.7080  176.9460  144.7710 C   0  0  2  0  0  3  0  0  0  0  0  0
  185.8420  177.2340  147.4370 C   0  0  0  0  0  2  0  0  0  0  0  0
  187.8820  177.4770  146.0800 O   0  0  0  0  0  0  0  0  0  0  0  0
  186.0620  177.3300  142.8540 O   0  0  0  0  0  1  0  0  0  0  0  0
  197.2740  171.5900  143.7560 C   0  0  0  0  0  1  0  0  0  0  0  0
  196.8530  170.6160  145.9750 C   0  0  0  0  0  1  0  0  0  0  0  0
  196.2010  171.3670  144.8190 C   0  0  0  0  0  0  0  0  0  0  0  0
  195.2130  169.1410  144.6710 O   0  0  0  0  0  1  0  0  0  0  0  0
  195.0560  170.4760  144.2760 C   0  0  2  0  0  3  0  0  0  0  0  0
  194.8070  170.5660  142.7600 C   0  0  1  0  0  3  0  0  0  0  0  0
  193.7540  168.7670  141.5060 C   0  0  0  0  0  1  0  0  0  0  0  0
  195.9190  169.4920  140.9560 C   0  0  0  0  0  1  0  0  0  0  0  0
  195.0010  169.2820  142.0630 N   0  0  0  0  0  0  0  0  0  0  0  0
  193.5100  172.1160  141.4540 O   0  0  0  0  0  0  0  0  0  0  0  0
  193.5330  171.2940  142.4120 C   0  0  0  0  0  0  0  0  0  0  0  0
  192.3930  171.0690  143.1830 O   0  0  0  0  0  0  0  0  0  0  0  0
  191.1080  171.5000  142.7620 C   0  0  0  0  0  1  0  0  0  0  0  0
  1 11  1  0  0  0  0
  1  7  1  0  0  0  0
  3 10  1  0  0  0  0
  3  1  2  0  0  0  0
  5 13  1  0  0  0  0
  6  5  2  0  0  0  0
  6 10  1  0  0  0  0
  7 15  2  0  0  0  0
  7 14  1  0  0  0  0
  9  4  1  0  0  0  0
  9 15  1  0  0  0  0
 10  9  2  0  0  0  0
 11  2  1  1  0  0  0
 11 12  1  0  0  0  0
 12 27  1  6  0  0  0
 12 14  1  0  0  0  0
 13  8  1  0  0  0  0
 13  4  2  0  0  0  0
 16 20  2  0  0  0  0
 17 21  1  0  0  0  0
 17 16  2  0  0  0  0
 18 22  1  0  0  0  0
 20 19  1  0  0  0  0
 20 22  1  0  0  0  0
 21  8  1  6  0  0  0
 21 23  1  0  0  0  0
 23 18  1  0  0  0  0
 24 17  1  0  0  0  0
 25 27  1  0  0  0  0
 27 26  1  0  0  0  0
 29 28  1  6  0  0  0
 29 27  1  0  0  0  0
 30 35  1  1  0  0  0
 30 29  1  0  0  0  0
 31 33  1  0  0  0  0
 32 33  1  0  0  0  0
 33 30  1  0  0  0  0
 34 35  2  0  0  0  0
 35 36  1  0  0  0  0
 37 36  1  0  0  0  0
M  END
>  <MODEL>
7

>  <REMARK>
 VINA RESULT:      -7.1      3.596      9.461
  Name = 
  7 active torsions:
  status: ('A' for Active; 'I' for Inactive)
    1  A    between atoms: O_2  and  C_16
    2  A    between atoms: C_6  and  C_16
    3  A    between atoms: C_6  and  N_23
    4  A    between atoms: C_6  and  C_25
    5  A    between atoms: C_20  and  C_26
    6  A    between atoms: C_25  and  C_28
    7  A    between atoms: C_28  and  C_34
                            x       y       z     vdW  Elec       q    Type
                         _______ _______ _______ _____ _____    ______ ____

>  <TORSDO>
F 7

$$$$
=
 OpenBabel11062421523D

 37 40  0  0  1  0  0  0  0  0999 V2000
  192.4670  174.5370  145.3530 C   0  0  0  0  0  0  0  0  0  0  0  0
  193.6240  172.4900  145.3000 O   0  0  0  0  0  1  0  0  0  0  0  0
  191.5330  174.4620  146.3860 C   0  0  0  0  0  3  0  0  0  0  0  0
  188.8130  176.7410  144.9420 C   0  0  0  0  0  3  0  0  0  0  0  0
  188.0990  175.6980  147.1540 N   0  0  0  0  0  0  0  0  0  0  0  0
  189.3520  175.0870  147.2950 N   0  0  0  0  0  0  0  0  0  0  0  0
  192.2290  175.2940  144.2370 C   0  0  0  0  0  0  0  0  0  0  0  0
  186.5200  176.9030  145.8550 C   0  0  0  0  0  2  0  0  0  0  0  0
  190.0730  175.9370  145.0990 C   0  0  0  0  0  0  0  0  0  0  0  0
  190.3270  175.1670  146.2570 C   0  0  0  0  0  0  0  0  0  0  0  0
  193.7890  173.8770  145.3090 C   0  0  1  0  0  3  0  0  0  0  0  0
  194.3890  174.3300  143.9560 C   0  0  1  0  0  3  0  0  0  0  0  0
  187.7640  176.4410  145.9810 C   0  0  0  0  0  0  0  0  0  0  0  0
  193.3600  175.2670  143.2900 C   0  0  0  0  0  2  0  0  0  0  0  0
  191.0410  176.0090  144.0860 C   0  0  0  0  0  3  0  0  0  0  0  0
  183.9890  178.7020  144.0580 C   0  0  0  0  0  0  0  0  0  0  0  0
  184.7960  178.4800  145.0440 C   0  0  0  0  0  0  0  0  0  0  0  0
  185.8440  177.5930  142.3880 C   0  0  0  0  0  2  0  0  0  0  0  0
  182.2700  178.9960  142.5490 F   0  0  0  0  0  0  0  0  0  0  0  0
  183.5470  178.6550  142.8440 C   0  0  0  0  0  0  0  0  0  0  0  0
  186.0430  177.7010  144.6800 C   0  0  2  0  0  3  0  0  0  0  0  0
  184.4120  177.9010  141.8570 C   0  0  0  0  0  2  0  0  0  0  0  0
  185.8050  176.8290  143.5800 O   0  0  0  0  0  0  0  0  0  0  0  0
  184.5810  179.0270  146.3020 O   0  0  0  0  0  1  0  0  0  0  0  0
  195.8540  176.3530  143.5110 C   0  0  0  0  0  1  0  0  0  0  0  0
  196.1310  175.0580  145.5840 C   0  0  0  0  0  1  0  0  0  0  0  0
  195.8070  174.9440  144.0980 C   0  0  0  0  0  0  0  0  0  0  0  0
  197.6990  174.7550  142.5690 O   0  0  0  0  0  1  0  0  0  0  0  0
  196.8890  174.0380  143.4580 C   0  0  2  0  0  3  0  0  0  0  0  0
  196.3680  172.7490  142.7980 C   0  0  1  0  0  3  0  0  0  0  0  0
  197.0790  171.3810  140.9160 C   0  0  0  0  0  1  0  0  0  0  0  0
  195.3770  172.9760  140.6500 C   0  0  0  0  0  1  0  0  0  0  0  0
  196.6230  172.6980  141.3470 N   0  0  0  0  0  0  0  0  0  0  0  0
  197.9020  171.3800  144.0480 O   0  0  0  0  0  0  0  0  0  0  0  0
  196.7460  171.5010  143.5550 C   0  0  0  0  0  0  0  0  0  0  0  0
  195.8110  170.4730  143.6750 O   0  0  0  0  0  0  0  0  0  0  0  0
  195.7860  169.6110  144.8020 C   0  0  0  0  0  1  0  0  0  0  0  0
  1  3  1  0  0  0  0
  4  9  1  0  0  0  0
  4 13  2  0  0  0  0
  5  6  2  0  0  0  0
  7  1  2  0  0  0  0
  8 13  1  0  0  0  0
  9 10  1  0  0  0  0
 10  3  2  0  0  0  0
 10  6  1  0  0  0  0
 11  2  1  6  0  0  0
 11  1  1  0  0  0  0
 12 27  1  1  0  0  0
 12 11  1  0  0  0  0
 13  5  1  0  0  0  0
 14 12  1  0  0  0  0
 14  7  1  0  0  0  0
 15  7  1  0  0  0  0
 15  9  2  0  0  0  0
 16 17  2  0  0  0  0
 17 24  1  0  0  0  0
 18 23  1  0  0  0  0
 19 20  1  0  0  0  0
 20 16  2  0  0  0  0
 21 17  1  0  0  0  0
 21  8  1  1  0  0  0
 22 18  1  0  0  0  0
 22 20  1  0  0  0  0
 23 21  1  0  0  0  0
 25 27  1  0  0  0  0
 27 26  1  0  0  0  0
 29 28  1  6  0  0  0
 29 27  1  0  0  0  0
 30 29  1  0  0  0  0
 30 35  1  1  0  0  0
 31 33  1  0  0  0  0
 32 33  1  0  0  0  0
 33 30  1  0  0  0  0
 35 36  1  0  0  0  0
 35 34  2  0  0  0  0
 36 37  1  0  0  0  0
M  END
>  <MODEL>
8

>  <REMARK>
 VINA RESULT:      -7.0      3.465      9.593
  Name = 
  7 active torsions:
  status: ('A' for Active; 'I' for Inactive)
    1  A    between atoms: O_2  and  C_16
    2  A    between atoms: C_6  and  C_16
    3  A    between atoms: C_6  and  N_23
    4  A    between atoms: C_6  and  C_25
    5  A    between atoms: C_20  and  C_26
    6  A    between atoms: C_25  and  C_28
    7  A    between atoms: C_28  and  C_34
                            x       y       z     vdW  Elec       q    Type
                         _______ _______ _______ _____ _____    ______ ____

>  <TORSDO>
F 7

$$$$
=
 OpenBabel11062421523D

 37 40  0  0  1  0  0  0  0  0999 V2000
  190.9440  174.4990  142.3270 C   0  0  0  0  0  0  0  0  0  0  0  0
  193.0540  174.7570  141.3200 O   0  0  0  0  0  1  0  0  0  0  0  0
  189.9870  174.9260  141.4050 C   0  0  0  0  0  3  0  0  0  0  0  0
  187.3170  176.2230  143.8260 C   0  0  0  0  0  3  0  0  0  0  0  0
  186.6730  176.6370  141.3980 N   0  0  0  0  0  0  0  0  0  0  0  0
  187.8210  175.9650  140.9560 N   0  0  0  0  0  0  0  0  0  0  0  0
  190.7340  174.6230  143.6740 C   0  0  0  0  0  0  0  0  0  0  0  0
  185.3830  177.6040  143.1390 C   0  0  0  0  0  2  0  0  0  0  0  0
  188.5910  175.6480  143.2740 C   0  0  0  0  0  0  0  0  0  0  0  0
  188.8020  175.5050  141.8830 C   0  0  0  0  0  0  0  0  0  0  0  0
  192.2410  173.8620  142.0190 C   0  0  1  0  0  3  0  0  0  0  0  0
  192.8620  173.5860  143.4090 C   0  0  1  0  0  3  0  0  0  0  0  0
  186.4330  176.8610  142.7880 C   0  0  0  0  0  0  0  0  0  0  0  0
  191.8490  174.0740  144.4670 C   0  0  0  0  0  2  0  0  0  0  0  0
  189.5630  175.1910  144.1760 C   0  0  0  0  0  3  0  0  0  0  0  0
  185.8070  179.4160  146.2050 C   0  0  0  0  0  0  0  0  0  0  0  0
  185.5230  179.2800  144.9520 C   0  0  0  0  0  0  0  0  0  0  0  0
  184.8170  176.9050  146.6230 C   0  0  0  0  0  2  0  0  0  0  0  0
  186.6330  179.8380  148.3170 F   0  0  0  0  0  0  0  0  0  0  0  0
  185.9460  179.0660  147.4420 C   0  0  0  0  0  0  0  0  0  0  0  0
  185.0170  177.9070  144.5600 C   0  0  2  0  0  3  0  0  0  0  0  0
  185.5970  177.6280  147.7620 C   0  0  0  0  0  2  0  0  0  0  0  0
  185.5500  176.8980  145.4120 O   0  0  0  0  0  0  0  0  0  0  0  0
  185.5660  180.3550  144.0710 O   0  0  0  0  0  1  0  0  0  0  0  0
  192.1820  171.2690  144.1900 C   0  0  0  0  0  1  0  0  0  0  0  0
  193.6250  171.5340  142.2160 C   0  0  0  0  0  1  0  0  0  0  0  0
  193.3070  172.1100  143.5920 C   0  0  0  0  0  0  0  0  0  0  0  0
  194.3100  171.6250  145.7630 O   0  0  0  0  0  1  0  0  0  0  0  0
  194.5960  172.0040  144.4460 C   0  0  2  0  0  3  0  0  0  0  0  0
  195.5090  173.2430  144.4240 C   0  0  1  0  0  3  0  0  0  0  0  0
  197.1590  173.7910  146.1260 C   0  0  0  0  0  1  0  0  0  0  0  0
  195.3180  175.2010  145.7560 C   0  0  0  0  0  1  0  0  0  0  0  0
  195.7460  173.8120  145.7640 N   0  0  0  0  0  0  0  0  0  0  0  0
  197.3400  171.9360  143.5680 O   0  0  0  0  0  0  0  0  0  0  0  0
  196.7480  173.0510  143.5860 C   0  0  0  0  0  0  0  0  0  0  0  0
  197.2460  174.1310  142.8570 O   0  0  0  0  0  0  0  0  0  0  0  0
  196.3910  175.1260  142.3150 C   0  0  0  0  0  1  0  0  0  0  0  0
  1  7  1  0  0  0  0
  3 10  1  0  0  0  0
  3  1  2  0  0  0  0
  5 13  1  0  0  0  0
  6  5  2  0  0  0  0
  6 10  1  0  0  0  0
  7 15  2  0  0  0  0
  7 14  1  0  0  0  0
  9  4  1  0  0  0  0
  9 15  1  0  0  0  0
 10  9  2  0  0  0  0
 11  2  1  6  0  0  0
 11  1  1  0  0  0  0
 11 12  1  0  0  0  0
 12 27  1  1  0  0  0
 12 14  1  0  0  0  0
 13  8  1  0  0  0  0
 13  4  2  0  0  0  0
 16 20  2  0  0  0  0
 17 16  2  0  0  0  0
 18 22  1  0  0  0  0
 20 22  1  0  0  0  0
 20 19  1  0  0  0  0
 21  8  1  6  0  0  0
 21 17  1  0  0  0  0
 21 23  1  0  0  0  0
 23 18  1  0  0  0  0
 24 17  1  0  0  0  0
 26 27  1  0  0  0  0
 27 25  1  0  0  0  0
 27 29  1  0  0  0  0
 29 28  1  1  0  0  0
 30 35  1  1  0  0  0
 30 29  1  0  0  0  0
 30 33  1  0  0  0  0
 32 33  1  0  0  0  0
 33 31  1  0  0  0  0
 34 35  2  0  0  0  0
 36 35  1  0  0  0  0
 37 36  1  0  0  0  0
M  END
>  <MODEL>
9

>  <REMARK>
 VINA RESULT:      -7.0      2.947      9.433
  Name = 
  7 active torsions:
  status: ('A' for Active; 'I' for Inactive)
    1  A    between atoms: O_2  and  C_16
    2  A    between atoms: C_6  and  C_16
    3  A    between atoms: C_6  and  N_23
    4  A    between atoms: C_6  and  C_25
    5  A    between atoms: C_20  and  C_26
    6  A    between atoms: C_25  and  C_28
    7  A    between atoms: C_28  and  C_34
                            x       y       z     vdW  Elec       q    Type
                         _______ _______ _______ _____ _____    ______ ____

>  <TORSDO>
F 7

$$$$
