=
 OpenBabel11062422203D

 41 45  0  0  1  0  0  0  0  0999 V2000
  189.7880  178.1950  142.0890 O   0  0  0  0  0  0  0  0  0  0  0  0
  189.6270  175.4960  145.7800 N   0  0  0  0  0  2  0  0  0  0  0  0
  188.7730  177.3360  143.8130 C   0  0  0  0  0  0  0  0  0  0  0  0
  190.6580  177.3890  142.6650 C   0  0  0  0  0  3  0  0  0  0  0  0
  188.6460  178.2000  142.7470 C   0  0  0  0  0  3  0  0  0  0  0  0
  190.6300  175.9650  144.8240 C   0  0  2  0  0  3  0  0  0  0  0  0
  188.3360  176.1070  145.9360 C   0  0  0  0  0  0  0  0  0  0  0  0
  190.0320  176.8080  143.7470 C   0  0  0  0  0  0  0  0  0  0  0  0
  187.7730  177.0500  144.8920 C   0  0  2  0  0  3  0  0  0  0  0  0
  187.6490  175.8310  146.9540 O   0  0  0  0  0  0  0  0  0  0  0  0
  194.0250  174.7850  145.0850 C   0  0  1  0  0  3  0  0  0  0  0  0
  193.3880  174.2210  142.8470 O   0  0  0  0  0  0  0  0  0  0  0  0
  193.9590  176.1330  144.3760 C   0  0  2  0  0  0  0  0  0  0  0  0
  192.8200  172.9510  142.6570 C   0  0  0  0  0  0  0  0  0  0  0  0
  191.6370  172.6620  143.2400 C   0  0  0  0  0  0  0  0  0  0  0  0
  193.7770  176.5040  146.7660 C   0  0  0  0  0  2  0  0  0  0  0  0
  190.9430  173.7070  144.0220 C   0  0  0  0  0  3  0  0  0  0  0  0
  195.2020  176.3640  143.5360 C   0  0  0  0  0  1  0  0  0  0  0  0
  191.5360  174.8590  144.3510 C   0  0  0  0  0  0  0  0  0  0  0  0
  193.6100  177.1750  145.4240 C   0  0  0  0  0  2  0  0  0  0  0  0
  193.5370  175.0370  146.5020 C   0  0  0  0  0  2  0  0  0  0  0  0
  193.0020  175.0160  143.9650 C   0  0  2  0  0  0  0  0  0  0  0  0
  190.9690  171.3540  143.1030 C   0  0  0  0  0  3  0  0  0  0  0  0
  190.1790  170.9970  142.0870 C   0  0  0  0  0  3  0  0  0  0  0  0
  189.8460  171.8940  141.0310 N   0  0  0  0  0  2  0  0  0  0  0  0
  190.5010  171.7760  139.7430 C   0  0  0  0  0  1  0  0  0  0  0  0
  193.4920  171.9970  141.8880 O   0  0  0  0  0  0  0  0  0  0  0  0
  194.6490  171.3240  142.3660 C   0  0  0  0  0  2  0  0  0  0  0  0
  196.4190  172.8130  142.9190 O   0  0  0  0  0  1  0  0  0  0  0  0
  195.9020  172.0320  141.8860 C   0  0  0  0  0  2  0  0  0  0  0  0
  186.5110  176.4660  144.2660 C   0  0  0  0  0  2  0  0  0  0  0  0
  185.3090  177.3810  144.4750 C   0  0  2  0  0  3  0  0  0  0  0  0
  184.7800  177.8680  143.1640 C   0  0  0  0  0  0  0  0  0  0  0  0
  183.6980  178.5140  143.1380 O   0  0  0  0  0  0  0  0  0  0  0  0
  185.4990  177.6140  141.9550 N   0  0  0  0  0  2  0  0  0  0  0  0
  185.0190  178.0730  140.6630 C   0  0  0  0  0  1  0  0  0  0  0  0
  185.6320  178.5240  145.3850 C   0  0  0  0  0  0  0  0  0  0  0  0
  185.5040  178.3470  146.7950 N   0  0  0  0  0  2  0  0  0  0  0  0
  186.0120  179.6300  144.9110 O   0  0  0  0  0  0  0  0  0  0  0  0
  187.1270  179.1300  148.4140 C   0  0  0  0  0  1  0  0  0  0  0  0
  185.8040  179.4150  147.7350 C   0  0  0  0  0  2  0  0  0  0  0  0
  1  4  1  0  0  0  0
  1  5  1  0  0  0  0
  2  7  1  0  0  0  0
  3  9  1  0  0  0  0
  4  8  2  0  0  0  0
  5  3  2  0  0  0  0
  6 19  1  6  0  0  0
  6  2  1  0  0  0  0
  7 10  2  0  0  0  0
  8  3  1  0  0  0  0
  8  6  1  0  0  0  0
  9 31  1  6  0  0  0
  9  7  1  0  0  0  0
 11 21  1  1  0  0  0
 13 18  1  6  0  0  0
 13 11  1  0  0  0  0
 13 20  1  0  0  0  0
 14 12  1  0  0  0  0
 14 15  2  0  0  0  0
 15 17  1  0  0  0  0
 17 19  2  0  0  0  0
 20 16  1  0  0  0  0
 21 16  1  0  0  0  0
 22 12  1  6  0  0  0
 22 19  1  0  0  0  0
 22 13  1  0  0  0  0
 22 11  1  0  0  0  0
 23 15  1  0  0  0  0
 24 23  2  0  0  0  0
 25 24  1  0  0  0  0
 26 25  1  0  0  0  0
 27 28  1  0  0  0  0
 27 14  1  0  0  0  0
 30 28  1  0  0  0  0
 30 29  1  0  0  0  0
 32 31  1  6  0  0  0
 32 37  1  0  0  0  0
 33 32  1  0  0  0  0
 34 33  2  0  0  0  0
 35 33  1  0  0  0  0
 36 35  1  0  0  0  0
 37 38  1  0  0  0  0
 38 41  1  0  0  0  0
 39 37  2  0  0  0  0
 41 40  1  0  0  0  0
M  END
>  <MODEL>
1

>  <REMARK>
 VINA RESULT:      -6.7      0.000      0.000
  Name = 
  11 active torsions:
  status: ('A' for Active; 'I' for Inactive)
    1  A    between atoms: C_2  and  C_25
    2  A    between atoms: C_5  and  C_12
    3  A    between atoms: N_10  and  C_22
    4  A    between atoms: C_12  and  O_16
    5  A    between atoms: C_13  and  O_16
    6  A    between atoms: C_14  and  C_18
    7  A    between atoms: C_17  and  C_25
    8  A    between atoms: C_17  and  C_40
    9  A    between atoms: C_20  and  C_25
   10  A    between atoms: C_21  and  N_30
   11  A    between atoms: C_28  and  C_33
                            x       y       z     vdW  Elec       q    Type
                         _______ _______ _______ _____ _____    ______ ____

>  <TORSDO>
F 11

$$$$
=
 OpenBabel11062422203D

 41 45  0  0  1  0  0  0  0  0999 V2000
  191.7540  176.3000  147.3490 O   0  0  0  0  0  0  0  0  0  0  0  0
  192.0560  176.7350  142.8050 N   0  0  0  0  0  2  0  0  0  0  0  0
  192.8120  176.1150  145.4550 C   0  0  0  0  0  0  0  0  0  0  0  0
  190.9270  176.7370  146.4200 C   0  0  0  0  0  3  0  0  0  0  0  0
  192.9000  175.9230  146.8180 C   0  0  0  0  0  3  0  0  0  0  0  0
  191.1290  177.1170  143.8710 C   0  0  2  0  0  3  0  0  0  0  0  0
  193.4100  176.3180  143.0450 C   0  0  0  0  0  0  0  0  0  0  0  0
  191.5610  176.6050  145.2040 C   0  0  0  0  0  0  0  0  0  0  0  0
  193.8790  175.9000  144.4240 C   0  0  2  0  0  3  0  0  0  0  0  0
  194.2170  176.2770  142.0800 O   0  0  0  0  0  0  0  0  0  0  0  0
  188.8770  174.4240  143.0570 C   0  0  1  0  0  3  0  0  0  0  0  0
  188.1010  176.2510  141.7180 O   0  0  0  0  0  0  0  0  0  0  0  0
  189.9600  174.5820  141.9950 C   0  0  2  0  0  0  0  0  0  0  0  0
  187.1200  177.0760  142.2900 C   0  0  0  0  0  0  0  0  0  0  0  0
  187.4230  177.7980  143.3890 C   0  0  0  0  0  0  0  0  0  0  0  0
  190.8970  173.3870  143.8870 C   0  0  0  0  0  2  0  0  0  0  0  0
  188.7960  177.7420  143.9340 C   0  0  0  0  0  3  0  0  0  0  0  0
  189.5260  173.9590  140.6810 C   0  0  0  0  0  1  0  0  0  0  0  0
  189.6930  176.8470  143.5090 C   0  0  0  0  0  0  0  0  0  0  0  0
  191.2640  174.1020  142.6090 C   0  0  0  0  0  2  0  0  0  0  0  0
  189.6010  174.0220  144.3310 C   0  0  0  0  0  2  0  0  0  0  0  0
  189.2100  175.8140  142.4980 C   0  0  2  0  0  0  0  0  0  0  0  0
  186.4550  178.6860  144.0630 C   0  0  0  0  0  3  0  0  0  0  0  0
  185.7100  178.3500  145.1190 C   0  0  0  0  0  3  0  0  0  0  0  0
  185.7330  177.0400  145.6800 N   0  0  0  0  0  2  0  0  0  0  0  0
  186.5150  176.7760  146.8720 C   0  0  0  0  0  1  0  0  0  0  0  0
  185.8400  177.1250  141.7300 O   0  0  0  0  0  0  0  0  0  0  0  0
  185.5470  177.9230  140.5920 C   0  0  0  0  0  2  0  0  0  0  0  0
  183.5900  178.2340  141.9070 O   0  0  0  0  0  1  0  0  0  0  0  0
  184.0900  178.3460  140.6100 C   0  0  0  0  0  2  0  0  0  0  0  0
  194.2930  174.4330  144.4280 C   0  0  0  0  0  2  0  0  0  0  0  0
  195.7260  174.2580  144.9220 C   0  0  2  0  0  3  0  0  0  0  0  0
  196.7010  174.4900  143.8140 C   0  0  0  0  0  0  0  0  0  0  0  0
  197.3480  175.5710  143.7780 O   0  0  0  0  0  0  0  0  0  0  0  0
  196.9050  173.4920  142.8110 N   0  0  0  0  0  2  0  0  0  0  0  0
  197.8460  173.6780  141.7190 C   0  0  0  0  0  1  0  0  0  0  0  0
  195.9350  172.9180  145.5550 C   0  0  0  0  0  0  0  0  0  0  0  0
  194.9620  171.8940  145.3540 N   0  0  0  0  0  2  0  0  0  0  0  0
  196.9590  172.6990  146.2600 O   0  0  0  0  0  0  0  0  0  0  0  0
  195.1240  169.5340  144.8360 C   0  0  0  0  0  1  0  0  0  0  0  0
  195.1060  170.5710  145.9380 C   0  0  0  0  0  2  0  0  0  0  0  0
  2  7  1  0  0  0  0
  2  6  1  0  0  0  0
  3  5  2  0  0  0  0
  4  1  1  0  0  0  0
  5  1  1  0  0  0  0
  6 19  1  6  0  0  0
  6  8  1  0  0  0  0
  7  9  1  0  0  0  0
  8  3  1  0  0  0  0
  8  4  2  0  0  0  0
  9 31  1  6  0  0  0
  9  3  1  0  0  0  0
 10  7  2  0  0  0  0
 11 21  1  1  0  0  0
 12 14  1  0  0  0  0
 13 18  1  6  0  0  0
 13 22  1  0  0  0  0
 13 20  1  0  0  0  0
 13 11  1  0  0  0  0
 14 15  2  0  0  0  0
 15 17  1  0  0  0  0
 15 23  1  0  0  0  0
 16 21  1  0  0  0  0
 19 17  2  0  0  0  0
 20 16  1  0  0  0  0
 22 12  1  6  0  0  0
 22 11  1  0  0  0  0
 22 19  1  0  0  0  0
 23 24  2  0  0  0  0
 24 25  1  0  0  0  0
 25 26  1  0  0  0  0
 27 14  1  0  0  0  0
 28 30  1  0  0  0  0
 28 27  1  0  0  0  0
 30 29  1  0  0  0  0
 32 31  1  6  0  0  0
 32 37  1  0  0  0  0
 33 32  1  0  0  0  0
 34 33  2  0  0  0  0
 35 33  1  0  0  0  0
 36 35  1  0  0  0  0
 37 39  2  0  0  0  0
 38 37  1  0  0  0  0
 38 41  1  0  0  0  0
 40 41  1  0  0  0  0
M  END
>  <MODEL>
2

>  <REMARK>
 VINA RESULT:      -6.6      2.589      8.788
  Name = 
  11 active torsions:
  status: ('A' for Active; 'I' for Inactive)
    1  A    between atoms: C_2  and  C_25
    2  A    between atoms: C_5  and  C_12
    3  A    between atoms: N_10  and  C_22
    4  A    between atoms: C_12  and  O_16
    5  A    between atoms: C_13  and  O_16
    6  A    between atoms: C_14  and  C_18
    7  A    between atoms: C_17  and  C_25
    8  A    between atoms: C_17  and  C_40
    9  A    between atoms: C_20  and  C_25
   10  A    between atoms: C_21  and  N_30
   11  A    between atoms: C_28  and  C_33
                            x       y       z     vdW  Elec       q    Type
                         _______ _______ _______ _____ _____    ______ ____

>  <TORSDO>
F 11

$$$$
=
 OpenBabel11062422203D

 41 45  0  0  1  0  0  0  0  0999 V2000
  191.7500  178.4150  143.6580 O   0  0  0  0  0  0  0  0  0  0  0  0
  190.3230  174.9890  146.3330 N   0  0  0  0  0  2  0  0  0  0  0  0
  190.2300  177.3680  144.8120 C   0  0  0  0  0  0  0  0  0  0  0  0
  192.3400  177.3520  144.1670 C   0  0  0  0  0  3  0  0  0  0  0  0
  190.4850  178.4700  144.0250 C   0  0  0  0  0  3  0  0  0  0  0  0
  191.5880  175.4830  145.7880 C   0  0  2  0  0  3  0  0  0  0  0  0
  189.1160  175.7680  146.3640 C   0  0  0  0  0  0  0  0  0  0  0  0
  191.3930  176.6520  144.8810 C   0  0  0  0  0  0  0  0  0  0  0  0
  188.9570  177.0190  145.5240 C   0  0  2  0  0  3  0  0  0  0  0  0
  188.1620  175.3860  147.0900 O   0  0  0  0  0  0  0  0  0  0  0  0
  191.8730  173.2550  142.9700 C   0  0  1  0  0  3  0  0  0  0  0  0
  192.6620  171.9530  144.8170 O   0  0  0  0  0  0  0  0  0  0  0  0
  190.6110  172.9690  143.7770 C   0  0  2  0  0  0  0  0  0  0  0  0
  194.0390  172.0090  145.0820 C   0  0  0  0  0  0  0  0  0  0  0  0
  194.5920  173.1810  145.4620 C   0  0  0  0  0  0  0  0  0  0  0  0
  190.2080  174.8990  142.3640 C   0  0  0  0  0  2  0  0  0  0  0  0
  193.7250  174.3650  145.6400 C   0  0  0  0  0  3  0  0  0  0  0  0
  190.1100  171.5610  143.5180 C   0  0  0  0  0  1  0  0  0  0  0  0
  192.4490  174.3770  145.2390 C   0  0  0  0  0  0  0  0  0  0  0  0
  189.6510  174.1200  143.5310 C   0  0  0  0  0  2  0  0  0  0  0  0
  191.6970  174.6560  142.4070 C   0  0  0  0  0  2  0  0  0  0  0  0
  191.9470  173.1430  144.4980 C   0  0  2  0  0  0  0  0  0  0  0  0
  196.0300  173.3370  145.7540 C   0  0  0  0  0  3  0  0  0  0  0  0
  196.9120  173.9580  144.9660 C   0  0  0  0  0  3  0  0  0  0  0  0
  196.5500  174.4970  143.6970 N   0  0  0  0  0  2  0  0  0  0  0  0
  196.8200  175.8890  143.3970 C   0  0  0  0  0  1  0  0  0  0  0  0
  194.8240  170.8620  144.9310 O   0  0  0  0  0  0  0  0  0  0  0  0
  194.4710  169.6250  145.5340 C   0  0  0  0  0  2  0  0  0  0  0  0
  194.5410  168.7570  147.7470 O   0  0  0  0  0  1  0  0  0  0  0  0
  195.3150  169.3870  146.7730 C   0  0  0  0  0  2  0  0  0  0  0  0
  187.8420  176.8390  144.5000 C   0  0  0  0  0  2  0  0  0  0  0  0
  187.3190  178.1820  144.0020 C   0  0  2  0  0  3  0  0  0  0  0  0
  186.1220  178.6100  144.7890 C   0  0  0  0  0  0  0  0  0  0  0  0
  185.7580  179.8160  144.7510 O   0  0  0  0  0  0  0  0  0  0  0  0
  185.3920  177.6590  145.5680 N   0  0  0  0  0  2  0  0  0  0  0  0
  184.2220  178.0360  146.3440 C   0  0  0  0  0  1  0  0  0  0  0  0
  187.0190  178.1520  142.5360 C   0  0  0  0  0  0  0  0  0  0  0  0
  185.6780  177.9280  142.1040 N   0  0  0  0  0  2  0  0  0  0  0  0
  187.9430  178.3220  141.6930 O   0  0  0  0  0  0  0  0  0  0  0  0
  183.9040  178.3950  140.5230 C   0  0  0  0  0  1  0  0  0  0  0  0
  185.3200  177.8890  140.6960 C   0  0  0  0  0  2  0  0  0  0  0  0
  1  5  1  0  0  0  0
  1  4  1  0  0  0  0
  2  7  1  0  0  0  0
  3  8  1  0  0  0  0
  3  9  1  0  0  0  0
  4  8  2  0  0  0  0
  5  3  2  0  0  0  0
  6 19  1  6  0  0  0
  6  2  1  0  0  0  0
  7 10  2  0  0  0  0
  8  6  1  0  0  0  0
  9 31  1  6  0  0  0
  9  7  1  0  0  0  0
 11 21  1  1  0  0  0
 11 13  1  0  0  0  0
 11 22  1  0  0  0  0
 12 14  1  0  0  0  0
 13 18  1  6  0  0  0
 13 22  1  0  0  0  0
 14 15  2  0  0  0  0
 15 17  1  0  0  0  0
 15 23  1  0  0  0  0
 16 21  1  0  0  0  0
 16 20  1  0  0  0  0
 19 17  2  0  0  0  0
 20 13  1  0  0  0  0
 22 12  1  1  0  0  0
 22 19  1  0  0  0  0
 24 23  2  0  0  0  0
 25 24  1  0  0  0  0
 26 25  1  0  0  0  0
 27 14  1  0  0  0  0
 27 28  1  0  0  0  0
 28 30  1  0  0  0  0
 30 29  1  0  0  0  0
 32 31  1  1  0  0  0
 32 33  1  0  0  0  0
 33 35  1  0  0  0  0
 34 33  2  0  0  0  0
 35 36  1  0  0  0  0
 37 32  1  0  0  0  0
 38 37  1  0  0  0  0
 39 37  2  0  0  0  0
 40 41  1  0  0  0  0
 41 38  1  0  0  0  0
M  END
>  <MODEL>
3

>  <REMARK>
 VINA RESULT:      -6.6      2.400      4.449
  Name = 
  11 active torsions:
  status: ('A' for Active; 'I' for Inactive)
    1  A    between atoms: C_2  and  C_25
    2  A    between atoms: C_5  and  C_12
    3  A    between atoms: N_10  and  C_22
    4  A    between atoms: C_12  and  O_16
    5  A    between atoms: C_13  and  O_16
    6  A    between atoms: C_14  and  C_18
    7  A    between atoms: C_17  and  C_25
    8  A    between atoms: C_17  and  C_40
    9  A    between atoms: C_20  and  C_25
   10  A    between atoms: C_21  and  N_30
   11  A    between atoms: C_28  and  C_33
                            x       y       z     vdW  Elec       q    Type
                         _______ _______ _______ _____ _____    ______ ____

>  <TORSDO>
F 11

$$$$
=
 OpenBabel11062422203D

 41 45  0  0  1  0  0  0  0  0999 V2000
  191.3250  171.3890  143.7970 O   0  0  0  0  0  0  0  0  0  0  0  0
  193.0680  175.0880  141.7440 N   0  0  0  0  0  2  0  0  0  0  0  0
  192.2620  172.4060  142.1150 C   0  0  0  0  0  0  0  0  0  0  0  0
  191.4790  172.6460  144.1640 C   0  0  0  0  0  3  0  0  0  0  0  0
  191.7870  171.1970  142.5780 C   0  0  0  0  0  3  0  0  0  0  0  0
  192.5830  174.7140  143.0730 C   0  0  2  0  0  3  0  0  0  0  0  0
  193.4000  174.1320  140.7240 C   0  0  0  0  0  0  0  0  0  0  0  0
  192.0460  173.3220  143.1060 C   0  0  0  0  0  0  0  0  0  0  0  0
  192.9460  172.6880  140.8110 C   0  0  2  0  0  3  0  0  0  0  0  0
  194.0640  174.5110  139.7240 O   0  0  0  0  0  0  0  0  0  0  0  0
  192.3230  176.8990  145.9260 C   0  0  1  0  0  3  0  0  0  0  0  0
  190.0550  176.3020  145.4470 O   0  0  0  0  0  0  0  0  0  0  0  0
  192.2380  175.4330  146.3400 C   0  0  2  0  0  0  0  0  0  0  0  0
  189.3560  177.1460  144.5690 C   0  0  0  0  0  0  0  0  0  0  0  0
  189.7690  177.2560  143.2890 C   0  0  0  0  0  0  0  0  0  0  0  0
  194.5670  176.0000  145.9670 C   0  0  0  0  0  2  0  0  0  0  0  0
  190.9160  176.4450  142.8280 C   0  0  0  0  0  3  0  0  0  0  0  0
  191.5670  175.2910  147.6940 C   0  0  0  0  0  1  0  0  0  0  0  0
  191.6920  175.7650  143.6780 C   0  0  0  0  0  0  0  0  0  0  0  0
  193.6250  174.8380  146.1710 C   0  0  0  0  0  2  0  0  0  0  0  0
  193.7180  177.0870  145.3540 C   0  0  0  0  0  2  0  0  0  0  0  0
  191.4020  175.9360  145.1640 C   0  0  2  0  0  0  0  0  0  0  0  0
  189.1020  178.1220  142.2980 C   0  0  0  0  0  3  0  0  0  0  0  0
  187.9820  177.8160  141.6380 C   0  0  0  0  0  3  0  0  0  0  0  0
  187.3330  176.5560  141.7880 N   0  0  0  0  0  2  0  0  0  0  0  0
  186.2250  176.4160  142.7130 C   0  0  0  0  0  1  0  0  0  0  0  0
  188.2580  177.8760  145.0340 O   0  0  0  0  0  0  0  0  0  0  0  0
  187.5420  177.4960  146.2010 C   0  0  0  0  0  2  0  0  0  0  0  0
  185.8690  178.7070  147.3800 O   0  0  0  0  0  1  0  0  0  0  0  0
  186.1400  178.0760  146.1670 C   0  0  0  0  0  2  0  0  0  0  0  0
  191.9980  172.3550  139.6630 C   0  0  0  0  0  2  0  0  0  0  0  0
  190.8520  173.3580  139.5760 C   0  0  2  0  0  3  0  0  0  0  0  0
  189.6130  172.8030  140.1990 C   0  0  0  0  0  0  0  0  0  0  0  0
  189.1750  171.6860  139.8120 O   0  0  0  0  0  0  0  0  0  0  0  0
  188.9370  173.5260  141.2310 N   0  0  0  0  0  2  0  0  0  0  0  0
  187.7300  173.0180  141.8630 C   0  0  0  0  0  1  0  0  0  0  0  0
  190.6010  173.7910  138.1650 C   0  0  0  0  0  0  0  0  0  0  0  0
  189.2610  174.0410  137.7440 N   0  0  0  0  0  2  0  0  0  0  0  0
  191.5620  173.9310  137.3600 O   0  0  0  0  0  0  0  0  0  0  0  0
  187.8170  175.4710  136.4260 C   0  0  0  0  0  1  0  0  0  0  0  0
  188.9480  174.4660  136.3890 C   0  0  0  0  0  2  0  0  0  0  0  0
  1  4  1  0  0  0  0
  2  6  1  0  0  0  0
  3  5  2  0  0  0  0
  3  8  1  0  0  0  0
  5  1  1  0  0  0  0
  6  8  1  0  0  0  0
  6 19  1  6  0  0  0
  7  9  1  0  0  0  0
  7  2  1  0  0  0  0
  8  4  2  0  0  0  0
  9 31  1  6  0  0  0
  9  3  1  0  0  0  0
 10  7  2  0  0  0  0
 11 21  1  6  0  0  0
 11 13  1  0  0  0  0
 13 18  1  1  0  0  0
 14 27  1  0  0  0  0
 14 12  1  0  0  0  0
 15 14  2  0  0  0  0
 16 20  1  0  0  0  0
 17 15  1  0  0  0  0
 17 19  2  0  0  0  0
 20 13  1  0  0  0  0
 21 16  1  0  0  0  0
 22 19  1  6  0  0  0
 22 12  1  0  0  0  0
 22 11  1  0  0  0  0
 22 13  1  0  0  0  0
 23 15  1  0  0  0  0
 24 25  1  0  0  0  0
 24 23  2  0  0  0  0
 25 26  1  0  0  0  0
 27 28  1  0  0  0  0
 30 28  1  0  0  0  0
 30 29  1  0  0  0  0
 32 31  1  6  0  0  0
 32 33  1  0  0  0  0
 33 35  1  0  0  0  0
 34 33  2  0  0  0  0
 35 36  1  0  0  0  0
 37 32  1  0  0  0  0
 38 37  1  0  0  0  0
 39 37  2  0  0  0  0
 41 40  1  0  0  0  0
 41 38  1  0  0  0  0
M  END
>  <MODEL>
4

>  <REMARK>
 VINA RESULT:      -6.4      2.477      7.443
  Name = 
  11 active torsions:
  status: ('A' for Active; 'I' for Inactive)
    1  A    between atoms: C_2  and  C_25
    2  A    between atoms: C_5  and  C_12
    3  A    between atoms: N_10  and  C_22
    4  A    between atoms: C_12  and  O_16
    5  A    between atoms: C_13  and  O_16
    6  A    between atoms: C_14  and  C_18
    7  A    between atoms: C_17  and  C_25
    8  A    between atoms: C_17  and  C_40
    9  A    between atoms: C_20  and  C_25
   10  A    between atoms: C_21  and  N_30
   11  A    between atoms: C_28  and  C_33
                            x       y       z     vdW  Elec       q    Type
                         _______ _______ _______ _____ _____    ______ ____

>  <TORSDO>
F 11

$$$$
=
 OpenBabel11062422203D

 41 45  0  0  1  0  0  0  0  0999 V2000
  194.1590  176.1460  142.6990 O   0  0  0  0  0  0  0  0  0  0  0  0
  191.3310  172.6370  141.9050 N   0  0  0  0  0  2  0  0  0  0  0  0
  193.7510  174.0630  142.2130 C   0  0  0  0  0  0  0  0  0  0  0  0
  192.8470  176.0200  142.6860 C   0  0  0  0  0  3  0  0  0  0  0  0
  194.7430  174.9990  142.4130 C   0  0  0  0  0  3  0  0  0  0  0  0
  191.2340  174.0830  142.1070 C   0  0  2  0  0  3  0  0  0  0  0  0
  192.5620  171.9620  141.5950 C   0  0  0  0  0  0  0  0  0  0  0  0
  192.5580  174.7020  142.4080 C   0  0  0  0  0  0  0  0  0  0  0  0
  193.9070  172.6300  141.7980 C   0  0  2  0  0  3  0  0  0  0  0  0
  192.5180  170.7800  141.1660 O   0  0  0  0  0  0  0  0  0  0  0  0
  187.6430  174.3450  142.2640 C   0  0  1  0  0  3  0  0  0  0  0  0
  188.4150  176.1470  143.6390 O   0  0  0  0  0  0  0  0  0  0  0  0
  188.2290  175.3380  141.2660 C   0  0  2  0  0  0  0  0  0  0  0  0
  188.5870  175.8660  145.0030 C   0  0  0  0  0  0  0  0  0  0  0  0
  189.5190  174.9640  145.3800 C   0  0  0  0  0  0  0  0  0  0  0  0
  188.1430  173.1500  140.2230 C   0  0  0  0  0  2  0  0  0  0  0  0
  190.3700  174.3330  144.3500 C   0  0  0  0  0  3  0  0  0  0  0  0
  187.2630  176.4810  141.0080 C   0  0  0  0  0  1  0  0  0  0  0  0
  190.1170  174.4600  143.0430 C   0  0  0  0  0  0  0  0  0  0  0  0
  188.7150  174.5390  140.0700 C   0  0  0  0  0  2  0  0  0  0  0  0
  187.9600  172.9660  141.7100 C   0  0  0  0  0  2  0  0  0  0  0  0
  188.8480  175.2110  142.6570 C   0  0  2  0  0  0  0  0  0  0  0  0
  189.7660  174.6000  146.7880 C   0  0  0  0  0  3  0  0  0  0  0  0
  190.5350  175.2870  147.6370 C   0  0  0  0  0  3  0  0  0  0  0  0
  191.2630  176.4440  147.2360 N   0  0  0  0  0  2  0  0  0  0  0  0
  192.6490  176.3240  146.8290 C   0  0  0  0  0  1  0  0  0  0  0  0
  187.7820  176.5030  145.9520 O   0  0  0  0  0  0  0  0  0  0  0  0
  186.9980  177.6430  145.6280 C   0  0  0  0  0  2  0  0  0  0  0  0
  185.0260  177.5910  144.3000 O   0  0  0  0  0  1  0  0  0  0  0  0
  185.5300  177.2660  145.5590 C   0  0  0  0  0  2  0  0  0  0  0  0
  194.7200  171.8870  142.8530 C   0  0  0  0  0  2  0  0  0  0  0  0
  193.9770  171.8160  144.1830 C   0  0  2  0  0  3  0  0  0  0  0  0
  194.6420  172.6750  145.2090 C   0  0  0  0  0  0  0  0  0  0  0  0
  193.9460  173.1990  146.1200 O   0  0  0  0  0  0  0  0  0  0  0  0
  196.0550  172.8920  145.1640 N   0  0  0  0  0  2  0  0  0  0  0  0
  196.7390  173.7190  146.1440 C   0  0  0  0  0  1  0  0  0  0  0  0
  193.8370  170.4070  144.6670 C   0  0  0  0  0  0  0  0  0  0  0  0
  194.7870  169.8950  145.6010 N   0  0  0  0  0  2  0  0  0  0  0  0
  192.8920  169.6800  144.2510 O   0  0  0  0  0  0  0  0  0  0  0  0
  194.5770  168.5720  147.6190 C   0  0  0  0  0  1  0  0  0  0  0  0
  194.7070  168.5360  146.1110 C   0  0  0  0  0  2  0  0  0  0  0  0
  2  6  1  0  0  0  0
  3  8  1  0  0  0  0
  3  5  2  0  0  0  0
  4  1  1  0  0  0  0
  5  1  1  0  0  0  0
  6  8  1  0  0  0  0
  6 19  1  1  0  0  0
  7  9  1  0  0  0  0
  7  2  1  0  0  0  0
  8  4  2  0  0  0  0
  9  3  1  0  0  0  0
  9 31  1  1  0  0  0
 10  7  2  0  0  0  0
 11 21  1  6  0  0  0
 11 22  1  0  0  0  0
 12 14  1  0  0  0  0
 13 18  1  6  0  0  0
 13 11  1  0  0  0  0
 13 22  1  0  0  0  0
 14 15  2  0  0  0  0
 14 27  1  0  0  0  0
 15 23  1  0  0  0  0
 16 21  1  0  0  0  0
 17 15  1  0  0  0  0
 19 17  2  0  0  0  0
 20 16  1  0  0  0  0
 20 13  1  0  0  0  0
 22 19  1  1  0  0  0
 22 12  1  0  0  0  0
 23 24  2  0  0  0  0
 25 24  1  0  0  0  0
 26 25  1  0  0  0  0
 28 27  1  0  0  0  0
 29 30  1  0  0  0  0
 30 28  1  0  0  0  0
 32 31  1  6  0  0  0
 32 37  1  0  0  0  0
 32 33  1  0  0  0  0
 33 34  2  0  0  0  0
 35 33  1  0  0  0  0
 35 36  1  0  0  0  0
 37 38  1  0  0  0  0
 38 41  1  0  0  0  0
 39 37  2  0  0  0  0
 41 40  1  0  0  0  0
M  END
>  <MODEL>
5

>  <REMARK>
 VINA RESULT:      -6.4      2.870      8.739
  Name = 
  11 active torsions:
  status: ('A' for Active; 'I' for Inactive)
    1  A    between atoms: C_2  and  C_25
    2  A    between atoms: C_5  and  C_12
    3  A    between atoms: N_10  and  C_22
    4  A    between atoms: C_12  and  O_16
    5  A    between atoms: C_13  and  O_16
    6  A    between atoms: C_14  and  C_18
    7  A    between atoms: C_17  and  C_25
    8  A    between atoms: C_17  and  C_40
    9  A    between atoms: C_20  and  C_25
   10  A    between atoms: C_21  and  N_30
   11  A    between atoms: C_28  and  C_33
                            x       y       z     vdW  Elec       q    Type
                         _______ _______ _______ _____ _____    ______ ____

>  <TORSDO>
F 11

$$$$
=
 OpenBabel11062422203D

 41 45  0  0  1  0  0  0  0  0999 V2000
  187.3430  174.6080  142.3910 O   0  0  0  0  0  0  0  0  0  0  0  0
  191.6180  176.2080  142.7030 N   0  0  0  0  0  2  0  0  0  0  0  0
  188.7990  176.1490  142.8870 C   0  0  0  0  0  0  0  0  0  0  0  0
  188.5260  174.1020  142.1070 C   0  0  0  0  0  3  0  0  0  0  0  0
  187.4570  175.8370  142.8550 C   0  0  0  0  0  3  0  0  0  0  0  0
  190.9370  175.0380  142.1470 C   0  0  2  0  0  3  0  0  0  0  0  0
  190.9360  177.4150  143.0830 C   0  0  0  0  0  0  0  0  0  0  0  0
  189.4720  175.0470  142.4380 C   0  0  0  0  0  0  0  0  0  0  0  0
  189.4330  177.4510  143.2720 C   0  0  2  0  0  3  0  0  0  0  0  0
  191.6100  178.4590  143.2840 O   0  0  0  0  0  0  0  0  0  0  0  0
  192.4650  172.1870  140.5600 C   0  0  1  0  0  3  0  0  0  0  0  0
  191.5030  171.2880  142.5600 O   0  0  0  0  0  0  0  0  0  0  0  0
  190.9640  172.2320  140.2930 C   0  0  2  0  0  0  0  0  0  0  0  0
  192.3260  171.2640  143.6960 C   0  0  0  0  0  0  0  0  0  0  0  0
  192.7500  172.4300  144.2300 C   0  0  0  0  0  0  0  0  0  0  0  0
  192.0640  173.8010  138.8050 C   0  0  0  0  0  2  0  0  0  0  0  0
  192.2950  173.7040  143.6350 C   0  0  0  0  0  3  0  0  0  0  0  0
  190.4410  170.8610  139.9050 C   0  0  0  0  0  1  0  0  0  0  0  0
  191.6500  173.7510  142.4650 C   0  0  0  0  0  0  0  0  0  0  0  0
  190.7130  173.3830  139.3340 C   0  0  0  0  0  2  0  0  0  0  0  0
  193.0420  173.4240  139.8920 C   0  0  0  0  0  2  0  0  0  0  0  0
  191.4850  172.4350  141.7150 C   0  0  2  0  0  0  0  0  0  0  0  0
  193.6230  172.5030  145.4170 C   0  0  0  0  0  3  0  0  0  0  0  0
  194.9580  172.5240  145.3910 C   0  0  0  0  0  3  0  0  0  0  0  0
  195.6950  172.4140  144.1760 N   0  0  0  0  0  2  0  0  0  0  0  0
  196.2130  173.6060  143.5320 C   0  0  0  0  0  1  0  0  0  0  0  0
  192.7130  170.0400  144.2480 O   0  0  0  0  0  0  0  0  0  0  0  0
  193.5720  169.1420  143.5580 C   0  0  0  0  0  2  0  0  0  0  0  0
  194.3500  169.0080  145.8010 O   0  0  0  0  0  1  0  0  0  0  0  0
  194.6460  168.6210  144.4940 C   0  0  0  0  0  2  0  0  0  0  0  0
  189.0840  177.7710  144.7220 C   0  0  0  0  0  2  0  0  0  0  0  0
  189.3570  176.5820  145.6370 C   0  0  2  0  0  3  0  0  0  0  0  0
  188.1570  176.2690  146.4720 C   0  0  0  0  0  0  0  0  0  0  0  0
  188.1960  175.2900  147.2640 O   0  0  0  0  0  0  0  0  0  0  0  0
  186.9820  177.0790  146.3810 N   0  0  0  0  0  2  0  0  0  0  0  0
  185.7970  176.8080  147.1770 C   0  0  0  0  0  1  0  0  0  0  0  0
  190.5660  176.8040  146.4910 C   0  0  0  0  0  0  0  0  0  0  0  0
  191.7960  176.1780  146.1300 N   0  0  0  0  0  2  0  0  0  0  0  0
  190.4970  177.5350  147.5170 O   0  0  0  0  0  0  0  0  0  0  0  0
  194.2150  176.1950  146.0160 C   0  0  0  0  0  1  0  0  0  0  0  0
  193.0070  176.3540  146.9140 C   0  0  0  0  0  2  0  0  0  0  0  0
  1  5  1  0  0  0  0
  2  7  1  0  0  0  0
  3  9  1  0  0  0  0
  4  1  1  0  0  0  0
  4  8  2  0  0  0  0
  5  3  2  0  0  0  0
  6  8  1  0  0  0  0
  6 19  1  1  0  0  0
  6  2  1  0  0  0  0
  7  9  1  0  0  0  0
  7 10  2  0  0  0  0
  8  3  1  0  0  0  0
  9 31  1  1  0  0  0
 11 21  1  6  0  0  0
 11 22  1  0  0  0  0
 12 14  1  0  0  0  0
 13 18  1  6  0  0  0
 13 11  1  0  0  0  0
 13 22  1  0  0  0  0
 14 15  2  0  0  0  0
 14 27  1  0  0  0  0
 15 23  1  0  0  0  0
 16 20  1  0  0  0  0
 16 21  1  0  0  0  0
 17 15  1  0  0  0  0
 19 17  2  0  0  0  0
 20 13  1  0  0  0  0
 22 19  1  1  0  0  0
 22 12  1  0  0  0  0
 24 23  2  0  0  0  0
 25 24  1  0  0  0  0
 26 25  1  0  0  0  0
 28 27  1  0  0  0  0
 28 30  1  0  0  0  0
 30 29  1  0  0  0  0
 32 31  1  1  0  0  0
 32 33  1  0  0  0  0
 32 37  1  0  0  0  0
 33 34  2  0  0  0  0
 35 33  1  0  0  0  0
 35 36  1  0  0  0  0
 37 39  2  0  0  0  0
 38 37  1  0  0  0  0
 38 41  1  0  0  0  0
 40 41  1  0  0  0  0
M  END
>  <MODEL>
6

>  <REMARK>
 VINA RESULT:      -6.4      2.593      5.160
  Name = 
  11 active torsions:
  status: ('A' for Active; 'I' for Inactive)
    1  A    between atoms: C_2  and  C_25
    2  A    between atoms: C_5  and  C_12
    3  A    between atoms: N_10  and  C_22
    4  A    between atoms: C_12  and  O_16
    5  A    between atoms: C_13  and  O_16
    6  A    between atoms: C_14  and  C_18
    7  A    between atoms: C_17  and  C_25
    8  A    between atoms: C_17  and  C_40
    9  A    between atoms: C_20  and  C_25
   10  A    between atoms: C_21  and  N_30
   11  A    between atoms: C_28  and  C_33
                            x       y       z     vdW  Elec       q    Type
                         _______ _______ _______ _____ _____    ______ ____

>  <TORSDO>
F 11

$$$$
=
 OpenBabel11062422203D

 41 45  0  0  1  0  0  0  0  0999 V2000
  190.9040  178.3090  142.9620 O   0  0  0  0  0  0  0  0  0  0  0  0
  190.7800  174.7050  145.7770 N   0  0  0  0  0  2  0  0  0  0  0  0
  189.9790  177.1070  144.5240 C   0  0  0  0  0  0  0  0  0  0  0  0
  191.7100  177.2870  143.1670 C   0  0  0  0  0  3  0  0  0  0  0  0
  189.8560  178.2470  143.7600 C   0  0  0  0  0  3  0  0  0  0  0  0
  191.7250  175.3180  144.8440 C   0  0  2  0  0  3  0  0  0  0  0  0
  189.6150  175.3770  146.2810 C   0  0  0  0  0  0  0  0  0  0  0  0
  191.1350  176.4910  144.1330 C   0  0  0  0  0  0  0  0  0  0  0  0
  189.0770  176.6330  145.6230 C   0  0  2  0  0  3  0  0  0  0  0  0
  189.0150  174.8970  147.2780 O   0  0  0  0  0  0  0  0  0  0  0  0
  194.9690  173.9260  144.1210 C   0  0  1  0  0  3  0  0  0  0  0  0
  193.8570  173.9310  142.0000 O   0  0  0  0  0  0  0  0  0  0  0  0
  194.9040  175.4040  143.7480 C   0  0  2  0  0  0  0  0  0  0  0  0
  193.1380  172.7730  141.6660 C   0  0  0  0  0  0  0  0  0  0  0  0
  192.0670  172.4220  142.4100 C   0  0  0  0  0  0  0  0  0  0  0  0
  195.2270  175.2210  146.1450 C   0  0  0  0  0  2  0  0  0  0  0  0
  191.6470  173.2940  143.5280 C   0  0  0  0  0  3  0  0  0  0  0  0
  195.9770  175.7550  142.7330 C   0  0  0  0  0  1  0  0  0  0  0  0
  192.4060  174.3050  143.9630 C   0  0  0  0  0  0  0  0  0  0  0  0
  194.8710  176.1920  145.0450 C   0  0  0  0  0  2  0  0  0  0  0  0
  194.7930  173.8710  145.6290 C   0  0  0  0  0  2  0  0  0  0  0  0
  193.7770  174.4660  143.3180 C   0  0  2  0  0  0  0  0  0  0  0  0
  191.2570  171.2190  142.1390 C   0  0  0  0  0  3  0  0  0  0  0  0
  190.0350  171.2210  141.6000 C   0  0  0  0  0  3  0  0  0  0  0  0
  189.3480  172.4270  141.2780 N   0  0  0  0  0  2  0  0  0  0  0  0
  188.0680  172.7200  141.8930 C   0  0  0  0  0  1  0  0  0  0  0  0
  193.5480  171.9880  140.5850 O   0  0  0  0  0  0  0  0  0  0  0  0
  193.4660  172.4520  139.2440 C   0  0  0  0  0  2  0  0  0  0  0  0
  191.2220  172.5280  138.4600 O   0  0  0  0  0  1  0  0  0  0  0  0
  192.3590  171.7220  138.5060 C   0  0  0  0  0  2  0  0  0  0  0  0
  187.6820  176.3850  145.0580 C   0  0  0  0  0  2  0  0  0  0  0  0
  187.1610  177.6050  144.3050 C   0  0  2  0  0  3  0  0  0  0  0  0
  186.1330  178.3280  145.1140 C   0  0  0  0  0  0  0  0  0  0  0  0
  185.9520  179.5600  144.9210 O   0  0  0  0  0  0  0  0  0  0  0  0
  185.3570  177.6280  146.0890 N   0  0  0  0  0  2  0  0  0  0  0  0
  184.3470  178.2950  146.8940 C   0  0  0  0  0  1  0  0  0  0  0  0
  186.6270  177.2390  142.9560 C   0  0  0  0  0  0  0  0  0  0  0  0
  186.5070  178.2500  141.9570 N   0  0  0  0  0  2  0  0  0  0  0  0
  186.2860  176.0490  142.7060 O   0  0  0  0  0  0  0  0  0  0  0  0
  184.5370  178.3490  140.5510 C   0  0  0  0  0  1  0  0  0  0  0  0
  185.9980  177.9610  140.6270 C   0  0  0  0  0  2  0  0  0  0  0  0
  1  4  1  0  0  0  0
  1  5  1  0  0  0  0
  2  7  1  0  0  0  0
  3  9  1  0  0  0  0
  4  8  2  0  0  0  0
  5  3  2  0  0  0  0
  6 19  1  6  0  0  0
  6  2  1  0  0  0  0
  7 10  2  0  0  0  0
  8  3  1  0  0  0  0
  8  6  1  0  0  0  0
  9 31  1  6  0  0  0
  9  7  1  0  0  0  0
 11 21  1  1  0  0  0
 13 18  1  6  0  0  0
 13 11  1  0  0  0  0
 13 20  1  0  0  0  0
 14 12  1  0  0  0  0
 14 15  2  0  0  0  0
 15 17  1  0  0  0  0
 17 19  2  0  0  0  0
 20 16  1  0  0  0  0
 21 16  1  0  0  0  0
 22 12  1  6  0  0  0
 22 13  1  0  0  0  0
 22 19  1  0  0  0  0
 22 11  1  0  0  0  0
 23 15  1  0  0  0  0
 24 23  2  0  0  0  0
 25 24  1  0  0  0  0
 25 26  1  0  0  0  0
 27 14  1  0  0  0  0
 28 27  1  0  0  0  0
 29 30  1  0  0  0  0
 30 28  1  0  0  0  0
 32 31  1  1  0  0  0
 32 33  1  0  0  0  0
 33 35  1  0  0  0  0
 34 33  2  0  0  0  0
 35 36  1  0  0  0  0
 37 32  1  0  0  0  0
 38 37  1  0  0  0  0
 39 37  2  0  0  0  0
 40 41  1  0  0  0  0
 41 38  1  0  0  0  0
M  END
>  <MODEL>
7

>  <REMARK>
 VINA RESULT:      -6.4      1.561      3.091
  Name = 
  11 active torsions:
  status: ('A' for Active; 'I' for Inactive)
    1  A    between atoms: C_2  and  C_25
    2  A    between atoms: C_5  and  C_12
    3  A    between atoms: N_10  and  C_22
    4  A    between atoms: C_12  and  O_16
    5  A    between atoms: C_13  and  O_16
    6  A    between atoms: C_14  and  C_18
    7  A    between atoms: C_17  and  C_25
    8  A    between atoms: C_17  and  C_40
    9  A    between atoms: C_20  and  C_25
   10  A    between atoms: C_21  and  N_30
   11  A    between atoms: C_28  and  C_33
                            x       y       z     vdW  Elec       q    Type
                         _______ _______ _______ _____ _____    ______ ____

>  <TORSDO>
F 11

$$$$
=
 OpenBabel11062422203D

 41 45  0  0  1  0  0  0  0  0999 V2000
  189.5230  173.4610  142.2060 O   0  0  0  0  0  0  0  0  0  0  0  0
  191.9740  177.2080  143.1460 N   0  0  0  0  0  2  0  0  0  0  0  0
  189.7160  175.5450  142.8050 C   0  0  0  0  0  0  0  0  0  0  0  0
  190.8140  173.7280  142.2010 C   0  0  0  0  0  3  0  0  0  0  0  0
  188.8250  174.5230  142.5540 C   0  0  0  0  0  3  0  0  0  0  0  0
  192.2050  175.8720  142.5960 C   0  0  2  0  0  3  0  0  0  0  0  0
  190.6700  177.8000  143.2660 C   0  0  0  0  0  0  0  0  0  0  0  0
  190.9680  175.0360  142.6050 C   0  0  0  0  0  0  0  0  0  0  0  0
  189.4080  176.9670  143.1660 C   0  0  2  0  0  3  0  0  0  0  0  0
  190.5780  179.0370  143.4810 O   0  0  0  0  0  0  0  0  0  0  0  0
  193.5620  174.6480  145.7010 C   0  0  1  0  0  3  0  0  0  0  0  0
  195.4690  175.5070  144.5370 O   0  0  0  0  0  0  0  0  0  0  0  0
  193.3610  176.1590  145.7410 C   0  0  2  0  0  0  0  0  0  0  0  0
  196.1660  174.6020  143.7210 C   0  0  0  0  0  0  0  0  0  0  0  0
  195.5480  174.0680  142.6470 C   0  0  0  0  0  0  0  0  0  0  0  0
  191.2190  175.0820  146.1130 C   0  0  0  0  0  2  0  0  0  0  0  0
  194.1670  174.4880  142.3260 C   0  0  0  0  0  3  0  0  0  0  0  0
  194.2310  176.7930  146.8110 C   0  0  0  0  0  1  0  0  0  0  0  0
  193.4320  175.2170  143.1720 C   0  0  0  0  0  0  0  0  0  0  0  0
  191.8650  176.4110  145.8040 C   0  0  0  0  0  2  0  0  0  0  0  0
  192.1720  174.0490  145.5620 C   0  0  0  0  0  2  0  0  0  0  0  0
  194.0440  175.5190  144.5340 C   0  0  2  0  0  0  0  0  0  0  0  0
  196.1980  173.1040  141.7380 C   0  0  0  0  0  3  0  0  0  0  0  0
  196.8960  173.4270  140.6470 C   0  0  0  0  0  3  0  0  0  0  0  0
  197.0360  174.7750  140.2050 N   0  0  0  0  0  2  0  0  0  0  0  0
  196.1680  175.2910  139.1640 C   0  0  0  0  0  1  0  0  0  0  0  0
  197.4810  174.2490  144.0410 O   0  0  0  0  0  0  0  0  0  0  0  0
  197.8000  173.5280  145.2230 C   0  0  0  0  0  2  0  0  0  0  0  0
  196.8160  171.5410  146.0830 O   0  0  0  0  0  1  0  0  0  0  0  0
  197.5560  172.0460  145.0140 C   0  0  0  0  0  2  0  0  0  0  0  0
  188.6410  176.9960  144.4840 C   0  0  0  0  0  2  0  0  0  0  0  0
  187.4270  177.9160  144.4040 C   0  0  2  0  0  3  0  0  0  0  0  0
  186.6790  177.9210  145.6970 C   0  0  0  0  0  0  0  0  0  0  0  0
  187.1600  177.3110  146.6900 O   0  0  0  0  0  0  0  0  0  0  0  0
  185.4360  178.6180  145.8100 N   0  0  0  0  0  2  0  0  0  0  0  0
  184.6800  178.6470  147.0520 C   0  0  0  0  0  1  0  0  0  0  0  0
  186.5300  177.5520  143.2620 C   0  0  0  0  0  0  0  0  0  0  0  0
  186.3490  178.4830  142.1960 N   0  0  0  0  0  2  0  0  0  0  0  0
  185.9410  176.4360  143.2440 O   0  0  0  0  0  0  0  0  0  0  0  0
  186.3150  177.5410  139.9650 C   0  0  0  0  0  1  0  0  0  0  0  0
  185.4940  178.1910  141.0580 C   0  0  0  0  0  2  0  0  0  0  0  0
  1  5  1  0  0  0  0
  2  7  1  0  0  0  0
  3  9  1  0  0  0  0
  4  1  1  0  0  0  0
  4  8  2  0  0  0  0
  5  3  2  0  0  0  0
  6  8  1  0  0  0  0
  6  2  1  0  0  0  0
  6 19  1  1  0  0  0
  7 10  2  0  0  0  0
  8  3  1  0  0  0  0
  9  7  1  0  0  0  0
  9 31  1  1  0  0  0
 11 21  1  6  0  0  0
 11 13  1  0  0  0  0
 13 20  1  0  0  0  0
 13 18  1  1  0  0  0
 14 27  1  0  0  0  0
 14 12  1  0  0  0  0
 15 14  2  0  0  0  0
 17 15  1  0  0  0  0
 17 19  2  0  0  0  0
 20 16  1  0  0  0  0
 21 16  1  0  0  0  0
 22 19  1  6  0  0  0
 22 12  1  0  0  0  0
 22 11  1  0  0  0  0
 22 13  1  0  0  0  0
 23 15  1  0  0  0  0
 24 23  2  0  0  0  0
 25 24  1  0  0  0  0
 26 25  1  0  0  0  0
 27 28  1  0  0  0  0
 30 28  1  0  0  0  0
 30 29  1  0  0  0  0
 32 31  1  1  0  0  0
 32 33  1  0  0  0  0
 33 35  1  0  0  0  0
 33 34  2  0  0  0  0
 35 36  1  0  0  0  0
 37 32  1  0  0  0  0
 38 37  1  0  0  0  0
 39 37  2  0  0  0  0
 40 41  1  0  0  0  0
 41 38  1  0  0  0  0
M  END
>  <MODEL>
8

>  <REMARK>
 VINA RESULT:      -6.2      2.434      4.296
  Name = 
  11 active torsions:
  status: ('A' for Active; 'I' for Inactive)
    1  A    between atoms: C_2  and  C_25
    2  A    between atoms: C_5  and  C_12
    3  A    between atoms: N_10  and  C_22
    4  A    between atoms: C_12  and  O_16
    5  A    between atoms: C_13  and  O_16
    6  A    between atoms: C_14  and  C_18
    7  A    between atoms: C_17  and  C_25
    8  A    between atoms: C_17  and  C_40
    9  A    between atoms: C_20  and  C_25
   10  A    between atoms: C_21  and  N_30
   11  A    between atoms: C_28  and  C_33
                            x       y       z     vdW  Elec       q    Type
                         _______ _______ _______ _____ _____    ______ ____

>  <TORSDO>
F 11

$$$$
=
 OpenBabel11062422203D

 41 45  0  0  1  0  0  0  0  0999 V2000
  191.1420  178.6810  143.8380 O   0  0  0  0  0  0  0  0  0  0  0  0
  191.5320  174.1370  144.2070 N   0  0  0  0  0  2  0  0  0  0  0  0
  190.3660  176.7080  144.3330 C   0  0  0  0  0  0  0  0  0  0  0  0
  192.1150  177.8280  143.5870 C   0  0  0  0  0  3  0  0  0  0  0  0
  190.0760  178.0540  144.2940 C   0  0  0  0  0  3  0  0  0  0  0  0
  192.4000  175.2790  143.9180 C   0  0  2  0  0  3  0  0  0  0  0  0
  190.2280  174.2630  144.7970 C   0  0  0  0  0  0  0  0  0  0  0  0
  191.6420  176.5650  143.8650 C   0  0  0  0  0  0  0  0  0  0  0  0
  189.5020  175.5930  144.8410 C   0  0  2  0  0  3  0  0  0  0  0  0
  189.6680  173.2380  145.2660 O   0  0  0  0  0  0  0  0  0  0  0  0
  195.8460  174.5690  143.1410 C   0  0  1  0  0  3  0  0  0  0  0  0
  195.1090  175.9260  141.3110 O   0  0  0  0  0  0  0  0  0  0  0  0
  195.6910  175.9560  143.7570 C   0  0  2  0  0  0  0  0  0  0  0  0
  194.5810  175.2490  140.2010 C   0  0  0  0  0  0  0  0  0  0  0  0
  193.4440  174.5350  140.3420 C   0  0  0  0  0  0  0  0  0  0  0  0
  195.6260  174.3060  145.5340 C   0  0  0  0  0  2  0  0  0  0  0  0
  192.7540  174.5260  141.6500 C   0  0  0  0  0  3  0  0  0  0  0  0
  196.8760  176.8390  143.4100 C   0  0  0  0  0  1  0  0  0  0  0  0
  193.3200  175.0240  142.7540 C   0  0  0  0  0  0  0  0  0  0  0  0
  195.3600  175.7600  145.2260 C   0  0  0  0  0  2  0  0  0  0  0  0
  195.4280  173.5870  144.2220 C   0  0  0  0  0  2  0  0  0  0  0  0
  194.7550  175.5200  142.6300 C   0  0  2  0  0  0  0  0  0  0  0  0
  192.8190  173.7860  139.2350 C   0  0  0  0  0  3  0  0  0  0  0  0
  193.1080  172.5250  138.9000 C   0  0  0  0  0  3  0  0  0  0  0  0
  194.1220  171.7760  139.5640 N   0  0  0  0  0  2  0  0  0  0  0  0
  195.4020  171.5570  138.9190 C   0  0  0  0  0  1  0  0  0  0  0  0
  195.2460  175.3030  138.9730 O   0  0  0  0  0  0  0  0  0  0  0  0
  196.6620  175.2350  138.8800 C   0  0  0  0  0  2  0  0  0  0  0  0
  197.9400  175.5860  136.9050 O   0  0  0  0  0  1  0  0  0  0  0  0
  197.0720  174.6880  137.5260 C   0  0  0  0  0  2  0  0  0  0  0  0
  188.2220  175.5320  144.0150 C   0  0  0  0  0  2  0  0  0  0  0  0
  188.5140  175.6510  142.5230 C   0  0  2  0  0  3  0  0  0  0  0  0
  187.5970  176.6400  141.8800 C   0  0  0  0  0  0  0  0  0  0  0  0
  187.0550  177.5290  142.5890 O   0  0  0  0  0  0  0  0  0  0  0  0
  187.3470  176.5840  140.4730 N   0  0  0  0  0  2  0  0  0  0  0  0
  186.4630  177.5290  139.8110 C   0  0  0  0  0  1  0  0  0  0  0  0
  188.4440  174.3220  141.8370 C   0  0  0  0  0  0  0  0  0  0  0  0
  189.5200  173.9190  140.9910 N   0  0  0  0  0  2  0  0  0  0  0  0
  187.4440  173.5700  142.0030 O   0  0  0  0  0  0  0  0  0  0  0  0
  190.2740  171.6210  141.1170 C   0  0  0  0  0  1  0  0  0  0  0  0
  189.5150  172.6420  140.2970 C   0  0  0  0  0  2  0  0  0  0  0  0
  1  5  1  0  0  0  0
  2  7  1  0  0  0  0
  3  9  1  0  0  0  0
  4  1  1  0  0  0  0
  4  8  2  0  0  0  0
  5  3  2  0  0  0  0
  6 19  1  6  0  0  0
  6  2  1  0  0  0  0
  7  9  1  0  0  0  0
  7 10  2  0  0  0  0
  8  6  1  0  0  0  0
  8  3  1  0  0  0  0
  9 31  1  6  0  0  0
 11 13  1  0  0  0  0
 11 21  1  1  0  0  0
 13 18  1  6  0  0  0
 13 20  1  0  0  0  0
 14 15  2  0  0  0  0
 14 12  1  0  0  0  0
 15 17  1  0  0  0  0
 17 19  2  0  0  0  0
 20 16  1  0  0  0  0
 21 16  1  0  0  0  0
 22 12  1  6  0  0  0
 22 19  1  0  0  0  0
 22 11  1  0  0  0  0
 22 13  1  0  0  0  0
 23 15  1  0  0  0  0
 24 23  2  0  0  0  0
 24 25  1  0  0  0  0
 26 25  1  0  0  0  0
 27 14  1  0  0  0  0
 28 27  1  0  0  0  0
 29 30  1  0  0  0  0
 30 28  1  0  0  0  0
 32 31  1  1  0  0  0
 33 32  1  0  0  0  0
 33 34  2  0  0  0  0
 35 33  1  0  0  0  0
 36 35  1  0  0  0  0
 37 39  2  0  0  0  0
 37 32  1  0  0  0  0
 38 37  1  0  0  0  0
 41 38  1  0  0  0  0
 41 40  1  0  0  0  0
M  END
>  <MODEL>
9

>  <REMARK>
 VINA RESULT:      -6.2      2.847      4.465
  Name = 
  11 active torsions:
  status: ('A' for Active; 'I' for Inactive)
    1  A    between atoms: C_2  and  C_25
    2  A    between atoms: C_5  and  C_12
    3  A    between atoms: N_10  and  C_22
    4  A    between atoms: C_12  and  O_16
    5  A    between atoms: C_13  and  O_16
    6  A    between atoms: C_14  and  C_18
    7  A    between atoms: C_17  and  C_25
    8  A    between atoms: C_17  and  C_40
    9  A    between atoms: C_20  and  C_25
   10  A    between atoms: C_21  and  N_30
   11  A    between atoms: C_28  and  C_33
                            x       y       z     vdW  Elec       q    Type
                         _______ _______ _______ _____ _____    ______ ____

>  <TORSDO>
F 11

$$$$
