=
 OpenBabel11062420323D

 53 58  0  0  1  0  0  0  0  0999 V2000
  194.4780  173.0900  144.3170 N   0  0  0  0  0  0  0  0  0  0  0  0
  196.2000  172.9830  145.7930 N   0  0  0  0  0  0  0  0  0  0  0  0
  195.3010  172.0400  143.9190 N   0  0  0  0  0  0  0  0  0  0  0  0
  196.4060  171.8900  144.8510 C   0  0  0  0  0  3  0  0  0  0  0  0
  195.0110  173.6320  145.3570 C   0  0  0  0  0  0  0  0  0  0  0  0
  194.3930  174.7770  146.0880 C   0  0  0  0  0  2  0  0  0  0  0  0
  192.7690  176.2260  144.9260 C   0  0  0  0  0  3  0  0  0  0  0  0
  194.0460  175.8870  145.1460 C   0  0  0  0  0  0  0  0  0  0  0  0
  189.2880  175.8900  146.4960 C   0  0  1  0  0  3  0  0  0  0  0  0
  191.6130  175.5740  145.6160 C   0  0  2  0  0  3  0  0  0  0  0  0
  189.3310  174.3530  146.4990 C   0  0  0  0  0  2  0  0  0  0  0  0
  191.3170  174.2820  144.9780 N   0  0  0  0  0  2  0  0  0  0  0  0
  189.9370  173.8120  145.2010 C   0  0  0  0  0  2  0  0  0  0  0  0
  190.3960  176.4950  145.6230 C   0  0  0  0  0  2  0  0  0  0  0  0
  187.9190  176.3960  146.0530 C   0  0  2  0  0  3  0  0  0  0  0  0
  188.0460  177.6530  145.4560 O   0  0  0  0  0  1  0  0  0  0  0  0
  185.7950  177.1100  146.7420 C   0  0  0  0  0  1  0  0  0  0  0  0
  187.0300  176.4990  147.2010 N   0  0  0  0  0  2  0  0  0  0  0  0
  195.3760  176.3300  143.0000 C   0  0  0  0  0  0  0  0  0  0  0  0
  194.5120  175.8280  142.2380 O   0  0  0  0  0  0  0  0  0  0  0  0
  195.1100  176.4890  144.3990 N   0  0  0  0  0  2  0  0  0  0  0  0
  196.6010  176.7330  142.4600 O   0  0  0  0  0  0  0  0  0  0  0  0
  197.5470  175.8450  141.8650 C   0  0  1  0  0  3  0  0  0  0  0  0
  197.5460  174.5010  142.5690 C   0  0  0  0  0  1  0  0  0  0  0  0
  197.3070  175.6690  140.3670 C   0  0  0  0  0  2  0  0  0  0  0  0
  197.6280  174.2540  139.9230 C   0  0  0  0  0  2  0  0  0  0  0  0
  196.5560  173.7150  139.2140 O   0  0  0  0  0  0  0  0  0  0  0  0
  195.7100  174.7990  138.9750 C   0  0  0  0  0  1  0  0  0  0  0  0
  194.9300  171.0990  142.8720 C   0  0  0  0  0  2  0  0  0  0  0  0
  193.4150  172.3280  141.2500 C   0  0  0  0  0  2  0  0  0  0  0  0
  193.8660  171.0710  140.5400 C   0  0  1  0  0  3  0  0  0  0  0  0
  194.8120  171.7910  141.5110 C   0  0  2  0  0  3  0  0  0  0  0  0
  193.1870  169.9240  141.1340 N   0  0  0  0  0  2  0  0  0  0  0  0
  191.7690  169.8410  141.3220 C   0  0  0  0  0  0  0  0  0  0  0  0
  191.3160  168.9590  142.0990 O   0  0  0  0  0  0  0  0  0  0  0  0
  189.7520  172.4700  137.2990 C   0  0  0  0  0  0  0  0  0  0  0  0
  189.1770  172.5210  140.7400 C   0  0  0  0  0  0  0  0  0  0  0  0
  188.4830  173.3460  141.4690 C   0  0  0  0  0  0  0  0  0  0  0  0
  187.7920  174.1780  142.2020 C   0  0  0  0  0  3  0  0  0  0  0  0
  190.1140  172.0350  138.6910 C   0  0  1  0  0  3  0  0  0  0  0  0
  189.9020  171.9320  136.0890 C   0  0  0  0  0  2  0  0  0  0  0  0
  188.4250  173.4620  138.1200 S   0  0  0  0  0  0  0  0  0  0  0  0
  188.8070  172.2170  139.3340 C   0  0  2  0  0  3  0  0  0  0  0  0
  190.7000  170.7030  139.1180 C   0  0  0  0  0  2  0  0  0  0  0  0
  190.8260  170.7570  140.6470 C   0  0  0  0  0  0  0  0  0  0  0  0
  190.1250  171.6190  141.3510 N   0  0  0  0  0  0  0  0  0  0  0  0
  187.0410  177.8540  141.9260 C   0  0  0  0  0  0  0  0  0  0  0  0
  189.2720  176.2090  142.3040 C   0  0  0  0  0  3  0  0  0  0  0  0
  185.9330  178.6720  141.7440 O   0  0  0  0  0  1  0  0  0  0  0  0
  188.3100  178.4210  142.0740 C   0  0  0  0  0  3  0  0  0  0  0  0
  187.9970  175.6340  142.1560 C   0  0  0  0  0  0  0  0  0  0  0  0
  186.8850  176.4630  141.9660 C   0  0  0  0  0  3  0  0  0  0  0  0
  189.4270  177.5990  142.2630 C   0  0  0  0  0  3  0  0  0  0  0  0
  1  5  2  0  0  0  0
  3  1  1  0  0  0  0
  3  4  1  0  0  0  0
  4  2  2  0  0  0  0
  5  2  1  0  0  0  0
  5  6  1  0  0  0  0
  7  8  2  0  0  0  0
  8  6  1  0  0  0  0
  9 15  1  6  0  0  0
  9 11  1  0  0  0  0
 10  7  1  6  0  0  0
 10 14  1  0  0  0  0
 12 13  1  0  0  0  0
 12 10  1  0  0  0  0
 13 11  1  0  0  0  0
 14  9  1  0  0  0  0
 15 16  1  1  0  0  0
 15 18  1  0  0  0  0
 17 18  1  0  0  0  0
 19 21  1  0  0  0  0
 20 19  2  0  0  0  0
 21  8  1  0  0  0  0
 22 19  1  0  0  0  0
 23 22  1  0  0  0  0
 23 24  1  1  0  0  0
 25 23  1  0  0  0  0
 26 25  1  0  0  0  0
 27 26  1  0  0  0  0
 28 27  1  0  0  0  0
 29  3  1  0  0  0  0
 30 32  1  0  0  0  0
 31 33  1  1  0  0  0
 31 30  1  0  0  0  0
 31 32  1  0  0  0  0
 32 29  1  1  0  0  0
 33 34  1  0  0  0  0
 34 35  2  0  0  0  0
 36 42  1  0  0  0  0
 36 40  1  0  0  0  0
 37 46  1  0  0  0  0
 37 38  2  0  0  0  0
 38 39  2  0  0  0  0
 40 44  1  6  0  0  0
 40 43  1  0  0  0  0
 41 36  2  0  0  0  0
 43 42  1  6  0  0  0
 43 37  1  0  0  0  0
 44 45  1  0  0  0  0
 45 34  1  0  0  0  0
 45 46  2  0  0  0  0
 47 52  2  0  0  0  0
 47 50  1  0  0  0  0
 49 47  1  0  0  0  0
 50 53  2  0  0  0  0
 51 39  1  0  0  0  0
 51 48  2  0  0  0  0
 52 51  1  0  0  0  0
 53 48  1  0  0  0  0
M  END
>  <MODEL>
1

>  <REMARK>
 VINA RESULT:      -6.7      0.000      0.000
  Name = 
  16 active torsions:
  status: ('A' for Active; 'I' for Inactive)
    1  A    between atoms: C_2  and  C_3
    2  A    between atoms: C_3  and  N_14
    3  A    between atoms: C_4  and  O_30
    4  A    between atoms: C_5  and  C_46
    5  A    between atoms: C_5  and  C_53
    6  A    between atoms: C_7  and  C_50
    7  A    between atoms: C_18  and  C_19
    8  A    between atoms: C_18  and  C_32
    9  A    between atoms: C_19  and  O_30
   10  A    between atoms: C_20  and  N_27
   11  A    between atoms: C_21  and  C_34
   12  A    between atoms: C_23  and  C_25
   13  A    between atoms: C_23  and  N_38
   14  A    between atoms: O_26  and  C_32
   15  A    between atoms: C_42  and  C_45
   16  A    between atoms: N_43  and  C_53
                            x       y       z     vdW  Elec       q    Type
                         _______ _______ _______ _____ _____    ______ ____

>  <TORSDO>
F 16

$$$$
=
 OpenBabel11062420323D

 53 58  0  0  1  0  0  0  0  0999 V2000
  190.7570  177.7950  143.5030 N   0  0  0  0  0  0  0  0  0  0  0  0
  189.2980  176.5160  144.6820 N   0  0  0  0  0  0  0  0  0  0  0  0
  191.4830  177.1510  144.5010 N   0  0  0  0  0  0  0  0  0  0  0  0
  190.6100  176.2790  145.2700 C   0  0  0  0  0  3  0  0  0  0  0  0
  189.5230  177.4520  143.6340 C   0  0  0  0  0  0  0  0  0  0  0  0
  188.4420  177.9230  142.7170 C   0  0  0  0  0  2  0  0  0  0  0  0
  186.4840  176.4500  142.4310 C   0  0  0  0  0  3  0  0  0  0  0  0
  187.7390  176.7650  142.0820 C   0  0  0  0  0  0  0  0  0  0  0  0
  185.2100  177.6140  145.8530 C   0  0  1  0  0  3  0  0  0  0  0  0
  185.6840  177.2320  143.4220 C   0  0  2  0  0  3  0  0  0  0  0  0
  184.5660  178.8900  145.2880 C   0  0  0  0  0  2  0  0  0  0  0  0
  185.7500  178.6650  143.0950 N   0  0  0  0  0  2  0  0  0  0  0  0
  185.4680  179.5490  144.2410 C   0  0  0  0  0  2  0  0  0  0  0  0
  186.1610  176.9530  144.8450 C   0  0  0  0  0  2  0  0  0  0  0  0
  185.9350  177.9030  147.1640 C   0  0  2  0  0  3  0  0  0  0  0  0
  185.7690  176.8330  148.0470 O   0  0  0  0  0  1  0  0  0  0  0  0
  186.5300  179.9430  148.1550 C   0  0  0  0  0  1  0  0  0  0  0  0
  185.4020  179.1130  147.7730 N   0  0  0  0  0  2  0  0  0  0  0  0
  189.0440  174.6450  141.4710 C   0  0  0  0  0  0  0  0  0  0  0  0
  188.6870  174.0060  142.4940 O   0  0  0  0  0  0  0  0  0  0  0  0
  188.4880  175.9350  141.1870 N   0  0  0  0  0  2  0  0  0  0  0  0
  189.9910  174.0740  140.6150 O   0  0  0  0  0  0  0  0  0  0  0  0
  191.2250  173.5040  141.0500 C   0  0  1  0  0  3  0  0  0  0  0  0
  191.7250  174.1850  142.3100 C   0  0  0  0  0  1  0  0  0  0  0  0
  191.1170  171.9950  141.2610 C   0  0  0  0  0  2  0  0  0  0  0  0
  191.5030  171.2370  140.0040 C   0  0  0  0  0  2  0  0  0  0  0  0
  190.3780  170.6460  139.4310 O   0  0  0  0  0  0  0  0  0  0  0  0
  190.2590  171.2540  138.1800 C   0  0  0  0  0  1  0  0  0  0  0  0
  192.9370  177.1770  144.5620 C   0  0  0  0  0  2  0  0  0  0  0  0
  194.2950  177.0800  146.7020 C   0  0  0  0  0  2  0  0  0  0  0  0
  194.9970  176.1770  145.7140 C   0  0  1  0  0  3  0  0  0  0  0  0
  193.4670  176.2960  145.6970 C   0  0  2  0  0  3  0  0  0  0  0  0
  195.6550  177.0030  144.7060 N   0  0  0  0  0  2  0  0  0  0  0  0
  196.4280  176.4770  143.6190 C   0  0  0  0  0  0  0  0  0  0  0  0
  197.1880  177.2580  142.9890 O   0  0  0  0  0  0  0  0  0  0  0  0
  194.9890  172.4160  140.6860 C   0  0  0  0  0  0  0  0  0  0  0  0
  196.6360  172.7120  143.7470 C   0  0  0  0  0  0  0  0  0  0  0  0
  196.9520  171.8070  144.6280 C   0  0  0  0  0  0  0  0  0  0  0  0
  197.2640  170.9000  145.5150 C   0  0  0  0  0  3  0  0  0  0  0  0
  195.4700  173.2560  141.8350 C   0  0  1  0  0  3  0  0  0  0  0  0
  194.7410  172.6580  139.3990 C   0  0  0  0  0  2  0  0  0  0  0  0
  195.7160  170.9960  141.6200 S   0  0  0  0  0  0  0  0  0  0  0  0
  196.5720  172.4030  142.2960 C   0  0  2  0  0  3  0  0  0  0  0  0
  195.9380  174.6980  141.7920 C   0  0  0  0  0  2  0  0  0  0  0  0
  196.3690  175.0550  143.2210 C   0  0  0  0  0  0  0  0  0  0  0  0
  196.6610  174.1130  144.0920 N   0  0  0  0  0  0  0  0  0  0  0  0
  194.2030  168.7300  145.7900 C   0  0  0  0  0  0  0  0  0  0  0  0
  196.4300  169.3930  147.3470 C   0  0  0  0  0  3  0  0  0  0  0  0
  193.1010  168.3950  145.0140 O   0  0  0  0  0  1  0  0  0  0  0  0
  194.3610  168.1670  147.0590 C   0  0  0  0  0  3  0  0  0  0  0  0
  196.2770  169.9620  146.0710 C   0  0  0  0  0  0  0  0  0  0  0  0
  195.1590  169.6270  145.2970 C   0  0  0  0  0  3  0  0  0  0  0  0
  195.4740  168.4980  147.8390 C   0  0  0  0  0  3  0  0  0  0  0  0
  1  5  2  0  0  0  0
  1  3  1  0  0  0  0
  2  4  2  0  0  0  0
  3 29  1  0  0  0  0
  3  4  1  0  0  0  0
  5  2  1  0  0  0  0
  6  5  1  0  0  0  0
  8  7  2  0  0  0  0
  8  6  1  0  0  0  0
  9 15  1  1  0  0  0
 10  7  1  6  0  0  0
 10 14  1  0  0  0  0
 11  9  1  0  0  0  0
 12 10  1  0  0  0  0
 12 13  1  0  0  0  0
 13 11  1  0  0  0  0
 14  9  1  0  0  0  0
 15 18  1  0  0  0  0
 15 16  1  1  0  0  0
 18 17  1  0  0  0  0
 19 20  2  0  0  0  0
 21 19  1  0  0  0  0
 21  8  1  0  0  0  0
 22 23  1  0  0  0  0
 22 19  1  0  0  0  0
 23 25  1  0  0  0  0
 23 24  1  1  0  0  0
 26 25  1  0  0  0  0
 27 26  1  0  0  0  0
 28 27  1  0  0  0  0
 31 33  1  6  0  0  0
 31 30  1  0  0  0  0
 32 29  1  6  0  0  0
 32 31  1  0  0  0  0
 32 30  1  0  0  0  0
 34 33  1  0  0  0  0
 35 34  2  0  0  0  0
 36 42  1  0  0  0  0
 36 40  1  0  0  0  0
 37 46  1  0  0  0  0
 37 38  2  0  0  0  0
 38 39  2  0  0  0  0
 39 51  1  0  0  0  0
 40 44  1  6  0  0  0
 40 43  1  0  0  0  0
 41 36  2  0  0  0  0
 43 42  1  1  0  0  0
 43 37  1  0  0  0  0
 44 45  1  0  0  0  0
 45 34  1  0  0  0  0
 45 46  2  0  0  0  0
 47 50  1  0  0  0  0
 48 53  1  0  0  0  0
 49 47  1  0  0  0  0
 50 53  2  0  0  0  0
 51 48  2  0  0  0  0
 52 47  2  0  0  0  0
 52 51  1  0  0  0  0
M  END
>  <MODEL>
2

>  <REMARK>
 VINA RESULT:      -6.3      2.827      7.818
  Name = 
  16 active torsions:
  status: ('A' for Active; 'I' for Inactive)
    1  A    between atoms: C_2  and  C_3
    2  A    between atoms: C_3  and  N_14
    3  A    between atoms: C_4  and  O_30
    4  A    between atoms: C_5  and  C_46
    5  A    between atoms: C_5  and  C_53
    6  A    between atoms: C_7  and  C_50
    7  A    between atoms: C_18  and  C_19
    8  A    between atoms: C_18  and  C_32
    9  A    between atoms: C_19  and  O_30
   10  A    between atoms: C_20  and  N_27
   11  A    between atoms: C_21  and  C_34
   12  A    between atoms: C_23  and  C_25
   13  A    between atoms: C_23  and  N_38
   14  A    between atoms: O_26  and  C_32
   15  A    between atoms: C_42  and  C_45
   16  A    between atoms: N_43  and  C_53
                            x       y       z     vdW  Elec       q    Type
                         _______ _______ _______ _____ _____    ______ ____

>  <TORSDO>
F 16

$$$$
=
 OpenBabel11062420323D

 53 58  0  0  1  0  0  0  0  0999 V2000
  185.3860  178.7400  144.5510 N   0  0  0  0  0  0  0  0  0  0  0  0
  183.7240  178.8240  146.0940 N   0  0  0  0  0  0  0  0  0  0  0  0
  185.9480  178.4160  145.7820 N   0  0  0  0  0  0  0  0  0  0  0  0
  184.9230  178.4110  146.8130 C   0  0  0  0  0  3  0  0  0  0  0  0
  184.1400  178.9970  144.7440 C   0  0  0  0  0  0  0  0  0  0  0  0
  183.1980  179.3560  143.6420 C   0  0  0  0  0  2  0  0  0  0  0  0
  182.3920  178.1750  141.6310 C   0  0  0  0  0  3  0  0  0  0  0  0
  183.4080  178.4710  142.4530 C   0  0  0  0  0  0  0  0  0  0  0  0
  179.3060  180.3320  140.9120 C   0  0  1  0  0  3  0  0  0  0  0  0
  181.0110  178.7230  141.7990 C   0  0  2  0  0  3  0  0  0  0  0  0
  178.3810  179.4750  141.7900 C   0  0  0  0  0  2  0  0  0  0  0  0
  180.0520  177.6190  141.9540 N   0  0  0  0  0  2  0  0  0  0  0  0
  178.6660  177.9820  141.6040 C   0  0  0  0  0  2  0  0  0  0  0  0
  180.6430  179.6330  140.6300 C   0  0  0  0  0  2  0  0  0  0  0  0
  178.6160  180.7180  139.6070 C   0  0  2  0  0  3  0  0  0  0  0  0
  178.4990  179.5970  138.7810 O   0  0  0  0  0  1  0  0  0  0  0  0
  178.8830  183.0330  139.3540 C   0  0  0  0  0  1  0  0  0  0  0  0
  179.3860  181.7430  138.9190 N   0  0  0  0  0  2  0  0  0  0  0  0
  185.4860  177.8200  141.1020 C   0  0  0  0  0  0  0  0  0  0  0  0
  185.2190  178.5740  140.1330 O   0  0  0  0  0  0  0  0  0  0  0  0
  184.6910  177.8560  142.2940 N   0  0  0  0  0  2  0  0  0  0  0  0
  186.5730  176.9460  141.0000 O   0  0  0  0  0  0  0  0  0  0  0  0
  187.3970  176.5580  142.0980 C   0  0  1  0  0  3  0  0  0  0  0  0
  187.2570  175.0760  142.3870 C   0  0  0  0  0  1  0  0  0  0  0  0
  188.8630  176.9270  141.8760 C   0  0  0  0  0  2  0  0  0  0  0  0
  189.7770  176.0930  142.7530 C   0  0  0  0  0  2  0  0  0  0  0  0
  190.9370  176.8050  143.0580 O   0  0  0  0  0  0  0  0  0  0  0  0
  190.4830  177.9690  143.6800 C   0  0  0  0  0  1  0  0  0  0  0  0
  187.3060  177.9120  145.9230 C   0  0  0  0  0  2  0  0  0  0  0  0
  187.3800  175.7430  147.2360 C   0  0  0  0  0  2  0  0  0  0  0  0
  188.6480  175.7840  146.4130 C   0  0  1  0  0  3  0  0  0  0  0  0
  187.3480  176.3830  145.8580 C   0  0  2  0  0  3  0  0  0  0  0  0
  189.5490  176.7790  146.9840 N   0  0  0  0  0  2  0  0  0  0  0  0
  190.9640  176.5960  147.1180 C   0  0  0  0  0  0  0  0  0  0  0  0
  191.6010  177.3700  147.8790 O   0  0  0  0  0  0  0  0  0  0  0  0
  195.1050  174.3240  144.9150 C   0  0  0  0  0  0  0  0  0  0  0  0
  191.7020  173.5620  144.9990 C   0  0  0  0  0  0  0  0  0  0  0  0
  191.0160  172.6800  144.3300 C   0  0  0  0  0  0  0  0  0  0  0  0
  190.3260  171.8000  143.6550 C   0  0  0  0  0  3  0  0  0  0  0  0
  193.6940  174.6880  145.2790 C   0  0  1  0  0  3  0  0  0  0  0  0
  196.3030  174.6430  145.4070 C   0  0  0  0  0  2  0  0  0  0  0  0
  194.3640  172.7840  144.2100 S   0  0  0  0  0  0  0  0  0  0  0  0
  193.1240  173.3370  145.3610 C   0  0  2  0  0  3  0  0  0  0  0  0
  193.2280  175.5000  146.4710 C   0  0  0  0  0  2  0  0  0  0  0  0
  191.6950  175.5290  146.4020 C   0  0  0  0  0  0  0  0  0  0  0  0
  191.0350  174.6340  145.7000 N   0  0  0  0  0  0  0  0  0  0  0  0
  189.4240  172.3660  140.0470 C   0  0  0  0  0  0  0  0  0  0  0  0
  191.3460  170.9610  141.5150 C   0  0  0  0  0  3  0  0  0  0  0  0
  188.4750  173.0690  139.3180 O   0  0  0  0  0  1  0  0  0  0  0  0
  190.3990  171.6150  139.3840 C   0  0  0  0  0  3  0  0  0  0  0  0
  190.3690  171.7160  142.1880 C   0  0  0  0  0  0  0  0  0  0  0  0
  189.4090  172.4160  141.4470 C   0  0  0  0  0  3  0  0  0  0  0  0
  191.3600  170.9110  140.1170 C   0  0  0  0  0  3  0  0  0  0  0  0
  1  5  2  0  0  0  0
  1  3  1  0  0  0  0
  2  4  2  0  0  0  0
  3 29  1  0  0  0  0
  3  4  1  0  0  0  0
  5  2  1  0  0  0  0
  6  5  1  0  0  0  0
  7  8  2  0  0  0  0
  8  6  1  0  0  0  0
  9 15  1  6  0  0  0
  9 11  1  0  0  0  0
 10  7  1  6  0  0  0
 10 12  1  0  0  0  0
 13 11  1  0  0  0  0
 13 12  1  0  0  0  0
 14  9  1  0  0  0  0
 14 10  1  0  0  0  0
 15 16  1  6  0  0  0
 18 17  1  0  0  0  0
 18 15  1  0  0  0  0
 19 21  1  0  0  0  0
 20 19  2  0  0  0  0
 21  8  1  0  0  0  0
 22 19  1  0  0  0  0
 22 23  1  0  0  0  0
 23 24  1  6  0  0  0
 25 23  1  0  0  0  0
 25 26  1  0  0  0  0
 26 27  1  0  0  0  0
 27 28  1  0  0  0  0
 31 33  1  1  0  0  0
 31 30  1  0  0  0  0
 32 29  1  1  0  0  0
 32 31  1  0  0  0  0
 32 30  1  0  0  0  0
 33 34  1  0  0  0  0
 34 35  2  0  0  0  0
 36 40  1  0  0  0  0
 36 41  2  0  0  0  0
 37 43  1  0  0  0  0
 37 46  1  0  0  0  0
 38 37  2  0  0  0  0
 39 38  2  0  0  0  0
 40 43  1  0  0  0  0
 40 44  1  1  0  0  0
 42 36  1  0  0  0  0
 43 42  1  6  0  0  0
 45 44  1  0  0  0  0
 45 34  1  0  0  0  0
 46 45  2  0  0  0  0
 47 52  1  0  0  0  0
 48 51  1  0  0  0  0
 49 47  1  0  0  0  0
 50 47  2  0  0  0  0
 50 53  1  0  0  0  0
 51 39  1  0  0  0  0
 52 51  2  0  0  0  0
 53 48  2  0  0  0  0
M  END
>  <MODEL>
3

>  <REMARK>
 VINA RESULT:      -6.2      4.594      9.802
  Name = 
  16 active torsions:
  status: ('A' for Active; 'I' for Inactive)
    1  A    between atoms: C_2  and  C_3
    2  A    between atoms: C_3  and  N_14
    3  A    between atoms: C_4  and  O_30
    4  A    between atoms: C_5  and  C_46
    5  A    between atoms: C_5  and  C_53
    6  A    between atoms: C_7  and  C_50
    7  A    between atoms: C_18  and  C_19
    8  A    between atoms: C_18  and  C_32
    9  A    between atoms: C_19  and  O_30
   10  A    between atoms: C_20  and  N_27
   11  A    between atoms: C_21  and  C_34
   12  A    between atoms: C_23  and  C_25
   13  A    between atoms: C_23  and  N_38
   14  A    between atoms: O_26  and  C_32
   15  A    between atoms: C_42  and  C_45
   16  A    between atoms: N_43  and  C_53
                            x       y       z     vdW  Elec       q    Type
                         _______ _______ _______ _____ _____    ______ ____

>  <TORSDO>
F 16

$$$$
=
 OpenBabel11062420323D

 53 58  0  0  1  0  0  0  0  0999 V2000
  185.7210  178.6500  144.3360 N   0  0  0  0  0  0  0  0  0  0  0  0
  184.0750  177.9770  145.7470 N   0  0  0  0  0  0  0  0  0  0  0  0
  186.3350  178.1050  145.4590 N   0  0  0  0  0  0  0  0  0  0  0  0
  185.3320  177.6140  146.3890 C   0  0  0  0  0  3  0  0  0  0  0  0
  184.4480  178.6000  144.5230 C   0  0  0  0  0  0  0  0  0  0  0  0
  183.4540  179.0680  143.5120 C   0  0  0  0  0  2  0  0  0  0  0  0
  182.4680  178.0810  141.4770 C   0  0  0  0  0  3  0  0  0  0  0  0
  183.5420  178.2530  142.2600 C   0  0  0  0  0  0  0  0  0  0  0  0
  179.4630  180.4120  140.9980 C   0  0  1  0  0  3  0  0  0  0  0  0
  181.1390  178.7090  141.7530 C   0  0  2  0  0  3  0  0  0  0  0  0
  178.5650  179.6110  141.9530 C   0  0  0  0  0  2  0  0  0  0  0  0
  180.1340  177.6610  141.9910 N   0  0  0  0  0  2  0  0  0  0  0  0
  178.7470  178.1040  141.7520 C   0  0  0  0  0  2  0  0  0  0  0  0
  180.7300  179.6370  140.6120 C   0  0  0  0  0  2  0  0  0  0  0  0
  178.6930  180.8350  139.7510 C   0  0  2  0  0  3  0  0  0  0  0  0
  178.5810  179.7560  138.8710 O   0  0  0  0  0  1  0  0  0  0  0  0
  178.8970  181.9830  137.7160 C   0  0  0  0  0  1  0  0  0  0  0  0
  179.3850  181.9280  139.0830 N   0  0  0  0  0  2  0  0  0  0  0  0
  185.6070  177.7140  140.8410 C   0  0  0  0  0  0  0  0  0  0  0  0
  185.4510  178.6860  140.0590 O   0  0  0  0  0  0  0  0  0  0  0  0
  184.7690  177.5640  141.9930 N   0  0  0  0  0  2  0  0  0  0  0  0
  186.6130  176.7830  140.5670 O   0  0  0  0  0  0  0  0  0  0  0  0
  187.8010  176.6340  141.3440 C   0  0  1  0  0  3  0  0  0  0  0  0
  188.2710  177.9730  141.8790 C   0  0  0  0  0  1  0  0  0  0  0  0
  187.6230  175.6310  142.4810 C   0  0  0  0  0  2  0  0  0  0  0  0
  188.5550  174.4450  142.3180 C   0  0  0  0  0  2  0  0  0  0  0  0
  187.8380  173.3200  141.9140 O   0  0  0  0  0  0  0  0  0  0  0  0
  188.4190  172.9470  140.7010 C   0  0  0  0  0  1  0  0  0  0  0  0
  187.7670  177.8500  145.5310 C   0  0  0  0  0  2  0  0  0  0  0  0
  189.2210  176.4340  147.0520 C   0  0  0  0  0  2  0  0  0  0  0  0
  189.4360  175.9090  145.6510 C   0  0  1  0  0  3  0  0  0  0  0  0
  188.0620  176.4470  146.0700 C   0  0  2  0  0  3  0  0  0  0  0  0
  190.2350  176.8740  144.9030 N   0  0  0  0  0  2  0  0  0  0  0  0
  191.6020  176.6630  144.5270 C   0  0  0  0  0  0  0  0  0  0  0  0
  192.2820  177.6550  144.1540 O   0  0  0  0  0  0  0  0  0  0  0  0
  195.4980  173.2760  145.2410 C   0  0  0  0  0  0  0  0  0  0  0  0
  192.2640  172.9910  143.9650 C   0  0  0  0  0  0  0  0  0  0  0  0
  191.6840  172.0050  143.3430 C   0  0  0  0  0  0  0  0  0  0  0  0
  191.1040  171.0190  142.7130 C   0  0  0  0  0  3  0  0  0  0  0  0
  194.2110  173.9070  144.7910 C   0  0  1  0  0  3  0  0  0  0  0  0
  196.4470  173.6200  146.1120 C   0  0  0  0  0  2  0  0  0  0  0  0
  194.7080  171.6780  144.7520 S   0  0  0  0  0  0  0  0  0  0  0  0
  193.3150  172.7610  144.9880 C   0  0  2  0  0  3  0  0  0  0  0  0
  193.5540  175.1570  145.3430 C   0  0  0  0  0  2  0  0  0  0  0  0
  192.2380  175.3300  144.5710 C   0  0  0  0  0  0  0  0  0  0  0  0
  191.6910  174.3160  143.9360 N   0  0  0  0  0  0  0  0  0  0  0  0
  193.6800  169.6880  140.3170 C   0  0  0  0  0  0  0  0  0  0  0  0
  190.8930  169.8550  140.4940 C   0  0  0  0  0  3  0  0  0  0  0  0
  195.0630  169.5990  140.2310 O   0  0  0  0  0  1  0  0  0  0  0  0
  192.8820  169.1650  139.2950 C   0  0  0  0  0  3  0  0  0  0  0  0
  191.6910  170.3820  141.5250 C   0  0  0  0  0  0  0  0  0  0  0  0
  193.0850  170.2960  141.4290 C   0  0  0  0  0  3  0  0  0  0  0  0
  191.4880  169.2490  139.3820 C   0  0  0  0  0  3  0  0  0  0  0  0
  1  5  2  0  0  0  0
  1  3  1  0  0  0  0
  2  4  2  0  0  0  0
  3 29  1  0  0  0  0
  3  4  1  0  0  0  0
  5  2  1  0  0  0  0
  6  5  1  0  0  0  0
  7  8  2  0  0  0  0
  8  6  1  0  0  0  0
  9 15  1  6  0  0  0
  9 11  1  0  0  0  0
 10  7  1  6  0  0  0
 10 12  1  0  0  0  0
 13 11  1  0  0  0  0
 13 12  1  0  0  0  0
 14  9  1  0  0  0  0
 14 10  1  0  0  0  0
 15 16  1  6  0  0  0
 17 18  1  0  0  0  0
 18 15  1  0  0  0  0
 19 21  1  0  0  0  0
 20 19  2  0  0  0  0
 21  8  1  0  0  0  0
 22 19  1  0  0  0  0
 22 23  1  0  0  0  0
 23 24  1  1  0  0  0
 23 25  1  0  0  0  0
 26 25  1  0  0  0  0
 27 26  1  0  0  0  0
 28 27  1  0  0  0  0
 31 33  1  6  0  0  0
 31 32  1  0  0  0  0
 31 30  1  0  0  0  0
 32 29  1  6  0  0  0
 32 30  1  0  0  0  0
 34 45  1  0  0  0  0
 34 33  1  0  0  0  0
 35 34  2  0  0  0  0
 36 41  2  0  0  0  0
 38 37  2  0  0  0  0
 39 38  2  0  0  0  0
 40 43  1  0  0  0  0
 40 36  1  0  0  0  0
 40 44  1  1  0  0  0
 42 43  1  0  0  0  0
 42 36  1  0  0  0  0
 43 37  1  6  0  0  0
 45 44  1  0  0  0  0
 46 37  1  0  0  0  0
 46 45  2  0  0  0  0
 47 52  1  0  0  0  0
 48 51  1  0  0  0  0
 49 47  1  0  0  0  0
 50 53  1  0  0  0  0
 50 47  2  0  0  0  0
 51 39  1  0  0  0  0
 52 51  2  0  0  0  0
 53 48  2  0  0  0  0
M  END
>  <MODEL>
4

>  <REMARK>
 VINA RESULT:      -6.2      4.584      9.985
  Name = 
  16 active torsions:
  status: ('A' for Active; 'I' for Inactive)
    1  A    between atoms: C_2  and  C_3
    2  A    between atoms: C_3  and  N_14
    3  A    between atoms: C_4  and  O_30
    4  A    between atoms: C_5  and  C_46
    5  A    between atoms: C_5  and  C_53
    6  A    between atoms: C_7  and  C_50
    7  A    between atoms: C_18  and  C_19
    8  A    between atoms: C_18  and  C_32
    9  A    between atoms: C_19  and  O_30
   10  A    between atoms: C_20  and  N_27
   11  A    between atoms: C_21  and  C_34
   12  A    between atoms: C_23  and  C_25
   13  A    between atoms: C_23  and  N_38
   14  A    between atoms: O_26  and  C_32
   15  A    between atoms: C_42  and  C_45
   16  A    between atoms: N_43  and  C_53
                            x       y       z     vdW  Elec       q    Type
                         _______ _______ _______ _____ _____    ______ ____

>  <TORSDO>
F 16

$$$$
=
 OpenBabel11062420323D

 53 58  0  0  1  0  0  0  0  0999 V2000
  189.4040  177.1780  144.2130 N   0  0  0  0  0  0  0  0  0  0  0  0
  190.8880  177.1930  142.4960 N   0  0  0  0  0  0  0  0  0  0  0  0
  190.6700  176.9760  144.7570 N   0  0  0  0  0  0  0  0  0  0  0  0
  191.6760  177.0170  143.7090 C   0  0  0  0  0  3  0  0  0  0  0  0
  189.5370  177.2680  142.9360 C   0  0  0  0  0  0  0  0  0  0  0  0
  188.3920  177.5190  142.0110 C   0  0  0  0  0  2  0  0  0  0  0  0
  186.4530  176.0140  142.2630 C   0  0  0  0  0  3  0  0  0  0  0  0
  187.6550  176.2500  141.7190 C   0  0  0  0  0  0  0  0  0  0  0  0
  185.3140  177.6980  145.5120 C   0  0  1  0  0  3  0  0  0  0  0  0
  185.7440  176.9890  143.1470 C   0  0  2  0  0  3  0  0  0  0  0  0
  184.8160  178.9640  144.7970 C   0  0  0  0  0  2  0  0  0  0  0  0
  185.9690  178.3590  142.6600 N   0  0  0  0  0  2  0  0  0  0  0  0
  185.7860  179.3940  143.6930 C   0  0  0  0  0  2  0  0  0  0  0  0
  186.1860  176.8250  144.6000 C   0  0  0  0  0  2  0  0  0  0  0  0
  186.0660  178.0550  146.7910 C   0  0  2  0  0  3  0  0  0  0  0  0
  186.1470  176.9360  147.6240 O   0  0  0  0  0  1  0  0  0  0  0  0
  186.3870  179.9710  148.1040 C   0  0  0  0  0  1  0  0  0  0  0  0
  185.3760  179.1260  147.4930 N   0  0  0  0  0  2  0  0  0  0  0  0
  188.9950  174.0830  141.4380 C   0  0  0  0  0  0  0  0  0  0  0  0
  188.8240  173.7020  142.6240 O   0  0  0  0  0  0  0  0  0  0  0  0
  188.3250  175.2490  140.9440 N   0  0  0  0  0  2  0  0  0  0  0  0
  189.8490  173.3490  140.6090 O   0  0  0  0  0  0  0  0  0  0  0  0
  190.8740  173.9270  139.8010 C   0  0  1  0  0  3  0  0  0  0  0  0
  192.1850  174.0090  140.5620 C   0  0  0  0  0  1  0  0  0  0  0  0
  191.0610  173.1740  138.4860 C   0  0  0  0  0  2  0  0  0  0  0  0
  190.0080  173.5750  137.4710 C   0  0  0  0  0  2  0  0  0  0  0  0
  190.4850  174.6030  136.6580 O   0  0  0  0  0  0  0  0  0  0  0  0
  190.2830  174.1450  135.3550 C   0  0  0  0  0  1  0  0  0  0  0  0
  190.9250  176.9880  146.1900 C   0  0  0  0  0  2  0  0  0  0  0  0
  191.6310  175.4240  148.0580 C   0  0  0  0  0  2  0  0  0  0  0  0
  192.1170  174.7950  146.7720 C   0  0  1  0  0  3  0  0  0  0  0  0
  190.8030  175.5870  146.7940 C   0  0  2  0  0  3  0  0  0  0  0  0
  193.2510  175.5650  146.2690 N   0  0  0  0  0  2  0  0  0  0  0  0
  194.4310  174.9780  145.7060 C   0  0  0  0  0  0  0  0  0  0  0  0
  195.4570  175.6970  145.5790 O   0  0  0  0  0  0  0  0  0  0  0  0
  196.6920  170.3690  144.8120 C   0  0  0  0  0  0  0  0  0  0  0  0
  193.5510  171.6940  144.0700 C   0  0  0  0  0  0  0  0  0  0  0  0
  192.5970  171.2350  143.3130 C   0  0  0  0  0  0  0  0  0  0  0  0
  191.6420  170.7780  142.5470 C   0  0  0  0  0  3  0  0  0  0  0  0
  195.7400  171.5310  144.7730 C   0  0  1  0  0  3  0  0  0  0  0  0
  197.7410  170.0530  145.5710 C   0  0  0  0  0  2  0  0  0  0  0  0
  195.3080  169.4070  144.0510 S   0  0  0  0  0  0  0  0  0  0  0  0
  194.4740  170.7890  144.8020 C   0  0  2  0  0  3  0  0  0  0  0  0
  195.6620  172.6920  145.7440 C   0  0  0  0  0  2  0  0  0  0  0  0
  194.4870  173.5640  145.2810 C   0  0  0  0  0  0  0  0  0  0  0  0
  193.5510  173.0730  144.4980 N   0  0  0  0  0  0  0  0  0  0  0  0
  190.9560  169.5420  139.0610 C   0  0  0  0  0  0  0  0  0  0  0  0
  193.1390  170.4530  140.5530 C   0  0  0  0  0  3  0  0  0  0  0  0
  189.8720  169.0950  138.3180 O   0  0  0  0  0  1  0  0  0  0  0  0
  192.2220  169.6180  138.4730 C   0  0  0  0  0  3  0  0  0  0  0  0
  191.8680  170.3800  141.1500 C   0  0  0  0  0  0  0  0  0  0  0  0
  190.7800  169.9220  140.3970 C   0  0  0  0  0  3  0  0  0  0  0  0
  193.3150  170.0730  139.2190 C   0  0  0  0  0  3  0  0  0  0  0  0
  1  3  1  0  0  0  0
  2  5  1  0  0  0  0
  2  4  2  0  0  0  0
  3 29  1  0  0  0  0
  4  3  1  0  0  0  0
  5  1  2  0  0  0  0
  6  5  1  0  0  0  0
  8  6  1  0  0  0  0
  8  7  2  0  0  0  0
  9 15  1  1  0  0  0
 10  7  1  6  0  0  0
 10 14  1  0  0  0  0
 11  9  1  0  0  0  0
 12 10  1  0  0  0  0
 12 13  1  0  0  0  0
 13 11  1  0  0  0  0
 14  9  1  0  0  0  0
 15 18  1  0  0  0  0
 15 16  1  1  0  0  0
 18 17  1  0  0  0  0
 19 20  2  0  0  0  0
 21 19  1  0  0  0  0
 21  8  1  0  0  0  0
 22 19  1  0  0  0  0
 23 24  1  1  0  0  0
 23 22  1  0  0  0  0
 25 23  1  0  0  0  0
 26 25  1  0  0  0  0
 27 26  1  0  0  0  0
 28 27  1  0  0  0  0
 31 33  1  6  0  0  0
 31 32  1  0  0  0  0
 31 30  1  0  0  0  0
 32 29  1  6  0  0  0
 32 30  1  0  0  0  0
 34 33  1  0  0  0  0
 35 34  2  0  0  0  0
 36 41  2  0  0  0  0
 37 46  1  0  0  0  0
 37 43  1  0  0  0  0
 38 37  2  0  0  0  0
 39 38  2  0  0  0  0
 40 43  1  0  0  0  0
 40 36  1  0  0  0  0
 40 44  1  1  0  0  0
 42 36  1  0  0  0  0
 43 42  1  6  0  0  0
 45 34  1  0  0  0  0
 45 44  1  0  0  0  0
 46 45  2  0  0  0  0
 47 52  1  0  0  0  0
 48 51  1  0  0  0  0
 49 47  1  0  0  0  0
 50 47  2  0  0  0  0
 50 53  1  0  0  0  0
 51 39  1  0  0  0  0
 52 51  2  0  0  0  0
 53 48  2  0  0  0  0
M  END
>  <MODEL>
5

>  <REMARK>
 VINA RESULT:      -5.8      3.073      7.333
  Name = 
  16 active torsions:
  status: ('A' for Active; 'I' for Inactive)
    1  A    between atoms: C_2  and  C_3
    2  A    between atoms: C_3  and  N_14
    3  A    between atoms: C_4  and  O_30
    4  A    between atoms: C_5  and  C_46
    5  A    between atoms: C_5  and  C_53
    6  A    between atoms: C_7  and  C_50
    7  A    between atoms: C_18  and  C_19
    8  A    between atoms: C_18  and  C_32
    9  A    between atoms: C_19  and  O_30
   10  A    between atoms: C_20  and  N_27
   11  A    between atoms: C_21  and  C_34
   12  A    between atoms: C_23  and  C_25
   13  A    between atoms: C_23  and  N_38
   14  A    between atoms: O_26  and  C_32
   15  A    between atoms: C_42  and  C_45
   16  A    between atoms: N_43  and  C_53
                            x       y       z     vdW  Elec       q    Type
                         _______ _______ _______ _____ _____    ______ ____

>  <TORSDO>
F 16

$$$$
=
 OpenBabel11062420323D

 53 58  0  0  1  0  0  0  0  0999 V2000
  189.3970  177.6230  143.8820 N   0  0  0  0  0  0  0  0  0  0  0  0
  189.6660  176.2290  142.1100 N   0  0  0  0  0  0  0  0  0  0  0  0
  190.4510  176.7670  144.1850 N   0  0  0  0  0  0  0  0  0  0  0  0
  190.7050  175.8710  143.0680 C   0  0  0  0  0  3  0  0  0  0  0  0
  188.9430  177.2900  142.7230 C   0  0  0  0  0  0  0  0  0  0  0  0
  187.8220  178.0080  142.0470 C   0  0  0  0  0  2  0  0  0  0  0  0
  185.6140  176.9070  142.0620 C   0  0  0  0  0  3  0  0  0  0  0  0
  186.8220  177.0400  141.4980 C   0  0  0  0  0  0  0  0  0  0  0  0
  185.0540  177.8820  145.7270 C   0  0  1  0  0  3  0  0  0  0  0  0
  185.1560  177.7240  143.2280 C   0  0  2  0  0  3  0  0  0  0  0  0
  184.7140  179.3420  145.3880 C   0  0  0  0  0  2  0  0  0  0  0  0
  185.5630  179.1260  143.0440 N   0  0  0  0  0  2  0  0  0  0  0  0
  185.6440  179.8910  144.3020 C   0  0  0  0  0  2  0  0  0  0  0  0
  185.6870  177.1470  144.5370 C   0  0  0  0  0  2  0  0  0  0  0  0
  185.9620  177.8030  146.9500 C   0  0  2  0  0  3  0  0  0  0  0  0
  185.9410  179.0190  147.6380 O   0  0  0  0  0  1  0  0  0  0  0  0
  187.6590  176.1890  147.0500 C   0  0  0  0  0  1  0  0  0  0  0  0
  187.3270  177.5080  146.5410 N   0  0  0  0  0  2  0  0  0  0  0  0
  187.0280  176.3740  139.0310 C   0  0  0  0  0  0  0  0  0  0  0  0
  186.6630  177.4940  138.5920 O   0  0  0  0  0  0  0  0  0  0  0  0
  187.2400  176.1760  140.4350 N   0  0  0  0  0  2  0  0  0  0  0  0
  187.2260  175.3260  138.1280 O   0  0  0  0  0  0  0  0  0  0  0  0
  188.3530  175.2170  137.2590 C   0  0  1  0  0  3  0  0  0  0  0  0
  189.1590  173.9700  137.5670 C   0  0  0  0  0  1  0  0  0  0  0  0
  187.9490  175.2470  135.7870 C   0  0  0  0  0  2  0  0  0  0  0  0
  187.2620  176.5520  135.4330 C   0  0  0  0  0  2  0  0  0  0  0  0
  186.2370  176.3260  134.5140 O   0  0  0  0  0  0  0  0  0  0  0  0
  185.0970  176.1390  135.2970 C   0  0  0  0  0  1  0  0  0  0  0  0
  191.3080  176.9500  145.3470 C   0  0  0  0  0  2  0  0  0  0  0  0
  191.5870  176.3510  147.7960 C   0  0  0  0  0  2  0  0  0  0  0  0
  192.1560  175.1930  147.0090 C   0  0  1  0  0  3  0  0  0  0  0  0
  190.9500  175.9730  146.4700 C   0  0  2  0  0  3  0  0  0  0  0  0
  193.4250  175.6030  146.4160 N   0  0  0  0  0  2  0  0  0  0  0  0
  194.2600  174.7410  145.6330 C   0  0  0  0  0  0  0  0  0  0  0  0
  195.4520  175.0880  145.4210 O   0  0  0  0  0  0  0  0  0  0  0  0
  194.3520  169.6100  144.7250 C   0  0  0  0  0  0  0  0  0  0  0  0
  192.4130  172.2380  143.4970 C   0  0  0  0  0  0  0  0  0  0  0  0
  191.5640  172.2720  142.5120 C   0  0  0  0  0  0  0  0  0  0  0  0
  190.7160  172.3100  141.5180 C   0  0  0  0  0  3  0  0  0  0  0  0
  194.0620  171.0800  144.6170 C   0  0  1  0  0  3  0  0  0  0  0  0
  194.9360  168.8430  145.6460 C   0  0  0  0  0  2  0  0  0  0  0  0
  192.9070  169.3980  143.5910 S   0  0  0  0  0  0  0  0  0  0  0  0
  192.6310  171.0070  144.3000 C   0  0  2  0  0  3  0  0  0  0  0  0
  194.2870  172.1450  145.6730 C   0  0  0  0  0  2  0  0  0  0  0  0
  193.7740  173.4620  145.0750 C   0  0  0  0  0  0  0  0  0  0  0  0
  192.9310  173.4600  144.0650 N   0  0  0  0  0  0  0  0  0  0  0  0
  190.4970  170.5060  138.2250 C   0  0  0  0  0  0  0  0  0  0  0  0
  192.2180  172.3030  139.5020 C   0  0  0  0  0  3  0  0  0  0  0  0
  189.6390  169.6190  137.5870 O   0  0  0  0  0  1  0  0  0  0  0  0
  191.6480  170.9550  137.5720 C   0  0  0  0  0  3  0  0  0  0  0  0
  191.0610  171.8550  140.1640 C   0  0  0  0  0  0  0  0  0  0  0  0
  190.2050  170.9550  139.5180 C   0  0  0  0  0  3  0  0  0  0  0  0
  192.5100  171.8530  138.2100 C   0  0  0  0  0  3  0  0  0  0  0  0
  1  3  1  0  0  0  0
  2  5  1  0  0  0  0
  2  4  2  0  0  0  0
  3 29  1  0  0  0  0
  4  3  1  0  0  0  0
  5  1  2  0  0  0  0
  6  5  1  0  0  0  0
  8  6  1  0  0  0  0
  8  7  2  0  0  0  0
  9 15  1  1  0  0  0
 10  7  1  6  0  0  0
 10 14  1  0  0  0  0
 11  9  1  0  0  0  0
 12 10  1  0  0  0  0
 12 13  1  0  0  0  0
 13 11  1  0  0  0  0
 14  9  1  0  0  0  0
 15 16  1  6  0  0  0
 18 15  1  0  0  0  0
 18 17  1  0  0  0  0
 19 21  1  0  0  0  0
 20 19  2  0  0  0  0
 21  8  1  0  0  0  0
 22 19  1  0  0  0  0
 23 24  1  1  0  0  0
 23 22  1  0  0  0  0
 25 23  1  0  0  0  0
 26 25  1  0  0  0  0
 27 28  1  0  0  0  0
 27 26  1  0  0  0  0
 31 33  1  6  0  0  0
 31 30  1  0  0  0  0
 32 29  1  6  0  0  0
 32 31  1  0  0  0  0
 32 30  1  0  0  0  0
 34 33  1  0  0  0  0
 35 34  2  0  0  0  0
 36 41  2  0  0  0  0
 37 46  1  0  0  0  0
 38 37  2  0  0  0  0
 39 38  2  0  0  0  0
 40 36  1  0  0  0  0
 40 44  1  1  0  0  0
 42 43  1  0  0  0  0
 42 36  1  0  0  0  0
 43 37  1  6  0  0  0
 43 40  1  0  0  0  0
 45 34  1  0  0  0  0
 45 44  1  0  0  0  0
 46 45  2  0  0  0  0
 47 52  1  0  0  0  0
 48 51  1  0  0  0  0
 49 47  1  0  0  0  0
 50 53  1  0  0  0  0
 50 47  2  0  0  0  0
 51 39  1  0  0  0  0
 52 51  2  0  0  0  0
 53 48  2  0  0  0  0
M  END
>  <MODEL>
6

>  <REMARK>
 VINA RESULT:      -5.7      3.158      7.753
  Name = 
  16 active torsions:
  status: ('A' for Active; 'I' for Inactive)
    1  A    between atoms: C_2  and  C_3
    2  A    between atoms: C_3  and  N_14
    3  A    between atoms: C_4  and  O_30
    4  A    between atoms: C_5  and  C_46
    5  A    between atoms: C_5  and  C_53
    6  A    between atoms: C_7  and  C_50
    7  A    between atoms: C_18  and  C_19
    8  A    between atoms: C_18  and  C_32
    9  A    between atoms: C_19  and  O_30
   10  A    between atoms: C_20  and  N_27
   11  A    between atoms: C_21  and  C_34
   12  A    between atoms: C_23  and  C_25
   13  A    between atoms: C_23  and  N_38
   14  A    between atoms: O_26  and  C_32
   15  A    between atoms: C_42  and  C_45
   16  A    between atoms: N_43  and  C_53
                            x       y       z     vdW  Elec       q    Type
                         _______ _______ _______ _____ _____    ______ ____

>  <TORSDO>
F 16

$$$$
=
 OpenBabel11062420323D

 53 58  0  0  1  0  0  0  0  0999 V2000
  191.3460  172.7120  142.7280 N   0  0  0  0  0  0  0  0  0  0  0  0
  189.7380  173.6310  144.0410 N   0  0  0  0  0  0  0  0  0  0  0  0
  191.2970  171.9700  143.9050 N   0  0  0  0  0  0  0  0  0  0  0  0
  190.2530  172.4830  144.7760 C   0  0  0  0  0  3  0  0  0  0  0  0
  190.4840  173.6630  142.8290 C   0  0  0  0  0  0  0  0  0  0  0  0
  190.2270  174.6530  141.7410 C   0  0  0  0  0  2  0  0  0  0  0  0
  188.9780  173.7790  139.8010 C   0  0  0  0  0  3  0  0  0  0  0  0
  188.9550  174.3350  141.0200 C   0  0  0  0  0  0  0  0  0  0  0  0
  191.9290  171.5840  138.7220 C   0  0  1  0  0  3  0  0  0  0  0  0
  190.2390  173.3960  139.0940 C   0  0  2  0  0  3  0  0  0  0  0  0
  192.2970  172.4910  137.5370 C   0  0  0  0  0  2  0  0  0  0  0  0
  190.1380  173.7490  137.6700 N   0  0  0  0  0  2  0  0  0  0  0  0
  191.0460  172.9770  136.8010 C   0  0  0  0  0  2  0  0  0  0  0  0
  190.5420  171.9130  139.2900 C   0  0  0  0  0  2  0  0  0  0  0  0
  192.0110  170.1120  138.3280 C   0  0  2  0  0  3  0  0  0  0  0  0
  192.5960  169.3740  139.3600 O   0  0  0  0  0  1  0  0  0  0  0  0
  194.0240  169.2540  137.4850 C   0  0  0  0  0  1  0  0  0  0  0  0
  192.8110  169.9630  137.1200 N   0  0  0  0  0  2  0  0  0  0  0  0
  187.2760  176.1020  141.8120 C   0  0  0  0  0  0  0  0  0  0  0  0
  187.8430  177.0550  141.2200 O   0  0  0  0  0  0  0  0  0  0  0  0
  187.7230  174.7550  141.6180 N   0  0  0  0  0  2  0  0  0  0  0  0
  186.2000  176.3790  142.6610 O   0  0  0  0  0  0  0  0  0  0  0  0
  186.1720  177.4580  143.5940 C   0  0  1  0  0  3  0  0  0  0  0  0
  184.8840  178.2500  143.4700 C   0  0  0  0  0  1  0  0  0  0  0  0
  186.3750  176.9820  145.0310 C   0  0  0  0  0  2  0  0  0  0  0  0
  187.6470  177.5580  145.6240 C   0  0  0  0  0  2  0  0  0  0  0  0
  187.6380  177.4230  147.0120 O   0  0  0  0  0  0  0  0  0  0  0  0
  186.3350  177.0280  147.3190 C   0  0  0  0  0  1  0  0  0  0  0  0
  192.0220  170.7200  144.0810 C   0  0  0  0  0  2  0  0  0  0  0  0
  193.2560  168.8610  142.8740 C   0  0  0  0  0  2  0  0  0  0  0  0
  194.1990  170.0430  142.9100 C   0  0  1  0  0  3  0  0  0  0  0  0
  192.6860  170.2670  142.7780 C   0  0  2  0  0  3  0  0  0  0  0  0
  194.6940  170.2100  144.2730 N   0  0  0  0  0  2  0  0  0  0  0  0
  195.3990  171.3700  144.7320 C   0  0  0  0  0  0  0  0  0  0  0  0
  196.0350  171.2960  145.8160 O   0  0  0  0  0  0  0  0  0  0  0  0
  193.5190  175.9450  143.0930 C   0  0  0  0  0  0  0  0  0  0  0  0
  196.2790  174.0130  142.1880 C   0  0  0  0  0  0  0  0  0  0  0  0
  197.1020  174.1320  141.1870 C   0  0  0  0  0  0  0  0  0  0  0  0
  197.9250  174.2470  140.1780 C   0  0  0  0  0  3  0  0  0  0  0  0
  194.3100  174.6720  143.1890 C   0  0  1  0  0  3  0  0  0  0  0  0
  192.6870  176.5860  143.9140 C   0  0  0  0  0  2  0  0  0  0  0  0
  194.8150  176.4790  141.8870 S   0  0  0  0  0  0  0  0  0  0  0  0
  195.6290  175.1940  142.8110 C   0  0  2  0  0  3  0  0  0  0  0  0
  194.4580  173.7660  144.3960 C   0  0  0  0  0  2  0  0  0  0  0  0
  195.4120  172.6400  143.9770 C   0  0  0  0  0  0  0  0  0  0  0  0
  196.2160  172.7860  142.9460 N   0  0  0  0  0  0  0  0  0  0  0  0
  196.2980  173.3280  136.9140 C   0  0  0  0  0  0  0  0  0  0  0  0
  197.7030  175.4880  138.0030 C   0  0  0  0  0  3  0  0  0  0  0  0
  195.5940  172.2590  136.3740 O   0  0  0  0  0  1  0  0  0  0  0  0
  196.5380  174.4670  136.1400 C   0  0  0  0  0  3  0  0  0  0  0  0
  197.4640  174.3440  138.7860 C   0  0  0  0  0  0  0  0  0  0  0  0
  196.7610  173.2670  138.2340 C   0  0  0  0  0  3  0  0  0  0  0  0
  197.2410  175.5480  136.6830 C   0  0  0  0  0  3  0  0  0  0  0  0
  1  5  2  0  0  0  0
  1  3  1  0  0  0  0
  2  4  2  0  0  0  0
  3 29  1  0  0  0  0
  3  4  1  0  0  0  0
  5  2  1  0  0  0  0
  6  5  1  0  0  0  0
  7  8  2  0  0  0  0
  8 21  1  0  0  0  0
  8  6  1  0  0  0  0
  9 15  1  6  0  0  0
  9 14  1  0  0  0  0
 10 14  1  0  0  0  0
 10  7  1  1  0  0  0
 11  9  1  0  0  0  0
 12 10  1  0  0  0  0
 13 11  1  0  0  0  0
 13 12  1  0  0  0  0
 15 16  1  1  0  0  0
 18 17  1  0  0  0  0
 18 15  1  0  0  0  0
 19 22  1  0  0  0  0
 20 19  2  0  0  0  0
 21 19  1  0  0  0  0
 22 23  1  0  0  0  0
 23 24  1  1  0  0  0
 23 25  1  0  0  0  0
 25 26  1  0  0  0  0
 26 27  1  0  0  0  0
 27 28  1  0  0  0  0
 30 31  1  0  0  0  0
 31 33  1  1  0  0  0
 32 30  1  0  0  0  0
 32 31  1  0  0  0  0
 32 29  1  1  0  0  0
 33 34  1  0  0  0  0
 34 35  2  0  0  0  0
 36 40  1  0  0  0  0
 36 41  2  0  0  0  0
 37 43  1  0  0  0  0
 37 46  1  0  0  0  0
 38 37  2  0  0  0  0
 39 38  2  0  0  0  0
 40 44  1  1  0  0  0
 42 36  1  0  0  0  0
 43 42  1  6  0  0  0
 43 40  1  0  0  0  0
 45 44  1  0  0  0  0
 45 34  1  0  0  0  0
 46 45  2  0  0  0  0
 47 52  1  0  0  0  0
 48 51  1  0  0  0  0
 49 47  1  0  0  0  0
 50 53  1  0  0  0  0
 50 47  2  0  0  0  0
 51 39  1  0  0  0  0
 52 51  2  0  0  0  0
 53 48  2  0  0  0  0
M  END
>  <MODEL>
7

>  <REMARK>
 VINA RESULT:      -5.7      2.641      8.855
  Name = 
  16 active torsions:
  status: ('A' for Active; 'I' for Inactive)
    1  A    between atoms: C_2  and  C_3
    2  A    between atoms: C_3  and  N_14
    3  A    between atoms: C_4  and  O_30
    4  A    between atoms: C_5  and  C_46
    5  A    between atoms: C_5  and  C_53
    6  A    between atoms: C_7  and  C_50
    7  A    between atoms: C_18  and  C_19
    8  A    between atoms: C_18  and  C_32
    9  A    between atoms: C_19  and  O_30
   10  A    between atoms: C_20  and  N_27
   11  A    between atoms: C_21  and  C_34
   12  A    between atoms: C_23  and  C_25
   13  A    between atoms: C_23  and  N_38
   14  A    between atoms: O_26  and  C_32
   15  A    between atoms: C_42  and  C_45
   16  A    between atoms: N_43  and  C_53
                            x       y       z     vdW  Elec       q    Type
                         _______ _______ _______ _____ _____    ______ ____

>  <TORSDO>
F 16

$$$$
=
 OpenBabel11062420323D

 53 58  0  0  1  0  0  0  0  0999 V2000
  186.1590  177.1510  138.8430 N   0  0  0  0  0  0  0  0  0  0  0  0
  186.9990  176.7290  140.9090 N   0  0  0  0  0  0  0  0  0  0  0  0
  187.0200  176.0630  138.7260 N   0  0  0  0  0  0  0  0  0  0  0  0
  187.5620  175.7130  140.0290 C   0  0  0  0  0  3  0  0  0  0  0  0
  186.1790  177.5360  140.0720 C   0  0  0  0  0  0  0  0  0  0  0  0
  185.3510  178.6660  140.5880 C   0  0  0  0  0  2  0  0  0  0  0  0
  184.0300  177.8460  142.5040 C   0  0  0  0  0  3  0  0  0  0  0  0
  184.0830  178.1600  141.2030 C   0  0  0  0  0  0  0  0  0  0  0  0
  185.9110  178.7860  145.7090 C   0  0  1  0  0  3  0  0  0  0  0  0
  185.1860  178.0110  143.4390 C   0  0  2  0  0  3  0  0  0  0  0  0
  187.1570  177.9670  145.3350 C   0  0  0  0  0  2  0  0  0  0  0  0
  185.9640  176.7640  143.4930 N   0  0  0  0  0  2  0  0  0  0  0  0
  186.7710  176.6200  144.7190 C   0  0  0  0  0  2  0  0  0  0  0  0
  184.7060  178.4390  144.8240 C   0  0  0  0  0  2  0  0  0  0  0  0
  185.5630  178.6040  147.1840 C   0  0  2  0  0  3  0  0  0  0  0  0
  184.1780  178.6690  147.3580 O   0  0  0  0  0  1  0  0  0  0  0  0
  187.3050  179.0390  148.6900 C   0  0  0  0  0  1  0  0  0  0  0  0
  186.1950  179.6460  147.9780 N   0  0  0  0  0  2  0  0  0  0  0  0
  181.6250  178.3640  140.5080 C   0  0  0  0  0  0  0  0  0  0  0  0
  181.3570  179.2690  141.3380 O   0  0  0  0  0  0  0  0  0  0  0  0
  182.9720  177.9080  140.3360 N   0  0  0  0  0  2  0  0  0  0  0  0
  180.5850  177.8120  139.7530 O   0  0  0  0  0  0  0  0  0  0  0  0
  179.2130  178.1820  139.8850 C   0  0  1  0  0  3  0  0  0  0  0  0
  178.3880  177.6280  138.7390 C   0  0  0  0  0  1  0  0  0  0  0  0
  178.6280  177.7520  141.2280 C   0  0  0  0  0  2  0  0  0  0  0  0
  177.9030  178.9000  141.9040 C   0  0  0  0  0  2  0  0  0  0  0  0
  178.1140  178.8620  143.2810 O   0  0  0  0  0  0  0  0  0  0  0  0
  178.1260  177.5030  143.5990 C   0  0  0  0  0  1  0  0  0  0  0  0
  187.1270  175.2680  137.5120 C   0  0  0  0  0  2  0  0  0  0  0  0
  188.7280  174.4380  135.7280 C   0  0  0  0  0  2  0  0  0  0  0  0
  189.4310  174.2430  137.0530 C   0  0  1  0  0  3  0  0  0  0  0  0
  188.4940  175.4410  136.8450 C   0  0  2  0  0  3  0  0  0  0  0  0
  188.8040  173.1310  137.7610 N   0  0  0  0  0  2  0  0  0  0  0  0
  189.3700  172.4960  138.9140 C   0  0  0  0  0  0  0  0  0  0  0  0
  188.9140  171.3760  139.2670 O   0  0  0  0  0  0  0  0  0  0  0  0
  194.2340  172.9180  140.7370 C   0  0  0  0  0  0  0  0  0  0  0  0
  191.2400  174.5560  141.4620 C   0  0  0  0  0  0  0  0  0  0  0  0
  190.9390  175.3810  142.4220 C   0  0  0  0  0  0  0  0  0  0  0  0
  190.6350  176.2050  143.3900 C   0  0  0  0  0  3  0  0  0  0  0  0
  192.7460  173.0530  140.5750 C   0  0  1  0  0  3  0  0  0  0  0  0
  195.2110  172.4310  139.9720 C   0  0  0  0  0  2  0  0  0  0  0  0
  194.0860  174.3590  141.8860 S   0  0  0  0  0  0  0  0  0  0  0  0
  192.6110  174.4790  140.8960 C   0  0  2  0  0  3  0  0  0  0  0  0
  191.9190  172.7370  139.3450 C   0  0  0  0  0  2  0  0  0  0  0  0
  190.4700  173.1020  139.6930 C   0  0  0  0  0  0  0  0  0  0  0  0
  190.2010  173.9240  140.6840 N   0  0  0  0  0  0  0  0  0  0  0  0
  190.0040  175.0510  146.9140 C   0  0  0  0  0  0  0  0  0  0  0  0
  192.1270  176.0770  145.4100 C   0  0  0  0  0  3  0  0  0  0  0  0
  188.9520  174.5350  147.6600 O   0  0  0  0  0  1  0  0  0  0  0  0
  191.2540  175.2420  147.5090 C   0  0  0  0  0  3  0  0  0  0  0  0
  190.8710  175.8870  144.8060 C   0  0  0  0  0  0  0  0  0  0  0  0
  189.8130  175.3740  145.5650 C   0  0  0  0  0  3  0  0  0  0  0  0
  192.3170  175.7560  146.7580 C   0  0  0  0  0  3  0  0  0  0  0  0
  1  5  2  0  0  0  0
  3  1  1  0  0  0  0
  3  4  1  0  0  0  0
  4  2  2  0  0  0  0
  5  6  1  0  0  0  0
  5  2  1  0  0  0  0
  6  8  1  0  0  0  0
  8  7  2  0  0  0  0
  9 15  1  1  0  0  0
 10  7  1  6  0  0  0
 10 12  1  0  0  0  0
 10 14  1  0  0  0  0
 11  9  1  0  0  0  0
 12 13  1  0  0  0  0
 13 11  1  0  0  0  0
 14  9  1  0  0  0  0
 15 16  1  6  0  0  0
 15 18  1  0  0  0  0
 18 17  1  0  0  0  0
 19 20  2  0  0  0  0
 21 19  1  0  0  0  0
 21  8  1  0  0  0  0
 22 23  1  0  0  0  0
 22 19  1  0  0  0  0
 23 24  1  6  0  0  0
 23 25  1  0  0  0  0
 25 26  1  0  0  0  0
 26 27  1  0  0  0  0
 27 28  1  0  0  0  0
 29  3  1  0  0  0  0
 30 32  1  0  0  0  0
 30 31  1  0  0  0  0
 31 33  1  1  0  0  0
 32 31  1  0  0  0  0
 32 29  1  1  0  0  0
 33 34  1  0  0  0  0
 34 35  2  0  0  0  0
 34 45  1  0  0  0  0
 36 42  1  0  0  0  0
 37 38  2  0  0  0  0
 38 39  2  0  0  0  0
 39 51  1  0  0  0  0
 40 44  1  6  0  0  0
 40 36  1  0  0  0  0
 40 43  1  0  0  0  0
 41 36  2  0  0  0  0
 43 37  1  1  0  0  0
 43 42  1  0  0  0  0
 44 45  1  0  0  0  0
 45 46  2  0  0  0  0
 46 37  1  0  0  0  0
 47 50  1  0  0  0  0
 47 49  1  0  0  0  0
 48 53  1  0  0  0  0
 51 48  2  0  0  0  0
 51 52  1  0  0  0  0
 52 47  2  0  0  0  0
 53 50  2  0  0  0  0
M  END
>  <MODEL>
8

>  <REMARK>
 VINA RESULT:      -5.6      4.367      9.717
  Name = 
  16 active torsions:
  status: ('A' for Active; 'I' for Inactive)
    1  A    between atoms: C_2  and  C_3
    2  A    between atoms: C_3  and  N_14
    3  A    between atoms: C_4  and  O_30
    4  A    between atoms: C_5  and  C_46
    5  A    between atoms: C_5  and  C_53
    6  A    between atoms: C_7  and  C_50
    7  A    between atoms: C_18  and  C_19
    8  A    between atoms: C_18  and  C_32
    9  A    between atoms: C_19  and  O_30
   10  A    between atoms: C_20  and  N_27
   11  A    between atoms: C_21  and  C_34
   12  A    between atoms: C_23  and  C_25
   13  A    between atoms: C_23  and  N_38
   14  A    between atoms: O_26  and  C_32
   15  A    between atoms: C_42  and  C_45
   16  A    between atoms: N_43  and  C_53
                            x       y       z     vdW  Elec       q    Type
                         _______ _______ _______ _____ _____    ______ ____

>  <TORSDO>
F 16

$$$$
=
 OpenBabel11062420323D

 53 58  0  0  1  0  0  0  0  0999 V2000
  193.4000  174.5350  140.9520 N   0  0  0  0  0  0  0  0  0  0  0  0
  193.2730  176.2210  142.4660 N   0  0  0  0  0  0  0  0  0  0  0  0
  194.4280  175.4280  140.6640 N   0  0  0  0  0  0  0  0  0  0  0  0
  194.4280  176.5160  141.6280 C   0  0  0  0  0  3  0  0  0  0  0  0
  192.7380  175.0080  141.9500 C   0  0  0  0  0  0  0  0  0  0  0  0
  191.5730  174.3050  142.5660 C   0  0  0  0  0  2  0  0  0  0  0  0
  189.2990  175.0830  142.0100 C   0  0  0  0  0  3  0  0  0  0  0  0
  190.3780  174.3670  141.6680 C   0  0  0  0  0  0  0  0  0  0  0  0
  188.0010  177.7420  144.4480 C   0  0  1  0  0  3  0  0  0  0  0  0
  189.2150  175.8980  143.2620 C   0  0  2  0  0  3  0  0  0  0  0  0
  188.7420  177.1400  145.6530 C   0  0  0  0  0  2  0  0  0  0  0  0
  189.2460  175.0120  144.4360 N   0  0  0  0  0  2  0  0  0  0  0  0
  188.6580  175.6110  145.6480 C   0  0  0  0  0  2  0  0  0  0  0  0
  187.9690  176.7810  143.2520 C   0  0  0  0  0  2  0  0  0  0  0  0
  186.5870  178.1640  144.8340 C   0  0  2  0  0  3  0  0  0  0  0  0
  185.8360  177.0420  145.1940 O   0  0  0  0  0  1  0  0  0  0  0  0
  185.1960  179.9580  144.2480 C   0  0  0  0  0  1  0  0  0  0  0  0
  185.9420  178.8320  143.7140 N   0  0  0  0  0  2  0  0  0  0  0  0
  190.3540  172.1090  140.4550 C   0  0  0  0  0  0  0  0  0  0  0  0
  190.0700  171.4430  141.4820 O   0  0  0  0  0  0  0  0  0  0  0  0
  190.3760  173.5410  140.4980 N   0  0  0  0  0  2  0  0  0  0  0  0
  190.6460  171.4290  139.2690 O   0  0  0  0  0  0  0  0  0  0  0  0
  190.5440  170.0140  139.1090 C   0  0  1  0  0  3  0  0  0  0  0  0
  189.6940  169.6630  137.9020 C   0  0  0  0  0  1  0  0  0  0  0  0
  191.9140  169.3460  139.0160 C   0  0  0  0  0  2  0  0  0  0  0  0
  192.7480  169.6310  140.2500 C   0  0  0  0  0  2  0  0  0  0  0  0
  194.0830  169.8210  139.8980 O   0  0  0  0  0  0  0  0  0  0  0  0
  194.6040  168.5320  139.7760 C   0  0  0  0  0  1  0  0  0  0  0  0
  195.4760  175.1400  139.6970 C   0  0  0  0  0  2  0  0  0  0  0  0
  197.8770  175.6600  139.0650 C   0  0  0  0  0  2  0  0  0  0  0  0
  197.9410  174.5890  140.1310 C   0  0  1  0  0  3  0  0  0  0  0  0
  196.8370  175.6540  140.1730 C   0  0  2  0  0  3  0  0  0  0  0  0
  197.5050  173.3220  139.5550 N   0  0  0  0  0  2  0  0  0  0  0  0
  197.3080  172.1220  140.3130 C   0  0  0  0  0  0  0  0  0  0  0  0
  197.2230  171.0280  139.6960 O   0  0  0  0  0  0  0  0  0  0  0  0
  197.1750  170.0020  145.0720 C   0  0  0  0  0  0  0  0  0  0  0  0
  196.6020  173.2200  143.8530 C   0  0  0  0  0  0  0  0  0  0  0  0
  196.1100  174.2720  144.4420 C   0  0  0  0  0  0  0  0  0  0  0  0
  195.6110  175.3260  145.0300 C   0  0  0  0  0  3  0  0  0  0  0  0
  197.0080  170.9520  143.9210 C   0  0  1  0  0  3  0  0  0  0  0  0
  197.8300  168.8540  145.2410 C   0  0  0  0  0  2  0  0  0  0  0  0
  196.8550  171.4790  146.1380 S   0  0  0  0  0  0  0  0  0  0  0  0
  197.3820  172.1990  144.5980 C   0  0  2  0  0  3  0  0  0  0  0  0
  197.6910  170.8930  142.5680 C   0  0  0  0  0  2  0  0  0  0  0  0
  197.2120  172.1240  141.7880 C   0  0  0  0  0  0  0  0  0  0  0  0
  196.7010  173.1620  142.4140 N   0  0  0  0  0  0  0  0  0  0  0  0
  192.7550  176.4140  147.2240 C   0  0  0  0  0  0  0  0  0  0  0  0
  193.4340  174.2190  145.6280 C   0  0  0  0  0  3  0  0  0  0  0  0
  192.4140  177.5060  148.0110 O   0  0  0  0  0  1  0  0  0  0  0  0
  191.8750  175.3340  147.1090 C   0  0  0  0  0  3  0  0  0  0  0  0
  194.3230  175.3030  145.7390 C   0  0  0  0  0  0  0  0  0  0  0  0
  193.9770  176.3970  146.5400 C   0  0  0  0  0  3  0  0  0  0  0  0
  192.2130  174.2350  146.3120 C   0  0  0  0  0  3  0  0  0  0  0  0
  1  5  2  0  0  0  0
  3  1  1  0  0  0  0
  3  4  1  0  0  0  0
  4  2  2  0  0  0  0
  5  2  1  0  0  0  0
  5  6  1  0  0  0  0
  8  7  2  0  0  0  0
  8  6  1  0  0  0  0
  9 15  1  1  0  0  0
  9 11  1  0  0  0  0
 10  7  1  6  0  0  0
 10 12  1  0  0  0  0
 12 13  1  0  0  0  0
 13 11  1  0  0  0  0
 14 10  1  0  0  0  0
 14  9  1  0  0  0  0
 15 16  1  6  0  0  0
 18 17  1  0  0  0  0
 18 15  1  0  0  0  0
 19 21  1  0  0  0  0
 19 20  2  0  0  0  0
 21  8  1  0  0  0  0
 22 19  1  0  0  0  0
 23 24  1  6  0  0  0
 23 22  1  0  0  0  0
 25 23  1  0  0  0  0
 25 26  1  0  0  0  0
 27 26  1  0  0  0  0
 28 27  1  0  0  0  0
 29  3  1  0  0  0  0
 30 31  1  0  0  0  0
 30 32  1  0  0  0  0
 31 33  1  6  0  0  0
 31 32  1  0  0  0  0
 32 29  1  6  0  0  0
 33 34  1  0  0  0  0
 34 45  1  0  0  0  0
 35 34  2  0  0  0  0
 36 41  2  0  0  0  0
 36 42  1  0  0  0  0
 37 38  2  0  0  0  0
 38 39  2  0  0  0  0
 39 51  1  0  0  0  0
 40 44  1  6  0  0  0
 40 43  1  0  0  0  0
 40 36  1  0  0  0  0
 43 37  1  6  0  0  0
 43 42  1  0  0  0  0
 45 46  2  0  0  0  0
 45 44  1  0  0  0  0
 46 37  1  0  0  0  0
 47 49  1  0  0  0  0
 48 51  2  0  0  0  0
 48 53  1  0  0  0  0
 50 47  1  0  0  0  0
 51 52  1  0  0  0  0
 52 47  2  0  0  0  0
 53 50  2  0  0  0  0
M  END
>  <MODEL>
9

>  <REMARK>
 VINA RESULT:      -5.6      2.915      6.779
  Name = 
  16 active torsions:
  status: ('A' for Active; 'I' for Inactive)
    1  A    between atoms: C_2  and  C_3
    2  A    between atoms: C_3  and  N_14
    3  A    between atoms: C_4  and  O_30
    4  A    between atoms: C_5  and  C_46
    5  A    between atoms: C_5  and  C_53
    6  A    between atoms: C_7  and  C_50
    7  A    between atoms: C_18  and  C_19
    8  A    between atoms: C_18  and  C_32
    9  A    between atoms: C_19  and  O_30
   10  A    between atoms: C_20  and  N_27
   11  A    between atoms: C_21  and  C_34
   12  A    between atoms: C_23  and  C_25
   13  A    between atoms: C_23  and  N_38
   14  A    between atoms: O_26  and  C_32
   15  A    between atoms: C_42  and  C_45
   16  A    between atoms: N_43  and  C_53
                            x       y       z     vdW  Elec       q    Type
                         _______ _______ _______ _____ _____    ______ ____

>  <TORSDO>
F 16

$$$$
