=
 OpenBabel11062419543D

 30 31  0  0  1  0  0  0  0  0999 V2000
  189.1450  178.2910  142.9790 C   0  0  0  0  0  2  0  0  0  0  0  0
  190.4240  176.5260  144.2320 C   0  0  0  0  0  0  0  0  0  0  0  0
  188.2320  175.9780  143.2440 C   0  0  1  0  0  3  0  0  0  0  0  0
  190.2360  177.9980  144.0010 C   0  0  0  0  0  2  0  0  0  0  0  0
  189.4790  175.6700  143.9530 N   0  0  0  0  0  0  0  0  0  0  0  0
  187.8870  177.4760  143.2820 C   0  0  1  0  0  3  0  0  0  0  0  0
  186.1860  178.9830  144.4040 C   0  0  0  0  0  2  0  0  0  0  0  0
  186.6320  176.6760  145.3110 C   0  0  0  0  0  3  0  0  0  0  0  0
  185.4580  179.2430  145.7170 C   0  0  0  0  0  2  0  0  0  0  0  0
  185.5000  176.7440  146.0290 C   0  0  0  0  0  3  0  0  0  0  0  0
  184.6670  177.9970  146.1100 C   0  0  0  0  0  2  0  0  0  0  0  0
  187.2280  177.8770  144.6100 C   0  0  1  0  0  3  0  0  0  0  0  0
  191.6180  176.1140  144.9180 N   0  0  0  0  0  0  0  0  0  0  0  0
  191.8250  176.0140  146.2030 C   0  0  0  0  0  0  0  0  0  0  0  0
  191.2990  176.8780  148.3460 O   0  0  0  0  0  1  0  0  0  0  0  0
  190.0750  175.0630  147.5640 N   0  0  0  0  0  1  0  0  0  0  0  0
  190.7480  176.2970  147.2040 C   0  0  2  0  0  3  0  0  0  0  0  0
  193.0710  175.5910  146.6930 O   0  0  0  0  0  0  0  0  0  0  0  0
  194.3120  176.1560  146.3700 C   0  0  0  0  0  0  0  0  0  0  0  0
  195.3040  175.3480  145.8290 O   0  0  0  0  0  0  0  0  0  0  0  0
  194.5510  177.3780  146.5630 O   0  0  0  0  0  1  0  0  0  0  0  0
  188.3280  175.4660  141.8100 C   0  0  0  0  0  2  0  0  0  0  0  0
  189.6270  174.2000  141.6310 S   0  0  0  0  0  0  0  0  0  0  0  0
  188.6140  172.8660  142.2730 C   0  0  0  0  0  0  0  0  0  0  0  0
  187.4800  172.7100  141.8520 O   0  0  0  0  0  0  0  0  0  0  0  0
  189.1990  171.9040  143.2640 C   0  0  0  0  0  2  0  0  0  0  0  0
  190.7210  171.9690  143.3250 C   0  0  0  0  0  2  0  0  0  0  0  0
  191.2150  172.5700  144.6330 C   0  0  0  0  0  2  0  0  0  0  0  0
  193.0170  173.1770  143.5070 C   0  0  0  0  0  1  0  0  0  0  0  0
  192.6090  172.5380  144.6770 O   0  0  0  0  0  0  0  0  0  0  0  0
  1  4  1  0  0  0  0
  2 13  1  0  0  0  0
  3 22  1  6  0  0  0
  3  6  1  0  0  0  0
  3  5  1  0  0  0  0
  4  2  1  0  0  0  0
  5  2  2  0  0  0  0
  6  1  1  1  0  0  0
  6 12  1  0  0  0  0
  7  9  1  0  0  0  0
  8 10  2  0  0  0  0
  9 11  1  0  0  0  0
 10 11  1  0  0  0  0
 12  7  1  6  0  0  0
 12  8  1  0  0  0  0
 13 14  2  0  0  0  0
 14 18  1  0  0  0  0
 14 17  1  0  0  0  0
 17 16  1  1  0  0  0
 17 15  1  0  0  0  0
 19 21  1  0  0  0  0
 19 18  1  0  0  0  0
 20 19  2  0  0  0  0
 23 22  1  0  0  0  0
 23 24  1  0  0  0  0
 24 26  1  0  0  0  0
 25 24  2  0  0  0  0
 26 27  1  0  0  0  0
 27 28  1  0  0  0  0
 28 30  1  0  0  0  0
 29 30  1  0  0  0  0
M  END
>  <MODEL>
1

>  <REMARK>
 VINA RESULT:      -6.2      0.000      0.000
  Name = 
  12 active torsions:
  status: ('A' for Active; 'I' for Inactive)
    1  A    between atoms: C_2  and  O_19
    2  A    between atoms: C_3  and  C_11
    3  A    between atoms: C_3  and  S_15
    4  A    between atoms: C_6  and  N_8
    5  A    between atoms: C_10  and  O_19
    6  A    between atoms: C_10  and  C_26
    7  A    between atoms: C_13  and  C_14
    8  A    between atoms: C_13  and  C_22
    9  A    between atoms: C_14  and  S_15
   10  A    between atoms: C_18  and  C_22
   11  A    between atoms: C_18  and  O_28
   12  A    between atoms: C_25  and  C_30
                            x       y       z     vdW  Elec       q    Type
                         _______ _______ _______ _____ _____    ______ ____

>  <TORSDO>
F 12

$$$$
=
 OpenBabel11062419543D

 30 31  0  0  1  0  0  0  0  0999 V2000
  189.0260  177.9250  142.8680 C   0  0  0  0  0  2  0  0  0  0  0  0
  190.2510  176.1880  144.2110 C   0  0  0  0  0  0  0  0  0  0  0  0
  187.9980  175.6940  143.3380 C   0  0  1  0  0  3  0  0  0  0  0  0
  190.1360  177.6470  143.8740 C   0  0  0  0  0  2  0  0  0  0  0  0
  189.2510  175.3690  144.0280 N   0  0  0  0  0  0  0  0  0  0  0  0
  187.7370  177.2080  143.2720 C   0  0  1  0  0  3  0  0  0  0  0  0
  186.1650  178.8920  144.3290 C   0  0  0  0  0  2  0  0  0  0  0  0
  186.5120  176.6360  145.3940 C   0  0  0  0  0  3  0  0  0  0  0  0
  185.5000  179.2910  145.6410 C   0  0  0  0  0  2  0  0  0  0  0  0
  185.4120  176.8230  146.1400 C   0  0  0  0  0  3  0  0  0  0  0  0
  184.6540  178.1260  146.1520 C   0  0  0  0  0  2  0  0  0  0  0  0
  187.1500  177.7450  144.5860 C   0  0  1  0  0  3  0  0  0  0  0  0
  191.4440  175.7610  144.8880 N   0  0  0  0  0  0  0  0  0  0  0  0
  191.6910  175.7420  146.1700 C   0  0  0  0  0  0  0  0  0  0  0  0
  191.2920  176.7480  148.2780 O   0  0  0  0  0  1  0  0  0  0  0  0
  189.9110  174.9980  147.6180 N   0  0  0  0  0  1  0  0  0  0  0  0
  190.6660  176.1570  147.1800 C   0  0  2  0  0  3  0  0  0  0  0  0
  192.9290  175.2860  146.6510 O   0  0  0  0  0  0  0  0  0  0  0  0
  194.1690  175.9010  146.4320 C   0  0  0  0  0  0  0  0  0  0  0  0
  194.3270  177.2410  146.7590 O   0  0  0  0  0  1  0  0  0  0  0  0
  195.1420  175.2680  145.9420 O   0  0  0  0  0  0  0  0  0  0  0  0
  188.0140  175.0730  141.9450 C   0  0  0  0  0  2  0  0  0  0  0  0
  188.5110  173.3200  141.9940 S   0  0  0  0  0  0  0  0  0  0  0  0
  189.8350  173.5140  140.8010 C   0  0  0  0  0  0  0  0  0  0  0  0
  190.8420  174.1320  141.1080 O   0  0  0  0  0  0  0  0  0  0  0  0
  189.7300  172.8470  139.4630 C   0  0  0  0  0  2  0  0  0  0  0  0
  188.3550  173.0140  138.8240 C   0  0  0  0  0  2  0  0  0  0  0  0
  188.3480  174.1010  137.7580 C   0  0  0  0  0  2  0  0  0  0  0  0
  187.1550  175.7520  136.9010 C   0  0  0  0  0  1  0  0  0  0  0  0
  187.4360  175.1000  138.1010 O   0  0  0  0  0  0  0  0  0  0  0  0
  1  4  1  0  0  0  0
  2 13  1  0  0  0  0
  3 22  1  6  0  0  0
  3  5  1  0  0  0  0
  4  2  1  0  0  0  0
  5  2  2  0  0  0  0
  6  1  1  1  0  0  0
  6  3  1  0  0  0  0
  6 12  1  0  0  0  0
  7  9  1  0  0  0  0
  8 10  2  0  0  0  0
  9 11  1  0  0  0  0
 10 11  1  0  0  0  0
 12  7  1  6  0  0  0
 12  8  1  0  0  0  0
 13 14  2  0  0  0  0
 14 18  1  0  0  0  0
 14 17  1  0  0  0  0
 17 16  1  1  0  0  0
 17 15  1  0  0  0  0
 19 18  1  0  0  0  0
 19 20  1  0  0  0  0
 21 19  2  0  0  0  0
 22 23  1  0  0  0  0
 24 25  2  0  0  0  0
 24 23  1  0  0  0  0
 26 24  1  0  0  0  0
 27 26  1  0  0  0  0
 28 30  1  0  0  0  0
 28 27  1  0  0  0  0
 29 30  1  0  0  0  0
M  END
>  <MODEL>
2

>  <REMARK>
 VINA RESULT:      -6.2      1.887      3.131
  Name = 
  12 active torsions:
  status: ('A' for Active; 'I' for Inactive)
    1  A    between atoms: C_2  and  O_19
    2  A    between atoms: C_3  and  C_11
    3  A    between atoms: C_3  and  S_15
    4  A    between atoms: C_6  and  N_8
    5  A    between atoms: C_10  and  O_19
    6  A    between atoms: C_10  and  C_26
    7  A    between atoms: C_13  and  C_14
    8  A    between atoms: C_13  and  C_22
    9  A    between atoms: C_14  and  S_15
   10  A    between atoms: C_18  and  C_22
   11  A    between atoms: C_18  and  O_28
   12  A    between atoms: C_25  and  C_30
                            x       y       z     vdW  Elec       q    Type
                         _______ _______ _______ _____ _____    ______ ____

>  <TORSDO>
F 12

$$$$
=
 OpenBabel11062419543D

 30 31  0  0  1  0  0  0  0  0999 V2000
  189.9870  177.8870  143.4940 C   0  0  0  0  0  2  0  0  0  0  0  0
  188.7050  175.7840  142.9870 C   0  0  0  0  0  0  0  0  0  0  0  0
  188.8220  176.6160  145.3060 C   0  0  1  0  0  3  0  0  0  0  0  0
  189.7680  176.7360  142.5200 C   0  0  0  0  0  2  0  0  0  0  0  0
  188.3680  175.7090  144.2460 N   0  0  0  0  0  0  0  0  0  0  0  0
  190.1090  177.3670  144.9280 C   0  0  1  0  0  3  0  0  0  0  0  0
  192.6160  177.1960  144.5990 C   0  0  0  0  0  2  0  0  0  0  0  0
  191.5190  176.1110  146.5900 C   0  0  0  0  0  3  0  0  0  0  0  0
  193.8440  176.3690  144.9600 C   0  0  0  0  0  2  0  0  0  0  0  0
  192.7180  175.9910  147.1810 C   0  0  0  0  0  3  0  0  0  0  0  0
  194.0050  176.3410  146.4780 C   0  0  0  0  0  2  0  0  0  0  0  0
  191.3600  176.5000  145.1370 C   0  0  1  0  0  3  0  0  0  0  0  0
  188.1870  174.8520  142.0250 N   0  0  0  0  0  0  0  0  0  0  0  0
  188.6350  173.6650  141.7180 C   0  0  0  0  0  0  0  0  0  0  0  0
  190.9750  173.2900  141.6760 O   0  0  0  0  0  1  0  0  0  0  0  0
  189.6130  171.6290  142.5670 N   0  0  0  0  0  1  0  0  0  0  0  0
  189.8140  173.0580  142.4150 C   0  0  2  0  0  3  0  0  0  0  0  0
  187.9910  172.8900  140.7390 O   0  0  0  0  0  0  0  0  0  0  0  0
  188.3310  172.8400  139.3810 C   0  0  0  0  0  0  0  0  0  0  0  0
  188.0220  173.9210  138.5660 O   0  0  0  0  0  0  0  0  0  0  0  0
  188.9070  171.8370  138.8810 O   0  0  0  0  0  1  0  0  0  0  0  0
  187.6970  177.5840  145.6570 C   0  0  0  0  0  2  0  0  0  0  0  0
  186.5540  176.8730  146.8850 S   0  0  0  0  0  0  0  0  0  0  0  0
  185.5510  178.3530  147.0210 C   0  0  0  0  0  0  0  0  0  0  0  0
  185.9800  179.3220  147.6280 O   0  0  0  0  0  0  0  0  0  0  0  0
  184.2290  178.4200  146.3180 C   0  0  0  0  0  2  0  0  0  0  0  0
  184.3650  178.4390  144.8000 C   0  0  0  0  0  2  0  0  0  0  0  0
  184.9320  179.7570  144.2930 C   0  0  0  0  0  2  0  0  0  0  0  0
  185.4120  178.4300  142.5930 C   0  0  0  0  0  1  0  0  0  0  0  0
  185.8990  179.5180  143.3160 O   0  0  0  0  0  0  0  0  0  0  0  0
  2  5  2  0  0  0  0
  3 22  1  6  0  0  0
  4  2  1  0  0  0  0
  4  1  1  0  0  0  0
  5  3  1  0  0  0  0
  6  1  1  6  0  0  0
  6 12  1  0  0  0  0
  6  3  1  0  0  0  0
  7  9  1  0  0  0  0
  8 10  2  0  0  0  0
  9 11  1  0  0  0  0
 11 10  1  0  0  0  0
 12  7  1  1  0  0  0
 12  8  1  0  0  0  0
 13  2  1  0  0  0  0
 14 13  2  0  0  0  0
 14 17  1  0  0  0  0
 17 15  1  6  0  0  0
 17 16  1  0  0  0  0
 18 14  1  0  0  0  0
 19 18  1  0  0  0  0
 20 19  2  0  0  0  0
 21 19  1  0  0  0  0
 22 23  1  0  0  0  0
 23 24  1  0  0  0  0
 24 25  2  0  0  0  0
 26 24  1  0  0  0  0
 27 26  1  0  0  0  0
 28 27  1  0  0  0  0
 29 30  1  0  0  0  0
 30 28  1  0  0  0  0
M  END
>  <MODEL>
3

>  <REMARK>
 VINA RESULT:      -6.1      3.134      7.202
  Name = 
  12 active torsions:
  status: ('A' for Active; 'I' for Inactive)
    1  A    between atoms: C_2  and  O_19
    2  A    between atoms: C_3  and  C_11
    3  A    between atoms: C_3  and  S_15
    4  A    between atoms: C_6  and  N_8
    5  A    between atoms: C_10  and  O_19
    6  A    between atoms: C_10  and  C_26
    7  A    between atoms: C_13  and  C_14
    8  A    between atoms: C_13  and  C_22
    9  A    between atoms: C_14  and  S_15
   10  A    between atoms: C_18  and  C_22
   11  A    between atoms: C_18  and  O_28
   12  A    between atoms: C_25  and  C_30
                            x       y       z     vdW  Elec       q    Type
                         _______ _______ _______ _____ _____    ______ ____

>  <TORSDO>
F 12

$$$$
=
 OpenBabel11062419543D

 30 31  0  0  1  0  0  0  0  0999 V2000
  189.2080  177.8580  142.7600 C   0  0  0  0  0  2  0  0  0  0  0  0
  190.5260  176.3600  144.2910 C   0  0  0  0  0  0  0  0  0  0  0  0
  188.3300  175.6200  143.4480 C   0  0  1  0  0  3  0  0  0  0  0  0
  190.3160  177.7640  143.8020 C   0  0  0  0  0  2  0  0  0  0  0  0
  189.5900  175.4580  144.1830 N   0  0  0  0  0  0  0  0  0  0  0  0
  187.9650  177.0960  143.2220 C   0  0  1  0  0  3  0  0  0  0  0  0
  186.2880  178.7900  144.0800 C   0  0  0  0  0  2  0  0  0  0  0  0
  186.7100  176.6620  145.3590 C   0  0  0  0  0  3  0  0  0  0  0  0
  185.5690  179.2750  145.3330 C   0  0  0  0  0  2  0  0  0  0  0  0
  185.5830  176.8630  146.0590 C   0  0  0  0  0  3  0  0  0  0  0  0
  184.7640  178.1220  145.9310 C   0  0  0  0  0  2  0  0  0  0  0  0
  187.3170  177.7220  144.4660 C   0  0  1  0  0  3  0  0  0  0  0  0
  191.7330  176.0910  145.0220 N   0  0  0  0  0  0  0  0  0  0  0  0
  191.9280  176.1230  146.3120 C   0  0  0  0  0  0  0  0  0  0  0  0
  191.3310  177.0700  148.4020 O   0  0  0  0  0  1  0  0  0  0  0  0
  190.1630  175.1970  147.6720 N   0  0  0  0  0  1  0  0  0  0  0  0
  190.8200  176.4280  147.2740 C   0  0  2  0  0  3  0  0  0  0  0  0
  193.1910  175.8280  146.8500 O   0  0  0  0  0  0  0  0  0  0  0  0
  194.4240  176.1980  146.2970 C   0  0  0  0  0  0  0  0  0  0  0  0
  194.6620  177.5360  146.0100 O   0  0  0  0  0  0  0  0  0  0  0  0
  195.3190  175.3460  146.0500 O   0  0  0  0  0  1  0  0  0  0  0  0
  188.4160  174.8610  142.1270 C   0  0  0  0  0  2  0  0  0  0  0  0
  188.8300  173.1040  142.3840 S   0  0  0  0  0  0  0  0  0  0  0  0
  190.1850  173.1040  141.2100 C   0  0  0  0  0  0  0  0  0  0  0  0
  190.2210  172.2640  140.3260 O   0  0  0  0  0  0  0  0  0  0  0  0
  191.2200  174.1870  141.2750 C   0  0  0  0  0  2  0  0  0  0  0  0
  192.4030  173.8230  142.1660 C   0  0  0  0  0  2  0  0  0  0  0  0
  193.6610  174.5930  141.7880 C   0  0  0  0  0  2  0  0  0  0  0  0
  195.1900  176.0610  142.4130 C   0  0  0  0  0  1  0  0  0  0  0  0
  194.1820  175.2370  142.9110 O   0  0  0  0  0  0  0  0  0  0  0  0
  1  4  1  0  0  0  0
  2 13  1  0  0  0  0
  3 22  1  6  0  0  0
  3  5  1  0  0  0  0
  4  2  1  0  0  0  0
  5  2  2  0  0  0  0
  6  1  1  1  0  0  0
  6  3  1  0  0  0  0
  6 12  1  0  0  0  0
  7  9  1  0  0  0  0
  8 10  2  0  0  0  0
  9 11  1  0  0  0  0
 11 10  1  0  0  0  0
 12  7  1  6  0  0  0
 12  8  1  0  0  0  0
 13 14  2  0  0  0  0
 14 18  1  0  0  0  0
 14 17  1  0  0  0  0
 17 16  1  1  0  0  0
 17 15  1  0  0  0  0
 19 18  1  0  0  0  0
 20 19  2  0  0  0  0
 21 19  1  0  0  0  0
 22 23  1  0  0  0  0
 24 26  1  0  0  0  0
 24 23  1  0  0  0  0
 25 24  2  0  0  0  0
 26 27  1  0  0  0  0
 28 27  1  0  0  0  0
 28 30  1  0  0  0  0
 29 30  1  0  0  0  0
M  END
>  <MODEL>
4

>  <REMARK>
 VINA RESULT:      -6.0      1.411      1.775
  Name = 
  12 active torsions:
  status: ('A' for Active; 'I' for Inactive)
    1  A    between atoms: C_2  and  O_19
    2  A    between atoms: C_3  and  C_11
    3  A    between atoms: C_3  and  S_15
    4  A    between atoms: C_6  and  N_8
    5  A    between atoms: C_10  and  O_19
    6  A    between atoms: C_10  and  C_26
    7  A    between atoms: C_13  and  C_14
    8  A    between atoms: C_13  and  C_22
    9  A    between atoms: C_14  and  S_15
   10  A    between atoms: C_18  and  C_22
   11  A    between atoms: C_18  and  O_28
   12  A    between atoms: C_25  and  C_30
                            x       y       z     vdW  Elec       q    Type
                         _______ _______ _______ _____ _____    ______ ____

>  <TORSDO>
F 12

$$$$
=
 OpenBabel11062419543D

 30 31  0  0  1  0  0  0  0  0999 V2000
  189.4600  175.7080  146.7530 C   0  0  0  0  0  2  0  0  0  0  0  0
  189.9140  174.4850  144.6030 C   0  0  0  0  0  0  0  0  0  0  0  0
  189.8500  176.9500  144.6170 C   0  0  1  0  0  3  0  0  0  0  0  0
  189.3440  174.3950  145.9900 C   0  0  0  0  0  2  0  0  0  0  0  0
  190.0510  175.6340  144.0000 N   0  0  0  0  0  0  0  0  0  0  0  0
  188.9890  176.8800  145.8890 C   0  0  1  0  0  3  0  0  0  0  0  0
  186.6400  176.8210  146.8370 C   0  0  0  0  0  2  0  0  0  0  0  0
  187.0830  177.9100  144.6100 C   0  0  0  0  0  3  0  0  0  0  0  0
  185.1650  176.8960  146.4600 C   0  0  0  0  0  2  0  0  0  0  0  0
  185.8870  178.5170  144.6730 C   0  0  0  0  0  3  0  0  0  0  0  0
  184.8900  178.2280  145.7650 C   0  0  0  0  0  2  0  0  0  0  0  0
  187.4900  176.8060  145.5610 C   0  0  1  0  0  3  0  0  0  0  0  0
  190.1540  173.2510  143.9080 N   0  0  0  0  0  0  0  0  0  0  0  0
  189.4950  172.7410  142.9030 C   0  0  0  0  0  0  0  0  0  0  0  0
  187.3510  172.5370  141.9130 O   0  0  0  0  0  1  0  0  0  0  0  0
  188.7910  174.1660  141.0880 N   0  0  0  0  0  1  0  0  0  0  0  0
  188.3390  173.4540  142.2690 C   0  0  2  0  0  3  0  0  0  0  0  0
  189.8790  171.5090  142.3490 O   0  0  0  0  0  0  0  0  0  0  0  0
  190.7560  171.3350  141.2710 C   0  0  0  0  0  0  0  0  0  0  0  0
  191.8310  172.2020  141.1250 O   0  0  0  0  0  1  0  0  0  0  0  0
  190.5910  170.4120  140.4290 O   0  0  0  0  0  0  0  0  0  0  0  0
  191.2070  177.5870  144.9000 C   0  0  0  0  0  2  0  0  0  0  0  0
  192.5450  176.7620  143.9790 S   0  0  0  0  0  0  0  0  0  0  0  0
  193.6580  176.6840  145.3830 C   0  0  0  0  0  0  0  0  0  0  0  0
  194.4980  177.5560  145.5390 O   0  0  0  0  0  0  0  0  0  0  0  0
  193.4950  175.5940  146.3980 C   0  0  0  0  0  2  0  0  0  0  0  0
  193.5320  174.2000  145.7820 C   0  0  0  0  0  2  0  0  0  0  0  0
  194.9240  173.8290  145.2900 C   0  0  0  0  0  2  0  0  0  0  0  0
  196.9450  173.4620  146.1050 C   0  0  0  0  0  1  0  0  0  0  0  0
  195.8900  174.3740  146.1360 O   0  0  0  0  0  0  0  0  0  0  0  0
  2  4  1  0  0  0  0
  3 22  1  1  0  0  0
  3  6  1  0  0  0  0
  4  1  1  0  0  0  0
  5  2  2  0  0  0  0
  5  3  1  0  0  0  0
  6  1  1  6  0  0  0
  8 10  2  0  0  0  0
  9  7  1  0  0  0  0
 10 11  1  0  0  0  0
 11  9  1  0  0  0  0
 12  8  1  6  0  0  0
 12  6  1  0  0  0  0
 12  7  1  0  0  0  0
 13  2  1  0  0  0  0
 14 13  2  0  0  0  0
 15 17  1  0  0  0  0
 17 16  1  6  0  0  0
 17 14  1  0  0  0  0
 18 14  1  0  0  0  0
 19 18  1  0  0  0  0
 20 19  1  0  0  0  0
 21 19  2  0  0  0  0
 23 22  1  0  0  0  0
 23 24  1  0  0  0  0
 24 25  2  0  0  0  0
 24 26  1  0  0  0  0
 27 26  1  0  0  0  0
 28 27  1  0  0  0  0
 28 30  1  0  0  0  0
 29 30  1  0  0  0  0
M  END
>  <MODEL>
5

>  <REMARK>
 VINA RESULT:      -5.8      2.146      5.255
  Name = 
  12 active torsions:
  status: ('A' for Active; 'I' for Inactive)
    1  A    between atoms: C_2  and  O_19
    2  A    between atoms: C_3  and  C_11
    3  A    between atoms: C_3  and  S_15
    4  A    between atoms: C_6  and  N_8
    5  A    between atoms: C_10  and  O_19
    6  A    between atoms: C_10  and  C_26
    7  A    between atoms: C_13  and  C_14
    8  A    between atoms: C_13  and  C_22
    9  A    between atoms: C_14  and  S_15
   10  A    between atoms: C_18  and  C_22
   11  A    between atoms: C_18  and  O_28
   12  A    between atoms: C_25  and  C_30
                            x       y       z     vdW  Elec       q    Type
                         _______ _______ _______ _____ _____    ______ ____

>  <TORSDO>
F 12

$$$$
=
 OpenBabel11062419543D

 30 31  0  0  1  0  0  0  0  0999 V2000
  192.4580  177.1670  144.5100 C   0  0  0  0  0  2  0  0  0  0  0  0
  190.8910  175.5200  143.4360 C   0  0  0  0  0  0  0  0  0  0  0  0
  191.7140  175.1110  145.7240 C   0  0  1  0  0  3  0  0  0  0  0  0
  191.8730  176.6330  143.2090 C   0  0  0  0  0  2  0  0  0  0  0  0
  190.9040  174.8180  144.5360 N   0  0  0  0  0  0  0  0  0  0  0  0
  192.9160  176.0180  145.4100 C   0  0  1  0  0  3  0  0  0  0  0  0
  195.3530  176.0880  144.7190 C   0  0  0  0  0  2  0  0  0  0  0  0
  194.3370  173.9480  145.5760 C   0  0  0  0  0  3  0  0  0  0  0  0
  196.5200  175.2240  144.2570 C   0  0  0  0  0  2  0  0  0  0  0  0
  195.5670  173.4440  145.7630 C   0  0  0  0  0  3  0  0  0  0  0  0
  196.8130  174.1650  145.3170 C   0  0  0  0  0  2  0  0  0  0  0  0
  194.0870  175.2270  144.8070 C   0  0  1  0  0  3  0  0  0  0  0  0
  190.0430  175.1550  142.3350 N   0  0  0  0  0  0  0  0  0  0  0  0
  188.8740  175.6370  142.0130 C   0  0  0  0  0  0  0  0  0  0  0  0
  186.9240  176.4090  143.1170 O   0  0  0  0  0  1  0  0  0  0  0  0
  188.2360  177.9640  141.9910 N   0  0  0  0  0  1  0  0  0  0  0  0
  188.2350  176.7500  142.7860 C   0  0  2  0  0  3  0  0  0  0  0  0
  188.1860  175.1500  140.8900 O   0  0  0  0  0  0  0  0  0  0  0  0
  188.5260  174.0070  140.1540 C   0  0  0  0  0  0  0  0  0  0  0  0
  189.1630  174.1560  138.9280 O   0  0  0  0  0  0  0  0  0  0  0  0
  188.2660  172.8490  140.5750 O   0  0  0  0  0  1  0  0  0  0  0  0
  190.8260  175.7210  146.8030 C   0  0  0  0  0  2  0  0  0  0  0  0
  189.1380  175.0340  146.7550 S   0  0  0  0  0  0  0  0  0  0  0  0
  188.3440  176.6250  146.5210 C   0  0  0  0  0  0  0  0  0  0  0  0
  188.9630  177.5410  146.0050 O   0  0  0  0  0  0  0  0  0  0  0  0
  186.8990  176.7920  146.8850 C   0  0  0  0  0  2  0  0  0  0  0  0
  186.2580  178.0070  146.2240 C   0  0  0  0  0  2  0  0  0  0  0  0
  184.8280  177.7310  145.7840 C   0  0  0  0  0  2  0  0  0  0  0  0
  185.5650  179.4160  144.5590 C   0  0  0  0  0  1  0  0  0  0  0  0
  184.5120  178.5090  144.6690 O   0  0  0  0  0  0  0  0  0  0  0  0
  2  5  2  0  0  0  0
  3 22  1  1  0  0  0
  4  2  1  0  0  0  0
  4  1  1  0  0  0  0
  5  3  1  0  0  0  0
  6  1  1  6  0  0  0
  6  3  1  0  0  0  0
  8 10  2  0  0  0  0
  9  7  1  0  0  0  0
  9 11  1  0  0  0  0
 11 10  1  0  0  0  0
 12  7  1  1  0  0  0
 12  6  1  0  0  0  0
 12  8  1  0  0  0  0
 13  2  1  0  0  0  0
 14 13  2  0  0  0  0
 14 17  1  0  0  0  0
 17 16  1  6  0  0  0
 17 15  1  0  0  0  0
 18 14  1  0  0  0  0
 19 21  1  0  0  0  0
 19 18  1  0  0  0  0
 20 19  2  0  0  0  0
 23 22  1  0  0  0  0
 24 23  1  0  0  0  0
 24 26  1  0  0  0  0
 25 24  2  0  0  0  0
 27 26  1  0  0  0  0
 28 27  1  0  0  0  0
 29 30  1  0  0  0  0
 30 28  1  0  0  0  0
M  END
>  <MODEL>
6

>  <REMARK>
 VINA RESULT:      -5.7      2.966      7.484
  Name = 
  12 active torsions:
  status: ('A' for Active; 'I' for Inactive)
    1  A    between atoms: C_2  and  O_19
    2  A    between atoms: C_3  and  C_11
    3  A    between atoms: C_3  and  S_15
    4  A    between atoms: C_6  and  N_8
    5  A    between atoms: C_10  and  O_19
    6  A    between atoms: C_10  and  C_26
    7  A    between atoms: C_13  and  C_14
    8  A    between atoms: C_13  and  C_22
    9  A    between atoms: C_14  and  S_15
   10  A    between atoms: C_18  and  C_22
   11  A    between atoms: C_18  and  O_28
   12  A    between atoms: C_25  and  C_30
                            x       y       z     vdW  Elec       q    Type
                         _______ _______ _______ _____ _____    ______ ____

>  <TORSDO>
F 12

$$$$
=
 OpenBabel11062419543D

 30 31  0  0  1  0  0  0  0  0999 V2000
  188.6580  178.1200  142.6180 C   0  0  0  0  0  2  0  0  0  0  0  0
  190.1030  176.5370  143.9340 C   0  0  0  0  0  0  0  0  0  0  0  0
  187.8410  175.8400  143.2420 C   0  0  1  0  0  3  0  0  0  0  0  0
  189.8530  177.9670  143.5520 C   0  0  0  0  0  2  0  0  0  0  0  0
  189.1600  175.6390  143.8530 N   0  0  0  0  0  0  0  0  0  0  0  0
  187.4590  177.3260  143.1390 C   0  0  1  0  0  3  0  0  0  0  0  0
  185.9330  179.0200  144.2440 C   0  0  0  0  0  2  0  0  0  0  0  0
  186.3140  176.7700  145.3100 C   0  0  0  0  0  3  0  0  0  0  0  0
  185.3190  179.4280  145.5770 C   0  0  0  0  0  2  0  0  0  0  0  0
  185.2430  176.9650  146.0950 C   0  0  0  0  0  3  0  0  0  0  0  0
  184.4890  178.2690  146.1270 C   0  0  0  0  0  2  0  0  0  0  0  0
  186.9230  177.8720  144.4710 C   0  0  1  0  0  3  0  0  0  0  0  0
  191.3690  176.2290  144.5400 N   0  0  0  0  0  0  0  0  0  0  0  0
  191.6570  176.1040  145.8070 C   0  0  0  0  0  0  0  0  0  0  0  0
  190.7070  177.4870  147.4810 O   0  0  0  0  0  1  0  0  0  0  0  0
  190.7970  175.1960  147.8700 N   0  0  0  0  0  1  0  0  0  0  0  0
  190.6130  176.2350  146.8730 C   0  0  2  0  0  3  0  0  0  0  0  0
  192.9650  175.7970  146.2140 O   0  0  0  0  0  0  0  0  0  0  0  0
  194.1160  176.5270  145.8880 C   0  0  0  0  0  0  0  0  0  0  0  0
  194.5590  177.5160  146.7570 O   0  0  0  0  0  1  0  0  0  0  0  0
  194.7560  176.3100  144.8250 O   0  0  0  0  0  0  0  0  0  0  0  0
  187.8100  175.1630  141.8760 C   0  0  0  0  0  2  0  0  0  0  0  0
  188.0030  173.3550  142.0140 S   0  0  0  0  0  0  0  0  0  0  0  0
  189.0720  173.2170  140.5810 C   0  0  0  0  0  0  0  0  0  0  0  0
  188.7110  173.6740  139.5090 O   0  0  0  0  0  0  0  0  0  0  0  0
  190.4360  172.6130  140.7310 C   0  0  0  0  0  2  0  0  0  0  0  0
  190.4370  171.3560  141.5940 C   0  0  0  0  0  2  0  0  0  0  0  0
  191.4260  171.4530  142.7460 C   0  0  0  0  0  2  0  0  0  0  0  0
  190.8270  172.5790  144.5510 C   0  0  0  0  0  1  0  0  0  0  0  0
  191.4010  172.7380  143.2900 O   0  0  0  0  0  0  0  0  0  0  0  0
  1  4  1  0  0  0  0
  2 13  1  0  0  0  0
  3 22  1  6  0  0  0
  3  5  1  0  0  0  0
  4  2  1  0  0  0  0
  5  2  2  0  0  0  0
  6  1  1  1  0  0  0
  6  3  1  0  0  0  0
  6 12  1  0  0  0  0
  7  9  1  0  0  0  0
  8 10  2  0  0  0  0
  9 11  1  0  0  0  0
 10 11  1  0  0  0  0
 12  7  1  6  0  0  0
 12  8  1  0  0  0  0
 13 14  2  0  0  0  0
 14 18  1  0  0  0  0
 14 17  1  0  0  0  0
 17 15  1  1  0  0  0
 17 16  1  0  0  0  0
 19 18  1  0  0  0  0
 19 20  1  0  0  0  0
 21 19  2  0  0  0  0
 22 23  1  0  0  0  0
 24 26  1  0  0  0  0
 24 23  1  0  0  0  0
 25 24  2  0  0  0  0
 26 27  1  0  0  0  0
 27 28  1  0  0  0  0
 28 30  1  0  0  0  0
 30 29  1  0  0  0  0
M  END
>  <MODEL>
7

>  <REMARK>
 VINA RESULT:      -5.7      1.126      1.380
  Name = 
  12 active torsions:
  status: ('A' for Active; 'I' for Inactive)
    1  A    between atoms: C_2  and  O_19
    2  A    between atoms: C_3  and  C_11
    3  A    between atoms: C_3  and  S_15
    4  A    between atoms: C_6  and  N_8
    5  A    between atoms: C_10  and  O_19
    6  A    between atoms: C_10  and  C_26
    7  A    between atoms: C_13  and  C_14
    8  A    between atoms: C_13  and  C_22
    9  A    between atoms: C_14  and  S_15
   10  A    between atoms: C_18  and  C_22
   11  A    between atoms: C_18  and  O_28
   12  A    between atoms: C_25  and  C_30
                            x       y       z     vdW  Elec       q    Type
                         _______ _______ _______ _____ _____    ______ ____

>  <TORSDO>
F 12

$$$$
=
 OpenBabel11062419543D

 30 31  0  0  1  0  0  0  0  0999 V2000
  188.9430  175.6020  145.2260 C   0  0  0  0  0  2  0  0  0  0  0  0
  188.9660  175.6500  142.7120 C   0  0  0  0  0  0  0  0  0  0  0  0
  189.1570  177.7580  143.9770 C   0  0  1  0  0  3  0  0  0  0  0  0
  188.5880  174.8690  143.9380 C   0  0  0  0  0  2  0  0  0  0  0  0
  189.1350  176.9430  142.7570 N   0  0  0  0  0  0  0  0  0  0  0  0
  188.4780  177.0580  145.1660 C   0  0  1  0  0  3  0  0  0  0  0  0
  186.3130  176.8810  146.4700 C   0  0  0  0  0  2  0  0  0  0  0  0
  186.5330  178.5490  144.5960 C   0  0  0  0  0  3  0  0  0  0  0  0
  184.8170  177.1650  146.4050 C   0  0  0  0  0  2  0  0  0  0  0  0
  185.4420  179.1900  145.0430 C   0  0  0  0  0  3  0  0  0  0  0  0
  184.5980  178.6580  146.1730 C   0  0  0  0  0  2  0  0  0  0  0  0
  186.9490  177.1870  145.1090 C   0  0  1  0  0  3  0  0  0  0  0  0
  188.9790  174.9450  141.4600 N   0  0  0  0  0  0  0  0  0  0  0  0
  189.9070  174.1640  140.9760 C   0  0  0  0  0  0  0  0  0  0  0  0
  192.2690  174.3390  141.0630 O   0  0  0  0  0  1  0  0  0  0  0  0
  191.2790  172.4090  141.8990 N   0  0  0  0  0  1  0  0  0  0  0  0
  191.1540  173.8460  141.7410 C   0  0  2  0  0  3  0  0  0  0  0  0
  189.7430  173.5560  139.7200 O   0  0  0  0  0  0  0  0  0  0  0  0
  188.5190  173.3040  139.0860 C   0  0  0  0  0  0  0  0  0  0  0  0
  188.0660  174.1860  138.1140 O   0  0  0  0  0  0  0  0  0  0  0  0
  187.8190  172.2980  139.3790 O   0  0  0  0  0  1  0  0  0  0  0  0
  190.5980  178.1370  144.3050 C   0  0  0  0  0  2  0  0  0  0  0  0
  191.7780  177.3610  143.1520 S   0  0  0  0  0  0  0  0  0  0  0  0
  192.5720  176.3630  144.4130 C   0  0  0  0  0  0  0  0  0  0  0  0
  192.2620  175.1900  144.5420 O   0  0  0  0  0  0  0  0  0  0  0  0
  193.6700  176.9560  145.2440 C   0  0  0  0  0  2  0  0  0  0  0  0
  194.9410  176.1140  145.2340 C   0  0  0  0  0  2  0  0  0  0  0  0
  195.8110  176.4070  144.0210 C   0  0  0  0  0  2  0  0  0  0  0  0
  195.3510  176.0080  141.8960 C   0  0  0  0  0  1  0  0  0  0  0  0
  195.6950  175.3740  143.0890 O   0  0  0  0  0  0  0  0  0  0  0  0
  2  5  2  0  0  0  0
  2  4  1  0  0  0  0
  3 22  1  1  0  0  0
  3  6  1  0  0  0  0
  4  1  1  0  0  0  0
  5  3  1  0  0  0  0
  6  1  1  6  0  0  0
  8 10  2  0  0  0  0
  9  7  1  0  0  0  0
 10 11  1  0  0  0  0
 11  9  1  0  0  0  0
 12  8  1  1  0  0  0
 12  6  1  0  0  0  0
 12  7  1  0  0  0  0
 13  2  1  0  0  0  0
 14 13  2  0  0  0  0
 14 17  1  0  0  0  0
 17 15  1  6  0  0  0
 17 16  1  0  0  0  0
 18 14  1  0  0  0  0
 19 21  1  0  0  0  0
 19 18  1  0  0  0  0
 20 19  2  0  0  0  0
 23 22  1  0  0  0  0
 23 24  1  0  0  0  0
 24 25  2  0  0  0  0
 24 26  1  0  0  0  0
 27 26  1  0  0  0  0
 28 27  1  0  0  0  0
 29 30  1  0  0  0  0
 30 28  1  0  0  0  0
M  END
>  <MODEL>
8

>  <REMARK>
 VINA RESULT:      -5.7      2.457      5.534
  Name = 
  12 active torsions:
  status: ('A' for Active; 'I' for Inactive)
    1  A    between atoms: C_2  and  O_19
    2  A    between atoms: C_3  and  C_11
    3  A    between atoms: C_3  and  S_15
    4  A    between atoms: C_6  and  N_8
    5  A    between atoms: C_10  and  O_19
    6  A    between atoms: C_10  and  C_26
    7  A    between atoms: C_13  and  C_14
    8  A    between atoms: C_13  and  C_22
    9  A    between atoms: C_14  and  S_15
   10  A    between atoms: C_18  and  C_22
   11  A    between atoms: C_18  and  O_28
   12  A    between atoms: C_25  and  C_30
                            x       y       z     vdW  Elec       q    Type
                         _______ _______ _______ _____ _____    ______ ____

>  <TORSDO>
F 12

$$$$
=
 OpenBabel11062419543D

 30 31  0  0  1  0  0  0  0  0999 V2000
  188.8850  177.9170  142.1420 C   0  0  0  0  0  2  0  0  0  0  0  0
  190.4060  176.6150  143.6640 C   0  0  0  0  0  0  0  0  0  0  0  0
  188.2100  175.6820  143.0380 C   0  0  1  0  0  3  0  0  0  0  0  0
  190.0680  177.9660  143.1020 C   0  0  0  0  0  2  0  0  0  0  0  0
  189.5270  175.6500  143.6850 N   0  0  0  0  0  0  0  0  0  0  0  0
  187.7320  177.1140  142.7450 C   0  0  1  0  0  3  0  0  0  0  0  0
  186.0960  178.8460  143.6090 C   0  0  0  0  0  2  0  0  0  0  0  0
  186.5540  176.7570  144.9400 C   0  0  0  0  0  3  0  0  0  0  0  0
  185.4270  179.3750  144.8710 C   0  0  0  0  0  2  0  0  0  0  0  0
  185.4540  176.9880  145.6730 C   0  0  0  0  0  3  0  0  0  0  0  0
  184.6390  178.2480  145.5340 C   0  0  0  0  0  2  0  0  0  0  0  0
  187.1340  177.7840  143.9910 C   0  0  1  0  0  3  0  0  0  0  0  0
  191.6770  176.4720  144.3170 N   0  0  0  0  0  0  0  0  0  0  0  0
  192.8110  176.0680  143.8130 C   0  0  0  0  0  0  0  0  0  0  0  0
  192.9050  174.3280  142.2060 O   0  0  0  0  0  1  0  0  0  0  0  0
  194.2160  176.2170  141.8570 N   0  0  0  0  0  1  0  0  0  0  0  0
  192.9530  175.7130  142.3640 C   0  0  2  0  0  3  0  0  0  0  0  0
  193.9620  175.9920  144.6150 O   0  0  0  0  0  0  0  0  0  0  0  0
  194.2890  176.8630  145.6620 C   0  0  0  0  0  0  0  0  0  0  0  0
  193.8390  176.5780  146.9450 O   0  0  0  0  0  1  0  0  0  0  0  0
  194.9780  177.9000  145.4670 O   0  0  0  0  0  0  0  0  0  0  0  0
  188.2520  174.8400  141.7680 C   0  0  0  0  0  2  0  0  0  0  0  0
  188.3680  173.0600  142.1420 S   0  0  0  0  0  0  0  0  0  0  0  0
  189.0200  172.6170  140.5310 C   0  0  0  0  0  0  0  0  0  0  0  0
  190.1110  172.0770  140.4470 O   0  0  0  0  0  0  0  0  0  0  0  0
  188.1840  172.8410  139.3070 C   0  0  0  0  0  2  0  0  0  0  0  0
  189.0160  172.9480  138.0330 C   0  0  0  0  0  2  0  0  0  0  0  0
  188.8280  174.2900  137.3390 C   0  0  0  0  0  2  0  0  0  0  0  0
  187.1480  175.6330  136.8320 C   0  0  0  0  0  1  0  0  0  0  0  0
  187.7500  174.9720  137.9030 O   0  0  0  0  0  0  0  0  0  0  0  0
  1  4  1  0  0  0  0
  2  5  2  0  0  0  0
  2 13  1  0  0  0  0
  3 22  1  6  0  0  0
  3  5  1  0  0  0  0
  4  2  1  0  0  0  0
  6  1  1  1  0  0  0
  6  3  1  0  0  0  0
  6 12  1  0  0  0  0
  7  9  1  0  0  0  0
  8 10  2  0  0  0  0
  9 11  1  0  0  0  0
 11 10  1  0  0  0  0
 12  7  1  6  0  0  0
 12  8  1  0  0  0  0
 14 13  2  0  0  0  0
 14 18  1  0  0  0  0
 15 17  1  0  0  0  0
 17 16  1  1  0  0  0
 17 14  1  0  0  0  0
 18 19  1  0  0  0  0
 19 20  1  0  0  0  0
 21 19  2  0  0  0  0
 22 23  1  0  0  0  0
 24 23  1  0  0  0  0
 25 24  2  0  0  0  0
 26 24  1  0  0  0  0
 27 26  1  0  0  0  0
 28 30  1  0  0  0  0
 28 27  1  0  0  0  0
 29 30  1  0  0  0  0
M  END
>  <MODEL>
9

>  <REMARK>
 VINA RESULT:      -5.6      2.342      3.828
  Name = 
  12 active torsions:
  status: ('A' for Active; 'I' for Inactive)
    1  A    between atoms: C_2  and  O_19
    2  A    between atoms: C_3  and  C_11
    3  A    between atoms: C_3  and  S_15
    4  A    between atoms: C_6  and  N_8
    5  A    between atoms: C_10  and  O_19
    6  A    between atoms: C_10  and  C_26
    7  A    between atoms: C_13  and  C_14
    8  A    between atoms: C_13  and  C_22
    9  A    between atoms: C_14  and  S_15
   10  A    between atoms: C_18  and  C_22
   11  A    between atoms: C_18  and  O_28
   12  A    between atoms: C_25  and  C_30
                            x       y       z     vdW  Elec       q    Type
                         _______ _______ _______ _____ _____    ______ ____

>  <TORSDO>
F 12

$$$$
