=
 OpenBabel11062422203D

 41 45  0  0  1  0  0  0  0  0999 V2000
  190.0080  173.4360  142.6790 C   0  0  2  0  0  3  0  0  0  0  0  0
  192.1890  174.0410  141.2700 C   0  0  0  0  0  0  0  0  0  0  0  0
  189.5900  172.2840  141.9590 N   0  0  0  0  0  1  0  0  0  0  0  0
  191.6540  175.1150  144.4080 C   0  0  1  0  0  3  0  0  0  0  0  0
  190.1670  174.8800  144.8100 C   0  0  2  0  0  3  0  0  0  0  0  0
  191.0480  174.1420  142.2670 C   0  0  2  0  0  3  0  0  0  0  0  0
  191.7310  175.2950  142.8840 C   0  0  2  0  0  3  0  0  0  0  0  0
  189.5390  173.6470  144.1000 C   0  0  0  0  0  2  0  0  0  0  0  0
  192.4230  173.3740  140.2290 O   0  0  0  0  0  0  0  0  0  0  0  0
  192.9550  175.0030  142.1300 C   0  0  1  0  0  3  0  0  0  0  0  0
  196.1810  172.9340  144.0150 C   0  0  1  0  0  3  0  0  0  0  0  0
  197.1260  171.9260  144.2020 O   0  0  0  0  0  1  0  0  0  0  0  0
  193.9550  172.8950  142.9090 O   0  0  0  0  0  0  0  0  0  0  0  0
  196.5120  173.7070  142.7440 C   0  0  0  0  0  2  0  0  0  0  0  0
  194.0670  174.3030  142.9410 C   0  0  1  0  0  3  0  0  0  0  0  0
  194.7730  172.3230  143.9190 C   0  0  2  0  0  3  0  0  0  0  0  0
  195.4490  174.7690  142.4640 C   0  0  1  0  0  3  0  0  0  0  0  0
  194.0770  172.3140  145.2720 C   0  0  0  0  0  2  0  0  0  0  0  0
  194.3900  171.1360  145.9530 O   0  0  0  0  0  1  0  0  0  0  0  0
  195.7930  175.9550  143.1220 O   0  0  0  0  0  0  0  0  0  0  0  0
  196.0880  176.9010  141.2150 C   0  0  0  0  0  1  0  0  0  0  0  0
  196.7380  176.4950  142.3780 O   0  0  0  0  0  0  0  0  0  0  0  0
  192.2230  176.3390  145.1230 C   0  0  1  0  0  3  0  0  0  0  0  0
  193.7390  176.6760  147.0340 C   0  0  0  0  0  2  0  0  0  0  0  0
  192.4420  176.0260  146.5920 C   0  0  2  0  0  3  0  0  0  0  0  0
  193.6160  176.0600  145.6530 C   0  0  1  0  0  3  0  0  0  0  0  0
  189.3060  176.1200  144.5630 C   0  0  0  0  0  2  0  0  0  0  0  0
  188.5330  175.6060  146.7740 O   0  0  0  0  0  1  0  0  0  0  0  0
  188.1680  176.2140  145.5700 C   0  0  1  0  0  3  0  0  0  0  0  0
  187.7590  177.6710  145.7980 C   0  0  0  0  0  2  0  0  0  0  0  0
  185.4560  177.6900  146.7880 C   0  0  0  0  0  0  0  0  0  0  0  0
  184.0850  177.9040  146.6930 O   0  0  0  0  0  0  0  0  0  0  0  0
  184.5710  178.3160  144.1350 O   0  0  0  0  0  0  0  0  0  0  0  0
  185.8130  178.2770  144.3570 C   0  0  0  0  0  0  0  0  0  0  0  0
  185.9400  177.3390  147.8960 O   0  0  0  0  0  1  0  0  0  0  0  0
  186.3160  177.8690  145.6440 N   0  0  0  0  0  0  0  0  0  0  0  0
  186.7150  178.6170  143.3440 O   0  0  0  0  0  0  0  0  0  0  0  0
  186.8760  177.7020  141.8980 P   0  0  0  0  0  0  0  0  0  0  0  0
  186.6630  176.0630  142.2560 O   0  0  0  0  0  1  0  0  0  0  0  0
  185.7010  178.1920  140.7840 O   0  0  0  0  0  0  0  0  0  0  0  0
  188.2500  177.9040  141.3070 O   0  0  0  0  0  1  0  0  0  0  0  0
  1  3  1  1  0  0  0
  1  8  1  0  0  0  0
  2 10  1  0  0  0  0
  4  5  1  0  0  0  0
  4 23  1  1  0  0  0
  5 27  1  6  0  0  0
  6  2  1  1  0  0  0
  6  1  1  0  0  0  0
  6  7  1  0  0  0  0
  7  4  1  0  0  0  0
  8  5  1  0  0  0  0
  9  2  2  0  0  0  0
 10  7  1  0  0  0  0
 10 15  1  0  0  0  0
 11 12  1  0  0  0  0
 13 15  1  0  0  0  0
 13 16  1  0  0  0  0
 14 11  1  0  0  0  0
 16 11  1  0  0  0  0
 16 18  1  0  0  0  0
 17 14  1  0  0  0  0
 17 15  1  0  0  0  0
 17 20  1  0  0  0  0
 18 19  1  0  0  0  0
 21 22  1  0  0  0  0
 22 20  1  0  0  0  0
 23 26  1  0  0  0  0
 23 25  1  0  0  0  0
 25 24  1  0  0  0  0
 26 25  1  0  0  0  0
 26 24  1  0  0  0  0
 27 29  1  0  0  0  0
 29 30  1  0  0  0  0
 29 28  1  0  0  0  0
 31 35  1  0  0  0  0
 32 31  2  0  0  0  0
 33 34  2  0  0  0  0
 34 36  1  0  0  0  0
 36 30  1  0  0  0  0
 36 31  1  0  0  0  0
 37 34  1  0  0  0  0
 38 39  1  0  0  0  0
 38 37  1  0  0  0  0
 40 38  2  0  0  0  0
 41 38  1  0  0  0  0
M  END
>  <MODEL>
1

>  <REMARK>
 VINA RESULT:      -6.9      0.000      0.000
  Name = 
  11 active torsions:
  status: ('A' for Active; 'I' for Inactive)
    1  A    between atoms: C_4  and  C_21
    2  A    between atoms: C_13  and  O_18
    3  A    between atoms: O_14  and  C_23
    4  A    between atoms: O_14  and  O_24
    5  A    between atoms: C_15  and  C_37
    6  A    between atoms: O_18  and  P_31
    7  A    between atoms: C_20  and  C_25
    8  A    between atoms: C_26  and  C_39
    9  A    between atoms: N_29  and  C_38
   10  A    between atoms: C_38  and  C_40
   11  A    between atoms: C_39  and  C_40
                            x       y       z     vdW  Elec       q    Type
                         _______ _______ _______ _____ _____    ______ ____

>  <TORSDO>
F 11

$$$$
=
 OpenBabel11062422203D

 41 45  0  0  1  0  0  0  0  0999 V2000
  192.0410  175.8640  145.1500 C   0  0  2  0  0  3  0  0  0  0  0  0
  191.1700  177.8700  143.6260 C   0  0  0  0  0  0  0  0  0  0  0  0
  192.5630  176.6190  146.2360 N   0  0  0  0  0  1  0  0  0  0  0  0
  190.0640  174.7110  143.3390 C   0  0  1  0  0  3  0  0  0  0  0  0
  191.0020  173.7410  144.1190 C   0  0  2  0  0  3  0  0  0  0  0  0
  191.5610  176.4740  144.0800 C   0  0  2  0  0  3  0  0  0  0  0  0
  190.8820  175.9300  142.8880 C   0  0  2  0  0  3  0  0  0  0  0  0
  191.6720  174.4120  145.3510 C   0  0  0  0  0  2  0  0  0  0  0  0
  191.4320  179.0450  143.9900 O   0  0  0  0  0  0  0  0  0  0  0  0
  190.2540  177.2300  142.6240 C   0  0  1  0  0  3  0  0  0  0  0  0
  186.1820  177.9160  143.7170 C   0  0  1  0  0  3  0  0  0  0  0  0
  185.0960  178.6000  144.2610 O   0  0  0  0  0  1  0  0  0  0  0  0
  188.6020  177.9890  144.2820 O   0  0  0  0  0  0  0  0  0  0  0  0
  186.7050  178.6810  142.5060 C   0  0  0  0  0  2  0  0  0  0  0  0
  188.7710  177.3320  143.0420 C   0  0  1  0  0  3  0  0  0  0  0  0
  187.2890  177.7620  144.7730 C   0  0  2  0  0  3  0  0  0  0  0  0
  187.9480  178.0020  141.9340 C   0  0  1  0  0  3  0  0  0  0  0  0
  187.1810  176.4320  145.5030 C   0  0  0  0  0  2  0  0  0  0  0  0
  186.6410  176.6360  146.7730 O   0  0  0  0  0  1  0  0  0  0  0  0
  187.5600  177.0380  140.9960 O   0  0  0  0  0  0  0  0  0  0  0  0
  186.5900  177.0480  139.0780 C   0  0  0  0  0  1  0  0  0  0  0  0
  186.5280  177.5690  140.3690 O   0  0  0  0  0  0  0  0  0  0  0  0
  189.4370  174.0090  142.1360 C   0  0  1  0  0  3  0  0  0  0  0  0
  187.3900  172.6890  141.7770 C   0  0  0  0  0  2  0  0  0  0  0  0
  188.6650  172.7860  142.5930 C   0  0  2  0  0  3  0  0  0  0  0  0
  187.9230  174.0390  142.2180 C   0  0  1  0  0  3  0  0  0  0  0  0
  192.0710  173.1270  143.2130 C   0  0  0  0  0  2  0  0  0  0  0  0
  192.8160  171.0050  144.0460 O   0  0  0  0  0  1  0  0  0  0  0  0
  193.1150  172.3700  144.0210 C   0  0  1  0  0  3  0  0  0  0  0  0
  194.5190  172.6090  143.4610 C   0  0  0  0  0  2  0  0  0  0  0  0
  196.0390  173.0480  145.4060 C   0  0  0  0  0  0  0  0  0  0  0  0
  196.8110  173.9000  146.1880 O   0  0  0  0  0  1  0  0  0  0  0  0
  195.8170  175.8060  144.6610 O   0  0  0  0  0  0  0  0  0  0  0  0
  195.2960  174.9390  143.9060 C   0  0  0  0  0  0  0  0  0  0  0  0
  196.0080  171.8220  145.6940 O   0  0  0  0  0  0  0  0  0  0  0  0
  195.2870  173.5480  144.2820 N   0  0  0  0  0  0  0  0  0  0  0  0
  194.7040  175.3280  142.7000 O   0  0  0  0  0  0  0  0  0  0  0  0
  195.6170  175.6780  141.2870 P   0  0  0  0  0  0  0  0  0  0  0  0
  196.8620  174.5420  141.1400 O   0  0  0  0  0  1  0  0  0  0  0  0
  194.6130  175.5910  139.9280 O   0  0  0  0  0  0  0  0  0  0  0  0
  196.2180  177.0590  141.3860 O   0  0  0  0  0  1  0  0  0  0  0  0
  1  8  1  0  0  0  0
  1  3  1  1  0  0  0
  2  9  2  0  0  0  0
  4 23  1  6  0  0  0
  4  5  1  0  0  0  0
  5 27  1  6  0  0  0
  5  8  1  0  0  0  0
  6  2  1  1  0  0  0
  6  1  1  0  0  0  0
  7  4  1  0  0  0  0
  7  6  1  0  0  0  0
 10  7  1  0  0  0  0
 10 15  1  0  0  0  0
 10  2  1  0  0  0  0
 11 12  1  0  0  0  0
 11 16  1  0  0  0  0
 13 16  1  0  0  0  0
 14 11  1  0  0  0  0
 15 13  1  0  0  0  0
 16 18  1  0  0  0  0
 17 14  1  0  0  0  0
 17 15  1  0  0  0  0
 18 19  1  0  0  0  0
 20 17  1  0  0  0  0
 21 22  1  0  0  0  0
 22 20  1  0  0  0  0
 23 26  1  0  0  0  0
 23 25  1  0  0  0  0
 24 26  1  0  0  0  0
 24 25  1  0  0  0  0
 26 25  1  0  0  0  0
 27 29  1  0  0  0  0
 29 28  1  0  0  0  0
 30 29  1  0  0  0  0
 30 36  1  0  0  0  0
 31 35  2  0  0  0  0
 31 32  1  0  0  0  0
 34 36  1  0  0  0  0
 34 33  2  0  0  0  0
 36 31  1  0  0  0  0
 37 34  1  0  0  0  0
 38 41  1  0  0  0  0
 38 37  1  0  0  0  0
 39 38  1  0  0  0  0
 40 38  2  0  0  0  0
M  END
>  <MODEL>
2

>  <REMARK>
 VINA RESULT:      -6.7      2.821      8.353
  Name = 
  11 active torsions:
  status: ('A' for Active; 'I' for Inactive)
    1  A    between atoms: C_4  and  C_21
    2  A    between atoms: C_13  and  O_18
    3  A    between atoms: O_14  and  C_23
    4  A    between atoms: O_14  and  O_24
    5  A    between atoms: C_15  and  C_37
    6  A    between atoms: O_18  and  P_31
    7  A    between atoms: C_20  and  C_25
    8  A    between atoms: C_26  and  C_39
    9  A    between atoms: N_29  and  C_38
   10  A    between atoms: C_38  and  C_40
   11  A    between atoms: C_39  and  C_40
                            x       y       z     vdW  Elec       q    Type
                         _______ _______ _______ _____ _____    ______ ____

>  <TORSDO>
F 11

$$$$
=
 OpenBabel11062422203D

 41 45  0  0  1  0  0  0  0  0999 V2000
  190.5330  177.1540  144.0000 C   0  0  2  0  0  3  0  0  0  0  0  0
  191.7000  175.7230  145.9230 C   0  0  0  0  0  0  0  0  0  0  0  0
  190.8190  178.4590  144.4880 N   0  0  0  0  0  1  0  0  0  0  0  0
  191.0100  174.5080  142.8680 C   0  0  1  0  0  3  0  0  0  0  0  0
  190.0380  175.4650  142.1160 C   0  0  2  0  0  3  0  0  0  0  0  0
  190.8660  176.0870  144.7070 C   0  0  2  0  0  3  0  0  0  0  0  0
  190.7740  174.6520  144.3790 C   0  0  2  0  0  3  0  0  0  0  0  0
  190.2100  176.9510  142.5380 C   0  0  0  0  0  2  0  0  0  0  0  0
  192.1630  176.3370  146.9180 O   0  0  0  0  0  0  0  0  0  0  0  0
  191.8190  174.3370  145.3600 C   0  0  1  0  0  3  0  0  0  0  0  0
  195.8370  173.6810  144.0680 C   0  0  1  0  0  3  0  0  0  0  0  0
  197.2160  173.8740  144.0130 O   0  0  0  0  0  1  0  0  0  0  0  0
  193.9950  175.2440  144.6550 O   0  0  0  0  0  0  0  0  0  0  0  0
  195.4580  173.1280  145.4380 C   0  0  0  0  0  2  0  0  0  0  0  0
  193.2160  174.0690  144.7590 C   0  0  1  0  0  3  0  0  0  0  0  0
  195.1090  175.0100  143.8070 C   0  0  2  0  0  3  0  0  0  0  0  0
  193.9420  172.9810  145.5600 C   0  0  1  0  0  3  0  0  0  0  0  0
  194.7430  175.1650  142.3380 C   0  0  0  0  0  2  0  0  0  0  0  0
  193.8400  176.2180  142.1870 O   0  0  0  0  0  1  0  0  0  0  0  0
  193.5590  171.7210  145.0880 O   0  0  0  0  0  0  0  0  0  0  0  0
  194.1310  169.6500  145.0670 C   0  0  0  0  0  1  0  0  0  0  0  0
  194.3550  170.8690  145.7030 O   0  0  0  0  0  0  0  0  0  0  0  0
  190.7970  173.0610  142.4260 C   0  0  1  0  0  3  0  0  0  0  0  0
  191.8660  171.5830  140.7720 C   0  0  0  0  0  2  0  0  0  0  0  0
  191.1530  172.9090  140.9590 C   0  0  2  0  0  3  0  0  0  0  0  0
  192.1090  172.4200  142.0130 C   0  0  1  0  0  3  0  0  0  0  0  0
  188.5770  175.0410  142.2820 C   0  0  0  0  0  2  0  0  0  0  0  0
  187.4190  176.2230  140.5460 O   0  0  0  0  0  1  0  0  0  0  0  0
  187.6270  176.1760  141.9270 C   0  0  1  0  0  3  0  0  0  0  0  0
  186.2990  176.0310  142.6730 C   0  0  0  0  0  2  0  0  0  0  0  0
  184.9080  178.1090  142.8480 C   0  0  0  0  0  0  0  0  0  0  0  0
  184.5050  179.2600  143.5170 O   0  0  0  0  0  1  0  0  0  0  0  0
  186.4170  178.6420  145.2240 O   0  0  0  0  0  0  0  0  0  0  0  0
  186.5870  177.5350  144.6440 C   0  0  0  0  0  0  0  0  0  0  0  0
  184.3570  177.8210  141.7520 O   0  0  0  0  0  0  0  0  0  0  0  0
  185.9330  177.2540  143.3920 N   0  0  0  0  0  0  0  0  0  0  0  0
  187.4310  176.5720  145.2080 O   0  0  0  0  0  0  0  0  0  0  0  0
  187.8070  176.5340  146.8850 P   0  0  0  0  0  0  0  0  0  0  0  0
  186.3820  176.7260  147.7740 O   0  0  0  0  0  1  0  0  0  0  0  0
  188.5170  175.0490  147.2730 O   0  0  0  0  0  1  0  0  0  0  0  0
  188.7580  177.6560  147.2280 O   0  0  0  0  0  0  0  0  0  0  0  0
  1  3  1  6  0  0  0
  1  6  1  0  0  0  0
  2  9  2  0  0  0  0
  4 23  1  6  0  0  0
  4  7  1  0  0  0  0
  5 27  1  1  0  0  0
  5  8  1  0  0  0  0
  5  4  1  0  0  0  0
  6  2  1  6  0  0  0
  7  6  1  0  0  0  0
  7 10  1  0  0  0  0
  8  1  1  0  0  0  0
 10  2  1  0  0  0  0
 11 14  1  0  0  0  0
 12 11  1  0  0  0  0
 13 15  1  0  0  0  0
 14 17  1  0  0  0  0
 15 10  1  0  0  0  0
 15 17  1  0  0  0  0
 16 11  1  0  0  0  0
 16 13  1  0  0  0  0
 18 16  1  0  0  0  0
 19 18  1  0  0  0  0
 20 17  1  0  0  0  0
 20 22  1  0  0  0  0
 21 22  1  0  0  0  0
 24 25  1  0  0  0  0
 24 26  1  0  0  0  0
 25 26  1  0  0  0  0
 25 23  1  0  0  0  0
 26 23  1  0  0  0  0
 28 29  1  0  0  0  0
 29 27  1  0  0  0  0
 29 30  1  0  0  0  0
 30 36  1  0  0  0  0
 31 36  1  0  0  0  0
 31 32  1  0  0  0  0
 34 37  1  0  0  0  0
 34 33  2  0  0  0  0
 35 31  2  0  0  0  0
 36 34  1  0  0  0  0
 37 38  1  0  0  0  0
 38 41  2  0  0  0  0
 38 40  1  0  0  0  0
 38 39  1  0  0  0  0
M  END
>  <MODEL>
3

>  <REMARK>
 VINA RESULT:      -6.6      2.163      4.737
  Name = 
  11 active torsions:
  status: ('A' for Active; 'I' for Inactive)
    1  A    between atoms: C_4  and  C_21
    2  A    between atoms: C_13  and  O_18
    3  A    between atoms: O_14  and  C_23
    4  A    between atoms: O_14  and  O_24
    5  A    between atoms: C_15  and  C_37
    6  A    between atoms: O_18  and  P_31
    7  A    between atoms: C_20  and  C_25
    8  A    between atoms: C_26  and  C_39
    9  A    between atoms: N_29  and  C_38
   10  A    between atoms: C_38  and  C_40
   11  A    between atoms: C_39  and  C_40
                            x       y       z     vdW  Elec       q    Type
                         _______ _______ _______ _____ _____    ______ ____

>  <TORSDO>
F 11

$$$$
=
 OpenBabel11062422203D

 41 45  0  0  1  0  0  0  0  0999 V2000
  193.4590  176.6040  145.5780 C   0  0  2  0  0  3  0  0  0  0  0  0
  194.8950  174.3660  145.7640 C   0  0  0  0  0  0  0  0  0  0  0  0
  194.5200  177.5400  145.4360 N   0  0  0  0  0  1  0  0  0  0  0  0
  191.6500  174.4180  144.8960 C   0  0  1  0  0  3  0  0  0  0  0  0
  191.0320  175.8120  145.2120 C   0  0  2  0  0  3  0  0  0  0  0  0
  193.7180  175.3250  145.7910 C   0  0  2  0  0  3  0  0  0  0  0  0
  192.8130  174.1620  145.8670 C   0  0  2  0  0  3  0  0  0  0  0  0
  192.0680  176.9670  145.1110 C   0  0  0  0  0  2  0  0  0  0  0  0
  196.1470  174.4710  145.8200 O   0  0  0  0  0  0  0  0  0  0  0  0
  193.9160  173.2530  145.5340 C   0  0  1  0  0  3  0  0  0  0  0  0
  194.3590  171.8300  141.5310 C   0  0  1  0  0  3  0  0  0  0  0  0
  194.9770  171.6420  140.2960 O   0  0  0  0  0  1  0  0  0  0  0  0
  194.5750  173.6610  143.2000 O   0  0  0  0  0  0  0  0  0  0  0  0
  195.1540  171.1020  142.6100 C   0  0  0  0  0  2  0  0  0  0  0  0
  193.9290  172.7560  144.0720 C   0  0  1  0  0  3  0  0  0  0  0  0
  194.2710  173.3320  141.8520 C   0  0  2  0  0  3  0  0  0  0  0  0
  194.5490  171.3550  143.9900 C   0  0  1  0  0  3  0  0  0  0  0  0
  192.9360  173.9170  141.4150 C   0  0  0  0  0  2  0  0  0  0  0  0
  192.8950  175.2770  141.7250 O   0  0  0  0  0  1  0  0  0  0  0  0
  193.5640  170.3950  144.2480 O   0  0  0  0  0  0  0  0  0  0  0  0
  194.5950  169.4970  145.9060 C   0  0  0  0  0  1  0  0  0  0  0  0
  194.2290  169.3040  144.5760 O   0  0  0  0  0  0  0  0  0  0  0  0
  190.5980  173.3170  145.0170 C   0  0  1  0  0  3  0  0  0  0  0  0
  189.3100  171.9730  143.4060 C   0  0  0  0  0  2  0  0  0  0  0  0
  189.6370  173.3870  143.8440 C   0  0  2  0  0  3  0  0  0  0  0  0
  190.7080  172.3310  143.8700 C   0  0  1  0  0  3  0  0  0  0  0  0
  190.3520  175.8390  146.5830 C   0  0  0  0  0  2  0  0  0  0  0  0
  188.1990  175.1410  147.3730 O   0  0  0  0  0  1  0  0  0  0  0  0
  188.8420  175.9710  146.4500 C   0  0  1  0  0  3  0  0  0  0  0  0
  188.4010  177.4250  146.6270 C   0  0  0  0  0  2  0  0  0  0  0  0
  185.9450  177.7730  146.9910 C   0  0  0  0  0  0  0  0  0  0  0  0
  184.6630  178.0370  146.5200 O   0  0  0  0  0  0  0  0  0  0  0  0
  185.7720  177.8870  144.1330 O   0  0  0  0  0  0  0  0  0  0  0  0
  186.9170  177.8270  144.6600 C   0  0  0  0  0  0  0  0  0  0  0  0
  186.1190  177.6320  148.2300 O   0  0  0  0  0  1  0  0  0  0  0  0
  187.0620  177.6650  146.0850 N   0  0  0  0  0  0  0  0  0  0  0  0
  188.0610  177.9010  143.8580 O   0  0  0  0  0  0  0  0  0  0  0  0
  188.2290  177.0140  142.3960 P   0  0  0  0  0  0  0  0  0  0  0  0
  189.8500  176.5730  142.2020 O   0  0  0  0  0  1  0  0  0  0  0  0
  187.2710  175.6220  142.4640 O   0  0  0  0  0  1  0  0  0  0  0  0
  187.8060  177.8650  141.2230 O   0  0  0  0  0  0  0  0  0  0  0  0
  1  3  1  6  0  0  0
  1  6  1  0  0  0  0
  2  9  2  0  0  0  0
  4 23  1  1  0  0  0
  4  5  1  0  0  0  0
  4  7  1  0  0  0  0
  5 27  1  1  0  0  0
  6  2  1  6  0  0  0
  6  7  1  0  0  0  0
  8  5  1  0  0  0  0
  8  1  1  0  0  0  0
 10  2  1  0  0  0  0
 10  7  1  0  0  0  0
 11 16  1  0  0  0  0
 11 14  1  0  0  0  0
 12 11  1  0  0  0  0
 13 15  1  0  0  0  0
 14 17  1  0  0  0  0
 15 10  1  0  0  0  0
 16 13  1  0  0  0  0
 17 15  1  0  0  0  0
 17 20  1  0  0  0  0
 18 19  1  0  0  0  0
 18 16  1  0  0  0  0
 20 22  1  0  0  0  0
 22 21  1  0  0  0  0
 24 25  1  0  0  0  0
 24 26  1  0  0  0  0
 25 26  1  0  0  0  0
 25 23  1  0  0  0  0
 26 23  1  0  0  0  0
 29 27  1  0  0  0  0
 29 30  1  0  0  0  0
 29 28  1  0  0  0  0
 31 35  1  0  0  0  0
 32 31  2  0  0  0  0
 33 34  2  0  0  0  0
 34 36  1  0  0  0  0
 36 30  1  0  0  0  0
 36 31  1  0  0  0  0
 37 34  1  0  0  0  0
 38 40  1  0  0  0  0
 38 37  1  0  0  0  0
 39 38  1  0  0  0  0
 41 38  2  0  0  0  0
M  END
>  <MODEL>
4

>  <REMARK>
 VINA RESULT:      -6.6      2.047      4.108
  Name = 
  11 active torsions:
  status: ('A' for Active; 'I' for Inactive)
    1  A    between atoms: C_4  and  C_21
    2  A    between atoms: C_13  and  O_18
    3  A    between atoms: O_14  and  C_23
    4  A    between atoms: O_14  and  O_24
    5  A    between atoms: C_15  and  C_37
    6  A    between atoms: O_18  and  P_31
    7  A    between atoms: C_20  and  C_25
    8  A    between atoms: C_26  and  C_39
    9  A    between atoms: N_29  and  C_38
   10  A    between atoms: C_38  and  C_40
   11  A    between atoms: C_39  and  C_40
                            x       y       z     vdW  Elec       q    Type
                         _______ _______ _______ _____ _____    ______ ____

>  <TORSDO>
F 11

$$$$
=
 OpenBabel11062422203D

 41 45  0  0  1  0  0  0  0  0999 V2000
  192.7190  176.2590  144.5680 C   0  0  2  0  0  3  0  0  0  0  0  0
  191.2510  178.2580  143.5920 C   0  0  0  0  0  0  0  0  0  0  0  0
  193.4100  176.9680  145.5900 N   0  0  0  0  0  1  0  0  0  0  0  0
  190.4950  175.0150  143.1470 C   0  0  1  0  0  3  0  0  0  0  0  0
  191.7100  174.1220  143.5350 C   0  0  2  0  0  3  0  0  0  0  0  0
  191.9090  176.8980  143.7410 C   0  0  2  0  0  3  0  0  0  0  0  0
  191.0160  176.3850  142.6840 C   0  0  2  0  0  3  0  0  0  0  0  0
  192.5910  174.7550  144.6490 C   0  0  0  0  0  2  0  0  0  0  0  0
  191.4550  179.4150  144.0410 O   0  0  0  0  0  0  0  0  0  0  0  0
  190.1900  177.5950  142.7630 C   0  0  1  0  0  3  0  0  0  0  0  0
  186.4880  177.5430  144.8920 C   0  0  1  0  0  3  0  0  0  0  0  0
  185.5060  177.9940  145.7740 O   0  0  0  0  0  1  0  0  0  0  0  0
  188.9460  177.9150  144.8610 O   0  0  0  0  0  0  0  0  0  0  0  0
  186.5870  178.5040  143.7120 C   0  0  0  0  0  2  0  0  0  0  0  0
  188.8640  177.4290  143.5360 C   0  0  1  0  0  3  0  0  0  0  0  0
  187.8410  177.4430  145.6170 C   0  0  2  0  0  3  0  0  0  0  0  0
  187.7100  178.0840  142.7660 C   0  0  1  0  0  3  0  0  0  0  0  0
  188.0810  176.0400  146.1540 C   0  0  0  0  0  2  0  0  0  0  0  0
  189.4300  175.8850  146.4760 O   0  0  0  0  0  1  0  0  0  0  0  0
  187.2090  177.1800  141.8220 O   0  0  0  0  0  0  0  0  0  0  0  0
  186.3090  177.5400  139.9050 C   0  0  0  0  0  1  0  0  0  0  0  0
  186.1850  177.8000  141.2680 O   0  0  0  0  0  0  0  0  0  0  0  0
  189.6670  174.3560  142.0450 C   0  0  1  0  0  3  0  0  0  0  0  0
  187.7040  172.8700  142.0130 C   0  0  0  0  0  2  0  0  0  0  0  0
  189.1200  173.0270  142.5330 C   0  0  2  0  0  3  0  0  0  0  0  0
  188.2140  174.2250  142.4620 C   0  0  1  0  0  3  0  0  0  0  0  0
  192.5750  173.7740  142.3220 C   0  0  0  0  0  2  0  0  0  0  0  0
  193.7810  171.7270  142.6490 O   0  0  0  0  0  1  0  0  0  0  0  0
  193.8820  173.1180  142.7420 C   0  0  1  0  0  3  0  0  0  0  0  0
  195.0500  173.6360  141.9000 C   0  0  0  0  0  2  0  0  0  0  0  0
  195.6890  175.9870  142.4890 C   0  0  0  0  0  0  0  0  0  0  0  0
  196.4470  176.9060  143.2070 O   0  0  0  0  0  1  0  0  0  0  0  0
  197.7350  174.7830  144.0940 O   0  0  0  0  0  0  0  0  0  0  0  0
  196.8860  174.0290  143.5440 C   0  0  0  0  0  0  0  0  0  0  0  0
  194.8070  176.4140  141.6970 O   0  0  0  0  0  0  0  0  0  0  0  0
  195.8970  174.5680  142.6460 N   0  0  0  0  0  0  0  0  0  0  0  0
  196.9090  172.6530  143.7930 O   0  0  0  0  0  0  0  0  0  0  0  0
  196.7120  171.9890  145.3660 P   0  0  0  0  0  0  0  0  0  0  0  0
  197.1910  173.1360  146.5120 O   0  0  0  0  0  1  0  0  0  0  0  0
  195.0860  171.5910  145.6120 O   0  0  0  0  0  1  0  0  0  0  0  0
  197.5650  170.7530  145.5170 O   0  0  0  0  0  0  0  0  0  0  0  0
  1  8  1  0  0  0  0
  1  3  1  1  0  0  0
  2  9  2  0  0  0  0
  4 23  1  6  0  0  0
  4  5  1  0  0  0  0
  5 27  1  6  0  0  0
  5  8  1  0  0  0  0
  6  2  1  1  0  0  0
  6  1  1  0  0  0  0
  7 10  1  0  0  0  0
  7  4  1  0  0  0  0
  7  6  1  0  0  0  0
 10 15  1  0  0  0  0
 10  2  1  0  0  0  0
 11 16  1  0  0  0  0
 11 12  1  0  0  0  0
 13 16  1  0  0  0  0
 14 11  1  0  0  0  0
 15 13  1  0  0  0  0
 16 18  1  0  0  0  0
 17 15  1  0  0  0  0
 17 14  1  0  0  0  0
 18 19  1  0  0  0  0
 20 17  1  0  0  0  0
 21 22  1  0  0  0  0
 22 20  1  0  0  0  0
 23 26  1  0  0  0  0
 23 25  1  0  0  0  0
 24 26  1  0  0  0  0
 24 25  1  0  0  0  0
 26 25  1  0  0  0  0
 27 29  1  0  0  0  0
 28 29  1  0  0  0  0
 30 36  1  0  0  0  0
 30 29  1  0  0  0  0
 31 36  1  0  0  0  0
 31 32  1  0  0  0  0
 34 37  1  0  0  0  0
 34 33  2  0  0  0  0
 35 31  2  0  0  0  0
 36 34  1  0  0  0  0
 37 38  1  0  0  0  0
 38 41  2  0  0  0  0
 38 40  1  0  0  0  0
 38 39  1  0  0  0  0
M  END
>  <MODEL>
5

>  <REMARK>
 VINA RESULT:      -6.5      2.996      8.832
  Name = 
  11 active torsions:
  status: ('A' for Active; 'I' for Inactive)
    1  A    between atoms: C_4  and  C_21
    2  A    between atoms: C_13  and  O_18
    3  A    between atoms: O_14  and  C_23
    4  A    between atoms: O_14  and  O_24
    5  A    between atoms: C_15  and  C_37
    6  A    between atoms: O_18  and  P_31
    7  A    between atoms: C_20  and  C_25
    8  A    between atoms: C_26  and  C_39
    9  A    between atoms: N_29  and  C_38
   10  A    between atoms: C_38  and  C_40
   11  A    between atoms: C_39  and  C_40
                            x       y       z     vdW  Elec       q    Type
                         _______ _______ _______ _____ _____    ______ ____

>  <TORSDO>
F 11

$$$$
=
 OpenBabel11062422203D

 41 45  0  0  1  0  0  0  0  0999 V2000
  193.5730  176.4640  144.6910 C   0  0  2  0  0  3  0  0  0  0  0  0
  191.5640  177.8860  143.6670 C   0  0  0  0  0  0  0  0  0  0  0  0
  194.1990  177.4830  145.4590 N   0  0  0  0  0  1  0  0  0  0  0  0
  191.5440  174.5330  143.8710 C   0  0  1  0  0  3  0  0  0  0  0  0
  192.9760  174.0060  144.1890 C   0  0  2  0  0  3  0  0  0  0  0  0
  192.5380  176.7480  143.9180 C   0  0  2  0  0  3  0  0  0  0  0  0
  191.6660  175.8670  143.1180 C   0  0  2  0  0  3  0  0  0  0  0  0
  193.8140  175.0110  145.0280 C   0  0  0  0  0  2  0  0  0  0  0  0
  191.5440  179.1240  143.8880 O   0  0  0  0  0  0  0  0  0  0  0  0
  190.5940  176.8690  143.1400 C   0  0  1  0  0  3  0  0  0  0  0  0
  187.3680  176.4700  145.9110 C   0  0  1  0  0  3  0  0  0  0  0  0
  186.5360  176.8220  146.9730 O   0  0  0  0  0  1  0  0  0  0  0  0
  189.7400  177.0470  145.4410 O   0  0  0  0  0  0  0  0  0  0  0  0
  187.1700  177.4560  144.7660 C   0  0  0  0  0  2  0  0  0  0  0  0
  189.4520  176.5790  144.1390 C   0  0  1  0  0  3  0  0  0  0  0  0
  188.8360  176.4710  146.3710 C   0  0  2  0  0  3  0  0  0  0  0  0
  188.1280  177.1480  143.6160 C   0  0  1  0  0  3  0  0  0  0  0  0
  189.2820  175.0840  146.8090 C   0  0  0  0  0  2  0  0  0  0  0  0
  190.5900  175.1430  147.2930 O   0  0  0  0  0  1  0  0  0  0  0  0
  187.5320  176.2230  142.7510 O   0  0  0  0  0  0  0  0  0  0  0  0
  187.1440  176.9570  140.7700 C   0  0  0  0  0  1  0  0  0  0  0  0
  186.6420  176.9160  142.0690 O   0  0  0  0  0  0  0  0  0  0  0  0
  190.7640  173.5160  143.0390 C   0  0  1  0  0  3  0  0  0  0  0  0
  188.9540  171.9160  143.5170 C   0  0  0  0  0  2  0  0  0  0  0  0
  190.3580  172.3390  143.9070 C   0  0  2  0  0  3  0  0  0  0  0  0
  189.3390  173.3830  143.5410 C   0  0  1  0  0  3  0  0  0  0  0  0
  193.7380  173.6210  142.9200 C   0  0  0  0  0  2  0  0  0  0  0  0
  195.1120  171.6880  143.2790 O   0  0  0  0  0  1  0  0  0  0  0  0
  195.1250  173.0860  143.2470 C   0  0  1  0  0  3  0  0  0  0  0  0
  196.1600  173.5970  142.2430 C   0  0  0  0  0  2  0  0  0  0  0  0
  196.9770  175.6470  143.4340 C   0  0  0  0  0  0  0  0  0  0  0  0
  197.1740  177.0210  143.5110 O   0  0  0  0  0  0  0  0  0  0  0  0
  195.7970  177.0970  141.2630 O   0  0  0  0  0  0  0  0  0  0  0  0
  195.8240  175.8380  141.1950 C   0  0  0  0  0  0  0  0  0  0  0  0
  197.3940  174.9210  144.3760 O   0  0  0  0  0  1  0  0  0  0  0  0
  196.3120  175.0530  142.3010 N   0  0  0  0  0  0  0  0  0  0  0  0
  195.3630  175.1900  140.0450 O   0  0  0  0  0  0  0  0  0  0  0  0
  196.3710  174.8730  138.6890 P   0  0  0  0  0  0  0  0  0  0  0  0
  196.7430  173.2230  138.6530 O   0  0  0  0  0  1  0  0  0  0  0  0
  195.5580  175.2970  137.2670 O   0  0  0  0  0  0  0  0  0  0  0  0
  197.6510  175.6650  138.7990 O   0  0  0  0  0  1  0  0  0  0  0  0
  1  8  1  0  0  0  0
  1  3  1  1  0  0  0
  2  9  2  0  0  0  0
  4 23  1  6  0  0  0
  4  5  1  0  0  0  0
  5 27  1  6  0  0  0
  5  8  1  0  0  0  0
  6  2  1  1  0  0  0
  6  1  1  0  0  0  0
  7 10  1  0  0  0  0
  7  4  1  0  0  0  0
  7  6  1  0  0  0  0
 10  2  1  0  0  0  0
 10 15  1  0  0  0  0
 11 16  1  0  0  0  0
 11 12  1  0  0  0  0
 13 16  1  0  0  0  0
 14 11  1  0  0  0  0
 15 13  1  0  0  0  0
 16 18  1  0  0  0  0
 17 15  1  0  0  0  0
 17 14  1  0  0  0  0
 18 19  1  0  0  0  0
 20 17  1  0  0  0  0
 21 22  1  0  0  0  0
 22 20  1  0  0  0  0
 23 26  1  0  0  0  0
 23 25  1  0  0  0  0
 24 26  1  0  0  0  0
 24 25  1  0  0  0  0
 26 25  1  0  0  0  0
 27 29  1  0  0  0  0
 29 28  1  0  0  0  0
 30 36  1  0  0  0  0
 30 29  1  0  0  0  0
 31 32  2  0  0  0  0
 31 35  1  0  0  0  0
 34 33  2  0  0  0  0
 34 36  1  0  0  0  0
 36 31  1  0  0  0  0
 37 34  1  0  0  0  0
 38 41  1  0  0  0  0
 38 37  1  0  0  0  0
 39 38  1  0  0  0  0
 40 38  2  0  0  0  0
M  END
>  <MODEL>
6

>  <REMARK>
 VINA RESULT:      -6.4      3.095      8.326
  Name = 
  11 active torsions:
  status: ('A' for Active; 'I' for Inactive)
    1  A    between atoms: C_4  and  C_21
    2  A    between atoms: C_13  and  O_18
    3  A    between atoms: O_14  and  C_23
    4  A    between atoms: O_14  and  O_24
    5  A    between atoms: C_15  and  C_37
    6  A    between atoms: O_18  and  P_31
    7  A    between atoms: C_20  and  C_25
    8  A    between atoms: C_26  and  C_39
    9  A    between atoms: N_29  and  C_38
   10  A    between atoms: C_38  and  C_40
   11  A    between atoms: C_39  and  C_40
                            x       y       z     vdW  Elec       q    Type
                         _______ _______ _______ _____ _____    ______ ____

>  <TORSDO>
F 11

$$$$
=
 OpenBabel11062422203D

 41 45  0  0  1  0  0  0  0  0999 V2000
  193.6930  176.4860  145.2910 C   0  0  2  0  0  3  0  0  0  0  0  0
  195.0190  174.2510  145.8840 C   0  0  0  0  0  0  0  0  0  0  0  0
  194.7920  177.3860  145.2200 N   0  0  0  0  0  1  0  0  0  0  0  0
  191.9330  174.2770  144.5560 C   0  0  1  0  0  3  0  0  0  0  0  0
  191.3190  175.7060  144.6530 C   0  0  2  0  0  3  0  0  0  0  0  0
  193.8800  175.2280  145.6540 C   0  0  2  0  0  3  0  0  0  0  0  0
  192.9380  174.0930  145.7040 C   0  0  2  0  0  3  0  0  0  0  0  0
  192.3940  176.8280  144.5980 C   0  0  0  0  0  2  0  0  0  0  0  0
  196.2530  174.3390  146.1100 O   0  0  0  0  0  0  0  0  0  0  0  0
  194.0480  173.1380  145.6170 C   0  0  1  0  0  3  0  0  0  0  0  0
  195.0080  171.3280  141.8690 C   0  0  1  0  0  3  0  0  0  0  0  0
  195.7930  170.9990  140.7650 O   0  0  0  0  0  1  0  0  0  0  0  0
  195.0740  173.2960  143.3860 O   0  0  0  0  0  0  0  0  0  0  0  0
  195.5880  170.6710  143.1160 C   0  0  0  0  0  2  0  0  0  0  0  0
  194.2540  172.5060  144.2230 C   0  0  1  0  0  3  0  0  0  0  0  0
  194.9580  172.8560  142.0420 C   0  0  2  0  0  3  0  0  0  0  0  0
  194.7980  171.0780  144.3590 C   0  0  1  0  0  3  0  0  0  0  0  0
  193.7400  173.4540  141.3540 C   0  0  0  0  0  2  0  0  0  0  0  0
  192.9700  172.4340  140.7930 O   0  0  0  0  0  1  0  0  0  0  0  0
  193.7330  170.1900  144.5430 O   0  0  0  0  0  0  0  0  0  0  0  0
  194.5900  169.2810  146.2910 C   0  0  0  0  0  1  0  0  0  0  0  0
  194.2920  169.0660  144.9470 O   0  0  0  0  0  0  0  0  0  0  0  0
  190.8410  173.2110  144.6240 C   0  0  1  0  0  3  0  0  0  0  0  0
  189.7040  171.7940  142.9620 C   0  0  0  0  0  2  0  0  0  0  0  0
  190.0220  173.2260  143.3460 C   0  0  2  0  0  3  0  0  0  0  0  0
  191.0510  172.1500  143.5600 C   0  0  1  0  0  3  0  0  0  0  0  0
  190.4530  175.8730  145.9030 C   0  0  0  0  0  2  0  0  0  0  0  0
  188.2290  176.3010  146.6910 O   0  0  0  0  0  1  0  0  0  0  0  0
  189.0230  176.2490  145.5410 C   0  0  1  0  0  3  0  0  0  0  0  0
  188.9810  177.5810  144.7900 C   0  0  0  0  0  2  0  0  0  0  0  0
  188.1620  176.9810  142.4980 C   0  0  0  0  0  0  0  0  0  0  0  0
  187.1730  176.9520  141.5200 O   0  0  0  0  0  0  0  0  0  0  0  0
  185.7860  178.4100  143.2250 O   0  0  0  0  0  0  0  0  0  0  0  0
  186.6690  178.2290  144.1080 C   0  0  0  0  0  0  0  0  0  0  0  0
  189.2740  176.4430  142.2520 O   0  0  0  0  0  1  0  0  0  0  0  0
  187.9260  177.6080  143.7750 N   0  0  0  0  0  0  0  0  0  0  0  0
  186.4380  178.6490  145.4220 O   0  0  0  0  0  0  0  0  0  0  0  0
  185.0770  178.1340  146.3370 P   0  0  0  0  0  0  0  0  0  0  0  0
  185.2790  178.6180  147.9450 O   0  0  0  0  0  1  0  0  0  0  0  0
  183.6730  178.8390  145.7090 O   0  0  0  0  0  0  0  0  0  0  0  0
  184.9570  176.6300  146.2850 O   0  0  0  0  0  1  0  0  0  0  0  0
  1  3  1  6  0  0  0
  1  6  1  0  0  0  0
  2  9  2  0  0  0  0
  4 23  1  1  0  0  0
  4  5  1  0  0  0  0
  4  7  1  0  0  0  0
  5 27  1  1  0  0  0
  6  7  1  0  0  0  0
  6  2  1  6  0  0  0
  8  5  1  0  0  0  0
  8  1  1  0  0  0  0
 10  7  1  0  0  0  0
 10  2  1  0  0  0  0
 11 16  1  0  0  0  0
 11 14  1  0  0  0  0
 12 11  1  0  0  0  0
 13 15  1  0  0  0  0
 14 17  1  0  0  0  0
 15 17  1  0  0  0  0
 15 10  1  0  0  0  0
 16 13  1  0  0  0  0
 17 20  1  0  0  0  0
 18 16  1  0  0  0  0
 19 18  1  0  0  0  0
 20 22  1  0  0  0  0
 22 21  1  0  0  0  0
 24 25  1  0  0  0  0
 24 26  1  0  0  0  0
 25 26  1  0  0  0  0
 25 23  1  0  0  0  0
 26 23  1  0  0  0  0
 29 27  1  0  0  0  0
 29 28  1  0  0  0  0
 30 29  1  0  0  0  0
 31 36  1  0  0  0  0
 32 31  2  0  0  0  0
 33 34  2  0  0  0  0
 34 37  1  0  0  0  0
 35 31  1  0  0  0  0
 36 34  1  0  0  0  0
 36 30  1  0  0  0  0
 37 38  1  0  0  0  0
 38 39  1  0  0  0  0
 40 38  2  0  0  0  0
 41 38  1  0  0  0  0
M  END
>  <MODEL>
7

>  <REMARK>
 VINA RESULT:      -6.3      2.250      4.740
  Name = 
  11 active torsions:
  status: ('A' for Active; 'I' for Inactive)
    1  A    between atoms: C_4  and  C_21
    2  A    between atoms: C_13  and  O_18
    3  A    between atoms: O_14  and  C_23
    4  A    between atoms: O_14  and  O_24
    5  A    between atoms: C_15  and  C_37
    6  A    between atoms: O_18  and  P_31
    7  A    between atoms: C_20  and  C_25
    8  A    between atoms: C_26  and  C_39
    9  A    between atoms: N_29  and  C_38
   10  A    between atoms: C_38  and  C_40
   11  A    between atoms: C_39  and  C_40
                            x       y       z     vdW  Elec       q    Type
                         _______ _______ _______ _____ _____    ______ ____

>  <TORSDO>
F 11

$$$$
=
 OpenBabel11062422203D

 41 45  0  0  1  0  0  0  0  0999 V2000
  190.2550  173.5710  141.4540 C   0  0  2  0  0  3  0  0  0  0  0  0
  192.7400  173.6130  140.4890 C   0  0  0  0  0  0  0  0  0  0  0  0
  189.7440  172.4740  140.7080 N   0  0  0  0  0  1  0  0  0  0  0  0
  191.8650  175.0150  143.4140 C   0  0  1  0  0  3  0  0  0  0  0  0
  190.3140  175.1160  143.5180 C   0  0  2  0  0  3  0  0  0  0  0  0
  191.4800  174.0190  141.2320 C   0  0  2  0  0  3  0  0  0  0  0  0
  192.2640  175.0560  141.9310 C   0  0  2  0  0  3  0  0  0  0  0  0
  189.5830  173.9840  142.7440 C   0  0  0  0  0  2  0  0  0  0  0  0
  193.0190  172.8330  139.5420 O   0  0  0  0  0  0  0  0  0  0  0  0
  193.5180  174.4660  141.4480 C   0  0  1  0  0  3  0  0  0  0  0  0
  195.8570  171.9860  144.0210 C   0  0  1  0  0  3  0  0  0  0  0  0
  196.5920  170.8650  144.4060 O   0  0  0  0  0  1  0  0  0  0  0  0
  194.0170  172.2400  142.3680 O   0  0  0  0  0  0  0  0  0  0  0  0
  196.6040  172.7260  142.9180 C   0  0  0  0  0  2  0  0  0  0  0  0
  194.2830  173.6220  142.4910 C   0  0  1  0  0  3  0  0  0  0  0  0
  194.4630  171.5580  143.5310 C   0  0  2  0  0  3  0  0  0  0  0  0
  195.7860  173.9150  142.4160 C   0  0  1  0  0  3  0  0  0  0  0  0
  193.4360  171.6210  144.6520 C   0  0  0  0  0  2  0  0  0  0  0  0
  193.9920  172.2560  145.7630 O   0  0  0  0  0  1  0  0  0  0  0  0
  196.0810  175.0410  143.1930 O   0  0  0  0  0  0  0  0  0  0  0  0
  197.1920  176.8800  143.1390 C   0  0  0  0  0  1  0  0  0  0  0  0
  196.5590  175.9280  142.3420 O   0  0  0  0  0  0  0  0  0  0  0  0
  192.5370  176.1520  144.1820 C   0  0  1  0  0  3  0  0  0  0  0  0
  193.4210  176.4100  146.4660 C   0  0  0  0  0  2  0  0  0  0  0  0
  192.1870  176.0590  145.6560 C   0  0  2  0  0  3  0  0  0  0  0  0
  193.5430  175.6130  145.1810 C   0  0  1  0  0  3  0  0  0  0  0  0
  189.7980  176.4810  143.0570 C   0  0  0  0  0  2  0  0  0  0  0  0
  188.4750  176.6010  145.0540 O   0  0  0  0  0  1  0  0  0  0  0  0
  188.4410  176.7970  143.6700 C   0  0  1  0  0  3  0  0  0  0  0  0
  188.0070  178.2240  143.3330 C   0  0  0  0  0  2  0  0  0  0  0  0
  186.2240  177.8630  141.6080 C   0  0  0  0  0  0  0  0  0  0  0  0
  184.8940  177.8770  141.2000 O   0  0  0  0  0  1  0  0  0  0  0  0
  184.4370  178.9670  143.5570 O   0  0  0  0  0  0  0  0  0  0  0  0
  185.6330  178.7500  143.8970 C   0  0  0  0  0  0  0  0  0  0  0  0
  187.1020  177.4630  140.7980 O   0  0  0  0  0  0  0  0  0  0  0  0
  186.6000  178.2920  142.9320 N   0  0  0  0  0  0  0  0  0  0  0  0
  186.0340  178.9700  145.2190 O   0  0  0  0  0  0  0  0  0  0  0  0
  185.4220  178.0570  146.5400 P   0  0  0  0  0  0  0  0  0  0  0  0
  185.2710  176.4400  146.0690 O   0  0  0  0  0  0  0  0  0  0  0  0
  186.4910  178.1660  147.8470 O   0  0  0  0  0  1  0  0  0  0  0  0
  184.0660  178.5810  146.9480 O   0  0  0  0  0  1  0  0  0  0  0  0
  1  3  1  1  0  0  0
  1  8  1  0  0  0  0
  2 10  1  0  0  0  0
  4  5  1  0  0  0  0
  4 23  1  1  0  0  0
  5 27  1  6  0  0  0
  6  2  1  1  0  0  0
  6  1  1  0  0  0  0
  6  7  1  0  0  0  0
  7  4  1  0  0  0  0
  8  5  1  0  0  0  0
  9  2  2  0  0  0  0
 10  7  1  0  0  0  0
 10 15  1  0  0  0  0
 11 12  1  0  0  0  0
 13 15  1  0  0  0  0
 13 16  1  0  0  0  0
 14 11  1  0  0  0  0
 16 11  1  0  0  0  0
 16 18  1  0  0  0  0
 17 15  1  0  0  0  0
 17 14  1  0  0  0  0
 17 20  1  0  0  0  0
 18 19  1  0  0  0  0
 22 21  1  0  0  0  0
 22 20  1  0  0  0  0
 23 26  1  0  0  0  0
 23 25  1  0  0  0  0
 25 24  1  0  0  0  0
 26 25  1  0  0  0  0
 26 24  1  0  0  0  0
 27 29  1  0  0  0  0
 29 28  1  0  0  0  0
 30 29  1  0  0  0  0
 31 36  1  0  0  0  0
 32 31  1  0  0  0  0
 33 34  2  0  0  0  0
 34 37  1  0  0  0  0
 35 31  2  0  0  0  0
 36 30  1  0  0  0  0
 36 34  1  0  0  0  0
 37 38  1  0  0  0  0
 38 41  1  0  0  0  0
 38 40  1  0  0  0  0
 39 38  2  0  0  0  0
M  END
>  <MODEL>
8

>  <REMARK>
 VINA RESULT:      -6.1      1.550      2.763
  Name = 
  11 active torsions:
  status: ('A' for Active; 'I' for Inactive)
    1  A    between atoms: C_4  and  C_21
    2  A    between atoms: C_13  and  O_18
    3  A    between atoms: O_14  and  C_23
    4  A    between atoms: O_14  and  O_24
    5  A    between atoms: C_15  and  C_37
    6  A    between atoms: O_18  and  P_31
    7  A    between atoms: C_20  and  C_25
    8  A    between atoms: C_26  and  C_39
    9  A    between atoms: N_29  and  C_38
   10  A    between atoms: C_38  and  C_40
   11  A    between atoms: C_39  and  C_40
                            x       y       z     vdW  Elec       q    Type
                         _______ _______ _______ _____ _____    ______ ____

>  <TORSDO>
F 11

$$$$
=
 OpenBabel11062422203D

 41 45  0  0  1  0  0  0  0  0999 V2000
  192.0290  176.0310  145.2370 C   0  0  2  0  0  3  0  0  0  0  0  0
  191.1630  178.0080  143.6730 C   0  0  0  0  0  0  0  0  0  0  0  0
  192.5190  176.8050  146.3250 N   0  0  0  0  0  1  0  0  0  0  0  0
  190.1040  174.8320  143.4000 C   0  0  1  0  0  3  0  0  0  0  0  0
  191.0380  173.8830  144.2090 C   0  0  2  0  0  3  0  0  0  0  0  0
  191.5620  176.6230  144.1510 C   0  0  2  0  0  3  0  0  0  0  0  0
  190.9150  176.0570  142.9510 C   0  0  2  0  0  3  0  0  0  0  0  0
  191.6750  174.5770  145.4470 C   0  0  0  0  0  2  0  0  0  0  0  0
  191.4020  179.1910  144.0290 O   0  0  0  0  0  0  0  0  0  0  0  0
  190.2750  177.3460  142.6610 C   0  0  1  0  0  3  0  0  0  0  0  0
  186.1660  177.9850  143.6360 C   0  0  1  0  0  3  0  0  0  0  0  0
  185.0500  178.6740  144.1090 O   0  0  0  0  0  1  0  0  0  0  0  0
  188.5730  178.1790  144.2290 O   0  0  0  0  0  0  0  0  0  0  0  0
  186.6860  178.6690  142.3770 C   0  0  0  0  0  2  0  0  0  0  0  0
  188.7820  177.4330  143.0480 C   0  0  1  0  0  3  0  0  0  0  0  0
  187.2600  177.9490  144.7180 C   0  0  2  0  0  3  0  0  0  0  0  0
  187.9590  177.9870  141.8780 C   0  0  1  0  0  3  0  0  0  0  0  0
  187.1790  176.6770  145.5480 C   0  0  0  0  0  2  0  0  0  0  0  0
  185.9500  176.6230  146.2060 O   0  0  0  0  0  1  0  0  0  0  0  0
  187.6170  176.9410  141.0130 O   0  0  0  0  0  0  0  0  0  0  0  0
  186.6980  177.1220  139.0790 C   0  0  0  0  0  1  0  0  0  0  0  0
  186.4920  177.3250  140.4420 O   0  0  0  0  0  0  0  0  0  0  0  0
  189.5110  174.1090  142.1920 C   0  0  1  0  0  3  0  0  0  0  0  0
  187.5300  172.6920  141.8270 C   0  0  0  0  0  2  0  0  0  0  0  0
  188.8000  172.8460  142.6420 C   0  0  2  0  0  3  0  0  0  0  0  0
  187.9970  174.0640  142.2760 C   0  0  1  0  0  3  0  0  0  0  0  0
  192.1330  173.2730  143.3320 C   0  0  0  0  0  2  0  0  0  0  0  0
  192.9390  171.1020  142.7110 O   0  0  0  0  0  1  0  0  0  0  0  0
  192.4950  171.8690  143.7920 C   0  0  1  0  0  3  0  0  0  0  0  0
  193.5500  171.9100  144.8990 C   0  0  0  0  0  2  0  0  0  0  0  0
  194.7590  169.7180  144.7640 C   0  0  0  0  0  0  0  0  0  0  0  0
  195.8630  168.9480  144.4110 O   0  0  0  0  0  0  0  0  0  0  0  0
  196.9650  171.2580  143.7770 O   0  0  0  0  0  0  0  0  0  0  0  0
  195.8620  171.8430  143.9580 C   0  0  0  0  0  0  0  0  0  0  0  0
  193.7600  169.1470  145.2770 O   0  0  0  0  0  1  0  0  0  0  0  0
  194.7480  171.1440  144.5480 N   0  0  0  0  0  0  0  0  0  0  0  0
  195.7160  173.1870  143.6010 O   0  0  0  0  0  0  0  0  0  0  0  0
  196.4570  174.4670  144.4770 P   0  0  0  0  0  0  0  0  0  0  0  0
  197.0660  173.8580  145.9320 O   0  0  0  0  0  1  0  0  0  0  0  0
  197.7240  175.1190  143.5640 O   0  0  0  0  0  0  0  0  0  0  0  0
  195.4420  175.5440  144.7780 O   0  0  0  0  0  1  0  0  0  0  0  0
  1  8  1  0  0  0  0
  1  3  1  1  0  0  0
  2  9  2  0  0  0  0
  4 23  1  6  0  0  0
  4  5  1  0  0  0  0
  5 27  1  6  0  0  0
  5  8  1  0  0  0  0
  6  2  1  1  0  0  0
  6  1  1  0  0  0  0
  7  4  1  0  0  0  0
  7  6  1  0  0  0  0
 10  7  1  0  0  0  0
 10 15  1  0  0  0  0
 10  2  1  0  0  0  0
 11 12  1  0  0  0  0
 11 16  1  0  0  0  0
 13 16  1  0  0  0  0
 14 11  1  0  0  0  0
 15 13  1  0  0  0  0
 16 18  1  0  0  0  0
 17 14  1  0  0  0  0
 17 15  1  0  0  0  0
 18 19  1  0  0  0  0
 20 17  1  0  0  0  0
 21 22  1  0  0  0  0
 22 20  1  0  0  0  0
 23 26  1  0  0  0  0
 23 25  1  0  0  0  0
 24 26  1  0  0  0  0
 24 25  1  0  0  0  0
 26 25  1  0  0  0  0
 27 29  1  0  0  0  0
 28 29  1  0  0  0  0
 29 30  1  0  0  0  0
 31 35  1  0  0  0  0
 32 31  2  0  0  0  0
 33 34  2  0  0  0  0
 34 36  1  0  0  0  0
 36 31  1  0  0  0  0
 36 30  1  0  0  0  0
 37 34  1  0  0  0  0
 37 38  1  0  0  0  0
 38 41  1  0  0  0  0
 38 39  1  0  0  0  0
 40 38  2  0  0  0  0
M  END
>  <MODEL>
9

>  <REMARK>
 VINA RESULT:      -5.7      2.947      8.879
  Name = 
  11 active torsions:
  status: ('A' for Active; 'I' for Inactive)
    1  A    between atoms: C_4  and  C_21
    2  A    between atoms: C_13  and  O_18
    3  A    between atoms: O_14  and  C_23
    4  A    between atoms: O_14  and  O_24
    5  A    between atoms: C_15  and  C_37
    6  A    between atoms: O_18  and  P_31
    7  A    between atoms: C_20  and  C_25
    8  A    between atoms: C_26  and  C_39
    9  A    between atoms: N_29  and  C_38
   10  A    between atoms: C_38  and  C_40
   11  A    between atoms: C_39  and  C_40
                            x       y       z     vdW  Elec       q    Type
                         _______ _______ _______ _____ _____    ______ ____

>  <TORSDO>
F 11

$$$$
