=
 OpenBabel11062422463D

 29 32  0  0  1  0  0  0  0  0999 V2000
  193.7340  174.7850  142.5880 C   0  0  0  0  0  2  0  0  0  0  0  0
  188.5130  174.5180  140.0680 C   0  0  0  0  0  3  0  0  0  0  0  0
  189.2120  173.6180  141.0410 C   0  0  0  0  0  2  0  0  0  0  0  0
  189.3020  176.4120  145.0460 C   0  0  2  0  0  3  0  0  0  0  0  0
  194.5120  174.9390  144.9760 C   0  0  2  0  0  3  0  0  0  0  0  0
  194.7940  175.3310  143.5240 C   0  0  0  0  0  2  0  0  0  0  0  0
  187.6480  176.2600  141.6290 C   0  0  0  0  0  0  0  0  0  0  0  0
  190.4910  177.3710  144.8880 C   0  0  0  0  0  2  0  0  0  0  0  0
  192.3990  175.4420  142.9130 C   0  0  2  0  0  3  0  0  0  0  0  0
  191.8760  176.7310  145.0600 C   0  0  1  0  0  3  0  0  0  0  0  0
  192.2310  176.6390  146.4190 O   0  0  0  0  0  0  0  0  0  0  0  0
  188.4290  175.9590  142.7510 C   0  0  0  0  0  3  0  0  0  0  0  0
  192.7260  175.3370  146.6380 C   0  0  0  0  0  2  0  0  0  0  0  0
  186.6240  178.0660  142.8930 C   0  0  0  0  0  3  0  0  0  0  0  0
  187.8470  175.6020  140.3610 N   0  0  0  0  0  0  0  0  0  0  0  0
  195.3370  173.7230  145.3480 C   0  0  0  0  0  1  0  0  0  0  0  0
  186.7320  177.3230  141.7040 C   0  0  0  0  0  0  0  0  0  0  0  0
  193.0290  174.6810  145.3120 C   0  0  1  0  0  3  0  0  0  0  0  0
  188.3300  176.6940  143.9310 C   0  0  0  0  0  0  0  0  0  0  0  0
  190.4170  174.2400  141.5990 C   0  0  0  0  0  0  0  0  0  0  0  0
  192.0350  175.3710  144.4080 C   0  0  2  0  0  3  0  0  0  0  0  0
  191.3430  174.7780  142.1520 C   0  0  0  0  0  0  0  0  0  0  0  0
  187.4280  177.7650  143.9930 C   0  0  0  0  0  3  0  0  0  0  0  0
  184.6640  178.2300  140.6870 C   0  0  0  0  0  1  0  0  0  0  0  0
  185.9490  177.6330  140.5860 O   0  0  0  0  0  0  0  0  0  0  0  0
  188.6250  176.5100  146.4310 C   0  0  2  0  0  3  0  0  0  0  0  0
  189.1110  177.6960  147.2490 C   0  0  0  0  0  1  0  0  0  0  0  0
  189.3780  174.0880  146.4310 C   0  0  0  0  0  1  0  0  0  0  0  0
  188.7740  175.2230  147.2460 C   0  0  0  0  0  2  0  0  0  0  0  0
  1  9  1  0  0  0  0
  1  6  1  0  0  0  0
  2 15  2  0  0  0  0
  2  3  1  0  0  0  0
  3 20  1  0  0  0  0
  4 26  1  1  0  0  0
  5 18  1  0  0  0  0
  5 16  1  6  0  0  0
  6  5  1  0  0  0  0
  7 17  2  0  0  0  0
  7 12  1  0  0  0  0
  8  4  1  0  0  0  0
  9 22  1  6  0  0  0
  9 21  1  0  0  0  0
 10  8  1  1  0  0  0
 10 11  1  0  0  0  0
 11 13  1  0  0  0  0
 12 19  2  0  0  0  0
 14 23  2  0  0  0  0
 15  7  1  0  0  0  0
 17 14  1  0  0  0  0
 18 13  1  1  0  0  0
 19 23  1  0  0  0  0
 19  4  1  0  0  0  0
 20 22  3  0  0  0  0
 21 10  1  0  0  0  0
 21 18  1  0  0  0  0
 25 24  1  0  0  0  0
 25 17  1  0  0  0  0
 26 29  1  0  0  0  0
 26 27  1  0  0  0  0
 28 29  1  0  0  0  0
M  END
>  <MODEL>
1

>  <REMARK>
 VINA RESULT:      -7.7      0.000      0.000
  Name = 
  3 active torsions:
  status: ('A' for Active; 'I' for Inactive)
    1  A    between atoms: C_4  and  C_16
    2  A    between atoms: C_16  and  C_17
    3  A    between atoms: O_21  and  C_22
                            x       y       z     vdW  Elec       q    Type
                         _______ _______ _______ _____ _____    ______ ____

>  <TORSDO>
F 3

$$$$
=
 OpenBabel11062422463D

 29 32  0  0  1  0  0  0  0  0999 V2000
  192.4090  175.9300  143.5420 C   0  0  0  0  0  2  0  0  0  0  0  0
  187.6510  175.7280  140.2250 C   0  0  0  0  0  3  0  0  0  0  0  0
  188.2580  174.7470  141.1820 C   0  0  0  0  0  2  0  0  0  0  0  0
  187.5610  177.0110  145.4540 C   0  0  2  0  0  3  0  0  0  0  0  0
  192.8110  175.8180  146.0230 C   0  0  2  0  0  3  0  0  0  0  0  0
  193.2790  176.4040  144.6900 C   0  0  0  0  0  2  0  0  0  0  0  0
  186.4470  177.2130  141.8260 C   0  0  0  0  0  0  0  0  0  0  0  0
  188.6910  178.0390  145.5970 C   0  0  0  0  0  2  0  0  0  0  0  0
  190.9990  176.4740  143.7300 C   0  0  2  0  0  3  0  0  0  0  0  0
  190.0760  177.4520  145.9060 C   0  0  1  0  0  3  0  0  0  0  0  0
  190.2310  177.2050  147.2840 O   0  0  0  0  0  0  0  0  0  0  0  0
  187.0720  176.8110  143.0130 C   0  0  0  0  0  3  0  0  0  0  0  0
  190.7750  175.9120  147.4210 C   0  0  0  0  0  2  0  0  0  0  0  0
  185.1250  178.7910  143.1200 C   0  0  0  0  0  3  0  0  0  0  0  0
  186.8760  176.7320  140.5360 N   0  0  0  0  0  0  0  0  0  0  0  0
  193.6530  174.6060  146.3730 C   0  0  0  0  0  1  0  0  0  0  0  0
  185.4600  178.2110  141.8830 C   0  0  0  0  0  0  0  0  0  0  0  0
  191.3160  175.4460  146.0900 C   0  0  1  0  0  3  0  0  0  0  0  0
  186.7480  177.3840  144.2420 C   0  0  0  0  0  0  0  0  0  0  0  0
  189.3210  175.3520  141.9900 C   0  0  0  0  0  0  0  0  0  0  0  0
  190.4230  176.1950  145.1310 C   0  0  2  0  0  3  0  0  0  0  0  0
  190.1150  175.8600  142.7410 C   0  0  0  0  0  0  0  0  0  0  0  0
  185.7760  178.3920  144.2880 C   0  0  0  0  0  3  0  0  0  0  0  0
  183.4810  178.3060  140.3970 C   0  0  0  0  0  1  0  0  0  0  0  0
  184.8320  178.6210  140.7010 O   0  0  0  0  0  0  0  0  0  0  0  0
  186.6800  176.8980  146.7170 C   0  0  2  0  0  3  0  0  0  0  0  0
  185.2240  176.5940  146.4030 C   0  0  0  0  0  1  0  0  0  0  0  0
  185.4620  178.9220  147.6430 C   0  0  0  0  0  1  0  0  0  0  0  0
  186.7690  178.1440  147.6040 C   0  0  0  0  0  2  0  0  0  0  0  0
  1  9  1  0  0  0  0
  1  6  1  0  0  0  0
  2 15  2  0  0  0  0
  2  3  1  0  0  0  0
  3 20  1  0  0  0  0
  4  8  1  0  0  0  0
  4 26  1  1  0  0  0
  5 18  1  0  0  0  0
  5 16  1  6  0  0  0
  6  5  1  0  0  0  0
  7 17  2  0  0  0  0
  7 12  1  0  0  0  0
  9 22  1  6  0  0  0
  9 21  1  0  0  0  0
 10  8  1  1  0  0  0
 10 11  1  0  0  0  0
 11 13  1  0  0  0  0
 12 19  2  0  0  0  0
 14 23  2  0  0  0  0
 15  7  1  0  0  0  0
 17 14  1  0  0  0  0
 18 13  1  1  0  0  0
 19 23  1  0  0  0  0
 19  4  1  0  0  0  0
 20 22  3  0  0  0  0
 21 10  1  0  0  0  0
 21 18  1  0  0  0  0
 24 25  1  0  0  0  0
 25 17  1  0  0  0  0
 26 29  1  0  0  0  0
 27 26  1  0  0  0  0
 29 28  1  0  0  0  0
M  END
>  <MODEL>
2

>  <REMARK>
 VINA RESULT:      -7.4      1.741      2.337
  Name = 
  3 active torsions:
  status: ('A' for Active; 'I' for Inactive)
    1  A    between atoms: C_4  and  C_16
    2  A    between atoms: C_16  and  C_17
    3  A    between atoms: O_21  and  C_22
                            x       y       z     vdW  Elec       q    Type
                         _______ _______ _______ _____ _____    ______ ____

>  <TORSDO>
F 3

$$$$
=
 OpenBabel11062422463D

 29 32  0  0  1  0  0  0  0  0999 V2000
  186.2870  178.7520  145.5190 C   0  0  0  0  0  2  0  0  0  0  0  0
  190.2360  175.1300  147.7470 C   0  0  0  0  0  3  0  0  0  0  0  0
  188.8270  174.9250  147.2800 C   0  0  0  0  0  2  0  0  0  0  0  0
  189.2990  175.6010  142.4660 C   0  0  2  0  0  3  0  0  0  0  0  0
  185.0630  178.8610  143.3240 C   0  0  2  0  0  3  0  0  0  0  0  0
  185.6770  179.6640  144.4720 C   0  0  0  0  0  2  0  0  0  0  0  0
  191.4350  175.0610  145.5610 C   0  0  0  0  0  0  0  0  0  0  0  0
  189.2880  177.1180  142.2310 C   0  0  0  0  0  2  0  0  0  0  0  0
  187.4590  178.0010  144.9020 C   0  0  2  0  0  3  0  0  0  0  0  0
  187.9200  177.7960  142.3940 C   0  0  1  0  0  3  0  0  0  0  0  0
  187.1520  177.6870  141.2190 O   0  0  0  0  0  0  0  0  0  0  0  0
  190.3400  175.2250  144.7030 C   0  0  0  0  0  3  0  0  0  0  0  0
  185.8570  177.2780  141.5990 C   0  0  0  0  0  2  0  0  0  0  0  0
  192.8830  174.9760  143.6110 C   0  0  0  0  0  3  0  0  0  0  0  0
  191.3030  175.1540  146.9950 N   0  0  0  0  0  0  0  0  0  0  0  0
  183.5680  178.7230  143.5380 C   0  0  0  0  0  1  0  0  0  0  0  0
  192.7190  174.9300  145.0070 C   0  0  0  0  0  0  0  0  0  0  0  0
  185.6820  177.4690  143.0880 C   0  0  1  0  0  3  0  0  0  0  0  0
  190.4960  175.2750  143.3190 C   0  0  0  0  0  0  0  0  0  0  0  0
  188.3150  176.0860  146.5450 C   0  0  0  0  0  0  0  0  0  0  0  0
  187.1030  177.3070  143.5740 C   0  0  2  0  0  3  0  0  0  0  0  0
  187.9200  176.9820  145.8420 C   0  0  0  0  0  0  0  0  0  0  0  0
  191.7820  175.1630  142.7740 C   0  0  0  0  0  3  0  0  0  0  0  0
  194.7760  175.7950  146.0820 C   0  0  0  0  0  1  0  0  0  0  0  0
  193.8190  174.7690  145.8570 O   0  0  0  0  0  0  0  0  0  0  0  0
  189.2950  174.7850  141.1550 C   0  0  2  0  0  3  0  0  0  0  0  0
  188.0860  175.0700  140.2790 C   0  0  0  0  0  1  0  0  0  0  0  0
  188.1700  172.7060  142.0760 C   0  0  0  0  0  1  0  0  0  0  0  0
  189.4100  173.2780  141.4050 C   0  0  0  0  0  2  0  0  0  0  0  0
  3  2  1  0  0  0  0
  4 26  1  6  0  0  0
  4 19  1  0  0  0  0
  5 16  1  1  0  0  0
  5  6  1  0  0  0  0
  6  1  1  0  0  0  0
  7 15  1  0  0  0  0
  8  4  1  0  0  0  0
  9  1  1  1  0  0  0
  9 22  1  0  0  0  0
 10  8  1  6  0  0  0
 10 21  1  0  0  0  0
 11 13  1  0  0  0  0
 11 10  1  0  0  0  0
 12  7  2  0  0  0  0
 14 17  2  0  0  0  0
 15  2  2  0  0  0  0
 17  7  1  0  0  0  0
 17 25  1  0  0  0  0
 18 13  1  6  0  0  0
 18  5  1  0  0  0  0
 18 21  1  0  0  0  0
 19 12  1  0  0  0  0
 20  3  1  0  0  0  0
 21  9  1  0  0  0  0
 22 20  3  0  0  0  0
 23 19  2  0  0  0  0
 23 14  1  0  0  0  0
 25 24  1  0  0  0  0
 26 29  1  0  0  0  0
 27 26  1  0  0  0  0
 29 28  1  0  0  0  0
M  END
>  <MODEL>
3

>  <REMARK>
 VINA RESULT:      -7.3      1.999      7.282
  Name = 
  3 active torsions:
  status: ('A' for Active; 'I' for Inactive)
    1  A    between atoms: C_4  and  C_16
    2  A    between atoms: C_16  and  C_17
    3  A    between atoms: O_21  and  C_22
                            x       y       z     vdW  Elec       q    Type
                         _______ _______ _______ _____ _____    ______ ____

>  <TORSDO>
F 3

$$$$
=
 OpenBabel11062422463D

 29 32  0  0  1  0  0  0  0  0999 V2000
  187.0090  178.4190  147.3630 C   0  0  0  0  0  2  0  0  0  0  0  0
  191.8680  175.2510  147.5640 C   0  0  0  0  0  3  0  0  0  0  0  0
  190.4170  174.8810  147.6230 C   0  0  0  0  0  2  0  0  0  0  0  0
  188.9660  175.9360  143.0810 C   0  0  2  0  0  3  0  0  0  0  0  0
  185.0440  178.5000  145.7940 C   0  0  2  0  0  3  0  0  0  0  0  0
  185.9570  179.3030  146.7220 C   0  0  0  0  0  2  0  0  0  0  0  0
  192.1550  175.4990  145.1000 C   0  0  0  0  0  0  0  0  0  0  0  0
  188.7060  177.4490  143.0420 C   0  0  0  0  0  2  0  0  0  0  0  0
  187.9350  177.8830  146.2780 C   0  0  2  0  0  3  0  0  0  0  0  0
  187.4370  177.9140  143.7700 C   0  0  1  0  0  3  0  0  0  0  0  0
  186.2990  177.7760  142.9520 O   0  0  0  0  0  0  0  0  0  0  0  0
  190.8080  175.5630  144.7250 C   0  0  0  0  0  3  0  0  0  0  0  0
  185.2940  177.1630  143.7290 C   0  0  0  0  0  2  0  0  0  0  0  0
  192.7620  175.7500  142.7590 C   0  0  0  0  0  3  0  0  0  0  0  0
  192.5640  175.4760  146.4830 N   0  0  0  0  0  0  0  0  0  0  0  0
  183.7640  178.1370  146.5220 C   0  0  0  0  0  1  0  0  0  0  0  0
  193.1420  175.5880  144.1040 C   0  0  0  0  0  0  0  0  0  0  0  0
  185.6730  177.2280  145.1900 C   0  0  1  0  0  3  0  0  0  0  0  0
  190.4240  175.7270  143.3950 C   0  0  0  0  0  0  0  0  0  0  0  0
  189.5460  176.0040  147.2640 C   0  0  0  0  0  0  0  0  0  0  0  0
  187.1810  177.2360  145.1020 C   0  0  2  0  0  3  0  0  0  0  0  0
  188.8220  176.8800  146.8620 C   0  0  0  0  0  0  0  0  0  0  0  0
  191.4140  175.8350  142.4090 C   0  0  0  0  0  3  0  0  0  0  0  0
  195.4970  176.3060  143.8350 C   0  0  0  0  0  1  0  0  0  0  0  0
  194.4920  175.5280  144.4690 O   0  0  0  0  0  0  0  0  0  0  0  0
  188.5560  175.2170  141.7770 C   0  0  2  0  0  3  0  0  0  0  0  0
  187.7820  176.1120  140.8220 C   0  0  0  0  0  1  0  0  0  0  0  0
  188.6590  172.7100  142.1500 C   0  0  0  0  0  1  0  0  0  0  0  0
  187.7620  173.9350  142.0430 C   0  0  0  0  0  2  0  0  0  0  0  0
  2  3  1  0  0  0  0
  4 26  1  6  0  0  0
  4 19  1  0  0  0  0
  5 16  1  1  0  0  0
  5  6  1  0  0  0  0
  6  1  1  0  0  0  0
  7 15  1  0  0  0  0
  8  4  1  0  0  0  0
  9 22  1  1  0  0  0
  9  1  1  0  0  0  0
 10  8  1  6  0  0  0
 10 21  1  0  0  0  0
 11 13  1  0  0  0  0
 11 10  1  0  0  0  0
 12  7  1  0  0  0  0
 14 17  1  0  0  0  0
 15  2  2  0  0  0  0
 17 25  1  0  0  0  0
 17  7  2  0  0  0  0
 18 13  1  6  0  0  0
 18  5  1  0  0  0  0
 19 12  2  0  0  0  0
 20  3  1  0  0  0  0
 21 18  1  0  0  0  0
 21  9  1  0  0  0  0
 22 20  3  0  0  0  0
 23 14  2  0  0  0  0
 23 19  1  0  0  0  0
 24 25  1  0  0  0  0
 26 29  1  0  0  0  0
 27 26  1  0  0  0  0
 29 28  1  0  0  0  0
M  END
>  <MODEL>
4

>  <REMARK>
 VINA RESULT:      -7.1      2.346      7.112
  Name = 
  3 active torsions:
  status: ('A' for Active; 'I' for Inactive)
    1  A    between atoms: C_4  and  C_16
    2  A    between atoms: C_16  and  C_17
    3  A    between atoms: O_21  and  C_22
                            x       y       z     vdW  Elec       q    Type
                         _______ _______ _______ _____ _____    ______ ____

>  <TORSDO>
F 3

$$$$
=
 OpenBabel11062422463D

 29 32  0  0  1  0  0  0  0  0999 V2000
  185.3920  177.7270  145.5880 C   0  0  0  0  0  2  0  0  0  0  0  0
  186.4680  177.0770  139.9220 C   0  0  0  0  0  3  0  0  0  0  0  0
  186.8630  178.1310  140.9110 C   0  0  0  0  0  2  0  0  0  0  0  0
  189.9490  175.6580  143.7770 C   0  0  2  0  0  3  0  0  0  0  0  0
  186.8470  177.8480  147.6370 C   0  0  2  0  0  3  0  0  0  0  0  0
  185.5000  177.4020  147.0650 C   0  0  0  0  0  2  0  0  0  0  0  0
  188.1850  175.3400  140.4270 C   0  0  0  0  0  0  0  0  0  0  0  0
  189.0880  174.8700  144.7740 C   0  0  0  0  0  2  0  0  0  0  0  0
  186.4250  176.9110  144.8230 C   0  0  2  0  0  3  0  0  0  0  0  0
  188.4250  175.7100  145.8750 C   0  0  1  0  0  3  0  0  0  0  0  0
  189.3100  175.9440  146.9440 O   0  0  0  0  0  0  0  0  0  0  0  0
  188.6340  175.8250  141.6620 C   0  0  0  0  0  3  0  0  0  0  0  0
  189.2320  177.3150  147.2630 C   0  0  0  0  0  2  0  0  0  0  0  0
  189.7560  173.4970  140.6410 C   0  0  0  0  0  3  0  0  0  0  0  0
  187.0660  175.9320  139.7350 N   0  0  0  0  0  0  0  0  0  0  0  0
  186.6930  179.1920  148.3220 C   0  0  0  0  0  1  0  0  0  0  0  0
  188.7570  174.1660  139.9100 C   0  0  0  0  0  0  0  0  0  0  0  0
  188.0040  177.9160  146.6200 C   0  0  1  0  0  3  0  0  0  0  0  0
  189.6200  175.1660  142.3930 C   0  0  0  0  0  0  0  0  0  0  0  0
  186.5790  177.7270  142.2910 C   0  0  0  0  0  0  0  0  0  0  0  0
  187.8460  177.0310  145.4060 C   0  0  2  0  0  3  0  0  0  0  0  0
  186.4590  177.3650  143.4350 C   0  0  0  0  0  0  0  0  0  0  0  0
  190.1730  173.9850  141.8800 C   0  0  0  0  0  3  0  0  0  0  0  0
  189.0710  173.7910  137.4820 C   0  0  0  0  0  1  0  0  0  0  0  0
  188.3130  173.6720  138.6780 O   0  0  0  0  0  0  0  0  0  0  0  0
  191.4620  175.5600  144.0720 C   0  0  2  0  0  3  0  0  0  0  0  0
  191.7980  174.5080  145.1180 C   0  0  0  0  0  1  0  0  0  0  0  0
  191.2050  178.0840  144.0450 C   0  0  0  0  0  1  0  0  0  0  0  0
  192.0660  176.9070  144.4800 C   0  0  0  0  0  2  0  0  0  0  0  0
  1  6  1  0  0  0  0
  2  3  1  0  0  0  0
  3 20  1  0  0  0  0
  4 26  1  1  0  0  0
  4  8  1  0  0  0  0
  5 16  1  6  0  0  0
  6  5  1  0  0  0  0
  7 12  1  0  0  0  0
  9 22  1  6  0  0  0
  9 21  1  0  0  0  0
  9  1  1  0  0  0  0
 10  8  1  6  0  0  0
 10 11  1  0  0  0  0
 11 13  1  0  0  0  0
 12 19  2  0  0  0  0
 14 23  2  0  0  0  0
 15  2  2  0  0  0  0
 15  7  1  0  0  0  0
 17  7  2  0  0  0  0
 17 14  1  0  0  0  0
 18 13  1  1  0  0  0
 18  5  1  0  0  0  0
 19  4  1  0  0  0  0
 20 22  3  0  0  0  0
 21 10  1  0  0  0  0
 21 18  1  0  0  0  0
 23 19  1  0  0  0  0
 24 25  1  0  0  0  0
 25 17  1  0  0  0  0
 26 29  1  0  0  0  0
 26 27  1  0  0  0  0
 28 29  1  0  0  0  0
M  END
>  <MODEL>
5

>  <REMARK>
 VINA RESULT:      -7.1      1.940      5.485
  Name = 
  3 active torsions:
  status: ('A' for Active; 'I' for Inactive)
    1  A    between atoms: C_4  and  C_16
    2  A    between atoms: C_16  and  C_17
    3  A    between atoms: O_21  and  C_22
                            x       y       z     vdW  Elec       q    Type
                         _______ _______ _______ _____ _____    ______ ____

>  <TORSDO>
F 3

$$$$
=
 OpenBabel11062422463D

 29 32  0  0  1  0  0  0  0  0999 V2000
  192.5860  175.1470  143.6150 C   0  0  0  0  0  2  0  0  0  0  0  0
  189.2930  173.1170  139.2880 C   0  0  0  0  0  3  0  0  0  0  0  0
  189.3680  172.7780  140.7460 C   0  0  0  0  0  2  0  0  0  0  0  0
  187.6160  176.8590  142.7780 C   0  0  2  0  0  3  0  0  0  0  0  0
  192.0860  176.3170  145.7850 C   0  0  2  0  0  3  0  0  0  0  0  0
  193.0720  176.1680  144.6250 C   0  0  0  0  0  2  0  0  0  0  0  0
  187.8670  175.1600  139.3890 C   0  0  0  0  0  0  0  0  0  0  0  0
  188.7780  177.8610  142.8250 C   0  0  0  0  0  2  0  0  0  0  0  0
  191.3040  175.6570  142.9700 C   0  0  2  0  0  3  0  0  0  0  0  0
  189.8580  177.5640  143.8750 C   0  0  1  0  0  3  0  0  0  0  0  0
  189.4880  178.0530  145.1430 O   0  0  0  0  0  0  0  0  0  0  0  0
  187.9710  175.4360  140.7580 C   0  0  0  0  0  3  0  0  0  0  0  0
  189.7360  177.0270  146.0780 C   0  0  0  0  0  2  0  0  0  0  0  0
  186.4520  177.1240  139.1560 C   0  0  0  0  0  3  0  0  0  0  0  0
  188.6300  174.1110  138.7600 N   0  0  0  0  0  0  0  0  0  0  0  0
  192.5500  175.4810  146.9620 C   0  0  0  0  0  1  0  0  0  0  0  0
  187.0940  176.0120  138.5810 C   0  0  0  0  0  0  0  0  0  0  0  0
  190.6200  175.9740  145.4530 C   0  0  1  0  0  3  0  0  0  0  0  0
  187.3410  176.5380  141.3330 C   0  0  0  0  0  0  0  0  0  0  0  0
  190.1700  173.7470  141.4980 C   0  0  0  0  0  0  0  0  0  0  0  0
  190.2440  176.1020  143.9960 C   0  0  2  0  0  3  0  0  0  0  0  0
  190.7280  174.5950  142.1480 C   0  0  0  0  0  0  0  0  0  0  0  0
  186.5880  177.3940  140.5180 C   0  0  0  0  0  3  0  0  0  0  0  0
  185.7920  175.9700  136.4750 C   0  0  0  0  0  1  0  0  0  0  0  0
  186.9860  175.7460  137.2120 O   0  0  0  0  0  0  0  0  0  0  0  0
  186.3490  177.3660  143.5000 C   0  0  2  0  0  3  0  0  0  0  0  0
  186.2880  178.8820  143.6020 C   0  0  0  0  0  1  0  0  0  0  0  0
  185.8590  177.7880  145.9540 C   0  0  0  0  0  1  0  0  0  0  0  0
  186.1820  176.7470  144.8910 C   0  0  0  0  0  2  0  0  0  0  0  0
  1  6  1  0  0  0  0
  2  3  1  0  0  0  0
  3 20  1  0  0  0  0
  4  8  1  0  0  0  0
  4 26  1  6  0  0  0
  5 16  1  1  0  0  0
  6  5  1  0  0  0  0
  7 12  1  0  0  0  0
  9 22  1  1  0  0  0
  9  1  1  0  0  0  0
  9 21  1  0  0  0  0
 10  8  1  6  0  0  0
 10 21  1  0  0  0  0
 10 11  1  0  0  0  0
 11 13  1  0  0  0  0
 12 19  2  0  0  0  0
 14 23  2  0  0  0  0
 15  2  2  0  0  0  0
 15  7  1  0  0  0  0
 17 14  1  0  0  0  0
 17  7  2  0  0  0  0
 18  5  1  0  0  0  0
 18 13  1  1  0  0  0
 19  4  1  0  0  0  0
 20 22  3  0  0  0  0
 21 18  1  0  0  0  0
 23 19  1  0  0  0  0
 24 25  1  0  0  0  0
 25 17  1  0  0  0  0
 26 27  1  0  0  0  0
 26 29  1  0  0  0  0
 29 28  1  0  0  0  0
M  END
>  <MODEL>
6

>  <REMARK>
 VINA RESULT:      -6.7      1.905      3.069
  Name = 
  3 active torsions:
  status: ('A' for Active; 'I' for Inactive)
    1  A    between atoms: C_4  and  C_16
    2  A    between atoms: C_16  and  C_17
    3  A    between atoms: O_21  and  C_22
                            x       y       z     vdW  Elec       q    Type
                         _______ _______ _______ _____ _____    ______ ____

>  <TORSDO>
F 3

$$$$
=
 OpenBabel11062422463D

 29 32  0  0  1  0  0  0  0  0999 V2000
  186.3200  176.0400  142.7630 C   0  0  0  0  0  2  0  0  0  0  0  0
  189.6930  172.2790  139.9060 C   0  0  0  0  0  3  0  0  0  0  0  0
  189.6590  173.7770  139.9470 C   0  0  0  0  0  2  0  0  0  0  0  0
  191.1490  174.6500  144.5160 C   0  0  2  0  0  3  0  0  0  0  0  0
  186.7630  177.8250  144.4790 C   0  0  2  0  0  3  0  0  0  0  0  0
  185.7760  176.7700  143.9760 C   0  0  0  0  0  2  0  0  0  0  0  0
  190.9760  171.8140  141.9940 C   0  0  0  0  0  0  0  0  0  0  0  0
  189.9210  174.4740  145.4210 C   0  0  0  0  0  2  0  0  0  0  0  0
  187.5560  175.2500  143.1710 C   0  0  2  0  0  3  0  0  0  0  0  0
  188.8770  175.5960  145.3340 C   0  0  1  0  0  3  0  0  0  0  0  0
  189.2280  176.6860  146.1540 O   0  0  0  0  0  0  0  0  0  0  0  0
  190.8690  173.0700  142.6040 C   0  0  0  0  0  3  0  0  0  0  0  0
  189.0620  177.8580  145.3880 C   0  0  0  0  0  2  0  0  0  0  0  0
  192.2490  171.0470  143.9180 C   0  0  0  0  0  3  0  0  0  0  0  0
  190.2790  171.4960  140.7720 N   0  0  0  0  0  0  0  0  0  0  0  0
  186.3720  179.1890  143.9450 C   0  0  0  0  0  1  0  0  0  0  0  0
  191.6780  170.7940  142.6570 C   0  0  0  0  0  0  0  0  0  0  0  0
  188.2450  177.5480  144.1560 C   0  0  1  0  0  3  0  0  0  0  0  0
  191.4280  173.3270  143.8540 C   0  0  0  0  0  0  0  0  0  0  0  0
  188.8010  174.2800  141.0240 C   0  0  0  0  0  0  0  0  0  0  0  0
  188.5940  176.0960  143.9300 C   0  0  2  0  0  3  0  0  0  0  0  0
  188.1930  174.7080  141.9730 C   0  0  0  0  0  0  0  0  0  0  0  0
  192.1110  172.2990  144.5190 C   0  0  0  0  0  3  0  0  0  0  0  0
  192.4430  168.4390  142.6790 C   0  0  0  0  0  1  0  0  0  0  0  0
  191.7880  169.5350  142.0560 O   0  0  0  0  0  0  0  0  0  0  0  0
  192.3870  175.1810  145.2710 C   0  0  2  0  0  3  0  0  0  0  0  0
  192.2330  175.1230  146.7820 C   0  0  0  0  0  1  0  0  0  0  0  0
  192.1430  176.9920  143.5110 C   0  0  0  0  0  1  0  0  0  0  0  0
  192.7660  176.6030  144.8440 C   0  0  0  0  0  2  0  0  0  0  0  0
  1  9  1  0  0  0  0
  1  6  1  0  0  0  0
  2  3  1  0  0  0  0
  2 15  2  0  0  0  0
  3 20  1  0  0  0  0
  4 26  1  1  0  0  0
  4  8  1  0  0  0  0
  5 16  1  6  0  0  0
  6  5  1  0  0  0  0
  7 12  2  0  0  0  0
  7 17  1  0  0  0  0
  9 22  1  6  0  0  0
  9 21  1  0  0  0  0
 10  8  1  6  0  0  0
 10 11  1  0  0  0  0
 12 19  1  0  0  0  0
 13 11  1  0  0  0  0
 14 23  1  0  0  0  0
 15  7  1  0  0  0  0
 17 14  2  0  0  0  0
 18  5  1  0  0  0  0
 18 13  1  1  0  0  0
 19  4  1  0  0  0  0
 19 23  2  0  0  0  0
 20 22  3  0  0  0  0
 21 18  1  0  0  0  0
 21 10  1  0  0  0  0
 25 17  1  0  0  0  0
 25 24  1  0  0  0  0
 26 27  1  0  0  0  0
 28 29  1  0  0  0  0
 29 26  1  0  0  0  0
M  END
>  <MODEL>
7

>  <REMARK>
 VINA RESULT:      -6.6      2.767      6.166
  Name = 
  3 active torsions:
  status: ('A' for Active; 'I' for Inactive)
    1  A    between atoms: C_4  and  C_16
    2  A    between atoms: C_16  and  C_17
    3  A    between atoms: O_21  and  C_22
                            x       y       z     vdW  Elec       q    Type
                         _______ _______ _______ _____ _____    ______ ____

>  <TORSDO>
F 3

$$$$
=
 OpenBabel11062422463D

 29 32  0  0  1  0  0  0  0  0999 V2000
  189.0260  177.9160  144.2250 C   0  0  0  0  0  2  0  0  0  0  0  0
  194.1650  176.4880  146.5120 C   0  0  0  0  0  3  0  0  0  0  0  0
  192.7680  176.0270  146.8000 C   0  0  0  0  0  2  0  0  0  0  0  0
  191.7030  173.5700  142.7150 C   0  0  2  0  0  3  0  0  0  0  0  0
  187.2440  176.6290  143.0000 C   0  0  2  0  0  3  0  0  0  0  0  0
  187.9540  177.9750  143.1540 C   0  0  0  0  0  2  0  0  0  0  0  0
  194.6850  175.0850  144.5180 C   0  0  0  0  0  0  0  0  0  0  0  0
  191.2770  174.6130  141.6720 C   0  0  0  0  0  2  0  0  0  0  0  0
  190.1180  176.9510  143.7810 C   0  0  2  0  0  3  0  0  0  0  0  0
  189.8920  175.2370  141.8970 C   0  0  1  0  0  3  0  0  0  0  0  0
  188.8720  174.4160  141.3780 O   0  0  0  0  0  0  0  0  0  0  0  0
  193.3870  174.6720  144.1920 C   0  0  0  0  0  3  0  0  0  0  0  0
  187.8660  174.3230  142.3630 C   0  0  0  0  0  2  0  0  0  0  0  0
  195.5070  173.8160  142.6130 C   0  0  0  0  0  3  0  0  0  0  0  0
  194.9430  176.0470  145.5610 N   0  0  0  0  0  0  0  0  0  0  0  0
  185.9440  176.6430  143.7790 C   0  0  0  0  0  1  0  0  0  0  0  0
  195.7570  174.6470  143.7210 C   0  0  0  0  0  0  0  0  0  0  0  0
  188.0760  175.3960  143.4050 C   0  0  1  0  0  3  0  0  0  0  0  0
  193.1320  173.8530  143.0940 C   0  0  0  0  0  0  0  0  0  0  0  0
  191.8180  176.4770  145.7780 C   0  0  0  0  0  0  0  0  0  0  0  0
  189.5740  175.5800  143.3390 C   0  0  2  0  0  3  0  0  0  0  0  0
  191.0460  176.7400  144.8900 C   0  0  0  0  0  0  0  0  0  0  0  0
  194.2040  173.4360  142.2930 C   0  0  0  0  0  3  0  0  0  0  0  0
  197.9000  175.7280  143.1120 C   0  0  0  0  0  1  0  0  0  0  0  0
  197.0570  175.0560  144.0370 O   0  0  0  0  0  0  0  0  0  0  0  0
  191.5200  172.1160  142.2280 C   0  0  2  0  0  3  0  0  0  0  0  0
  191.3330  172.0120  140.7230 C   0  0  0  0  0  1  0  0  0  0  0  0
  190.0300  172.0440  144.2800 C   0  0  0  0  0  1  0  0  0  0  0  0
  190.3700  171.4010  142.9430 C   0  0  0  0  0  2  0  0  0  0  0  0
  2  3  1  0  0  0  0
  4 26  1  6  0  0  0
  4 19  1  0  0  0  0
  5  6  1  0  0  0  0
  5 18  1  0  0  0  0
  5 16  1  1  0  0  0
  6  1  1  0  0  0  0
  7 15  1  0  0  0  0
  8  4  1  0  0  0  0
  9  1  1  1  0  0  0
  9 22  1  0  0  0  0
 10  8  1  1  0  0  0
 10 21  1  0  0  0  0
 11 10  1  0  0  0  0
 11 13  1  0  0  0  0
 12  7  1  0  0  0  0
 14 17  1  0  0  0  0
 15  2  2  0  0  0  0
 17 25  1  0  0  0  0
 17  7  2  0  0  0  0
 18 13  1  6  0  0  0
 19 12  2  0  0  0  0
 20  3  1  0  0  0  0
 21 18  1  0  0  0  0
 21  9  1  0  0  0  0
 22 20  3  0  0  0  0
 23 14  2  0  0  0  0
 23 19  1  0  0  0  0
 24 25  1  0  0  0  0
 26 29  1  0  0  0  0
 27 26  1  0  0  0  0
 29 28  1  0  0  0  0
M  END
>  <MODEL>
8

>  <REMARK>
 VINA RESULT:      -6.4      2.746      7.307
  Name = 
  3 active torsions:
  status: ('A' for Active; 'I' for Inactive)
    1  A    between atoms: C_4  and  C_16
    2  A    between atoms: C_16  and  C_17
    3  A    between atoms: O_21  and  C_22
                            x       y       z     vdW  Elec       q    Type
                         _______ _______ _______ _____ _____    ______ ____

>  <TORSDO>
F 3

$$$$
=
 OpenBabel11062422463D

 29 32  0  0  1  0  0  0  0  0999 V2000
  194.5500  175.4700  141.7410 C   0  0  0  0  0  2  0  0  0  0  0  0
  188.9970  174.1480  140.6930 C   0  0  0  0  0  3  0  0  0  0  0  0
  190.1190  173.3760  141.3190 C   0  0  0  0  0  2  0  0  0  0  0  0
  190.7820  175.8430  145.4820 C   0  0  2  0  0  3  0  0  0  0  0  0
  195.9360  175.6460  143.8340 C   0  0  2  0  0  3  0  0  0  0  0  0
  195.6990  176.1870  142.4230 C   0  0  0  0  0  2  0  0  0  0  0  0
  188.2800  175.5310  142.6400 C   0  0  0  0  0  0  0  0  0  0  0  0
  191.6490  177.0630  145.1370 C   0  0  0  0  0  2  0  0  0  0  0  0
  193.2600  175.7720  142.4930 C   0  0  2  0  0  3  0  0  0  0  0  0
  193.1260  176.7570  144.8490 C   0  0  1  0  0  3  0  0  0  0  0  0
  193.8700  176.6620  146.0410 O   0  0  0  0  0  0  0  0  0  0  0  0
  189.3970  175.3490  143.4640 C   0  0  0  0  0  3  0  0  0  0  0  0
  194.6650  175.5010  145.9490 C   0  0  0  0  0  2  0  0  0  0  0  0
  187.3140  176.9590  144.3550 C   0  0  0  0  0  3  0  0  0  0  0  0
  188.2350  175.0230  141.2910 N   0  0  0  0  0  0  0  0  0  0  0  0
  197.0670  174.6360  143.8120 C   0  0  0  0  0  1  0  0  0  0  0  0
  187.2250  176.3410  143.0940 C   0  0  0  0  0  0  0  0  0  0  0  0
  194.7010  175.0240  144.5160 C   0  0  1  0  0  3  0  0  0  0  0  0
  189.4930  175.9610  144.7130 C   0  0  0  0  0  0  0  0  0  0  0  0
  191.2770  174.2250  141.6110 C   0  0  0  0  0  0  0  0  0  0  0  0
  193.3680  175.5190  144.0080 C   0  0  2  0  0  3  0  0  0  0  0  0
  192.1910  174.9290  141.9620 C   0  0  0  0  0  0  0  0  0  0  0  0
  188.4460  176.7830  145.1510 C   0  0  0  0  0  3  0  0  0  0  0  0
  185.7290  177.8030  141.7680 C   0  0  0  0  0  1  0  0  0  0  0  0
  186.1060  176.5310  142.2760 O   0  0  0  0  0  0  0  0  0  0  0  0
  190.5300  175.6880  146.9970 C   0  0  2  0  0  3  0  0  0  0  0  0
  189.3230  174.8180  147.3140 C   0  0  0  0  0  1  0  0  0  0  0  0
  191.4830  177.2540  148.7510 C   0  0  0  0  0  1  0  0  0  0  0  0
  190.3960  177.0380  147.7080 C   0  0  0  0  0  2  0  0  0  0  0  0
  1  6  1  0  0  0  0
  2 15  2  0  0  0  0
  2  3  1  0  0  0  0
  3 20  1  0  0  0  0
  4 26  1  1  0  0  0
  5 16  1  6  0  0  0
  5 18  1  0  0  0  0
  6  5  1  0  0  0  0
  7 17  2  0  0  0  0
  7 12  1  0  0  0  0
  8  4  1  0  0  0  0
  9  1  1  6  0  0  0
  9 21  1  0  0  0  0
 10  8  1  1  0  0  0
 10 11  1  0  0  0  0
 12 19  2  0  0  0  0
 13 11  1  0  0  0  0
 14 23  2  0  0  0  0
 15  7  1  0  0  0  0
 17 14  1  0  0  0  0
 18 13  1  1  0  0  0
 19 23  1  0  0  0  0
 19  4  1  0  0  0  0
 20 22  3  0  0  0  0
 21 18  1  0  0  0  0
 21 10  1  0  0  0  0
 22  9  1  0  0  0  0
 24 25  1  0  0  0  0
 25 17  1  0  0  0  0
 26 27  1  0  0  0  0
 26 29  1  0  0  0  0
 29 28  1  0  0  0  0
M  END
>  <MODEL>
9

>  <REMARK>
 VINA RESULT:      -6.4      1.346      1.864
  Name = 
  3 active torsions:
  status: ('A' for Active; 'I' for Inactive)
    1  A    between atoms: C_4  and  C_16
    2  A    between atoms: C_16  and  C_17
    3  A    between atoms: O_21  and  C_22
                            x       y       z     vdW  Elec       q    Type
                         _______ _______ _______ _____ _____    ______ ____

>  <TORSDO>
F 3

$$$$
