=
 OpenBabel11062418253D

 48 51  0  0  1  0  0  0  0  0999 V2000
  193.6330  170.6470  143.4900 N   0  0  0  0  0  2  0  0  0  0  0  0
  192.4140  172.6010  143.6690 C   0  0  1  0  0  3  0  0  0  0  0  0
  193.7980  172.0820  143.4940 C   0  0  2  0  0  3  0  0  0  0  0  0
  192.4770  170.3680  144.2500 N   0  0  0  0  0  2  0  0  0  0  0  0
  191.7020  171.5460  144.3620 N   0  0  0  0  0  2  0  0  0  0  0  0
  191.3250  174.8110  144.2760 N   0  0  0  0  0  2  0  0  0  0  0  0
  193.3060  174.0960  145.2830 O   0  0  0  0  0  0  0  0  0  0  0  0
  192.3860  173.8700  144.4530 C   0  0  0  0  0  0  0  0  0  0  0  0
  189.6690  177.0810  146.5250 C   0  0  0  0  0  2  0  0  0  0  0  0
  189.2900  177.5710  145.1340 C   0  0  1  0  0  3  0  0  0  0  0  0
  191.2800  178.2560  143.8070 C   0  0  0  0  0  2  0  0  0  0  0  0
  189.4600  178.0460  142.2910 O   0  0  0  0  0  1  0  0  0  0  0  0
  190.5860  177.3810  142.7780 C   0  0  2  0  0  3  0  0  0  0  0  0
  191.3020  176.0810  144.9900 C   0  0  1  0  0  3  0  0  0  0  0  0
  190.4330  177.0850  144.2680 C   0  0  2  0  0  0  0  0  0  0  0  0
  190.6190  175.8970  146.3350 C   0  0  0  0  0  2  0  0  0  0  0  0
  187.9810  176.9600  144.7140 C   0  0  0  0  0  0  0  0  0  0  0  0
  187.9750  175.8840  144.0520 O   0  0  0  0  0  0  0  0  0  0  0  0
  185.9000  177.0730  146.0940 C   0  0  0  0  0  3  0  0  0  0  0  0
  184.2770  178.8420  145.7510 C   0  0  0  0  0  3  0  0  0  0  0  0
  186.7050  177.6030  145.0750 C   0  0  0  0  0  0  0  0  0  0  0  0
  185.0730  179.3750  144.7360 C   0  0  0  0  0  3  0  0  0  0  0  0
  186.2820  178.7600  144.3990 C   0  0  0  0  0  3  0  0  0  0  0  0
  184.6910  177.6920  146.4310 C   0  0  0  0  0  3  0  0  0  0  0  0
  195.2840  171.8060  141.5830 C   0  0  0  0  0  3  0  0  0  0  0  0
  194.3650  172.5420  142.1980 C   0  0  0  0  0  3  0  0  0  0  0  0
  197.1530  171.7510  140.0820 C   0  0  0  0  0  2  0  0  0  0  0  0
  195.9270  172.2030  140.3220 C   0  0  0  0  0  0  0  0  0  0  0  0
  195.1390  175.2230  138.4190 O   0  0  0  0  0  0  0  0  0  0  0  0
  195.2820  173.0900  139.3840 N   0  0  0  0  0  0  0  0  0  0  0  0
  195.5330  174.5120  139.3870 C   0  0  0  0  0  0  0  0  0  0  0  0
  197.6280  175.5970  140.2620 C   0  0  0  0  0  1  0  0  0  0  0  0
  196.1970  175.1730  140.5650 C   0  0  1  0  0  3  0  0  0  0  0  0
  195.3480  176.3070  141.1450 C   0  0  0  0  0  2  0  0  0  0  0  0
  194.9030  176.0600  142.5880 C   0  0  0  0  0  2  0  0  0  0  0  0
  196.8370  177.1870  143.4170 O   0  0  0  0  0  0  0  0  0  0  0  0
  196.0510  176.2090  143.5420 C   0  0  0  0  0  0  0  0  0  0  0  0
  196.9980  174.0650  144.3080 C   0  0  0  0  0  1  0  0  0  0  0  0
  196.2890  175.2720  144.5470 O   0  0  0  0  0  0  0  0  0  0  0  0
  194.4360  172.5290  138.3360 C   0  0  0  0  0  2  0  0  0  0  0  0
  193.0840  172.1300  138.9160 C   0  0  0  0  0  2  0  0  0  0  0  0
  192.0380  173.2420  138.7900 C   0  0  2  0  0  3  0  0  0  0  0  0
  191.5770  173.7580  140.1260 C   0  0  0  0  0  0  0  0  0  0  0  0
  190.3330  173.4000  140.6430 O   0  0  0  0  0  0  0  0  0  0  0  0
  192.2990  174.5680  140.7620 O   0  0  0  0  0  1  0  0  0  0  0  0
  190.5670  171.7280  137.6960 O   0  0  0  0  0  0  0  0  0  0  0  0
  190.9110  172.8890  137.8570 C   0  0  0  0  0  0  0  0  0  0  0  0
  190.1900  173.9760  137.1380 C   0  0  0  0  0  1  0  0  0  0  0  0
  1  3  1  0  0  0  0
  1  4  1  0  0  0  0
  2  5  1  0  0  0  0
  2  8  1  1  0  0  0
  3 26  1  6  0  0  0
  3  2  1  0  0  0  0
  4  5  1  0  0  0  0
  6  8  1  0  0  0  0
  8  7  2  0  0  0  0
 10 17  1  6  0  0  0
 10  9  1  0  0  0  0
 13 12  1  1  0  0  0
 13 11  1  0  0  0  0
 13 15  1  0  0  0  0
 14  6  1  6  0  0  0
 14 16  1  0  0  0  0
 15 11  1  1  0  0  0
 15 14  1  0  0  0  0
 15 10  1  0  0  0  0
 16  9  1  0  0  0  0
 17 21  1  0  0  0  0
 18 17  2  0  0  0  0
 19 24  1  0  0  0  0
 20 24  2  0  0  0  0
 21 19  2  0  0  0  0
 22 20  1  0  0  0  0
 23 22  2  0  0  0  0
 23 21  1  0  0  0  0
 25 26  2  0  0  0  0
 27 28  2  0  0  0  0
 28 25  1  0  0  0  0
 29 31  2  0  0  0  0
 30 31  1  0  0  0  0
 30 28  1  0  0  0  0
 31 33  1  0  0  0  0
 33 32  1  6  0  0  0
 33 34  1  0  0  0  0
 34 35  1  0  0  0  0
 35 37  1  0  0  0  0
 36 37  2  0  0  0  0
 37 39  1  0  0  0  0
 38 39  1  0  0  0  0
 40 41  1  0  0  0  0
 40 30  1  0  0  0  0
 42 41  1  1  0  0  0
 42 43  1  0  0  0  0
 43 44  2  0  0  0  0
 43 45  1  0  0  0  0
 46 47  2  0  0  0  0
 47 42  1  0  0  0  0
 48 47  1  0  0  0  0
M  END
>  <MODEL>
1

>  <REMARK>
 VINA RESULT:      -6.3      0.000      0.000
  Name = 
  17 active torsions:
  status: ('A' for Active; 'I' for Inactive)
    1  A    between atoms: C_1  and  C_45
    2  A    between atoms: C_5  and  C_8
    3  A    between atoms: C_6  and  C_41
    4  A    between atoms: C_6  and  C_42
    5  A    between atoms: C_8  and  C_17
    6  A    between atoms: C_9  and  C_11
    7  A    between atoms: C_9  and  C_12
    8  A    between atoms: C_9  and  C_31
    9  A    between atoms: C_12  and  C_20
   10  A    between atoms: N_16  and  C_20
   11  A    between atoms: N_16  and  C_45
   12  A    between atoms: N_21  and  C_38
   13  A    between atoms: C_22  and  C_48
   14  A    between atoms: O_23  and  C_42
   15  A    between atoms: C_24  and  C_43
   16  A    between atoms: C_28  and  C_29
   17  A    between atoms: C_41  and  C_43
                            x       y       z     vdW  Elec       q    Type
                         _______ _______ _______ _____ _____    ______ ____

>  <TORSDO>
F 17

$$$$
=
 OpenBabel11062418253D

 48 51  0  0  1  0  0  0  0  0999 V2000
  189.9920  174.6310  146.3780 N   0  0  0  0  0  2  0  0  0  0  0  0
  191.6600  176.2250  146.4780 C   0  0  1  0  0  3  0  0  0  0  0  0
  191.1210  175.1280  145.6280 C   0  0  2  0  0  3  0  0  0  0  0  0
  190.2590  174.8920  147.7400 N   0  0  0  0  0  2  0  0  0  0  0  0
  191.2690  175.8790  147.8300 N   0  0  0  0  0  2  0  0  0  0  0  0
  193.8540  175.6360  145.3470 N   0  0  0  0  0  2  0  0  0  0  0  0
  193.7600  177.0900  147.1720 O   0  0  0  0  0  0  0  0  0  0  0  0
  193.1430  176.3450  146.3650 C   0  0  0  0  0  0  0  0  0  0  0  0
  196.8110  176.3170  143.4110 C   0  0  0  0  0  2  0  0  0  0  0  0
  196.6150  174.8120  143.2990 C   0  0  1  0  0  3  0  0  0  0  0  0
  196.7260  173.6830  145.5130 C   0  0  0  0  0  2  0  0  0  0  0  0
  195.7830  172.1310  143.9790 O   0  0  0  0  0  1  0  0  0  0  0  0
  195.4550  173.0490  144.9770 C   0  0  2  0  0  3  0  0  0  0  0  0
  195.3070  175.6950  145.2480 C   0  0  1  0  0  3  0  0  0  0  0  0
  195.8450  174.4630  144.5550 C   0  0  2  0  0  0  0  0  0  0  0  0
  195.7100  176.8400  144.3350 C   0  0  0  0  0  2  0  0  0  0  0  0
  195.8230  174.4880  142.0600 C   0  0  0  0  0  0  0  0  0  0  0  0
  194.5610  174.4580  142.1130 O   0  0  0  0  0  0  0  0  0  0  0  0
  196.4740  175.1500  139.7400 C   0  0  0  0  0  3  0  0  0  0  0  0
  197.8190  173.6770  138.3600 C   0  0  0  0  0  3  0  0  0  0  0  0
  196.5080  174.2140  140.7850 C   0  0  0  0  0  0  0  0  0  0  0  0
  197.8560  172.7410  139.3950 C   0  0  0  0  0  3  0  0  0  0  0  0
  197.2040  173.0080  140.6030 C   0  0  0  0  0  3  0  0  0  0  0  0
  197.1300  174.8820  138.5330 C   0  0  0  0  0  3  0  0  0  0  0  0
  189.6410  176.4940  144.2580 C   0  0  0  0  0  3  0  0  0  0  0  0
  190.6750  175.6620  144.3140 C   0  0  0  0  0  3  0  0  0  0  0  0
  189.7660  178.0400  142.4290 C   0  0  0  0  0  2  0  0  0  0  0  0
  189.1080  177.0370  143.0000 C   0  0  0  0  0  0  0  0  0  0  0  0
  185.6060  176.8540  141.9670 O   0  0  0  0  0  0  0  0  0  0  0  0
  187.8880  176.5390  142.4120 N   0  0  0  0  0  0  0  0  0  0  0  0
  186.6110  177.1640  142.6680 C   0  0  0  0  0  0  0  0  0  0  0  0
  185.8490  179.4590  143.3660 C   0  0  0  0  0  1  0  0  0  0  0  0
  186.4430  178.1280  143.8120 C   0  0  1  0  0  3  0  0  0  0  0  0
  185.6910  177.5040  144.9900 C   0  0  0  0  0  2  0  0  0  0  0  0
  186.5870  176.6790  145.9170 C   0  0  0  0  0  2  0  0  0  0  0  0
  188.3600  177.6270  147.2020 O   0  0  0  0  0  0  0  0  0  0  0  0
  187.1150  177.5150  147.0440 C   0  0  0  0  0  0  0  0  0  0  0  0
  186.0860  179.5570  147.9700 C   0  0  0  0  0  1  0  0  0  0  0  0
  186.2580  178.1470  147.9450 O   0  0  0  0  0  0  0  0  0  0  0  0
  187.9520  175.4450  141.4500 C   0  0  0  0  0  2  0  0  0  0  0  0
  187.9710  174.1080  142.1810 C   0  0  0  0  0  2  0  0  0  0  0  0
  188.8770  173.0780  141.5010 C   0  0  2  0  0  3  0  0  0  0  0  0
  189.4030  172.0450  142.4600 C   0  0  0  0  0  0  0  0  0  0  0  0
  189.1970  172.1690  143.8320 O   0  0  0  0  0  1  0  0  0  0  0  0
  190.0870  171.0830  142.0240 O   0  0  0  0  0  0  0  0  0  0  0  0
  190.9030  174.2710  141.1470 O   0  0  0  0  0  0  0  0  0  0  0  0
  189.9450  173.7040  140.6440 C   0  0  0  0  0  0  0  0  0  0  0  0
  189.8420  173.6090  139.1610 C   0  0  0  0  0  1  0  0  0  0  0  0
  1  4  1  0  0  0  0
  2  8  1  1  0  0  0
  2  5  1  0  0  0  0
  3 26  1  6  0  0  0
  3  1  1  0  0  0  0
  3  2  1  0  0  0  0
  4  5  1  0  0  0  0
  6  8  1  0  0  0  0
  8  7  2  0  0  0  0
  9 16  1  0  0  0  0
 10 17  1  6  0  0  0
 10  9  1  0  0  0  0
 10 15  1  0  0  0  0
 13 12  1  6  0  0  0
 13 11  1  0  0  0  0
 14  6  1  6  0  0  0
 15 13  1  0  0  0  0
 15 14  1  0  0  0  0
 15 11  1  1  0  0  0
 16 14  1  0  0  0  0
 17 18  2  0  0  0  0
 19 21  1  0  0  0  0
 20 24  1  0  0  0  0
 20 22  2  0  0  0  0
 21 17  1  0  0  0  0
 22 23  1  0  0  0  0
 23 21  2  0  0  0  0
 24 19  2  0  0  0  0
 25 26  2  0  0  0  0
 27 28  2  0  0  0  0
 28 25  1  0  0  0  0
 29 31  2  0  0  0  0
 30 31  1  0  0  0  0
 30 28  1  0  0  0  0
 31 33  1  0  0  0  0
 33 32  1  6  0  0  0
 33 34  1  0  0  0  0
 34 35  1  0  0  0  0
 35 37  1  0  0  0  0
 37 36  2  0  0  0  0
 37 39  1  0  0  0  0
 39 38  1  0  0  0  0
 40 41  1  0  0  0  0
 40 30  1  0  0  0  0
 42 41  1  1  0  0  0
 42 43  1  0  0  0  0
 43 44  1  0  0  0  0
 45 43  2  0  0  0  0
 47 46  2  0  0  0  0
 47 42  1  0  0  0  0
 48 47  1  0  0  0  0
M  END
>  <MODEL>
2

>  <REMARK>
 VINA RESULT:      -6.2      2.691      8.584
  Name = 
  17 active torsions:
  status: ('A' for Active; 'I' for Inactive)
    1  A    between atoms: C_1  and  C_45
    2  A    between atoms: C_5  and  C_8
    3  A    between atoms: C_6  and  C_41
    4  A    between atoms: C_6  and  C_42
    5  A    between atoms: C_8  and  C_17
    6  A    between atoms: C_9  and  C_11
    7  A    between atoms: C_9  and  C_12
    8  A    between atoms: C_9  and  C_31
    9  A    between atoms: C_12  and  C_20
   10  A    between atoms: N_16  and  C_20
   11  A    between atoms: N_16  and  C_45
   12  A    between atoms: N_21  and  C_38
   13  A    between atoms: C_22  and  C_48
   14  A    between atoms: O_23  and  C_42
   15  A    between atoms: C_24  and  C_43
   16  A    between atoms: C_28  and  C_29
   17  A    between atoms: C_41  and  C_43
                            x       y       z     vdW  Elec       q    Type
                         _______ _______ _______ _____ _____    ______ ____

>  <TORSDO>
F 17

$$$$
=
 OpenBabel11062418253D

 48 51  0  0  1  0  0  0  0  0999 V2000
  189.2580  173.1850  140.4110 N   0  0  0  0  0  2  0  0  0  0  0  0
  191.3610  172.2320  140.4400 C   0  0  1  0  0  3  0  0  0  0  0  0
  190.6240  173.4820  140.7710 C   0  0  2  0  0  3  0  0  0  0  0  0
  189.3080  172.2160  139.3860 N   0  0  0  0  0  2  0  0  0  0  0  0
  190.5830  171.6040  139.3910 N   0  0  0  0  0  2  0  0  0  0  0  0
  193.8280  172.5870  140.9210 N   0  0  0  0  0  2  0  0  0  0  0  0
  192.9730  172.6570  138.7490 O   0  0  0  0  0  0  0  0  0  0  0  0
  192.7540  172.5080  139.9800 C   0  0  0  0  0  0  0  0  0  0  0  0
  197.2970  173.0750  141.7450 C   0  0  0  0  0  2  0  0  0  0  0  0
  196.7000  174.4750  141.7440 C   0  0  1  0  0  3  0  0  0  0  0  0
  195.7790  175.1010  139.5190 C   0  0  0  0  0  2  0  0  0  0  0  0
  194.9320  176.6650  141.0970 O   0  0  0  0  0  1  0  0  0  0  0  0
  194.6060  175.5050  140.3950 C   0  0  2  0  0  3  0  0  0  0  0  0
  195.1870  172.9070  140.5030 C   0  0  1  0  0  3  0  0  0  0  0  0
  195.5140  174.3510  140.8110 C   0  0  2  0  0  0  0  0  0  0  0  0
  196.1770  172.1150  141.3400 C   0  0  0  0  0  2  0  0  0  0  0  0
  196.2700  174.8510  143.1360 C   0  0  0  0  0  0  0  0  0  0  0  0
  196.5150  176.0090  143.5760 O   0  0  0  0  0  0  0  0  0  0  0  0
  194.1610  173.7630  143.9210 C   0  0  0  0  0  3  0  0  0  0  0  0
  194.2150  172.0270  145.6130 C   0  0  0  0  0  3  0  0  0  0  0  0
  195.5570  173.8810  143.9860 C   0  0  0  0  0  0  0  0  0  0  0  0
  195.6050  172.1400  145.6840 C   0  0  0  0  0  3  0  0  0  0  0  0
  196.2740  173.0620  144.8740 C   0  0  0  0  0  3  0  0  0  0  0  0
  193.4930  172.8370  144.7310 C   0  0  0  0  0  3  0  0  0  0  0  0
  189.6320  174.0910  142.9110 C   0  0  0  0  0  3  0  0  0  0  0  0
  190.7250  173.7730  142.2270 C   0  0  0  0  0  3  0  0  0  0  0  0
  189.8550  173.4520  145.2110 C   0  0  0  0  0  2  0  0  0  0  0  0
  189.6450  174.4330  144.3410 C   0  0  0  0  0  0  0  0  0  0  0  0
  190.0930  178.0140  144.9230 O   0  0  0  0  0  0  0  0  0  0  0  0
  189.3980  175.7770  144.8060 N   0  0  0  0  0  0  0  0  0  0  0  0
  190.4080  176.8050  144.7270 C   0  0  0  0  0  0  0  0  0  0  0  0
  192.3760  177.0210  143.1730 C   0  0  0  0  0  1  0  0  0  0  0  0
  191.8500  176.4510  144.4840 C   0  0  1  0  0  3  0  0  0  0  0  0
  192.7390  176.7910  145.6830 C   0  0  0  0  0  2  0  0  0  0  0  0
  192.6640  175.7600  146.8110 C   0  0  0  0  0  2  0  0  0  0  0  0
  190.8020  175.1110  148.1550 O   0  0  0  0  0  0  0  0  0  0  0  0
  191.5250  176.0560  147.7400 C   0  0  0  0  0  0  0  0  0  0  0  0
  191.5390  177.8560  149.4270 C   0  0  0  0  0  1  0  0  0  0  0  0
  191.2260  177.3610  148.1330 O   0  0  0  0  0  0  0  0  0  0  0  0
  188.0630  176.1380  145.2690 C   0  0  0  0  0  2  0  0  0  0  0  0
  187.1660  176.4570  144.0800 C   0  0  0  0  0  2  0  0  0  0  0  0
  186.5760  177.8690  144.1490 C   0  0  2  0  0  3  0  0  0  0  0  0
  185.7700  178.1000  145.3980 C   0  0  0  0  0  0  0  0  0  0  0  0
  185.0170  177.0750  145.9670 O   0  0  0  0  0  1  0  0  0  0  0  0
  185.7290  179.2500  145.9070 O   0  0  0  0  0  0  0  0  0  0  0  0
  186.4710  178.7640  141.9490 O   0  0  0  0  0  0  0  0  0  0  0  0
  185.8620  178.2720  142.8870 C   0  0  0  0  0  0  0  0  0  0  0  0
  184.3940  178.0470  142.7730 C   0  0  0  0  0  1  0  0  0  0  0  0
  1  3  1  0  0  0  0
  2  8  1  6  0  0  0
  2  3  1  0  0  0  0
  3 26  1  1  0  0  0
  4  5  1  0  0  0  0
  4  1  1  0  0  0  0
  5  2  1  0  0  0  0
  7  8  2  0  0  0  0
  8  6  1  0  0  0  0
 10  9  1  0  0  0  0
 10 17  1  1  0  0  0
 11 13  1  0  0  0  0
 13 15  1  0  0  0  0
 13 12  1  1  0  0  0
 14 15  1  0  0  0  0
 14  6  1  1  0  0  0
 14 16  1  0  0  0  0
 15 11  1  6  0  0  0
 15 10  1  0  0  0  0
 16  9  1  0  0  0  0
 17 18  2  0  0  0  0
 17 21  1  0  0  0  0
 19 21  2  0  0  0  0
 19 24  1  0  0  0  0
 20 22  1  0  0  0  0
 21 23  1  0  0  0  0
 23 22  2  0  0  0  0
 24 20  2  0  0  0  0
 25 28  1  0  0  0  0
 26 25  2  0  0  0  0
 28 30  1  0  0  0  0
 28 27  2  0  0  0  0
 30 40  1  0  0  0  0
 31 30  1  0  0  0  0
 31 29  2  0  0  0  0
 33 32  1  6  0  0  0
 33 31  1  0  0  0  0
 33 34  1  0  0  0  0
 34 35  1  0  0  0  0
 35 37  1  0  0  0  0
 37 39  1  0  0  0  0
 37 36  2  0  0  0  0
 39 38  1  0  0  0  0
 41 40  1  0  0  0  0
 42 41  1  6  0  0  0
 42 43  1  0  0  0  0
 43 45  2  0  0  0  0
 43 44  1  0  0  0  0
 46 47  2  0  0  0  0
 47 42  1  0  0  0  0
 48 47  1  0  0  0  0
M  END
>  <MODEL>
3

>  <REMARK>
 VINA RESULT:      -6.2      2.516      7.938
  Name = 
  17 active torsions:
  status: ('A' for Active; 'I' for Inactive)
    1  A    between atoms: C_1  and  C_45
    2  A    between atoms: C_5  and  C_8
    3  A    between atoms: C_6  and  C_41
    4  A    between atoms: C_6  and  C_42
    5  A    between atoms: C_8  and  C_17
    6  A    between atoms: C_9  and  C_11
    7  A    between atoms: C_9  and  C_12
    8  A    between atoms: C_9  and  C_31
    9  A    between atoms: C_12  and  C_20
   10  A    between atoms: N_16  and  C_20
   11  A    between atoms: N_16  and  C_45
   12  A    between atoms: N_21  and  C_38
   13  A    between atoms: C_22  and  C_48
   14  A    between atoms: O_23  and  C_42
   15  A    between atoms: C_24  and  C_43
   16  A    between atoms: C_28  and  C_29
   17  A    between atoms: C_41  and  C_43
                            x       y       z     vdW  Elec       q    Type
                         _______ _______ _______ _____ _____    ______ ____

>  <TORSDO>
F 17

$$$$
=
 OpenBabel11062418253D

 48 51  0  0  1  0  0  0  0  0999 V2000
  193.6880  170.8950  143.3960 N   0  0  0  0  0  2  0  0  0  0  0  0
  192.4190  172.8150  143.5850 C   0  0  1  0  0  3  0  0  0  0  0  0
  193.8120  172.3340  143.3800 C   0  0  2  0  0  3  0  0  0  0  0  0
  192.5600  170.5920  144.1880 N   0  0  0  0  0  2  0  0  0  0  0  0
  191.7550  171.7490  144.3070 N   0  0  0  0  0  2  0  0  0  0  0  0
  191.2470  174.9650  144.2530 N   0  0  0  0  0  2  0  0  0  0  0  0
  193.3400  174.3840  145.1100 O   0  0  0  0  0  0  0  0  0  0  0  0
  192.3740  174.0920  144.3560 C   0  0  0  0  0  0  0  0  0  0  0  0
  189.5790  177.2080  146.5200 C   0  0  0  0  0  2  0  0  0  0  0  0
  189.1500  177.6700  145.1350 C   0  0  1  0  0  3  0  0  0  0  0  0
  191.0820  178.4020  143.7490 C   0  0  0  0  0  2  0  0  0  0  0  0
  189.2320  178.1180  142.2830 O   0  0  0  0  0  1  0  0  0  0  0  0
  190.3900  177.4940  142.7480 C   0  0  2  0  0  3  0  0  0  0  0  0
  191.2030  176.2420  144.9550 C   0  0  1  0  0  3  0  0  0  0  0  0
  190.2840  177.2100  144.2440 C   0  0  2  0  0  0  0  0  0  0  0  0
  190.5610  176.0530  146.3180 C   0  0  0  0  0  2  0  0  0  0  0  0
  187.8500  177.0150  144.7550 C   0  0  0  0  0  0  0  0  0  0  0  0
  187.8610  175.9210  144.1230 O   0  0  0  0  0  0  0  0  0  0  0  0
  185.7230  177.0300  146.0680 C   0  0  0  0  0  3  0  0  0  0  0  0
  184.1170  178.8280  145.8100 C   0  0  0  0  0  3  0  0  0  0  0  0
  186.5640  177.6340  145.1220 C   0  0  0  0  0  0  0  0  0  0  0  0
  184.9480  179.4340  144.8670 C   0  0  0  0  0  3  0  0  0  0  0  0
  186.1670  178.8410  144.5240 C   0  0  0  0  0  3  0  0  0  0  0  0
  184.5050  177.6270  146.4120 C   0  0  0  0  0  3  0  0  0  0  0  0
  194.0360  172.1130  140.9650 C   0  0  0  0  0  3  0  0  0  0  0  0
  194.3320  172.7950  142.0650 C   0  0  0  0  0  3  0  0  0  0  0  0
  195.5090  171.7260  139.1130 C   0  0  0  0  0  2  0  0  0  0  0  0
  194.5400  172.4720  139.6310 C   0  0  0  0  0  0  0  0  0  0  0  0
  194.4390  175.7580  138.0320 O   0  0  0  0  0  0  0  0  0  0  0  0
  194.0420  173.6200  138.9120 N   0  0  0  0  0  0  0  0  0  0  0  0
  194.7830  174.8580  138.8500 C   0  0  0  0  0  0  0  0  0  0  0  0
  197.2160  175.4580  139.0760 C   0  0  0  0  0  1  0  0  0  0  0  0
  195.9200  175.1220  139.8010 C   0  0  1  0  0  3  0  0  0  0  0  0
  195.5510  176.1500  140.8730 C   0  0  0  0  0  2  0  0  0  0  0  0
  196.6620  176.3910  141.8960 C   0  0  0  0  0  2  0  0  0  0  0  0
  195.5130  176.5950  143.9780 O   0  0  0  0  0  0  0  0  0  0  0  0
  196.2670  175.8910  143.2530 C   0  0  0  0  0  0  0  0  0  0  0  0
  196.7640  174.3790  145.1370 C   0  0  0  0  0  1  0  0  0  0  0  0
  196.7400  174.6760  143.7480 O   0  0  0  0  0  0  0  0  0  0  0  0
  192.8110  173.4990  138.1370 C   0  0  0  0  0  2  0  0  0  0  0  0
  191.6030  173.5780  139.0620 C   0  0  0  0  0  2  0  0  0  0  0  0
  190.3640  172.8980  138.4720 C   0  0  2  0  0  3  0  0  0  0  0  0
  189.1890  173.8310  138.3580 C   0  0  0  0  0  0  0  0  0  0  0  0
  188.7300  174.2580  137.1140 O   0  0  0  0  0  0  0  0  0  0  0  0
  188.6460  174.2770  139.4020 O   0  0  0  0  0  1  0  0  0  0  0  0
  189.4790  170.6920  138.5250 O   0  0  0  0  0  0  0  0  0  0  0  0
  190.0340  171.5900  139.1400 C   0  0  0  0  0  0  0  0  0  0  0  0
  190.4110  171.3820  140.5650 C   0  0  0  0  0  1  0  0  0  0  0  0
  1  4  1  0  0  0  0
  2  5  1  0  0  0  0
  2  8  1  1  0  0  0
  3 26  1  6  0  0  0
  3  1  1  0  0  0  0
  3  2  1  0  0  0  0
  4  5  1  0  0  0  0
  6  8  1  0  0  0  0
  8  7  2  0  0  0  0
 10 17  1  6  0  0  0
 10  9  1  0  0  0  0
 13 12  1  1  0  0  0
 13 11  1  0  0  0  0
 13 15  1  0  0  0  0
 14  6  1  6  0  0  0
 14 16  1  0  0  0  0
 15 11  1  1  0  0  0
 15 14  1  0  0  0  0
 15 10  1  0  0  0  0
 16  9  1  0  0  0  0
 17 21  1  0  0  0  0
 18 17  2  0  0  0  0
 19 24  1  0  0  0  0
 20 24  2  0  0  0  0
 21 19  2  0  0  0  0
 22 20  1  0  0  0  0
 23 22  2  0  0  0  0
 23 21  1  0  0  0  0
 25 26  2  0  0  0  0
 27 28  2  0  0  0  0
 28 25  1  0  0  0  0
 29 31  2  0  0  0  0
 30 28  1  0  0  0  0
 31 30  1  0  0  0  0
 31 33  1  0  0  0  0
 33 32  1  6  0  0  0
 33 34  1  0  0  0  0
 34 35  1  0  0  0  0
 35 37  1  0  0  0  0
 37 39  1  0  0  0  0
 37 36  2  0  0  0  0
 39 38  1  0  0  0  0
 40 30  1  0  0  0  0
 40 41  1  0  0  0  0
 42 41  1  1  0  0  0
 42 47  1  0  0  0  0
 43 42  1  0  0  0  0
 43 45  1  0  0  0  0
 44 43  2  0  0  0  0
 46 47  2  0  0  0  0
 47 48  1  0  0  0  0
M  END
>  <MODEL>
4

>  <REMARK>
 VINA RESULT:      -6.1      1.061      1.446
  Name = 
  17 active torsions:
  status: ('A' for Active; 'I' for Inactive)
    1  A    between atoms: C_1  and  C_45
    2  A    between atoms: C_5  and  C_8
    3  A    between atoms: C_6  and  C_41
    4  A    between atoms: C_6  and  C_42
    5  A    between atoms: C_8  and  C_17
    6  A    between atoms: C_9  and  C_11
    7  A    between atoms: C_9  and  C_12
    8  A    between atoms: C_9  and  C_31
    9  A    between atoms: C_12  and  C_20
   10  A    between atoms: N_16  and  C_20
   11  A    between atoms: N_16  and  C_45
   12  A    between atoms: N_21  and  C_38
   13  A    between atoms: C_22  and  C_48
   14  A    between atoms: O_23  and  C_42
   15  A    between atoms: C_24  and  C_43
   16  A    between atoms: C_28  and  C_29
   17  A    between atoms: C_41  and  C_43
                            x       y       z     vdW  Elec       q    Type
                         _______ _______ _______ _____ _____    ______ ____

>  <TORSDO>
F 17

$$$$
=
 OpenBabel11062418253D

 48 51  0  0  1  0  0  0  0  0999 V2000
  190.5910  171.5540  141.1270 N   0  0  0  0  0  2  0  0  0  0  0  0
  191.7610  173.5120  141.4860 C   0  0  1  0  0  3  0  0  0  0  0  0
  191.4110  172.2110  142.1180 C   0  0  2  0  0  3  0  0  0  0  0  0
  189.9740  172.5710  140.3680 N   0  0  0  0  0  2  0  0  0  0  0  0
  190.6820  173.7820  140.5570 N   0  0  0  0  0  2  0  0  0  0  0  0
  190.8870  174.7910  143.4960 N   0  0  0  0  0  2  0  0  0  0  0  0
  192.8950  175.3620  142.4510 O   0  0  0  0  0  0  0  0  0  0  0  0
  191.8870  174.6070  142.4920 C   0  0  0  0  0  0  0  0  0  0  0  0
  189.4630  176.5920  146.2680 C   0  0  0  0  0  2  0  0  0  0  0  0
  189.0260  177.3710  145.0370 C   0  0  1  0  0  3  0  0  0  0  0  0
  190.9620  178.2580  143.7500 C   0  0  0  0  0  2  0  0  0  0  0  0
  189.0500  178.4220  142.3470 O   0  0  0  0  0  1  0  0  0  0  0  0
  190.1720  177.6370  142.6120 C   0  0  2  0  0  3  0  0  0  0  0  0
  190.9600  175.8840  144.4570 C   0  0  1  0  0  3  0  0  0  0  0  0
  190.0940  177.0420  144.0150 C   0  0  2  0  0  0  0  0  0  0  0  0
  190.3500  175.4460  145.7770 C   0  0  0  0  0  2  0  0  0  0  0  0
  187.6690  176.9010  144.5870 C   0  0  0  0  0  0  0  0  0  0  0  0
  187.5760  175.9140  143.8040 O   0  0  0  0  0  0  0  0  0  0  0  0
  186.0720  178.8230  144.5370 C   0  0  0  0  0  3  0  0  0  0  0  0
  184.1170  178.8510  145.9710 C   0  0  0  0  0  3  0  0  0  0  0  0
  186.4480  177.5760  145.0600 C   0  0  0  0  0  0  0  0  0  0  0  0
  184.4850  177.6110  146.4960 C   0  0  0  0  0  3  0  0  0  0  0  0
  185.6450  176.9750  146.0420 C   0  0  0  0  0  3  0  0  0  0  0  0
  184.9090  179.4560  144.9900 C   0  0  0  0  0  3  0  0  0  0  0  0
  193.7880  171.7710  141.8190 C   0  0  0  0  0  3  0  0  0  0  0  0
  192.6400  171.4160  142.3830 C   0  0  0  0  0  3  0  0  0  0  0  0
  194.9870  169.6960  141.9040 C   0  0  0  0  0  2  0  0  0  0  0  0
  195.0410  171.0200  141.9920 C   0  0  0  0  0  0  0  0  0  0  0  0
  197.9400  172.2160  143.8690 O   0  0  0  0  0  0  0  0  0  0  0  0
  196.2890  171.6790  142.2920 N   0  0  0  0  0  0  0  0  0  0  0  0
  196.7510  171.8480  143.6500 C   0  0  0  0  0  0  0  0  0  0  0  0
  196.5180  171.1230  146.0490 C   0  0  0  0  0  1  0  0  0  0  0  0
  195.8120  171.6620  144.8110 C   0  0  1  0  0  3  0  0  0  0  0  0
  194.9860  172.9190  145.0950 C   0  0  0  0  0  2  0  0  0  0  0  0
  195.7910  174.0440  145.7480 C   0  0  0  0  0  2  0  0  0  0  0  0
  196.4070  175.7550  144.2020 O   0  0  0  0  0  0  0  0  0  0  0  0
  195.5650  175.3500  145.0470 C   0  0  0  0  0  0  0  0  0  0  0  0
  194.5770  177.5000  145.7460 C   0  0  0  0  0  1  0  0  0  0  0  0
  194.4550  176.1460  145.3320 O   0  0  0  0  0  0  0  0  0  0  0  0
  197.1600  172.0920  141.1980 C   0  0  0  0  0  2  0  0  0  0  0  0
  196.9160  173.5580  140.8620 C   0  0  0  0  0  2  0  0  0  0  0  0
  196.6880  173.7890  139.3650 C   0  0  2  0  0  3  0  0  0  0  0  0
  197.3870  175.0200  138.8540 C   0  0  0  0  0  0  0  0  0  0  0  0
  197.8160  176.0160  139.7280 O   0  0  0  0  0  1  0  0  0  0  0  0
  197.5380  175.1800  137.6150 O   0  0  0  0  0  0  0  0  0  0  0  0
  194.7770  172.6990  138.4630 O   0  0  0  0  0  0  0  0  0  0  0  0
  195.2380  173.7110  138.9700 C   0  0  0  0  0  0  0  0  0  0  0  0
  194.3470  174.8770  139.2230 C   0  0  0  0  0  1  0  0  0  0  0  0
  1  3  1  0  0  0  0
  2  3  1  0  0  0  0
  2  8  1  1  0  0  0
  3 26  1  6  0  0  0
  4  5  1  0  0  0  0
  4  1  1  0  0  0  0
  5  2  1  0  0  0  0
  7  8  2  0  0  0  0
  8  6  1  0  0  0  0
 10 17  1  6  0  0  0
 10  9  1  0  0  0  0
 13 12  1  1  0  0  0
 13 11  1  0  0  0  0
 13 15  1  0  0  0  0
 14  6  1  6  0  0  0
 14 16  1  0  0  0  0
 15 11  1  1  0  0  0
 15 14  1  0  0  0  0
 15 10  1  0  0  0  0
 16  9  1  0  0  0  0
 17 21  1  0  0  0  0
 18 17  2  0  0  0  0
 19 24  2  0  0  0  0
 19 21  1  0  0  0  0
 20 22  2  0  0  0  0
 21 23  2  0  0  0  0
 23 22  1  0  0  0  0
 24 20  1  0  0  0  0
 25 28  1  0  0  0  0
 25 26  2  0  0  0  0
 27 28  2  0  0  0  0
 28 30  1  0  0  0  0
 30 31  1  0  0  0  0
 31 29  2  0  0  0  0
 31 33  1  0  0  0  0
 33 34  1  0  0  0  0
 33 32  1  1  0  0  0
 34 35  1  0  0  0  0
 36 37  2  0  0  0  0
 37 39  1  0  0  0  0
 37 35  1  0  0  0  0
 39 38  1  0  0  0  0
 40 30  1  0  0  0  0
 41 40  1  0  0  0  0
 42 41  1  1  0  0  0
 43 42  1  0  0  0  0
 43 44  1  0  0  0  0
 45 43  2  0  0  0  0
 46 47  2  0  0  0  0
 47 48  1  0  0  0  0
 47 42  1  0  0  0  0
M  END
>  <MODEL>
5

>  <REMARK>
 VINA RESULT:      -6.1      2.048      3.661
  Name = 
  17 active torsions:
  status: ('A' for Active; 'I' for Inactive)
    1  A    between atoms: C_1  and  C_45
    2  A    between atoms: C_5  and  C_8
    3  A    between atoms: C_6  and  C_41
    4  A    between atoms: C_6  and  C_42
    5  A    between atoms: C_8  and  C_17
    6  A    between atoms: C_9  and  C_11
    7  A    between atoms: C_9  and  C_12
    8  A    between atoms: C_9  and  C_31
    9  A    between atoms: C_12  and  C_20
   10  A    between atoms: N_16  and  C_20
   11  A    between atoms: N_16  and  C_45
   12  A    between atoms: N_21  and  C_38
   13  A    between atoms: C_22  and  C_48
   14  A    between atoms: O_23  and  C_42
   15  A    between atoms: C_24  and  C_43
   16  A    between atoms: C_28  and  C_29
   17  A    between atoms: C_41  and  C_43
                            x       y       z     vdW  Elec       q    Type
                         _______ _______ _______ _____ _____    ______ ____

>  <TORSDO>
F 17

$$$$
=
 OpenBabel11062418253D

 48 51  0  0  1  0  0  0  0  0999 V2000
  190.5270  171.6980  141.2200 N   0  0  0  0  0  2  0  0  0  0  0  0
  191.9860  173.3630  141.8770 C   0  0  1  0  0  3  0  0  0  0  0  0
  191.1540  172.2450  142.4000 C   0  0  2  0  0  3  0  0  0  0  0  0
  190.4330  172.7500  140.2830 N   0  0  0  0  0  2  0  0  0  0  0  0
  191.3300  173.7790  140.6530 N   0  0  0  0  0  2  0  0  0  0  0  0
  190.9820  174.7990  143.7130 N   0  0  0  0  0  2  0  0  0  0  0  0
  193.1390  175.1710  142.8980 O   0  0  0  0  0  0  0  0  0  0  0  0
  192.0770  174.4950  142.8460 C   0  0  0  0  0  0  0  0  0  0  0  0
  189.5140  176.6650  146.4190 C   0  0  0  0  0  2  0  0  0  0  0  0
  189.0520  177.3840  145.1590 C   0  0  1  0  0  3  0  0  0  0  0  0
  190.9600  178.2740  143.8340 C   0  0  0  0  0  2  0  0  0  0  0  0
  189.0410  178.3300  142.4310 O   0  0  0  0  0  1  0  0  0  0  0  0
  190.1860  177.5880  142.7220 C   0  0  2  0  0  3  0  0  0  0  0  0
  191.0270  175.9310  144.6310 C   0  0  1  0  0  3  0  0  0  0  0  0
  190.1270  177.0460  144.1480 C   0  0  2  0  0  0  0  0  0  0  0  0
  190.4310  175.5260  145.9680 C   0  0  0  0  0  2  0  0  0  0  0  0
  187.7080  176.8580  144.7320 C   0  0  0  0  0  0  0  0  0  0  0  0
  187.6390  175.8010  144.0430 O   0  0  0  0  0  0  0  0  0  0  0  0
  185.6210  177.0270  146.0960 C   0  0  0  0  0  3  0  0  0  0  0  0
  184.1210  178.9160  145.8420 C   0  0  0  0  0  3  0  0  0  0  0  0
  186.4720  177.5610  145.1180 C   0  0  0  0  0  0  0  0  0  0  0  0
  184.9630  179.4530  144.8670 C   0  0  0  0  0  3  0  0  0  0  0  0
  186.1340  178.7800  144.5070 C   0  0  0  0  0  3  0  0  0  0  0  0
  184.4500  177.7040  146.4580 C   0  0  0  0  0  3  0  0  0  0  0  0
  193.2100  170.9460  142.5460 C   0  0  0  0  0  3  0  0  0  0  0  0
  192.0130  171.2210  143.0520 C   0  0  0  0  0  3  0  0  0  0  0  0
  193.5540  168.8910  143.7310 C   0  0  0  0  0  2  0  0  0  0  0  0
  194.1060  169.9210  143.1000 C   0  0  0  0  0  0  0  0  0  0  0  0
  197.6110  170.1790  144.1050 O   0  0  0  0  0  0  0  0  0  0  0  0
  195.5420  170.0340  143.0100 N   0  0  0  0  0  0  0  0  0  0  0  0
  196.3560  170.3140  144.1700 C   0  0  0  0  0  0  0  0  0  0  0  0
  196.1220  170.0070  146.6570 C   0  0  0  0  0  1  0  0  0  0  0  0
  195.7350  170.8340  145.4380 C   0  0  1  0  0  3  0  0  0  0  0  0
  195.9820  172.3330  145.6310 C   0  0  0  0  0  2  0  0  0  0  0  0
  194.7430  173.1940  145.3730 C   0  0  0  0  0  2  0  0  0  0  0  0
  196.0320  175.1900  145.1510 O   0  0  0  0  0  0  0  0  0  0  0  0
  195.0190  174.6390  145.6600 C   0  0  0  0  0  0  0  0  0  0  0  0
  194.1980  176.8030  146.5120 C   0  0  0  0  0  1  0  0  0  0  0  0
  194.1970  175.3830  146.5070 O   0  0  0  0  0  0  0  0  0  0  0  0
  196.2020  169.7560  141.7400 C   0  0  0  0  0  2  0  0  0  0  0  0
  197.1980  170.8630  141.4160 C   0  0  0  0  0  2  0  0  0  0  0  0
  196.5170  172.1410  140.9180 C   0  0  2  0  0  3  0  0  0  0  0  0
  196.8860  172.4790  139.4990 C   0  0  0  0  0  0  0  0  0  0  0  0
  197.7050  171.6380  138.7500 O   0  0  0  0  0  0  0  0  0  0  0  0
  196.4950  173.5650  138.9970 O   0  0  0  0  0  1  0  0  0  0  0  0
  195.7460  174.0870  142.0440 O   0  0  0  0  0  0  0  0  0  0  0  0
  196.6610  173.2970  141.8700 C   0  0  0  0  0  0  0  0  0  0  0  0
  197.9320  173.4650  142.6300 C   0  0  0  0  0  1  0  0  0  0  0  0
  1  3  1  0  0  0  0
  2  3  1  0  0  0  0
  2  8  1  1  0  0  0
  3 26  1  6  0  0  0
  4  5  1  0  0  0  0
  4  1  1  0  0  0  0
  5  2  1  0  0  0  0
  8  7  2  0  0  0  0
  8  6  1  0  0  0  0
 10 17  1  6  0  0  0
 10  9  1  0  0  0  0
 13 12  1  1  0  0  0
 13 11  1  0  0  0  0
 13 15  1  0  0  0  0
 14  6  1  6  0  0  0
 14 16  1  0  0  0  0
 15 11  1  1  0  0  0
 15 14  1  0  0  0  0
 15 10  1  0  0  0  0
 16  9  1  0  0  0  0
 17 21  1  0  0  0  0
 18 17  2  0  0  0  0
 19 24  1  0  0  0  0
 20 24  2  0  0  0  0
 21 19  2  0  0  0  0
 22 20  1  0  0  0  0
 23 22  2  0  0  0  0
 23 21  1  0  0  0  0
 25 26  2  0  0  0  0
 25 28  1  0  0  0  0
 28 27  2  0  0  0  0
 29 31  2  0  0  0  0
 30 28  1  0  0  0  0
 30 31  1  0  0  0  0
 31 33  1  0  0  0  0
 33 34  1  0  0  0  0
 33 32  1  1  0  0  0
 35 34  1  0  0  0  0
 35 37  1  0  0  0  0
 36 37  2  0  0  0  0
 37 39  1  0  0  0  0
 39 38  1  0  0  0  0
 40 30  1  0  0  0  0
 41 40  1  0  0  0  0
 42 41  1  1  0  0  0
 42 47  1  0  0  0  0
 43 42  1  0  0  0  0
 44 43  2  0  0  0  0
 45 43  1  0  0  0  0
 47 46  2  0  0  0  0
 47 48  1  0  0  0  0
M  END
>  <MODEL>
6

>  <REMARK>
 VINA RESULT:      -5.9      2.376      4.252
  Name = 
  17 active torsions:
  status: ('A' for Active; 'I' for Inactive)
    1  A    between atoms: C_1  and  C_45
    2  A    between atoms: C_5  and  C_8
    3  A    between atoms: C_6  and  C_41
    4  A    between atoms: C_6  and  C_42
    5  A    between atoms: C_8  and  C_17
    6  A    between atoms: C_9  and  C_11
    7  A    between atoms: C_9  and  C_12
    8  A    between atoms: C_9  and  C_31
    9  A    between atoms: C_12  and  C_20
   10  A    between atoms: N_16  and  C_20
   11  A    between atoms: N_16  and  C_45
   12  A    between atoms: N_21  and  C_38
   13  A    between atoms: C_22  and  C_48
   14  A    between atoms: O_23  and  C_42
   15  A    between atoms: C_24  and  C_43
   16  A    between atoms: C_28  and  C_29
   17  A    between atoms: C_41  and  C_43
                            x       y       z     vdW  Elec       q    Type
                         _______ _______ _______ _____ _____    ______ ____

>  <TORSDO>
F 17

$$$$
=
 OpenBabel11062418253D

 48 51  0  0  1  0  0  0  0  0999 V2000
  188.1920  173.6310  140.3370 N   0  0  0  0  0  2  0  0  0  0  0  0
  190.1740  172.4950  140.0010 C   0  0  1  0  0  3  0  0  0  0  0  0
  189.6220  173.8100  140.4260 C   0  0  2  0  0  3  0  0  0  0  0  0
  187.9650  172.6470  139.3510 N   0  0  0  0  0  2  0  0  0  0  0  0
  189.1620  171.9230  139.1370 N   0  0  0  0  0  2  0  0  0  0  0  0
  192.7110  172.5700  139.9940 N   0  0  0  0  0  2  0  0  0  0  0  0
  191.4650  172.8090  138.0330 O   0  0  0  0  0  0  0  0  0  0  0  0
  191.4740  172.6380  139.2810 C   0  0  0  0  0  0  0  0  0  0  0  0
  196.2670  172.0270  139.8730 C   0  0  0  0  0  2  0  0  0  0  0  0
  196.1080  173.4040  140.5000 C   0  0  1  0  0  3  0  0  0  0  0  0
  194.9720  175.0060  138.9720 C   0  0  0  0  0  2  0  0  0  0  0  0
  194.9470  175.9690  141.1460 O   0  0  0  0  0  1  0  0  0  0  0  0
  194.1670  175.2560  140.2350 C   0  0  2  0  0  3  0  0  0  0  0  0
  193.9910  172.7590  139.3220 C   0  0  1  0  0  3  0  0  0  0  0  0
  194.7720  173.8800  139.9700 C   0  0  2  0  0  0  0  0  0  0  0  0
  194.8610  171.5320  139.5280 C   0  0  0  0  0  2  0  0  0  0  0  0
  196.0950  173.2870  142.0000 C   0  0  0  0  0  0  0  0  0  0  0  0
  197.0610  173.7470  142.6730 O   0  0  0  0  0  0  0  0  0  0  0  0
  193.9220  173.4220  143.2270 C   0  0  0  0  0  3  0  0  0  0  0  0
  192.8080  171.4130  144.0050 C   0  0  0  0  0  3  0  0  0  0  0  0
  194.9620  172.6480  142.6910 C   0  0  0  0  0  0  0  0  0  0  0  0
  193.8400  170.6360  143.4750 C   0  0  0  0  0  3  0  0  0  0  0  0
  194.9120  171.2500  142.8200 C   0  0  0  0  0  3  0  0  0  0  0  0
  192.8480  172.8050  143.8790 C   0  0  0  0  0  3  0  0  0  0  0  0
  189.0930  174.1730  142.7760 C   0  0  0  0  0  3  0  0  0  0  0  0
  190.0200  174.1120  141.8270 C   0  0  0  0  0  3  0  0  0  0  0  0
  189.7370  173.5120  144.9890 C   0  0  0  0  0  2  0  0  0  0  0  0
  189.3910  174.5050  144.1770 C   0  0  0  0  0  0  0  0  0  0  0  0
  190.1300  178.0340  144.7780 O   0  0  0  0  0  0  0  0  0  0  0  0
  189.2750  175.8510  144.6830 N   0  0  0  0  0  0  0  0  0  0  0  0
  190.3440  176.8120  144.5360 C   0  0  0  0  0  0  0  0  0  0  0  0
  192.3010  177.1470  142.9900 C   0  0  0  0  0  1  0  0  0  0  0  0
  191.7340  176.3660  144.1690 C   0  0  1  0  0  3  0  0  0  0  0  0
  192.6730  176.3440  145.3780 C   0  0  0  0  0  2  0  0  0  0  0  0
  193.9540  177.1540  145.1700 C   0  0  0  0  0  2  0  0  0  0  0  0
  196.0410  176.3820  144.3070 O   0  0  0  0  0  0  0  0  0  0  0  0
  195.1650  176.2710  145.2060 C   0  0  0  0  0  0  0  0  0  0  0  0
  196.0540  174.1010  145.9730 C   0  0  0  0  0  1  0  0  0  0  0  0
  195.3310  175.3030  146.1980 O   0  0  0  0  0  0  0  0  0  0  0  0
  188.0110  176.2910  145.2620 C   0  0  0  0  0  2  0  0  0  0  0  0
  186.9730  176.4850  144.1630 C   0  0  0  0  0  2  0  0  0  0  0  0
  186.9840  177.9040  143.5860 C   0  0  2  0  0  3  0  0  0  0  0  0
  185.7320  178.6720  143.9120 C   0  0  0  0  0  0  0  0  0  0  0  0
  185.7180  180.0650  143.8890 O   0  0  0  0  0  0  0  0  0  0  0  0
  184.6960  178.0510  144.2640 O   0  0  0  0  0  1  0  0  0  0  0  0
  188.4790  178.2680  141.7740 O   0  0  0  0  0  0  0  0  0  0  0  0
  187.3550  177.9460  142.1280 C   0  0  0  0  0  0  0  0  0  0  0  0
  186.3430  177.5640  141.1050 C   0  0  0  0  0  1  0  0  0  0  0  0
  1  3  1  0  0  0  0
  2  8  1  6  0  0  0
  2  3  1  0  0  0  0
  3 26  1  1  0  0  0
  4  1  1  0  0  0  0
  5  4  1  0  0  0  0
  5  2  1  0  0  0  0
  7  8  2  0  0  0  0
  8  6  1  0  0  0  0
  9 10  1  0  0  0  0
 10 17  1  1  0  0  0
 11 13  1  0  0  0  0
 13 12  1  1  0  0  0
 14 16  1  0  0  0  0
 14 15  1  0  0  0  0
 14  6  1  1  0  0  0
 15 11  1  6  0  0  0
 15 13  1  0  0  0  0
 15 10  1  0  0  0  0
 16  9  1  0  0  0  0
 17 18  2  0  0  0  0
 17 21  1  0  0  0  0
 19 24  1  0  0  0  0
 21 23  1  0  0  0  0
 21 19  2  0  0  0  0
 22 20  1  0  0  0  0
 23 22  2  0  0  0  0
 24 20  2  0  0  0  0
 25 28  1  0  0  0  0
 26 25  2  0  0  0  0
 28 30  1  0  0  0  0
 28 27  2  0  0  0  0
 30 40  1  0  0  0  0
 31 30  1  0  0  0  0
 31 29  2  0  0  0  0
 33 32  1  6  0  0  0
 33 31  1  0  0  0  0
 33 34  1  0  0  0  0
 35 37  1  0  0  0  0
 35 34  1  0  0  0  0
 36 37  2  0  0  0  0
 37 39  1  0  0  0  0
 38 39  1  0  0  0  0
 41 40  1  0  0  0  0
 42 43  1  0  0  0  0
 42 41  1  6  0  0  0
 43 45  1  0  0  0  0
 44 43  2  0  0  0  0
 46 47  2  0  0  0  0
 47 42  1  0  0  0  0
 48 47  1  0  0  0  0
M  END
>  <MODEL>
7

>  <REMARK>
 VINA RESULT:      -5.8      2.445      7.696
  Name = 
  17 active torsions:
  status: ('A' for Active; 'I' for Inactive)
    1  A    between atoms: C_1  and  C_45
    2  A    between atoms: C_5  and  C_8
    3  A    between atoms: C_6  and  C_41
    4  A    between atoms: C_6  and  C_42
    5  A    between atoms: C_8  and  C_17
    6  A    between atoms: C_9  and  C_11
    7  A    between atoms: C_9  and  C_12
    8  A    between atoms: C_9  and  C_31
    9  A    between atoms: C_12  and  C_20
   10  A    between atoms: N_16  and  C_20
   11  A    between atoms: N_16  and  C_45
   12  A    between atoms: N_21  and  C_38
   13  A    between atoms: C_22  and  C_48
   14  A    between atoms: O_23  and  C_42
   15  A    between atoms: C_24  and  C_43
   16  A    between atoms: C_28  and  C_29
   17  A    between atoms: C_41  and  C_43
                            x       y       z     vdW  Elec       q    Type
                         _______ _______ _______ _____ _____    ______ ____

>  <TORSDO>
F 17

$$$$
=
 OpenBabel11062418253D

 48 51  0  0  1  0  0  0  0  0999 V2000
  189.1400  174.3520  141.3640 N   0  0  0  0  0  2  0  0  0  0  0  0
  190.6120  172.8250  142.2780 C   0  0  1  0  0  3  0  0  0  0  0  0
  190.5480  174.1600  141.6240 C   0  0  2  0  0  3  0  0  0  0  0  0
  188.5730  173.0670  141.2240 N   0  0  0  0  0  2  0  0  0  0  0  0
  189.4480  172.1120  141.7910 N   0  0  0  0  0  2  0  0  0  0  0  0
  192.8560  172.6980  141.1000 N   0  0  0  0  0  2  0  0  0  0  0  0
  192.0510  170.9410  142.4120 O   0  0  0  0  0  0  0  0  0  0  0  0
  191.8680  172.0940  141.9390 C   0  0  0  0  0  0  0  0  0  0  0  0
  196.4480  172.4660  141.0600 C   0  0  0  0  0  2  0  0  0  0  0  0
  196.0860  173.0930  139.7210 C   0  0  1  0  0  3  0  0  0  0  0  0
  194.6590  171.5960  138.3390 C   0  0  0  0  0  2  0  0  0  0  0  0
  194.5440  173.7660  137.3740 O   0  0  0  0  0  1  0  0  0  0  0  0
  193.8630  172.8830  138.2120 C   0  0  2  0  0  3  0  0  0  0  0  0
  194.0670  171.9850  140.7110 C   0  0  1  0  0  3  0  0  0  0  0  0
  194.6750  172.6030  139.4730 C   0  0  2  0  0  0  0  0  0  0  0  0
  195.1310  172.1680  141.7790 C   0  0  0  0  0  2  0  0  0  0  0  0
  196.1390  174.5930  139.8260 C   0  0  0  0  0  0  0  0  0  0  0  0
  196.2670  175.2900  138.7800 O   0  0  0  0  0  0  0  0  0  0  0  0
  197.1820  175.5310  141.8950 C   0  0  0  0  0  3  0  0  0  0  0  0
  195.8150  176.5210  143.6360 C   0  0  0  0  0  3  0  0  0  0  0  0
  196.0330  175.2560  141.1370 C   0  0  0  0  0  0  0  0  0  0  0  0
  194.6670  176.2490  142.8880 C   0  0  0  0  0  3  0  0  0  0  0  0
  194.7750  175.6210  141.6440 C   0  0  0  0  0  3  0  0  0  0  0  0
  197.0720  176.1630  143.1390 C   0  0  0  0  0  3  0  0  0  0  0  0
  190.2060  175.8430  143.3520 C   0  0  0  0  0  3  0  0  0  0  0  0
  191.0520  175.2140  142.5460 C   0  0  0  0  0  3  0  0  0  0  0  0
  191.1950  177.9930  143.7360 C   0  0  0  0  0  2  0  0  0  0  0  0
  190.6100  176.9240  144.2640 C   0  0  0  0  0  0  0  0  0  0  0  0
  191.3780  176.5830  147.8210 O   0  0  0  0  0  0  0  0  0  0  0  0
  190.4250  176.8260  145.6910 N   0  0  0  0  0  0  0  0  0  0  0  0
  191.5020  176.4380  146.5710 C   0  0  0  0  0  0  0  0  0  0  0  0
  194.0180  176.3870  146.6200 C   0  0  0  0  0  1  0  0  0  0  0  0
  192.7470  175.7920  146.0250 C   0  0  1  0  0  3  0  0  0  0  0  0
  192.6990  174.2660  146.1240 C   0  0  0  0  0  2  0  0  0  0  0  0
  193.3570  173.5560  144.9390 C   0  0  0  0  0  2  0  0  0  0  0  0
  195.7020  173.3670  145.3440 O   0  0  0  0  0  0  0  0  0  0  0  0
  194.5770  172.7990  145.3700 C   0  0  0  0  0  0  0  0  0  0  0  0
  195.1660  170.4220  145.0740 C   0  0  0  0  0  1  0  0  0  0  0  0
  194.5010  171.4650  145.7720 O   0  0  0  0  0  0  0  0  0  0  0  0
  189.1510  177.2300  146.2770 C   0  0  0  0  0  2  0  0  0  0  0  0
  187.9980  176.6780  145.4480 C   0  0  0  0  0  2  0  0  0  0  0  0
  187.0410  177.7730  144.9680 C   0  0  2  0  0  3  0  0  0  0  0  0
  185.8140  177.8910  145.8290 C   0  0  0  0  0  0  0  0  0  0  0  0
  185.3170  176.7910  146.5250 O   0  0  0  0  0  1  0  0  0  0  0  0
  185.1920  178.9840  145.8800 O   0  0  0  0  0  0  0  0  0  0  0  0
  186.8490  178.6690  142.7730 O   0  0  0  0  0  0  0  0  0  0  0  0
  186.7400  177.6890  143.4950 C   0  0  0  0  0  0  0  0  0  0  0  0
  186.3240  176.3850  142.9070 C   0  0  0  0  0  1  0  0  0  0  0  0
  1  3  1  0  0  0  0
  2  8  1  6  0  0  0
  3  2  1  0  0  0  0
  3 26  1  1  0  0  0
  4  1  1  0  0  0  0
  4  5  1  0  0  0  0
  5  2  1  0  0  0  0
  6  8  1  0  0  0  0
  8  7  2  0  0  0  0
  9 16  1  0  0  0  0
 10 17  1  1  0  0  0
 10  9  1  0  0  0  0
 13 12  1  6  0  0  0
 13 11  1  0  0  0  0
 13 15  1  0  0  0  0
 14  6  1  1  0  0  0
 14 16  1  0  0  0  0
 15 11  1  6  0  0  0
 15 10  1  0  0  0  0
 15 14  1  0  0  0  0
 17 21  1  0  0  0  0
 18 17  2  0  0  0  0
 19 24  1  0  0  0  0
 21 23  1  0  0  0  0
 21 19  2  0  0  0  0
 22 20  1  0  0  0  0
 23 22  2  0  0  0  0
 24 20  2  0  0  0  0
 25 28  1  0  0  0  0
 26 25  2  0  0  0  0
 27 28  2  0  0  0  0
 28 30  1  0  0  0  0
 30 40  1  0  0  0  0
 30 31  1  0  0  0  0
 31 29  2  0  0  0  0
 33 34  1  0  0  0  0
 33 31  1  0  0  0  0
 33 32  1  1  0  0  0
 35 37  1  0  0  0  0
 35 34  1  0  0  0  0
 36 37  2  0  0  0  0
 37 39  1  0  0  0  0
 38 39  1  0  0  0  0
 41 40  1  0  0  0  0
 42 41  1  1  0  0  0
 42 43  1  0  0  0  0
 43 45  2  0  0  0  0
 43 44  1  0  0  0  0
 46 47  2  0  0  0  0
 47 42  1  0  0  0  0
 48 47  1  0  0  0  0
M  END
>  <MODEL>
8

>  <REMARK>
 VINA RESULT:      -5.8      2.183      8.040
  Name = 
  17 active torsions:
  status: ('A' for Active; 'I' for Inactive)
    1  A    between atoms: C_1  and  C_45
    2  A    between atoms: C_5  and  C_8
    3  A    between atoms: C_6  and  C_41
    4  A    between atoms: C_6  and  C_42
    5  A    between atoms: C_8  and  C_17
    6  A    between atoms: C_9  and  C_11
    7  A    between atoms: C_9  and  C_12
    8  A    between atoms: C_9  and  C_31
    9  A    between atoms: C_12  and  C_20
   10  A    between atoms: N_16  and  C_20
   11  A    between atoms: N_16  and  C_45
   12  A    between atoms: N_21  and  C_38
   13  A    between atoms: C_22  and  C_48
   14  A    between atoms: O_23  and  C_42
   15  A    between atoms: C_24  and  C_43
   16  A    between atoms: C_28  and  C_29
   17  A    between atoms: C_41  and  C_43
                            x       y       z     vdW  Elec       q    Type
                         _______ _______ _______ _____ _____    ______ ____

>  <TORSDO>
F 17

$$$$
=
 OpenBabel11062418253D

 48 51  0  0  1  0  0  0  0  0999 V2000
  192.3750  169.8210  142.3290 N   0  0  0  0  0  2  0  0  0  0  0  0
  193.1560  171.1180  144.0720 C   0  0  1  0  0  3  0  0  0  0  0  0
  192.4720  171.1980  142.7520 C   0  0  2  0  0  3  0  0  0  0  0  0
  193.4470  169.1310  142.9350 N   0  0  0  0  0  2  0  0  0  0  0  0
  193.9350  169.8980  144.0190 N   0  0  0  0  0  2  0  0  0  0  0  0
  193.5240  173.4490  145.0070 N   0  0  0  0  0  2  0  0  0  0  0  0
  195.2280  172.2700  143.9300 O   0  0  0  0  0  0  0  0  0  0  0  0
  194.0310  172.3010  144.3210 C   0  0  0  0  0  0  0  0  0  0  0  0
  193.8750  176.7920  146.2930 C   0  0  0  0  0  2  0  0  0  0  0  0
  193.5380  176.9790  144.8210 C   0  0  1  0  0  3  0  0  0  0  0  0
  195.2490  175.9590  143.3300 C   0  0  0  0  0  2  0  0  0  0  0  0
  193.3340  176.4120  141.9960 O   0  0  0  0  0  1  0  0  0  0  0  0
  193.9950  175.3950  142.6870 C   0  0  2  0  0  3  0  0  0  0  0  0
  194.3420  174.6370  145.2170 C   0  0  1  0  0  3  0  0  0  0  0  0
  194.0240  175.6940  144.1840 C   0  0  2  0  0  0  0  0  0  0  0  0
  193.9700  175.2850  146.5390 C   0  0  0  0  0  2  0  0  0  0  0  0
  192.0530  177.1510  144.6520 C   0  0  0  0  0  0  0  0  0  0  0  0
  191.6100  178.0580  143.8920 O   0  0  0  0  0  0  0  0  0  0  0  0
  190.7610  175.0180  144.8210 C   0  0  0  0  0  3  0  0  0  0  0  0
  189.3160  174.5890  146.7210 C   0  0  0  0  0  3  0  0  0  0  0  0
  191.1120  176.2650  145.3590 C   0  0  0  0  0  0  0  0  0  0  0  0
  189.6600  175.8290  147.2620 C   0  0  0  0  0  3  0  0  0  0  0  0
  190.5540  176.6640  146.5850 C   0  0  0  0  0  3  0  0  0  0  0  0
  189.8680  174.1820  145.5020 C   0  0  0  0  0  3  0  0  0  0  0  0
  190.3270  171.9100  141.8440 C   0  0  0  0  0  3  0  0  0  0  0  0
  191.1160  171.7900  142.9050 C   0  0  0  0  0  3  0  0  0  0  0  0
  188.2560  172.3110  142.9820 C   0  0  0  0  0  2  0  0  0  0  0  0
  188.9900  172.5200  141.8960 C   0  0  0  0  0  0  0  0  0  0  0  0
  188.0350  175.3850  139.8370 O   0  0  0  0  0  0  0  0  0  0  0  0
  188.4580  173.2870  140.7950 N   0  0  0  0  0  0  0  0  0  0  0  0
  188.2810  174.7170  140.8810 C   0  0  0  0  0  0  0  0  0  0  0  0
  189.1820  176.6660  142.1930 C   0  0  0  0  0  1  0  0  0  0  0  0
  188.3120  175.4170  142.2140 C   0  0  1  0  0  3  0  0  0  0  0  0
  186.9070  175.6770  142.7630 C   0  0  0  0  0  2  0  0  0  0  0  0
  186.8900  176.6050  143.9800 C   0  0  0  0  0  2  0  0  0  0  0  0
  186.3150  178.6710  142.9340 O   0  0  0  0  0  0  0  0  0  0  0  0
  185.9810  177.7760  143.7550 C   0  0  0  0  0  0  0  0  0  0  0  0
  184.7390  177.9520  145.8790 C   0  0  0  0  0  1  0  0  0  0  0  0
  184.7840  177.9150  144.4600 O   0  0  0  0  0  0  0  0  0  0  0  0
  188.1920  172.6220  139.5240 C   0  0  0  0  0  2  0  0  0  0  0  0
  189.2760  172.9750  138.5130 C   0  0  0  0  0  2  0  0  0  0  0  0
  190.3530  171.8920  138.4030 C   0  0  2  0  0  3  0  0  0  0  0  0
  191.7480  172.4520  138.4670 C   0  0  0  0  0  0  0  0  0  0  0  0
  191.9710  173.7890  138.7920 O   0  0  0  0  0  1  0  0  0  0  0  0
  192.7260  171.7190  138.1700 O   0  0  0  0  0  0  0  0  0  0  0  0
  190.2650  171.3370  136.0930 O   0  0  0  0  0  0  0  0  0  0  0  0
  190.1320  170.9550  137.2460 C   0  0  0  0  0  0  0  0  0  0  0  0
  189.7690  169.5360  137.5130 C   0  0  0  0  0  1  0  0  0  0  0  0
  1  3  1  0  0  0  0
  1  4  1  0  0  0  0
  2  8  1  6  0  0  0
  3 26  1  1  0  0  0
  3  2  1  0  0  0  0
  4  5  1  0  0  0  0
  5  2  1  0  0  0  0
  7  8  2  0  0  0  0
  8  6  1  0  0  0  0
  9 16  1  0  0  0  0
 10 17  1  1  0  0  0
 10  9  1  0  0  0  0
 13 12  1  6  0  0  0
 13 11  1  0  0  0  0
 13 15  1  0  0  0  0
 14  6  1  6  0  0  0
 14 16  1  0  0  0  0
 15 11  1  6  0  0  0
 15 10  1  0  0  0  0
 15 14  1  0  0  0  0
 17 21  1  0  0  0  0
 18 17  2  0  0  0  0
 19 21  2  0  0  0  0
 19 24  1  0  0  0  0
 20 22  1  0  0  0  0
 21 23  1  0  0  0  0
 23 22  2  0  0  0  0
 24 20  2  0  0  0  0
 25 28  1  0  0  0  0
 25 26  2  0  0  0  0
 28 27  2  0  0  0  0
 29 31  2  0  0  0  0
 30 31  1  0  0  0  0
 30 28  1  0  0  0  0
 31 33  1  0  0  0  0
 33 32  1  6  0  0  0
 33 34  1  0  0  0  0
 34 35  1  0  0  0  0
 36 37  2  0  0  0  0
 37 35  1  0  0  0  0
 37 39  1  0  0  0  0
 39 38  1  0  0  0  0
 40 30  1  0  0  0  0
 41 40  1  0  0  0  0
 42 43  1  0  0  0  0
 42 41  1  6  0  0  0
 43 44  1  0  0  0  0
 45 43  2  0  0  0  0
 46 47  2  0  0  0  0
 47 48  1  0  0  0  0
 47 42  1  0  0  0  0
M  END
>  <MODEL>
9

>  <REMARK>
 VINA RESULT:      -5.7      2.466      5.880
  Name = 
  17 active torsions:
  status: ('A' for Active; 'I' for Inactive)
    1  A    between atoms: C_1  and  C_45
    2  A    between atoms: C_5  and  C_8
    3  A    between atoms: C_6  and  C_41
    4  A    between atoms: C_6  and  C_42
    5  A    between atoms: C_8  and  C_17
    6  A    between atoms: C_9  and  C_11
    7  A    between atoms: C_9  and  C_12
    8  A    between atoms: C_9  and  C_31
    9  A    between atoms: C_12  and  C_20
   10  A    between atoms: N_16  and  C_20
   11  A    between atoms: N_16  and  C_45
   12  A    between atoms: N_21  and  C_38
   13  A    between atoms: C_22  and  C_48
   14  A    between atoms: O_23  and  C_42
   15  A    between atoms: C_24  and  C_43
   16  A    between atoms: C_28  and  C_29
   17  A    between atoms: C_41  and  C_43
                            x       y       z     vdW  Elec       q    Type
                         _______ _______ _______ _____ _____    ______ ____

>  <TORSDO>
F 17

$$$$
