=
 OpenBabel11062419543D

 30 34  0  0  1  0  0  0  0  0999 V2000
  193.3540  176.4450  142.2790 C   0  0  2  0  0  3  0  0  0  0  0  0
  190.6460  173.7280  140.6870 C   0  0  0  0  0  2  0  0  0  0  0  0
  190.9640  173.9080  142.1540 C   0  0  1  0  0  3  0  0  0  0  0  0
  189.3590  174.2330  144.1520 C   0  0  0  0  0  2  0  0  0  0  0  0
  191.1550  176.7290  145.2830 O   0  0  0  0  0  0  0  0  0  0  0  0
  188.7950  175.6310  143.9380 C   0  0  0  0  0  2  0  0  0  0  0  0
  189.2100  173.9150  140.5090 N   0  0  0  0  0  2  0  0  0  0  0  0
  191.2910  175.2480  142.3950 O   0  0  0  0  0  0  0  0  0  0  0  0
  188.5800  173.6180  141.7920 C   0  0  0  0  0  2  0  0  0  0  0  0
  189.9270  177.3900  145.3190 C   0  0  0  0  0  2  0  0  0  0  0  0
  192.6260  175.2140  142.8160 C   0  0  2  0  0  3  0  0  0  0  0  0
  191.8220  177.2900  144.1930 C   0  0  0  0  0  2  0  0  0  0  0  0
  189.6720  173.5050  142.8390 C   0  0  1  0  0  3  0  0  0  0  0  0
  194.8100  176.0860  142.0290 C   0  0  0  0  0  1  0  0  0  0  0  0
  188.7810  176.3880  145.2580 C   0  0  1  0  0  3  0  0  0  0  0  0
  192.9520  176.3700  143.7450 C   0  0  2  0  0  0  0  0  0  0  0  0
  183.8010  178.9340  146.0730 F   0  0  0  0  0  0  0  0  0  0  0  0
  185.4030  177.2910  146.7130 C   0  0  0  0  0  3  0  0  0  0  0  0
  185.8210  178.7440  144.8220 C   0  0  0  0  0  3  0  0  0  0  0  0
  184.9950  178.3300  145.8720 C   0  0  0  0  0  0  0  0  0  0  0  0
  186.6360  176.6650  146.5070 C   0  0  0  0  0  3  0  0  0  0  0  0
  187.0540  178.1200  144.6140 C   0  0  0  0  0  3  0  0  0  0  0  0
  187.4670  177.0750  145.4580 C   0  0  0  0  0  0  0  0  0  0  0  0
  194.0060  176.0660  144.7120 N   0  0  0  0  0  2  0  0  0  0  0  0
  196.1480  172.9630  145.1920 N   0  0  0  0  0  0  0  0  0  0  0  0
  193.5030  173.8230  145.3210 C   0  0  0  0  0  3  0  0  0  0  0  0
  195.1270  172.0340  145.5700 C   0  0  0  0  0  3  0  0  0  0  0  0
  195.9040  174.4050  145.1200 C   0  0  0  0  0  3  0  0  0  0  0  0
  194.4320  174.7380  145.0320 C   0  0  0  0  0  0  0  0  0  0  0  0
  193.8610  172.4340  145.6470 C   0  0  0  0  0  3  0  0  0  0  0  0
  1 14  1  1  0  0  0
  1 11  1  0  0  0  0
  1 16  1  0  0  0  0
  3  2  1  6  0  0  0
  3  8  1  0  0  0  0
  3 13  1  0  0  0  0
  5 10  1  0  0  0  0
  6  4  1  0  0  0  0
  6 15  1  0  0  0  0
  7  2  1  0  0  0  0
  7  9  1  0  0  0  0
 11  8  1  6  0  0  0
 11 16  1  0  0  0  0
 12  5  1  0  0  0  0
 13  9  1  6  0  0  0
 13  4  1  0  0  0  0
 15 10  1  0  0  0  0
 15 23  1  6  0  0  0
 16 12  1  0  0  0  0
 16 24  1  1  0  0  0
 19 20  1  0  0  0  0
 20 17  1  0  0  0  0
 20 18  2  0  0  0  0
 21 18  1  0  0  0  0
 22 19  2  0  0  0  0
 22 23  1  0  0  0  0
 23 21  2  0  0  0  0
 24 29  1  0  0  0  0
 25 27  1  0  0  0  0
 26 30  1  0  0  0  0
 27 30  2  0  0  0  0
 28 25  2  0  0  0  0
 29 28  1  0  0  0  0
 29 26  2  0  0  0  0
M  END
>  <MODEL>
1

>  <REMARK>
 VINA RESULT:      -8.1      0.000      0.000
  Name = 
  3 active torsions:
  status: ('A' for Active; 'I' for Inactive)
    1  A    between atoms: N_14  and  C_17
    2  A    between atoms: N_14  and  C_29
    3  A    between atoms: C_28  and  C_30
                            x       y       z     vdW  Elec       q    Type
                         _______ _______ _______ _____ _____    ______ ____

>  <TORSDO>
F 3

$$$$
=
 OpenBabel11062419543D

 30 34  0  0  1  0  0  0  0  0999 V2000
  193.1390  175.2030  141.3170 C   0  0  2  0  0  3  0  0  0  0  0  0
  191.0730  171.7750  142.4280 C   0  0  0  0  0  2  0  0  0  0  0  0
  191.6710  172.7960  143.3700 C   0  0  1  0  0  3  0  0  0  0  0  0
  190.5830  174.0160  145.3700 C   0  0  0  0  0  2  0  0  0  0  0  0
  191.7620  176.8970  144.3470 O   0  0  0  0  0  0  0  0  0  0  0  0
  189.5880  174.9670  144.7160 C   0  0  0  0  0  2  0  0  0  0  0  0
  189.6490  171.6620  142.7280 N   0  0  0  0  0  2  0  0  0  0  0  0
  191.6260  174.0600  142.7710 O   0  0  0  0  0  0  0  0  0  0  0  0
  189.4720  172.0800  144.1150 C   0  0  0  0  0  2  0  0  0  0  0  0
  190.4390  177.3140  144.5010 C   0  0  0  0  0  2  0  0  0  0  0  0
  192.9700  174.4250  142.6220 C   0  0  2  0  0  3  0  0  0  0  0  0
  191.9410  176.8070  142.9660 C   0  0  0  0  0  2  0  0  0  0  0  0
  190.7690  172.7110  144.5870 C   0  0  1  0  0  3  0  0  0  0  0  0
  194.5270  174.9350  140.7600 C   0  0  0  0  0  1  0  0  0  0  0  0
  189.6700  176.3330  145.3780 C   0  0  1  0  0  3  0  0  0  0  0  0
  193.1490  175.9330  142.6530 C   0  0  2  0  0  0  0  0  0  0  0  0
  184.5040  178.3600  146.4540 F   0  0  0  0  0  0  0  0  0  0  0  0
  186.4540  178.3110  145.0840 C   0  0  0  0  0  3  0  0  0  0  0  0
  186.3050  176.9210  147.0610 C   0  0  0  0  0  3  0  0  0  0  0  0
  185.7410  177.8690  146.2020 C   0  0  0  0  0  0  0  0  0  0  0  0
  187.7320  177.8060  144.8240 C   0  0  0  0  0  3  0  0  0  0  0  0
  187.5820  176.4150  146.8020 C   0  0  0  0  0  3  0  0  0  0  0  0
  188.3020  176.8560  145.6800 C   0  0  0  0  0  0  0  0  0  0  0  0
  194.4490  176.3580  143.1720 N   0  0  0  0  0  2  0  0  0  0  0  0
  197.1470  174.1490  144.6840 N   0  0  0  0  0  0  0  0  0  0  0  0
  194.7180  175.3570  145.3120 C   0  0  0  0  0  3  0  0  0  0  0  0
  196.6030  173.9870  145.9980 C   0  0  0  0  0  3  0  0  0  0  0  0
  196.6190  175.1310  143.7360 C   0  0  0  0  0  3  0  0  0  0  0  0
  195.2250  175.5920  144.0980 C   0  0  0  0  0  0  0  0  0  0  0  0
  195.4490  174.5680  146.3150 C   0  0  0  0  0  3  0  0  0  0  0  0
  1 14  1  1  0  0  0
  1 11  1  0  0  0  0
  1 16  1  0  0  0  0
  2  7  1  0  0  0  0
  3  2  1  6  0  0  0
  3 13  1  0  0  0  0
  5 10  1  0  0  0  0
  6  4  1  0  0  0  0
  6 15  1  0  0  0  0
  7  9  1  0  0  0  0
  8  3  1  0  0  0  0
 10 15  1  0  0  0  0
 11 16  1  0  0  0  0
 11  8  1  6  0  0  0
 12  5  1  0  0  0  0
 13  9  1  6  0  0  0
 13  4  1  0  0  0  0
 15 23  1  6  0  0  0
 16 12  1  0  0  0  0
 16 24  1  1  0  0  0
 18 20  1  0  0  0  0
 20 17  1  0  0  0  0
 20 19  2  0  0  0  0
 21 18  2  0  0  0  0
 21 23  1  0  0  0  0
 22 19  1  0  0  0  0
 23 22  2  0  0  0  0
 24 29  1  0  0  0  0
 25 27  1  0  0  0  0
 26 30  1  0  0  0  0
 27 30  2  0  0  0  0
 28 29  1  0  0  0  0
 28 25  2  0  0  0  0
 29 26  2  0  0  0  0
M  END
>  <MODEL>
2

>  <REMARK>
 VINA RESULT:      -8.0      1.603      1.916
  Name = 
  3 active torsions:
  status: ('A' for Active; 'I' for Inactive)
    1  A    between atoms: N_14  and  C_17
    2  A    between atoms: N_14  and  C_29
    3  A    between atoms: C_28  and  C_30
                            x       y       z     vdW  Elec       q    Type
                         _______ _______ _______ _____ _____    ______ ____

>  <TORSDO>
F 3

$$$$
=
 OpenBabel11062419543D

 30 34  0  0  1  0  0  0  0  0999 V2000
  191.1120  172.5550  143.6720 C   0  0  2  0  0  3  0  0  0  0  0  0
  192.3670  174.8650  146.8880 C   0  0  0  0  0  2  0  0  0  0  0  0
  192.0060  175.3800  145.5130 C   0  0  1  0  0  3  0  0  0  0  0  0
  190.4090  177.2980  144.8470 C   0  0  0  0  0  2  0  0  0  0  0  0
  188.9870  175.4210  142.5680 O   0  0  0  0  0  0  0  0  0  0  0  0
  189.0270  176.7490  145.1800 C   0  0  0  0  0  2  0  0  0  0  0  0
  191.5250  175.5500  147.8630 N   0  0  0  0  0  2  0  0  0  0  0  0
  191.0110  174.5640  144.9600 O   0  0  0  0  0  0  0  0  0  0  0  0
  191.1190  176.8160  147.2600 C   0  0  0  0  0  2  0  0  0  0  0  0
  187.8080  175.8320  143.1910 C   0  0  0  0  0  2  0  0  0  0  0  0
  191.6130  173.9900  143.8340 C   0  0  2  0  0  3  0  0  0  0  0  0
  189.1470  174.0920  142.9640 C   0  0  0  0  0  2  0  0  0  0  0  0
  191.5010  176.7830  145.7920 C   0  0  1  0  0  3  0  0  0  0  0  0
  192.2140  171.7160  143.0450 C   0  0  0  0  0  1  0  0  0  0  0  0
  188.0610  177.0660  144.0480 C   0  0  1  0  0  3  0  0  0  0  0  0
  190.5930  173.6580  142.7590 C   0  0  2  0  0  0  0  0  0  0  0  0
  183.1950  179.0410  146.1380 F   0  0  0  0  0  0  0  0  0  0  0  0
  184.9190  177.3960  146.1360 C   0  0  0  0  0  3  0  0  0  0  0  0
  185.0070  179.2720  144.6070 C   0  0  0  0  0  3  0  0  0  0  0  0
  184.3610  178.5750  145.6320 C   0  0  0  0  0  0  0  0  0  0  0  0
  186.1230  176.9120  145.6150 C   0  0  0  0  0  3  0  0  0  0  0  0
  186.2110  178.7900  144.0860 C   0  0  0  0  0  3  0  0  0  0  0  0
  186.7750  177.6060  144.5880 C   0  0  0  0  0  0  0  0  0  0  0  0
  191.1330  173.7110  141.4020 N   0  0  0  0  0  2  0  0  0  0  0  0
  188.7570  172.9010  138.5490 N   0  0  0  0  0  0  0  0  0  0  0  0
  190.9670  171.8760  139.8980 C   0  0  0  0  0  3  0  0  0  0  0  0
  189.3160  171.6510  138.1290 C   0  0  0  0  0  3  0  0  0  0  0  0
  189.4460  173.7910  139.4840 C   0  0  0  0  0  3  0  0  0  0  0  0
  190.5200  173.0780  140.2750 C   0  0  0  0  0  0  0  0  0  0  0  0
  190.3790  171.1560  138.7580 C   0  0  0  0  0  3  0  0  0  0  0  0
  1 14  1  6  0  0  0
  1 11  1  0  0  0  0
  2  7  1  0  0  0  0
  3 13  1  0  0  0  0
  3  2  1  1  0  0  0
  4  6  1  0  0  0  0
  5 12  1  0  0  0  0
  5 10  1  0  0  0  0
  8  3  1  0  0  0  0
  9  7  1  0  0  0  0
 10 15  1  0  0  0  0
 11  8  1  1  0  0  0
 13  4  1  6  0  0  0
 13  9  1  0  0  0  0
 15 23  1  1  0  0  0
 15  6  1  0  0  0  0
 16 24  1  6  0  0  0
 16 12  1  0  0  0  0
 16  1  1  0  0  0  0
 16 11  1  0  0  0  0
 19 20  2  0  0  0  0
 20 18  1  0  0  0  0
 20 17  1  0  0  0  0
 21 18  2  0  0  0  0
 22 23  2  0  0  0  0
 22 19  1  0  0  0  0
 23 21  1  0  0  0  0
 25 28  1  0  0  0  0
 26 29  1  0  0  0  0
 27 25  2  0  0  0  0
 27 30  1  0  0  0  0
 28 29  2  0  0  0  0
 29 24  1  0  0  0  0
 30 26  2  0  0  0  0
M  END
>  <MODEL>
3

>  <REMARK>
 VINA RESULT:      -7.9      2.387      5.025
  Name = 
  3 active torsions:
  status: ('A' for Active; 'I' for Inactive)
    1  A    between atoms: N_14  and  C_17
    2  A    between atoms: N_14  and  C_29
    3  A    between atoms: C_28  and  C_30
                            x       y       z     vdW  Elec       q    Type
                         _______ _______ _______ _____ _____    ______ ____

>  <TORSDO>
F 3

$$$$
=
 OpenBabel11062419543D

 30 34  0  0  1  0  0  0  0  0999 V2000
  190.9100  172.2880  144.1450 C   0  0  2  0  0  3  0  0  0  0  0  0
  191.7120  175.0310  147.1590 C   0  0  0  0  0  2  0  0  0  0  0  0
  191.6280  175.3360  145.6800 C   0  0  1  0  0  3  0  0  0  0  0  0
  190.2850  177.1740  144.4590 C   0  0  0  0  0  2  0  0  0  0  0  0
  189.1800  175.0090  142.2620 O   0  0  0  0  0  0  0  0  0  0  0  0
  188.8370  176.7250  144.6130 C   0  0  0  0  0  2  0  0  0  0  0  0
  190.7530  175.8840  147.8530 N   0  0  0  0  0  2  0  0  0  0  0  0
  190.7010  174.4750  145.0830 O   0  0  0  0  0  0  0  0  0  0  0  0
  190.5330  177.0520  147.0050 C   0  0  0  0  0  2  0  0  0  0  0  0
  187.9350  175.5470  142.5930 C   0  0  0  0  0  2  0  0  0  0  0  0
  191.4570  173.7150  144.1820 C   0  0  2  0  0  3  0  0  0  0  0  0
  189.1910  173.7540  142.8720 C   0  0  0  0  0  2  0  0  0  0  0  0
  191.1640  176.7800  145.6530 C   0  0  1  0  0  3  0  0  0  0  0  0
  192.0550  171.3290  143.8600 C   0  0  0  0  0  1  0  0  0  0  0  0
  188.1040  176.8910  143.2900 C   0  0  1  0  0  3  0  0  0  0  0  0
  190.6230  173.2500  143.0000 C   0  0  2  0  0  0  0  0  0  0  0  0
  183.0600  179.3360  144.0190 F   0  0  0  0  0  0  0  0  0  0  0  0
  184.4990  177.9180  142.7540 C   0  0  0  0  0  3  0  0  0  0  0  0
  185.2940  178.9880  144.7760 C   0  0  0  0  0  3  0  0  0  0  0  0
  184.2710  178.7540  143.8520 C   0  0  0  0  0  0  0  0  0  0  0  0
  185.7490  177.3160  142.5790 C   0  0  0  0  0  3  0  0  0  0  0  0
  186.5440  178.3870  144.6030 C   0  0  0  0  0  3  0  0  0  0  0  0
  186.7770  177.5470  143.5010 C   0  0  0  0  0  0  0  0  0  0  0  0
  191.3960  173.0750  141.7710 N   0  0  0  0  0  2  0  0  0  0  0  0
  189.7030  172.7010  138.3890 N   0  0  0  0  0  0  0  0  0  0  0  0
  190.7840  171.1880  140.4610 C   0  0  0  0  0  3  0  0  0  0  0  0
  189.7100  171.2730  138.2830 C   0  0  0  0  0  3  0  0  0  0  0  0
  190.4680  173.4130  139.4140 C   0  0  0  0  0  3  0  0  0  0  0  0
  190.8600  172.5170  140.5670 C   0  0  0  0  0  0  0  0  0  0  0  0
  190.2340  170.5390  139.2610 C   0  0  0  0  0  3  0  0  0  0  0  0
  1 14  1  6  0  0  0
  1 11  1  0  0  0  0
  2  7  1  0  0  0  0
  3  2  1  1  0  0  0
  4  6  1  0  0  0  0
  5 10  1  0  0  0  0
  5 12  1  0  0  0  0
  8  3  1  0  0  0  0
  9  7  1  0  0  0  0
 10 15  1  0  0  0  0
 11  8  1  1  0  0  0
 12 16  1  0  0  0  0
 13  4  1  6  0  0  0
 13  3  1  0  0  0  0
 13  9  1  0  0  0  0
 15 23  1  1  0  0  0
 15  6  1  0  0  0  0
 16 24  1  6  0  0  0
 16  1  1  0  0  0  0
 16 11  1  0  0  0  0
 18 20  1  0  0  0  0
 20 17  1  0  0  0  0
 20 19  2  0  0  0  0
 21 18  2  0  0  0  0
 21 23  1  0  0  0  0
 22 19  1  0  0  0  0
 23 22  2  0  0  0  0
 25 28  1  0  0  0  0
 26 29  1  0  0  0  0
 27 25  2  0  0  0  0
 27 30  1  0  0  0  0
 28 29  2  0  0  0  0
 29 24  1  0  0  0  0
 30 26  2  0  0  0  0
M  END
>  <MODEL>
4

>  <REMARK>
 VINA RESULT:      -7.8      2.637      5.102
  Name = 
  3 active torsions:
  status: ('A' for Active; 'I' for Inactive)
    1  A    between atoms: N_14  and  C_17
    2  A    between atoms: N_14  and  C_29
    3  A    between atoms: C_28  and  C_30
                            x       y       z     vdW  Elec       q    Type
                         _______ _______ _______ _____ _____    ______ ____

>  <TORSDO>
F 3

$$$$
=
 OpenBabel11062419543D

 30 34  0  0  1  0  0  0  0  0999 V2000
  186.3950  176.7910  146.3160 C   0  0  2  0  0  3  0  0  0  0  0  0
  184.3990  178.5690  143.1380 C   0  0  0  0  0  2  0  0  0  0  0  0
  185.8990  178.4820  143.3070 C   0  0  1  0  0  3  0  0  0  0  0  0
  187.6930  177.6690  141.6360 C   0  0  0  0  0  2  0  0  0  0  0  0
  189.1130  175.8270  143.9450 O   0  0  0  0  0  0  0  0  0  0  0  0
  187.4540  176.1660  141.5530 C   0  0  0  0  0  2  0  0  0  0  0  0
  184.0510  177.9550  141.8600 N   0  0  0  0  0  2  0  0  0  0  0  0
  186.2190  177.3030  143.9900 O   0  0  0  0  0  0  0  0  0  0  0  0
  185.2370  178.0370  141.0130 C   0  0  0  0  0  2  0  0  0  0  0  0
  189.0170  174.8230  142.9790 C   0  0  0  0  0  2  0  0  0  0  0  0
  186.8000  177.7380  145.1880 C   0  0  2  0  0  3  0  0  0  0  0  0
  188.1310  175.5050  144.8820 C   0  0  0  0  0  2  0  0  0  0  0  0
  186.4070  178.4670  141.8770 C   0  0  1  0  0  3  0  0  0  0  0  0
  186.3150  177.5770  147.6150 C   0  0  0  0  0  1  0  0  0  0  0  0
  188.7850  175.4300  141.6010 C   0  0  1  0  0  3  0  0  0  0  0  0
  187.7980  176.7280  145.7280 C   0  0  2  0  0  0  0  0  0  0  0  0
  189.0520  171.3970  137.6510 F   0  0  0  0  0  0  0  0  0  0  0  0
  189.6320  172.1990  139.8190 C   0  0  0  0  0  3  0  0  0  0  0  0
  188.2620  173.5380  138.3380 C   0  0  0  0  0  3  0  0  0  0  0  0
  188.9830  172.3670  138.5920 C   0  0  0  0  0  0  0  0  0  0  0  0
  189.5620  173.2000  140.7920 C   0  0  0  0  0  3  0  0  0  0  0  0
  188.1910  174.5400  139.3100 C   0  0  0  0  0  3  0  0  0  0  0  0
  188.8420  174.3750  140.5430 C   0  0  0  0  0  0  0  0  0  0  0  0
  188.8770  177.3300  146.5090 N   0  0  0  0  0  2  0  0  0  0  0  0
  192.4680  176.3360  145.7590 N   0  0  0  0  0  0  0  0  0  0  0  0
  190.4360  175.9180  147.6170 C   0  0  0  0  0  3  0  0  0  0  0  0
  192.7140  175.4900  146.8880 C   0  0  0  0  0  3  0  0  0  0  0  0
  191.2880  177.1980  145.6710 C   0  0  0  0  0  3  0  0  0  0  0  0
  190.1890  176.7700  146.6180 C   0  0  0  0  0  0  0  0  0  0  0  0
  191.7560  175.2910  147.7890 C   0  0  0  0  0  3  0  0  0  0  0  0
  1 14  1  1  0  0  0
  3  2  1  6  0  0  0
  3  8  1  0  0  0  0
  4 13  1  0  0  0  0
  5 12  1  0  0  0  0
  6 15  1  0  0  0  0
  6  4  1  0  0  0  0
  7  2  1  0  0  0  0
  9  7  1  0  0  0  0
 10  5  1  0  0  0  0
 11  8  1  6  0  0  0
 11 16  1  0  0  0  0
 11  1  1  0  0  0  0
 12 16  1  0  0  0  0
 13  9  1  6  0  0  0
 13  3  1  0  0  0  0
 15 23  1  6  0  0  0
 15 10  1  0  0  0  0
 16  1  1  0  0  0  0
 16 24  1  1  0  0  0
 17 20  1  0  0  0  0
 18 21  1  0  0  0  0
 19 20  1  0  0  0  0
 19 22  2  0  0  0  0
 20 18  2  0  0  0  0
 22 23  1  0  0  0  0
 23 21  2  0  0  0  0
 24 29  1  0  0  0  0
 25 27  1  0  0  0  0
 26 30  1  0  0  0  0
 27 30  2  0  0  0  0
 28 25  2  0  0  0  0
 28 29  1  0  0  0  0
 29 26  2  0  0  0  0
M  END
>  <MODEL>
5

>  <REMARK>
 VINA RESULT:      -7.7      3.618      6.606
  Name = 
  3 active torsions:
  status: ('A' for Active; 'I' for Inactive)
    1  A    between atoms: N_14  and  C_17
    2  A    between atoms: N_14  and  C_29
    3  A    between atoms: C_28  and  C_30
                            x       y       z     vdW  Elec       q    Type
                         _______ _______ _______ _____ _____    ______ ____

>  <TORSDO>
F 3

$$$$
=
 OpenBabel11062419543D

 30 34  0  0  1  0  0  0  0  0999 V2000
  190.3030  172.3560  144.0410 C   0  0  2  0  0  3  0  0  0  0  0  0
  189.4240  174.9300  147.1810 C   0  0  0  0  0  2  0  0  0  0  0  0
  189.9620  175.3330  145.8260 C   0  0  1  0  0  3  0  0  0  0  0  0
  189.1030  177.1420  144.1940 C   0  0  0  0  0  2  0  0  0  0  0  0
  189.2960  175.0600  141.6710 O   0  0  0  0  0  0  0  0  0  0  0  0
  187.7880  176.5690  143.6800 C   0  0  0  0  0  2  0  0  0  0  0  0
  188.1760  175.6520  147.4060 N   0  0  0  0  0  2  0  0  0  0  0  0
  189.4820  174.4460  144.8560 O   0  0  0  0  0  0  0  0  0  0  0  0
  188.2280  176.8570  146.5840 C   0  0  0  0  0  2  0  0  0  0  0  0
  187.9830  175.4720  141.4350 C   0  0  0  0  0  2  0  0  0  0  0  0
  190.6290  173.8160  144.3580 C   0  0  2  0  0  3  0  0  0  0  0  0
  189.1690  173.7690  142.1860 C   0  0  0  0  0  2  0  0  0  0  0  0
  189.4100  176.7340  145.6400 C   0  0  1  0  0  3  0  0  0  0  0  0
  191.5500  171.5140  144.2620 C   0  0  0  0  0  1  0  0  0  0  0  0
  187.6920  176.7720  142.1750 C   0  0  1  0  0  3  0  0  0  0  0  0
  190.4460  173.3730  142.9160 C   0  0  2  0  0  0  0  0  0  0  0  0
  182.5780  178.7700  140.8320 F   0  0  0  0  0  0  0  0  0  0  0  0
  184.1240  178.0020  142.4760 C   0  0  0  0  0  3  0  0  0  0  0  0
  184.7550  178.0890  140.1400 C   0  0  0  0  0  3  0  0  0  0  0  0
  183.8060  178.2920  141.1460 C   0  0  0  0  0  0  0  0  0  0  0  0
  185.3910  177.5080  142.8020 C   0  0  0  0  0  3  0  0  0  0  0  0
  186.0220  177.5950  140.4640 C   0  0  0  0  0  3  0  0  0  0  0  0
  186.3450  177.3020  141.7990 C   0  0  0  0  0  0  0  0  0  0  0  0
  191.6910  173.3490  142.1490 N   0  0  0  0  0  2  0  0  0  0  0  0
  193.9350  176.4140  142.2510 N   0  0  0  0  0  0  0  0  0  0  0  0
  193.9320  173.6980  142.8620 C   0  0  0  0  0  3  0  0  0  0  0  0
  195.1070  175.8240  142.8220 C   0  0  0  0  0  3  0  0  0  0  0  0
  192.6480  175.7170  142.2130 C   0  0  0  0  0  3  0  0  0  0  0  0
  192.7950  174.2240  142.3970 C   0  0  0  0  0  0  0  0  0  0  0  0
  195.1150  174.5300  143.1290 C   0  0  0  0  0  3  0  0  0  0  0  0
  1 14  1  6  0  0  0
  1 11  1  0  0  0  0
  2  7  1  0  0  0  0
  3  2  1  1  0  0  0
  5 12  1  0  0  0  0
  6  4  1  0  0  0  0
  8  3  1  0  0  0  0
  9  7  1  0  0  0  0
 10  5  1  0  0  0  0
 10 15  1  0  0  0  0
 11  8  1  1  0  0  0
 12 16  1  0  0  0  0
 13  4  1  6  0  0  0
 13  3  1  0  0  0  0
 13  9  1  0  0  0  0
 15 23  1  1  0  0  0
 15  6  1  0  0  0  0
 16 24  1  6  0  0  0
 16  1  1  0  0  0  0
 16 11  1  0  0  0  0
 17 20  1  0  0  0  0
 18 21  1  0  0  0  0
 19 22  2  0  0  0  0
 19 20  1  0  0  0  0
 20 18  2  0  0  0  0
 22 23  1  0  0  0  0
 23 21  2  0  0  0  0
 24 29  1  0  0  0  0
 25 27  1  0  0  0  0
 26 30  1  0  0  0  0
 27 30  2  0  0  0  0
 28 25  2  0  0  0  0
 28 29  1  0  0  0  0
 29 26  2  0  0  0  0
M  END
>  <MODEL>
6

>  <REMARK>
 VINA RESULT:      -7.6      2.779      4.521
  Name = 
  3 active torsions:
  status: ('A' for Active; 'I' for Inactive)
    1  A    between atoms: N_14  and  C_17
    2  A    between atoms: N_14  and  C_29
    3  A    between atoms: C_28  and  C_30
                            x       y       z     vdW  Elec       q    Type
                         _______ _______ _______ _____ _____    ______ ____

>  <TORSDO>
F 3

$$$$
=
 OpenBabel11062419543D

 30 34  0  0  1  0  0  0  0  0999 V2000
  190.0020  177.1040  145.6940 C   0  0  2  0  0  3  0  0  0  0  0  0
  192.9640  174.2060  145.4200 C   0  0  0  0  0  2  0  0  0  0  0  0
  191.4830  173.9840  145.2100 C   0  0  1  0  0  3  0  0  0  0  0  0
  190.2600  172.8210  143.2540 C   0  0  0  0  0  2  0  0  0  0  0  0
  188.1120  175.2850  143.0360 O   0  0  0  0  0  0  0  0  0  0  0  0
  190.4440  173.7850  142.0890 C   0  0  0  0  0  2  0  0  0  0  0  0
  193.6620  173.7700  144.2150 N   0  0  0  0  0  2  0  0  0  0  0  0
  190.9130  175.1450  144.6750 O   0  0  0  0  0  0  0  0  0  0  0  0
  192.8030  172.7910  143.5570 C   0  0  0  0  0  2  0  0  0  0  0  0
  188.4560  175.2570  141.6840 C   0  0  0  0  0  2  0  0  0  0  0  0
  190.0100  175.5760  145.6550 C   0  0  2  0  0  3  0  0  0  0  0  0
  188.7390  176.4290  143.5320 C   0  0  0  0  0  2  0  0  0  0  0  0
  191.4440  172.8270  144.2290 C   0  0  1  0  0  3  0  0  0  0  0  0
  189.7110  177.5590  147.1150 C   0  0  0  0  0  1  0  0  0  0  0  0
  189.1320  173.9360  141.3340 C   0  0  1  0  0  3  0  0  0  0  0  0
  188.8490  176.3460  145.0500 C   0  0  2  0  0  0  0  0  0  0  0  0
  189.9060  173.5690  135.7470 F   0  0  0  0  0  0  0  0  0  0  0  0
  188.5070  174.0990  137.6030 C   0  0  0  0  0  3  0  0  0  0  0  0
  190.7660  173.3000  137.9540 C   0  0  0  0  0  3  0  0  0  0  0  0
  189.7280  173.6550  137.0870 C   0  0  0  0  0  0  0  0  0  0  0  0
  188.3220  174.1880  138.9860 C   0  0  0  0  0  3  0  0  0  0  0  0
  190.5830  173.3880  139.3360 C   0  0  0  0  0  3  0  0  0  0  0  0
  189.3570  173.8330  139.8590 C   0  0  0  0  0  0  0  0  0  0  0  0
  187.6100  176.2360  145.8170 N   0  0  0  0  0  2  0  0  0  0  0  0
  185.5600  179.3380  145.0260 N   0  0  0  0  0  0  0  0  0  0  0  0
  185.4300  176.9470  146.4470 C   0  0  0  0  0  3  0  0  0  0  0  0
  184.3660  179.0160  145.7480 C   0  0  0  0  0  3  0  0  0  0  0  0
  186.6170  178.3540  144.7870 C   0  0  0  0  0  3  0  0  0  0  0  0
  186.5340  177.1760  145.7310 C   0  0  0  0  0  0  0  0  0  0  0  0
  184.2870  177.8720  146.4220 C   0  0  0  0  0  3  0  0  0  0  0  0
  1 14  1  1  0  0  0
  3  2  1  6  0  0  0
  5 12  1  0  0  0  0
  6  4  1  0  0  0  0
  7  2  1  0  0  0  0
  8  3  1  0  0  0  0
  9  7  1  0  0  0  0
  9 13  1  0  0  0  0
 10  5  1  0  0  0  0
 11  8  1  6  0  0  0
 11  1  1  0  0  0  0
 12 16  1  0  0  0  0
 13  4  1  6  0  0  0
 13  3  1  0  0  0  0
 15 23  1  6  0  0  0
 15 10  1  0  0  0  0
 15  6  1  0  0  0  0
 16 11  1  0  0  0  0
 16  1  1  0  0  0  0
 16 24  1  1  0  0  0
 17 20  1  0  0  0  0
 18 21  1  0  0  0  0
 19 22  2  0  0  0  0
 20 18  2  0  0  0  0
 20 19  1  0  0  0  0
 21 23  2  0  0  0  0
 22 23  1  0  0  0  0
 25 27  1  0  0  0  0
 27 30  2  0  0  0  0
 28 25  2  0  0  0  0
 28 29  1  0  0  0  0
 29 24  1  0  0  0  0
 29 26  2  0  0  0  0
 30 26  1  0  0  0  0
M  END
>  <MODEL>
7

>  <REMARK>
 VINA RESULT:      -7.6      3.505      7.520
  Name = 
  3 active torsions:
  status: ('A' for Active; 'I' for Inactive)
    1  A    between atoms: N_14  and  C_17
    2  A    between atoms: N_14  and  C_29
    3  A    between atoms: C_28  and  C_30
                            x       y       z     vdW  Elec       q    Type
                         _______ _______ _______ _____ _____    ______ ____

>  <TORSDO>
F 3

$$$$
=
 OpenBabel11062419543D

 30 34  0  0  1  0  0  0  0  0999 V2000
  188.4300  176.6220  141.9290 C   0  0  2  0  0  3  0  0  0  0  0  0
  188.1680  177.4040  145.9990 C   0  0  0  0  0  2  0  0  0  0  0  0
  188.3410  176.0420  145.3670 C   0  0  1  0  0  3  0  0  0  0  0  0
  190.0620  174.1920  145.9030 C   0  0  0  0  0  2  0  0  0  0  0  0
  190.7270  173.7860  142.7200 O   0  0  0  0  0  0  0  0  0  0  0  0
  191.3800  174.7690  145.4020 C   0  0  0  0  0  2  0  0  0  0  0  0
  189.2720  177.6150  146.9290 N   0  0  0  0  0  2  0  0  0  0  0  0
  189.0770  176.1720  144.1830 O   0  0  0  0  0  0  0  0  0  0  0  0
  189.7480  176.2950  147.3300 C   0  0  0  0  0  2  0  0  0  0  0  0
  192.0510  173.9200  143.1420 C   0  0  0  0  0  2  0  0  0  0  0  0
  188.1950  175.7680  143.1740 C   0  0  2  0  0  3  0  0  0  0  0  0
  190.4420  174.9920  142.0780 C   0  0  0  0  0  2  0  0  0  0  0  0
  189.0990  175.2640  146.4260 C   0  0  1  0  0  3  0  0  0  0  0  0
  187.1140  176.7780  141.1830 C   0  0  0  0  0  1  0  0  0  0  0  0
  192.1550  173.7010  144.6460 C   0  0  1  0  0  3  0  0  0  0  0  0
  188.9330  175.1860  141.9810 C   0  0  2  0  0  0  0  0  0  0  0  0
  197.5660  173.7130  146.2800 F   0  0  0  0  0  0  0  0  0  0  0  0
  195.5680  174.9040  145.7630 C   0  0  0  0  0  3  0  0  0  0  0  0
  195.6350  172.4880  145.6100 C   0  0  0  0  0  3  0  0  0  0  0  0
  196.2700  173.7020  145.8890 C   0  0  0  0  0  0  0  0  0  0  0  0
  194.2290  174.8940  145.3580 C   0  0  0  0  0  3  0  0  0  0  0  0
  194.2970  172.4770  145.2060 C   0  0  0  0  0  3  0  0  0  0  0  0
  193.5870  173.6820  145.0780 C   0  0  0  0  0  0  0  0  0  0  0  0
  188.1640  174.1810  141.2490 N   0  0  0  0  0  2  0  0  0  0  0  0
  189.8640  172.0280  138.6190 N   0  0  0  0  0  0  0  0  0  0  0  0
  188.2260  174.2650  138.8740 C   0  0  0  0  0  3  0  0  0  0  0  0
  189.4090  172.7010  137.4400 C   0  0  0  0  0  3  0  0  0  0  0  0
  189.3010  172.3020  139.9420 C   0  0  0  0  0  3  0  0  0  0  0  0
  188.5700  173.6250  139.9950 C   0  0  0  0  0  0  0  0  0  0  0  0
  188.6170  173.7640  137.5480 C   0  0  0  0  0  3  0  0  0  0  0  0
  1 14  1  6  0  0  0
  1 16  1  0  0  0  0
  1 11  1  0  0  0  0
  2  7  1  0  0  0  0
  3  2  1  1  0  0  0
  3 13  1  0  0  0  0
  5 10  1  0  0  0  0
  6  4  1  0  0  0  0
  7  9  1  0  0  0  0
  8  3  1  0  0  0  0
 10 15  1  0  0  0  0
 11  8  1  1  0  0  0
 12  5  1  0  0  0  0
 13  4  1  6  0  0  0
 13  9  1  0  0  0  0
 15 23  1  1  0  0  0
 15  6  1  0  0  0  0
 16 24  1  6  0  0  0
 16 12  1  0  0  0  0
 16 11  1  0  0  0  0
 18 20  1  0  0  0  0
 19 20  2  0  0  0  0
 20 17  1  0  0  0  0
 21 18  2  0  0  0  0
 22 19  1  0  0  0  0
 23 22  2  0  0  0  0
 23 21  1  0  0  0  0
 25 28  1  0  0  0  0
 26 29  1  0  0  0  0
 27 30  1  0  0  0  0
 27 25  2  0  0  0  0
 28 29  2  0  0  0  0
 29 24  1  0  0  0  0
 30 26  2  0  0  0  0
M  END
>  <MODEL>
8

>  <REMARK>
 VINA RESULT:      -7.5      3.758      7.605
  Name = 
  3 active torsions:
  status: ('A' for Active; 'I' for Inactive)
    1  A    between atoms: N_14  and  C_17
    2  A    between atoms: N_14  and  C_29
    3  A    between atoms: C_28  and  C_30
                            x       y       z     vdW  Elec       q    Type
                         _______ _______ _______ _____ _____    ______ ____

>  <TORSDO>
F 3

$$$$
=
 OpenBabel11062419543D

 30 34  0  0  1  0  0  0  0  0999 V2000
  190.2700  172.4390  143.9860 C   0  0  2  0  0  3  0  0  0  0  0  0
  189.3500  174.9710  147.1480 C   0  0  0  0  0  2  0  0  0  0  0  0
  189.8850  175.3940  145.7980 C   0  0  1  0  0  3  0  0  0  0  0  0
  189.0060  177.2060  144.1800 C   0  0  0  0  0  2  0  0  0  0  0  0
  189.2320  175.1510  141.6390 O   0  0  0  0  0  0  0  0  0  0  0  0
  187.7000  176.6210  143.6580 C   0  0  0  0  0  2  0  0  0  0  0  0
  188.0920  175.6740  147.3760 N   0  0  0  0  0  2  0  0  0  0  0  0
  189.4190  174.5100  144.8180 O   0  0  0  0  0  0  0  0  0  0  0  0
  188.1300  176.8870  146.5660 C   0  0  0  0  0  2  0  0  0  0  0  0
  187.9150  175.5470  141.4040 C   0  0  0  0  0  2  0  0  0  0  0  0
  190.5750  173.8990  144.3170 C   0  0  2  0  0  3  0  0  0  0  0  0
  189.1210  173.8540  142.1420 C   0  0  0  0  0  2  0  0  0  0  0  0
  189.3150  176.7890  145.6230 C   0  0  1  0  0  3  0  0  0  0  0  0
  191.5280  171.6120  144.2020 C   0  0  0  0  0  1  0  0  0  0  0  0
  187.6050  176.8360  142.1550 C   0  0  1  0  0  3  0  0  0  0  0  0
  190.4020  173.4670  142.8710 C   0  0  2  0  0  0  0  0  0  0  0  0
  182.4670  178.7780  140.8200 F   0  0  0  0  0  0  0  0  0  0  0  0
  184.0140  178.0010  142.4570 C   0  0  0  0  0  3  0  0  0  0  0  0
  184.6590  178.1480  140.1280 C   0  0  0  0  0  3  0  0  0  0  0  0
  183.7000  178.3140  141.1320 C   0  0  0  0  0  0  0  0  0  0  0  0
  185.2870  177.5210  142.7820 C   0  0  0  0  0  3  0  0  0  0  0  0
  185.9320  177.6680  140.4500 C   0  0  0  0  0  3  0  0  0  0  0  0
  186.2520  177.3520  141.7810 C   0  0  0  0  0  0  0  0  0  0  0  0
  191.6480  173.4670  142.1070 N   0  0  0  0  0  2  0  0  0  0  0  0
  192.0180  171.0710  139.1800 N   0  0  0  0  0  0  0  0  0  0  0  0
  191.9630  173.7910  139.7720 C   0  0  0  0  0  3  0  0  0  0  0  0
  192.1460  172.0220  138.1170 C   0  0  0  0  0  3  0  0  0  0  0  0
  191.6000  171.4580  140.5290 C   0  0  0  0  0  3  0  0  0  0  0  0
  191.7690  172.9390  140.7830 C   0  0  0  0  0  0  0  0  0  0  0  0
  192.1100  173.3240  138.3850 C   0  0  0  0  0  3  0  0  0  0  0  0
  1 14  1  6  0  0  0
  1 11  1  0  0  0  0
  2  7  1  0  0  0  0
  3  2  1  1  0  0  0
  5 12  1  0  0  0  0
  6  4  1  0  0  0  0
  8  3  1  0  0  0  0
  9  7  1  0  0  0  0
 10  5  1  0  0  0  0
 10 15  1  0  0  0  0
 11  8  1  1  0  0  0
 12 16  1  0  0  0  0
 13  4  1  6  0  0  0
 13  3  1  0  0  0  0
 13  9  1  0  0  0  0
 15 23  1  1  0  0  0
 15  6  1  0  0  0  0
 16 24  1  6  0  0  0
 16  1  1  0  0  0  0
 16 11  1  0  0  0  0
 17 20  1  0  0  0  0
 18 21  1  0  0  0  0
 19 22  2  0  0  0  0
 19 20  1  0  0  0  0
 20 18  2  0  0  0  0
 22 23  1  0  0  0  0
 23 21  2  0  0  0  0
 25 28  1  0  0  0  0
 26 29  1  0  0  0  0
 27 30  1  0  0  0  0
 27 25  2  0  0  0  0
 28 29  2  0  0  0  0
 29 24  1  0  0  0  0
 30 26  2  0  0  0  0
M  END
>  <MODEL>
9

>  <REMARK>
 VINA RESULT:      -7.4      3.051      5.184
  Name = 
  3 active torsions:
  status: ('A' for Active; 'I' for Inactive)
    1  A    between atoms: N_14  and  C_17
    2  A    between atoms: N_14  and  C_29
    3  A    between atoms: C_28  and  C_30
                            x       y       z     vdW  Elec       q    Type
                         _______ _______ _______ _____ _____    ______ ____

>  <TORSDO>
F 3

$$$$
