=
 OpenBabel11072409203D

 58 63  0  0  1  0  0  0  0  0999 V2000
  191.9100  169.6320  139.1480 C   0  0  0  0  0  0  0  0  0  0  0  0
  190.5120  170.7830  140.7390 N   0  0  0  0  0  0  0  0  0  0  0  0
  190.9540  171.9110  138.6210 C   0  0  0  0  0  2  0  0  0  0  0  0
  191.1700  169.6050  140.2700 C   0  0  0  0  0  3  0  0  0  0  0  0
  190.4210  171.8700  140.0320 C   0  0  0  0  0  0  0  0  0  0  0  0
  192.1590  170.9510  138.4560 C   0  0  1  0  0  3  0  0  0  0  0  0
  193.6520  171.6200  140.2410 O   0  0  0  0  0  0  0  0  0  0  0  0
  194.5320  172.8330  136.9470 C   0  0  0  0  0  2  0  0  0  0  0  0
  196.8030  171.6750  142.0650 O   0  0  0  0  0  0  0  0  0  0  0  0
  193.7720  172.9480  138.2550 C   0  0  0  0  0  2  0  0  0  0  0  0
  195.0450  174.1780  136.4670 C   0  0  0  0  0  2  0  0  0  0  0  0
  195.5460  172.1420  141.6500 C   0  0  1  0  0  3  0  0  0  0  0  0
  193.5370  171.5600  138.8440 C   0  0  2  0  0  3  0  0  0  0  0  0
  195.7280  175.2090  138.6290 C   0  0  0  0  0  2  0  0  0  0  0  0
  195.5980  173.6060  141.1380 C   0  0  2  0  0  3  0  0  0  0  0  0
  197.5090  173.7790  142.9330 C   0  0  1  0  0  3  0  0  0  0  0  0
  196.8980  175.7990  136.5290 C   0  0  0  0  0  1  0  0  0  0  0  0
  196.2220  174.6710  137.2920 C   0  0  2  0  0  3  0  0  0  0  0  0
  196.8430  175.2850  139.6650 C   0  0  0  0  0  2  0  0  0  0  0  0
  197.0590  172.3660  143.2570 C   0  0  0  0  0  2  0  0  0  0  0  0
  196.9360  174.0330  140.5360 C   0  0  1  0  0  3  0  0  0  0  0  0
  196.5620  174.4780  141.9490 C   0  0  1  0  0  3  0  0  0  0  0  0
  194.9580  171.2040  140.5810 C   0  0  1  0  0  3  0  0  0  0  0  0
  197.5820  174.5750  144.2220 C   0  0  0  0  0  2  0  0  0  0  0  0
  196.3320  175.1000  144.5580 O   0  0  0  0  0  1  0  0  0  0  0  0
  195.0250  169.8550  141.0080 O   0  0  0  0  0  0  0  0  0  0  0  0
  194.1950  169.6700  142.1240 C   0  0  0  0  0  2  0  0  0  0  0  0
  194.9090  168.8160  143.1470 C   0  0  0  0  0  1  0  0  0  0  0  0
  193.5180  168.5370  137.6350 C   0  0  0  0  0  1  0  0  0  0  0  0
  192.5540  168.4880  138.6830 O   0  0  0  0  0  0  0  0  0  0  0  0
  189.6810  172.9920  140.5490 N   0  0  0  0  0  0  0  0  0  0  0  0
  189.8750  173.5670  141.7060 C   0  0  0  0  0  0  0  0  0  0  0  0
  192.8810  172.8120  144.8330 C   0  0  2  0  0  3  0  0  0  0  0  0
  191.9460  174.3440  143.0600 C   0  0  0  0  0  2  0  0  0  0  0  0
  191.0710  173.1910  142.5620 C   0  0  1  0  0  3  0  0  0  0  0  0
  190.7630  172.1550  143.6460 C   0  0  2  0  0  3  0  0  0  0  0  0
  189.7620  172.6110  144.7030 C   0  0  0  0  0  1  0  0  0  0  0  0
  192.0500  171.6450  144.2850 C   0  0  0  0  0  2  0  0  0  0  0  0
  193.2200  173.8080  143.7160 C   0  0  0  0  0  2  0  0  0  0  0  0
  194.1600  172.2810  145.4380 C   0  0  0  0  0  1  0  0  0  0  0  0
  188.9210  174.5100  142.1210 O   0  0  0  0  0  0  0  0  0  0  0  0
  187.5280  176.4950  141.9270 C   0  0  2  0  0  3  0  0  0  0  0  0
  186.6630  175.6190  142.6010 O   0  0  0  0  0  1  0  0  0  0  0  0
  188.9070  175.8720  141.6850 C   0  0  1  0  0  3  0  0  0  0  0  0
  188.7140  176.8930  142.8090 C   0  0  2  0  0  3  0  0  0  0  0  0
  188.7470  176.2820  144.2240 C   0  0  0  0  0  2  0  0  0  0  0  0
  189.1810  177.3330  145.2430 C   0  0  0  0  0  2  0  0  0  0  0  0
  188.8650  176.9030  146.6740 C   0  0  2  0  0  3  0  0  0  0  0  0
  190.0240  176.1290  147.2400 C   0  0  0  0  0  0  0  0  0  0  0  0
  189.8340  174.8320  147.6960 O   0  0  0  0  0  1  0  0  0  0  0  0
  191.1670  176.6580  147.3450 O   0  0  0  0  0  0  0  0  0  0  0  0
  187.6410  176.1090  146.7170 N   0  0  0  0  0  2  0  0  0  0  0  0
  186.6040  176.9150  147.3420 C   0  0  0  0  0  2  0  0  0  0  0  0
  185.5140  177.2370  146.3360 C   0  0  0  0  0  2  0  0  0  0  0  0
  185.5680  178.6970  145.9360 C   0  0  0  0  0  2  0  0  0  0  0  0
  185.6390  178.8130  144.4260 C   0  0  1  0  0  3  0  0  0  0  0  0
  184.6650  177.9970  143.8440 O   0  0  0  0  0  1  0  0  0  0  0  0
  185.4130  180.1940  144.0290 N   0  0  0  0  0  1  0  0  0  0  0  0
  1  4  2  0  0  0  0
  3  5  1  0  0  0  0
  4  2  1  0  0  0  0
  5 31  1  0  0  0  0
  5  2  2  0  0  0  0
  6  3  1  1  0  0  0
  6 13  1  0  0  0  0
  6  1  1  0  0  0  0
  7 23  1  0  0  0  0
  8 10  1  0  0  0  0
  9 20  1  0  0  0  0
 11  8  1  0  0  0  0
 11 18  1  0  0  0  0
 12  9  1  6  0  0  0
 13 10  1  6  0  0  0
 13  7  1  0  0  0  0
 14 19  1  0  0  0  0
 15 12  1  0  0  0  0
 15 22  1  0  0  0  0
 16 20  1  0  0  0  0
 16 24  1  0  0  0  0
 17 18  1  0  0  0  0
 18 14  1  0  0  0  0
 19 21  1  0  0  0  0
 21 15  1  0  0  0  0
 21 22  1  0  0  0  0
 22 16  1  0  0  0  0
 23 26  1  0  0  0  0
 23 12  1  0  0  0  0
 24 25  1  0  0  0  0
 26 27  1  0  0  0  0
 27 28  1  0  0  0  0
 29 30  1  0  0  0  0
 30  1  1  0  0  0  0
 31 32  2  0  0  0  0
 32 41  1  0  0  0  0
 32 35  1  0  0  0  0
 33 40  1  0  0  0  0
 34 39  1  0  0  0  0
 35 34  1  0  0  0  0
 35 36  1  0  0  0  0
 36 38  1  0  0  0  0
 36 37  1  0  0  0  0
 38 33  1  0  0  0  0
 39 33  1  0  0  0  0
 42 43  1  0  0  0  0
 42 45  1  0  0  0  0
 44 42  1  0  0  0  0
 44 41  1  0  0  0  0
 44 45  1  0  0  0  0
 45 46  1  0  0  0  0
 46 47  1  0  0  0  0
 47 48  1  0  0  0  0
 48 52  1  0  0  0  0
 48 49  1  0  0  0  0
 49 51  2  0  0  0  0
 49 50  1  0  0  0  0
 52 53  1  0  0  0  0
 54 53  1  0  0  0  0
 55 54  1  0  0  0  0
 56 55  1  0  0  0  0
 57 56  1  0  0  0  0
 58 56  1  0  0  0  0
M  END
>  <MODEL>
1

>  <REMARK>
 VINA RESULT:      -6.3      0.000      0.000
  Name = 
  18 active torsions:
  status: ('A' for Active; 'I' for Inactive)
    1  A    between atoms: CA_1  and  C_3
    2  A    between atoms: CA_1  and  C_27
    3  A    between atoms: CA_1  and  N_35
    4  A    between atoms: C_2  and  C_38
    5  A    between atoms: C_5  and  O_57
    6  A    between atoms: C_8  and  C_37
    7  A    between atoms: C_12  and  C_55
    8  A    between atoms: O_14  and  C_21
    9  A    between atoms: O_14  and  C_56
   10  A    between atoms: O_15  and  C_20
   11  A    between atoms: O_15  and  C_55
   12  A    between atoms: N_22  and  C_44
   13  A    between atoms: C_23  and  C_37
   14  A    between atoms: C_23  and  C_39
   15  A    between atoms: C_27  and  C_40
   16  A    between atoms: C_30  and  C_58
   17  A    between atoms: N_35  and  C_39
   18  A    between atoms: C_40  and  C_51
                            x       y       z     vdW  Elec       q    Type
                         _______ _______ _______ _____ _____    ______ ____

>  <TORSDO>
F 18

$$$$
=
 OpenBabel11072409203D

 58 63  0  0  1  0  0  0  0  0999 V2000
  192.0640  175.6910  146.8350 C   0  0  0  0  0  0  0  0  0  0  0  0
  193.4080  174.4300  145.2810 N   0  0  0  0  0  0  0  0  0  0  0  0
  192.9920  176.7750  144.7500 C   0  0  0  0  0  2  0  0  0  0  0  0
  192.7810  174.5890  146.5550 C   0  0  0  0  0  3  0  0  0  0  0  0
  193.4950  175.3930  144.4120 C   0  0  0  0  0  0  0  0  0  0  0  0
  191.8080  176.7050  145.7470 C   0  0  1  0  0  3  0  0  0  0  0  0
  190.5290  176.6010  143.6940 O   0  0  0  0  0  0  0  0  0  0  0  0
  188.5730  176.9150  146.7220 C   0  0  0  0  0  2  0  0  0  0  0  0
  188.2200  175.0970  141.3120 O   0  0  0  0  0  0  0  0  0  0  0  0
  189.3680  177.5120  145.5760 C   0  0  0  0  0  2  0  0  0  0  0  0
  187.3430  177.7390  147.0520 C   0  0  0  0  0  2  0  0  0  0  0  0
  188.9330  176.1320  141.9380 C   0  0  1  0  0  3  0  0  0  0  0  0
  190.4100  176.5110  145.0880 C   0  0  2  0  0  3  0  0  0  0  0  0
  186.6050  178.4000  144.7670 C   0  0  0  0  0  2  0  0  0  0  0  0
  188.0140  177.3010  142.3820 C   0  0  2  0  0  3  0  0  0  0  0  0
  186.6580  176.5570  140.2570 C   0  0  1  0  0  3  0  0  0  0  0  0
  184.9540  178.1200  146.5910 C   0  0  0  0  0  1  0  0  0  0  0  0
  186.2520  177.5870  146.0060 C   0  0  2  0  0  3  0  0  0  0  0  0
  185.8260  177.9440  143.5400 C   0  0  0  0  0  2  0  0  0  0  0  0
  187.8460  175.6290  140.0710 C   0  0  0  0  0  2  0  0  0  0  0  0
  186.5750  176.9040  142.7090 C   0  0  1  0  0  3  0  0  0  0  0  0
  186.8920  177.5800  141.3770 C   0  0  1  0  0  3  0  0  0  0  0  0
  189.7350  175.5780  143.1300 C   0  0  1  0  0  3  0  0  0  0  0  0
  186.3960  177.2820  138.9510 C   0  0  0  0  0  2  0  0  0  0  0  0
  186.3650  176.3860  137.8790 O   0  0  0  0  0  1  0  0  0  0  0  0
  190.4790  174.4370  142.7430 O   0  0  0  0  0  0  0  0  0  0  0  0
  189.8090  173.2740  143.1510 C   0  0  0  0  0  2  0  0  0  0  0  0
  190.2950  172.8680  144.5240 C   0  0  0  0  0  1  0  0  0  0  0  0
  191.5300  177.0770  148.8020 C   0  0  0  0  0  1  0  0  0  0  0  0
  191.4510  175.8530  148.0750 O   0  0  0  0  0  0  0  0  0  0  0  0
  194.2040  175.1740  143.1780 N   0  0  0  0  0  0  0  0  0  0  0  0
  195.1090  174.2530  142.9710 C   0  0  0  0  0  0  0  0  0  0  0  0
  196.5760  170.9890  145.5340 C   0  0  2  0  0  3  0  0  0  0  0  0
  195.2050  171.7280  143.5490 C   0  0  0  0  0  2  0  0  0  0  0  0
  195.3660  173.1780  144.0100 C   0  0  1  0  0  3  0  0  0  0  0  0
  196.6270  173.4090  144.8480 C   0  0  2  0  0  3  0  0  0  0  0  0
  197.9330  173.3910  144.0610 C   0  0  0  0  0  1  0  0  0  0  0  0
  196.6760  172.4390  146.0240 C   0  0  0  0  0  2  0  0  0  0  0  0
  195.2800  170.7730  144.7430 C   0  0  0  0  0  2  0  0  0  0  0  0
  196.6020  170.0520  146.7200 C   0  0  0  0  0  1  0  0  0  0  0  0
  195.8360  174.3290  141.7720 O   0  0  0  0  0  0  0  0  0  0  0  0
  197.8580  175.0650  140.6360 C   0  0  2  0  0  3  0  0  0  0  0  0
  197.9400  173.6740  140.4670 O   0  0  0  0  0  1  0  0  0  0  0  0
  196.5740  175.4830  141.3610 C   0  0  1  0  0  3  0  0  0  0  0  0
  196.6880  175.6530  139.8440 C   0  0  2  0  0  3  0  0  0  0  0  0
  195.8400  174.6510  139.0360 C   0  0  0  0  0  2  0  0  0  0  0  0
  196.3180  174.6040  137.5860 C   0  0  0  0  0  2  0  0  0  0  0  0
  195.2510  175.1140  136.6180 C   0  0  2  0  0  3  0  0  0  0  0  0
  195.8310  176.1930  135.7450 C   0  0  0  0  0  0  0  0  0  0  0  0
  197.2070  176.3090  135.6080 O   0  0  0  0  0  1  0  0  0  0  0  0
  195.0800  177.0250  135.1610 O   0  0  0  0  0  0  0  0  0  0  0  0
  194.0870  175.6070  137.3470 N   0  0  0  0  0  2  0  0  0  0  0  0
  192.9110  174.9240  136.8310 C   0  0  0  0  0  2  0  0  0  0  0  0
  192.4390  173.8740  137.8200 C   0  0  0  0  0  2  0  0  0  0  0  0
  191.9210  172.6490  137.0950 C   0  0  0  0  0  2  0  0  0  0  0  0
  190.6120  172.2020  137.7140 C   0  0  1  0  0  3  0  0  0  0  0  0
  190.8660  171.3500  138.7920 O   0  0  0  0  0  1  0  0  0  0  0  0
  189.8680  173.3620  138.1790 N   0  0  0  0  0  1  0  0  0  0  0  0
  1 30  1  0  0  0  0
  2  4  1  0  0  0  0
  4  1  2  0  0  0  0
  5  3  1  0  0  0  0
  5  2  2  0  0  0  0
  6  3  1  6  0  0  0
  6  1  1  0  0  0  0
  7 13  1  0  0  0  0
  8 11  1  0  0  0  0
 10  8  1  0  0  0  0
 12  9  1  1  0  0  0
 12 15  1  0  0  0  0
 12 23  1  0  0  0  0
 13 10  1  1  0  0  0
 13  6  1  0  0  0  0
 14 18  1  0  0  0  0
 15 21  1  0  0  0  0
 16 22  1  0  0  0  0
 18 17  1  0  0  0  0
 18 11  1  0  0  0  0
 19 14  1  0  0  0  0
 20 16  1  0  0  0  0
 20  9  1  0  0  0  0
 21 19  1  0  0  0  0
 22 15  1  0  0  0  0
 22 21  1  0  0  0  0
 23  7  1  0  0  0  0
 24 16  1  0  0  0  0
 25 24  1  0  0  0  0
 26 23  1  0  0  0  0
 26 27  1  0  0  0  0
 27 28  1  0  0  0  0
 30 29  1  0  0  0  0
 31  5  1  0  0  0  0
 32 31  2  0  0  0  0
 32 35  1  0  0  0  0
 33 38  1  0  0  0  0
 33 40  1  0  0  0  0
 34 35  1  0  0  0  0
 34 39  1  0  0  0  0
 35 36  1  0  0  0  0
 36 38  1  0  0  0  0
 37 36  1  0  0  0  0
 39 33  1  0  0  0  0
 41 32  1  0  0  0  0
 42 44  1  0  0  0  0
 43 42  1  0  0  0  0
 44 41  1  0  0  0  0
 45 42  1  0  0  0  0
 45 44  1  0  0  0  0
 46 45  1  0  0  0  0
 47 46  1  0  0  0  0
 48 52  1  0  0  0  0
 48 47  1  0  0  0  0
 49 48  1  0  0  0  0
 50 49  1  0  0  0  0
 51 49  2  0  0  0  0
 53 52  1  0  0  0  0
 53 54  1  0  0  0  0
 55 56  1  0  0  0  0
 55 54  1  0  0  0  0
 56 58  1  0  0  0  0
 56 57  1  0  0  0  0
M  END
>  <MODEL>
2

>  <REMARK>
 VINA RESULT:      -6.0      2.712      9.845
  Name = 
  18 active torsions:
  status: ('A' for Active; 'I' for Inactive)
    1  A    between atoms: CA_1  and  C_3
    2  A    between atoms: CA_1  and  C_27
    3  A    between atoms: CA_1  and  N_35
    4  A    between atoms: C_2  and  C_38
    5  A    between atoms: C_5  and  O_57
    6  A    between atoms: C_8  and  C_37
    7  A    between atoms: C_12  and  C_55
    8  A    between atoms: O_14  and  C_21
    9  A    between atoms: O_14  and  C_56
   10  A    between atoms: O_15  and  C_20
   11  A    between atoms: O_15  and  C_55
   12  A    between atoms: N_22  and  C_44
   13  A    between atoms: C_23  and  C_37
   14  A    between atoms: C_23  and  C_39
   15  A    between atoms: C_27  and  C_40
   16  A    between atoms: C_30  and  C_58
   17  A    between atoms: N_35  and  C_39
   18  A    between atoms: C_40  and  C_51
                            x       y       z     vdW  Elec       q    Type
                         _______ _______ _______ _____ _____    ______ ____

>  <TORSDO>
F 18

$$$$
=
 OpenBabel11072409203D

 58 63  0  0  1  0  0  0  0  0999 V2000
  191.8580  170.5510  138.6260 C   0  0  0  0  0  0  0  0  0  0  0  0
  190.2920  171.5390  140.1690 N   0  0  0  0  0  0  0  0  0  0  0  0
  191.3630  173.0290  138.5600 C   0  0  0  0  0  2  0  0  0  0  0  0
  190.8790  170.4020  139.5340 C   0  0  0  0  0  3  0  0  0  0  0  0
  190.5130  172.7580  139.7790 C   0  0  0  0  0  0  0  0  0  0  0  0
  192.4340  171.9250  138.3770 C   0  0  1  0  0  3  0  0  0  0  0  0
  193.9910  171.0630  140.0190 O   0  0  0  0  0  0  0  0  0  0  0  0
  194.3870  174.5650  139.1970 C   0  0  0  0  0  2  0  0  0  0  0  0
  197.2680  170.0800  141.2670 O   0  0  0  0  0  0  0  0  0  0  0  0
  193.7470  173.4420  139.9920 C   0  0  0  0  0  2  0  0  0  0  0  0
  194.6720  175.7810  140.0590 C   0  0  0  0  0  2  0  0  0  0  0  0
  195.9270  170.4870  141.3490 C   0  0  1  0  0  3  0  0  0  0  0  0
  193.7520  172.1560  139.1720 C   0  0  2  0  0  3  0  0  0  0  0  0
  195.4180  174.6860  142.1680 C   0  0  0  0  0  2  0  0  0  0  0  0
  195.7380  171.7250  142.2650 C   0  0  2  0  0  3  0  0  0  0  0  0
  197.7730  170.6440  143.5280 C   0  0  1  0  0  3  0  0  0  0  0  0
  196.2960  176.9100  141.5260 C   0  0  0  0  0  1  0  0  0  0  0  0
  195.8480  175.5580  140.9950 C   0  0  2  0  0  3  0  0  0  0  0  0
  196.6070  174.0510  142.8770 C   0  0  0  0  0  2  0  0  0  0  0  0
  197.5440  169.5270  142.5250 C   0  0  0  0  0  2  0  0  0  0  0  0
  196.9450  172.6580  142.3470 C   0  0  1  0  0  3  0  0  0  0  0  0
  196.6530  171.6920  143.4930 C   0  0  1  0  0  3  0  0  0  0  0  0
  195.3660  170.7530  139.9400 C   0  0  1  0  0  3  0  0  0  0  0  0
  197.8650  170.0410  144.9160 C   0  0  0  0  0  2  0  0  0  0  0  0
  197.1740  170.8210  145.8470 O   0  0  0  0  0  1  0  0  0  0  0  0
  195.6500  169.6660  139.0770 O   0  0  0  0  0  0  0  0  0  0  0  0
  196.0400  170.1490  137.8190 C   0  0  0  0  0  2  0  0  0  0  0  0
  197.5340  170.3840  137.8110 C   0  0  0  0  0  1  0  0  0  0  0  0
  192.4810  168.1670  138.6240 C   0  0  0  0  0  1  0  0  0  0  0  0
  192.4350  169.4480  138.0020 O   0  0  0  0  0  0  0  0  0  0  0  0
  189.8290  173.8470  140.4270 N   0  0  0  0  0  0  0  0  0  0  0  0
  189.9830  174.2110  141.6730 C   0  0  0  0  0  0  0  0  0  0  0  0
  192.6120  172.5620  144.7950 C   0  0  2  0  0  3  0  0  0  0  0  0
  191.8420  174.5510  143.4480 C   0  0  0  0  0  2  0  0  0  0  0  0
  191.0790  173.5980  142.5250 C   0  0  1  0  0  3  0  0  0  0  0  0
  190.6800  172.2870  143.2070 C   0  0  2  0  0  3  0  0  0  0  0  0
  189.5420  172.4080  144.2150 C   0  0  0  0  0  1  0  0  0  0  0  0
  191.8990  171.6110  143.8260 C   0  0  0  0  0  2  0  0  0  0  0  0
  193.0460  173.8450  144.0740 C   0  0  0  0  0  2  0  0  0  0  0  0
  193.8280  171.8760  145.3750 C   0  0  0  0  0  1  0  0  0  0  0  0
  189.0780  175.1580  142.1790 O   0  0  0  0  0  0  0  0  0  0  0  0
  186.9910  176.3230  141.7270 C   0  0  2  0  0  3  0  0  0  0  0  0
  186.6120  175.4850  142.7870 O   0  0  0  0  0  1  0  0  0  0  0  0
  188.4790  176.1880  141.3890 C   0  0  1  0  0  3  0  0  0  0  0  0
  187.9820  177.3930  142.1910 C   0  0  2  0  0  3  0  0  0  0  0  0
  188.3750  177.3580  143.6810 C   0  0  0  0  0  2  0  0  0  0  0  0
  187.3700  178.1570  144.5100 C   0  0  0  0  0  2  0  0  0  0  0  0
  186.7680  177.3190  145.6370 C   0  0  2  0  0  3  0  0  0  0  0  0
  185.4340  177.8870  146.0370 C   0  0  0  0  0  0  0  0  0  0  0  0
  185.1490  179.2230  145.7930 O   0  0  0  0  0  0  0  0  0  0  0  0
  184.5780  177.1720  146.6310 O   0  0  0  0  0  1  0  0  0  0  0  0
  187.6730  177.2660  146.7810 N   0  0  0  0  0  2  0  0  0  0  0  0
  187.8960  175.8680  147.1140 C   0  0  0  0  0  2  0  0  0  0  0  0
  189.1050  175.3380  146.3630 C   0  0  0  0  0  2  0  0  0  0  0  0
  190.2430  175.0430  147.3180 C   0  0  0  0  0  2  0  0  0  0  0  0
  191.3370  176.0780  147.1480 C   0  0  1  0  0  3  0  0  0  0  0  0
  191.1030  176.8260  145.9910 O   0  0  0  0  0  1  0  0  0  0  0  0
  191.3580  176.9640  148.3010 N   0  0  0  0  0  1  0  0  0  0  0  0
  1  4  2  0  0  0  0
  3  5  1  0  0  0  0
  4  2  1  0  0  0  0
  5  2  2  0  0  0  0
  5 31  1  0  0  0  0
  6  3  1  1  0  0  0
  6  1  1  0  0  0  0
  6 13  1  0  0  0  0
  8 10  1  0  0  0  0
  8 11  1  0  0  0  0
  9 20  1  0  0  0  0
 11 18  1  0  0  0  0
 12  9  1  6  0  0  0
 12 15  1  0  0  0  0
 13 10  1  1  0  0  0
 13  7  1  0  0  0  0
 14 19  1  0  0  0  0
 15 21  1  0  0  0  0
 15 22  1  0  0  0  0
 16 24  1  0  0  0  0
 18 17  1  0  0  0  0
 18 14  1  0  0  0  0
 20 16  1  0  0  0  0
 21 19  1  0  0  0  0
 21 22  1  0  0  0  0
 22 16  1  0  0  0  0
 23  7  1  0  0  0  0
 23 12  1  0  0  0  0
 24 25  1  0  0  0  0
 26 23  1  0  0  0  0
 27 26  1  0  0  0  0
 28 27  1  0  0  0  0
 30 29  1  0  0  0  0
 30  1  1  0  0  0  0
 31 32  2  0  0  0  0
 32 41  1  0  0  0  0
 32 35  1  0  0  0  0
 33 40  1  0  0  0  0
 34 39  1  0  0  0  0
 35 36  1  0  0  0  0
 35 34  1  0  0  0  0
 36 38  1  0  0  0  0
 36 37  1  0  0  0  0
 38 33  1  0  0  0  0
 39 33  1  0  0  0  0
 42 45  1  0  0  0  0
 42 43  1  0  0  0  0
 44 42  1  0  0  0  0
 44 41  1  0  0  0  0
 44 45  1  0  0  0  0
 45 46  1  0  0  0  0
 46 47  1  0  0  0  0
 47 48  1  0  0  0  0
 48 49  1  0  0  0  0
 48 52  1  0  0  0  0
 49 51  1  0  0  0  0
 50 49  2  0  0  0  0
 52 53  1  0  0  0  0
 54 53  1  0  0  0  0
 54 55  1  0  0  0  0
 56 55  1  0  0  0  0
 56 58  1  0  0  0  0
 57 56  1  0  0  0  0
M  END
>  <MODEL>
3

>  <REMARK>
 VINA RESULT:      -6.0      1.684      3.229
  Name = 
  18 active torsions:
  status: ('A' for Active; 'I' for Inactive)
    1  A    between atoms: CA_1  and  C_3
    2  A    between atoms: CA_1  and  C_27
    3  A    between atoms: CA_1  and  N_35
    4  A    between atoms: C_2  and  C_38
    5  A    between atoms: C_5  and  O_57
    6  A    between atoms: C_8  and  C_37
    7  A    between atoms: C_12  and  C_55
    8  A    between atoms: O_14  and  C_21
    9  A    between atoms: O_14  and  C_56
   10  A    between atoms: O_15  and  C_20
   11  A    between atoms: O_15  and  C_55
   12  A    between atoms: N_22  and  C_44
   13  A    between atoms: C_23  and  C_37
   14  A    between atoms: C_23  and  C_39
   15  A    between atoms: C_27  and  C_40
   16  A    between atoms: C_30  and  C_58
   17  A    between atoms: N_35  and  C_39
   18  A    between atoms: C_40  and  C_51
                            x       y       z     vdW  Elec       q    Type
                         _______ _______ _______ _____ _____    ______ ____

>  <TORSDO>
F 18

$$$$
=
 OpenBabel11072409203D

 58 63  0  0  1  0  0  0  0  0999 V2000
  191.6730  170.1970  138.6360 C   0  0  0  0  0  0  0  0  0  0  0  0
  190.3990  171.4010  140.2910 N   0  0  0  0  0  0  0  0  0  0  0  0
  191.0590  172.6230  138.2850 C   0  0  0  0  0  2  0  0  0  0  0  0
  190.9010  170.1830  139.7370 C   0  0  0  0  0  3  0  0  0  0  0  0
  190.4810  172.5430  139.6770 C   0  0  0  0  0  0  0  0  0  0  0  0
  192.1240  171.5190  138.0640 C   0  0  1  0  0  3  0  0  0  0  0  0
  193.6220  171.8840  139.9300 O   0  0  0  0  0  0  0  0  0  0  0  0
  194.8190  173.0710  136.7270 C   0  0  0  0  0  2  0  0  0  0  0  0
  196.6640  171.3870  141.8710 O   0  0  0  0  0  0  0  0  0  0  0  0
  194.0290  173.2510  138.0100 C   0  0  0  0  0  2  0  0  0  0  0  0
  195.5500  174.3380  136.3260 C   0  0  0  0  0  2  0  0  0  0  0  0
  195.5110  172.0560  141.4300 C   0  0  1  0  0  3  0  0  0  0  0  0
  193.5610  171.8950  138.5280 C   0  0  2  0  0  3  0  0  0  0  0  0
  196.2870  175.1700  138.5550 C   0  0  0  0  0  2  0  0  0  0  0  0
  195.8060  173.5130  140.9850 C   0  0  2  0  0  3  0  0  0  0  0  0
  197.6420  173.3250  142.8550 C   0  0  1  0  0  3  0  0  0  0  0  0
  197.6230  175.6520  136.5270 C   0  0  0  0  0  1  0  0  0  0  0  0
  196.7510  174.6140  137.2140 C   0  0  2  0  0  3  0  0  0  0  0  0
  197.3540  175.0350  139.6330 C   0  0  0  0  0  2  0  0  0  0  0  0
  196.9690  171.9850  143.1000 C   0  0  0  0  0  2  0  0  0  0  0  0
  197.2180  173.7530  140.4520 C   0  0  1  0  0  3  0  0  0  0  0  0
  196.8550  174.1970  141.8680 C   0  0  1  0  0  3  0  0  0  0  0  0
  194.8340  171.2610  140.3000 C   0  0  1  0  0  3  0  0  0  0  0  0
  197.7790  174.0510  144.1790 C   0  0  0  0  0  2  0  0  0  0  0  0
  197.6000  173.1750  145.2520 O   0  0  0  0  0  1  0  0  0  0  0  0
  194.6780  169.9020  140.6700 O   0  0  0  0  0  0  0  0  0  0  0  0
  193.8020  169.8070  141.7620 C   0  0  0  0  0  2  0  0  0  0  0  0
  193.3820  168.3670  141.9480 C   0  0  0  0  0  1  0  0  0  0  0  0
  191.8420  168.6030  136.7640 C   0  0  0  0  0  1  0  0  0  0  0  0
  192.1660  169.0150  138.0900 O   0  0  0  0  0  0  0  0  0  0  0  0
  189.8890  173.7130  140.2720 N   0  0  0  0  0  0  0  0  0  0  0  0
  190.0960  174.1380  141.4900 C   0  0  0  0  0  0  0  0  0  0  0  0
  192.8130  172.7120  144.6470 C   0  0  2  0  0  3  0  0  0  0  0  0
  192.2640  174.4300  142.8830 C   0  0  0  0  0  2  0  0  0  0  0  0
  191.1670  173.5010  142.3570 C   0  0  1  0  0  3  0  0  0  0  0  0
  190.6220  172.5460  143.4220 C   0  0  2  0  0  3  0  0  0  0  0  0
  189.7290  173.1990  144.4720 C   0  0  0  0  0  1  0  0  0  0  0  0
  191.7570  171.7610  144.0720 C   0  0  0  0  0  2  0  0  0  0  0  0
  193.3790  173.6220  143.5490 C   0  0  0  0  0  2  0  0  0  0  0  0
  193.9370  171.9090  145.2620 C   0  0  0  0  0  1  0  0  0  0  0  0
  189.2710  175.1750  141.9560 O   0  0  0  0  0  0  0  0  0  0  0  0
  188.8110  177.5630  141.9260 C   0  0  2  0  0  3  0  0  0  0  0  0
  187.6620  177.0560  141.3010 O   0  0  0  0  0  1  0  0  0  0  0  0
  189.7590  176.4490  142.3830 C   0  0  1  0  0  3  0  0  0  0  0  0
  188.8650  177.1600  143.4020 C   0  0  2  0  0  3  0  0  0  0  0  0
  187.6940  176.2980  143.9160 C   0  0  0  0  0  2  0  0  0  0  0  0
  186.7620  177.1400  144.7850 C   0  0  0  0  0  2  0  0  0  0  0  0
  186.7170  176.6360  146.2260 C   0  0  2  0  0  3  0  0  0  0  0  0
  185.6810  177.4030  147.0010 C   0  0  0  0  0  0  0  0  0  0  0  0
  186.0430  178.0860  148.1540 O   0  0  0  0  0  1  0  0  0  0  0  0
  184.4700  177.4040  146.6390 O   0  0  0  0  0  0  0  0  0  0  0  0
  188.0280  176.7540  146.8550 N   0  0  0  0  0  2  0  0  0  0  0  0
  188.4560  175.4230  147.2560 C   0  0  0  0  0  2  0  0  0  0  0  0
  189.9720  175.3510  147.2990 C   0  0  0  0  0  2  0  0  0  0  0  0
  190.5850  176.6040  146.7070 C   0  0  0  0  0  2  0  0  0  0  0  0
  191.8460  176.2480  145.9450 C   0  0  1  0  0  3  0  0  0  0  0  0
  192.0790  177.1990  144.9490 O   0  0  0  0  0  1  0  0  0  0  0  0
  192.9780  176.2150  146.8580 N   0  0  0  0  0  1  0  0  0  0  0  0
  1  4  2  0  0  0  0
  3  5  1  0  0  0  0
  4  2  1  0  0  0  0
  5 31  1  0  0  0  0
  5  2  2  0  0  0  0
  6  3  1  1  0  0  0
  6 13  1  0  0  0  0
  6  1  1  0  0  0  0
  7 23  1  0  0  0  0
  8 10  1  0  0  0  0
  9 20  1  0  0  0  0
 11  8  1  0  0  0  0
 11 18  1  0  0  0  0
 12  9  1  6  0  0  0
 13 10  1  1  0  0  0
 13  7  1  0  0  0  0
 14 19  1  0  0  0  0
 15 12  1  0  0  0  0
 15 22  1  0  0  0  0
 16 20  1  0  0  0  0
 16 24  1  0  0  0  0
 17 18  1  0  0  0  0
 18 14  1  0  0  0  0
 19 21  1  0  0  0  0
 21 15  1  0  0  0  0
 21 22  1  0  0  0  0
 22 16  1  0  0  0  0
 23 26  1  0  0  0  0
 23 12  1  0  0  0  0
 24 25  1  0  0  0  0
 26 27  1  0  0  0  0
 27 28  1  0  0  0  0
 29 30  1  0  0  0  0
 30  1  1  0  0  0  0
 31 32  2  0  0  0  0
 32 41  1  0  0  0  0
 32 35  1  0  0  0  0
 33 40  1  0  0  0  0
 34 39  1  0  0  0  0
 35 34  1  0  0  0  0
 35 36  1  0  0  0  0
 36 38  1  0  0  0  0
 36 37  1  0  0  0  0
 38 33  1  0  0  0  0
 39 33  1  0  0  0  0
 41 44  1  0  0  0  0
 42 44  1  0  0  0  0
 42 45  1  0  0  0  0
 43 42  1  0  0  0  0
 44 45  1  0  0  0  0
 45 46  1  0  0  0  0
 46 47  1  0  0  0  0
 47 48  1  0  0  0  0
 48 52  1  0  0  0  0
 48 49  1  0  0  0  0
 49 50  1  0  0  0  0
 51 49  2  0  0  0  0
 52 53  1  0  0  0  0
 53 54  1  0  0  0  0
 55 54  1  0  0  0  0
 56 55  1  0  0  0  0
 56 58  1  0  0  0  0
 57 56  1  0  0  0  0
M  END
>  <MODEL>
4

>  <REMARK>
 VINA RESULT:      -6.0      1.392      2.575
  Name = 
  18 active torsions:
  status: ('A' for Active; 'I' for Inactive)
    1  A    between atoms: CA_1  and  C_3
    2  A    between atoms: CA_1  and  C_27
    3  A    between atoms: CA_1  and  N_35
    4  A    between atoms: C_2  and  C_38
    5  A    between atoms: C_5  and  O_57
    6  A    between atoms: C_8  and  C_37
    7  A    between atoms: C_12  and  C_55
    8  A    between atoms: O_14  and  C_21
    9  A    between atoms: O_14  and  C_56
   10  A    between atoms: O_15  and  C_20
   11  A    between atoms: O_15  and  C_55
   12  A    between atoms: N_22  and  C_44
   13  A    between atoms: C_23  and  C_37
   14  A    between atoms: C_23  and  C_39
   15  A    between atoms: C_27  and  C_40
   16  A    between atoms: C_30  and  C_58
   17  A    between atoms: N_35  and  C_39
   18  A    between atoms: C_40  and  C_51
                            x       y       z     vdW  Elec       q    Type
                         _______ _______ _______ _____ _____    ______ ____

>  <TORSDO>
F 18

$$$$
=
 OpenBabel11072409203D

 58 63  0  0  1  0  0  0  0  0999 V2000
  189.9960  172.9980  139.9970 C   0  0  0  0  0  0  0  0  0  0  0  0
  189.3470  173.0170  142.3190 N   0  0  0  0  0  0  0  0  0  0  0  0
  191.2500  174.4050  141.6810 C   0  0  0  0  0  2  0  0  0  0  0  0
  189.0920  172.7040  140.9480 C   0  0  0  0  0  3  0  0  0  0  0  0
  190.3420  173.7610  142.7010 C   0  0  0  0  0  0  0  0  0  0  0  0
  191.3470  173.5380  140.4010 C   0  0  1  0  0  3  0  0  0  0  0  0
  192.9200  172.2950  141.7580 O   0  0  0  0  0  0  0  0  0  0  0  0
  193.3400  171.9390  138.1810 C   0  0  0  0  0  2  0  0  0  0  0  0
  194.4480  169.2840  143.1220 O   0  0  0  0  0  0  0  0  0  0  0  0
  193.5910  172.6610  139.4920 C   0  0  0  0  0  2  0  0  0  0  0  0
  194.5790  171.9000  137.3060 C   0  0  0  0  0  2  0  0  0  0  0  0
  194.3730  170.6350  142.7480 C   0  0  1  0  0  3  0  0  0  0  0  0
  192.4290  172.4200  140.4500 C   0  0  2  0  0  3  0  0  0  0  0  0
  196.3450  171.5310  139.0240 C   0  0  0  0  0  2  0  0  0  0  0  0
  195.5720  171.0720  141.8650 C   0  0  2  0  0  3  0  0  0  0  0  0
  196.8240  169.2730  143.3140 C   0  0  1  0  0  3  0  0  0  0  0  0
  196.6300  170.6690  136.7200 C   0  0  0  0  0  1  0  0  0  0  0  0
  195.6210  170.9250  137.8280 C   0  0  2  0  0  3  0  0  0  0  0  0
  197.0490  170.4740  139.8650 C   0  0  0  0  0  2  0  0  0  0  0  0
  195.4970  169.2340  144.0510 C   0  0  0  0  0  2  0  0  0  0  0  0
  196.1910  169.9600  141.0190 C   0  0  1  0  0  3  0  0  0  0  0  0
  196.8890  170.4210  142.2970 C   0  0  1  0  0  3  0  0  0  0  0  0
  193.0360  170.9170  142.0410 C   0  0  1  0  0  3  0  0  0  0  0  0
  197.9400  169.4270  144.3280 C   0  0  0  0  0  2  0  0  0  0  0  0
  197.4800  170.0560  145.4880 O   0  0  0  0  0  1  0  0  0  0  0  0
  191.9530  170.4060  142.8000 O   0  0  0  0  0  0  0  0  0  0  0  0
  191.0040  169.8300  141.9420 C   0  0  0  0  0  2  0  0  0  0  0  0
  191.5960  168.6020  141.2880 C   0  0  0  0  0  1  0  0  0  0  0  0
  189.6290  171.3560  138.1970 C   0  0  0  0  0  1  0  0  0  0  0  0
  189.7550  172.6980  138.6590 O   0  0  0  0  0  0  0  0  0  0  0  0
  190.4910  174.0870  144.0950 N   0  0  0  0  0  0  0  0  0  0  0  0
  189.8910  175.0680  144.7180 C   0  0  0  0  0  0  0  0  0  0  0  0
  187.1320  178.0690  143.0570 C   0  0  2  0  0  3  0  0  0  0  0  0
  187.7310  176.4860  144.9280 C   0  0  0  0  0  2  0  0  0  0  0  0
  188.8020  175.8670  144.0270 C   0  0  1  0  0  3  0  0  0  0  0  0
  189.3190  176.8300  142.9550 C   0  0  2  0  0  3  0  0  0  0  0  0
  190.2290  177.9390  143.4730 C   0  0  0  0  0  1  0  0  0  0  0  0
  188.1620  177.3990  142.1400 C   0  0  0  0  0  2  0  0  0  0  0  0
  186.5920  177.0690  144.0880 C   0  0  0  0  0  2  0  0  0  0  0  0
  185.9860  178.6020  142.2270 C   0  0  0  0  0  1  0  0  0  0  0  0
  190.3210  175.3550  146.0230 O   0  0  0  0  0  0  0  0  0  0  0  0
  191.4340  176.5220  147.8450 C   0  0  2  0  0  3  0  0  0  0  0  0
  191.3410  175.2240  148.3690 O   0  0  0  0  0  1  0  0  0  0  0  0
  190.8860  176.6090  146.4170 C   0  0  1  0  0  3  0  0  0  0  0  0
  192.3970  176.5740  146.6560 C   0  0  2  0  0  3  0  0  0  0  0  0
  193.0640  175.2420  146.2600 C   0  0  0  0  0  2  0  0  0  0  0  0
  194.5840  175.3650  146.3500 C   0  0  0  0  0  2  0  0  0  0  0  0
  195.2730  174.8400  145.0920 C   0  0  2  0  0  3  0  0  0  0  0  0
  196.0360  173.5850  145.4150 C   0  0  0  0  0  0  0  0  0  0  0  0
  197.4230  173.6060  145.4490 O   0  0  0  0  0  0  0  0  0  0  0  0
  195.4300  172.4940  145.6200 O   0  0  0  0  0  1  0  0  0  0  0  0
  196.1580  175.8540  144.5270 N   0  0  0  0  0  2  0  0  0  0  0  0
  195.6150  176.2590  143.2410 C   0  0  0  0  0  2  0  0  0  0  0  0
  195.0390  175.0580  142.5140 C   0  0  0  0  0  2  0  0  0  0  0  0
  195.2020  175.2090  141.0160 C   0  0  0  0  0  2  0  0  0  0  0  0
  196.6750  175.2410  140.6610 C   0  0  1  0  0  3  0  0  0  0  0  0
  197.3050  174.0950  141.1530 O   0  0  0  0  0  1  0  0  0  0  0  0
  196.8300  175.2960  139.2150 N   0  0  0  0  0  1  0  0  0  0  0  0
  1  6  1  0  0  0  0
  1  4  2  0  0  0  0
  2  5  2  0  0  0  0
  3  5  1  0  0  0  0
  4  2  1  0  0  0  0
  5 31  1  0  0  0  0
  6 13  1  0  0  0  0
  6  3  1  1  0  0  0
  7 23  1  0  0  0  0
  8 10  1  0  0  0  0
  9 20  1  0  0  0  0
 11 18  1  0  0  0  0
 11  8  1  0  0  0  0
 12  9  1  6  0  0  0
 13 10  1  6  0  0  0
 13  7  1  0  0  0  0
 14 19  1  0  0  0  0
 15 22  1  0  0  0  0
 15 12  1  0  0  0  0
 16 20  1  0  0  0  0
 16 24  1  0  0  0  0
 17 18  1  0  0  0  0
 18 14  1  0  0  0  0
 19 21  1  0  0  0  0
 21 15  1  0  0  0  0
 21 22  1  0  0  0  0
 22 16  1  0  0  0  0
 23 12  1  0  0  0  0
 23 26  1  0  0  0  0
 24 25  1  0  0  0  0
 27 26  1  0  0  0  0
 28 27  1  0  0  0  0
 29 30  1  0  0  0  0
 30  1  1  0  0  0  0
 31 32  2  0  0  0  0
 32 41  1  0  0  0  0
 33 39  1  0  0  0  0
 35 32  1  0  0  0  0
 35 34  1  0  0  0  0
 36 37  1  0  0  0  0
 36 35  1  0  0  0  0
 38 36  1  0  0  0  0
 38 33  1  0  0  0  0
 39 34  1  0  0  0  0
 40 33  1  0  0  0  0
 41 44  1  0  0  0  0
 42 43  1  0  0  0  0
 44 45  1  0  0  0  0
 44 42  1  0  0  0  0
 45 42  1  0  0  0  0
 46 47  1  0  0  0  0
 46 45  1  0  0  0  0
 48 49  1  0  0  0  0
 48 47  1  0  0  0  0
 49 50  2  0  0  0  0
 49 51  1  0  0  0  0
 52 48  1  0  0  0  0
 53 52  1  0  0  0  0
 54 53  1  0  0  0  0
 55 54  1  0  0  0  0
 56 55  1  0  0  0  0
 56 57  1  0  0  0  0
 58 56  1  0  0  0  0
M  END
>  <MODEL>
5

>  <REMARK>
 VINA RESULT:      -5.9      2.628      6.129
  Name = 
  18 active torsions:
  status: ('A' for Active; 'I' for Inactive)
    1  A    between atoms: CA_1  and  C_3
    2  A    between atoms: CA_1  and  C_27
    3  A    between atoms: CA_1  and  N_35
    4  A    between atoms: C_2  and  C_38
    5  A    between atoms: C_5  and  O_57
    6  A    between atoms: C_8  and  C_37
    7  A    between atoms: C_12  and  C_55
    8  A    between atoms: O_14  and  C_21
    9  A    between atoms: O_14  and  C_56
   10  A    between atoms: O_15  and  C_20
   11  A    between atoms: O_15  and  C_55
   12  A    between atoms: N_22  and  C_44
   13  A    between atoms: C_23  and  C_37
   14  A    between atoms: C_23  and  C_39
   15  A    between atoms: C_27  and  C_40
   16  A    between atoms: C_30  and  C_58
   17  A    between atoms: N_35  and  C_39
   18  A    between atoms: C_40  and  C_51
                            x       y       z     vdW  Elec       q    Type
                         _______ _______ _______ _____ _____    ______ ____

>  <TORSDO>
F 18

$$$$
=
 OpenBabel11072409203D

 58 63  0  0  1  0  0  0  0  0999 V2000
  196.3970  174.9990  141.3550 C   0  0  0  0  0  0  0  0  0  0  0  0
  194.4130  175.9800  142.3100 N   0  0  0  0  0  0  0  0  0  0  0  0
  196.0300  175.0020  143.8550 C   0  0  0  0  0  2  0  0  0  0  0  0
  195.3080  175.7740  141.2150 C   0  0  0  0  0  3  0  0  0  0  0  0
  194.6880  175.6110  143.5250 C   0  0  0  0  0  0  0  0  0  0  0  0
  196.6000  174.2310  142.6380 C   0  0  1  0  0  3  0  0  0  0  0  0
  195.1270  172.6620  141.5290 O   0  0  0  0  0  0  0  0  0  0  0  0
  196.6960  171.4410  144.5540 C   0  0  0  0  0  2  0  0  0  0  0  0
  194.3190  169.6320  139.6780 O   0  0  0  0  0  0  0  0  0  0  0  0
  195.5890  172.1820  143.8260 C   0  0  0  0  0  2  0  0  0  0  0  0
  196.1630  170.6110  145.7060 C   0  0  0  0  0  2  0  0  0  0  0  0
  194.0800  170.7310  140.5190 C   0  0  1  0  0  3  0  0  0  0  0  0
  196.1190  172.7550  142.5170 C   0  0  2  0  0  3  0  0  0  0  0  0
  194.0460  169.7510  144.7140 C   0  0  0  0  0  2  0  0  0  0  0  0
  193.4130  170.3180  141.8580 C   0  0  2  0  0  3  0  0  0  0  0  0
  192.3470  168.4630  140.3330 C   0  0  1  0  0  3  0  0  0  0  0  0
  195.2710  168.4260  146.4090 C   0  0  0  0  0  1  0  0  0  0  0  0
  195.4290  169.3690  145.2280 C   0  0  2  0  0  3  0  0  0  0  0  0
  193.4500  168.6740  143.8160 C   0  0  0  0  0  2  0  0  0  0  0  0
  193.0460  169.2450  139.2360 C   0  0  0  0  0  2  0  0  0  0  0  0
  193.7400  168.9040  142.3340 C   0  0  1  0  0  3  0  0  0  0  0  0
  192.3900  169.1930  141.6830 C   0  0  1  0  0  3  0  0  0  0  0  0
  195.3880  171.5020  140.7690 C   0  0  1  0  0  3  0  0  0  0  0  0
  190.9060  168.2310  139.9250 C   0  0  0  0  0  2  0  0  0  0  0  0
  190.7530  168.3470  138.5410 O   0  0  0  0  0  1  0  0  0  0  0  0
  196.0520  171.7690  139.5450 O   0  0  0  0  0  0  0  0  0  0  0  0
  197.3930  171.3690  139.6370 C   0  0  0  0  0  2  0  0  0  0  0  0
  197.6450  170.2270  138.6780 C   0  0  0  0  0  1  0  0  0  0  0  0
  197.8410  175.8780  139.5610 C   0  0  0  0  0  1  0  0  0  0  0  0
  197.2750  174.7940  140.2930 O   0  0  0  0  0  0  0  0  0  0  0  0
  193.7630  175.9170  144.5860 N   0  0  0  0  0  0  0  0  0  0  0  0
  192.5270  175.5010  144.6640 C   0  0  0  0  0  0  0  0  0  0  0  0
  190.2190  172.8010  142.0630 C   0  0  2  0  0  3  0  0  0  0  0  0
  191.3220  173.2360  144.2900 C   0  0  0  0  0  2  0  0  0  0  0  0
  191.9980  174.4680  143.6860 C   0  0  1  0  0  3  0  0  0  0  0  0
  191.2250  175.0640  142.5060 C   0  0  2  0  0  3  0  0  0  0  0  0
  189.9480  175.8070  142.8850 C   0  0  0  0  0  1  0  0  0  0  0  0
  190.9530  174.0000  141.4490 C   0  0  0  0  0  2  0  0  0  0  0  0
  191.0390  172.1920  143.2070 C   0  0  0  0  0  2  0  0  0  0  0  0
  189.9840  171.7520  141.0000 C   0  0  0  0  0  1  0  0  0  0  0  0
  191.7210  176.0720  145.6620 O   0  0  0  0  0  0  0  0  0  0  0  0
  191.1060  175.9740  148.0140 C   0  0  2  0  0  3  0  0  0  0  0  0
  191.7850  177.2010  147.9600 O   0  0  0  0  0  1  0  0  0  0  0  0
  191.0020  175.3110  146.6360 C   0  0  1  0  0  3  0  0  0  0  0  0
  189.7910  176.0310  147.2330 C   0  0  2  0  0  3  0  0  0  0  0  0
  189.4610  177.3740  146.5510 C   0  0  0  0  0  2  0  0  0  0  0  0
  188.1450  177.9310  147.0910 C   0  0  0  0  0  2  0  0  0  0  0  0
  186.9720  177.6170  146.1640 C   0  0  2  0  0  3  0  0  0  0  0  0
  185.7590  177.2640  146.9800 C   0  0  0  0  0  0  0  0  0  0  0  0
  185.6150  177.7720  148.2640 O   0  0  0  0  0  1  0  0  0  0  0  0
  184.8810  176.4760  146.5270 O   0  0  0  0  0  0  0  0  0  0  0  0
  187.3130  176.5330  145.2480 N   0  0  0  0  0  2  0  0  0  0  0  0
  186.6360  176.7820  143.9850 C   0  0  0  0  0  2  0  0  0  0  0  0
  187.1060  178.0970  143.3890 C   0  0  0  0  0  2  0  0  0  0  0  0
  185.9400  178.8660  142.8030 C   0  0  0  0  0  2  0  0  0  0  0  0
  184.6350  178.2740  143.2950 C   0  0  1  0  0  3  0  0  0  0  0  0
  184.0360  179.1460  144.2090 O   0  0  0  0  0  1  0  0  0  0  0  0
  183.7380  178.0620  142.1690 N   0  0  0  0  0  1  0  0  0  0  0  0
  1  6  1  0  0  0  0
  2  5  2  0  0  0  0
  4  1  2  0  0  0  0
  4  2  1  0  0  0  0
  5  3  1  0  0  0  0
  5 31  1  0  0  0  0
  6  3  1  1  0  0  0
  7 13  1  0  0  0  0
  8 11  1  0  0  0  0
 10  8  1  0  0  0  0
 12  9  1  6  0  0  0
 12 23  1  0  0  0  0
 12 15  1  0  0  0  0
 13  6  1  0  0  0  0
 13 10  1  1  0  0  0
 14 18  1  0  0  0  0
 15 21  1  0  0  0  0
 16 22  1  0  0  0  0
 18 11  1  0  0  0  0
 18 17  1  0  0  0  0
 19 14  1  0  0  0  0
 20  9  1  0  0  0  0
 20 16  1  0  0  0  0
 21 19  1  0  0  0  0
 22 15  1  0  0  0  0
 22 21  1  0  0  0  0
 23  7  1  0  0  0  0
 24 16  1  0  0  0  0
 25 24  1  0  0  0  0
 26 27  1  0  0  0  0
 26 23  1  0  0  0  0
 28 27  1  0  0  0  0
 29 30  1  0  0  0  0
 30  1  1  0  0  0  0
 31 32  2  0  0  0  0
 32 41  1  0  0  0  0
 33 39  1  0  0  0  0
 35 34  1  0  0  0  0
 35 32  1  0  0  0  0
 36 37  1  0  0  0  0
 36 35  1  0  0  0  0
 38 33  1  0  0  0  0
 38 36  1  0  0  0  0
 39 34  1  0  0  0  0
 40 33  1  0  0  0  0
 41 44  1  0  0  0  0
 43 42  1  0  0  0  0
 44 45  1  0  0  0  0
 44 42  1  0  0  0  0
 45 42  1  0  0  0  0
 46 47  1  0  0  0  0
 46 45  1  0  0  0  0
 48 49  1  0  0  0  0
 48 47  1  0  0  0  0
 49 50  1  0  0  0  0
 51 49  2  0  0  0  0
 52 48  1  0  0  0  0
 53 52  1  0  0  0  0
 54 53  1  0  0  0  0
 55 56  1  0  0  0  0
 55 54  1  0  0  0  0
 56 57  1  0  0  0  0
 58 56  1  0  0  0  0
M  END
>  <MODEL>
6

>  <REMARK>
 VINA RESULT:      -5.8      2.385      5.965
  Name = 
  18 active torsions:
  status: ('A' for Active; 'I' for Inactive)
    1  A    between atoms: CA_1  and  C_3
    2  A    between atoms: CA_1  and  C_27
    3  A    between atoms: CA_1  and  N_35
    4  A    between atoms: C_2  and  C_38
    5  A    between atoms: C_5  and  O_57
    6  A    between atoms: C_8  and  C_37
    7  A    between atoms: C_12  and  C_55
    8  A    between atoms: O_14  and  C_21
    9  A    between atoms: O_14  and  C_56
   10  A    between atoms: O_15  and  C_20
   11  A    between atoms: O_15  and  C_55
   12  A    between atoms: N_22  and  C_44
   13  A    between atoms: C_23  and  C_37
   14  A    between atoms: C_23  and  C_39
   15  A    between atoms: C_27  and  C_40
   16  A    between atoms: C_30  and  C_58
   17  A    between atoms: N_35  and  C_39
   18  A    between atoms: C_40  and  C_51
                            x       y       z     vdW  Elec       q    Type
                         _______ _______ _______ _____ _____    ______ ____

>  <TORSDO>
F 18

$$$$
=
 OpenBabel11072409203D

 58 63  0  0  1  0  0  0  0  0999 V2000
  190.9760  175.2550  145.8790 C   0  0  0  0  0  0  0  0  0  0  0  0
  192.5490  174.3360  144.2990 N   0  0  0  0  0  0  0  0  0  0  0  0
  192.1310  176.7380  144.1900 C   0  0  0  0  0  2  0  0  0  0  0  0
  191.7580  174.2340  145.4840 C   0  0  0  0  0  3  0  0  0  0  0  0
  192.7170  175.4530  143.6570 C   0  0  0  0  0  0  0  0  0  0  0  0
  190.8310  176.4640  144.9870 C   0  0  1  0  0  3  0  0  0  0  0  0
  189.8770  176.1900  142.7790 O   0  0  0  0  0  0  0  0  0  0  0  0
  187.6040  177.4370  145.3040 C   0  0  0  0  0  2  0  0  0  0  0  0
  187.6820  174.6860  140.2910 O   0  0  0  0  0  0  0  0  0  0  0  0
  188.6670  177.6450  144.2410 C   0  0  0  0  0  2  0  0  0  0  0  0
  186.5400  178.5170  145.2630 C   0  0  0  0  0  2  0  0  0  0  0  0
  188.4960  175.6790  140.8610 C   0  0  1  0  0  3  0  0  0  0  0  0
  189.5370  176.3980  144.1240 C   0  0  2  0  0  3  0  0  0  0  0  0
  186.3030  178.8380  142.8040 C   0  0  0  0  0  2  0  0  0  0  0  0
  187.7870  177.0570  140.9300 C   0  0  2  0  0  3  0  0  0  0  0  0
  186.6350  176.1660  138.7430 C   0  0  1  0  0  3  0  0  0  0  0  0
  184.3790  179.2220  144.3140 C   0  0  0  0  0  1  0  0  0  0  0  0
  185.6080  178.3600  144.0730 C   0  0  2  0  0  3  0  0  0  0  0  0
  185.6360  178.2970  141.5460 C   0  0  0  0  0  2  0  0  0  0  0  0
  187.6170  175.0220  138.9330 C   0  0  0  0  0  2  0  0  0  0  0  0
  186.2650  176.9960  141.0480 C   0  0  1  0  0  3  0  0  0  0  0  0
  186.9100  177.3300  139.7050 C   0  0  1  0  0  3  0  0  0  0  0  0
  188.9780  175.2360  142.2530 C   0  0  1  0  0  3  0  0  0  0  0  0
  186.7270  176.6550  137.3110 C   0  0  0  0  0  2  0  0  0  0  0  0
  187.5380  175.8140  136.5450 O   0  0  0  0  0  1  0  0  0  0  0  0
  189.5160  173.9260  142.2020 O   0  0  0  0  0  0  0  0  0  0  0  0
  188.6430  173.0310  142.8380 C   0  0  0  0  0  2  0  0  0  0  0  0
  189.4300  172.1330  143.7660 C   0  0  0  0  0  1  0  0  0  0  0  0
  188.9540  174.4780  147.0530 C   0  0  0  0  0  1  0  0  0  0  0  0
  190.2030  175.1630  147.0330 O   0  0  0  0  0  0  0  0  0  0  0  0
  193.5860  175.4890  142.5090 N   0  0  0  0  0  0  0  0  0  0  0  0
  193.8190  174.4910  141.6970 C   0  0  0  0  0  0  0  0  0  0  0  0
  192.1730  170.4080  141.6260 C   0  0  2  0  0  3  0  0  0  0  0  0
  192.4430  172.6490  140.4990 C   0  0  0  0  0  2  0  0  0  0  0  0
  193.0150  173.2080  141.8030 C   0  0  1  0  0  3  0  0  0  0  0  0
  193.6620  172.1370  142.6860 C   0  0  2  0  0  3  0  0  0  0  0  0
  195.0040  171.6150  142.1840 C   0  0  0  0  0  1  0  0  0  0  0  0
  192.6870  170.9940  142.9470 C   0  0  0  0  0  2  0  0  0  0  0  0
  191.4850  171.4900  140.7850 C   0  0  0  0  0  2  0  0  0  0  0  0
  191.1910  169.2950  141.9140 C   0  0  0  0  0  1  0  0  0  0  0  0
  194.8530  174.6550  140.7610 O   0  0  0  0  0  0  0  0  0  0  0  0
  196.9770  174.3200  139.6240 C   0  0  2  0  0  3  0  0  0  0  0  0
  196.5620  175.5410  139.0720 O   0  0  0  0  0  1  0  0  0  0  0  0
  195.9980  173.8030  140.6840 C   0  0  1  0  0  3  0  0  0  0  0  0
  197.3100  174.4660  141.1110 C   0  0  2  0  0  3  0  0  0  0  0  0
  197.1320  175.8740  141.7130 C   0  0  0  0  0  2  0  0  0  0  0  0
  197.6400  175.8990  143.1540 C   0  0  0  0  0  2  0  0  0  0  0  0
  196.8290  174.9740  144.0590 C   0  0  2  0  0  3  0  0  0  0  0  0
  195.9100  175.7880  144.9270 C   0  0  0  0  0  0  0  0  0  0  0  0
  195.6860  177.1260  144.6350 O   0  0  0  0  0  0  0  0  0  0  0  0
  195.3650  175.2800  145.9490 O   0  0  0  0  0  1  0  0  0  0  0  0
  197.7120  174.1450  144.8740 N   0  0  0  0  0  2  0  0  0  0  0  0
  197.4860  172.7550  144.5120 C   0  0  0  0  0  2  0  0  0  0  0  0
  196.8360  172.0130  145.6660 C   0  0  0  0  0  2  0  0  0  0  0  0
  197.1430  170.5310  145.5900 C   0  0  0  0  0  2  0  0  0  0  0  0
  195.9120  169.7320  145.9690 C   0  0  1  0  0  3  0  0  0  0  0  0
  196.0640  169.2140  147.2580 O   0  0  0  0  0  1  0  0  0  0  0  0
  194.7390  170.5910  145.9270 N   0  0  0  0  0  1  0  0  0  0  0  0
  1 30  1  0  0  0  0
  2  4  1  0  0  0  0
  4  1  2  0  0  0  0
  5  3  1  0  0  0  0
  5  2  2  0  0  0  0
  6  3  1  6  0  0  0
  6  1  1  0  0  0  0
  7 13  1  0  0  0  0
 10  8  1  0  0  0  0
 11  8  1  0  0  0  0
 12  9  1  1  0  0  0
 12 15  1  0  0  0  0
 12 23  1  0  0  0  0
 13 10  1  6  0  0  0
 13  6  1  0  0  0  0
 14 18  1  0  0  0  0
 15 21  1  0  0  0  0
 16 20  1  0  0  0  0
 16 22  1  0  0  0  0
 18 17  1  0  0  0  0
 18 11  1  0  0  0  0
 19 14  1  0  0  0  0
 20  9  1  0  0  0  0
 21 19  1  0  0  0  0
 22 15  1  0  0  0  0
 22 21  1  0  0  0  0
 23  7  1  0  0  0  0
 24 16  1  0  0  0  0
 25 24  1  0  0  0  0
 26 23  1  0  0  0  0
 26 27  1  0  0  0  0
 27 28  1  0  0  0  0
 30 29  1  0  0  0  0
 31  5  1  0  0  0  0
 32 35  1  0  0  0  0
 32 31  2  0  0  0  0
 33 40  1  0  0  0  0
 33 38  1  0  0  0  0
 34 39  1  0  0  0  0
 34 35  1  0  0  0  0
 35 36  1  0  0  0  0
 36 38  1  0  0  0  0
 37 36  1  0  0  0  0
 39 33  1  0  0  0  0
 41 32  1  0  0  0  0
 42 44  1  0  0  0  0
 42 45  1  0  0  0  0
 43 42  1  0  0  0  0
 44 41  1  0  0  0  0
 44 45  1  0  0  0  0
 45 46  1  0  0  0  0
 46 47  1  0  0  0  0
 47 48  1  0  0  0  0
 48 52  1  0  0  0  0
 48 49  1  0  0  0  0
 49 51  1  0  0  0  0
 50 49  2  0  0  0  0
 53 52  1  0  0  0  0
 53 54  1  0  0  0  0
 55 54  1  0  0  0  0
 55 56  1  0  0  0  0
 56 57  1  0  0  0  0
 58 56  1  0  0  0  0
M  END
>  <MODEL>
7

>  <REMARK>
 VINA RESULT:      -5.7      2.937      9.331
  Name = 
  18 active torsions:
  status: ('A' for Active; 'I' for Inactive)
    1  A    between atoms: CA_1  and  C_3
    2  A    between atoms: CA_1  and  C_27
    3  A    between atoms: CA_1  and  N_35
    4  A    between atoms: C_2  and  C_38
    5  A    between atoms: C_5  and  O_57
    6  A    between atoms: C_8  and  C_37
    7  A    between atoms: C_12  and  C_55
    8  A    between atoms: O_14  and  C_21
    9  A    between atoms: O_14  and  C_56
   10  A    between atoms: O_15  and  C_20
   11  A    between atoms: O_15  and  C_55
   12  A    between atoms: N_22  and  C_44
   13  A    between atoms: C_23  and  C_37
   14  A    between atoms: C_23  and  C_39
   15  A    between atoms: C_27  and  C_40
   16  A    between atoms: C_30  and  C_58
   17  A    between atoms: N_35  and  C_39
   18  A    between atoms: C_40  and  C_51
                            x       y       z     vdW  Elec       q    Type
                         _______ _______ _______ _____ _____    ______ ____

>  <TORSDO>
F 18

$$$$
=
 OpenBabel11072409203D

 58 63  0  0  1  0  0  0  0  0999 V2000
  193.7660  170.0220  143.7640 C   0  0  0  0  0  0  0  0  0  0  0  0
  193.4350  172.1070  144.9290 N   0  0  0  0  0  0  0  0  0  0  0  0
  191.5250  171.1890  143.7190 C   0  0  0  0  0  2  0  0  0  0  0  0
  194.1940  170.9260  144.6620 C   0  0  0  0  0  3  0  0  0  0  0  0
  192.2260  172.2830  144.4880 C   0  0  0  0  0  0  0  0  0  0  0  0
  192.5430  170.3260  142.9320 C   0  0  1  0  0  3  0  0  0  0  0  0
  194.1320  171.5780  141.6030 O   0  0  0  0  0  0  0  0  0  0  0  0
  190.9300  170.9740  140.0280 C   0  0  0  0  0  2  0  0  0  0  0  0
  196.3970  172.1160  138.8010 O   0  0  0  0  0  0  0  0  0  0  0  0
  191.8480  171.7830  140.9260 C   0  0  0  0  0  2  0  0  0  0  0  0
  190.0340  171.8600  139.1830 C   0  0  0  0  0  2  0  0  0  0  0  0
  195.5500  172.4760  139.8610 C   0  0  1  0  0  3  0  0  0  0  0  0
  192.9190  170.8780  141.5260 C   0  0  2  0  0  3  0  0  0  0  0  0
  191.6120  173.7020  138.6150 C   0  0  0  0  0  2  0  0  0  0  0  0
  194.4710  173.5060  139.4330 C   0  0  2  0  0  3  0  0  0  0  0  0
  196.3800  174.2810  137.8030 C   0  0  1  0  0  3  0  0  0  0  0  0
  189.7870  173.0840  137.0610 C   0  0  0  0  0  1  0  0  0  0  0  0
  190.7960  172.5410  138.0590 C   0  0  2  0  0  3  0  0  0  0  0  0
  192.7270  174.1260  137.6680 C   0  0  0  0  0  2  0  0  0  0  0  0
  197.1850  173.2530  138.5790 C   0  0  0  0  0  2  0  0  0  0  0  0
  194.0570  173.4360  137.9640 C   0  0  1  0  0  3  0  0  0  0  0  0
  195.0050  174.5370  138.4340 C   0  0  1  0  0  3  0  0  0  0  0  0
  194.9030  171.2220  140.4740 C   0  0  1  0  0  3  0  0  0  0  0  0
  197.1660  175.5770  137.7500 C   0  0  0  0  0  2  0  0  0  0  0  0
  197.2370  176.0660  136.4430 O   0  0  0  0  0  1  0  0  0  0  0  0
  195.8850  170.2380  140.7510 O   0  0  0  0  0  0  0  0  0  0  0  0
  197.0240  170.8480  141.2950 C   0  0  0  0  0  2  0  0  0  0  0  0
  197.4700  170.0810  142.5200 C   0  0  0  0  0  1  0  0  0  0  0  0
  195.2080  168.1720  144.5220 C   0  0  0  0  0  1  0  0  0  0  0  0
  194.4990  168.8680  143.5000 O   0  0  0  0  0  0  0  0  0  0  0  0
  191.5010  173.4710  144.8570 N   0  0  0  0  0  0  0  0  0  0  0  0
  191.9920  174.6820  144.9010 C   0  0  0  0  0  0  0  0  0  0  0  0
  195.8280  176.3360  143.5140 C   0  0  2  0  0  3  0  0  0  0  0  0
  193.4660  175.6240  142.9870 C   0  0  0  0  0  2  0  0  0  0  0  0
  193.3840  174.9680  144.3680 C   0  0  1  0  0  3  0  0  0  0  0  0
  194.3280  175.6010  145.3940 C   0  0  2  0  0  3  0  0  0  0  0  0
  193.9030  176.9770  145.8940 C   0  0  0  0  0  1  0  0  0  0  0  0
  195.7590  175.6200  144.8680 C   0  0  0  0  0  2  0  0  0  0  0  0
  194.9130  175.6510  142.4910 C   0  0  0  0  0  2  0  0  0  0  0  0
  197.2520  176.3190  143.0040 C   0  0  0  0  0  1  0  0  0  0  0  0
  191.1910  175.6770  145.4840 O   0  0  0  0  0  0  0  0  0  0  0  0
  190.1620  176.9550  147.2800 C   0  0  2  0  0  3  0  0  0  0  0  0
  190.3070  177.9410  146.2920 O   0  0  0  0  0  1  0  0  0  0  0  0
  190.6280  175.5780  146.7940 C   0  0  1  0  0  3  0  0  0  0  0  0
  189.1330  175.9000  146.8660 C   0  0  2  0  0  3  0  0  0  0  0  0
  188.4690  176.0990  145.4890 C   0  0  0  0  0  2  0  0  0  0  0  0
  187.1480  176.8500  145.6450 C   0  0  0  0  0  2  0  0  0  0  0  0
  186.9980  177.9600  144.6060 C   0  0  2  0  0  3  0  0  0  0  0  0
  185.9110  178.9090  145.0290 C   0  0  0  0  0  0  0  0  0  0  0  0
  185.2560  179.6800  144.0790 O   0  0  0  0  0  0  0  0  0  0  0  0
  185.6090  179.0460  146.2490 O   0  0  0  0  0  1  0  0  0  0  0  0
  186.7140  177.4000  143.2890 N   0  0  0  0  0  2  0  0  0  0  0  0
  187.7420  177.8640  142.3710 C   0  0  0  0  0  2  0  0  0  0  0  0
  188.4590  176.6810  141.7460 C   0  0  0  0  0  2  0  0  0  0  0  0
  187.6640  175.4070  141.9430 C   0  0  0  0  0  2  0  0  0  0  0  0
  188.5910  174.2840  142.3650 C   0  0  1  0  0  3  0  0  0  0  0  0
  188.1740  173.0850  141.7810 O   0  0  0  0  0  1  0  0  0  0  0  0
  189.9490  174.5840  141.9390 N   0  0  0  0  0  1  0  0  0  0  0  0
  1  4  2  0  0  0  0
  3  5  1  0  0  0  0
  4  2  1  0  0  0  0
  5 31  1  0  0  0  0
  5  2  2  0  0  0  0
  6  3  1  1  0  0  0
  6  1  1  0  0  0  0
  8 10  1  0  0  0  0
 11  8  1  0  0  0  0
 12  9  1  6  0  0  0
 12 23  1  0  0  0  0
 13 10  1  1  0  0  0
 13  7  1  0  0  0  0
 13  6  1  0  0  0  0
 15 12  1  0  0  0  0
 16 22  1  0  0  0  0
 16 20  1  0  0  0  0
 17 18  1  0  0  0  0
 18 14  1  0  0  0  0
 18 11  1  0  0  0  0
 19 21  1  0  0  0  0
 19 14  1  0  0  0  0
 20  9  1  0  0  0  0
 21 22  1  0  0  0  0
 21 15  1  0  0  0  0
 22 15  1  0  0  0  0
 23 26  1  0  0  0  0
 23  7  1  0  0  0  0
 24 16  1  0  0  0  0
 25 24  1  0  0  0  0
 26 27  1  0  0  0  0
 27 28  1  0  0  0  0
 30  1  1  0  0  0  0
 30 29  1  0  0  0  0
 31 32  2  0  0  0  0
 32 41  1  0  0  0  0
 33 38  1  0  0  0  0
 34 35  1  0  0  0  0
 35 32  1  0  0  0  0
 35 36  1  0  0  0  0
 36 37  1  0  0  0  0
 38 36  1  0  0  0  0
 39 34  1  0  0  0  0
 39 33  1  0  0  0  0
 40 33  1  0  0  0  0
 41 44  1  0  0  0  0
 43 42  1  0  0  0  0
 44 45  1  0  0  0  0
 44 42  1  0  0  0  0
 45 42  1  0  0  0  0
 46 47  1  0  0  0  0
 46 45  1  0  0  0  0
 48 49  1  0  0  0  0
 48 47  1  0  0  0  0
 49 51  1  0  0  0  0
 50 49  2  0  0  0  0
 52 48  1  0  0  0  0
 53 52  1  0  0  0  0
 54 55  1  0  0  0  0
 54 53  1  0  0  0  0
 55 56  1  0  0  0  0
 57 56  1  0  0  0  0
 58 56  1  0  0  0  0
M  END
>  <MODEL>
8

>  <REMARK>
 VINA RESULT:      -5.7      2.193      4.909
  Name = 
  18 active torsions:
  status: ('A' for Active; 'I' for Inactive)
    1  A    between atoms: CA_1  and  C_3
    2  A    between atoms: CA_1  and  C_27
    3  A    between atoms: CA_1  and  N_35
    4  A    between atoms: C_2  and  C_38
    5  A    between atoms: C_5  and  O_57
    6  A    between atoms: C_8  and  C_37
    7  A    between atoms: C_12  and  C_55
    8  A    between atoms: O_14  and  C_21
    9  A    between atoms: O_14  and  C_56
   10  A    between atoms: O_15  and  C_20
   11  A    between atoms: O_15  and  C_55
   12  A    between atoms: N_22  and  C_44
   13  A    between atoms: C_23  and  C_37
   14  A    between atoms: C_23  and  C_39
   15  A    between atoms: C_27  and  C_40
   16  A    between atoms: C_30  and  C_58
   17  A    between atoms: N_35  and  C_39
   18  A    between atoms: C_40  and  C_51
                            x       y       z     vdW  Elec       q    Type
                         _______ _______ _______ _____ _____    ______ ____

>  <TORSDO>
F 18

$$$$
=
 OpenBabel11072409203D

 58 63  0  0  1  0  0  0  0  0999 V2000
  188.3820  174.2960  139.1460 C   0  0  0  0  0  0  0  0  0  0  0  0
  190.4500  173.0620  139.2610 N   0  0  0  0  0  0  0  0  0  0  0  0
  188.7120  172.4800  140.8720 C   0  0  0  0  0  2  0  0  0  0  0  0
  189.5530  173.9470  138.5870 C   0  0  0  0  0  3  0  0  0  0  0  0
  190.1180  172.4000  140.3280 C   0  0  0  0  0  0  0  0  0  0  0  0
  188.0750  173.8570  140.5580 C   0  0  1  0  0  3  0  0  0  0  0  0
  189.2890  174.4870  142.5560 O   0  0  0  0  0  0  0  0  0  0  0  0
  186.6460  176.7550  141.5690 C   0  0  0  0  0  2  0  0  0  0  0  0
  191.5230  176.5620  144.5480 O   0  0  0  0  0  0  0  0  0  0  0  0
  187.1470  175.5190  142.2930 C   0  0  0  0  0  2  0  0  0  0  0  0
  185.6000  177.5010  142.3740 C   0  0  0  0  0  2  0  0  0  0  0  0
  190.5010  175.6300  144.3090 C   0  0  1  0  0  3  0  0  0  0  0  0
  188.3890  174.9740  141.5960 C   0  0  2  0  0  3  0  0  0  0  0  0
  186.5290  177.2600  144.6730 C   0  0  0  0  0  2  0  0  0  0  0  0
  189.1920  175.9810  145.0650 C   0  0  2  0  0  3  0  0  0  0  0  0
  190.8950  176.9550  146.8130 C   0  0  1  0  0  3  0  0  0  0  0  0
  185.1810  179.2450  144.0620 C   0  0  0  0  0  1  0  0  0  0  0  0
  186.2050  178.2430  143.5540 C   0  0  2  0  0  3  0  0  0  0  0  0
  187.5320  177.8320  145.6660 C   0  0  0  0  0  2  0  0  0  0  0  0
  191.9100  176.3270  145.8740 C   0  0  0  0  0  2  0  0  0  0  0  0
  188.9780  177.4710  145.3310 C   0  0  1  0  0  3  0  0  0  0  0  0
  189.4550  176.5590  146.4590 C   0  0  1  0  0  3  0  0  0  0  0  0
  190.2450  175.4980  142.7970 C   0  0  1  0  0  3  0  0  0  0  0  0
  191.2090  176.5210  148.2310 C   0  0  0  0  0  2  0  0  0  0  0  0
  191.5410  175.1640  148.2780 O   0  0  0  0  0  1  0  0  0  0  0  0
  191.4630  175.2970  142.1010 O   0  0  0  0  0  0  0  0  0  0  0  0
  192.2170  174.3040  142.7430 C   0  0  0  0  0  2  0  0  0  0  0  0
  193.6890  174.6170  142.6000 C   0  0  0  0  0  1  0  0  0  0  0  0
  187.4500  175.2500  137.0740 C   0  0  0  0  0  1  0  0  0  0  0  0
  187.5020  175.1570  138.4950 O   0  0  0  0  0  0  0  0  0  0  0  0
  191.0560  171.4740  140.9100 N   0  0  0  0  0  0  0  0  0  0  0  0
  191.6950  170.5320  140.2690 C   0  0  0  0  0  0  0  0  0  0  0  0
  191.6150  169.4500  136.0020 C   0  0  2  0  0  3  0  0  0  0  0  0
  192.9450  170.1450  138.0300 C   0  0  0  0  0  2  0  0  0  0  0  0
  191.6320  170.4510  138.7550 C   0  0  1  0  0  3  0  0  0  0  0  0
  190.4460  169.6430  138.2210 C   0  0  2  0  0  3  0  0  0  0  0  0
  190.4510  168.1670  138.6060 C   0  0  0  0  0  1  0  0  0  0  0  0
  190.3080  169.8220  136.7140 C   0  0  0  0  0  2  0  0  0  0  0  0
  192.7760  170.3100  136.5180 C   0  0  0  0  0  2  0  0  0  0  0  0
  191.4580  169.6590  134.5130 C   0  0  0  0  0  1  0  0  0  0  0  0
  192.4060  169.6000  141.0420 O   0  0  0  0  0  0  0  0  0  0  0  0
  192.9870  168.1690  142.9220 C   0  0  2  0  0  3  0  0  0  0  0  0
  194.2110  168.2350  142.2400 O   0  0  0  0  0  1  0  0  0  0  0  0
  191.9080  169.0290  142.2550 C   0  0  1  0  0  3  0  0  0  0  0  0
  192.6100  169.5260  143.5220 C   0  0  2  0  0  3  0  0  0  0  0  0
  193.6040  170.6790  143.2760 C   0  0  0  0  0  2  0  0  0  0  0  0
  194.3650  171.0020  144.5610 C   0  0  0  0  0  2  0  0  0  0  0  0
  195.8680  171.1250  144.3160 C   0  0  2  0  0  3  0  0  0  0  0  0
  196.5940  171.1920  145.6310 C   0  0  0  0  0  0  0  0  0  0  0  0
  197.0070  172.4180  146.1340 O   0  0  0  0  0  0  0  0  0  0  0  0
  196.8710  170.1380  146.2720 O   0  0  0  0  0  1  0  0  0  0  0  0
  196.1630  172.3000  143.5000 N   0  0  0  0  0  2  0  0  0  0  0  0
  196.8490  171.8520  142.2990 C   0  0  0  0  0  2  0  0  0  0  0  0
  196.0660  172.2630  141.0650 C   0  0  0  0  0  2  0  0  0  0  0  0
  197.0030  172.6080  139.9260 C   0  0  0  0  0  2  0  0  0  0  0  0
  196.2270  172.6800  138.6260 C   0  0  1  0  0  3  0  0  0  0  0  0
  196.6650  173.7740  137.8750 O   0  0  0  0  0  1  0  0  0  0  0  0
  196.4300  171.4570  137.8650 N   0  0  0  0  0  1  0  0  0  0  0  0
  1  6  1  0  0  0  0
  2  5  2  0  0  0  0
  4  1  2  0  0  0  0
  4  2  1  0  0  0  0
  5  3  1  0  0  0  0
  5 31  1  0  0  0  0
  6  3  1  1  0  0  0
  6 13  1  0  0  0  0
  7 23  1  0  0  0  0
  8 10  1  0  0  0  0
  8 11  1  0  0  0  0
  9 20  1  0  0  0  0
 11 18  1  0  0  0  0
 12  9  1  6  0  0  0
 12 15  1  0  0  0  0
 13 10  1  1  0  0  0
 13  7  1  0  0  0  0
 14 19  1  0  0  0  0
 15 21  1  0  0  0  0
 15 22  1  0  0  0  0
 16 24  1  0  0  0  0
 18 17  1  0  0  0  0
 18 14  1  0  0  0  0
 20 16  1  0  0  0  0
 21 19  1  0  0  0  0
 21 22  1  0  0  0  0
 22 16  1  0  0  0  0
 23 12  1  0  0  0  0
 24 25  1  0  0  0  0
 26 27  1  0  0  0  0
 26 23  1  0  0  0  0
 28 27  1  0  0  0  0
 29 30  1  0  0  0  0
 30  1  1  0  0  0  0
 32 31  2  0  0  0  0
 32 41  1  0  0  0  0
 33 39  1  0  0  0  0
 33 38  1  0  0  0  0
 34 35  1  0  0  0  0
 35 32  1  0  0  0  0
 36 37  1  0  0  0  0
 36 35  1  0  0  0  0
 38 36  1  0  0  0  0
 39 34  1  0  0  0  0
 40 33  1  0  0  0  0
 41 44  1  0  0  0  0
 42 45  1  0  0  0  0
 43 42  1  0  0  0  0
 44 42  1  0  0  0  0
 44 45  1  0  0  0  0
 46 45  1  0  0  0  0
 46 47  1  0  0  0  0
 48 47  1  0  0  0  0
 48 49  1  0  0  0  0
 49 50  2  0  0  0  0
 49 51  1  0  0  0  0
 52 48  1  0  0  0  0
 53 52  1  0  0  0  0
 54 53  1  0  0  0  0
 55 54  1  0  0  0  0
 56 55  1  0  0  0  0
 57 56  1  0  0  0  0
 58 56  1  0  0  0  0
M  END
>  <MODEL>
9

>  <REMARK>
 VINA RESULT:      -5.6      2.718      8.823
  Name = 
  18 active torsions:
  status: ('A' for Active; 'I' for Inactive)
    1  A    between atoms: CA_1  and  C_3
    2  A    between atoms: CA_1  and  C_27
    3  A    between atoms: CA_1  and  N_35
    4  A    between atoms: C_2  and  C_38
    5  A    between atoms: C_5  and  O_57
    6  A    between atoms: C_8  and  C_37
    7  A    between atoms: C_12  and  C_55
    8  A    between atoms: O_14  and  C_21
    9  A    between atoms: O_14  and  C_56
   10  A    between atoms: O_15  and  C_20
   11  A    between atoms: O_15  and  C_55
   12  A    between atoms: N_22  and  C_44
   13  A    between atoms: C_23  and  C_37
   14  A    between atoms: C_23  and  C_39
   15  A    between atoms: C_27  and  C_40
   16  A    between atoms: C_30  and  C_58
   17  A    between atoms: N_35  and  C_39
   18  A    between atoms: C_40  and  C_51
                            x       y       z     vdW  Elec       q    Type
                         _______ _______ _______ _____ _____    ______ ____

>  <TORSDO>
F 18

$$$$
