=
 OpenBabel11072408263D

 34 39  0  0  1  0  0  0  0  0999 V2000
  194.3130  171.5800  145.2480 C   0  0  0  0  0  3  0  0  0  0  0  0
  193.5070  172.6400  145.3830 C   0  0  0  0  0  3  0  0  0  0  0  0
  193.5310  171.0710  142.9810 C   0  0  0  0  0  2  0  0  0  0  0  0
  187.7090  176.3520  143.4630 C   0  0  0  0  0  0  0  0  0  0  0  0
  191.5120  173.9240  144.6150 N   0  0  0  0  0  0  0  0  0  0  0  0
  189.3240  174.7570  143.5640 C   0  0  0  0  0  0  0  0  0  0  0  0
  189.3010  173.3570  141.8090 N   0  0  0  0  0  0  0  0  0  0  0  0
  190.4090  173.9110  143.6950 C   0  0  0  0  0  0  0  0  0  0  0  0
  187.4180  175.4080  142.0640 S   0  0  0  0  0  0  0  0  0  0  0  0
  191.4290  172.1040  142.3430 C   0  0  0  0  0  3  0  0  0  0  0  0
  192.5020  172.1070  143.1450 C   0  0  0  0  0  0  0  0  0  0  0  0
  188.8200  175.8920  144.1880 C   0  0  0  0  0  3  0  0  0  0  0  0
  192.7350  173.1910  144.2070 C   0  0  0  0  0  0  0  0  0  0  0  0
  188.6860  174.3810  142.4360 C   0  0  0  0  0  0  0  0  0  0  0  0
  190.3720  173.0800  142.5910 C   0  0  0  0  0  0  0  0  0  0  0  0
  194.3960  170.8360  143.9720 C   0  0  0  0  0  3  0  0  0  0  0  0
  191.5490  176.6110  147.8980 C   0  0  0  0  0  0  0  0  0  0  0  0
  190.6840  175.5130  147.9040 C   0  0  0  0  0  3  0  0  0  0  0  0
  190.6720  174.6250  146.8240 C   0  0  0  0  0  3  0  0  0  0  0  0
  191.5300  174.8280  145.7330 C   0  0  0  0  0  0  0  0  0  0  0  0
  191.5620  177.5520  149.0470 C   0  0  0  0  0  1  0  0  0  0  0  0
  192.4000  176.8250  146.8100 C   0  0  0  0  0  3  0  0  0  0  0  0
  192.3880  175.9380  145.7290 C   0  0  0  0  0  3  0  0  0  0  0  0
  188.9960  172.7560  140.5760 N   0  0  0  0  0  2  0  0  0  0  0  0
  189.4500  173.2660  139.3510 C   0  0  0  0  0  0  0  0  0  0  0  0
  189.8230  173.6880  138.3400 N   0  0  0  0  0  0  0  0  0  0  0  0
  186.9470  177.5830  143.8040 C   0  0  0  0  0  2  0  0  0  0  0  0
  184.3290  179.3350  144.2220 C   0  0  0  0  0  2  0  0  0  0  0  0
  185.5440  177.2430  144.0570 N   0  0  0  0  0  0  0  0  0  0  0  0
  185.1670  177.4960  145.4540 C   0  0  2  0  0  3  0  0  0  0  0  0
  184.8440  178.9620  145.5900 C   0  0  0  0  0  2  0  0  0  0  0  0
  184.7540  178.2030  143.2940 C   0  0  0  0  0  2  0  0  0  0  0  0
  186.9300  176.6790  147.2300 N   0  0  0  0  0  0  0  0  0  0  0  0
  186.1540  177.0370  146.4500 C   0  0  0  0  0  0  0  0  0  0  0  0
  1  2  1  0  0  0  0
  3 11  1  0  0  0  0
  3 16  1  0  0  0  0
  4 27  1  0  0  0  0
  4 12  2  0  0  0  0
  5 20  1  0  0  0  0
  6  8  1  0  0  0  0
  6 12  1  0  0  0  0
  7 14  1  0  0  0  0
  7 15  1  0  0  0  0
  8  5  1  0  0  0  0
  9 14  1  0  0  0  0
  9  4  1  0  0  0  0
 10 15  1  0  0  0  0
 10 11  2  0  0  0  0
 11 13  1  0  0  0  0
 13  5  1  0  0  0  0
 13  2  2  0  0  0  0
 14  6  2  0  0  0  0
 15  8  2  0  0  0  0
 16  1  2  0  0  0  0
 17 18  1  0  0  0  0
 17 21  1  0  0  0  0
 19 18  2  0  0  0  0
 20 19  1  0  0  0  0
 22 17  2  0  0  0  0
 23 20  2  0  0  0  0
 23 22  1  0  0  0  0
 24  7  1  0  0  0  0
 25 24  1  0  0  0  0
 26 25  3  0  0  0  0
 27 29  1  0  0  0  0
 28 31  1  0  0  0  0
 29 30  1  0  0  0  0
 30 31  1  0  0  0  0
 30 34  1  1  0  0  0
 32 29  1  0  0  0  0
 32 28  1  0  0  0  0
 34 33  3  0  0  0  0
M  END
>  <MODEL>
1

>  <REMARK>
 VINA RESULT:      -7.1      0.000      0.000
  Name = 
  6 active torsions:
  status: ('A' for Active; 'I' for Inactive)
    1  A    between atoms: C_6  and  C_24
    2  A    between atoms: N_9  and  C_24
    3  A    between atoms: N_10  and  C_19
    4  A    between atoms: N_13  and  N_21
    5  A    between atoms: C_20  and  C_23
    6  A    between atoms: N_21  and  C_28
                            x       y       z     vdW  Elec       q    Type
                         _______ _______ _______ _____ _____    ______ ____

>  <TORSDO>
F 6

$$$$
=
 OpenBabel11072408263D

 34 39  0  0  1  0  0  0  0  0999 V2000
  194.6700  172.0780  143.2200 C   0  0  0  0  0  3  0  0  0  0  0  0
  193.3990  172.4940  143.1560 C   0  0  0  0  0  3  0  0  0  0  0  0
  195.0050  172.9360  145.4920 C   0  0  0  0  0  3  0  0  0  0  0  0
  188.0940  176.7090  145.4280 C   0  0  0  0  0  0  0  0  0  0  0  0
  191.5730  173.9390  144.0450 N   0  0  0  0  0  0  0  0  0  0  0  0
  190.1220  175.7100  145.2060 C   0  0  0  0  0  0  0  0  0  0  0  0
  191.5230  176.1550  146.9040 N   0  0  0  0  0  0  0  0  0  0  0  0
  191.2690  174.9670  145.0030 C   0  0  0  0  0  0  0  0  0  0  0  0
  188.9580  177.2650  146.7980 S   0  0  0  0  0  0  0  0  0  0  0  0
  193.3750  174.5680  146.2450 C   0  0  0  0  0  3  0  0  0  0  0  0
  193.6830  173.5700  145.4060 C   0  0  0  0  0  0  0  0  0  0  0  0
  188.8550  175.8260  144.6460 C   0  0  0  0  0  3  0  0  0  0  0  0
  192.6840  173.0170  144.3800 C   0  0  2  0  0  3  0  0  0  0  0  0
  190.3240  176.4130  146.3400 C   0  0  0  0  0  0  0  0  0  0  0  0
  192.0950  175.2510  146.0730 C   0  0  0  0  0  0  0  0  0  0  0  0
  195.4610  172.2170  144.4620 C   0  0  0  0  0  3  0  0  0  0  0  0
  188.9290  173.0700  140.8430 C   0  0  0  0  0  0  0  0  0  0  0  0
  188.8370  172.3530  142.0380 C   0  0  0  0  0  3  0  0  0  0  0  0
  189.7060  172.6390  143.0950 C   0  0  0  0  0  3  0  0  0  0  0  0
  190.6700  173.6490  142.9640 C   0  0  0  0  0  0  0  0  0  0  0  0
  188.0040  172.7660  139.7210 C   0  0  0  0  0  1  0  0  0  0  0  0
  189.8930  174.0720  140.7020 C   0  0  0  0  0  3  0  0  0  0  0  0
  190.7630  174.3600  141.7580 C   0  0  0  0  0  3  0  0  0  0  0  0
  192.0500  176.6150  148.1220 N   0  0  0  0  0  2  0  0  0  0  0  0
  191.4670  177.6590  148.8550 C   0  0  0  0  0  0  0  0  0  0  0  0
  190.9880  178.5200  149.4620 N   0  0  0  0  0  0  0  0  0  0  0  0
  186.6660  177.0320  145.1630 C   0  0  0  0  0  2  0  0  0  0  0  0
  184.0670  178.6930  145.9290 C   0  0  0  0  0  2  0  0  0  0  0  0
  186.4250  178.4550  145.4140 N   0  0  0  0  0  0  0  0  0  0  0  0
  185.7280  179.0950  144.2910 C   0  0  2  0  0  3  0  0  0  0  0  0
  184.2540  178.8120  144.4370 C   0  0  0  0  0  2  0  0  0  0  0  0
  185.4640  178.5130  146.5110 C   0  0  0  0  0  2  0  0  0  0  0  0
  186.6550  178.4490  141.9140 N   0  0  0  0  0  0  0  0  0  0  0  0
  186.2470  178.7320  142.9590 C   0  0  0  0  0  0  0  0  0  0  0  0
  1 16  1  0  0  0  0
  2  1  2  0  0  0  0
  4  9  1  0  0  0  0
  5 13  1  0  0  0  0
  5  8  1  0  0  0  0
  6 14  2  0  0  0  0
  7 24  1  0  0  0  0
  8  6  1  0  0  0  0
  8 15  2  0  0  0  0
 11  3  1  0  0  0  0
 11 10  2  0  0  0  0
 12  6  1  0  0  0  0
 12  4  2  0  0  0  0
 13  2  1  6  0  0  0
 13 11  1  0  0  0  0
 14  9  1  0  0  0  0
 14  7  1  0  0  0  0
 15 10  1  0  0  0  0
 15  7  1  0  0  0  0
 16  3  2  0  0  0  0
 17 18  1  0  0  0  0
 18 19  2  0  0  0  0
 20 19  1  0  0  0  0
 20  5  1  0  0  0  0
 21 17  1  0  0  0  0
 22 17  2  0  0  0  0
 22 23  1  0  0  0  0
 23 20  2  0  0  0  0
 24 25  1  0  0  0  0
 25 26  3  0  0  0  0
 27 29  1  0  0  0  0
 27  4  1  0  0  0  0
 28 32  1  0  0  0  0
 29 32  1  0  0  0  0
 30 34  1  6  0  0  0
 30 31  1  0  0  0  0
 30 29  1  0  0  0  0
 31 28  1  0  0  0  0
 33 34  3  0  0  0  0
M  END
>  <MODEL>
2

>  <REMARK>
 VINA RESULT:      -7.1      2.125      5.248
  Name = 
  6 active torsions:
  status: ('A' for Active; 'I' for Inactive)
    1  A    between atoms: C_6  and  C_24
    2  A    between atoms: N_9  and  C_24
    3  A    between atoms: N_10  and  C_19
    4  A    between atoms: N_13  and  N_21
    5  A    between atoms: C_20  and  C_23
    6  A    between atoms: N_21  and  C_28
                            x       y       z     vdW  Elec       q    Type
                         _______ _______ _______ _____ _____    ______ ____

>  <TORSDO>
F 6

$$$$
=
 OpenBabel11072408263D

 34 39  0  0  1  0  0  0  0  0999 V2000
  194.7420  171.4130  141.6310 C   0  0  0  0  0  3  0  0  0  0  0  0
  194.1040  172.4570  142.1730 C   0  0  0  0  0  3  0  0  0  0  0  0
  193.2360  171.2860  139.7010 C   0  0  0  0  0  2  0  0  0  0  0  0
  188.2880  176.5600  142.8170 C   0  0  0  0  0  0  0  0  0  0  0  0
  192.0690  173.8920  142.2950 N   0  0  0  0  0  0  0  0  0  0  0  0
  189.7270  174.9320  142.1530 C   0  0  0  0  0  0  0  0  0  0  0  0
  189.0350  173.8270  140.3250 N   0  0  0  0  0  0  0  0  0  0  0  0
  190.7300  174.0510  141.7990 C   0  0  0  0  0  0  0  0  0  0  0  0
  187.4930  175.8560  141.4740 S   0  0  0  0  0  0  0  0  0  0  0  0
  191.1230  172.4560  139.9440 C   0  0  0  0  0  3  0  0  0  0  0  0
  192.3950  172.3070  140.3390 C   0  0  0  0  0  0  0  0  0  0  0  0
  189.5360  175.9660  143.0620 C   0  0  0  0  0  3  0  0  0  0  0  0
  193.0370  173.2050  141.4070 C   0  0  0  0  0  0  0  0  0  0  0  0
  188.7330  174.7530  141.2580 C   0  0  0  0  0  0  0  0  0  0  0  0
  190.2780  173.4050  140.6630 C   0  0  0  0  0  0  0  0  0  0  0  0
  194.3540  170.8770  140.3080 C   0  0  0  0  0  3  0  0  0  0  0  0
  193.3570  176.0230  145.7300 C   0  0  0  0  0  0  0  0  0  0  0  0
  192.6690  174.8160  145.8750 C   0  0  0  0  0  3  0  0  0  0  0  0
  192.2460  174.1110  144.7440 C   0  0  0  0  0  3  0  0  0  0  0  0
  192.5120  174.6090  143.4600 C   0  0  0  0  0  0  0  0  0  0  0  0
  193.8070  176.7700  146.9320 C   0  0  0  0  0  1  0  0  0  0  0  0
  193.6180  176.5300  144.4540 C   0  0  0  0  0  3  0  0  0  0  0  0
  193.1950  175.8260  143.3220 C   0  0  0  0  0  3  0  0  0  0  0  0
  188.3060  173.4360  139.1900 N   0  0  0  0  0  2  0  0  0  0  0  0
  188.4560  174.0550  137.9410 C   0  0  0  0  0  0  0  0  0  0  0  0
  188.5820  174.5670  136.9100 N   0  0  0  0  0  0  0  0  0  0  0  0
  187.7690  177.7390  143.5610 C   0  0  0  0  0  2  0  0  0  0  0  0
  185.4950  179.8750  144.1660 C   0  0  0  0  0  2  0  0  0  0  0  0
  186.3140  177.6420  143.6920 N   0  0  0  0  0  0  0  0  0  0  0  0
  185.8870  177.7330  145.0940 C   0  0  2  0  0  3  0  0  0  0  0  0
  185.8290  179.1920  145.4690 C   0  0  0  0  0  2  0  0  0  0  0  0
  185.7720  178.8480  143.0740 C   0  0  0  0  0  2  0  0  0  0  0  0
  187.3290  176.3130  146.7760 N   0  0  0  0  0  0  0  0  0  0  0  0
  186.6950  176.9360  146.0360 C   0  0  0  0  0  0  0  0  0  0  0  0
  1  2  1  0  0  0  0
  3 16  1  0  0  0  0
  3 11  1  0  0  0  0
  4 12  2  0  0  0  0
  4 27  1  0  0  0  0
  5 20  1  0  0  0  0
  6 12  1  0  0  0  0
  7 15  1  0  0  0  0
  7 14  1  0  0  0  0
  8  6  1  0  0  0  0
  8  5  1  0  0  0  0
  9  4  1  0  0  0  0
 10 11  2  0  0  0  0
 10 15  1  0  0  0  0
 11 13  1  0  0  0  0
 13  2  2  0  0  0  0
 13  5  1  0  0  0  0
 14  9  1  0  0  0  0
 14  6  2  0  0  0  0
 15  8  2  0  0  0  0
 16  1  2  0  0  0  0
 17 18  1  0  0  0  0
 17 21  1  0  0  0  0
 19 18  2  0  0  0  0
 20 19  1  0  0  0  0
 22 17  2  0  0  0  0
 23 20  2  0  0  0  0
 23 22  1  0  0  0  0
 24  7  1  0  0  0  0
 25 24  1  0  0  0  0
 26 25  3  0  0  0  0
 27 29  1  0  0  0  0
 28 31  1  0  0  0  0
 29 30  1  0  0  0  0
 30 31  1  0  0  0  0
 30 34  1  1  0  0  0
 32 29  1  0  0  0  0
 32 28  1  0  0  0  0
 34 33  3  0  0  0  0
M  END
>  <MODEL>
3

>  <REMARK>
 VINA RESULT:      -6.9      1.723      2.202
  Name = 
  6 active torsions:
  status: ('A' for Active; 'I' for Inactive)
    1  A    between atoms: C_6  and  C_24
    2  A    between atoms: N_9  and  C_24
    3  A    between atoms: N_10  and  C_19
    4  A    between atoms: N_13  and  N_21
    5  A    between atoms: C_20  and  C_23
    6  A    between atoms: N_21  and  C_28
                            x       y       z     vdW  Elec       q    Type
                         _______ _______ _______ _____ _____    ______ ____

>  <TORSDO>
F 6

$$$$
=
 OpenBabel11072408263D

 34 39  0  0  1  0  0  0  0  0999 V2000
  185.7830  179.0780  144.9240 C   0  0  0  0  0  3  0  0  0  0  0  0
  186.7520  178.1600  145.0220 C   0  0  0  0  0  3  0  0  0  0  0  0
  184.9760  178.2310  142.7690 C   0  0  0  0  0  2  0  0  0  0  0  0
  191.1100  173.3490  142.0330 C   0  0  0  0  0  0  0  0  0  0  0  0
  188.1910  176.4430  143.9290 N   0  0  0  0  0  0  0  0  0  0  0  0
  189.5100  174.9350  142.3240 C   0  0  0  0  0  0  0  0  0  0  0  0
  188.1820  175.1980  140.5320 N   0  0  0  0  0  0  0  0  0  0  0  0
  188.5280  175.8450  142.6670 C   0  0  0  0  0  0  0  0  0  0  0  0
  190.3080  173.3800  140.5210 S   0  0  0  0  0  0  0  0  0  0  0  0
  186.5120  176.7820  141.5740 C   0  0  0  0  0  3  0  0  0  0  0  0
  186.1300  177.3230  142.7380 C   0  0  0  0  0  0  0  0  0  0  0  0
  190.5400  174.2450  142.9520 C   0  0  0  0  0  3  0  0  0  0  0  0
  186.8200  176.9900  144.0690 C   0  0  0  0  0  0  0  0  0  0  0  0
  189.2740  174.5890  141.0410 C   0  0  0  0  0  0  0  0  0  0  0  0
  187.7220  175.9650  141.5500 C   0  0  0  0  0  0  0  0  0  0  0  0
  184.8070  179.0490  143.8130 C   0  0  0  0  0  3  0  0  0  0  0  0
  190.6790  175.9420  147.3290 C   0  0  0  0  0  0  0  0  0  0  0  0
  189.5630  175.1190  147.1530 C   0  0  0  0  0  3  0  0  0  0  0  0
  188.7430  175.2810  146.0320 C   0  0  0  0  0  3  0  0  0  0  0  0
  189.0380  176.2660  145.0770 C   0  0  0  0  0  0  0  0  0  0  0  0
  191.5500  175.7670  148.5200 C   0  0  0  0  0  1  0  0  0  0  0  0
  190.9740  176.9310  146.3860 C   0  0  0  0  0  3  0  0  0  0  0  0
  190.1550  177.0940  145.2650 C   0  0  0  0  0  3  0  0  0  0  0  0
  187.5700  175.0250  139.2800 N   0  0  0  0  0  2  0  0  0  0  0  0
  188.2540  174.5210  138.1650 C   0  0  0  0  0  0  0  0  0  0  0  0
  188.8190  174.1070  137.2430 N   0  0  0  0  0  0  0  0  0  0  0  0
  192.2040  172.3990  142.3690 C   0  0  0  0  0  2  0  0  0  0  0  0
  193.9600  170.9290  144.5730 C   0  0  0  0  0  2  0  0  0  0  0  0
  191.8680  171.6690  143.5940 N   0  0  0  0  0  0  0  0  0  0  0  0
  192.0190  170.2180  143.4200 C   0  0  2  0  0  3  0  0  0  0  0  0
  193.4760  169.8760  143.6080 C   0  0  0  0  0  2  0  0  0  0  0  0
  192.8960  172.0210  144.5680 C   0  0  0  0  0  2  0  0  0  0  0  0
  191.0380  169.2750  141.1670 N   0  0  0  0  0  0  0  0  0  0  0  0
  191.4700  169.6900  142.1570 C   0  0  0  0  0  0  0  0  0  0  0  0
  1  2  1  0  0  0  0
  3 16  1  0  0  0  0
  4 27  1  0  0  0  0
  4 12  2  0  0  0  0
  5 13  1  0  0  0  0
  5 20  1  0  0  0  0
  6  8  1  0  0  0  0
  6 12  1  0  0  0  0
  7 14  1  0  0  0  0
  7 15  1  0  0  0  0
  8  5  1  0  0  0  0
  9 14  1  0  0  0  0
  9  4  1  0  0  0  0
 10 11  2  0  0  0  0
 11  3  1  0  0  0  0
 11 13  1  0  0  0  0
 13  2  2  0  0  0  0
 14  6  2  0  0  0  0
 15 10  1  0  0  0  0
 15  8  2  0  0  0  0
 16  1  2  0  0  0  0
 17 21  1  0  0  0  0
 18 17  1  0  0  0  0
 19 18  2  0  0  0  0
 20 23  2  0  0  0  0
 20 19  1  0  0  0  0
 22 17  2  0  0  0  0
 23 22  1  0  0  0  0
 24  7  1  0  0  0  0
 25 24  1  0  0  0  0
 26 25  3  0  0  0  0
 27 29  1  0  0  0  0
 29 32  1  0  0  0  0
 30 34  1  6  0  0  0
 30 29  1  0  0  0  0
 30 31  1  0  0  0  0
 31 28  1  0  0  0  0
 32 28  1  0  0  0  0
 33 34  3  0  0  0  0
M  END
>  <MODEL>
4

>  <REMARK>
 VINA RESULT:      -6.7      1.848      7.003
  Name = 
  6 active torsions:
  status: ('A' for Active; 'I' for Inactive)
    1  A    between atoms: C_6  and  C_24
    2  A    between atoms: N_9  and  C_24
    3  A    between atoms: N_10  and  C_19
    4  A    between atoms: N_13  and  N_21
    5  A    between atoms: C_20  and  C_23
    6  A    between atoms: N_21  and  C_28
                            x       y       z     vdW  Elec       q    Type
                         _______ _______ _______ _____ _____    ______ ____

>  <TORSDO>
F 6

$$$$
=
 OpenBabel11072408263D

 34 39  0  0  1  0  0  0  0  0999 V2000
  186.1560  178.9210  144.0990 C   0  0  0  0  0  3  0  0  0  0  0  0
  187.0830  177.9960  144.3760 C   0  0  0  0  0  3  0  0  0  0  0  0
  185.4730  177.8440  142.0060 C   0  0  0  0  0  2  0  0  0  0  0  0
  191.4680  172.7470  142.3050 C   0  0  0  0  0  0  0  0  0  0  0  0
  188.5340  176.1230  143.6020 N   0  0  0  0  0  0  0  0  0  0  0  0
  189.9090  174.3990  142.2880 C   0  0  0  0  0  0  0  0  0  0  0  0
  188.7200  174.4800  140.3850 N   0  0  0  0  0  0  0  0  0  0  0  0
  188.9370  175.3690  142.4480 C   0  0  0  0  0  0  0  0  0  0  0  0
  190.7760  172.6180  140.7450 S   0  0  0  0  0  0  0  0  0  0  0  0
  187.0370  176.2210  141.1060 C   0  0  0  0  0  3  0  0  0  0  0  0
  186.5940  176.9080  142.1670 C   0  0  0  0  0  0  0  0  0  0  0  0
  190.8670  173.7620  143.0670 C   0  0  0  0  0  3  0  0  0  0  0  0
  187.1770  176.7190  143.5750 C   0  0  0  0  0  0  0  0  0  0  0  0
  189.7510  173.9080  141.0410 C   0  0  0  0  0  0  0  0  0  0  0  0
  188.2170  175.3750  141.2680 C   0  0  0  0  0  0  0  0  0  0  0  0
  185.2600  178.7850  142.9300 C   0  0  0  0  0  3  0  0  0  0  0  0
  190.7800  175.9210  147.1960 C   0  0  0  0  0  0  0  0  0  0  0  0
  191.1720  176.7910  146.1760 C   0  0  0  0  0  3  0  0  0  0  0  0
  190.4320  176.8600  144.9920 C   0  0  0  0  0  3  0  0  0  0  0  0
  189.2920  176.0620  144.8230 C   0  0  0  0  0  0  0  0  0  0  0  0
  191.5660  175.8490  148.4550 C   0  0  0  0  0  1  0  0  0  0  0  0
  189.6500  175.1150  147.0320 C   0  0  0  0  0  3  0  0  0  0  0  0
  188.9090  175.1830  145.8480 C   0  0  0  0  0  3  0  0  0  0  0  0
  188.1910  174.1740  139.1200 N   0  0  0  0  0  2  0  0  0  0  0  0
  188.9700  174.1660  137.9540 C   0  0  0  0  0  0  0  0  0  0  0  0
  189.6150  174.1600  136.9920 N   0  0  0  0  0  0  0  0  0  0  0  0
  192.5020  171.8160  142.8310 C   0  0  0  0  0  2  0  0  0  0  0  0
  195.3750  170.4610  142.7060 C   0  0  0  0  0  2  0  0  0  0  0  0
  193.8370  172.3280  142.5120 N   0  0  0  0  0  0  0  0  0  0  0  0
  194.6630  172.4800  143.7170 C   0  0  2  0  0  3  0  0  0  0  0  0
  195.2520  171.1320  144.0520 C   0  0  0  0  0  2  0  0  0  0  0  0
  194.5030  171.2730  141.7540 C   0  0  0  0  0  2  0  0  0  0  0  0
  193.4260  173.5820  145.7630 N   0  0  0  0  0  0  0  0  0  0  0  0
  193.9690  173.0960  144.8640 C   0  0  0  0  0  0  0  0  0  0  0  0
  1  2  1  0  0  0  0
  3 11  1  0  0  0  0
  3 16  1  0  0  0  0
  4 27  1  0  0  0  0
  4 12  2  0  0  0  0
  5 20  1  0  0  0  0
  6  8  1  0  0  0  0
  6 12  1  0  0  0  0
  7 14  1  0  0  0  0
  7 15  1  0  0  0  0
  8  5  1  0  0  0  0
  9 14  1  0  0  0  0
  9  4  1  0  0  0  0
 10 15  1  0  0  0  0
 10 11  2  0  0  0  0
 11 13  1  0  0  0  0
 13  5  1  0  0  0  0
 13  2  2  0  0  0  0
 14  6  2  0  0  0  0
 15  8  2  0  0  0  0
 16  1  2  0  0  0  0
 17 21  1  0  0  0  0
 18 17  2  0  0  0  0
 19 18  1  0  0  0  0
 20 19  2  0  0  0  0
 20 23  1  0  0  0  0
 22 17  1  0  0  0  0
 23 22  2  0  0  0  0
 24  7  1  0  0  0  0
 25 24  1  0  0  0  0
 26 25  3  0  0  0  0
 28 31  1  0  0  0  0
 29 27  1  0  0  0  0
 29 30  1  0  0  0  0
 30 31  1  0  0  0  0
 30 34  1  1  0  0  0
 32 29  1  0  0  0  0
 32 28  1  0  0  0  0
 34 33  3  0  0  0  0
M  END
>  <MODEL>
5

>  <REMARK>
 VINA RESULT:      -6.7      1.808      7.038
  Name = 
  6 active torsions:
  status: ('A' for Active; 'I' for Inactive)
    1  A    between atoms: C_6  and  C_24
    2  A    between atoms: N_9  and  C_24
    3  A    between atoms: N_10  and  C_19
    4  A    between atoms: N_13  and  N_21
    5  A    between atoms: C_20  and  C_23
    6  A    between atoms: N_21  and  C_28
                            x       y       z     vdW  Elec       q    Type
                         _______ _______ _______ _____ _____    ______ ____

>  <TORSDO>
F 6

$$$$
=
 OpenBabel11072408263D

 34 39  0  0  1  0  0  0  0  0999 V2000
  189.7690  177.5410  147.2260 C   0  0  0  0  0  3  0  0  0  0  0  0
  189.4670  177.1940  145.9690 C   0  0  0  0  0  3  0  0  0  0  0  0
  191.6370  175.9610  147.3850 C   0  0  0  0  0  3  0  0  0  0  0  0
  189.7500  172.5540  140.5410 C   0  0  0  0  0  0  0  0  0  0  0  0
  189.6670  175.5650  144.0920 N   0  0  0  0  0  0  0  0  0  0  0  0
  190.0420  173.5330  142.5700 C   0  0  0  0  0  0  0  0  0  0  0  0
  191.5960  172.5160  143.8330 N   0  0  0  0  0  0  0  0  0  0  0  0
  190.1940  174.2810  143.7220 C   0  0  0  0  0  0  0  0  0  0  0  0
  190.9160  171.5530  141.2960 S   0  0  0  0  0  0  0  0  0  0  0  0
  191.6620  174.1990  145.7160 C   0  0  0  0  0  3  0  0  0  0  0  0
  191.2360  175.4160  146.0810 C   0  0  0  0  0  0  0  0  0  0  0  0
  189.3760  173.6360  141.3540 C   0  0  0  0  0  3  0  0  0  0  0  0
  190.3810  176.3010  145.1630 C   0  0  2  0  0  3  0  0  0  0  0  0
  190.8840  172.4850  142.6860 C   0  0  0  0  0  0  0  0  0  0  0  0
  191.1680  173.6370  144.4610 C   0  0  0  0  0  0  0  0  0  0  0  0
  190.9500  176.9760  147.9160 C   0  0  0  0  0  3  0  0  0  0  0  0
  186.7450  177.5100  141.7080 C   0  0  0  0  0  0  0  0  0  0  0  0
  188.0940  177.8460  141.5720 C   0  0  0  0  0  3  0  0  0  0  0  0
  189.0590  177.2050  142.3540 C   0  0  0  0  0  3  0  0  0  0  0  0
  188.6790  176.2190  143.2770 C   0  0  0  0  0  0  0  0  0  0  0  0
  185.7210  178.1910  140.8750 C   0  0  0  0  0  1  0  0  0  0  0  0
  186.3580  176.5350  142.6320 C   0  0  0  0  0  3  0  0  0  0  0  0
  187.3220  175.8930  143.4160 C   0  0  0  0  0  3  0  0  0  0  0  0
  192.6250  171.6630  144.2640 N   0  0  0  0  0  2  0  0  0  0  0  0
  193.9700  171.8640  143.9210 C   0  0  0  0  0  0  0  0  0  0  0  0
  195.0800  172.0300  143.6390 N   0  0  0  0  0  0  0  0  0  0  0  0
  189.2790  172.3650  139.1430 C   0  0  0  0  0  2  0  0  0  0  0  0
  189.4830  173.3090  136.1150 C   0  0  0  0  0  2  0  0  0  0  0  0
  190.4030  172.5180  138.2160 N   0  0  0  0  0  0  0  0  0  0  0  0
  190.4350  171.4420  137.2170 C   0  0  2  0  0  3  0  0  0  0  0  0
  189.4690  171.8000  136.1160 C   0  0  0  0  0  2  0  0  0  0  0  0
  190.1210  173.7200  137.4380 C   0  0  0  0  0  2  0  0  0  0  0  0
  190.0170  169.0310  138.1860 N   0  0  0  0  0  0  0  0  0  0  0  0
  190.2000  170.0910  137.7610 C   0  0  0  0  0  0  0  0  0  0  0  0
  1 16  1  0  0  0  0
  2  1  2  0  0  0  0
  3 16  2  0  0  0  0
  4  9  1  0  0  0  0
  4 12  2  0  0  0  0
  5 13  1  0  0  0  0
  6 14  2  0  0  0  0
  6  8  1  0  0  0  0
  7 24  1  0  0  0  0
  7 15  1  0  0  0  0
  8  5  1  0  0  0  0
  8 15  2  0  0  0  0
  9 14  1  0  0  0  0
 10 11  2  0  0  0  0
 11  3  1  0  0  0  0
 12  6  1  0  0  0  0
 13  2  1  1  0  0  0
 13 11  1  0  0  0  0
 14  7  1  0  0  0  0
 15 10  1  0  0  0  0
 17 22  1  0  0  0  0
 18 17  2  0  0  0  0
 18 19  1  0  0  0  0
 19 20  2  0  0  0  0
 20 23  1  0  0  0  0
 20  5  1  0  0  0  0
 21 17  1  0  0  0  0
 22 23  2  0  0  0  0
 25 24  1  0  0  0  0
 26 25  3  0  0  0  0
 27  4  1  0  0  0  0
 28 31  1  0  0  0  0
 28 32  1  0  0  0  0
 29 27  1  0  0  0  0
 30 34  1  1  0  0  0
 30 29  1  0  0  0  0
 31 30  1  0  0  0  0
 32 29  1  0  0  0  0
 34 33  3  0  0  0  0
M  END
>  <MODEL>
6

>  <REMARK>
 VINA RESULT:      -6.6      2.308      7.215
  Name = 
  6 active torsions:
  status: ('A' for Active; 'I' for Inactive)
    1  A    between atoms: C_6  and  C_24
    2  A    between atoms: N_9  and  C_24
    3  A    between atoms: N_10  and  C_19
    4  A    between atoms: N_13  and  N_21
    5  A    between atoms: C_20  and  C_23
    6  A    between atoms: N_21  and  C_28
                            x       y       z     vdW  Elec       q    Type
                         _______ _______ _______ _____ _____    ______ ____

>  <TORSDO>
F 6

$$$$
=
 OpenBabel11072408263D

 34 39  0  0  1  0  0  0  0  0999 V2000
  187.6650  179.1650  148.6220 C   0  0  0  0  0  3  0  0  0  0  0  0
  188.3090  178.3170  147.8120 C   0  0  0  0  0  3  0  0  0  0  0  0
  185.5720  179.0430  147.3520 C   0  0  0  0  0  3  0  0  0  0  0  0
  188.9790  174.9990  141.5180 C   0  0  0  0  0  0  0  0  0  0  0  0
  188.4430  177.1360  145.6200 N   0  0  0  0  0  0  0  0  0  0  0  0
  188.2060  176.3160  143.2000 C   0  0  0  0  0  0  0  0  0  0  0  0
  186.1310  177.0920  142.8390 N   0  0  0  0  0  0  0  0  0  0  0  0
  187.8210  177.0090  144.3320 C   0  0  0  0  0  0  0  0  0  0  0  0
  187.4390  175.4910  140.9560 S   0  0  0  0  0  0  0  0  0  0  0  0
  185.7640  178.1530  145.1020 C   0  0  0  0  0  3  0  0  0  0  0  0
  186.2810  178.2560  146.3340 C   0  0  0  0  0  0  0  0  0  0  0  0
  189.2630  175.5090  142.7950 C   0  0  0  0  0  3  0  0  0  0  0  0
  187.5710  177.5350  146.7510 C   0  0  2  0  0  3  0  0  0  0  0  0
  187.1760  176.4040  142.3330 C   0  0  0  0  0  0  0  0  0  0  0  0
  186.5370  177.4520  144.0800 C   0  0  0  0  0  0  0  0  0  0  0  0
  186.2260  179.4580  148.4410 C   0  0  0  0  0  3  0  0  0  0  0  0
  192.3510  175.6240  146.2840 C   0  0  0  0  0  0  0  0  0  0  0  0
  192.1730  176.8020  145.5550 C   0  0  0  0  0  3  0  0  0  0  0  0
  190.8860  177.3030  145.3380 C   0  0  0  0  0  3  0  0  0  0  0  0
  189.7690  176.6300  145.8520 C   0  0  0  0  0  0  0  0  0  0  0  0
  193.7190  175.0930  146.5160 C   0  0  0  0  0  1  0  0  0  0  0  0
  191.2420  174.9420  146.7920 C   0  0  0  0  0  3  0  0  0  0  0  0
  189.9540  175.4410  146.5750 C   0  0  0  0  0  3  0  0  0  0  0  0
  184.8600  177.3140  142.2840 N   0  0  0  0  0  2  0  0  0  0  0  0
  184.6640  178.0600  141.1130 C   0  0  0  0  0  0  0  0  0  0  0  0
  184.5010  178.6750  140.1450 N   0  0  0  0  0  0  0  0  0  0  0  0
  189.8610  174.0480  140.7890 C   0  0  0  0  0  2  0  0  0  0  0  0
  190.9470  171.0950  140.3420 C   0  0  0  0  0  2  0  0  0  0  0  0
  189.2010  172.7450  140.6800 N   0  0  0  0  0  0  0  0  0  0  0  0
  189.1760  172.2630  139.2930 C   0  0  2  0  0  3  0  0  0  0  0  0
  190.5080  171.6210  138.9980 C   0  0  0  0  0  2  0  0  0  0  0  0
  190.0680  171.7960  141.3720 C   0  0  0  0  0  2  0  0  0  0  0  0
  188.5110  174.0830  137.5110 N   0  0  0  0  0  0  0  0  0  0  0  0
  188.8050  173.2830  138.2940 C   0  0  0  0  0  0  0  0  0  0  0  0
  2  1  2  0  0  0  0
  3 16  2  0  0  0  0
  4 12  2  0  0  0  0
  5 20  1  0  0  0  0
  5 13  1  0  0  0  0
  6  8  1  0  0  0  0
  7 15  1  0  0  0  0
  8  5  1  0  0  0  0
  9  4  1  0  0  0  0
  9 14  1  0  0  0  0
 10 11  2  0  0  0  0
 11 13  1  0  0  0  0
 11  3  1  0  0  0  0
 12  6  1  0  0  0  0
 13  2  1  1  0  0  0
 14  7  1  0  0  0  0
 14  6  2  0  0  0  0
 15  8  2  0  0  0  0
 15 10  1  0  0  0  0
 16  1  1  0  0  0  0
 17 21  1  0  0  0  0
 17 22  1  0  0  0  0
 18 17  2  0  0  0  0
 19 18  1  0  0  0  0
 19 20  2  0  0  0  0
 20 23  1  0  0  0  0
 23 22  2  0  0  0  0
 24  7  1  0  0  0  0
 25 24  1  0  0  0  0
 26 25  3  0  0  0  0
 27  4  1  0  0  0  0
 28 32  1  0  0  0  0
 29 27  1  0  0  0  0
 29 32  1  0  0  0  0
 30 34  1  6  0  0  0
 30 29  1  0  0  0  0
 31 30  1  0  0  0  0
 31 28  1  0  0  0  0
 33 34  3  0  0  0  0
M  END
>  <MODEL>
7

>  <REMARK>
 VINA RESULT:      -6.6      2.192      7.074
  Name = 
  6 active torsions:
  status: ('A' for Active; 'I' for Inactive)
    1  A    between atoms: C_6  and  C_24
    2  A    between atoms: N_9  and  C_24
    3  A    between atoms: N_10  and  C_19
    4  A    between atoms: N_13  and  N_21
    5  A    between atoms: C_20  and  C_23
    6  A    between atoms: N_21  and  C_28
                            x       y       z     vdW  Elec       q    Type
                         _______ _______ _______ _____ _____    ______ ____

>  <TORSDO>
F 6

$$$$
=
 OpenBabel11072408263D

 34 39  0  0  1  0  0  0  0  0999 V2000
  184.4980  178.0200  145.9960 C   0  0  0  0  0  3  0  0  0  0  0  0
  185.4480  177.8090  145.0780 C   0  0  0  0  0  3  0  0  0  0  0  0
  186.0940  178.1520  147.8520 C   0  0  0  0  0  3  0  0  0  0  0  0
  192.0650  175.7730  143.3030 C   0  0  0  0  0  0  0  0  0  0  0  0
  187.7930  177.1580  144.5340 N   0  0  0  0  0  0  0  0  0  0  0  0
  190.2020  176.2740  144.5030 C   0  0  0  0  0  0  0  0  0  0  0  0
  190.5710  176.3770  146.7160 N   0  0  0  0  0  0  0  0  0  0  0  0
  189.0250  176.6840  145.1000 C   0  0  0  0  0  0  0  0  0  0  0  0
  192.6150  175.7200  144.9240 S   0  0  0  0  0  0  0  0  0  0  0  0
  188.3010  177.2480  147.4010 C   0  0  0  0  0  3  0  0  0  0  0  0
  187.1530  177.7440  146.9200 C   0  0  0  0  0  0  0  0  0  0  0  0
  190.7080  176.1240  143.2170 C   0  0  0  0  0  3  0  0  0  0  0  0
  186.9120  177.9590  145.4180 C   0  0  2  0  0  3  0  0  0  0  0  0
  191.0890  176.0890  145.5030 C   0  0  0  0  0  0  0  0  0  0  0  0
  189.2970  176.7540  146.4530 C   0  0  0  0  0  0  0  0  0  0  0  0
  184.8420  178.2960  147.4080 C   0  0  0  0  0  3  0  0  0  0  0  0
  187.0860  176.9820  140.3540 C   0  0  0  0  0  0  0  0  0  0  0  0
  187.3310  178.2130  140.9700 C   0  0  0  0  0  3  0  0  0  0  0  0
  187.5670  178.2720  142.3470 C   0  0  0  0  0  3  0  0  0  0  0  0
  187.5630  177.1000  143.1160 C   0  0  0  0  0  0  0  0  0  0  0  0
  186.8380  176.9200  138.8910 C   0  0  0  0  0  1  0  0  0  0  0  0
  187.0720  175.8110  141.1160 C   0  0  0  0  0  3  0  0  0  0  0  0
  187.3060  175.8690  142.4930 C   0  0  0  0  0  3  0  0  0  0  0  0
  191.2020  176.3970  147.9700 N   0  0  0  0  0  2  0  0  0  0  0  0
  191.2020  177.5260  148.8010 C   0  0  0  0  0  0  0  0  0  0  0  0
  191.2030  178.4580  149.4890 N   0  0  0  0  0  0  0  0  0  0  0  0
  192.9500  175.5850  142.1230 C   0  0  0  0  0  2  0  0  0  0  0  0
  195.7300  175.6430  140.5830 C   0  0  0  0  0  2  0  0  0  0  0  0
  194.3410  175.4490  142.5620 N   0  0  0  0  0  0  0  0  0  0  0  0
  194.8970  174.1370  142.2080 C   0  0  2  0  0  3  0  0  0  0  0  0
  195.3500  174.1950  140.7710 C   0  0  0  0  0  2  0  0  0  0  0  0
  195.1110  176.3920  141.7580 C   0  0  0  0  0  2  0  0  0  0  0  0
  193.2960  172.1030  142.6850 N   0  0  0  0  0  0  0  0  0  0  0  0
  193.9990  172.9970  142.4740 C   0  0  0  0  0  0  0  0  0  0  0  0
  1 16  1  0  0  0  0
  2  1  2  0  0  0  0
  4  9  1  0  0  0  0
  5  8  1  0  0  0  0
  5 13  1  0  0  0  0
  6  8  1  0  0  0  0
  6 14  2  0  0  0  0
  7 24  1  0  0  0  0
  8 15  2  0  0  0  0
  9 14  1  0  0  0  0
 11 10  2  0  0  0  0
 11  3  1  0  0  0  0
 12  4  2  0  0  0  0
 12  6  1  0  0  0  0
 13  2  1  1  0  0  0
 13 11  1  0  0  0  0
 14  7  1  0  0  0  0
 15  7  1  0  0  0  0
 15 10  1  0  0  0  0
 16  3  2  0  0  0  0
 17 18  2  0  0  0  0
 17 22  1  0  0  0  0
 18 19  1  0  0  0  0
 19 20  2  0  0  0  0
 20  5  1  0  0  0  0
 21 17  1  0  0  0  0
 22 23  2  0  0  0  0
 23 20  1  0  0  0  0
 24 25  1  0  0  0  0
 25 26  3  0  0  0  0
 27 29  1  0  0  0  0
 27  4  1  0  0  0  0
 28 31  1  0  0  0  0
 28 32  1  0  0  0  0
 30 34  1  6  0  0  0
 30 29  1  0  0  0  0
 31 30  1  0  0  0  0
 32 29  1  0  0  0  0
 34 33  3  0  0  0  0
M  END
>  <MODEL>
8

>  <REMARK>
 VINA RESULT:      -6.4      2.978      8.590
  Name = 
  6 active torsions:
  status: ('A' for Active; 'I' for Inactive)
    1  A    between atoms: C_6  and  C_24
    2  A    between atoms: N_9  and  C_24
    3  A    between atoms: N_10  and  C_19
    4  A    between atoms: N_13  and  N_21
    5  A    between atoms: C_20  and  C_23
    6  A    between atoms: N_21  and  C_28
                            x       y       z     vdW  Elec       q    Type
                         _______ _______ _______ _____ _____    ______ ____

>  <TORSDO>
F 6

$$$$
=
 OpenBabel11072408263D

 34 39  0  0  1  0  0  0  0  0999 V2000
  191.4340  176.4670  147.7850 C   0  0  0  0  0  3  0  0  0  0  0  0
  191.2650  175.6740  146.7200 C   0  0  0  0  0  3  0  0  0  0  0  0
  189.4830  177.8560  147.2620 C   0  0  0  0  0  3  0  0  0  0  0  0
  188.5430  174.4480  140.2260 C   0  0  0  0  0  0  0  0  0  0  0  0
  190.2250  175.2800  144.4880 N   0  0  0  0  0  0  0  0  0  0  0  0
  189.0670  175.4370  142.2030 C   0  0  0  0  0  0  0  0  0  0  0  0
  187.8480  177.2740  142.6280 N   0  0  0  0  0  0  0  0  0  0  0  0
  189.4080  175.8770  143.4680 C   0  0  0  0  0  0  0  0  0  0  0  0
  187.5290  175.8270  140.2560 S   0  0  0  0  0  0  0  0  0  0  0  0
  188.6500  177.6780  144.9900 C   0  0  0  0  0  3  0  0  0  0  0  0
  189.3590  177.1350  145.9890 C   0  0  0  0  0  0  0  0  0  0  0  0
  189.3240  174.3400  141.3890 C   0  0  0  0  0  3  0  0  0  0  0  0
  190.0120  175.7500  145.8790 C   0  0  2  0  0  3  0  0  0  0  0  0
  188.1470  176.3070  141.7360 C   0  0  0  0  0  0  0  0  0  0  0  0
  188.6260  176.9920  143.7000 C   0  0  0  0  0  0  0  0  0  0  0  0
  190.4560  177.5260  148.1160 C   0  0  0  0  0  3  0  0  0  0  0  0
  192.5200  171.7980  143.7090 C   0  0  0  0  0  0  0  0  0  0  0  0
  191.2430  171.6820  144.2620 C   0  0  0  0  0  3  0  0  0  0  0  0
  190.4840  172.8280  144.5180 C   0  0  0  0  0  3  0  0  0  0  0  0
  190.9970  174.0980  144.2170 C   0  0  0  0  0  0  0  0  0  0  0  0
  193.3250  170.5790  143.4360 C   0  0  0  0  0  1  0  0  0  0  0  0
  193.0420  173.0600  143.4140 C   0  0  0  0  0  3  0  0  0  0  0  0
  192.2850  174.2080  143.6690 C   0  0  0  0  0  3  0  0  0  0  0  0
  186.8830  178.2920  142.5470 N   0  0  0  0  0  2  0  0  0  0  0  0
  185.5340  178.0860  142.8710 C   0  0  0  0  0  0  0  0  0  0  0  0
  184.4200  177.9160  143.1370 N   0  0  0  0  0  0  0  0  0  0  0  0
  188.5140  173.4220  139.1490 C   0  0  0  0  0  2  0  0  0  0  0  0
  189.3160  172.4340  136.2370 C   0  0  0  0  0  2  0  0  0  0  0  0
  189.7620  173.4710  138.3840 N   0  0  0  0  0  0  0  0  0  0  0  0
  190.4110  172.1550  138.3180 C   0  0  2  0  0  3  0  0  0  0  0  0
  189.7550  171.3680  137.2110 C   0  0  0  0  0  2  0  0  0  0  0  0
  189.3780  173.7500  137.0040 C   0  0  0  0  0  2  0  0  0  0  0  0
  190.4640  170.8450  140.6000 N   0  0  0  0  0  0  0  0  0  0  0  0
  190.4410  171.4200  139.5960 C   0  0  0  0  0  0  0  0  0  0  0  0
  1 16  1  0  0  0  0
  2  1  2  0  0  0  0
  3 16  2  0  0  0  0
  4  9  1  0  0  0  0
  4 12  2  0  0  0  0
  5 13  1  0  0  0  0
  6  8  1  0  0  0  0
  7 15  1  0  0  0  0
  8 15  2  0  0  0  0
  8  5  1  0  0  0  0
  9 14  1  0  0  0  0
 10 11  2  0  0  0  0
 11  3  1  0  0  0  0
 12  6  1  0  0  0  0
 13 11  1  0  0  0  0
 13  2  1  6  0  0  0
 14  6  2  0  0  0  0
 14  7  1  0  0  0  0
 15 10  1  0  0  0  0
 17 18  1  0  0  0  0
 18 19  2  0  0  0  0
 20  5  1  0  0  0  0
 20 19  1  0  0  0  0
 21 17  1  0  0  0  0
 22 23  1  0  0  0  0
 22 17  2  0  0  0  0
 23 20  2  0  0  0  0
 24  7  1  0  0  0  0
 24 25  1  0  0  0  0
 25 26  3  0  0  0  0
 27  4  1  0  0  0  0
 28 32  1  0  0  0  0
 28 31  1  0  0  0  0
 29 27  1  0  0  0  0
 30 29  1  0  0  0  0
 30 34  1  1  0  0  0
 31 30  1  0  0  0  0
 32 29  1  0  0  0  0
 34 33  3  0  0  0  0
M  END
>  <MODEL>
9

>  <REMARK>
 VINA RESULT:      -6.4      1.842      6.703
  Name = 
  6 active torsions:
  status: ('A' for Active; 'I' for Inactive)
    1  A    between atoms: C_6  and  C_24
    2  A    between atoms: N_9  and  C_24
    3  A    between atoms: N_10  and  C_19
    4  A    between atoms: N_13  and  N_21
    5  A    between atoms: C_20  and  C_23
    6  A    between atoms: N_21  and  C_28
                            x       y       z     vdW  Elec       q    Type
                         _______ _______ _______ _____ _____    ______ ____

>  <TORSDO>
F 6

$$$$
