=
 OpenBabel11072409183D

 64 68  0  0  1  0  0  0  0  0999 V2000
  191.6120  177.8090  143.2670 C   0  0  0  0  0  2  0  0  0  0  0  0
  190.2530  178.1620  143.8560 C   0  0  2  0  0  3  0  0  0  0  0  0
  188.4130  176.2730  146.6790 C   0  0  0  0  0  3  0  0  0  0  0  0
  192.2400  176.8050  144.2240 C   0  0  1  0  0  3  0  0  0  0  0  0
  191.1600  176.4910  145.2010 C   0  0  0  0  0  0  0  0  0  0  0  0
  188.6090  174.3410  147.9990 O   0  0  0  0  0  0  0  0  0  0  0  0
  188.8160  177.1880  145.7880 C   0  0  0  0  0  3  0  0  0  0  0  0
  190.0600  177.2020  144.9820 C   0  0  0  0  0  0  0  0  0  0  0  0
  189.0880  175.0170  147.0550 C   0  0  0  0  0  0  0  0  0  0  0  0
  190.2970  174.4960  146.3550 C   0  0  0  0  0  2  0  0  0  0  0  0
  191.3720  175.5580  146.3460 C   0  0  0  0  0  2  0  0  0  0  0  0
  195.2340  176.8920  144.5180 C   0  0  0  0  0  2  0  0  0  0  0  0
  193.7660  173.3540  143.7290 C   0  0  0  0  0  2  0  0  0  0  0  0
  195.0590  175.3820  144.4880 C   0  0  0  0  0  0  0  0  0  0  0  0
  192.6940  175.5790  143.4890 C   0  0  0  0  0  0  0  0  0  0  0  0
  193.8050  174.7980  143.9670 N   0  0  0  0  0  0  0  0  0  0  0  0
  196.2670  174.4850  144.5110 C   0  0  0  0  0  0  0  0  0  0  0  0
  194.8650  176.1310  145.7940 C   0  0  0  0  0  2  0  0  0  0  0  0
  192.0530  175.1950  142.4720 O   0  0  0  0  0  0  0  0  0  0  0  0
  197.3850  174.9530  144.3500 O   0  0  0  0  0  0  0  0  0  0  0  0
  194.5930  172.6160  144.7810 C   0  0  2  0  0  3  0  0  0  0  0  0
  196.0860  172.9940  144.6700 C   0  0  2  0  0  3  0  0  0  0  0  0
  196.9480  173.4600  146.8750 F   0  0  0  0  0  0  0  0  0  0  0  0
  196.8800  172.4950  145.8780 C   0  0  0  0  0  3  0  0  0  0  0  0
  196.3260  171.3340  146.3870 F   0  0  0  0  0  0  0  0  0  0  0  0
  194.4150  171.2380  144.6380 O   0  0  0  0  0  0  0  0  0  0  0  0
  194.6190  170.9960  143.2750 C   0  0  0  0  0  2  0  0  0  0  0  0
  193.7090  169.8800  142.8010 C   0  0  0  0  0  2  0  0  0  0  0  0
  192.3840  170.4800  142.3760 C   0  0  0  0  0  2  0  0  0  0  0  0
  192.3650  170.7440  140.8780 C   0  0  2  0  0  3  0  0  0  0  0  0
  192.7840  172.0520  140.6280 O   0  0  0  0  0  1  0  0  0  0  0  0
  190.9560  170.5630  140.3240 C   0  0  0  0  0  2  0  0  0  0  0  0
  190.1380  171.8550  140.2680 C   0  0  2  0  0  3  0  0  0  0  0  0
  189.4400  172.0810  141.4580 O   0  0  0  0  0  1  0  0  0  0  0  0
  189.2370  171.9630  139.0290 C   0  0  2  0  0  3  0  0  0  0  0  0
  189.7420  171.2570  136.7920 O   0  0  0  0  0  0  0  0  0  0  0  0
  191.1000  172.8890  137.6540 O   0  0  0  0  0  1  0  0  0  0  0  0
  190.0290  172.0100  137.7610 C   0  0  0  0  0  0  0  0  0  0  0  0
  188.1840  173.0760  139.0870 C   0  0  0  0  0  2  0  0  0  0  0  0
  188.1130  173.7780  137.8830 O   0  0  0  0  0  1  0  0  0  0  0  0
  189.4160  178.5000  141.6300 O   0  0  0  0  0  0  0  0  0  0  0  0
  189.1910  178.0680  142.7930 C   0  0  0  0  0  0  0  0  0  0  0  0
  187.9250  177.5600  143.0910 O   0  0  0  0  0  0  0  0  0  0  0  0
  187.3470  176.4920  142.3500 C   0  0  0  0  0  2  0  0  0  0  0  0
  186.6850  177.0060  141.1090 C   0  0  0  0  0  0  0  0  0  0  0  0
  187.1790  176.7070  139.9060 C   0  0  0  0  0  2  0  0  0  0  0  0
  185.4960  177.9050  141.2450 C   0  0  0  0  0  2  0  0  0  0  0  0
  184.6640  177.5470  142.4680 C   0  0  0  0  0  2  0  0  0  0  0  0
  183.7170  178.6830  142.8470 C   0  0  1  0  0  3  0  0  0  0  0  0
  181.4390  179.4550  142.2530 C   0  0  0  0  0  2  0  0  0  0  0  0
  182.3390  178.3040  142.4720 N   0  0  0  0  0  0  0  0  0  0  0  0
  182.1040  178.8320  141.1140 C   0  0  1  0  0  3  0  0  0  0  0  0
  181.1160  177.9380  140.3940 C   0  0  0  0  0  2  0  0  0  0  0  0
  179.7110  178.2430  140.8720 C   0  0  0  0  0  2  0  0  0  0  0  0
  178.5140  177.2800  139.9070 S   0  0  0  0  0  0  0  0  0  0  0  0
  178.0610  178.7460  137.7520 O   0  0  0  0  0  1  0  0  0  0  0  0
  177.7950  178.7550  139.1230 C   0  0  2  0  0  3  0  0  0  0  0  0
  178.3650  180.0220  139.7480 C   0  0  0  0  0  2  0  0  0  0  0  0
  178.5000  181.0260  138.7840 O   0  0  0  0  0  0  0  0  0  0  0  0
  179.4180  181.9200  139.3320 C   0  0  0  0  0  1  0  0  0  0  0  0
  183.9230  179.0590  144.3300 C   0  0  0  0  0  2  0  0  0  0  0  0
  185.1150  178.3200  144.9340 C   0  0  0  0  0  2  0  0  0  0  0  0
  185.5170  178.9320  146.1280 O   0  0  0  0  0  0  0  0  0  0  0  0
  184.6180  178.4640  147.0840 C   0  0  0  0  0  1  0  0  0  0  0  0
  1  2  1  0  0  0  0
  1  4  1  0  0  0  0
  2 42  1  6  0  0  0
  2  8  1  0  0  0  0
  3  9  1  0  0  0  0
  4 15  1  6  0  0  0
  4  5  1  0  0  0  0
  5 11  1  0  0  0  0
  7  3  2  0  0  0  0
  8  5  2  0  0  0  0
  8  7  1  0  0  0  0
  9  6  2  0  0  0  0
 10  9  1  0  0  0  0
 11 10  1  0  0  0  0
 12 18  1  0  0  0  0
 13 16  1  0  0  0  0
 13 21  1  0  0  0  0
 14 17  1  0  0  0  0
 14 12  1  0  0  0  0
 14 18  1  0  0  0  0
 15 16  1  0  0  0  0
 16 14  1  0  0  0  0
 17 22  1  0  0  0  0
 19 15  2  0  0  0  0
 20 17  2  0  0  0  0
 21 26  1  6  0  0  0
 22 21  1  0  0  0  0
 22 24  1  1  0  0  0
 24 25  1  0  0  0  0
 24 23  1  0  0  0  0
 27 26  1  0  0  0  0
 28 27  1  0  0  0  0
 29 28  1  0  0  0  0
 30 31  1  1  0  0  0
 30 29  1  0  0  0  0
 32 30  1  0  0  0  0
 33 32  1  0  0  0  0
 33 34  1  1  0  0  0
 35 39  1  1  0  0  0
 35 33  1  0  0  0  0
 36 38  2  0  0  0  0
 37 38  1  0  0  0  0
 38 35  1  0  0  0  0
 40 39  1  0  0  0  0
 41 42  2  0  0  0  0
 42 43  1  0  0  0  0
 44 43  1  0  0  0  0
 45 47  1  0  0  0  0
 45 44  1  0  0  0  0
 46 45  2  0  0  0  0
 47 48  1  0  0  0  0
 49 48  1  1  0  0  0
 49 61  1  0  0  0  0
 50 51  1  0  0  0  0
 51 49  1  0  0  0  0
 52 53  1  6  0  0  0
 52 50  1  0  0  0  0
 52 51  1  0  0  0  0
 53 54  1  0  0  0  0
 55 54  1  0  0  0  0
 57 56  1  6  0  0  0
 57 58  1  0  0  0  0
 57 55  1  0  0  0  0
 59 60  1  0  0  0  0
 59 58  1  0  0  0  0
 61 62  1  0  0  0  0
 62 63  1  0  0  0  0
 63 64  1  0  0  0  0
M  END
>  <MODEL>
1

>  <REMARK>
 VINA RESULT:      -6.1      0.000      0.000
  Name = 
  29 active torsions:
  status: ('A' for Active; 'I' for Inactive)
    1  A    between atoms: C_2  and  C_6
    2  A    between atoms: C_2  and  N_50
    3  A    between atoms: C_2  and  C_60
    4  A    between atoms: C_4  and  C_24
    5  A    between atoms: C_4  and  C_48
    6  A    between atoms: O_5  and  C_8
    7  A    between atoms: C_6  and  C_24
    8  A    between atoms: C_8  and  C_60
    9  A    between atoms: C_11  and  C_34
   10  A    between atoms: C_11  and  C_46
   11  A    between atoms: C_12  and  C_33
   12  A    between atoms: C_14  and  C_31
   13  A    between atoms: C_14  and  C_34
   14  A    between atoms: C_17  and  C_58
   15  A    between atoms: C_21  and  O_29
   16  A    between atoms: C_21  and  C_54
   17  A    between atoms: C_22  and  S_23
   18  A    between atoms: C_22  and  C_53
   19  A    between atoms: S_23  and  C_54
   20  A    between atoms: C_25  and  C_61
   21  A    between atoms: C_31  and  O_52
   22  A    between atoms: C_35  and  C_46
   23  A    between atoms: C_35  and  C_61
   24  A    between atoms: C_41  and  C_43
   25  A    between atoms: C_42  and  O_52
   26  A    between atoms: C_48  and  O_59
   27  A    between atoms: C_49  and  C_61
   28  A    between atoms: C_51  and  C_53
   29  A    between atoms: C_58  and  O_59
                            x       y       z     vdW  Elec       q    Type
                         _______ _______ _______ _____ _____    ______ ____

>  <TORSDO>
F 29

$$$$
=
 OpenBabel11072409183D

 64 68  0  0  1  0  0  0  0  0999 V2000
  192.3050  173.9380  146.1140 C   0  0  0  0  0  2  0  0  0  0  0  0
  193.7700  173.7070  145.7670 C   0  0  2  0  0  3  0  0  0  0  0  0
  195.7250  175.3360  142.8600 C   0  0  0  0  0  3  0  0  0  0  0  0
  191.8730  175.1680  145.3270 C   0  0  1  0  0  3  0  0  0  0  0  0
  193.0300  175.4730  144.4390 C   0  0  0  0  0  0  0  0  0  0  0  0
  195.3900  176.7360  141.0050 O   0  0  0  0  0  0  0  0  0  0  0  0
  195.3800  174.7010  143.9880 C   0  0  0  0  0  3  0  0  0  0  0  0
  194.0550  174.6540  144.6490 C   0  0  0  0  0  0  0  0  0  0  0  0
  194.8570  176.1180  141.9600 C   0  0  0  0  0  0  0  0  0  0  0  0
  193.3760  176.1910  142.1110 C   0  0  0  0  0  2  0  0  0  0  0  0
  193.0330  176.6420  143.5130 C   0  0  0  0  0  2  0  0  0  0  0  0
  189.6670  175.6500  147.3170 C   0  0  0  0  0  2  0  0  0  0  0  0
  188.5750  175.8870  143.5700 C   0  0  0  0  0  2  0  0  0  0  0  0
  188.9270  176.0760  146.0600 C   0  0  0  0  0  0  0  0  0  0  0  0
  190.6290  174.8860  144.5380 C   0  0  0  0  0  0  0  0  0  0  0  0
  189.4350  175.6680  144.7330 N   0  0  0  0  0  0  0  0  0  0  0  0
  187.4760  176.4680  146.1390 C   0  0  0  0  0  0  0  0  0  0  0  0
  189.8370  177.0660  146.7630 C   0  0  0  0  0  2  0  0  0  0  0  0
  190.6510  173.9930  143.6470 O   0  0  0  0  0  0  0  0  0  0  0  0
  186.8350  176.2570  147.1580 O   0  0  0  0  0  0  0  0  0  0  0  0
  187.7700  177.1760  143.7340 C   0  0  2  0  0  3  0  0  0  0  0  0
  186.7990  177.0680  144.9290 C   0  0  2  0  0  3  0  0  0  0  0  0
  184.9190  178.2960  145.8090 F   0  0  0  0  0  0  0  0  0  0  0  0
  186.1980  178.4280  145.2840 C   0  0  0  0  0  3  0  0  0  0  0  0
  187.0040  179.1050  146.1820 F   0  0  0  0  0  0  0  0  0  0  0  0
  187.0800  177.4540  142.5520 O   0  0  0  0  0  0  0  0  0  0  0  0
  185.7310  177.3000  142.8880 C   0  0  0  0  0  2  0  0  0  0  0  0
  184.8660  178.1650  141.9920 C   0  0  0  0  0  2  0  0  0  0  0  0
  183.4260  178.0540  142.4500 C   0  0  0  0  0  2  0  0  0  0  0  0
  182.4760  178.1110  141.2640 C   0  0  2  0  0  3  0  0  0  0  0  0
  183.0850  178.7930  140.2090 O   0  0  0  0  0  1  0  0  0  0  0  0
  181.1930  178.8410  141.6460 C   0  0  0  0  0  2  0  0  0  0  0  0
  179.9140  178.1290  141.1990 C   0  0  2  0  0  3  0  0  0  0  0  0
  180.0180  177.6450  139.8920 O   0  0  0  0  0  1  0  0  0  0  0  0
  178.6380  178.9550  141.4190 C   0  0  2  0  0  3  0  0  0  0  0  0
  179.7200  180.6210  140.0740 O   0  0  0  0  0  0  0  0  0  0  0  0
  177.6910  181.2150  140.9570 O   0  0  0  0  0  1  0  0  0  0  0  0
  178.7220  180.3020  140.7740 C   0  0  0  0  0  0  0  0  0  0  0  0
  178.1670  179.0460  142.8760 C   0  0  0  0  0  2  0  0  0  0  0  0
  178.1530  177.7920  143.4890 O   0  0  0  0  0  1  0  0  0  0  0  0
  195.0410  171.6700  145.7770 O   0  0  0  0  0  0  0  0  0  0  0  0
  193.9920  172.2630  145.4060 C   0  0  0  0  0  0  0  0  0  0  0  0
  193.0760  171.5780  144.6070 O   0  0  0  0  0  0  0  0  0  0  0  0
  193.1550  171.5930  143.1860 C   0  0  0  0  0  2  0  0  0  0  0  0
  193.8940  170.3910  142.6840 C   0  0  0  0  0  0  0  0  0  0  0  0
  193.8810  169.2510  143.3780 C   0  0  0  0  0  2  0  0  0  0  0  0
  194.6890  170.5070  141.4220 C   0  0  0  0  0  2  0  0  0  0  0  0
  193.9450  171.3130  140.3660 C   0  0  0  0  0  2  0  0  0  0  0  0
  194.3660  170.9040  138.9570 C   0  0  1  0  0  3  0  0  0  0  0  0
  193.2450  169.0450  137.7630 C   0  0  0  0  0  2  0  0  0  0  0  0
  193.1730  170.4510  138.2120 N   0  0  0  0  0  0  0  0  0  0  0  0
  192.5570  169.3700  139.0070 C   0  0  1  0  0  3  0  0  0  0  0  0
  191.0630  169.3600  138.7630 C   0  0  0  0  0  2  0  0  0  0  0  0
  190.5190  170.7700  138.8720 C   0  0  0  0  0  2  0  0  0  0  0  0
  190.3560  171.2300  140.6180 S   0  0  0  0  0  0  0  0  0  0  0  0
  188.7610  173.3040  140.2260 O   0  0  0  0  0  1  0  0  0  0  0  0
  190.1220  172.9950  140.2430 C   0  0  2  0  0  3  0  0  0  0  0  0
  190.7440  173.3400  138.8960 C   0  0  0  0  0  2  0  0  0  0  0  0
  189.8330  174.0440  138.1020 O   0  0  0  0  0  0  0  0  0  0  0  0
  190.2130  173.7570  136.7920 C   0  0  0  0  0  1  0  0  0  0  0  0
  195.1640  172.0510  138.3000 C   0  0  0  0  0  2  0  0  0  0  0  0
  194.2520  172.9820  137.5040 C   0  0  0  0  0  2  0  0  0  0  0  0
  194.4410  172.7960  136.1290 O   0  0  0  0  0  0  0  0  0  0  0  0
  195.8230  172.7100  135.9710 C   0  0  0  0  0  1  0  0  0  0  0  0
  2 42  1  6  0  0  0
  2  1  1  0  0  0  0
  3  7  2  0  0  0  0
  4 15  1  6  0  0  0
  4  1  1  0  0  0  0
  5  8  2  0  0  0  0
  5  4  1  0  0  0  0
  6  9  2  0  0  0  0
  7  8  1  0  0  0  0
  8  2  1  0  0  0  0
  9 10  1  0  0  0  0
  9  3  1  0  0  0  0
 10 11  1  0  0  0  0
 11  5  1  0  0  0  0
 13 21  1  0  0  0  0
 13 16  1  0  0  0  0
 14 17  1  0  0  0  0
 14 18  1  0  0  0  0
 14 12  1  0  0  0  0
 15 16  1  0  0  0  0
 16 14  1  0  0  0  0
 17 20  2  0  0  0  0
 18 12  1  0  0  0  0
 19 15  2  0  0  0  0
 21 26  1  6  0  0  0
 21 22  1  0  0  0  0
 22 24  1  1  0  0  0
 22 17  1  0  0  0  0
 24 23  1  0  0  0  0
 24 25  1  0  0  0  0
 26 27  1  0  0  0  0
 28 29  1  0  0  0  0
 28 27  1  0  0  0  0
 30 31  1  6  0  0  0
 30 32  1  0  0  0  0
 30 29  1  0  0  0  0
 33 34  1  6  0  0  0
 33 35  1  0  0  0  0
 33 32  1  0  0  0  0
 35 39  1  1  0  0  0
 36 38  2  0  0  0  0
 38 37  1  0  0  0  0
 38 35  1  0  0  0  0
 39 40  1  0  0  0  0
 42 41  2  0  0  0  0
 43 42  1  0  0  0  0
 44 43  1  0  0  0  0
 45 44  1  0  0  0  0
 45 46  2  0  0  0  0
 47 45  1  0  0  0  0
 48 47  1  0  0  0  0
 49 61  1  6  0  0  0
 49 48  1  0  0  0  0
 50 51  1  0  0  0  0
 50 52  1  0  0  0  0
 51 49  1  0  0  0  0
 51 52  1  0  0  0  0
 52 53  1  6  0  0  0
 53 54  1  0  0  0  0
 54 55  1  0  0  0  0
 57 56  1  6  0  0  0
 57 55  1  0  0  0  0
 58 57  1  0  0  0  0
 59 58  1  0  0  0  0
 60 59  1  0  0  0  0
 62 61  1  0  0  0  0
 63 62  1  0  0  0  0
 64 63  1  0  0  0  0
M  END
>  <MODEL>
2

>  <REMARK>
 VINA RESULT:      -5.1      3.680     10.979
  Name = 
  29 active torsions:
  status: ('A' for Active; 'I' for Inactive)
    1  A    between atoms: C_2  and  C_6
    2  A    between atoms: C_2  and  N_50
    3  A    between atoms: C_2  and  C_60
    4  A    between atoms: C_4  and  C_24
    5  A    between atoms: C_4  and  C_48
    6  A    between atoms: O_5  and  C_8
    7  A    between atoms: C_6  and  C_24
    8  A    between atoms: C_8  and  C_60
    9  A    between atoms: C_11  and  C_34
   10  A    between atoms: C_11  and  C_46
   11  A    between atoms: C_12  and  C_33
   12  A    between atoms: C_14  and  C_31
   13  A    between atoms: C_14  and  C_34
   14  A    between atoms: C_17  and  C_58
   15  A    between atoms: C_21  and  O_29
   16  A    between atoms: C_21  and  C_54
   17  A    between atoms: C_22  and  S_23
   18  A    between atoms: C_22  and  C_53
   19  A    between atoms: S_23  and  C_54
   20  A    between atoms: C_25  and  C_61
   21  A    between atoms: C_31  and  O_52
   22  A    between atoms: C_35  and  C_46
   23  A    between atoms: C_35  and  C_61
   24  A    between atoms: C_41  and  C_43
   25  A    between atoms: C_42  and  O_52
   26  A    between atoms: C_48  and  O_59
   27  A    between atoms: C_49  and  C_61
   28  A    between atoms: C_51  and  C_53
   29  A    between atoms: C_58  and  O_59
                            x       y       z     vdW  Elec       q    Type
                         _______ _______ _______ _____ _____    ______ ____

>  <TORSDO>
F 29

$$$$
=
 OpenBabel11072409183D

 64 68  0  0  1  0  0  0  0  0999 V2000
  196.4170  170.8680  139.3370 C   0  0  0  0  0  2  0  0  0  0  0  0
  196.9090  170.9230  137.8970 C   0  0  2  0  0  3  0  0  0  0  0  0
  197.5710  174.1100  135.8160 C   0  0  0  0  0  3  0  0  0  0  0  0
  196.5700  172.2780  139.8900 C   0  0  1  0  0  3  0  0  0  0  0  0
  196.9610  173.1030  138.7140 C   0  0  0  0  0  0  0  0  0  0  0  0
  197.3420  176.4430  135.9460 O   0  0  0  0  0  0  0  0  0  0  0  0
  197.5450  172.8530  136.2800 C   0  0  0  0  0  3  0  0  0  0  0  0
  197.1110  172.3740  137.6140 C   0  0  0  0  0  0  0  0  0  0  0  0
  197.1310  175.3380  136.5050 C   0  0  0  0  0  0  0  0  0  0  0  0
  196.4270  175.3320  137.8180 C   0  0  0  0  0  2  0  0  0  0  0  0
  197.2470  174.5630  138.8280 C   0  0  0  0  0  2  0  0  0  0  0  0
  196.6940  171.2040  142.6990 C   0  0  0  0  0  2  0  0  0  0  0  0
  194.2870  174.2460  142.2130 C   0  0  0  0  0  2  0  0  0  0  0  0
  195.9030  172.4700  142.9820 C   0  0  0  0  0  0  0  0  0  0  0  0
  195.2850  172.7550  140.4990 C   0  0  0  0  0  0  0  0  0  0  0  0
  195.2290  173.1800  141.8740 N   0  0  0  0  0  0  0  0  0  0  0  0
  195.3930  172.7420  144.3720 C   0  0  0  0  0  0  0  0  0  0  0  0
  197.4170  172.5380  142.8940 C   0  0  0  0  0  2  0  0  0  0  0  0
  194.2540  172.8440  139.7770 O   0  0  0  0  0  0  0  0  0  0  0  0
  195.4310  171.8680  145.2250 O   0  0  0  0  0  0  0  0  0  0  0  0
  194.7600  175.0060  143.4510 C   0  0  2  0  0  3  0  0  0  0  0  0
  194.7740  174.0830  144.6890 C   0  0  2  0  0  3  0  0  0  0  0  0
  194.6150  175.2330  146.8040 F   0  0  0  0  0  0  0  0  0  0  0  0
  195.5060  174.7340  145.8630 C   0  0  0  0  0  3  0  0  0  0  0  0
  196.3680  173.8360  146.4660 F   0  0  0  0  0  0  0  0  0  0  0  0
  193.9410  176.1170  143.6650 O   0  0  0  0  0  0  0  0  0  0  0  0
  192.6490  175.6600  143.3820 C   0  0  0  0  0  2  0  0  0  0  0  0
  191.6430  176.3440  144.2880 C   0  0  0  0  0  2  0  0  0  0  0  0
  190.3470  175.5590  144.2560 C   0  0  0  0  0  2  0  0  0  0  0  0
  190.2590  174.6120  145.4420 C   0  0  2  0  0  3  0  0  0  0  0  0
  189.1650  173.7600  145.2820 O   0  0  0  0  0  1  0  0  0  0  0  0
  190.0860  175.3980  146.7380 C   0  0  0  0  0  2  0  0  0  0  0  0
  189.2930  176.6970  146.5780 C   0  0  2  0  0  3  0  0  0  0  0  0
  189.8250  177.7300  147.3550 O   0  0  0  0  0  1  0  0  0  0  0  0
  187.7800  176.5270  146.7820 C   0  0  2  0  0  3  0  0  0  0  0  0
  187.2440  178.2660  145.2180 O   0  0  0  0  0  1  0  0  0  0  0  0
  185.9640  176.3700  145.0810 O   0  0  0  0  0  0  0  0  0  0  0  0
  186.9920  177.1100  145.6520 C   0  0  0  0  0  0  0  0  0  0  0  0
  187.2540  176.9900  148.1450 C   0  0  0  0  0  2  0  0  0  0  0  0
  186.6490  178.2460  148.0610 O   0  0  0  0  0  1  0  0  0  0  0  0
  196.2270  169.2300  136.3360 O   0  0  0  0  0  0  0  0  0  0  0  0
  195.9090  170.2630  136.9850 C   0  0  0  0  0  0  0  0  0  0  0  0
  194.6420  170.8150  136.7970 O   0  0  0  0  0  0  0  0  0  0  0  0
  194.1600  171.1750  135.5070 C   0  0  0  0  0  2  0  0  0  0  0  0
  192.9200  172.0060  135.6170 C   0  0  0  0  0  0  0  0  0  0  0  0
  192.2710  172.4020  134.5200 C   0  0  0  0  0  2  0  0  0  0  0  0
  192.4530  172.4310  136.9750 C   0  0  0  0  0  2  0  0  0  0  0  0
  190.9470  172.2690  137.1220 C   0  0  0  0  0  2  0  0  0  0  0  0
  190.5410  172.1550  138.5890 C   0  0  1  0  0  3  0  0  0  0  0  0
  188.3810  172.8360  139.5920 C   0  0  0  0  0  2  0  0  0  0  0  0
  189.6260  173.2660  138.9220 N   0  0  0  0  0  0  0  0  0  0  0  0
  189.5090  173.2990  140.3930 C   0  0  1  0  0  3  0  0  0  0  0  0
  189.2470  174.7200  140.8420 C   0  0  0  0  0  2  0  0  0  0  0  0
  187.7530  174.9710  140.8940 C   0  0  0  0  0  2  0  0  0  0  0  0
  187.3790  176.1690  142.2030 S   0  0  0  0  0  0  0  0  0  0  0  0
  188.1480  178.4050  141.0170 O   0  0  0  0  0  1  0  0  0  0  0  0
  187.0680  177.5210  141.0260 C   0  0  2  0  0  3  0  0  0  0  0  0
  185.7940  178.2690  141.3980 C   0  0  0  0  0  2  0  0  0  0  0  0
  185.2420  177.7430  142.5700 O   0  0  0  0  0  0  0  0  0  0  0  0
  184.1160  178.5280  142.8130 C   0  0  0  0  0  1  0  0  0  0  0  0
  189.9960  170.7380  138.8690 C   0  0  0  0  0  2  0  0  0  0  0  0
  191.0110  169.8900  139.6330 C   0  0  0  0  0  2  0  0  0  0  0  0
  191.6490  170.6560  140.6160 O   0  0  0  0  0  0  0  0  0  0  0  0
  191.1190  170.1980  141.8200 C   0  0  0  0  0  1  0  0  0  0  0  0
  1  4  1  0  0  0  0
  2 42  1  6  0  0  0
  2  1  1  0  0  0  0
  3  7  2  0  0  0  0
  3  9  1  0  0  0  0
  4 15  1  6  0  0  0
  5 11  1  0  0  0  0
  5  4  1  0  0  0  0
  6  9  2  0  0  0  0
  7  8  1  0  0  0  0
  8  2  1  0  0  0  0
  8  5  2  0  0  0  0
  9 10  1  0  0  0  0
 10 11  1  0  0  0  0
 12 18  1  0  0  0  0
 12 14  1  0  0  0  0
 13 21  1  0  0  0  0
 14 17  1  0  0  0  0
 15 16  1  0  0  0  0
 16 13  1  0  0  0  0
 16 14  1  0  0  0  0
 17 22  1  0  0  0  0
 17 20  2  0  0  0  0
 18 14  1  0  0  0  0
 19 15  2  0  0  0  0
 21 26  1  1  0  0  0
 21 22  1  0  0  0  0
 22 24  1  1  0  0  0
 24 25  1  0  0  0  0
 24 23  1  0  0  0  0
 27 26  1  0  0  0  0
 27 28  1  0  0  0  0
 29 28  1  0  0  0  0
 29 30  1  0  0  0  0
 30 31  1  6  0  0  0
 30 32  1  0  0  0  0
 33 32  1  0  0  0  0
 33 35  1  0  0  0  0
 33 34  1  1  0  0  0
 35 39  1  1  0  0  0
 36 38  1  0  0  0  0
 37 38  2  0  0  0  0
 38 35  1  0  0  0  0
 40 39  1  0  0  0  0
 41 42  2  0  0  0  0
 43 42  1  0  0  0  0
 44 45  1  0  0  0  0
 44 43  1  0  0  0  0
 45 47  1  0  0  0  0
 46 45  2  0  0  0  0
 47 48  1  0  0  0  0
 49 48  1  6  0  0  0
 49 61  1  0  0  0  0
 49 51  1  0  0  0  0
 50 52  1  0  0  0  0
 51 50  1  0  0  0  0
 51 52  1  0  0  0  0
 52 53  1  6  0  0  0
 53 54  1  0  0  0  0
 54 55  1  0  0  0  0
 57 56  1  1  0  0  0
 57 58  1  0  0  0  0
 57 55  1  0  0  0  0
 58 59  1  0  0  0  0
 59 60  1  0  0  0  0
 61 62  1  0  0  0  0
 62 63  1  0  0  0  0
 63 64  1  0  0  0  0
M  END
>  <MODEL>
3

>  <REMARK>
 VINA RESULT:      -4.3      3.682      8.978
  Name = 
  29 active torsions:
  status: ('A' for Active; 'I' for Inactive)
    1  A    between atoms: C_2  and  C_6
    2  A    between atoms: C_2  and  N_50
    3  A    between atoms: C_2  and  C_60
    4  A    between atoms: C_4  and  C_24
    5  A    between atoms: C_4  and  C_48
    6  A    between atoms: O_5  and  C_8
    7  A    between atoms: C_6  and  C_24
    8  A    between atoms: C_8  and  C_60
    9  A    between atoms: C_11  and  C_34
   10  A    between atoms: C_11  and  C_46
   11  A    between atoms: C_12  and  C_33
   12  A    between atoms: C_14  and  C_31
   13  A    between atoms: C_14  and  C_34
   14  A    between atoms: C_17  and  C_58
   15  A    between atoms: C_21  and  O_29
   16  A    between atoms: C_21  and  C_54
   17  A    between atoms: C_22  and  S_23
   18  A    between atoms: C_22  and  C_53
   19  A    between atoms: S_23  and  C_54
   20  A    between atoms: C_25  and  C_61
   21  A    between atoms: C_31  and  O_52
   22  A    between atoms: C_35  and  C_46
   23  A    between atoms: C_35  and  C_61
   24  A    between atoms: C_41  and  C_43
   25  A    between atoms: C_42  and  O_52
   26  A    between atoms: C_48  and  O_59
   27  A    between atoms: C_49  and  C_61
   28  A    between atoms: C_51  and  C_53
   29  A    between atoms: C_58  and  O_59
                            x       y       z     vdW  Elec       q    Type
                         _______ _______ _______ _____ _____    ______ ____

>  <TORSDO>
F 29

$$$$
=
 OpenBabel11072409183D

 64 68  0  0  1  0  0  0  0  0999 V2000
  192.4390  171.6980  140.4010 C   0  0  0  0  0  2  0  0  0  0  0  0
  191.7210  171.3860  139.0950 C   0  0  2  0  0  3  0  0  0  0  0  0
  188.6130  173.2010  137.6930 C   0  0  0  0  0  3  0  0  0  0  0  0
  191.9170  173.0530  140.8580 C   0  0  1  0  0  3  0  0  0  0  0  0
  190.8100  173.3670  139.9120 C   0  0  0  0  0  0  0  0  0  0  0  0
  187.0550  174.8560  138.2850 O   0  0  0  0  0  0  0  0  0  0  0  0
  189.7180  172.4580  137.8380 C   0  0  0  0  0  3  0  0  0  0  0  0
  190.6750  172.4420  138.9690 C   0  0  0  0  0  0  0  0  0  0  0  0
  188.0410  174.1670  138.6500 C   0  0  0  0  0  0  0  0  0  0  0  0
  188.5570  174.3500  140.0360 C   0  0  0  0  0  2  0  0  0  0  0  0
  190.0390  174.6420  139.9880 C   0  0  0  0  0  2  0  0  0  0  0  0
  194.4620  172.8610  142.4530 C   0  0  0  0  0  2  0  0  0  0  0  0
  191.3700  174.1760  144.4530 C   0  0  0  0  0  2  0  0  0  0  0  0
  193.6230  173.6230  143.4660 C   0  0  0  0  0  0  0  0  0  0  0  0
  191.4310  172.9870  142.2760 C   0  0  0  0  0  0  0  0  0  0  0  0
  192.1510  173.6430  143.3370 N   0  0  0  0  0  0  0  0  0  0  0  0
  194.1890  173.9360  144.8260 C   0  0  0  0  0  0  0  0  0  0  0  0
  194.3250  174.3810  142.3550 C   0  0  0  0  0  2  0  0  0  0  0  0
  190.3420  172.4010  142.5300 O   0  0  0  0  0  0  0  0  0  0  0  0
  195.2300  173.4130  145.1950 O   0  0  0  0  0  0  0  0  0  0  0  0
  192.1090  175.3360  145.1190 C   0  0  2  0  0  3  0  0  0  0  0  0
  193.4290  174.8510  145.7560 C   0  0  2  0  0  3  0  0  0  0  0  0
  194.5250  176.9030  145.1170 F   0  0  0  0  0  0  0  0  0  0  0  0
  194.3130  176.0270  146.1730 C   0  0  0  0  0  3  0  0  0  0  0  0
  193.7570  176.7080  147.2410 F   0  0  0  0  0  0  0  0  0  0  0  0
  191.2840  175.9370  146.0720 O   0  0  0  0  0  0  0  0  0  0  0  0
  190.5190  174.8850  146.5870 C   0  0  0  0  0  2  0  0  0  0  0  0
  189.4770  175.4190  147.5510 C   0  0  0  0  0  2  0  0  0  0  0  0
  188.1420  175.4850  146.8370 C   0  0  0  0  0  2  0  0  0  0  0  0
  187.6980  176.9280  146.6540 C   0  0  2  0  0  3  0  0  0  0  0  0
  187.1970  177.4200  147.8600 O   0  0  0  0  0  1  0  0  0  0  0  0
  186.6050  177.0170  145.5940 C   0  0  0  0  0  2  0  0  0  0  0  0
  187.0230  177.7680  144.3280 C   0  0  2  0  0  3  0  0  0  0  0  0
  186.4190  179.0260  144.2460 O   0  0  0  0  0  1  0  0  0  0  0  0
  186.8540  176.9500  143.0390 C   0  0  2  0  0  3  0  0  0  0  0  0
  189.0500  175.9860  143.1220 O   0  0  0  0  0  1  0  0  0  0  0  0
  187.3300  174.5220  142.7340 O   0  0  0  0  0  0  0  0  0  0  0  0
  187.8120  175.8030  142.9730 C   0  0  0  0  0  0  0  0  0  0  0  0
  186.8560  177.7720  141.7450 C   0  0  0  0  0  2  0  0  0  0  0  0
  185.8070  177.4000  140.9010 O   0  0  0  0  0  1  0  0  0  0  0  0
  190.1560  169.6850  138.4430 O   0  0  0  0  0  0  0  0  0  0  0  0
  191.1670  169.9870  139.1330 C   0  0  0  0  0  0  0  0  0  0  0  0
  191.7220  169.0220  139.9750 O   0  0  0  0  0  0  0  0  0  0  0  0
  191.1130  168.6590  141.2090 C   0  0  0  0  0  2  0  0  0  0  0  0
  192.1420  168.5300  142.2890 C   0  0  0  0  0  0  0  0  0  0  0  0
  191.7820  168.1890  143.5280 C   0  0  0  0  0  2  0  0  0  0  0  0
  193.5700  168.8430  141.9680 C   0  0  0  0  0  2  0  0  0  0  0  0
  194.5040  168.3870  143.0800 C   0  0  0  0  0  2  0  0  0  0  0  0
  195.8860  169.0190  142.9380 C   0  0  1  0  0  3  0  0  0  0  0  0
  197.2400  170.4290  141.4160 C   0  0  0  0  0  2  0  0  0  0  0  0
  195.9580  169.7320  141.6460 N   0  0  0  0  0  0  0  0  0  0  0  0
  197.0350  169.0950  140.8630 C   0  0  1  0  0  3  0  0  0  0  0  0
  196.7180  169.2140  139.3880 C   0  0  0  0  0  2  0  0  0  0  0  0
  195.9680  170.5050  139.1300 C   0  0  0  0  0  2  0  0  0  0  0  0
  196.8540  171.4920  137.8930 S   0  0  0  0  0  0  0  0  0  0  0  0
  196.4010  173.1630  139.8930 O   0  0  0  0  0  1  0  0  0  0  0  0
  196.1920  173.0670  138.5160 C   0  0  2  0  0  3  0  0  0  0  0  0
  194.7020  173.1760  138.2140 C   0  0  0  0  0  2  0  0  0  0  0  0
  194.3580  174.5000  137.9230 O   0  0  0  0  0  0  0  0  0  0  0  0
  195.2630  174.8910  136.9380 C   0  0  0  0  0  1  0  0  0  0  0  0
  196.1990  169.8710  144.1860 C   0  0  0  0  0  2  0  0  0  0  0  0
  197.2720  169.2180  145.0550 C   0  0  0  0  0  2  0  0  0  0  0  0
  196.7320  168.8190  146.2840 O   0  0  0  0  0  0  0  0  0  0  0  0
  195.5750  169.5830  146.4260 C   0  0  0  0  0  1  0  0  0  0  0  0
  1  4  1  0  0  0  0
  2 42  1  1  0  0  0
  2  1  1  0  0  0  0
  3  7  2  0  0  0  0
  3  9  1  0  0  0  0
  4 15  1  1  0  0  0
  5 11  1  0  0  0  0
  5  4  1  0  0  0  0
  6  9  2  0  0  0  0
  7  8  1  0  0  0  0
  8  2  1  0  0  0  0
  8  5  2  0  0  0  0
  9 10  1  0  0  0  0
 11 10  1  0  0  0  0
 12 14  1  0  0  0  0
 13 21  1  0  0  0  0
 14 17  1  0  0  0  0
 15 19  2  0  0  0  0
 15 16  1  0  0  0  0
 16 14  1  0  0  0  0
 16 13  1  0  0  0  0
 17 20  2  0  0  0  0
 17 22  1  0  0  0  0
 18 12  1  0  0  0  0
 18 14  1  0  0  0  0
 21 22  1  0  0  0  0
 21 26  1  1  0  0  0
 22 24  1  6  0  0  0
 23 24  1  0  0  0  0
 24 25  1  0  0  0  0
 26 27  1  0  0  0  0
 27 28  1  0  0  0  0
 29 28  1  0  0  0  0
 30 29  1  0  0  0  0
 30 31  1  1  0  0  0
 32 30  1  0  0  0  0
 33 34  1  6  0  0  0
 33 32  1  0  0  0  0
 35 39  1  6  0  0  0
 35 33  1  0  0  0  0
 37 38  2  0  0  0  0
 38 35  1  0  0  0  0
 38 36  1  0  0  0  0
 40 39  1  0  0  0  0
 41 42  2  0  0  0  0
 42 43  1  0  0  0  0
 43 44  1  0  0  0  0
 44 45  1  0  0  0  0
 45 46  2  0  0  0  0
 47 45  1  0  0  0  0
 47 48  1  0  0  0  0
 49 48  1  1  0  0  0
 49 61  1  0  0  0  0
 50 51  1  0  0  0  0
 51 49  1  0  0  0  0
 52 53  1  6  0  0  0
 52 50  1  0  0  0  0
 52 51  1  0  0  0  0
 54 53  1  0  0  0  0
 55 57  1  0  0  0  0
 55 54  1  0  0  0  0
 57 56  1  1  0  0  0
 58 57  1  0  0  0  0
 59 58  1  0  0  0  0
 60 59  1  0  0  0  0
 61 62  1  0  0  0  0
 62 63  1  0  0  0  0
 63 64  1  0  0  0  0
M  END
>  <MODEL>
4

>  <REMARK>
 VINA RESULT:      -3.9      4.539     10.723
  Name = 
  29 active torsions:
  status: ('A' for Active; 'I' for Inactive)
    1  A    between atoms: C_2  and  C_6
    2  A    between atoms: C_2  and  N_50
    3  A    between atoms: C_2  and  C_60
    4  A    between atoms: C_4  and  C_24
    5  A    between atoms: C_4  and  C_48
    6  A    between atoms: O_5  and  C_8
    7  A    between atoms: C_6  and  C_24
    8  A    between atoms: C_8  and  C_60
    9  A    between atoms: C_11  and  C_34
   10  A    between atoms: C_11  and  C_46
   11  A    between atoms: C_12  and  C_33
   12  A    between atoms: C_14  and  C_31
   13  A    between atoms: C_14  and  C_34
   14  A    between atoms: C_17  and  C_58
   15  A    between atoms: C_21  and  O_29
   16  A    between atoms: C_21  and  C_54
   17  A    between atoms: C_22  and  S_23
   18  A    between atoms: C_22  and  C_53
   19  A    between atoms: S_23  and  C_54
   20  A    between atoms: C_25  and  C_61
   21  A    between atoms: C_31  and  O_52
   22  A    between atoms: C_35  and  C_46
   23  A    between atoms: C_35  and  C_61
   24  A    between atoms: C_41  and  C_43
   25  A    between atoms: C_42  and  O_52
   26  A    between atoms: C_48  and  O_59
   27  A    between atoms: C_49  and  C_61
   28  A    between atoms: C_51  and  C_53
   29  A    between atoms: C_58  and  O_59
                            x       y       z     vdW  Elec       q    Type
                         _______ _______ _______ _____ _____    ______ ____

>  <TORSDO>
F 29

$$$$
=
 OpenBabel11072409183D

 64 68  0  0  1  0  0  0  0  0999 V2000
  194.3220  172.1550  142.4170 C   0  0  0  0  0  2  0  0  0  0  0  0
  195.2560  173.2940  142.8000 C   0  0  2  0  0  3  0  0  0  0  0  0
  197.3720  175.4410  140.3830 C   0  0  0  0  0  3  0  0  0  0  0  0
  194.1240  172.2580  140.9110 C   0  0  1  0  0  3  0  0  0  0  0  0
  195.0800  173.3150  140.4780 C   0  0  0  0  0  0  0  0  0  0  0  0
  197.9410  175.5880  138.1100 O   0  0  0  0  0  0  0  0  0  0  0  0
  196.7070  174.9700  141.4470 C   0  0  0  0  0  3  0  0  0  0  0  0
  195.7280  173.8590  141.5020 C   0  0  0  0  0  0  0  0  0  0  0  0
  197.3310  174.9400  138.9960 C   0  0  0  0  0  0  0  0  0  0  0  0
  196.6230  173.6910  138.5980 C   0  0  0  0  0  2  0  0  0  0  0  0
  195.1840  173.7570  139.0570 C   0  0  0  0  0  2  0  0  0  0  0  0
  191.4180  170.9490  140.7660 C   0  0  0  0  0  2  0  0  0  0  0  0
  194.0360  169.5880  138.2010 C   0  0  0  0  0  2  0  0  0  0  0  0
  192.0170  170.3570  139.5010 C   0  0  0  0  0  0  0  0  0  0  0  0
  194.4110  170.9460  140.2440 C   0  0  0  0  0  0  0  0  0  0  0  0
  193.4820  170.3740  139.3030 N   0  0  0  0  0  0  0  0  0  0  0  0
  191.2370  169.3490  138.7000 C   0  0  0  0  0  0  0  0  0  0  0  0
  191.3980  171.7410  139.4570 C   0  0  0  0  0  2  0  0  0  0  0  0
  195.5110  170.3680  140.4630 O   0  0  0  0  0  0  0  0  0  0  0  0
  190.2180  168.8540  139.1580 O   0  0  0  0  0  0  0  0  0  0  0  0
  193.0880  169.6020  137.0030 C   0  0  2  0  0  3  0  0  0  0  0  0
  191.7540  168.9080  137.3510 C   0  0  2  0  0  3  0  0  0  0  0  0
  190.6290  170.5030  135.9330 F   0  0  0  0  0  0  0  0  0  0  0  0
  190.6960  169.1590  136.2760 C   0  0  0  0  0  3  0  0  0  0  0  0
  190.9500  168.4000  135.1480 F   0  0  0  0  0  0  0  0  0  0  0  0
  193.7010  168.9870  135.9090 O   0  0  0  0  0  0  0  0  0  0  0  0
  194.0390  170.0430  135.0560 C   0  0  0  0  0  2  0  0  0  0  0  0
  193.6830  171.3690  135.6990 C   0  0  0  0  0  2  0  0  0  0  0  0
  194.0920  172.4890  134.7640 C   0  0  0  0  0  2  0  0  0  0  0  0
  193.0170  173.5630  134.7050 C   0  0  2  0  0  3  0  0  0  0  0  0
  193.5790  174.8050  135.0090 O   0  0  0  0  0  1  0  0  0  0  0  0
  191.9110  173.2640  135.7110 C   0  0  0  0  0  2  0  0  0  0  0  0
  191.4800  174.4740  136.5430 C   0  0  2  0  0  3  0  0  0  0  0  0
  192.1730  174.5460  137.7550 O   0  0  0  0  0  1  0  0  0  0  0  0
  189.9590  174.5870  136.7280 C   0  0  2  0  0  3  0  0  0  0  0  0
  189.1150  172.3720  137.0990 O   0  0  0  0  0  0  0  0  0  0  0  0
  189.2340  173.7170  138.9500 O   0  0  0  0  0  1  0  0  0  0  0  0
  189.4160  173.4920  137.5910 C   0  0  0  0  0  0  0  0  0  0  0  0
  189.1570  174.7430  135.4310 C   0  0  0  0  0  2  0  0  0  0  0  0
  189.2950  176.0260  134.8960 O   0  0  0  0  0  1  0  0  0  0  0  0
  196.9820  171.7220  143.3620 O   0  0  0  0  0  0  0  0  0  0  0  0
  196.3680  172.7770  143.6740 C   0  0  0  0  0  0  0  0  0  0  0  0
  196.6930  173.4200  144.8690 O   0  0  0  0  0  0  0  0  0  0  0  0
  196.8370  174.8330  144.9510 C   0  0  0  0  0  2  0  0  0  0  0  0
  195.5350  175.4780  145.3110 C   0  0  0  0  0  0  0  0  0  0  0  0
  195.3640  176.7910  145.1500 C   0  0  0  0  0  2  0  0  0  0  0  0
  194.4500  174.6340  145.9050 C   0  0  0  0  0  2  0  0  0  0  0  0
  193.2430  174.5460  144.9810 C   0  0  0  0  0  2  0  0  0  0  0  0
  192.2330  175.6500  145.2810 C   0  0  1  0  0  3  0  0  0  0  0  0
  191.1350  175.7180  143.0610 C   0  0  0  0  0  2  0  0  0  0  0  0
  191.9840  176.4210  144.0460 N   0  0  0  0  0  0  0  0  0  0  0  0
  190.5300  176.6730  143.9830 C   0  0  1  0  0  3  0  0  0  0  0  0
  190.2790  177.9750  143.2540 C   0  0  0  0  0  2  0  0  0  0  0  0
  188.9290  177.9220  142.5660 C   0  0  0  0  0  2  0  0  0  0  0  0
  187.6410  177.5200  143.7780 S   0  0  0  0  0  0  0  0  0  0  0  0
  186.5060  175.2820  142.9390 O   0  0  0  0  0  1  0  0  0  0  0  0
  186.6270  176.6220  142.5640 C   0  0  2  0  0  3  0  0  0  0  0  0
  187.2510  176.7130  141.1770 C   0  0  0  0  0  2  0  0  0  0  0  0
  186.3220  177.2020  140.2540 O   0  0  0  0  0  0  0  0  0  0  0  0
  187.0840  177.5630  139.1440 C   0  0  0  0  0  1  0  0  0  0  0  0
  190.9810  175.0410  145.9480 C   0  0  0  0  0  2  0  0  0  0  0  0
  190.7330  175.6460  147.3280 C   0  0  0  0  0  2  0  0  0  0  0  0
  191.8030  176.4680  147.7020 O   0  0  0  0  0  0  0  0  0  0  0  0
  191.3670  177.1120  148.8580 C   0  0  0  0  0  1  0  0  0  0  0  0
  1  2  1  0  0  0  0
  2 42  1  1  0  0  0
  3  7  2  0  0  0  0
  4 15  1  6  0  0  0
  4  1  1  0  0  0  0
  5  4  1  0  0  0  0
  5  8  2  0  0  0  0
  6  9  2  0  0  0  0
  7  8  1  0  0  0  0
  8  2  1  0  0  0  0
  9  3  1  0  0  0  0
 10  9  1  0  0  0  0
 10 11  1  0  0  0  0
 11  5  1  0  0  0  0
 13 16  1  0  0  0  0
 14 12  1  0  0  0  0
 15 19  2  0  0  0  0
 16 14  1  0  0  0  0
 16 15  1  0  0  0  0
 17 20  2  0  0  0  0
 17 14  1  0  0  0  0
 18 14  1  0  0  0  0
 18 12  1  0  0  0  0
 21 26  1  6  0  0  0
 21 22  1  0  0  0  0
 21 13  1  0  0  0  0
 22 24  1  6  0  0  0
 22 17  1  0  0  0  0
 23 24  1  0  0  0  0
 25 24  1  0  0  0  0
 27 28  1  0  0  0  0
 27 26  1  0  0  0  0
 29 28  1  0  0  0  0
 30 29  1  0  0  0  0
 30 31  1  1  0  0  0
 30 32  1  0  0  0  0
 32 33  1  0  0  0  0
 33 35  1  0  0  0  0
 33 34  1  1  0  0  0
 35 39  1  6  0  0  0
 35 38  1  0  0  0  0
 36 38  2  0  0  0  0
 38 37  1  0  0  0  0
 40 39  1  0  0  0  0
 41 42  2  0  0  0  0
 42 43  1  0  0  0  0
 43 44  1  0  0  0  0
 44 45  1  0  0  0  0
 45 47  1  0  0  0  0
 46 45  2  0  0  0  0
 48 47  1  0  0  0  0
 49 48  1  6  0  0  0
 49 61  1  0  0  0  0
 50 52  1  0  0  0  0
 50 51  1  0  0  0  0
 51 49  1  0  0  0  0
 52 53  1  6  0  0  0
 52 51  1  0  0  0  0
 54 53  1  0  0  0  0
 54 55  1  0  0  0  0
 57 56  1  1  0  0  0
 57 55  1  0  0  0  0
 58 57  1  0  0  0  0
 59 58  1  0  0  0  0
 60 59  1  0  0  0  0
 61 62  1  0  0  0  0
 62 63  1  0  0  0  0
 63 64  1  0  0  0  0
M  END
>  <MODEL>
5

>  <REMARK>
 VINA RESULT:      -3.7      4.578      8.574
  Name = 
  29 active torsions:
  status: ('A' for Active; 'I' for Inactive)
    1  A    between atoms: C_2  and  C_6
    2  A    between atoms: C_2  and  N_50
    3  A    between atoms: C_2  and  C_60
    4  A    between atoms: C_4  and  C_24
    5  A    between atoms: C_4  and  C_48
    6  A    between atoms: O_5  and  C_8
    7  A    between atoms: C_6  and  C_24
    8  A    between atoms: C_8  and  C_60
    9  A    between atoms: C_11  and  C_34
   10  A    between atoms: C_11  and  C_46
   11  A    between atoms: C_12  and  C_33
   12  A    between atoms: C_14  and  C_31
   13  A    between atoms: C_14  and  C_34
   14  A    between atoms: C_17  and  C_58
   15  A    between atoms: C_21  and  O_29
   16  A    between atoms: C_21  and  C_54
   17  A    between atoms: C_22  and  S_23
   18  A    between atoms: C_22  and  C_53
   19  A    between atoms: S_23  and  C_54
   20  A    between atoms: C_25  and  C_61
   21  A    between atoms: C_31  and  O_52
   22  A    between atoms: C_35  and  C_46
   23  A    between atoms: C_35  and  C_61
   24  A    between atoms: C_41  and  C_43
   25  A    between atoms: C_42  and  O_52
   26  A    between atoms: C_48  and  O_59
   27  A    between atoms: C_49  and  C_61
   28  A    between atoms: C_51  and  C_53
   29  A    between atoms: C_58  and  O_59
                            x       y       z     vdW  Elec       q    Type
                         _______ _______ _______ _____ _____    ______ ____

>  <TORSDO>
F 29

$$$$
=
 OpenBabel11072409183D

 64 68  0  0  1  0  0  0  0  0999 V2000
  190.9390  174.0730  145.6810 C   0  0  0  0  0  2  0  0  0  0  0  0
  192.3970  173.7540  145.3780 C   0  0  2  0  0  3  0  0  0  0  0  0
  194.6990  175.6470  142.9210 C   0  0  0  0  0  3  0  0  0  0  0  0
  190.6800  175.4580  145.1050 C   0  0  1  0  0  3  0  0  0  0  0  0
  191.9210  175.7890  144.3500 C   0  0  0  0  0  0  0  0  0  0  0  0
  194.6300  177.3740  141.3310 O   0  0  0  0  0  0  0  0  0  0  0  0
  194.2160  174.8660  143.8960 C   0  0  0  0  0  3  0  0  0  0  0  0
  192.8480  174.8450  144.4650 C   0  0  0  0  0  0  0  0  0  0  0  0
  193.9740  176.6590  142.1290 C   0  0  0  0  0  0  0  0  0  0  0  0
  192.4990  176.8590  142.2110 C   0  0  0  0  0  2  0  0  0  0  0  0
  192.1000  177.0940  143.6490 C   0  0  0  0  0  2  0  0  0  0  0  0
  188.3810  175.5550  147.0440 C   0  0  0  0  0  2  0  0  0  0  0  0
  187.5260  176.7680  143.4260 C   0  0  0  0  0  2  0  0  0  0  0  0
  187.7360  176.3180  145.8990 C   0  0  0  0  0  0  0  0  0  0  0  0
  189.4750  175.4480  144.2120 C   0  0  0  0  0  0  0  0  0  0  0  0
  188.3050  176.2220  144.5380 N   0  0  0  0  0  0  0  0  0  0  0  0
  186.3000  176.7570  146.0040 C   0  0  0  0  0  0  0  0  0  0  0  0
  188.6420  177.0520  146.8690 C   0  0  0  0  0  2  0  0  0  0  0  0
  189.5140  174.8030  143.1280 O   0  0  0  0  0  0  0  0  0  0  0  0
  185.5910  176.3370  146.9060 O   0  0  0  0  0  0  0  0  0  0  0  0
  186.7670  178.0190  143.8680 C   0  0  2  0  0  3  0  0  0  0  0  0
  185.7220  177.6730  144.9500 C   0  0  2  0  0  3  0  0  0  0  0  0
  185.6440  180.0840  144.9950 F   0  0  0  0  0  0  0  0  0  0  0  0
  185.1570  178.9350  145.6040 C   0  0  0  0  0  3  0  0  0  0  0  0
  183.7750  178.9330  145.5650 F   0  0  0  0  0  0  0  0  0  0  0  0
  186.1610  178.6180  142.7610 O   0  0  0  0  0  0  0  0  0  0  0  0
  184.7890  178.5270  143.0190 C   0  0  0  0  0  2  0  0  0  0  0  0
  183.9990  178.8520  141.7670 C   0  0  0  0  0  2  0  0  0  0  0  0
  182.6800  178.1070  141.8160 C   0  0  0  0  0  2  0  0  0  0  0  0
  181.5170  179.0760  141.9610 C   0  0  2  0  0  3  0  0  0  0  0  0
  181.3430  179.4030  143.3070 O   0  0  0  0  0  1  0  0  0  0  0  0
  180.2310  178.4440  141.4380 C   0  0  0  0  0  2  0  0  0  0  0  0
  178.9760  179.2830  141.6900 C   0  0  2  0  0  3  0  0  0  0  0  0
  178.0650  178.6200  142.5170 O   0  0  0  0  0  1  0  0  0  0  0  0
  178.3240  179.8200  140.4080 C   0  0  2  0  0  3  0  0  0  0  0  0
  178.0160  177.5250  139.7810 O   0  0  0  0  0  1  0  0  0  0  0  0
  177.8370  179.0550  138.0850 O   0  0  0  0  0  0  0  0  0  0  0  0
  178.0490  178.7310  139.4190 C   0  0  0  0  0  0  0  0  0  0  0  0
  179.0430  181.0100  139.7630 C   0  0  0  0  0  2  0  0  0  0  0  0
  179.0740  182.1150  140.6170 O   0  0  0  0  0  1  0  0  0  0  0  0
  193.4730  171.6270  145.0860 O   0  0  0  0  0  0  0  0  0  0  0  0
  192.5090  172.3780  144.7770 C   0  0  0  0  0  0  0  0  0  0  0  0
  191.5870  171.9370  143.8260 O   0  0  0  0  0  0  0  0  0  0  0  0
  191.6500  172.3530  142.4670 C   0  0  0  0  0  2  0  0  0  0  0  0
  191.4850  171.1830  141.5470 C   0  0  0  0  0  0  0  0  0  0  0  0
  190.3400  170.4970  141.5250 C   0  0  0  0  0  2  0  0  0  0  0  0
  192.6420  170.7640  140.6960 C   0  0  0  0  0  2  0  0  0  0  0  0
  193.8860  171.5880  141.0010 C   0  0  0  0  0  2  0  0  0  0  0  0
  194.7110  171.8350  139.7410 C   0  0  1  0  0  3  0  0  0  0  0  0
  194.4670  174.2330  139.1680 C   0  0  0  0  0  2  0  0  0  0  0  0
  194.0260  172.8460  138.9090 N   0  0  0  0  0  0  0  0  0  0  0  0
  195.0600  173.4800  138.0680 C   0  0  1  0  0  3  0  0  0  0  0  0
  194.4370  173.9340  136.7650 C   0  0  0  0  0  2  0  0  0  0  0  0
  192.9430  174.1060  136.9490 C   0  0  0  0  0  2  0  0  0  0  0  0
  192.2320  174.8920  135.4770 S   0  0  0  0  0  0  0  0  0  0  0  0
  189.8430  174.2550  134.5360 O   0  0  0  0  0  1  0  0  0  0  0  0
  190.7880  173.7870  135.4500 C   0  0  2  0  0  3  0  0  0  0  0  0
  190.1620  173.6950  136.8360 C   0  0  0  0  0  2  0  0  0  0  0  0
  188.8030  174.0230  136.7820 O   0  0  0  0  0  0  0  0  0  0  0  0
  188.2300  173.3280  137.8460 C   0  0  0  0  0  1  0  0  0  0  0  0
  196.1670  172.1700  140.1300 C   0  0  0  0  0  2  0  0  0  0  0  0
  196.2690  172.6030  141.5910 C   0  0  0  0  0  2  0  0  0  0  0  0
  197.4400  172.0990  142.1700 O   0  0  0  0  0  0  0  0  0  0  0  0
  197.1230  170.7910  142.5300 C   0  0  0  0  0  1  0  0  0  0  0  0
  2 42  1  6  0  0  0
  2  1  1  0  0  0  0
  3  7  2  0  0  0  0
  4 15  1  6  0  0  0
  4  1  1  0  0  0  0
  5  8  2  0  0  0  0
  5  4  1  0  0  0  0
  6  9  2  0  0  0  0
  7  8  1  0  0  0  0
  8  2  1  0  0  0  0
  9 10  1  0  0  0  0
  9  3  1  0  0  0  0
 10 11  1  0  0  0  0
 11  5  1  0  0  0  0
 13 21  1  0  0  0  0
 13 16  1  0  0  0  0
 14 17  1  0  0  0  0
 14 18  1  0  0  0  0
 14 12  1  0  0  0  0
 15 16  1  0  0  0  0
 16 14  1  0  0  0  0
 17 20  2  0  0  0  0
 18 12  1  0  0  0  0
 19 15  2  0  0  0  0
 21 26  1  6  0  0  0
 21 22  1  0  0  0  0
 22 24  1  1  0  0  0
 22 17  1  0  0  0  0
 23 24  1  0  0  0  0
 25 24  1  0  0  0  0
 26 27  1  0  0  0  0
 28 29  1  0  0  0  0
 28 27  1  0  0  0  0
 29 30  1  0  0  0  0
 30 31  1  1  0  0  0
 32 33  1  0  0  0  0
 32 30  1  0  0  0  0
 33 34  1  6  0  0  0
 35 39  1  6  0  0  0
 35 33  1  0  0  0  0
 37 38  2  0  0  0  0
 38 36  1  0  0  0  0
 38 35  1  0  0  0  0
 39 40  1  0  0  0  0
 42 41  2  0  0  0  0
 43 42  1  0  0  0  0
 44 43  1  0  0  0  0
 45 44  1  0  0  0  0
 46 45  2  0  0  0  0
 47 48  1  0  0  0  0
 47 45  1  0  0  0  0
 49 61  1  1  0  0  0
 49 48  1  0  0  0  0
 51 50  1  0  0  0  0
 51 49  1  0  0  0  0
 52 53  1  6  0  0  0
 52 51  1  0  0  0  0
 52 50  1  0  0  0  0
 53 54  1  0  0  0  0
 55 54  1  0  0  0  0
 57 56  1  6  0  0  0
 57 55  1  0  0  0  0
 57 58  1  0  0  0  0
 59 58  1  0  0  0  0
 59 60  1  0  0  0  0
 61 62  1  0  0  0  0
 62 63  1  0  0  0  0
 63 64  1  0  0  0  0
M  END
>  <MODEL>
6

>  <REMARK>
 VINA RESULT:      -3.6      3.904     11.091
  Name = 
  29 active torsions:
  status: ('A' for Active; 'I' for Inactive)
    1  A    between atoms: C_2  and  C_6
    2  A    between atoms: C_2  and  N_50
    3  A    between atoms: C_2  and  C_60
    4  A    between atoms: C_4  and  C_24
    5  A    between atoms: C_4  and  C_48
    6  A    between atoms: O_5  and  C_8
    7  A    between atoms: C_6  and  C_24
    8  A    between atoms: C_8  and  C_60
    9  A    between atoms: C_11  and  C_34
   10  A    between atoms: C_11  and  C_46
   11  A    between atoms: C_12  and  C_33
   12  A    between atoms: C_14  and  C_31
   13  A    between atoms: C_14  and  C_34
   14  A    between atoms: C_17  and  C_58
   15  A    between atoms: C_21  and  O_29
   16  A    between atoms: C_21  and  C_54
   17  A    between atoms: C_22  and  S_23
   18  A    between atoms: C_22  and  C_53
   19  A    between atoms: S_23  and  C_54
   20  A    between atoms: C_25  and  C_61
   21  A    between atoms: C_31  and  O_52
   22  A    between atoms: C_35  and  C_46
   23  A    between atoms: C_35  and  C_61
   24  A    between atoms: C_41  and  C_43
   25  A    between atoms: C_42  and  O_52
   26  A    between atoms: C_48  and  O_59
   27  A    between atoms: C_49  and  C_61
   28  A    between atoms: C_51  and  C_53
   29  A    between atoms: C_58  and  O_59
                            x       y       z     vdW  Elec       q    Type
                         _______ _______ _______ _____ _____    ______ ____

>  <TORSDO>
F 29

$$$$
=
 OpenBabel11072409183D

 64 68  0  0  1  0  0  0  0  0999 V2000
  190.3470  176.8440  142.6840 C   0  0  0  0  0  2  0  0  0  0  0  0
  189.0160  177.5710  142.8240 C   0  0  2  0  0  3  0  0  0  0  0  0
  186.6950  177.5360  145.9120 C   0  0  0  0  0  3  0  0  0  0  0  0
  190.7370  176.4000  144.0870 C   0  0  1  0  0  3  0  0  0  0  0  0
  189.5490  176.7220  144.9270 C   0  0  0  0  0  0  0  0  0  0  0  0
  186.4880  176.5170  148.0170 O   0  0  0  0  0  0  0  0  0  0  0  0
  187.3020  177.8380  144.7570 C   0  0  0  0  0  3  0  0  0  0  0  0
  188.5910  177.3280  144.2340 C   0  0  0  0  0  0  0  0  0  0  0  0
  187.1380  176.5790  146.9440 C   0  0  0  0  0  0  0  0  0  0  0  0
  188.3020  175.6660  146.7670 C   0  0  0  0  0  2  0  0  0  0  0  0
  189.5260  176.4730  146.3970 C   0  0  0  0  0  2  0  0  0  0  0  0
  193.1220  176.1730  142.2660 C   0  0  0  0  0  2  0  0  0  0  0  0
  192.7200  173.2350  144.8140 C   0  0  0  0  0  2  0  0  0  0  0  0
  193.4650  175.0420  143.2210 C   0  0  0  0  0  0  0  0  0  0  0  0
  191.0530  174.9340  144.1140 C   0  0  0  0  0  0  0  0  0  0  0  0
  192.4160  174.4700  144.0910 N   0  0  0  0  0  0  0  0  0  0  0  0
  194.6760  174.1850  142.9660 C   0  0  0  0  0  0  0  0  0  0  0  0
  193.8280  176.4680  143.5910 C   0  0  0  0  0  2  0  0  0  0  0  0
  190.1110  174.1000  144.2220 O   0  0  0  0  0  0  0  0  0  0  0  0
  195.2690  174.2570  141.9000 O   0  0  0  0  0  0  0  0  0  0  0  0
  194.1860  173.2120  145.2440 C   0  0  2  0  0  3  0  0  0  0  0  0
  195.1180  173.1890  144.0130 C   0  0  2  0  0  3  0  0  0  0  0  0
  197.4460  173.1040  143.3860 F   0  0  0  0  0  0  0  0  0  0  0  0
  196.5720  173.4520  144.4070 C   0  0  0  0  0  3  0  0  0  0  0  0
  196.7570  174.7790  144.7500 F   0  0  0  0  0  0  0  0  0  0  0  0
  194.4200  172.1100  146.0690 O   0  0  0  0  0  0  0  0  0  0  0  0
  194.8170  171.0930  145.1930 C   0  0  0  0  0  2  0  0  0  0  0  0
  194.3650  169.7450  145.7180 C   0  0  0  0  0  2  0  0  0  0  0  0
  194.7980  168.6710  144.7400 C   0  0  0  0  0  2  0  0  0  0  0  0
  194.8610  169.2250  143.3240 C   0  0  2  0  0  3  0  0  0  0  0  0
  193.6000  169.1430  142.7320 O   0  0  0  0  0  1  0  0  0  0  0  0
  195.8510  168.4240  142.4850 C   0  0  0  0  0  2  0  0  0  0  0  0
  197.2830  168.9640  142.5240 C   0  0  2  0  0  3  0  0  0  0  0  0
  197.4620  169.8880  143.5580 O   0  0  0  0  0  1  0  0  0  0  0  0
  197.7810  169.4930  141.1710 C   0  0  2  0  0  3  0  0  0  0  0  0
  197.9170  171.7800  140.4590 O   0  0  0  0  0  0  0  0  0  0  0  0
  195.8150  171.0100  140.9490 O   0  0  0  0  0  1  0  0  0  0  0  0
  197.1870  170.8250  140.8350 C   0  0  0  0  0  0  0  0  0  0  0  0
  197.6660  168.5040  140.0060 C   0  0  0  0  0  2  0  0  0  0  0  0
  197.6140  169.1650  138.7770 O   0  0  0  0  0  1  0  0  0  0  0  0
  186.8880  177.5670  141.7110 O   0  0  0  0  0  0  0  0  0  0  0  0
  188.0380  177.0580  141.8010 C   0  0  0  0  0  0  0  0  0  0  0  0
  188.3640  175.9760  140.9820 O   0  0  0  0  0  0  0  0  0  0  0  0
  187.4230  175.4010  140.0840 C   0  0  0  0  0  2  0  0  0  0  0  0
  188.0970  174.4410  139.1530 C   0  0  0  0  0  0  0  0  0  0  0  0
  187.8170  174.4550  137.8480 C   0  0  0  0  0  2  0  0  0  0  0  0
  189.0470  173.4330  139.7200 C   0  0  0  0  0  2  0  0  0  0  0  0
  189.0280  172.1380  138.9180 C   0  0  0  0  0  2  0  0  0  0  0  0
  190.3250  171.3540  139.1000 C   0  0  1  0  0  3  0  0  0  0  0  0
  189.9180  170.7570  136.7300 C   0  0  0  0  0  2  0  0  0  0  0  0
  190.9130  171.0860  137.7710 N   0  0  0  0  0  0  0  0  0  0  0  0
  190.4020  172.1270  136.8580 C   0  0  1  0  0  3  0  0  0  0  0  0
  191.4280  172.3920  135.7770 C   0  0  0  0  0  2  0  0  0  0  0  0
  192.8200  172.1430  136.3230 C   0  0  0  0  0  2  0  0  0  0  0  0
  194.0540  172.8590  135.2030 S   0  0  0  0  0  0  0  0  0  0  0  0
  194.0050  175.1010  136.6060 O   0  0  0  0  0  1  0  0  0  0  0  0
  194.7590  173.9320  136.4920 C   0  0  2  0  0  3  0  0  0  0  0  0
  196.2040  174.2820  136.1620 C   0  0  0  0  0  2  0  0  0  0  0  0
  197.0770  173.6470  137.0520 O   0  0  0  0  0  0  0  0  0  0  0  0
  196.6740  174.0840  138.3130 C   0  0  0  0  0  1  0  0  0  0  0  0
  191.2440  172.0930  140.0960 C   0  0  0  0  0  2  0  0  0  0  0  0
  192.7130  171.7400  139.8690 C   0  0  0  0  0  2  0  0  0  0  0  0
  192.8600  170.3630  139.6630 O   0  0  0  0  0  0  0  0  0  0  0  0
  193.9950  170.2450  138.8630 C   0  0  0  0  0  1  0  0  0  0  0  0
  1  2  1  0  0  0  0
  1  4  1  0  0  0  0
  2 42  1  6  0  0  0
  2  8  1  0  0  0  0
  3  9  1  0  0  0  0
  4 15  1  6  0  0  0
  4  5  1  0  0  0  0
  5 11  1  0  0  0  0
  7  3  2  0  0  0  0
  8  7  1  0  0  0  0
  8  5  2  0  0  0  0
  9  6  2  0  0  0  0
 10  9  1  0  0  0  0
 11 10  1  0  0  0  0
 12 14  1  0  0  0  0
 12 18  1  0  0  0  0
 13 21  1  0  0  0  0
 14 18  1  0  0  0  0
 14 16  1  0  0  0  0
 15 19  2  0  0  0  0
 16 15  1  0  0  0  0
 16 13  1  0  0  0  0
 17 14  1  0  0  0  0
 17 22  1  0  0  0  0
 20 17  2  0  0  0  0
 21 26  1  1  0  0  0
 22 24  1  1  0  0  0
 22 21  1  0  0  0  0
 23 24  1  0  0  0  0
 24 25  1  0  0  0  0
 27 28  1  0  0  0  0
 27 26  1  0  0  0  0
 29 28  1  0  0  0  0
 30 31  1  6  0  0  0
 30 29  1  0  0  0  0
 32 33  1  0  0  0  0
 32 30  1  0  0  0  0
 33 34  1  1  0  0  0
 35 39  1  6  0  0  0
 35 33  1  0  0  0  0
 36 38  2  0  0  0  0
 38 37  1  0  0  0  0
 38 35  1  0  0  0  0
 40 39  1  0  0  0  0
 41 42  2  0  0  0  0
 43 42  1  0  0  0  0
 44 43  1  0  0  0  0
 45 47  1  0  0  0  0
 45 44  1  0  0  0  0
 46 45  2  0  0  0  0
 48 47  1  0  0  0  0
 49 48  1  6  0  0  0
 49 61  1  0  0  0  0
 50 52  1  0  0  0  0
 50 51  1  0  0  0  0
 51 49  1  0  0  0  0
 52 53  1  6  0  0  0
 52 51  1  0  0  0  0
 53 54  1  0  0  0  0
 55 54  1  0  0  0  0
 55 57  1  0  0  0  0
 57 56  1  6  0  0  0
 58 57  1  0  0  0  0
 58 59  1  0  0  0  0
 59 60  1  0  0  0  0
 62 61  1  0  0  0  0
 63 62  1  0  0  0  0
 64 63  1  0  0  0  0
M  END
>  <MODEL>
7

>  <REMARK>
 VINA RESULT:      -3.6      4.614      8.463
  Name = 
  29 active torsions:
  status: ('A' for Active; 'I' for Inactive)
    1  A    between atoms: C_2  and  C_6
    2  A    between atoms: C_2  and  N_50
    3  A    between atoms: C_2  and  C_60
    4  A    between atoms: C_4  and  C_24
    5  A    between atoms: C_4  and  C_48
    6  A    between atoms: O_5  and  C_8
    7  A    between atoms: C_6  and  C_24
    8  A    between atoms: C_8  and  C_60
    9  A    between atoms: C_11  and  C_34
   10  A    between atoms: C_11  and  C_46
   11  A    between atoms: C_12  and  C_33
   12  A    between atoms: C_14  and  C_31
   13  A    between atoms: C_14  and  C_34
   14  A    between atoms: C_17  and  C_58
   15  A    between atoms: C_21  and  O_29
   16  A    between atoms: C_21  and  C_54
   17  A    between atoms: C_22  and  S_23
   18  A    between atoms: C_22  and  C_53
   19  A    between atoms: S_23  and  C_54
   20  A    between atoms: C_25  and  C_61
   21  A    between atoms: C_31  and  O_52
   22  A    between atoms: C_35  and  C_46
   23  A    between atoms: C_35  and  C_61
   24  A    between atoms: C_41  and  C_43
   25  A    between atoms: C_42  and  O_52
   26  A    between atoms: C_48  and  O_59
   27  A    between atoms: C_49  and  C_61
   28  A    between atoms: C_51  and  C_53
   29  A    between atoms: C_58  and  O_59
                            x       y       z     vdW  Elec       q    Type
                         _______ _______ _______ _____ _____    ______ ____

>  <TORSDO>
F 29

$$$$
=
 OpenBabel11072409183D

 64 68  0  0  1  0  0  0  0  0999 V2000
  188.5270  178.0050  141.5540 C   0  0  0  0  0  2  0  0  0  0  0  0
  187.0740  178.4610  141.5850 C   0  0  2  0  0  3  0  0  0  0  0  0
  184.6340  178.1530  144.5640 C   0  0  0  0  0  3  0  0  0  0  0  0
  188.9160  177.7330  143.0010 C   0  0  1  0  0  3  0  0  0  0  0  0
  187.6430  177.8630  143.7640 C   0  0  0  0  0  0  0  0  0  0  0  0
  184.5120  177.2430  146.7250 O   0  0  0  0  0  0  0  0  0  0  0  0
  185.2340  178.4990  143.4180 C   0  0  0  0  0  3  0  0  0  0  0  0
  186.6260  178.2240  142.9890 C   0  0  0  0  0  0  0  0  0  0  0  0
  185.1960  177.3680  145.6790 C   0  0  0  0  0  0  0  0  0  0  0  0
  186.5250  176.6950  145.6180 C   0  0  0  0  0  2  0  0  0  0  0  0
  187.5860  177.7040  145.2460 C   0  0  0  0  0  2  0  0  0  0  0  0
  191.8570  178.2040  142.5690 C   0  0  0  0  0  2  0  0  0  0  0  0
  190.9920  174.9350  144.5300 C   0  0  0  0  0  2  0  0  0  0  0  0
  191.9610  177.0430  143.5440 C   0  0  0  0  0  0  0  0  0  0  0  0
  189.5100  176.3630  143.1450 C   0  0  0  0  0  0  0  0  0  0  0  0
  190.7890  176.1730  143.7790 N   0  0  0  0  0  0  0  0  0  0  0  0
  193.3090  176.4740  143.8920 C   0  0  0  0  0  0  0  0  0  0  0  0
  191.7680  178.4510  144.0760 C   0  0  0  0  0  2  0  0  0  0  0  0
  188.8480  175.3590  142.7620 O   0  0  0  0  0  0  0  0  0  0  0  0
  194.2990  176.7970  143.2520 O   0  0  0  0  0  0  0  0  0  0  0  0
  192.0460  175.1350  145.6190 C   0  0  2  0  0  3  0  0  0  0  0  0
  193.4230  175.4510  144.9980 C   0  0  2  0  0  3  0  0  0  0  0  0
  195.5170  176.5480  145.4780 F   0  0  0  0  0  0  0  0  0  0  0  0
  194.4160  175.9320  146.0570 C   0  0  0  0  0  3  0  0  0  0  0  0
  193.8080  176.7990  146.9470 F   0  0  0  0  0  0  0  0  0  0  0  0
  192.1110  173.9980  146.4280 O   0  0  0  0  0  0  0  0  0  0  0  0
  193.1990  173.2740  145.9300 C   0  0  0  0  0  2  0  0  0  0  0  0
  192.7180  172.1900  144.9850 C   0  0  0  0  0  2  0  0  0  0  0  0
  193.9140  171.6220  144.2470 C   0  0  0  0  0  2  0  0  0  0  0  0
  194.3730  170.3190  144.8850 C   0  0  2  0  0  3  0  0  0  0  0  0
  195.4560  170.5670  145.7290 O   0  0  0  0  0  1  0  0  0  0  0  0
  194.8020  169.3250  143.8110 C   0  0  0  0  0  2  0  0  0  0  0  0
  195.9640  169.8100  142.9410 C   0  0  2  0  0  3  0  0  0  0  0  0
  195.9800  171.2030  142.8240 O   0  0  0  0  0  1  0  0  0  0  0  0
  196.0520  169.1050  141.5790 C   0  0  2  0  0  3  0  0  0  0  0  0
  197.9320  169.1610  140.0900 O   0  0  0  0  0  0  0  0  0  0  0  0
  196.8520  171.1570  140.4090 O   0  0  0  0  0  1  0  0  0  0  0  0
  196.9990  169.7970  140.6490 C   0  0  0  0  0  0  0  0  0  0  0  0
  194.7030  168.8150  140.9100 C   0  0  0  0  0  2  0  0  0  0  0  0
  194.6730  169.2820  139.5950 O   0  0  0  0  0  1  0  0  0  0  0  0
  185.0730  178.0120  140.3370 O   0  0  0  0  0  0  0  0  0  0  0  0
  186.2740  177.7030  140.5600 C   0  0  0  0  0  0  0  0  0  0  0  0
  186.8270  176.6120  139.8880 O   0  0  0  0  0  0  0  0  0  0  0  0
  186.3490  176.1890  138.6160 C   0  0  0  0  0  2  0  0  0  0  0  0
  187.4340  175.5060  137.8430 C   0  0  0  0  0  0  0  0  0  0  0  0
  187.5710  175.7250  136.5340 C   0  0  0  0  0  2  0  0  0  0  0  0
  188.3230  174.5330  138.5510 C   0  0  0  0  0  2  0  0  0  0  0  0
  188.1780  173.1280  137.9820 C   0  0  0  0  0  2  0  0  0  0  0  0
  189.2790  172.2050  138.4960 C   0  0  1  0  0  3  0  0  0  0  0  0
  189.5720  171.8610  136.0600 C   0  0  0  0  0  2  0  0  0  0  0  0
  190.2140  171.9100  137.3900 N   0  0  0  0  0  0  0  0  0  0  0  0
  190.2160  173.0920  136.5050 C   0  0  1  0  0  3  0  0  0  0  0  0
  191.5680  173.2120  135.8350 C   0  0  0  0  0  2  0  0  0  0  0  0
  192.6570  173.2510  136.8880 C   0  0  0  0  0  2  0  0  0  0  0  0
  194.2330  173.7200  136.1230 S   0  0  0  0  0  0  0  0  0  0  0  0
  194.4550  172.5790  138.4990 O   0  0  0  0  0  1  0  0  0  0  0  0
  195.1890  173.3920  137.6350 C   0  0  2  0  0  3  0  0  0  0  0  0
  195.5430  174.6980  138.3350 C   0  0  0  0  0  2  0  0  0  0  0  0
  195.5470  174.5250  139.7230 O   0  0  0  0  0  0  0  0  0  0  0  0
  196.3590  175.5510  140.2040 C   0  0  0  0  0  1  0  0  0  0  0  0
  189.9200  172.8120  139.7620 C   0  0  0  0  0  2  0  0  0  0  0  0
  190.0650  171.7710  140.8700 C   0  0  0  0  0  2  0  0  0  0  0  0
  190.5010  172.3750  142.0550 O   0  0  0  0  0  0  0  0  0  0  0  0
  189.5400  172.0290  143.0030 C   0  0  0  0  0  1  0  0  0  0  0  0
  1  2  1  0  0  0  0
  1  4  1  0  0  0  0
  2 42  1  6  0  0  0
  2  8  1  0  0  0  0
  3  9  1  0  0  0  0
  4 15  1  6  0  0  0
  4  5  1  0  0  0  0
  5 11  1  0  0  0  0
  7  3  2  0  0  0  0
  8  7  1  0  0  0  0
  8  5  2  0  0  0  0
  9  6  2  0  0  0  0
 10  9  1  0  0  0  0
 11 10  1  0  0  0  0
 12 14  1  0  0  0  0
 12 18  1  0  0  0  0
 13 21  1  0  0  0  0
 14 16  1  0  0  0  0
 14 17  1  0  0  0  0
 14 18  1  0  0  0  0
 15 16  1  0  0  0  0
 16 13  1  0  0  0  0
 17 22  1  0  0  0  0
 19 15  2  0  0  0  0
 20 17  2  0  0  0  0
 21 26  1  6  0  0  0
 22 21  1  0  0  0  0
 22 24  1  1  0  0  0
 23 24  1  0  0  0  0
 24 25  1  0  0  0  0
 27 26  1  0  0  0  0
 28 27  1  0  0  0  0
 29 30  1  0  0  0  0
 29 28  1  0  0  0  0
 30 31  1  1  0  0  0
 32 30  1  0  0  0  0
 33 34  1  6  0  0  0
 33 32  1  0  0  0  0
 35 39  1  6  0  0  0
 35 33  1  0  0  0  0
 36 38  2  0  0  0  0
 37 38  1  0  0  0  0
 38 35  1  0  0  0  0
 40 39  1  0  0  0  0
 41 42  2  0  0  0  0
 43 42  1  0  0  0  0
 44 43  1  0  0  0  0
 45 47  1  0  0  0  0
 45 44  1  0  0  0  0
 46 45  2  0  0  0  0
 48 47  1  0  0  0  0
 49 48  1  6  0  0  0
 49 61  1  0  0  0  0
 50 52  1  0  0  0  0
 50 51  1  0  0  0  0
 51 49  1  0  0  0  0
 52 53  1  6  0  0  0
 52 51  1  0  0  0  0
 53 54  1  0  0  0  0
 55 54  1  0  0  0  0
 55 57  1  0  0  0  0
 57 58  1  0  0  0  0
 57 56  1  1  0  0  0
 58 59  1  0  0  0  0
 59 60  1  0  0  0  0
 61 62  1  0  0  0  0
 62 63  1  0  0  0  0
 63 64  1  0  0  0  0
M  END
>  <MODEL>
8

>  <REMARK>
 VINA RESULT:      -3.4      4.048      8.197
  Name = 
  29 active torsions:
  status: ('A' for Active; 'I' for Inactive)
    1  A    between atoms: C_2  and  C_6
    2  A    between atoms: C_2  and  N_50
    3  A    between atoms: C_2  and  C_60
    4  A    between atoms: C_4  and  C_24
    5  A    between atoms: C_4  and  C_48
    6  A    between atoms: O_5  and  C_8
    7  A    between atoms: C_6  and  C_24
    8  A    between atoms: C_8  and  C_60
    9  A    between atoms: C_11  and  C_34
   10  A    between atoms: C_11  and  C_46
   11  A    between atoms: C_12  and  C_33
   12  A    between atoms: C_14  and  C_31
   13  A    between atoms: C_14  and  C_34
   14  A    between atoms: C_17  and  C_58
   15  A    between atoms: C_21  and  O_29
   16  A    between atoms: C_21  and  C_54
   17  A    between atoms: C_22  and  S_23
   18  A    between atoms: C_22  and  C_53
   19  A    between atoms: S_23  and  C_54
   20  A    between atoms: C_25  and  C_61
   21  A    between atoms: C_31  and  O_52
   22  A    between atoms: C_35  and  C_46
   23  A    between atoms: C_35  and  C_61
   24  A    between atoms: C_41  and  C_43
   25  A    between atoms: C_42  and  O_52
   26  A    between atoms: C_48  and  O_59
   27  A    between atoms: C_49  and  C_61
   28  A    between atoms: C_51  and  C_53
   29  A    between atoms: C_58  and  O_59
                            x       y       z     vdW  Elec       q    Type
                         _______ _______ _______ _____ _____    ______ ____

>  <TORSDO>
F 29

$$$$
=
 OpenBabel11072409183D

 64 68  0  0  1  0  0  0  0  0999 V2000
  192.1890  171.9020  140.1530 C   0  0  0  0  0  2  0  0  0  0  0  0
  191.3490  171.7790  138.8890 C   0  0  2  0  0  3  0  0  0  0  0  0
  188.2430  173.8900  137.9830 C   0  0  0  0  0  3  0  0  0  0  0  0
  191.7850  173.2170  140.8040 C   0  0  1  0  0  3  0  0  0  0  0  0
  190.6230  173.6920  140.0020 C   0  0  0  0  0  0  0  0  0  0  0  0
  186.8360  175.5350  138.8940 O   0  0  0  0  0  0  0  0  0  0  0  0
  189.3120  173.0840  137.9440 C   0  0  0  0  0  3  0  0  0  0  0  0
  190.3570  172.8910  138.9770 C   0  0  0  0  0  0  0  0  0  0  0  0
  187.8080  174.7630  139.0900 C   0  0  0  0  0  0  0  0  0  0  0  0
  188.4480  174.7580  140.4360 C   0  0  0  0  0  2  0  0  0  0  0  0
  189.9350  174.9840  140.2900 C   0  0  0  0  0  2  0  0  0  0  0  0
  194.4370  173.3240  142.2220 C   0  0  0  0  0  2  0  0  0  0  0  0
  191.3380  174.0640  144.4870 C   0  0  0  0  0  2  0  0  0  0  0  0
  193.5720  173.9020  143.3300 C   0  0  0  0  0  0  0  0  0  0  0  0
  191.4160  173.0080  142.2430 C   0  0  0  0  0  0  0  0  0  0  0  0
  192.1070  173.7090  143.2940 N   0  0  0  0  0  0  0  0  0  0  0  0
  194.1810  174.2260  144.6670 C   0  0  0  0  0  0  0  0  0  0  0  0
  194.0760  174.8110  142.2240 C   0  0  0  0  0  2  0  0  0  0  0  0
  190.4440  172.2550  142.5300 O   0  0  0  0  0  0  0  0  0  0  0  0
  195.3110  173.8460  144.9380 O   0  0  0  0  0  0  0  0  0  0  0  0
  191.9470  175.2860  145.1740 C   0  0  2  0  0  3  0  0  0  0  0  0
  193.3650  174.9710  145.6970 C   0  0  2  0  0  3  0  0  0  0  0  0
  193.2130  177.2940  146.3300 F   0  0  0  0  0  0  0  0  0  0  0  0
  194.0970  176.2420  146.1280 C   0  0  0  0  0  3  0  0  0  0  0  0
  194.8320  176.0220  147.2790 F   0  0  0  0  0  0  0  0  0  0  0  0
  191.1140  175.7080  146.2120 O   0  0  0  0  0  0  0  0  0  0  0  0
  190.2890  174.6080  146.4710 C   0  0  0  0  0  2  0  0  0  0  0  0
  189.0630  175.0450  147.2490 C   0  0  0  0  0  2  0  0  0  0  0  0
  188.0480  175.6140  146.2790 C   0  0  0  0  0  2  0  0  0  0  0  0
  187.4870  176.9310  146.7940 C   0  0  2  0  0  3  0  0  0  0  0  0
  186.1060  176.8160  146.9680 O   0  0  0  0  0  1  0  0  0  0  0  0
  187.7670  178.0530  145.8010 C   0  0  0  0  0  2  0  0  0  0  0  0
  187.9770  177.5750  144.3620 C   0  0  2  0  0  3  0  0  0  0  0  0
  189.1870  178.0330  143.8330 O   0  0  0  0  0  1  0  0  0  0  0  0
  186.7850  177.8580  143.4360 C   0  0  2  0  0  3  0  0  0  0  0  0
  185.8870  180.0620  143.7440 O   0  0  0  0  0  0  0  0  0  0  0  0
  184.8670  178.3920  144.9370 O   0  0  0  0  0  1  0  0  0  0  0  0
  185.8270  178.8380  144.0380 C   0  0  0  0  0  0  0  0  0  0  0  0
  186.0700  176.6130  142.8990 C   0  0  0  0  0  2  0  0  0  0  0  0
  186.5790  175.4450  143.4680 O   0  0  0  0  0  1  0  0  0  0  0  0
  189.6500  170.2380  138.1760 O   0  0  0  0  0  0  0  0  0  0  0  0
  190.7210  170.4130  138.8180 C   0  0  0  0  0  0  0  0  0  0  0  0
  191.2770  169.3360  139.5100 O   0  0  0  0  0  0  0  0  0  0  0  0
  190.9890  169.0920  140.8820 C   0  0  0  0  0  2  0  0  0  0  0  0
  192.2370  168.7420  141.6310 C   0  0  0  0  0  0  0  0  0  0  0  0
  192.1660  168.1810  142.8390 C   0  0  0  0  0  2  0  0  0  0  0  0
  193.5630  169.0840  141.0250 C   0  0  0  0  0  2  0  0  0  0  0  0
  194.6640  168.1680  141.5420 C   0  0  0  0  0  2  0  0  0  0  0  0
  195.7840  168.9660  142.2040 C   0  0  1  0  0  3  0  0  0  0  0  0
  197.2380  170.7550  141.2980 C   0  0  0  0  0  2  0  0  0  0  0  0
  195.8600  170.3010  141.5760 N   0  0  0  0  0  0  0  0  0  0  0  0
  196.4640  170.1130  140.2420 C   0  0  1  0  0  3  0  0  0  0  0  0
  195.9360  171.1740  139.3000 C   0  0  0  0  0  2  0  0  0  0  0  0
  196.6160  171.0420  137.9520 C   0  0  0  0  0  2  0  0  0  0  0  0
  195.8250  172.1520  136.7560 S   0  0  0  0  0  0  0  0  0  0  0  0
  194.1630  171.3050  134.8790 O   0  0  0  0  0  1  0  0  0  0  0  0
  194.9500  170.7970  135.9140 C   0  0  2  0  0  3  0  0  0  0  0  0
  194.0740  170.0350  136.9000 C   0  0  0  0  0  2  0  0  0  0  0  0
  193.6790  168.8080  136.3570 O   0  0  0  0  0  0  0  0  0  0  0  0
  192.4770  169.0810  135.7060 C   0  0  0  0  0  1  0  0  0  0  0  0
  195.5890  168.9620  143.7360 C   0  0  0  0  0  2  0  0  0  0  0  0
  196.8610  169.3920  144.4630 C   0  0  0  0  0  2  0  0  0  0  0  0
  196.7280  170.6970  144.9540 O   0  0  0  0  0  0  0  0  0  0  0  0
  197.0580  170.6020  146.3040 C   0  0  0  0  0  1  0  0  0  0  0  0
  1  4  1  0  0  0  0
  2 42  1  1  0  0  0
  2  8  1  0  0  0  0
  2  1  1  0  0  0  0
  3  9  1  0  0  0  0
  4 15  1  1  0  0  0
  5 11  1  0  0  0  0
  5  4  1  0  0  0  0
  6  9  2  0  0  0  0
  7  3  2  0  0  0  0
  7  8  1  0  0  0  0
  8  5  2  0  0  0  0
  9 10  1  0  0  0  0
 11 10  1  0  0  0  0
 12 18  1  0  0  0  0
 12 14  1  0  0  0  0
 13 21  1  0  0  0  0
 14 17  1  0  0  0  0
 15 19  2  0  0  0  0
 15 16  1  0  0  0  0
 16 14  1  0  0  0  0
 16 13  1  0  0  0  0
 17 20  2  0  0  0  0
 17 22  1  0  0  0  0
 18 14  1  0  0  0  0
 21 22  1  0  0  0  0
 21 26  1  1  0  0  0
 22 24  1  6  0  0  0
 24 23  1  0  0  0  0
 24 25  1  0  0  0  0
 26 27  1  0  0  0  0
 27 28  1  0  0  0  0
 29 30  1  0  0  0  0
 29 28  1  0  0  0  0
 30 31  1  6  0  0  0
 32 30  1  0  0  0  0
 33 34  1  6  0  0  0
 33 32  1  0  0  0  0
 35 39  1  1  0  0  0
 35 38  1  0  0  0  0
 35 33  1  0  0  0  0
 36 38  2  0  0  0  0
 38 37  1  0  0  0  0
 39 40  1  0  0  0  0
 41 42  2  0  0  0  0
 42 43  1  0  0  0  0
 43 44  1  0  0  0  0
 44 45  1  0  0  0  0
 45 46  2  0  0  0  0
 47 48  1  0  0  0  0
 47 45  1  0  0  0  0
 49 48  1  6  0  0  0
 49 61  1  0  0  0  0
 50 51  1  0  0  0  0
 51 49  1  0  0  0  0
 52 53  1  6  0  0  0
 52 50  1  0  0  0  0
 52 51  1  0  0  0  0
 54 53  1  0  0  0  0
 55 54  1  0  0  0  0
 57 56  1  6  0  0  0
 57 55  1  0  0  0  0
 57 58  1  0  0  0  0
 59 58  1  0  0  0  0
 60 59  1  0  0  0  0
 61 62  1  0  0  0  0
 62 63  1  0  0  0  0
 63 64  1  0  0  0  0
M  END
>  <MODEL>
9

>  <REMARK>
 VINA RESULT:      -3.3      4.373     10.786
  Name = 
  29 active torsions:
  status: ('A' for Active; 'I' for Inactive)
    1  A    between atoms: C_2  and  C_6
    2  A    between atoms: C_2  and  N_50
    3  A    between atoms: C_2  and  C_60
    4  A    between atoms: C_4  and  C_24
    5  A    between atoms: C_4  and  C_48
    6  A    between atoms: O_5  and  C_8
    7  A    between atoms: C_6  and  C_24
    8  A    between atoms: C_8  and  C_60
    9  A    between atoms: C_11  and  C_34
   10  A    between atoms: C_11  and  C_46
   11  A    between atoms: C_12  and  C_33
   12  A    between atoms: C_14  and  C_31
   13  A    between atoms: C_14  and  C_34
   14  A    between atoms: C_17  and  C_58
   15  A    between atoms: C_21  and  O_29
   16  A    between atoms: C_21  and  C_54
   17  A    between atoms: C_22  and  S_23
   18  A    between atoms: C_22  and  C_53
   19  A    between atoms: S_23  and  C_54
   20  A    between atoms: C_25  and  C_61
   21  A    between atoms: C_31  and  O_52
   22  A    between atoms: C_35  and  C_46
   23  A    between atoms: C_35  and  C_61
   24  A    between atoms: C_41  and  C_43
   25  A    between atoms: C_42  and  O_52
   26  A    between atoms: C_48  and  O_59
   27  A    between atoms: C_49  and  C_61
   28  A    between atoms: C_51  and  C_53
   29  A    between atoms: C_58  and  O_59
                            x       y       z     vdW  Elec       q    Type
                         _______ _______ _______ _____ _____    ______ ____

>  <TORSDO>
F 29

$$$$
