=
 OpenBabel11062421393D

 52 56  0  0  1  0  0  0  0  0999 V2000
  192.1040  172.0640  144.0400 C   0  0  0  0  0  2  0  0  0  0  0  0
  189.7370  172.1460  144.0560 O   0  0  0  0  0  1  0  0  0  0  0  0
  190.8750  172.9420  143.8870 C   0  0  1  0  0  3  0  0  0  0  0  0
  189.6850  174.2020  145.5850 O   0  0  0  0  0  1  0  0  0  0  0  0
  190.9010  174.0900  144.9030 C   0  0  2  0  0  3  0  0  0  0  0  0
  192.1510  176.3530  144.6460 N   0  0  0  0  0  0  0  0  0  0  0  0
  192.9470  176.3000  145.8580 C   0  0  0  0  0  1  0  0  0  0  0  0
  191.2050  175.3860  144.2170 C   0  0  0  0  0  0  0  0  0  0  0  0
  191.2840  177.0310  142.7800 O   0  0  0  0  0  0  0  0  0  0  0  0
  192.2100  177.4180  143.7330 N   0  0  0  0  0  2  0  0  0  0  0  0
  190.6840  175.8190  143.0940 C   0  0  0  0  0  0  0  0  0  0  0  0
  189.6380  175.1260  142.2630 C   0  0  1  0  0  3  0  0  0  0  0  0
  188.3660  175.9450  141.9930 C   0  0  0  0  0  2  0  0  0  0  0  0
  187.3120  175.7800  143.0860 C   0  0  0  0  0  2  0  0  0  0  0  0
  187.6480  176.5710  144.2200 O   0  0  0  0  0  0  0  0  0  0  0  0
  185.1730  178.5350  147.4040 C   0  0  0  0  0  2  0  0  0  0  0  0
  184.1590  178.3070  146.3120 C   0  0  0  0  0  2  0  0  0  0  0  0
  184.7330  178.6430  145.0610 O   0  0  0  0  0  0  0  0  0  0  0  0
  185.8340  177.9980  144.4830 C   0  0  0  0  0  3  0  0  0  0  0  0
  186.0420  177.3350  147.5200 C   0  0  0  0  0  3  0  0  0  0  0  0
  186.6910  177.1450  145.0650 C   0  0  0  0  0  0  0  0  0  0  0  0
  186.6930  176.7660  146.5040 C   0  0  0  0  0  3  0  0  0  0  0  0
  190.1370  174.4070  141.1550 O   0  0  0  0  0  0  0  0  0  0  0  0
  189.1020  173.6320  140.6020 C   0  0  0  0  0  2  0  0  0  0  0  0
  190.3200  173.6060  138.4000 N   0  0  0  0  0  1  0  0  0  0  0  0
  188.0350  174.0000  138.5080 O   0  0  0  0  0  0  0  0  0  0  0  0
  189.1080  173.7710  139.1230 C   0  0  0  0  0  0  0  0  0  0  0  0
  193.1140  172.6940  144.9820 C   0  0  0  0  0  2  0  0  0  0  0  0
  194.4820  172.0640  144.7630 C   0  0  2  0  0  3  0  0  0  0  0  0
  194.7580  170.9680  145.7850 C   0  0  0  0  0  1  0  0  0  0  0  0
  195.8720  173.7760  145.8790 C   0  0  0  0  0  2  0  0  0  0  0  0
  195.5610  173.1010  144.7670 C   0  0  0  0  0  0  0  0  0  0  0  0
  196.3070  173.3480  143.4900 C   0  0  2  0  0  3  0  0  0  0  0  0
  193.8790  175.2710  141.0950 C   0  0  0  0  0  2  0  0  0  0  0  0
  194.4160  174.5360  139.8790 C   0  0  0  0  0  0  0  0  0  0  0  0
  193.6860  174.6410  138.6540 N   0  0  0  0  0  2  0  0  0  0  0  0
  195.3820  173.7210  142.3580 C   0  0  1  0  0  3  0  0  0  0  0  0
  197.0070  172.0200  141.3920 S   0  0  0  0  0  0  0  0  0  0  0  0
  197.0660  172.2120  143.1270 O   0  0  0  0  0  0  0  0  0  0  0  0
  195.4500  173.7390  139.9550 N   0  0  0  0  0  0  0  0  0  0  0  0
  194.7050  175.0900  142.3850 C   0  0  1  0  0  3  0  0  0  0  0  0
  196.2520  173.6270  141.1690 C   0  0  1  0  0  3  0  0  0  0  0  0
  194.1830  174.1190  137.3830 C   0  0  1  0  0  3  0  0  0  0  0  0
  193.5220  172.8970  134.6590 C   0  0  0  0  0  1  0  0  0  0  0  0
  192.9420  173.5120  135.9220 C   0  0  1  0  0  3  0  0  0  0  0  0
  193.5280  172.9160  137.0550 O   0  0  0  0  0  0  0  0  0  0  0  0
  193.5910  174.8490  136.1880 C   0  0  1  0  0  3  0  0  0  0  0  0
  192.6060  175.7740  136.5610 O   0  0  0  0  0  0  0  0  0  0  0  0
  192.7320  176.8150  135.6430 C   0  0  0  0  0  1  0  0  0  0  0  0
  195.6570  176.2360  142.5970 C   0  0  0  0  0  0  0  0  0  0  0  0
  196.2090  176.8050  141.6180 O   0  0  0  0  0  0  0  0  0  0  0  0
  195.9210  176.6750  143.8870 O   0  0  0  0  0  1  0  0  0  0  0  0
  1 28  1  0  0  0  0
  3  1  1  0  0  0  0
  3  2  1  1  0  0  0
  3  5  1  0  0  0  0
  5  4  1  6  0  0  0
  6  7  1  0  0  0  0
  8  6  1  0  0  0  0
  8  5  1  0  0  0  0
  9 11  1  0  0  0  0
  9 10  1  0  0  0  0
 10  6  1  0  0  0  0
 11  8  2  0  0  0  0
 12 13  1  6  0  0  0
 12 11  1  0  0  0  0
 13 14  1  0  0  0  0
 14 15  1  0  0  0  0
 15 21  1  0  0  0  0
 16 20  1  0  0  0  0
 17 16  1  0  0  0  0
 18 17  1  0  0  0  0
 19 18  1  0  0  0  0
 19 21  2  0  0  0  0
 21 22  1  0  0  0  0
 22 20  2  0  0  0  0
 23 12  1  0  0  0  0
 24 23  1  0  0  0  0
 25 27  1  0  0  0  0
 26 27  2  0  0  0  0
 27 24  1  0  0  0  0
 29 32  1  0  0  0  0
 29 28  1  0  0  0  0
 29 30  1  1  0  0  0
 32 31  2  0  0  0  0
 33 32  1  1  0  0  0
 34 41  1  0  0  0  0
 35 40  2  0  0  0  0
 35 34  1  0  0  0  0
 36 35  1  0  0  0  0
 37 41  1  0  0  0  0
 37 33  1  0  0  0  0
 38 39  1  0  0  0  0
 39 33  1  0  0  0  0
 40 42  1  0  0  0  0
 41 50  1  0  0  0  0
 42 38  1  0  0  0  0
 42 37  1  0  0  0  0
 43 36  1  0  0  0  0
 44 45  1  0  0  0  0
 45 47  1  0  0  0  0
 45 46  1  0  0  0  0
 46 43  1  0  0  0  0
 47 48  1  0  0  0  0
 47 43  1  0  0  0  0
 49 48  1  0  0  0  0
 50 52  1  0  0  0  0
 51 50  2  0  0  0  0
M  END
>  <MODEL>
1

>  <REMARK>
 VINA RESULT:      -6.2      0.000      0.000
  Name = 
  18 active torsions:
  status: ('A' for Active; 'I' for Inactive)
    1  A    between atoms: C_1  and  N_25
    2  A    between atoms: C_3  and  C_31
    3  A    between atoms: C_4  and  O_6
    4  A    between atoms: C_4  and  C_19
    5  A    between atoms: O_6  and  C_33
    6  A    between atoms: C_14  and  C_32
    7  A    between atoms: C_14  and  C_45
    8  A    between atoms: C_15  and  C_19
    9  A    between atoms: C_15  and  O_44
   10  A    between atoms: C_15  and  C_48
   11  A    between atoms: C_16  and  C_31
   12  A    between atoms: C_16  and  C_38
   13  A    between atoms: O_17  and  C_37
   14  A    between atoms: C_20  and  C_38
   15  A    between atoms: C_20  and  C_45
   16  A    between atoms: C_36  and  C_49
   17  A    between atoms: C_39  and  C_40
   18  A    between atoms: C_39  and  O_44
                            x       y       z     vdW  Elec       q    Type
                         _______ _______ _______ _____ _____    ______ ____

>  <TORSDO>
F 18

$$$$
=
 OpenBabel11062421393D

 52 56  0  0  1  0  0  0  0  0999 V2000
  187.7300  177.4090  141.9990 C   0  0  0  0  0  2  0  0  0  0  0  0
  186.1220  179.0180  142.6590 O   0  0  0  0  0  1  0  0  0  0  0  0
  187.0800  178.1340  143.1640 C   0  0  1  0  0  3  0  0  0  0  0  0
  185.1710  176.7460  143.7240 O   0  0  0  0  0  1  0  0  0  0  0  0
  186.4480  177.1330  144.1400 C   0  0  2  0  0  3  0  0  0  0  0  0
  185.3040  178.5280  146.0090 N   0  0  0  0  0  0  0  0  0  0  0  0
  184.1440  178.9790  145.2640 C   0  0  0  0  0  1  0  0  0  0  0  0
  186.3640  177.7250  145.5130 C   0  0  0  0  0  0  0  0  0  0  0  0
  186.7390  178.2320  147.6050 O   0  0  0  0  0  0  0  0  0  0  0  0
  185.5340  178.8640  147.3530 N   0  0  0  0  0  2  0  0  0  0  0  0
  187.2260  177.5670  146.4880 C   0  0  0  0  0  0  0  0  0  0  0  0
  188.5100  176.7840  146.4350 C   0  0  1  0  0  3  0  0  0  0  0  0
  188.4720  175.4120  147.1240 C   0  0  0  0  0  2  0  0  0  0  0  0
  189.6440  174.5170  146.7270 C   0  0  0  0  0  2  0  0  0  0  0  0
  190.8420  174.9680  147.3460 O   0  0  0  0  0  0  0  0  0  0  0  0
  194.9620  175.8170  145.7860 C   0  0  0  0  0  2  0  0  0  0  0  0
  194.2360  175.3810  144.5390 C   0  0  0  0  0  2  0  0  0  0  0  0
  193.4280  174.2560  144.8340 O   0  0  0  0  0  0  0  0  0  0  0  0
  192.3530  174.2510  145.7330 C   0  0  0  0  0  3  0  0  0  0  0  0
  194.0750  176.7060  146.5810 C   0  0  0  0  0  3  0  0  0  0  0  0
  192.0340  175.1840  146.6430 C   0  0  0  0  0  0  0  0  0  0  0  0
  192.8280  176.4060  146.9470 C   0  0  0  0  0  3  0  0  0  0  0  0
  189.1740  176.8130  145.1890 O   0  0  0  0  0  0  0  0  0  0  0  0
  190.0530  177.9110  145.1570 C   0  0  0  0  0  2  0  0  0  0  0  0
  191.5870  178.9600  143.4610 N   0  0  0  0  0  1  0  0  0  0  0  0
  191.1690  176.6770  143.4570 O   0  0  0  0  0  0  0  0  0  0  0  0
  190.9480  177.8010  143.9760 C   0  0  0  0  0  0  0  0  0  0  0  0
  187.9850  175.9500  142.3340 C   0  0  0  0  0  2  0  0  0  0  0  0
  188.4160  175.2040  141.0800 C   0  0  2  0  0  3  0  0  0  0  0  0
  187.5560  175.5890  139.8830 C   0  0  0  0  0  1  0  0  0  0  0  0
  187.5380  173.1500  142.1390 C   0  0  0  0  0  2  0  0  0  0  0  0
  188.4120  173.7240  141.3050 C   0  0  0  0  0  0  0  0  0  0  0  0
  189.4000  172.8920  140.5450 C   0  0  2  0  0  3  0  0  0  0  0  0
  192.9280  174.4920  141.1200 C   0  0  0  0  0  2  0  0  0  0  0  0
  193.3600  174.1740  139.7000 C   0  0  0  0  0  0  0  0  0  0  0  0
  194.5530  174.7870  139.2070 N   0  0  0  0  0  2  0  0  0  0  0  0
  190.7160  173.6080  140.3570 C   0  0  1  0  0  3  0  0  0  0  0  0
  190.1620  172.5770  138.1000 S   0  0  0  0  0  0  0  0  0  0  0  0
  188.8790  172.5220  139.2830 O   0  0  0  0  0  0  0  0  0  0  0  0
  192.6200  173.4520  138.8980 N   0  0  0  0  0  0  0  0  0  0  0  0
  191.6180  173.8140  141.5730 C   0  0  1  0  0  3  0  0  0  0  0  0
  191.4150  172.7710  139.3630 C   0  0  1  0  0  3  0  0  0  0  0  0
  195.1580  174.4370  137.9240 C   0  0  1  0  0  3  0  0  0  0  0  0
  197.3340  175.0120  135.8540 C   0  0  0  0  0  1  0  0  0  0  0  0
  196.8060  175.3620  137.2350 C   0  0  1  0  0  3  0  0  0  0  0  0
  195.4200  175.5980  137.1700 O   0  0  0  0  0  0  0  0  0  0  0  0
  196.6350  174.1040  138.0530 C   0  0  1  0  0  3  0  0  0  0  0  0
  197.1220  174.3280  139.3490 O   0  0  0  0  0  0  0  0  0  0  0  0
  197.8170  173.1640  139.6730 C   0  0  0  0  0  1  0  0  0  0  0  0
  191.8880  172.5550  142.3510 C   0  0  0  0  0  0  0  0  0  0  0  0
  192.9970  171.9650  142.2580 O   0  0  0  0  0  0  0  0  0  0  0  0
  190.9050  172.0450  143.1870 O   0  0  0  0  0  1  0  0  0  0  0  0
  1 28  1  0  0  0  0
  1  3  1  0  0  0  0
  3  2  1  6  0  0  0
  3  5  1  0  0  0  0
  5  4  1  6  0  0  0
  5  8  1  0  0  0  0
  6 10  1  0  0  0  0
  7  6  1  0  0  0  0
  8  6  1  0  0  0  0
  8 11  2  0  0  0  0
 10  9  1  0  0  0  0
 11  9  1  0  0  0  0
 12 11  1  0  0  0  0
 12 13  1  6  0  0  0
 14 13  1  0  0  0  0
 14 15  1  0  0  0  0
 16 20  1  0  0  0  0
 17 18  1  0  0  0  0
 17 16  1  0  0  0  0
 18 19  1  0  0  0  0
 19 21  2  0  0  0  0
 20 22  2  0  0  0  0
 21 22  1  0  0  0  0
 21 15  1  0  0  0  0
 23 12  1  0  0  0  0
 24 23  1  0  0  0  0
 25 27  1  0  0  0  0
 26 27  2  0  0  0  0
 27 24  1  0  0  0  0
 29 30  1  6  0  0  0
 29 32  1  0  0  0  0
 29 28  1  0  0  0  0
 32 31  2  0  0  0  0
 33 32  1  6  0  0  0
 34 41  1  0  0  0  0
 35 34  1  0  0  0  0
 36 35  1  0  0  0  0
 37 33  1  0  0  0  0
 37 41  1  0  0  0  0
 38 39  1  0  0  0  0
 38 42  1  0  0  0  0
 39 33  1  0  0  0  0
 40 42  1  0  0  0  0
 40 35  2  0  0  0  0
 41 50  1  0  0  0  0
 42 37  1  0  0  0  0
 43 47  1  0  0  0  0
 43 36  1  0  0  0  0
 44 45  1  0  0  0  0
 45 47  1  0  0  0  0
 46 45  1  0  0  0  0
 46 43  1  0  0  0  0
 47 48  1  0  0  0  0
 48 49  1  0  0  0  0
 50 52  1  0  0  0  0
 51 50  2  0  0  0  0
M  END
>  <MODEL>
2

>  <REMARK>
 VINA RESULT:      -6.1      2.719      6.529
  Name = 
  18 active torsions:
  status: ('A' for Active; 'I' for Inactive)
    1  A    between atoms: C_1  and  N_25
    2  A    between atoms: C_3  and  C_31
    3  A    between atoms: C_4  and  O_6
    4  A    between atoms: C_4  and  C_19
    5  A    between atoms: O_6  and  C_33
    6  A    between atoms: C_14  and  C_32
    7  A    between atoms: C_14  and  C_45
    8  A    between atoms: C_15  and  C_19
    9  A    between atoms: C_15  and  O_44
   10  A    between atoms: C_15  and  C_48
   11  A    between atoms: C_16  and  C_31
   12  A    between atoms: C_16  and  C_38
   13  A    between atoms: O_17  and  C_37
   14  A    between atoms: C_20  and  C_38
   15  A    between atoms: C_20  and  C_45
   16  A    between atoms: C_36  and  C_49
   17  A    between atoms: C_39  and  C_40
   18  A    between atoms: C_39  and  O_44
                            x       y       z     vdW  Elec       q    Type
                         _______ _______ _______ _____ _____    ______ ____

>  <TORSDO>
F 18

$$$$
=
 OpenBabel11062421393D

 52 56  0  0  1  0  0  0  0  0999 V2000
  188.1460  177.7360  142.1420 C   0  0  0  0  0  2  0  0  0  0  0  0
  185.9550  178.5230  142.5770 O   0  0  0  0  0  1  0  0  0  0  0  0
  187.1440  178.1460  143.2080 C   0  0  1  0  0  3  0  0  0  0  0  0
  185.6040  176.4980  144.1000 O   0  0  0  0  0  1  0  0  0  0  0  0
  186.9060  176.9980  144.1960 C   0  0  2  0  0  3  0  0  0  0  0  0
  186.1970  178.0380  146.4690 N   0  0  0  0  0  0  0  0  0  0  0  0
  184.8200  178.3560  146.1420 C   0  0  0  0  0  1  0  0  0  0  0  0
  187.1570  177.4580  145.5990 C   0  0  0  0  0  0  0  0  0  0  0  0
  188.0670  177.8500  147.5470 O   0  0  0  0  0  0  0  0  0  0  0  0
  186.7700  178.2990  147.7240 N   0  0  0  0  0  2  0  0  0  0  0  0
  188.2820  177.3620  146.2650 C   0  0  0  0  0  0  0  0  0  0  0  0
  189.5830  176.8020  145.7570 C   0  0  1  0  0  3  0  0  0  0  0  0
  190.4660  177.7920  144.9810 C   0  0  0  0  0  2  0  0  0  0  0  0
  191.6480  177.1150  144.2910 C   0  0  0  0  0  2  0  0  0  0  0  0
  192.7420  176.9910  145.1920 O   0  0  0  0  0  0  0  0  0  0  0  0
  196.1490  174.1110  144.7270 C   0  0  0  0  0  2  0  0  0  0  0  0
  196.5270  175.2050  143.7610 C   0  0  0  0  0  2  0  0  0  0  0  0
  195.3790  175.6110  143.0380 O   0  0  0  0  0  0  0  0  0  0  0  0
  194.2370  176.1940  143.6030 C   0  0  0  0  0  3  0  0  0  0  0  0
  195.6220  174.7220  145.9740 C   0  0  0  0  0  3  0  0  0  0  0  0
  193.8980  176.2580  144.8990 C   0  0  0  0  0  0  0  0  0  0  0  0
  194.6470  175.6300  146.0230 C   0  0  0  0  0  3  0  0  0  0  0  0
  190.2700  175.9700  146.6680 O   0  0  0  0  0  0  0  0  0  0  0  0
  189.7370  174.6700  146.6000 C   0  0  0  0  0  2  0  0  0  0  0  0
  191.5760  173.6020  145.2540 N   0  0  0  0  0  1  0  0  0  0  0  0
  189.4110  173.7460  144.4320 O   0  0  0  0  0  0  0  0  0  0  0  0
  190.2170  173.9980  145.3640 C   0  0  0  0  0  0  0  0  0  0  0  0
  188.4640  176.2530  142.2300 C   0  0  0  0  0  2  0  0  0  0  0  0
  188.3620  175.6250  140.8480 C   0  0  2  0  0  3  0  0  0  0  0  0
  187.1590  176.1610  140.0830 C   0  0  0  0  0  1  0  0  0  0  0  0
  187.5560  173.5010  141.8230 C   0  0  0  0  0  2  0  0  0  0  0  0
  188.3340  174.1310  140.9360 C   0  0  0  0  0  0  0  0  0  0  0  0
  189.1860  173.3520  139.9800 C   0  0  2  0  0  3  0  0  0  0  0  0
  192.8870  173.6760  141.2170 C   0  0  0  0  0  2  0  0  0  0  0  0
  193.4120  173.7240  139.7920 C   0  0  0  0  0  0  0  0  0  0  0  0
  194.7710  174.1180  139.5900 N   0  0  0  0  0  2  0  0  0  0  0  0
  190.6470  173.7090  140.1050 C   0  0  1  0  0  3  0  0  0  0  0  0
  190.1620  173.6410  137.6100 S   0  0  0  0  0  0  0  0  0  0  0  0
  188.7600  173.5580  138.6470 O   0  0  0  0  0  0  0  0  0  0  0  0
  192.6320  173.5210  138.7620 N   0  0  0  0  0  0  0  0  0  0  0  0
  191.4060  173.2670  141.3540 C   0  0  1  0  0  3  0  0  0  0  0  0
  191.2500  173.0780  138.9140 C   0  0  1  0  0  3  0  0  0  0  0  0
  195.4370  174.0470  138.2910 C   0  0  1  0  0  3  0  0  0  0  0  0
  197.9370  174.6460  136.6360 C   0  0  0  0  0  1  0  0  0  0  0  0
  197.3330  174.6650  138.0300 C   0  0  1  0  0  3  0  0  0  0  0  0
  196.0630  175.2720  137.9910 O   0  0  0  0  0  0  0  0  0  0  0  0
  196.7630  173.3070  138.3610 C   0  0  1  0  0  3  0  0  0  0  0  0
  197.1160  172.9670  139.6750 O   0  0  0  0  0  0  0  0  0  0  0  0
  197.5850  171.6570  139.5880 C   0  0  0  0  0  1  0  0  0  0  0  0
  191.2640  171.8010  141.6650 C   0  0  0  0  0  0  0  0  0  0  0  0
  190.2610  171.3700  142.2940 O   0  0  0  0  0  1  0  0  0  0  0  0
  192.2460  170.9150  141.2450 O   0  0  0  0  0  0  0  0  0  0  0  0
  1 28  1  0  0  0  0
  1  3  1  0  0  0  0
  3  2  1  6  0  0  0
  3  5  1  0  0  0  0
  5  4  1  1  0  0  0
  5  8  1  0  0  0  0
  6 10  1  0  0  0  0
  7  6  1  0  0  0  0
  8 11  2  0  0  0  0
  8  6  1  0  0  0  0
  9 10  1  0  0  0  0
 11  9  1  0  0  0  0
 12 13  1  1  0  0  0
 12 11  1  0  0  0  0
 12 23  1  0  0  0  0
 14 13  1  0  0  0  0
 14 15  1  0  0  0  0
 16 20  1  0  0  0  0
 17 16  1  0  0  0  0
 18 19  1  0  0  0  0
 18 17  1  0  0  0  0
 19 21  2  0  0  0  0
 20 22  2  0  0  0  0
 21 15  1  0  0  0  0
 21 22  1  0  0  0  0
 24 23  1  0  0  0  0
 25 27  1  0  0  0  0
 26 27  2  0  0  0  0
 27 24  1  0  0  0  0
 29 30  1  1  0  0  0
 29 32  1  0  0  0  0
 29 28  1  0  0  0  0
 32 31  2  0  0  0  0
 33 37  1  0  0  0  0
 33 32  1  1  0  0  0
 34 41  1  0  0  0  0
 35 34  1  0  0  0  0
 36 35  1  0  0  0  0
 37 41  1  0  0  0  0
 38 39  1  0  0  0  0
 38 42  1  0  0  0  0
 39 33  1  0  0  0  0
 40 42  1  0  0  0  0
 40 35  2  0  0  0  0
 41 50  1  0  0  0  0
 42 37  1  0  0  0  0
 43 47  1  0  0  0  0
 43 36  1  0  0  0  0
 44 45  1  0  0  0  0
 45 47  1  0  0  0  0
 46 45  1  0  0  0  0
 46 43  1  0  0  0  0
 47 48  1  0  0  0  0
 49 48  1  0  0  0  0
 50 51  1  0  0  0  0
 52 50  2  0  0  0  0
M  END
>  <MODEL>
3

>  <REMARK>
 VINA RESULT:      -6.0      2.686      6.902
  Name = 
  18 active torsions:
  status: ('A' for Active; 'I' for Inactive)
    1  A    between atoms: C_1  and  N_25
    2  A    between atoms: C_3  and  C_31
    3  A    between atoms: C_4  and  O_6
    4  A    between atoms: C_4  and  C_19
    5  A    between atoms: O_6  and  C_33
    6  A    between atoms: C_14  and  C_32
    7  A    between atoms: C_14  and  C_45
    8  A    between atoms: C_15  and  C_19
    9  A    between atoms: C_15  and  O_44
   10  A    between atoms: C_15  and  C_48
   11  A    between atoms: C_16  and  C_31
   12  A    between atoms: C_16  and  C_38
   13  A    between atoms: O_17  and  C_37
   14  A    between atoms: C_20  and  C_38
   15  A    between atoms: C_20  and  C_45
   16  A    between atoms: C_36  and  C_49
   17  A    between atoms: C_39  and  C_40
   18  A    between atoms: C_39  and  O_44
                            x       y       z     vdW  Elec       q    Type
                         _______ _______ _______ _____ _____    ______ ____

>  <TORSDO>
F 18

$$$$
=
 OpenBabel11062421393D

 52 56  0  0  1  0  0  0  0  0999 V2000
  188.9800  174.3330  141.0000 C   0  0  0  0  0  2  0  0  0  0  0  0
  189.3630  172.2100  141.9780 O   0  0  0  0  0  1  0  0  0  0  0  0
  189.2490  173.5690  142.2850 C   0  0  1  0  0  3  0  0  0  0  0  0
  191.5350  173.1280  142.9660 O   0  0  0  0  0  1  0  0  0  0  0  0
  190.5190  174.0890  142.9680 C   0  0  2  0  0  3  0  0  0  0  0  0
  189.7610  173.6370  145.4120 N   0  0  0  0  0  0  0  0  0  0  0  0
  189.4230  172.2330  145.2780 C   0  0  0  0  0  1  0  0  0  0  0  0
  190.2240  174.4940  144.3800 C   0  0  0  0  0  0  0  0  0  0  0  0
  190.0520  175.6140  146.2480 O   0  0  0  0  0  0  0  0  0  0  0  0
  189.6430  174.3450  146.6180 N   0  0  0  0  0  2  0  0  0  0  0  0
  190.3840  175.6860  144.9020 C   0  0  0  0  0  0  0  0  0  0  0  0
  190.8650  176.9220  144.1910 C   0  0  1  0  0  3  0  0  0  0  0  0
  189.8010  178.0080  143.9680 C   0  0  0  0  0  2  0  0  0  0  0  0
  188.8900  177.7100  142.7800 C   0  0  0  0  0  2  0  0  0  0  0  0
  187.7250  177.0160  143.2120 O   0  0  0  0  0  0  0  0  0  0  0  0
  185.3960  178.5720  146.7150 C   0  0  0  0  0  2  0  0  0  0  0  0
  184.4540  178.8370  145.5680 C   0  0  0  0  0  2  0  0  0  0  0  0
  185.1850  179.3540  144.4710 O   0  0  0  0  0  0  0  0  0  0  0  0
  186.1930  178.6670  143.7810 C   0  0  0  0  0  3  0  0  0  0  0  0
  186.0130  177.2320  146.5400 C   0  0  0  0  0  3  0  0  0  0  0  0
  186.8230  177.5410  144.1450 C   0  0  0  0  0  0  0  0  0  0  0  0
  186.6310  176.8180  145.4330 C   0  0  0  0  0  3  0  0  0  0  0  0
  192.1290  177.3950  144.6080 O   0  0  0  0  0  0  0  0  0  0  0  0
  193.0930  176.3950  144.3860 C   0  0  0  0  0  2  0  0  0  0  0  0
  194.2750  176.8540  146.5600 N   0  0  0  0  0  1  0  0  0  0  0  0
  195.4280  176.8240  144.5460 O   0  0  0  0  0  0  0  0  0  0  0  0
  194.3290  176.7140  145.1470 C   0  0  0  0  0  0  0  0  0  0  0  0
  188.6350  173.3880  139.8630 C   0  0  0  0  0  2  0  0  0  0  0  0
  189.5110  173.6960  138.6580 C   0  0  2  0  0  3  0  0  0  0  0  0
  188.6760  174.1620  137.4710 C   0  0  0  0  0  1  0  0  0  0  0  0
  189.8310  171.3800  137.8570 C   0  0  0  0  0  2  0  0  0  0  0  0
  190.3680  172.5230  138.2990 C   0  0  0  0  0  0  0  0  0  0  0  0
  191.8540  172.6700  138.4220 C   0  0  2  0  0  3  0  0  0  0  0  0
  192.9840  170.4300  141.4280 C   0  0  0  0  0  2  0  0  0  0  0  0
  194.0410  171.4370  141.8460 C   0  0  0  0  0  0  0  0  0  0  0  0
  194.6530  171.2740  143.1280 N   0  0  0  0  0  2  0  0  0  0  0  0
  192.3620  172.1840  139.7570 C   0  0  1  0  0  3  0  0  0  0  0  0
  193.5400  174.3970  139.3330 S   0  0  0  0  0  0  0  0  0  0  0  0
  192.2420  174.0160  138.2290 O   0  0  0  0  0  0  0  0  0  0  0  0
  194.3190  172.4880  141.1200 N   0  0  0  0  0  0  0  0  0  0  0  0
  192.3500  170.6840  140.0440 C   0  0  1  0  0  3  0  0  0  0  0  0
  193.7520  172.6800  139.7890 C   0  0  1  0  0  3  0  0  0  0  0  0
  195.7910  172.0750  143.5750 C   0  0  1  0  0  3  0  0  0  0  0  0
  197.0050  173.8470  145.7510 C   0  0  0  0  0  1  0  0  0  0  0  0
  195.8310  172.9560  145.3820 C   0  0  1  0  0  3  0  0  0  0  0  0
  195.3520  173.3030  144.1040 O   0  0  0  0  0  0  0  0  0  0  0  0
  196.3330  171.6100  144.9160 C   0  0  1  0  0  3  0  0  0  0  0  0
  195.5470  170.6010  145.4900 O   0  0  0  0  0  0  0  0  0  0  0  0
  196.4640  169.7000  146.0290 C   0  0  0  0  0  1  0  0  0  0  0  0
  193.0070  169.8550  138.9750 C   0  0  0  0  0  0  0  0  0  0  0  0
  194.2480  169.9310  138.7710 O   0  0  0  0  0  1  0  0  0  0  0  0
  192.2360  168.9880  138.2120 O   0  0  0  0  0  0  0  0  0  0  0  0
  1  3  1  0  0  0  0
  3  2  1  6  0  0  0
  3  5  1  0  0  0  0
  5  4  1  1  0  0  0
  5  8  1  0  0  0  0
  6 10  1  0  0  0  0
  7  6  1  0  0  0  0
  8 11  2  0  0  0  0
  8  6  1  0  0  0  0
  9 10  1  0  0  0  0
 11  9  1  0  0  0  0
 12 13  1  1  0  0  0
 12 23  1  0  0  0  0
 12 11  1  0  0  0  0
 14 15  1  0  0  0  0
 14 13  1  0  0  0  0
 15 21  1  0  0  0  0
 17 16  1  0  0  0  0
 18 17  1  0  0  0  0
 19 21  2  0  0  0  0
 19 18  1  0  0  0  0
 20 16  1  0  0  0  0
 21 22  1  0  0  0  0
 22 20  2  0  0  0  0
 24 23  1  0  0  0  0
 24 27  1  0  0  0  0
 26 27  2  0  0  0  0
 27 25  1  0  0  0  0
 28  1  1  0  0  0  0
 29 30  1  6  0  0  0
 29 28  1  0  0  0  0
 31 32  2  0  0  0  0
 32 29  1  0  0  0  0
 33 32  1  1  0  0  0
 33 37  1  0  0  0  0
 34 35  1  0  0  0  0
 35 36  1  0  0  0  0
 36 43  1  0  0  0  0
 37 42  1  0  0  0  0
 37 41  1  0  0  0  0
 38 42  1  0  0  0  0
 39 33  1  0  0  0  0
 39 38  1  0  0  0  0
 40 35  2  0  0  0  0
 41 34  1  0  0  0  0
 42 40  1  0  0  0  0
 43 46  1  0  0  0  0
 43 47  1  0  0  0  0
 45 44  1  0  0  0  0
 46 45  1  0  0  0  0
 47 45  1  0  0  0  0
 47 48  1  0  0  0  0
 48 49  1  0  0  0  0
 50 41  1  0  0  0  0
 51 50  1  0  0  0  0
 52 50  2  0  0  0  0
M  END
>  <MODEL>
4

>  <REMARK>
 VINA RESULT:      -5.9      2.437      6.340
  Name = 
  18 active torsions:
  status: ('A' for Active; 'I' for Inactive)
    1  A    between atoms: C_1  and  N_25
    2  A    between atoms: C_3  and  C_31
    3  A    between atoms: C_4  and  O_6
    4  A    between atoms: C_4  and  C_19
    5  A    between atoms: O_6  and  C_33
    6  A    between atoms: C_14  and  C_32
    7  A    between atoms: C_14  and  C_45
    8  A    between atoms: C_15  and  C_19
    9  A    between atoms: C_15  and  O_44
   10  A    between atoms: C_15  and  C_48
   11  A    between atoms: C_16  and  C_31
   12  A    between atoms: C_16  and  C_38
   13  A    between atoms: O_17  and  C_37
   14  A    between atoms: C_20  and  C_38
   15  A    between atoms: C_20  and  C_45
   16  A    between atoms: C_36  and  C_49
   17  A    between atoms: C_39  and  C_40
   18  A    between atoms: C_39  and  O_44
                            x       y       z     vdW  Elec       q    Type
                         _______ _______ _______ _____ _____    ______ ____

>  <TORSDO>
F 18

$$$$
=
 OpenBabel11062421393D

 52 56  0  0  1  0  0  0  0  0999 V2000
  193.0380  173.1580  144.3030 C   0  0  0  0  0  2  0  0  0  0  0  0
  192.0840  171.0080  144.5820 O   0  0  0  0  0  1  0  0  0  0  0  0
  192.0980  172.1130  143.7260 C   0  0  1  0  0  3  0  0  0  0  0  0
  189.7170  171.8640  144.1190 O   0  0  0  0  0  1  0  0  0  0  0  0
  190.6890  172.6920  143.5480 C   0  0  2  0  0  3  0  0  0  0  0  0
  190.3610  171.8630  141.1070 N   0  0  0  0  0  0  0  0  0  0  0  0
  190.6920  170.4650  141.3060 C   0  0  0  0  0  1  0  0  0  0  0  0
  190.3840  172.8830  142.0940 C   0  0  0  0  0  0  0  0  0  0  0  0
  189.7930  173.7320  140.1690 O   0  0  0  0  0  0  0  0  0  0  0  0
  189.9850  172.3960  139.8640 N   0  0  0  0  0  2  0  0  0  0  0  0
  190.0500  174.0060  141.5060 C   0  0  0  0  0  0  0  0  0  0  0  0
  189.9320  175.3600  142.1520 C   0  0  1  0  0  3  0  0  0  0  0  0
  188.6870  175.5630  143.0300 C   0  0  0  0  0  2  0  0  0  0  0  0
  187.4920  176.1000  142.2460 C   0  0  0  0  0  2  0  0  0  0  0  0
  186.2980  175.9600  143.0070 O   0  0  0  0  0  0  0  0  0  0  0  0
  184.1280  178.8950  145.6150 C   0  0  0  0  0  2  0  0  0  0  0  0
  185.5560  179.0680  146.0660 C   0  0  0  0  0  2  0  0  0  0  0  0
  186.1680  177.7970  146.1870 O   0  0  0  0  0  0  0  0  0  0  0  0
  186.3730  176.8990  145.1310 C   0  0  0  0  0  3  0  0  0  0  0  0
  184.0960  178.7770  144.1340 C   0  0  0  0  0  3  0  0  0  0  0  0
  185.8400  176.9360  143.9010 C   0  0  0  0  0  0  0  0  0  0  0  0
  184.8290  177.9200  143.4230 C   0  0  0  0  0  3  0  0  0  0  0  0
  191.1350  175.8700  142.6880 O   0  0  0  0  0  0  0  0  0  0  0  0
  190.8330  176.8290  143.6720 C   0  0  0  0  0  2  0  0  0  0  0  0
  191.1040  176.1940  146.0920 N   0  0  0  0  0  1  0  0  0  0  0  0
  192.9370  176.7450  144.7800 O   0  0  0  0  0  0  0  0  0  0  0  0
  191.6900  176.6060  144.8660 C   0  0  0  0  0  0  0  0  0  0  0  0
  193.9320  172.5590  145.3730 C   0  0  0  0  0  2  0  0  0  0  0  0
  195.2550  172.1300  144.7550 C   0  0  2  0  0  3  0  0  0  0  0  0
  195.7880  170.8630  145.4110 C   0  0  0  0  0  1  0  0  0  0  0  0
  196.5390  173.8700  145.9530 C   0  0  0  0  0  2  0  0  0  0  0  0
  196.2590  173.2390  144.8070 C   0  0  0  0  0  0  0  0  0  0  0  0
  196.9690  173.6080  143.5390 C   0  0  2  0  0  3  0  0  0  0  0  0
  194.3170  175.2650  141.1830 C   0  0  0  0  0  2  0  0  0  0  0  0
  194.9430  174.6340  139.9510 C   0  0  0  0  0  0  0  0  0  0  0  0
  194.2050  174.6750  138.7270 N   0  0  0  0  0  2  0  0  0  0  0  0
  196.0040  173.8880  142.4130 C   0  0  1  0  0  3  0  0  0  0  0  0
  197.8310  172.4300  141.4130 S   0  0  0  0  0  0  0  0  0  0  0  0
  197.8660  172.5860  143.1510 O   0  0  0  0  0  0  0  0  0  0  0  0
  196.0690  173.9720  140.0110 N   0  0  0  0  0  0  0  0  0  0  0  0
  195.1590  175.1590  142.4710 C   0  0  1  0  0  3  0  0  0  0  0  0
  196.8790  173.9340  141.2250 C   0  0  1  0  0  3  0  0  0  0  0  0
  194.7640  174.2500  137.4450 C   0  0  1  0  0  3  0  0  0  0  0  0
  194.3300  172.7790  134.8000 C   0  0  0  0  0  1  0  0  0  0  0  0
  193.6660  173.2700  136.0760 C   0  0  1  0  0  3  0  0  0  0  0  0
  194.4440  172.9030  137.1900 O   0  0  0  0  0  0  0  0  0  0  0  0
  193.9420  174.7420  136.2660 C   0  0  1  0  0  3  0  0  0  0  0  0
  192.7630  175.3840  136.6670 O   0  0  0  0  0  0  0  0  0  0  0  0
  192.7050  176.5390  135.8880 C   0  0  0  0  0  1  0  0  0  0  0  0
  195.9580  176.4110  142.7130 C   0  0  0  0  0  0  0  0  0  0  0  0
  196.1550  176.8340  143.8830 O   0  0  0  0  0  1  0  0  0  0  0  0
  196.4920  177.1000  141.6330 O   0  0  0  0  0  0  0  0  0  0  0  0
  1 28  1  0  0  0  0
  3  1  1  0  0  0  0
  3  2  1  1  0  0  0
  5  3  1  0  0  0  0
  5  4  1  6  0  0  0
  6  7  1  0  0  0  0
  6  8  1  0  0  0  0
  8  5  1  0  0  0  0
  9 11  1  0  0  0  0
 10  9  1  0  0  0  0
 10  6  1  0  0  0  0
 11  8  2  0  0  0  0
 11 12  1  0  0  0  0
 12 23  1  0  0  0  0
 12 13  1  1  0  0  0
 14 15  1  0  0  0  0
 14 13  1  0  0  0  0
 15 21  1  0  0  0  0
 16 17  1  0  0  0  0
 17 18  1  0  0  0  0
 19 18  1  0  0  0  0
 20 16  1  0  0  0  0
 21 19  2  0  0  0  0
 22 21  1  0  0  0  0
 22 20  2  0  0  0  0
 23 24  1  0  0  0  0
 24 27  1  0  0  0  0
 26 27  2  0  0  0  0
 27 25  1  0  0  0  0
 29 32  1  0  0  0  0
 29 28  1  0  0  0  0
 29 30  1  1  0  0  0
 32 31  2  0  0  0  0
 33 32  1  1  0  0  0
 34 41  1  0  0  0  0
 35 40  2  0  0  0  0
 35 34  1  0  0  0  0
 36 35  1  0  0  0  0
 37 41  1  0  0  0  0
 37 33  1  0  0  0  0
 38 39  1  0  0  0  0
 39 33  1  0  0  0  0
 40 42  1  0  0  0  0
 41 50  1  0  0  0  0
 42 38  1  0  0  0  0
 42 37  1  0  0  0  0
 43 36  1  0  0  0  0
 44 45  1  0  0  0  0
 45 47  1  0  0  0  0
 45 46  1  0  0  0  0
 46 43  1  0  0  0  0
 47 48  1  0  0  0  0
 47 43  1  0  0  0  0
 49 48  1  0  0  0  0
 50 51  1  0  0  0  0
 52 50  2  0  0  0  0
M  END
>  <MODEL>
5

>  <REMARK>
 VINA RESULT:      -5.9      1.302      3.067
  Name = 
  18 active torsions:
  status: ('A' for Active; 'I' for Inactive)
    1  A    between atoms: C_1  and  N_25
    2  A    between atoms: C_3  and  C_31
    3  A    between atoms: C_4  and  O_6
    4  A    between atoms: C_4  and  C_19
    5  A    between atoms: O_6  and  C_33
    6  A    between atoms: C_14  and  C_32
    7  A    between atoms: C_14  and  C_45
    8  A    between atoms: C_15  and  C_19
    9  A    between atoms: C_15  and  O_44
   10  A    between atoms: C_15  and  C_48
   11  A    between atoms: C_16  and  C_31
   12  A    between atoms: C_16  and  C_38
   13  A    between atoms: O_17  and  C_37
   14  A    between atoms: C_20  and  C_38
   15  A    between atoms: C_20  and  C_45
   16  A    between atoms: C_36  and  C_49
   17  A    between atoms: C_39  and  C_40
   18  A    between atoms: C_39  and  O_44
                            x       y       z     vdW  Elec       q    Type
                         _______ _______ _______ _____ _____    ______ ____

>  <TORSDO>
F 18

$$$$
=
 OpenBabel11062421393D

 52 56  0  0  1  0  0  0  0  0999 V2000
  193.5180  174.1820  142.3740 C   0  0  0  0  0  2  0  0  0  0  0  0
  194.6220  176.0060  141.3440 O   0  0  0  0  0  1  0  0  0  0  0  0
  194.5380  174.6110  141.3340 C   0  0  1  0  0  3  0  0  0  0  0  0
  196.9290  174.9220  141.6000 O   0  0  0  0  0  1  0  0  0  0  0  0
  195.9030  173.9730  141.6190 C   0  0  2  0  0  3  0  0  0  0  0  0
  196.5780  173.1160  139.2600 N   0  0  0  0  0  0  0  0  0  0  0  0
  196.6810  174.3970  138.5860 C   0  0  0  0  0  1  0  0  0  0  0  0
  196.1990  172.9050  140.6110 C   0  0  0  0  0  0  0  0  0  0  0  0
  196.5870  170.9840  139.6430 O   0  0  0  0  0  0  0  0  0  0  0  0
  196.8270  171.8900  138.6250 N   0  0  0  0  0  2  0  0  0  0  0  0
  196.2000  171.6100  140.8210 C   0  0  0  0  0  0  0  0  0  0  0  0
  195.8690  170.9070  142.1090 C   0  0  1  0  0  3  0  0  0  0  0  0
  194.6670  169.9520  142.0460 C   0  0  0  0  0  2  0  0  0  0  0  0
  193.4280  170.5990  141.4320 C   0  0  0  0  0  2  0  0  0  0  0  0
  192.2910  170.3730  142.2560 O   0  0  0  0  0  0  0  0  0  0  0  0
  189.4320  173.7240  143.1050 C   0  0  0  0  0  2  0  0  0  0  0  0
  188.6310  172.8550  142.1680 C   0  0  0  0  0  2  0  0  0  0  0  0
  189.4620  172.4170  141.1080 O   0  0  0  0  0  0  0  0  0  0  0  0
  190.5930  171.6030  141.2570 C   0  0  0  0  0  3  0  0  0  0  0  0
  190.1540  172.8590  144.0740 C   0  0  0  0  0  3  0  0  0  0  0  0
  191.2430  171.2920  142.3880 C   0  0  0  0  0  0  0  0  0  0  0  0
  190.9350  171.8310  143.7410 C   0  0  0  0  0  3  0  0  0  0  0  0
  196.9850  170.4230  142.8280 O   0  0  0  0  0  0  0  0  0  0  0  0
  197.2850  171.3160  143.8720 C   0  0  0  0  0  2  0  0  0  0  0  0
  195.6160  170.9660  145.7230 N   0  0  0  0  0  1  0  0  0  0  0  0
  197.6990  169.9430  145.7700 O   0  0  0  0  0  0  0  0  0  0  0  0
  196.9000  170.7110  145.1740 C   0  0  0  0  0  0  0  0  0  0  0  0
  194.1990  173.6880  143.6380 C   0  0  0  0  0  2  0  0  0  0  0  0
  194.4080  174.8510  144.5950 C   0  0  2  0  0  3  0  0  0  0  0  0
  195.6120  174.6170  145.4980 C   0  0  0  0  0  1  0  0  0  0  0  0
  192.6970  174.2290  146.2670 C   0  0  0  0  0  2  0  0  0  0  0  0
  193.1700  175.1240  145.3920 C   0  0  0  0  0  0  0  0  0  0  0  0
  192.4860  176.4440  145.2040 C   0  0  2  0  0  3  0  0  0  0  0  0
  188.7300  175.9390  146.1900 C   0  0  0  0  0  2  0  0  0  0  0  0
  188.2640  176.8830  145.0950 C   0  0  0  0  0  0  0  0  0  0  0  0
  186.8710  176.9060  144.7770 N   0  0  0  0  0  2  0  0  0  0  0  0
  190.9840  176.3020  145.1680 C   0  0  1  0  0  3  0  0  0  0  0  0
  191.5770  177.8710  143.2580 S   0  0  0  0  0  0  0  0  0  0  0  0
  192.9310  177.0750  144.0200 O   0  0  0  0  0  0  0  0  0  0  0  0
  189.1070  177.5810  144.3800 N   0  0  0  0  0  0  0  0  0  0  0  0
  190.2490  175.9500  146.4600 C   0  0  1  0  0  3  0  0  0  0  0  0
  190.5330  177.6230  144.6900 C   0  0  1  0  0  3  0  0  0  0  0  0
  186.2770  177.8820  143.8640 C   0  0  1  0  0  3  0  0  0  0  0  0
  183.9060  178.6510  142.0940 C   0  0  0  0  0  1  0  0  0  0  0  0
  184.4300  177.6460  143.1060 C   0  0  1  0  0  3  0  0  0  0  0  0
  185.7260  177.2340  142.7420 O   0  0  0  0  0  0  0  0  0  0  0  0
  184.9180  178.3660  144.3400 C   0  0  1  0  0  3  0  0  0  0  0  0
  184.4750  177.6790  145.4790 O   0  0  0  0  0  0  0  0  0  0  0  0
  184.0540  178.6800  146.3540 C   0  0  0  0  0  1  0  0  0  0  0  0
  190.5970  176.8430  147.6200 C   0  0  0  0  0  0  0  0  0  0  0  0
  191.5310  176.5400  148.4090 O   0  0  0  0  0  1  0  0  0  0  0  0
  189.8860  178.0190  147.8150 O   0  0  0  0  0  0  0  0  0  0  0  0
  1 28  1  0  0  0  0
  3  2  1  1  0  0  0
  3  5  1  0  0  0  0
  3  1  1  0  0  0  0
  5  4  1  6  0  0  0
  6  8  1  0  0  0  0
  7  6  1  0  0  0  0
  8 11  2  0  0  0  0
  8  5  1  0  0  0  0
  9 11  1  0  0  0  0
 10  6  1  0  0  0  0
 10  9  1  0  0  0  0
 11 12  1  0  0  0  0
 12 13  1  6  0  0  0
 12 23  1  0  0  0  0
 14 13  1  0  0  0  0
 14 15  1  0  0  0  0
 15 21  1  0  0  0  0
 16 20  1  0  0  0  0
 17 16  1  0  0  0  0
 18 19  1  0  0  0  0
 18 17  1  0  0  0  0
 19 21  2  0  0  0  0
 21 22  1  0  0  0  0
 22 20  2  0  0  0  0
 23 24  1  0  0  0  0
 24 27  1  0  0  0  0
 27 25  1  0  0  0  0
 27 26  2  0  0  0  0
 28 29  1  0  0  0  0
 29 32  1  0  0  0  0
 29 30  1  1  0  0  0
 32 31  2  0  0  0  0
 33 32  1  6  0  0  0
 34 41  1  0  0  0  0
 35 34  1  0  0  0  0
 36 35  1  0  0  0  0
 37 33  1  0  0  0  0
 37 41  1  0  0  0  0
 38 39  1  0  0  0  0
 38 42  1  0  0  0  0
 39 33  1  0  0  0  0
 40 42  1  0  0  0  0
 40 35  2  0  0  0  0
 41 50  1  0  0  0  0
 42 37  1  0  0  0  0
 43 47  1  0  0  0  0
 43 36  1  0  0  0  0
 44 45  1  0  0  0  0
 45 47  1  0  0  0  0
 46 45  1  0  0  0  0
 46 43  1  0  0  0  0
 47 48  1  0  0  0  0
 48 49  1  0  0  0  0
 50 52  2  0  0  0  0
 50 51  1  0  0  0  0
M  END
>  <MODEL>
6

>  <REMARK>
 VINA RESULT:      -5.8      2.941      8.314
  Name = 
  18 active torsions:
  status: ('A' for Active; 'I' for Inactive)
    1  A    between atoms: C_1  and  N_25
    2  A    between atoms: C_3  and  C_31
    3  A    between atoms: C_4  and  O_6
    4  A    between atoms: C_4  and  C_19
    5  A    between atoms: O_6  and  C_33
    6  A    between atoms: C_14  and  C_32
    7  A    between atoms: C_14  and  C_45
    8  A    between atoms: C_15  and  C_19
    9  A    between atoms: C_15  and  O_44
   10  A    between atoms: C_15  and  C_48
   11  A    between atoms: C_16  and  C_31
   12  A    between atoms: C_16  and  C_38
   13  A    between atoms: O_17  and  C_37
   14  A    between atoms: C_20  and  C_38
   15  A    between atoms: C_20  and  C_45
   16  A    between atoms: C_36  and  C_49
   17  A    between atoms: C_39  and  C_40
   18  A    between atoms: C_39  and  O_44
                            x       y       z     vdW  Elec       q    Type
                         _______ _______ _______ _____ _____    ______ ____

>  <TORSDO>
F 18

$$$$
=
 OpenBabel11062421393D

 52 56  0  0  1  0  0  0  0  0999 V2000
  192.0300  173.7910  143.2050 C   0  0  0  0  0  2  0  0  0  0  0  0
  191.1190  171.6380  142.8260 O   0  0  0  0  0  1  0  0  0  0  0  0
  191.0400  172.9670  142.4010 C   0  0  1  0  0  3  0  0  0  0  0  0
  188.7630  172.5670  143.1390 O   0  0  0  0  0  1  0  0  0  0  0  0
  189.6180  173.5160  142.5690 C   0  0  2  0  0  3  0  0  0  0  0  0
  189.1880  173.2390  140.0220 N   0  0  0  0  0  0  0  0  0  0  0  0
  189.9240  172.0070  139.8100 C   0  0  0  0  0  1  0  0  0  0  0  0
  189.0660  173.9480  141.2450 C   0  0  0  0  0  0  0  0  0  0  0  0
  187.9900  175.0090  139.6660 O   0  0  0  0  0  0  0  0  0  0  0  0
  188.5040  173.9120  138.9970 N   0  0  0  0  0  2  0  0  0  0  0  0
  188.3480  175.0190  141.0080 C   0  0  0  0  0  0  0  0  0  0  0  0
  187.9500  176.0740  142.0050 C   0  0  1  0  0  3  0  0  0  0  0  0
  188.5320  177.4730  141.7490 C   0  0  0  0  0  2  0  0  0  0  0  0
  189.7080  177.8010  142.6670 C   0  0  0  0  0  2  0  0  0  0  0  0
  189.2560  177.9830  144.0030 O   0  0  0  0  0  0  0  0  0  0  0  0
  190.9150  175.9050  147.6160 C   0  0  0  0  0  2  0  0  0  0  0  0
  189.9290  174.8910  147.0940 C   0  0  0  0  0  2  0  0  0  0  0  0
  188.7370  175.5500  146.7080 O   0  0  0  0  0  0  0  0  0  0  0  0
  188.6400  176.5040  145.6870 C   0  0  0  0  0  3  0  0  0  0  0  0
  191.6550  176.4990  146.4730 C   0  0  0  0  0  3  0  0  0  0  0  0
  189.6370  177.1490  145.0620 C   0  0  0  0  0  0  0  0  0  0  0  0
  191.0840  177.0390  145.3950 C   0  0  0  0  0  3  0  0  0  0  0  0
  186.5910  176.0490  142.3880 O   0  0  0  0  0  0  0  0  0  0  0  0
  186.0160  177.3070  142.1350 C   0  0  0  0  0  2  0  0  0  0  0  0
  183.8650  178.2600  143.0290 N   0  0  0  0  0  1  0  0  0  0  0  0
  185.5270  177.4940  144.4560 O   0  0  0  0  0  0  0  0  0  0  0  0
  185.1450  177.6970  143.2740 C   0  0  0  0  0  0  0  0  0  0  0  0
  192.3810  173.1040  144.5130 C   0  0  0  0  0  2  0  0  0  0  0  0
  193.8010  172.5620  144.4420 C   0  0  2  0  0  3  0  0  0  0  0  0
  193.9600  171.3110  145.2980 C   0  0  0  0  0  1  0  0  0  0  0  0
  194.5570  174.4770  145.8110 C   0  0  0  0  0  2  0  0  0  0  0  0
  194.7980  173.6130  144.8180 C   0  0  0  0  0  0  0  0  0  0  0  0
  196.0940  173.6570  144.0660 C   0  0  2  0  0  3  0  0  0  0  0  0
  195.3620  175.3630  140.6180 C   0  0  0  0  0  2  0  0  0  0  0  0
  196.3450  174.4520  139.9020 C   0  0  0  0  0  0  0  0  0  0  0  0
  196.3220  174.4310  138.4730 N   0  0  0  0  0  2  0  0  0  0  0  0
  195.8860  173.9220  142.5950 C   0  0  1  0  0  3  0  0  0  0  0  0
  197.5860  172.0360  142.7230 S   0  0  0  0  0  0  0  0  0  0  0  0
  196.8110  172.4490  144.2320 O   0  0  0  0  0  0  0  0  0  0  0  0
  197.1200  173.6240  140.5540 N   0  0  0  0  0  0  0  0  0  0  0  0
  195.4290  175.3130  142.1590 C   0  0  1  0  0  3  0  0  0  0  0  0
  197.2100  173.6340  142.0100 C   0  0  1  0  0  3  0  0  0  0  0  0
  197.3180  173.7260  137.6700 C   0  0  1  0  0  3  0  0  0  0  0  0
  197.9410  172.1660  135.1150 C   0  0  0  0  0  1  0  0  0  0  0  0
  196.8850  172.9650  135.8600 C   0  0  1  0  0  3  0  0  0  0  0  0
  196.7930  172.5100  137.1900 O   0  0  0  0  0  0  0  0  0  0  0  0
  197.4470  174.3040  136.2710 C   0  0  1  0  0  3  0  0  0  0  0  0
  196.4960  175.3010  136.0150 O   0  0  0  0  0  0  0  0  0  0  0  0
  197.1660  176.2360  135.2270 C   0  0  0  0  0  1  0  0  0  0  0  0
  196.2700  176.4310  142.7120 C   0  0  0  0  0  0  0  0  0  0  0  0
  195.9570  177.0000  143.7920 O   0  0  0  0  0  1  0  0  0  0  0  0
  197.4090  176.8320  142.0280 O   0  0  0  0  0  0  0  0  0  0  0  0
  1 28  1  0  0  0  0
  3  5  1  0  0  0  0
  3  2  1  1  0  0  0
  3  1  1  0  0  0  0
  5  4  1  6  0  0  0
  6  8  1  0  0  0  0
  7  6  1  0  0  0  0
  8  5  1  0  0  0  0
  9 11  1  0  0  0  0
 10  9  1  0  0  0  0
 10  6  1  0  0  0  0
 11  8  2  0  0  0  0
 11 12  1  0  0  0  0
 12 13  1  6  0  0  0
 12 23  1  0  0  0  0
 13 14  1  0  0  0  0
 14 15  1  0  0  0  0
 15 21  1  0  0  0  0
 17 16  1  0  0  0  0
 18 17  1  0  0  0  0
 19 18  1  0  0  0  0
 20 16  1  0  0  0  0
 21 22  1  0  0  0  0
 21 19  2  0  0  0  0
 22 20  2  0  0  0  0
 24 23  1  0  0  0  0
 24 27  1  0  0  0  0
 25 27  1  0  0  0  0
 27 26  2  0  0  0  0
 29 28  1  0  0  0  0
 29 32  1  0  0  0  0
 29 30  1  1  0  0  0
 32 31  2  0  0  0  0
 33 39  1  0  0  0  0
 33 32  1  1  0  0  0
 34 41  1  0  0  0  0
 35 40  2  0  0  0  0
 35 34  1  0  0  0  0
 36 35  1  0  0  0  0
 37 33  1  0  0  0  0
 38 39  1  0  0  0  0
 40 42  1  0  0  0  0
 41 37  1  0  0  0  0
 41 50  1  0  0  0  0
 42 37  1  0  0  0  0
 42 38  1  0  0  0  0
 43 36  1  0  0  0  0
 44 45  1  0  0  0  0
 45 47  1  0  0  0  0
 45 46  1  0  0  0  0
 46 43  1  0  0  0  0
 47 43  1  0  0  0  0
 48 47  1  0  0  0  0
 49 48  1  0  0  0  0
 50 51  1  0  0  0  0
 52 50  2  0  0  0  0
M  END
>  <MODEL>
7

>  <REMARK>
 VINA RESULT:      -5.8      2.479      3.959
  Name = 
  18 active torsions:
  status: ('A' for Active; 'I' for Inactive)
    1  A    between atoms: C_1  and  N_25
    2  A    between atoms: C_3  and  C_31
    3  A    between atoms: C_4  and  O_6
    4  A    between atoms: C_4  and  C_19
    5  A    between atoms: O_6  and  C_33
    6  A    between atoms: C_14  and  C_32
    7  A    between atoms: C_14  and  C_45
    8  A    between atoms: C_15  and  C_19
    9  A    between atoms: C_15  and  O_44
   10  A    between atoms: C_15  and  C_48
   11  A    between atoms: C_16  and  C_31
   12  A    between atoms: C_16  and  C_38
   13  A    between atoms: O_17  and  C_37
   14  A    between atoms: C_20  and  C_38
   15  A    between atoms: C_20  and  C_45
   16  A    between atoms: C_36  and  C_49
   17  A    between atoms: C_39  and  C_40
   18  A    between atoms: C_39  and  O_44
                            x       y       z     vdW  Elec       q    Type
                         _______ _______ _______ _____ _____    ______ ____

>  <TORSDO>
F 18

$$$$
=
 OpenBabel11062421393D

 52 56  0  0  1  0  0  0  0  0999 V2000
  195.9580  173.5030  144.2230 C   0  0  0  0  0  2  0  0  0  0  0  0
  194.5310  172.4020  145.7600 O   0  0  0  0  0  1  0  0  0  0  0  0
  195.2080  172.2240  144.5490 C   0  0  1  0  0  3  0  0  0  0  0  0
  192.9760  171.5110  143.9190 O   0  0  0  0  0  1  0  0  0  0  0  0
  194.2340  171.8650  143.4200 C   0  0  2  0  0  3  0  0  0  0  0  0
  194.9420  169.3940  143.0410 N   0  0  0  0  0  0  0  0  0  0  0  0
  194.6800  168.8860  144.3740 C   0  0  0  0  0  1  0  0  0  0  0  0
  194.7780  170.7340  142.6030 C   0  0  0  0  0  0  0  0  0  0  0  0
  195.5310  169.5060  140.9590 O   0  0  0  0  0  0  0  0  0  0  0  0
  195.4290  168.5940  141.9950 N   0  0  0  0  0  2  0  0  0  0  0  0
  195.1490  170.7840  141.3460 C   0  0  0  0  0  0  0  0  0  0  0  0
  195.1450  171.9960  140.4550 C   0  0  1  0  0  3  0  0  0  0  0  0
  193.7590  172.4590  139.9820 C   0  0  0  0  0  2  0  0  0  0  0  0
  193.0610  171.4300  139.0960 C   0  0  0  0  0  2  0  0  0  0  0  0
  191.7390  171.1900  139.5650 O   0  0  0  0  0  0  0  0  0  0  0  0
  188.3500  173.8880  138.3990 C   0  0  0  0  0  2  0  0  0  0  0  0
  188.5190  174.2080  139.8620 C   0  0  0  0  0  2  0  0  0  0  0  0
  188.7140  173.0080  140.5870 O   0  0  0  0  0  0  0  0  0  0  0  0
  189.7970  172.1340  140.4210 C   0  0  0  0  0  3  0  0  0  0  0  0
  189.6900  173.7650  137.7680 C   0  0  0  0  0  3  0  0  0  0  0  0
  190.6960  172.1140  139.4260 C   0  0  0  0  0  0  0  0  0  0  0  0
  190.6750  172.9870  138.2200 C   0  0  0  0  0  3  0  0  0  0  0  0
  196.0220  173.0300  140.8520 O   0  0  0  0  0  0  0  0  0  0  0  0
  195.8010  174.1600  140.0430 C   0  0  0  0  0  2  0  0  0  0  0  0
  195.2950  176.4830  140.8690 N   0  0  0  0  0  1  0  0  0  0  0  0
  197.3110  175.4420  141.3610 O   0  0  0  0  0  0  0  0  0  0  0  0
  196.1950  175.3880  140.7820 C   0  0  0  0  0  0  0  0  0  0  0  0
  195.7670  174.5440  145.3120 C   0  0  0  0  0  2  0  0  0  0  0  0
  194.9170  175.6890  144.7820 C   0  0  2  0  0  3  0  0  0  0  0  0
  195.7840  176.8380  144.2820 C   0  0  0  0  0  1  0  0  0  0  0  0
  194.2000  177.1970  146.6050 C   0  0  0  0  0  2  0  0  0  0  0  0
  193.9340  176.1530  145.8120 C   0  0  0  0  0  0  0  0  0  0  0  0
  192.6250  175.4300  145.9130 C   0  0  2  0  0  3  0  0  0  0  0  0
  190.1440  177.2020  143.4550 C   0  0  0  0  0  2  0  0  0  0  0  0
  188.9780  176.9970  144.4060 C   0  0  0  0  0  0  0  0  0  0  0  0
  187.7660  177.7110  144.1460 N   0  0  0  0  0  2  0  0  0  0  0  0
  191.4890  176.2340  145.3290 C   0  0  1  0  0  3  0  0  0  0  0  0
  190.6220  175.3120  147.5340 S   0  0  0  0  0  0  0  0  0  0  0  0
  192.3340  175.1080  147.2590 O   0  0  0  0  0  0  0  0  0  0  0  0
  189.0910  176.2820  145.4950 N   0  0  0  0  0  0  0  0  0  0  0  0
  191.4250  176.4190  143.8150 C   0  0  1  0  0  3  0  0  0  0  0  0
  190.2900  175.5030  145.7860 C   0  0  1  0  0  3  0  0  0  0  0  0
  186.5290  177.4770  144.8860 C   0  0  1  0  0  3  0  0  0  0  0  0
  184.0040  178.6660  146.1360 C   0  0  0  0  0  1  0  0  0  0  0  0
  185.2290  178.9590  145.2850 C   0  0  1  0  0  3  0  0  0  0  0  0
  186.3780  178.4340  145.9080 O   0  0  0  0  0  0  0  0  0  0  0  0
  185.3040  177.9800  144.1390 C   0  0  1  0  0  3  0  0  0  0  0  0
  185.6400  178.6690  142.9650 O   0  0  0  0  0  0  0  0  0  0  0  0
  184.6690  178.2890  142.0410 C   0  0  0  0  0  1  0  0  0  0  0  0
  191.5220  175.1340  143.0390 C   0  0  0  0  0  0  0  0  0  0  0  0
  190.5970  174.2800  143.0870 O   0  0  0  0  0  1  0  0  0  0  0  0
  192.6420  174.8910  142.2560 O   0  0  0  0  0  0  0  0  0  0  0  0
  1  3  1  0  0  0  0
  1 28  1  0  0  0  0
  3  2  1  1  0  0  0
  5  4  1  1  0  0  0
  5  3  1  0  0  0  0
  6  7  1  0  0  0  0
  8  6  1  0  0  0  0
  8  5  1  0  0  0  0
  9 11  1  0  0  0  0
  9 10  1  0  0  0  0
 10  6  1  0  0  0  0
 11  8  2  0  0  0  0
 12 13  1  1  0  0  0
 12 23  1  0  0  0  0
 12 11  1  0  0  0  0
 14 15  1  0  0  0  0
 14 13  1  0  0  0  0
 16 17  1  0  0  0  0
 17 18  1  0  0  0  0
 19 18  1  0  0  0  0
 20 22  2  0  0  0  0
 20 16  1  0  0  0  0
 21 15  1  0  0  0  0
 21 19  2  0  0  0  0
 22 21  1  0  0  0  0
 24 27  1  0  0  0  0
 24 23  1  0  0  0  0
 27 25  1  0  0  0  0
 27 26  2  0  0  0  0
 29 30  1  1  0  0  0
 29 28  1  0  0  0  0
 29 32  1  0  0  0  0
 32 31  2  0  0  0  0
 33 32  1  1  0  0  0
 33 39  1  0  0  0  0
 34 41  1  0  0  0  0
 34 35  1  0  0  0  0
 35 40  2  0  0  0  0
 36 35  1  0  0  0  0
 36 43  1  0  0  0  0
 37 42  1  0  0  0  0
 37 33  1  0  0  0  0
 39 38  1  0  0  0  0
 40 42  1  0  0  0  0
 41 37  1  0  0  0  0
 42 38  1  0  0  0  0
 43 46  1  0  0  0  0
 45 46  1  0  0  0  0
 45 44  1  0  0  0  0
 47 43  1  0  0  0  0
 47 45  1  0  0  0  0
 48 47  1  0  0  0  0
 49 48  1  0  0  0  0
 50 51  1  0  0  0  0
 50 41  1  0  0  0  0
 52 50  2  0  0  0  0
M  END
>  <MODEL>
8

>  <REMARK>
 VINA RESULT:      -5.8      2.906      7.989
  Name = 
  18 active torsions:
  status: ('A' for Active; 'I' for Inactive)
    1  A    between atoms: C_1  and  N_25
    2  A    between atoms: C_3  and  C_31
    3  A    between atoms: C_4  and  O_6
    4  A    between atoms: C_4  and  C_19
    5  A    between atoms: O_6  and  C_33
    6  A    between atoms: C_14  and  C_32
    7  A    between atoms: C_14  and  C_45
    8  A    between atoms: C_15  and  C_19
    9  A    between atoms: C_15  and  O_44
   10  A    between atoms: C_15  and  C_48
   11  A    between atoms: C_16  and  C_31
   12  A    between atoms: C_16  and  C_38
   13  A    between atoms: O_17  and  C_37
   14  A    between atoms: C_20  and  C_38
   15  A    between atoms: C_20  and  C_45
   16  A    between atoms: C_36  and  C_49
   17  A    between atoms: C_39  and  C_40
   18  A    between atoms: C_39  and  O_44
                            x       y       z     vdW  Elec       q    Type
                         _______ _______ _______ _____ _____    ______ ____

>  <TORSDO>
F 18

$$$$
=
 OpenBabel11062421393D

 52 56  0  0  1  0  0  0  0  0999 V2000
  194.6570  175.2020  142.5720 C   0  0  0  0  0  2  0  0  0  0  0  0
  196.0730  176.6750  141.3750 O   0  0  0  0  0  1  0  0  0  0  0  0
  195.5350  175.3860  141.3460 C   0  0  1  0  0  3  0  0  0  0  0  0
  197.9130  174.9090  141.2920 O   0  0  0  0  0  1  0  0  0  0  0  0
  196.6420  174.3260  141.3090 C   0  0  2  0  0  3  0  0  0  0  0  0
  196.6100  173.8600  138.7530 N   0  0  0  0  0  0  0  0  0  0  0  0
  196.8460  175.2120  138.2830 C   0  0  0  0  0  1  0  0  0  0  0  0
  196.4840  173.4480  140.1060 C   0  0  0  0  0  0  0  0  0  0  0  0
  196.2380  171.7260  138.7830 O   0  0  0  0  0  0  0  0  0  0  0  0
  196.4500  172.7630  137.8920 N   0  0  0  0  0  2  0  0  0  0  0  0
  196.2490  172.1580  140.1030 C   0  0  0  0  0  0  0  0  0  0  0  0
  196.0490  171.2780  141.3070 C   0  0  1  0  0  3  0  0  0  0  0  0
  195.1060  170.0830  141.0970 C   0  0  0  0  0  2  0  0  0  0  0  0
  193.6670  170.3860  141.5090 C   0  0  0  0  0  2  0  0  0  0  0  0
  193.4070  171.7810  141.4090 O   0  0  0  0  0  0  0  0  0  0  0  0
  189.6410  173.4340  139.6190 C   0  0  0  0  0  2  0  0  0  0  0  0
  190.6160  173.5630  138.4770 C   0  0  0  0  0  2  0  0  0  0  0  0
  191.8540  174.0450  138.9680 O   0  0  0  0  0  0  0  0  0  0  0  0
  192.6710  173.3740  139.8860 C   0  0  0  0  0  3  0  0  0  0  0  0
  189.8460  172.1240  140.2890 C   0  0  0  0  0  3  0  0  0  0  0  0
  192.3600  172.3140  140.6480 C   0  0  0  0  0  0  0  0  0  0  0  0
  191.0190  171.6720  140.7340 C   0  0  0  0  0  3  0  0  0  0  0  0
  197.2220  170.9960  142.0400 O   0  0  0  0  0  0  0  0  0  0  0  0
  196.8710  170.3800  143.2560 C   0  0  0  0  0  2  0  0  0  0  0  0
  197.9310  172.4090  144.3030 N   0  0  0  0  0  1  0  0  0  0  0  0
  197.9030  170.3630  145.3990 O   0  0  0  0  0  0  0  0  0  0  0  0
  197.6050  171.0280  144.3740 C   0  0  0  0  0  0  0  0  0  0  0  0
  195.2460  175.9100  143.7790 C   0  0  0  0  0  2  0  0  0  0  0  0
  194.1490  176.1850  144.7960 C   0  0  2  0  0  3  0  0  0  0  0  0
  194.5450  177.3050  145.7500 C   0  0  0  0  0  1  0  0  0  0  0  0
  194.6720  173.9730  145.7660 C   0  0  0  0  0  2  0  0  0  0  0  0
  193.7760  174.9390  145.5380 C   0  0  0  0  0  0  0  0  0  0  0  0
  192.3720  174.8140  146.0470 C   0  0  2  0  0  3  0  0  0  0  0  0
  190.0090  174.9300  142.9270 C   0  0  0  0  0  2  0  0  0  0  0  0
  188.9540  175.7110  143.6920 C   0  0  0  0  0  0  0  0  0  0  0  0
  187.8890  176.3070  142.9480 N   0  0  0  0  0  2  0  0  0  0  0  0
  191.3570  175.2330  145.0120 C   0  0  1  0  0  3  0  0  0  0  0  0
  190.6080  176.3080  147.1910 S   0  0  0  0  0  0  0  0  0  0  0  0
  192.1940  175.5800  147.2220 O   0  0  0  0  0  0  0  0  0  0  0  0
  189.0580  175.9370  144.9760 N   0  0  0  0  0  0  0  0  0  0  0  0
  191.1400  174.3390  143.7930 C   0  0  1  0  0  3  0  0  0  0  0  0
  190.1030  175.3200  145.7860 C   0  0  1  0  0  3  0  0  0  0  0  0
  186.7330  176.9400  143.5790 C   0  0  1  0  0  3  0  0  0  0  0  0
  185.1250  179.5000  144.0450 C   0  0  0  0  0  1  0  0  0  0  0  0
  186.2890  178.8800  143.2890 C   0  0  1  0  0  3  0  0  0  0  0  0
  187.1060  178.1580  144.1810 O   0  0  0  0  0  0  0  0  0  0  0  0
  185.8320  177.6340  142.5710 C   0  0  1  0  0  3  0  0  0  0  0  0
  186.3700  177.6230  141.2770 O   0  0  0  0  0  0  0  0  0  0  0  0
  185.2870  177.8880  140.4400 C   0  0  0  0  0  1  0  0  0  0  0  0
  190.8780  172.8970  144.1350 C   0  0  0  0  0  0  0  0  0  0  0  0
  189.7000  172.4590  144.2210 O   0  0  0  0  0  0  0  0  0  0  0  0
  191.9480  172.0400  144.3470 O   0  0  0  0  0  1  0  0  0  0  0  0
  1 28  1  0  0  0  0
  3  2  1  1  0  0  0
  3  1  1  0  0  0  0
  5  4  1  6  0  0  0
  5  3  1  0  0  0  0
  6  8  1  0  0  0  0
  7  6  1  0  0  0  0
  8  5  1  0  0  0  0
  9 11  1  0  0  0  0
 10  6  1  0  0  0  0
 10  9  1  0  0  0  0
 11  8  2  0  0  0  0
 11 12  1  0  0  0  0
 12 13  1  6  0  0  0
 12 23  1  0  0  0  0
 13 14  1  0  0  0  0
 15 14  1  0  0  0  0
 16 20  1  0  0  0  0
 17 18  1  0  0  0  0
 17 16  1  0  0  0  0
 18 19  1  0  0  0  0
 19 21  2  0  0  0  0
 20 22  2  0  0  0  0
 21 22  1  0  0  0  0
 21 15  1  0  0  0  0
 23 24  1  0  0  0  0
 24 27  1  0  0  0  0
 25 27  1  0  0  0  0
 27 26  2  0  0  0  0
 28 29  1  0  0  0  0
 29 32  1  0  0  0  0
 29 30  1  1  0  0  0
 32 31  2  0  0  0  0
 33 32  1  6  0  0  0
 33 39  1  0  0  0  0
 34 35  1  0  0  0  0
 34 41  1  0  0  0  0
 35 40  2  0  0  0  0
 36 43  1  0  0  0  0
 36 35  1  0  0  0  0
 37 42  1  0  0  0  0
 37 33  1  0  0  0  0
 38 39  1  0  0  0  0
 40 42  1  0  0  0  0
 41 50  1  0  0  0  0
 41 37  1  0  0  0  0
 42 38  1  0  0  0  0
 43 46  1  0  0  0  0
 45 44  1  0  0  0  0
 45 46  1  0  0  0  0
 47 45  1  0  0  0  0
 47 43  1  0  0  0  0
 48 47  1  0  0  0  0
 49 48  1  0  0  0  0
 50 51  2  0  0  0  0
 50 52  1  0  0  0  0
M  END
>  <MODEL>
9

>  <REMARK>
 VINA RESULT:      -5.6      2.890      8.289
  Name = 
  18 active torsions:
  status: ('A' for Active; 'I' for Inactive)
    1  A    between atoms: C_1  and  N_25
    2  A    between atoms: C_3  and  C_31
    3  A    between atoms: C_4  and  O_6
    4  A    between atoms: C_4  and  C_19
    5  A    between atoms: O_6  and  C_33
    6  A    between atoms: C_14  and  C_32
    7  A    between atoms: C_14  and  C_45
    8  A    between atoms: C_15  and  C_19
    9  A    between atoms: C_15  and  O_44
   10  A    between atoms: C_15  and  C_48
   11  A    between atoms: C_16  and  C_31
   12  A    between atoms: C_16  and  C_38
   13  A    between atoms: O_17  and  C_37
   14  A    between atoms: C_20  and  C_38
   15  A    between atoms: C_20  and  C_45
   16  A    between atoms: C_36  and  C_49
   17  A    between atoms: C_39  and  C_40
   18  A    between atoms: C_39  and  O_44
                            x       y       z     vdW  Elec       q    Type
                         _______ _______ _______ _____ _____    ______ ____

>  <TORSDO>
F 18

$$$$
