=
 OpenBabel11062419333D

 40 41  0  0  1  0  0  0  0  0999 V2000
  191.0080  176.0240  145.9210 C   0  0  1  0  0  3  0  0  0  0  0  0
  190.9270  174.6640  145.2810 C   0  0  0  0  0  0  0  0  0  0  0  0
  190.7530  172.1640  144.1080 N   0  0  0  0  0  0  0  0  0  0  0  0
  191.8610  174.2660  144.3180 C   0  0  0  0  0  3  0  0  0  0  0  0
  188.9760  174.1350  146.5710 F   0  0  0  0  0  0  0  0  0  0  0  0
  191.7660  172.9950  143.7310 C   0  0  0  0  0  0  0  0  0  0  0  0
  189.9010  173.7830  145.6440 C   0  0  0  0  0  0  0  0  0  0  0  0
  189.8300  172.5280  145.0400 C   0  0  0  0  0  3  0  0  0  0  0  0
  192.7210  172.5660  142.7420 N   0  0  0  0  0  0  0  0  0  0  0  0
  192.3720  172.5470  141.3520 C   0  0  0  0  0  3  0  0  0  0  0  0
  193.2030  172.1890  140.4760 O   0  0  0  0  0  0  0  0  0  0  0  0
  194.0710  172.1860  143.1490 C   0  0  0  0  0  2  0  0  0  0  0  0
  195.5050  173.6800  144.7900 C   0  0  0  0  0  2  0  0  0  0  0  0
  194.8770  173.3990  143.4700 C   0  0  0  0  0  0  0  0  0  0  0  0
  196.1830  174.9390  144.5290 N   0  0  0  0  0  0  0  0  0  0  0  0
  195.9560  175.2480  143.2940 C   0  0  0  0  0  0  0  0  0  0  0  0
  195.1500  174.3080  142.5980 N   0  0  0  0  0  0  0  0  0  0  0  0
  196.0280  176.8610  141.3790 N   0  0  0  0  0  1  0  0  0  0  0  0
  197.3620  177.1520  143.2540 O   0  0  0  0  0  0  0  0  0  0  0  0
  196.4900  176.4610  142.6650 C   0  0  0  0  0  0  0  0  0  0  0  0
  193.2790  176.3850  146.5390 F   0  0  0  0  0  0  0  0  0  0  0  0
  192.0320  176.0870  147.0580 C   0  0  0  0  0  0  0  0  0  0  0  0
  192.1000  174.8760  147.7260 F   0  0  0  0  0  0  0  0  0  0  0  0
  191.6780  177.0790  147.9540 F   0  0  0  0  0  0  0  0  0  0  0  0
  191.2450  177.1230  144.8860 C   0  0  0  0  0  2  0  0  0  0  0  0
  189.9760  177.9270  144.6370 C   0  0  0  0  0  2  0  0  0  0  0  0
  189.3260  177.5360  143.3180 C   0  0  0  0  0  1  0  0  0  0  0  0
  185.8910  176.4940  145.5780 C   0  0  0  0  0  2  0  0  0  0  0  0
  186.4760  176.6670  142.4520 C   0  0  0  0  0  2  0  0  0  0  0  0
  186.8870  177.4050  144.8780 C   0  0  0  0  0  2  0  0  0  0  0  0
  183.8220  178.1100  146.5680 O   0  0  0  0  0  1  0  0  0  0  0  0
  186.5800  178.0720  141.9150 C   0  0  0  0  0  2  0  0  0  0  0  0
  185.7960  179.3200  146.7900 C   0  0  0  0  0  2  0  0  0  0  0  0
  185.7360  176.9050  147.0440 C   0  0  0  0  0  2  0  0  0  0  0  0
  185.0040  178.1630  147.2350 N   0  0  0  0  0  0  0  0  0  0  0  0
  187.4430  175.8740  142.0310 O   0  0  0  0  0  0  0  0  0  0  0  0
  185.9910  179.0440  142.9390 C   0  0  0  0  0  2  0  0  0  0  0  0
  186.2300  178.6980  144.4000 C   0  0  0  0  0  0  0  0  0  0  0  0
  185.7350  179.5540  145.3000 C   0  0  0  0  0  3  0  0  0  0  0  0
  187.8560  176.5040  143.6170 P   0  0  0  0  0  1  0  0  0  0  0  0
  1 25  1  6  0  0  0
  1 22  1  0  0  0  0
  2  7  1  0  0  0  0
  2  1  1  0  0  0  0
  3  8  1  0  0  0  0
  4  2  2  0  0  0  0
  6  3  2  0  0  0  0
  6  4  1  0  0  0  0
  7  5  1  0  0  0  0
  8  7  2  0  0  0  0
  9 12  1  0  0  0  0
  9  6  1  0  0  0  0
 10  9  1  0  0  0  0
 11 10  2  0  0  0  0
 12 14  1  0  0  0  0
 14 13  1  0  0  0  0
 15 13  1  0  0  0  0
 16 15  2  0  0  0  0
 17 16  1  0  0  0  0
 17 14  2  0  0  0  0
 18 20  1  0  0  0  0
 20 19  2  0  0  0  0
 20 16  1  0  0  0  0
 21 22  1  0  0  0  0
 22 23  1  0  0  0  0
 22 24  1  0  0  0  0
 26 25  1  0  0  0  0
 27 26  1  0  0  0  0
 28 34  1  0  0  0  0
 30 28  1  0  0  0  0
 31 35  1  0  0  0  0
 32 29  1  0  0  0  0
 32 37  1  0  0  0  0
 33 35  1  0  0  0  0
 34 35  1  0  0  0  0
 36 29  1  0  0  0  0
 36 40  1  0  0  0  0
 37 38  1  0  0  0  0
 38 30  1  0  0  0  0
 38 39  2  0  0  0  0
 39 33  1  0  0  0  0
M  END
>  <MODEL>
1

>  <REMARK>
 VINA RESULT:      -8.0      0.000      0.000
  Name = 
  10 active torsions:
  status: ('A' for Active; 'I' for Inactive)
    1  A    between atoms: N_3  and  C_14
    2  A    between atoms: N_3  and  C_30
    3  A    between atoms: C_8  and  C_21
    4  A    between atoms: C_11  and  C_22
    5  A    between atoms: C_11  and  P_37
    6  A    between atoms: C_13  and  C_21
    7  A    between atoms: C_13  and  C_22
    8  A    between atoms: C_14  and  C_19
    9  A    between atoms: C_21  and  C_27
   10  A    between atoms: C_26  and  C_38
                            x       y       z     vdW  Elec       q    Type
                         _______ _______ _______ _____ _____    ______ ____

>  <TORSDO>
F 10

$$$$
=
 OpenBabel11062419333D

 40 41  0  0  1  0  0  0  0  0999 V2000
  191.0510  175.9420  145.9570 C   0  0  1  0  0  3  0  0  0  0  0  0
  191.8020  174.7020  145.5520 C   0  0  0  0  0  0  0  0  0  0  0  0
  193.1660  172.4190  144.7890 N   0  0  0  0  0  0  0  0  0  0  0  0
  193.1860  174.6060  145.7400 C   0  0  0  0  0  3  0  0  0  0  0  0
  189.7750  173.6890  144.7700 F   0  0  0  0  0  0  0  0  0  0  0  0
  193.8680  173.4430  145.3530 C   0  0  0  0  0  0  0  0  0  0  0  0
  191.1150  173.6300  144.9710 C   0  0  0  0  0  0  0  0  0  0  0  0
  191.8210  172.4880  144.5930 C   0  0  0  0  0  3  0  0  0  0  0  0
  195.2900  173.3230  145.5440 N   0  0  0  0  0  0  0  0  0  0  0  0
  195.9070  172.0330  145.6310 C   0  0  0  0  0  3  0  0  0  0  0  0
  197.1530  171.9140  145.7810 O   0  0  0  0  0  0  0  0  0  0  0  0
  196.1210  174.5230  145.6090 C   0  0  0  0  0  2  0  0  0  0  0  0
  196.0050  176.5240  143.8880 C   0  0  0  0  0  2  0  0  0  0  0  0
  196.2920  175.1090  144.2490 C   0  0  0  0  0  0  0  0  0  0  0  0
  196.3820  176.5500  142.4840 N   0  0  0  0  0  0  0  0  0  0  0  0
  196.8000  175.3660  142.1770 C   0  0  0  0  0  0  0  0  0  0  0  0
  196.7650  174.4400  143.2540 N   0  0  0  0  0  0  0  0  0  0  0  0
  197.9410  173.7730  140.6180 N   0  0  0  0  0  1  0  0  0  0  0  0
  197.0980  175.7990  139.8690 O   0  0  0  0  0  0  0  0  0  0  0  0
  197.2740  175.0110  140.8350 C   0  0  0  0  0  0  0  0  0  0  0  0
  192.5040  176.9060  147.5790 F   0  0  0  0  0  0  0  0  0  0  0  0
  191.2640  176.3130  147.4280 C   0  0  0  0  0  0  0  0  0  0  0  0
  191.2010  175.1880  148.2320 F   0  0  0  0  0  0  0  0  0  0  0  0
  190.2930  177.2120  147.8300 F   0  0  0  0  0  0  0  0  0  0  0  0
  191.3570  177.1170  145.0290 C   0  0  0  0  0  2  0  0  0  0  0  0
  190.0980  177.9160  144.7210 C   0  0  0  0  0  2  0  0  0  0  0  0
  189.4650  177.4650  143.4130 C   0  0  0  0  0  1  0  0  0  0  0  0
  185.9980  176.4840  145.6500 C   0  0  0  0  0  2  0  0  0  0  0  0
  186.6560  176.4810  142.5340 C   0  0  0  0  0  2  0  0  0  0  0  0
  186.9910  177.3720  144.9200 C   0  0  0  0  0  2  0  0  0  0  0  0
  183.8710  178.1100  146.4910 O   0  0  0  0  0  1  0  0  0  0  0  0
  186.7440  177.8530  141.9160 C   0  0  0  0  0  2  0  0  0  0  0  0
  185.8130  179.3740  146.6860 C   0  0  0  0  0  2  0  0  0  0  0  0
  185.7980  176.9790  147.0850 C   0  0  0  0  0  2  0  0  0  0  0  0
  185.0350  178.2290  147.1820 N   0  0  0  0  0  0  0  0  0  0  0  0
  187.6500  175.6860  142.1850 O   0  0  0  0  0  0  0  0  0  0  0  0
  186.1100  178.8720  142.8650 C   0  0  0  0  0  2  0  0  0  0  0  0
  186.3200  178.6200  144.3490 C   0  0  0  0  0  0  0  0  0  0  0  0
  185.7840  179.5170  145.1840 C   0  0  0  0  0  3  0  0  0  0  0  0
  188.0100  176.4200  143.7390 P   0  0  0  0  0  1  0  0  0  0  0  0
  1 25  1  6  0  0  0
  1 22  1  0  0  0  0
  2  4  1  0  0  0  0
  2  1  1  0  0  0  0
  3  6  1  0  0  0  0
  5  7  1  0  0  0  0
  6  9  1  0  0  0  0
  6  4  2  0  0  0  0
  7  2  2  0  0  0  0
  8  3  2  0  0  0  0
  8  7  1  0  0  0  0
  9 12  1  0  0  0  0
  9 10  1  0  0  0  0
 10 11  2  0  0  0  0
 13 14  1  0  0  0  0
 14 12  1  0  0  0  0
 15 13  1  0  0  0  0
 16 15  2  0  0  0  0
 16 17  1  0  0  0  0
 17 14  2  0  0  0  0
 18 20  1  0  0  0  0
 19 20  2  0  0  0  0
 20 16  1  0  0  0  0
 22 21  1  0  0  0  0
 22 24  1  0  0  0  0
 22 23  1  0  0  0  0
 26 25  1  0  0  0  0
 27 26  1  0  0  0  0
 28 34  1  0  0  0  0
 30 28  1  0  0  0  0
 31 35  1  0  0  0  0
 32 29  1  0  0  0  0
 32 37  1  0  0  0  0
 33 35  1  0  0  0  0
 34 35  1  0  0  0  0
 36 29  1  0  0  0  0
 36 40  1  0  0  0  0
 37 38  1  0  0  0  0
 38 30  1  0  0  0  0
 38 39  2  0  0  0  0
 39 33  1  0  0  0  0
M  END
>  <MODEL>
2

>  <REMARK>
 VINA RESULT:      -8.0      1.634      2.238
  Name = 
  10 active torsions:
  status: ('A' for Active; 'I' for Inactive)
    1  A    between atoms: N_3  and  C_14
    2  A    between atoms: N_3  and  C_30
    3  A    between atoms: C_8  and  C_21
    4  A    between atoms: C_11  and  C_22
    5  A    between atoms: C_11  and  P_37
    6  A    between atoms: C_13  and  C_21
    7  A    between atoms: C_13  and  C_22
    8  A    between atoms: C_14  and  C_19
    9  A    between atoms: C_21  and  C_27
   10  A    between atoms: C_26  and  C_38
                            x       y       z     vdW  Elec       q    Type
                         _______ _______ _______ _____ _____    ______ ____

>  <TORSDO>
F 10

$$$$
=
 OpenBabel11062419333D

 40 41  0  0  1  0  0  0  0  0999 V2000
  191.0520  176.0610  145.6660 C   0  0  1  0  0  3  0  0  0  0  0  0
  190.7930  174.7350  145.0030 C   0  0  0  0  0  0  0  0  0  0  0  0
  190.2930  172.2970  143.7940 N   0  0  0  0  0  0  0  0  0  0  0  0
  191.4070  174.4060  143.7890 C   0  0  0  0  0  3  0  0  0  0  0  0
  189.3030  174.1030  146.7720 F   0  0  0  0  0  0  0  0  0  0  0  0
  191.1500  173.1660  143.1860 C   0  0  0  0  0  0  0  0  0  0  0  0
  189.9190  173.8170  145.5980 C   0  0  0  0  0  0  0  0  0  0  0  0
  189.6800  172.5940  144.9720 C   0  0  0  0  0  3  0  0  0  0  0  0
  191.7770  172.8070  141.9410 N   0  0  0  0  0  0  0  0  0  0  0  0
  193.0550  173.3510  141.5860 C   0  0  0  0  0  3  0  0  0  0  0  0
  193.6230  173.0330  140.5070 O   0  0  0  0  0  0  0  0  0  0  0  0
  191.1310  171.8500  141.0460 C   0  0  0  0  0  2  0  0  0  0  0  0
  188.8000  172.9670  140.5010 C   0  0  0  0  0  2  0  0  0  0  0  0
  190.1810  172.5510  140.1360 C   0  0  0  0  0  0  0  0  0  0  0  0
  188.3610  173.6260  139.2820 N   0  0  0  0  0  0  0  0  0  0  0  0
  189.3430  173.5720  138.4410 C   0  0  0  0  0  0  0  0  0  0  0  0
  190.4980  172.9140  138.9400 N   0  0  0  0  0  0  0  0  0  0  0  0
  190.3310  173.9320  136.1690 N   0  0  0  0  0  1  0  0  0  0  0  0
  188.2740  174.8330  136.7470 O   0  0  0  0  0  0  0  0  0  0  0  0
  189.2700  174.1460  137.0930 C   0  0  0  0  0  0  0  0  0  0  0  0
  193.3080  176.6920  146.0930 F   0  0  0  0  0  0  0  0  0  0  0  0
  192.2330  176.0180  146.6410 C   0  0  0  0  0  0  0  0  0  0  0  0
  192.6050  174.7100  146.9040 F   0  0  0  0  0  0  0  0  0  0  0  0
  191.8830  176.6360  147.8280 F   0  0  0  0  0  0  0  0  0  0  0  0
  191.2070  177.1850  144.6430 C   0  0  0  0  0  2  0  0  0  0  0  0
  189.9020  177.9470  144.4620 C   0  0  0  0  0  2  0  0  0  0  0  0
  189.2120  177.5600  143.1630 C   0  0  0  0  0  1  0  0  0  0  0  0
  185.8710  176.4940  145.5480 C   0  0  0  0  0  2  0  0  0  0  0  0
  186.3190  176.7310  142.4040 C   0  0  0  0  0  2  0  0  0  0  0  0
  186.8420  177.4120  144.8260 C   0  0  0  0  0  2  0  0  0  0  0  0
  183.8610  178.1030  146.6630 O   0  0  0  0  0  1  0  0  0  0  0  0
  186.4110  178.1470  141.8940 C   0  0  0  0  0  2  0  0  0  0  0  0
  185.8520  179.2930  146.8250 C   0  0  0  0  0  2  0  0  0  0  0  0
  185.7840  176.8740  147.0290 C   0  0  0  0  0  2  0  0  0  0  0  0
  185.0720  178.1320  147.2790 N   0  0  0  0  0  0  0  0  0  0  0  0
  187.2600  175.9410  141.9240 O   0  0  0  0  0  0  0  0  0  0  0  0
  185.8760  179.1010  142.9640 C   0  0  0  0  0  2  0  0  0  0  0  0
  186.1760  178.7210  144.4050 C   0  0  0  0  0  0  0  0  0  0  0  0
  185.7280  179.5600  145.3450 C   0  0  0  0  0  3  0  0  0  0  0  0
  187.7480  176.5330  143.5040 P   0  0  0  0  0  1  0  0  0  0  0  0
  1 25  1  6  0  0  0
  1 22  1  0  0  0  0
  2  7  1  0  0  0  0
  2  1  1  0  0  0  0
  3  8  1  0  0  0  0
  4  2  2  0  0  0  0
  6  4  1  0  0  0  0
  6  3  2  0  0  0  0
  7  5  1  0  0  0  0
  8  7  2  0  0  0  0
  9  6  1  0  0  0  0
 10  9  1  0  0  0  0
 11 10  2  0  0  0  0
 12  9  1  0  0  0  0
 14 13  1  0  0  0  0
 14 12  1  0  0  0  0
 15 13  1  0  0  0  0
 16 17  1  0  0  0  0
 16 15  2  0  0  0  0
 17 14  2  0  0  0  0
 18 20  1  0  0  0  0
 19 20  2  0  0  0  0
 20 16  1  0  0  0  0
 21 22  1  0  0  0  0
 22 23  1  0  0  0  0
 22 24  1  0  0  0  0
 26 25  1  0  0  0  0
 27 26  1  0  0  0  0
 28 34  1  0  0  0  0
 30 28  1  0  0  0  0
 31 35  1  0  0  0  0
 32 29  1  0  0  0  0
 32 37  1  0  0  0  0
 33 35  1  0  0  0  0
 34 35  1  0  0  0  0
 36 29  1  0  0  0  0
 36 40  1  0  0  0  0
 37 38  1  0  0  0  0
 38 30  1  0  0  0  0
 38 39  2  0  0  0  0
 39 33  1  0  0  0  0
M  END
>  <MODEL>
3

>  <REMARK>
 VINA RESULT:      -7.9      2.290      3.883
  Name = 
  10 active torsions:
  status: ('A' for Active; 'I' for Inactive)
    1  A    between atoms: N_3  and  C_14
    2  A    between atoms: N_3  and  C_30
    3  A    between atoms: C_8  and  C_21
    4  A    between atoms: C_11  and  C_22
    5  A    between atoms: C_11  and  P_37
    6  A    between atoms: C_13  and  C_21
    7  A    between atoms: C_13  and  C_22
    8  A    between atoms: C_14  and  C_19
    9  A    between atoms: C_21  and  C_27
   10  A    between atoms: C_26  and  C_38
                            x       y       z     vdW  Elec       q    Type
                         _______ _______ _______ _____ _____    ______ ____

>  <TORSDO>
F 10

$$$$
=
 OpenBabel11062419333D

 40 41  0  0  1  0  0  0  0  0999 V2000
  190.3490  174.6360  145.4620 C   0  0  1  0  0  3  0  0  0  0  0  0
  190.3000  175.8530  144.5780 C   0  0  0  0  0  0  0  0  0  0  0  0
  190.2350  178.0930  142.9550 N   0  0  0  0  0  0  0  0  0  0  0  0
  189.2490  176.0430  143.6740 C   0  0  0  0  0  3  0  0  0  0  0  0
  192.3570  176.6570  145.5130 F   0  0  0  0  0  0  0  0  0  0  0  0
  189.2230  177.1830  142.8570 C   0  0  0  0  0  0  0  0  0  0  0  0
  191.3210  176.8090  144.6510 C   0  0  0  0  0  0  0  0  0  0  0  0
  191.2690  177.9310  143.8240 C   0  0  0  0  0  3  0  0  0  0  0  0
  188.1470  177.3990  141.9250 N   0  0  0  0  0  0  0  0  0  0  0  0
  187.7720  176.3730  140.9960 C   0  0  0  0  0  3  0  0  0  0  0  0
  186.8210  176.5430  140.1870 O   0  0  0  0  0  0  0  0  0  0  0  0
  187.4010  178.6540  141.9480 C   0  0  0  0  0  2  0  0  0  0  0  0
  184.8550  178.3400  142.5810 C   0  0  0  0  0  2  0  0  0  0  0  0
  186.2830  178.5740  142.9310 C   0  0  0  0  0  0  0  0  0  0  0  0
  184.2330  178.3130  143.8950 N   0  0  0  0  0  0  0  0  0  0  0  0
  185.1710  178.4900  144.7680 C   0  0  0  0  0  0  0  0  0  0  0  0
  186.4650  178.6500  144.2050 N   0  0  0  0  0  0  0  0  0  0  0  0
  185.7750  179.2630  147.0720 N   0  0  0  0  0  1  0  0  0  0  0  0
  183.9530  177.8760  146.7020 O   0  0  0  0  0  0  0  0  0  0  0  0
  184.9200  178.5160  146.2130 C   0  0  0  0  0  0  0  0  0  0  0  0
  189.0810  176.0730  146.8730 F   0  0  0  0  0  0  0  0  0  0  0  0
  189.8140  174.9010  146.8720 C   0  0  0  0  0  0  0  0  0  0  0  0
  190.8540  175.0180  147.7780 F   0  0  0  0  0  0  0  0  0  0  0  0
  188.9880  173.8630  147.2620 F   0  0  0  0  0  0  0  0  0  0  0  0
  189.6590  173.4370  144.8120 C   0  0  0  0  0  2  0  0  0  0  0  0
  190.6110  172.2560  144.6850 C   0  0  0  0  0  2  0  0  0  0  0  0
  192.0610  172.7170  144.6630 C   0  0  0  0  0  1  0  0  0  0  0  0
  192.0380  171.2310  140.6900 C   0  0  0  0  0  2  0  0  0  0  0  0
  193.9670  173.2170  142.2660 C   0  0  0  0  0  2  0  0  0  0  0  0
  191.6710  172.1430  141.8490 C   0  0  0  0  0  2  0  0  0  0  0  0
  190.7880  172.2430  138.3910 O   0  0  0  0  0  1  0  0  0  0  0  0
  193.3800  174.5810  142.5220 C   0  0  0  0  0  2  0  0  0  0  0  0
  189.3280  172.5880  140.1680 C   0  0  0  0  0  2  0  0  0  0  0  0
  190.7750  170.6410  140.0580 C   0  0  0  0  0  2  0  0  0  0  0  0
  189.9870  171.6110  139.2880 N   0  0  0  0  0  0  0  0  0  0  0  0
  194.5470  172.6900  143.3270 O   0  0  0  0  0  0  0  0  0  0  0  0
  192.1620  174.7810  141.6180 C   0  0  0  0  0  2  0  0  0  0  0  0
  191.3080  173.5480  141.3700 C   0  0  0  0  0  0  0  0  0  0  0  0
  190.2310  173.7190  140.5960 C   0  0  0  0  0  3  0  0  0  0  0  0
  192.9110  172.0670  143.1890 P   0  0  0  0  0  1  0  0  0  0  0  0
  1 25  1  6  0  0  0
  1 22  1  0  0  0  0
  2  7  1  0  0  0  0
  2  1  1  0  0  0  0
  3  8  1  0  0  0  0
  4  2  2  0  0  0  0
  6  3  2  0  0  0  0
  6  4  1  0  0  0  0
  7  5  1  0  0  0  0
  8  7  2  0  0  0  0
  9 12  1  0  0  0  0
  9  6  1  0  0  0  0
 10  9  1  0  0  0  0
 11 10  2  0  0  0  0
 12 14  1  0  0  0  0
 13 14  1  0  0  0  0
 13 15  1  0  0  0  0
 14 17  2  0  0  0  0
 15 16  2  0  0  0  0
 16 20  1  0  0  0  0
 17 16  1  0  0  0  0
 20 19  2  0  0  0  0
 20 18  1  0  0  0  0
 22 21  1  0  0  0  0
 22 24  1  0  0  0  0
 22 23  1  0  0  0  0
 26 25  1  0  0  0  0
 27 26  1  0  0  0  0
 28 30  1  0  0  0  0
 29 32  1  0  0  0  0
 29 36  1  0  0  0  0
 31 35  1  0  0  0  0
 33 39  1  0  0  0  0
 34 28  1  0  0  0  0
 35 34  1  0  0  0  0
 35 33  1  0  0  0  0
 37 32  1  0  0  0  0
 38 37  1  0  0  0  0
 38 30  1  0  0  0  0
 39 38  2  0  0  0  0
 40 36  1  0  0  0  0
M  END
>  <MODEL>
4

>  <REMARK>
 VINA RESULT:      -7.8      2.926      8.181
  Name = 
  10 active torsions:
  status: ('A' for Active; 'I' for Inactive)
    1  A    between atoms: N_3  and  C_14
    2  A    between atoms: N_3  and  C_30
    3  A    between atoms: C_8  and  C_21
    4  A    between atoms: C_11  and  C_22
    5  A    between atoms: C_11  and  P_37
    6  A    between atoms: C_13  and  C_21
    7  A    between atoms: C_13  and  C_22
    8  A    between atoms: C_14  and  C_19
    9  A    between atoms: C_21  and  C_27
   10  A    between atoms: C_26  and  C_38
                            x       y       z     vdW  Elec       q    Type
                         _______ _______ _______ _____ _____    ______ ____

>  <TORSDO>
F 10

$$$$
=
 OpenBabel11062419333D

 40 41  0  0  1  0  0  0  0  0999 V2000
  188.6270  174.2250  142.5560 C   0  0  1  0  0  3  0  0  0  0  0  0
  188.2490  175.6480  142.2450 C   0  0  0  0  0  0  0  0  0  0  0  0
  187.5740  178.2670  141.6610 N   0  0  0  0  0  0  0  0  0  0  0  0
  186.9050  176.0370  142.1760 C   0  0  0  0  0  3  0  0  0  0  0  0
  190.5600  176.2610  142.0690 F   0  0  0  0  0  0  0  0  0  0  0  0
  186.5740  177.3670  141.8810 C   0  0  0  0  0  0  0  0  0  0  0  0
  189.2480  176.6010  142.0130 C   0  0  0  0  0  0  0  0  0  0  0  0
  188.8870  177.9160  141.7200 C   0  0  0  0  0  3  0  0  0  0  0  0
  185.1980  177.7860  141.8120 N   0  0  0  0  0  0  0  0  0  0  0  0
  184.6570  178.3110  140.5920 C   0  0  0  0  0  3  0  0  0  0  0  0
  183.4510  178.6660  140.5130 O   0  0  0  0  0  0  0  0  0  0  0  0
  184.3300  177.6400  142.9770 C   0  0  0  0  0  2  0  0  0  0  0  0
  185.3700  179.6590  144.3270 C   0  0  0  0  0  2  0  0  0  0  0  0
  184.9780  178.2300  144.1830 C   0  0  0  0  0  0  0  0  0  0  0  0
  185.9000  179.6820  145.6810 N   0  0  0  0  0  0  0  0  0  0  0  0
  185.7900  178.4840  146.1560 C   0  0  0  0  0  0  0  0  0  0  0  0
  185.2130  177.5510  145.2530 N   0  0  0  0  0  0  0  0  0  0  0  0
  186.9540  179.0520  148.2990 N   0  0  0  0  0  1  0  0  0  0  0  0
  185.9440  176.9890  147.9840 O   0  0  0  0  0  0  0  0  0  0  0  0
  186.2190  178.1220  147.5120 C   0  0  0  0  0  0  0  0  0  0  0  0
  189.2520  172.2680  141.3530 F   0  0  0  0  0  0  0  0  0  0  0  0
  188.2890  173.2570  141.4180 C   0  0  0  0  0  0  0  0  0  0  0  0
  188.2440  173.9230  140.2040 F   0  0  0  0  0  0  0  0  0  0  0  0
  187.0620  172.6640  141.6560 F   0  0  0  0  0  0  0  0  0  0  0  0
  190.0900  174.1090  142.9800 C   0  0  0  0  0  2  0  0  0  0  0  0
  190.2090  173.6310  144.4210 C   0  0  0  0  0  2  0  0  0  0  0  0
  189.3170  174.4450  145.3470 C   0  0  0  0  0  1  0  0  0  0  0  0
  192.9780  175.9260  146.8940 C   0  0  0  0  0  2  0  0  0  0  0  0
  189.9640  176.9390  147.0770 C   0  0  0  0  0  2  0  0  0  0  0  0
  191.8720  175.7080  145.8750 C   0  0  0  0  0  2  0  0  0  0  0  0
  194.8380  177.6910  145.7560 O   0  0  0  0  0  1  0  0  0  0  0  0
  189.4320  177.5400  145.8010 C   0  0  0  0  0  2  0  0  0  0  0  0
  194.0550  176.3290  144.0410 C   0  0  0  0  0  2  0  0  0  0  0  0
  194.3290  175.5060  146.3090 C   0  0  0  0  0  2  0  0  0  0  0  0
  194.8420  176.4180  145.2810 N   0  0  0  0  0  0  0  0  0  0  0  0
  189.1310  176.0830  147.6380 O   0  0  0  0  0  0  0  0  0  0  0  0
  190.6040  177.8600  144.8700 C   0  0  0  0  0  2  0  0  0  0  0  0
  191.7640  176.8780  144.9000 C   0  0  0  0  0  0  0  0  0  0  0  0
  192.7830  177.1410  144.0750 C   0  0  0  0  0  3  0  0  0  0  0  0
  190.3070  175.2040  146.6730 P   0  0  0  0  0  1  0  0  0  0  0  0
  1 25  1  6  0  0  0
  2  1  1  0  0  0  0
  3  8  2  0  0  0  0
  3  6  1  0  0  0  0
  4  2  1  0  0  0  0
  6  4  2  0  0  0  0
  7  5  1  0  0  0  0
  7  2  2  0  0  0  0
  8  7  1  0  0  0  0
  9  6  1  0  0  0  0
  9 12  1  0  0  0  0
 10  9  1  0  0  0  0
 11 10  2  0  0  0  0
 12 14  1  0  0  0  0
 13 15  1  0  0  0  0
 14 13  1  0  0  0  0
 14 17  2  0  0  0  0
 15 16  2  0  0  0  0
 16 20  1  0  0  0  0
 17 16  1  0  0  0  0
 20 19  2  0  0  0  0
 20 18  1  0  0  0  0
 21 22  1  0  0  0  0
 22 24  1  0  0  0  0
 22  1  1  0  0  0  0
 23 22  1  0  0  0  0
 25 26  1  0  0  0  0
 26 27  1  0  0  0  0
 29 36  1  0  0  0  0
 30 28  1  0  0  0  0
 32 29  1  0  0  0  0
 33 39  1  0  0  0  0
 33 35  1  0  0  0  0
 34 28  1  0  0  0  0
 35 31  1  0  0  0  0
 35 34  1  0  0  0  0
 37 38  1  0  0  0  0
 37 32  1  0  0  0  0
 38 30  1  0  0  0  0
 39 38  2  0  0  0  0
 40 36  1  0  0  0  0
M  END
>  <MODEL>
5

>  <REMARK>
 VINA RESULT:      -7.7      3.332      8.302
  Name = 
  10 active torsions:
  status: ('A' for Active; 'I' for Inactive)
    1  A    between atoms: N_3  and  C_14
    2  A    between atoms: N_3  and  C_30
    3  A    between atoms: C_8  and  C_21
    4  A    between atoms: C_11  and  C_22
    5  A    between atoms: C_11  and  P_37
    6  A    between atoms: C_13  and  C_21
    7  A    between atoms: C_13  and  C_22
    8  A    between atoms: C_14  and  C_19
    9  A    between atoms: C_21  and  C_27
   10  A    between atoms: C_26  and  C_38
                            x       y       z     vdW  Elec       q    Type
                         _______ _______ _______ _____ _____    ______ ____

>  <TORSDO>
F 10

$$$$
=
 OpenBabel11062419333D

 40 41  0  0  1  0  0  0  0  0999 V2000
  190.2590  173.1810  142.3290 C   0  0  1  0  0  3  0  0  0  0  0  0
  189.3980  173.8570  141.2960 C   0  0  0  0  0  0  0  0  0  0  0  0
  187.8100  175.0790  139.3880 N   0  0  0  0  0  0  0  0  0  0  0  0
  188.7610  175.0720  141.5750 C   0  0  0  0  0  3  0  0  0  0  0  0
  189.8200  172.0870  139.7340 F   0  0  0  0  0  0  0  0  0  0  0  0
  187.9610  175.6850  140.6000 C   0  0  0  0  0  0  0  0  0  0  0  0
  189.2210  173.2660  140.0400 C   0  0  0  0  0  0  0  0  0  0  0  0
  188.4160  173.8980  139.0920 C   0  0  0  0  0  3  0  0  0  0  0  0
  187.3020  176.9380  140.8670 N   0  0  0  0  0  0  0  0  0  0  0  0
  186.1930  177.3630  140.0650 C   0  0  0  0  0  3  0  0  0  0  0  0
  185.5980  178.4490  140.2990 O   0  0  0  0  0  0  0  0  0  0  0  0
  187.7370  177.7670  141.9890 C   0  0  0  0  0  2  0  0  0  0  0  0
  186.2200  176.3050  143.5840 C   0  0  0  0  0  2  0  0  0  0  0  0
  186.8120  177.5990  143.1460 C   0  0  0  0  0  0  0  0  0  0  0  0
  185.4560  176.7140  144.7520 N   0  0  0  0  0  0  0  0  0  0  0  0
  185.6310  177.9870  144.8990 C   0  0  0  0  0  0  0  0  0  0  0  0
  186.4760  178.5740  143.9190 N   0  0  0  0  0  0  0  0  0  0  0  0
  185.8110  179.2290  147.0650 N   0  0  0  0  0  1  0  0  0  0  0  0
  183.7790  178.9970  145.9720 O   0  0  0  0  0  0  0  0  0  0  0  0
  185.0140  178.7550  145.9850 C   0  0  0  0  0  0  0  0  0  0  0  0
  189.8950  171.8690  144.2820 F   0  0  0  0  0  0  0  0  0  0  0  0
  189.5980  171.9390  142.9330 C   0  0  0  0  0  0  0  0  0  0  0  0
  190.0540  170.7880  142.3110 F   0  0  0  0  0  0  0  0  0  0  0  0
  188.2250  172.0200  142.7870 F   0  0  0  0  0  0  0  0  0  0  0  0
  191.6540  172.8710  141.7870 C   0  0  0  0  0  2  0  0  0  0  0  0
  192.4330  174.1500  141.5110 C   0  0  0  0  0  2  0  0  0  0  0  0
  193.6950  174.2210  142.3580 C   0  0  0  0  0  1  0  0  0  0  0  0
  191.8150  177.3220  144.5580 C   0  0  0  0  0  2  0  0  0  0  0  0
  194.5730  175.7670  144.9020 C   0  0  0  0  0  2  0  0  0  0  0  0
  192.1270  175.8990  144.1270 C   0  0  0  0  0  2  0  0  0  0  0  0
  190.0070  177.1770  146.6990 O   0  0  0  0  0  1  0  0  0  0  0  0
  194.4300  174.3500  145.3980 C   0  0  0  0  0  2  0  0  0  0  0  0
  189.4620  175.4580  145.2310 C   0  0  0  0  0  2  0  0  0  0  0  0
  190.3120  177.5930  144.4460 C   0  0  0  0  0  2  0  0  0  0  0  0
  189.5070  176.9090  145.4640 N   0  0  0  0  0  0  0  0  0  0  0  0
  195.3980  175.8810  143.8790 O   0  0  0  0  0  0  0  0  0  0  0  0
  193.0260  174.1600  145.9760 C   0  0  0  0  0  2  0  0  0  0  0  0
  191.9070  174.9030  145.2640 C   0  0  0  0  0  0  0  0  0  0  0  0
  190.6750  174.7260  145.7530 C   0  0  0  0  0  3  0  0  0  0  0  0
  193.7460  175.7860  143.2880 P   0  0  0  0  0  1  0  0  0  0  0  0
  1 25  1  6  0  0  0
  1 22  1  0  0  0  0
  2  4  1  0  0  0  0
  2  1  1  0  0  0  0
  3  6  1  0  0  0  0
  5  7  1  0  0  0  0
  6  9  1  0  0  0  0
  6  4  2  0  0  0  0
  7  2  2  0  0  0  0
  8  3  2  0  0  0  0
  8  7  1  0  0  0  0
  9 12  1  0  0  0  0
 10 11  2  0  0  0  0
 10  9  1  0  0  0  0
 12 14  1  0  0  0  0
 13 15  1  0  0  0  0
 14 13  1  0  0  0  0
 14 17  2  0  0  0  0
 15 16  2  0  0  0  0
 16 20  1  0  0  0  0
 17 16  1  0  0  0  0
 19 20  2  0  0  0  0
 20 18  1  0  0  0  0
 22 21  1  0  0  0  0
 23 22  1  0  0  0  0
 24 22  1  0  0  0  0
 26 25  1  0  0  0  0
 26 27  1  0  0  0  0
 29 32  1  0  0  0  0
 30 28  1  0  0  0  0
 30 38  1  0  0  0  0
 32 37  1  0  0  0  0
 33 35  1  0  0  0  0
 33 39  1  0  0  0  0
 34 28  1  0  0  0  0
 34 35  1  0  0  0  0
 35 31  1  0  0  0  0
 36 29  1  0  0  0  0
 38 39  2  0  0  0  0
 38 37  1  0  0  0  0
 40 36  1  0  0  0  0
M  END
>  <MODEL>
6

>  <REMARK>
 VINA RESULT:      -7.7      3.495      7.811
  Name = 
  10 active torsions:
  status: ('A' for Active; 'I' for Inactive)
    1  A    between atoms: N_3  and  C_14
    2  A    between atoms: N_3  and  C_30
    3  A    between atoms: C_8  and  C_21
    4  A    between atoms: C_11  and  C_22
    5  A    between atoms: C_11  and  P_37
    6  A    between atoms: C_13  and  C_21
    7  A    between atoms: C_13  and  C_22
    8  A    between atoms: C_14  and  C_19
    9  A    between atoms: C_21  and  C_27
   10  A    between atoms: C_26  and  C_38
                            x       y       z     vdW  Elec       q    Type
                         _______ _______ _______ _____ _____    ______ ____

>  <TORSDO>
F 10

$$$$
=
 OpenBabel11062419333D

 40 41  0  0  1  0  0  0  0  0999 V2000
  190.3690  174.7440  145.8120 C   0  0  1  0  0  3  0  0  0  0  0  0
  190.3890  175.8590  144.8010 C   0  0  0  0  0  0  0  0  0  0  0  0
  190.4520  177.9080  142.9430 N   0  0  0  0  0  0  0  0  0  0  0  0
  189.3040  176.0720  143.9430 C   0  0  0  0  0  3  0  0  0  0  0  0
  192.5810  176.5160  145.5200 F   0  0  0  0  0  0  0  0  0  0  0  0
  189.3440  177.1150  143.0060 C   0  0  0  0  0  0  0  0  0  0  0  0
  191.5090  176.6940  144.7070 C   0  0  0  0  0  0  0  0  0  0  0  0
  191.5210  177.7210  143.7630 C   0  0  0  0  0  3  0  0  0  0  0  0
  188.2350  177.3530  142.1200 N   0  0  0  0  0  0  0  0  0  0  0  0
  187.8160  176.3460  141.1900 C   0  0  0  0  0  3  0  0  0  0  0  0
  186.8370  176.5340  140.4210 O   0  0  0  0  0  0  0  0  0  0  0  0
  187.5000  178.6140  142.1910 C   0  0  0  0  0  2  0  0  0  0  0  0
  184.9930  178.3270  142.9730 C   0  0  0  0  0  2  0  0  0  0  0  0
  186.4420  178.5380  143.2390 C   0  0  0  0  0  0  0  0  0  0  0  0
  184.4500  178.2940  144.3220 N   0  0  0  0  0  0  0  0  0  0  0  0
  185.4410  178.4490  145.1380 C   0  0  0  0  0  0  0  0  0  0  0  0
  186.7020  178.5980  144.5000 N   0  0  0  0  0  0  0  0  0  0  0  0
  186.4130  178.3190  147.4420 N   0  0  0  0  0  1  0  0  0  0  0  0
  184.1360  178.5970  147.1060 O   0  0  0  0  0  0  0  0  0  0  0  0
  185.2780  178.4630  146.5960 C   0  0  0  0  0  0  0  0  0  0  0  0
  188.9370  174.1670  147.6240 F   0  0  0  0  0  0  0  0  0  0  0  0
  189.7670  175.1680  147.1550 C   0  0  0  0  0  0  0  0  0  0  0  0
  189.0340  176.3350  147.0180 F   0  0  0  0  0  0  0  0  0  0  0  0
  190.7770  175.3730  148.0770 F   0  0  0  0  0  0  0  0  0  0  0  0
  189.6890  173.4920  145.2590 C   0  0  0  0  0  2  0  0  0  0  0  0
  190.5960  172.7610  144.2790 C   0  0  0  0  0  2  0  0  0  0  0  0
  192.0350  172.7340  144.7750 C   0  0  0  0  0  1  0  0  0  0  0  0
  194.9260  174.4590  142.1950 C   0  0  0  0  0  2  0  0  0  0  0  0
  194.6580  171.5980  143.5680 C   0  0  0  0  0  2  0  0  0  0  0  0
  194.2360  174.1310  143.5090 C   0  0  0  0  0  2  0  0  0  0  0  0
  197.2300  175.9410  142.8000 O   0  0  0  0  0  1  0  0  0  0  0  0
  194.9350  171.5910  145.0500 C   0  0  0  0  0  2  0  0  0  0  0  0
  195.5890  176.5880  144.3140 C   0  0  0  0  0  2  0  0  0  0  0  0
  195.0530  175.9750  142.0260 C   0  0  0  0  0  2  0  0  0  0  0  0
  196.0440  176.5920  142.9160 N   0  0  0  0  0  0  0  0  0  0  0  0
  193.5690  170.9310  143.2380 O   0  0  0  0  0  0  0  0  0  0  0  0
  195.6520  172.8880  145.4330 C   0  0  0  0  0  2  0  0  0  0  0  0
  195.2170  174.1350  144.6790 C   0  0  0  0  0  0  0  0  0  0  0  0
  195.8260  175.2760  145.0210 C   0  0  0  0  0  3  0  0  0  0  0  0
  193.1880  172.6400  143.3690 P   0  0  0  0  0  1  0  0  0  0  0  0
  1 25  1  6  0  0  0
  1 22  1  0  0  0  0
  2  1  1  0  0  0  0
  3  6  2  0  0  0  0
  3  8  1  0  0  0  0
  4  2  2  0  0  0  0
  6  4  1  0  0  0  0
  7  2  1  0  0  0  0
  7  5  1  0  0  0  0
  8  7  2  0  0  0  0
  9 12  1  0  0  0  0
  9  6  1  0  0  0  0
 10  9  1  0  0  0  0
 11 10  2  0  0  0  0
 12 14  1  0  0  0  0
 13 14  1  0  0  0  0
 13 15  1  0  0  0  0
 14 17  2  0  0  0  0
 15 16  2  0  0  0  0
 16 20  1  0  0  0  0
 17 16  1  0  0  0  0
 20 19  2  0  0  0  0
 20 18  1  0  0  0  0
 22 21  1  0  0  0  0
 22 24  1  0  0  0  0
 23 22  1  0  0  0  0
 26 27  1  0  0  0  0
 26 25  1  0  0  0  0
 28 30  1  0  0  0  0
 29 32  1  0  0  0  0
 30 38  1  0  0  0  0
 31 35  1  0  0  0  0
 32 37  1  0  0  0  0
 33 39  1  0  0  0  0
 34 28  1  0  0  0  0
 34 35  1  0  0  0  0
 35 33  1  0  0  0  0
 36 40  1  0  0  0  0
 36 29  1  0  0  0  0
 38 39  2  0  0  0  0
 38 37  1  0  0  0  0
M  END
>  <MODEL>
7

>  <REMARK>
 VINA RESULT:      -7.6      2.262      8.599
  Name = 
  10 active torsions:
  status: ('A' for Active; 'I' for Inactive)
    1  A    between atoms: N_3  and  C_14
    2  A    between atoms: N_3  and  C_30
    3  A    between atoms: C_8  and  C_21
    4  A    between atoms: C_11  and  C_22
    5  A    between atoms: C_11  and  P_37
    6  A    between atoms: C_13  and  C_21
    7  A    between atoms: C_13  and  C_22
    8  A    between atoms: C_14  and  C_19
    9  A    between atoms: C_21  and  C_27
   10  A    between atoms: C_26  and  C_38
                            x       y       z     vdW  Elec       q    Type
                         _______ _______ _______ _____ _____    ______ ____

>  <TORSDO>
F 10

$$$$
=
 OpenBabel11062419333D

 40 41  0  0  1  0  0  0  0  0999 V2000
  191.0740  175.8810  145.6700 C   0  0  1  0  0  3  0  0  0  0  0  0
  190.9190  174.5700  144.9490 C   0  0  0  0  0  0  0  0  0  0  0  0
  190.6120  172.1560  143.6310 N   0  0  0  0  0  0  0  0  0  0  0  0
  191.6570  174.2940  143.7910 C   0  0  0  0  0  3  0  0  0  0  0  0
  189.2870  173.8430  146.5480 F   0  0  0  0  0  0  0  0  0  0  0  0
  191.4960  173.0670  143.1320 C   0  0  0  0  0  0  0  0  0  0  0  0
  190.0220  173.6100  145.4320 C   0  0  0  0  0  0  0  0  0  0  0  0
  189.8810  172.4000  144.7520 C   0  0  0  0  0  3  0  0  0  0  0  0
  192.2500  172.7640  141.9440 N   0  0  0  0  0  0  0  0  0  0  0  0
  191.6650  171.9940  140.8860 C   0  0  0  0  0  3  0  0  0  0  0  0
  192.3080  171.7360  139.8330 O   0  0  0  0  0  0  0  0  0  0  0  0
  193.6100  173.2770  141.7900 C   0  0  0  0  0  2  0  0  0  0  0  0
  195.1170  171.1300  142.1050 C   0  0  0  0  0  2  0  0  0  0  0  0
  194.5700  172.4370  142.5610 C   0  0  0  0  0  0  0  0  0  0  0  0
  196.0120  170.7890  143.1990 N   0  0  0  0  0  0  0  0  0  0  0  0
  195.9490  171.7520  144.0600 C   0  0  0  0  0  0  0  0  0  0  0  0
  195.0650  172.8020  143.6940 N   0  0  0  0  0  0  0  0  0  0  0  0
  196.9300  172.9810  146.0090 N   0  0  0  0  0  1  0  0  0  0  0  0
  197.2250  170.6950  145.7500 O   0  0  0  0  0  0  0  0  0  0  0  0
  196.7280  171.7620  145.3030 C   0  0  0  0  0  0  0  0  0  0  0  0
  192.7530  174.5960  146.7640 F   0  0  0  0  0  0  0  0  0  0  0  0
  192.1360  175.8340  146.7720 C   0  0  0  0  0  0  0  0  0  0  0  0
  191.5640  176.0450  148.0150 F   0  0  0  0  0  0  0  0  0  0  0  0
  193.0940  176.8050  146.5430 F   0  0  0  0  0  0  0  0  0  0  0  0
  191.3190  177.0350  144.6990 C   0  0  0  0  0  2  0  0  0  0  0  0
  190.0850  177.9170  144.5690 C   0  0  0  0  0  2  0  0  0  0  0  0
  189.3340  177.6280  143.2780 C   0  0  0  0  0  1  0  0  0  0  0  0
  185.9300  176.5050  145.5460 C   0  0  0  0  0  2  0  0  0  0  0  0
  186.5360  176.5970  142.4200 C   0  0  0  0  0  2  0  0  0  0  0  0
  186.8890  177.4360  144.8230 C   0  0  0  0  0  2  0  0  0  0  0  0
  183.7790  178.0560  146.4630 O   0  0  0  0  0  1  0  0  0  0  0  0
  186.5790  177.9860  141.8360 C   0  0  0  0  0  2  0  0  0  0  0  0
  185.6920  179.3630  146.6580 C   0  0  0  0  0  2  0  0  0  0  0  0
  185.7430  176.9590  146.9960 C   0  0  0  0  0  2  0  0  0  0  0  0
  184.9510  178.1870  147.1370 N   0  0  0  0  0  0  0  0  0  0  0  0
  187.5420  175.8360  142.0350 O   0  0  0  0  0  0  0  0  0  0  0  0
  185.9360  178.9650  142.8210 C   0  0  0  0  0  2  0  0  0  0  0  0
  186.1770  178.6810  144.2950 C   0  0  0  0  0  0  0  0  0  0  0  0
  185.6340  179.5430  145.1610 C   0  0  0  0  0  3  0  0  0  0  0  0
  187.9110  176.5390  143.6020 P   0  0  0  0  0  1  0  0  0  0  0  0
  1 25  1  6  0  0  0
  1 22  1  0  0  0  0
  2  7  1  0  0  0  0
  2  1  1  0  0  0  0
  3  8  1  0  0  0  0
  4  2  2  0  0  0  0
  6  3  2  0  0  0  0
  6  4  1  0  0  0  0
  7  5  1  0  0  0  0
  8  7  2  0  0  0  0
  9  6  1  0  0  0  0
 10  9  1  0  0  0  0
 11 10  2  0  0  0  0
 12  9  1  0  0  0  0
 12 14  1  0  0  0  0
 13 14  1  0  0  0  0
 13 15  1  0  0  0  0
 14 17  2  0  0  0  0
 15 16  2  0  0  0  0
 16 20  1  0  0  0  0
 17 16  1  0  0  0  0
 20 19  2  0  0  0  0
 20 18  1  0  0  0  0
 21 22  1  0  0  0  0
 22 23  1  0  0  0  0
 24 22  1  0  0  0  0
 26 25  1  0  0  0  0
 27 26  1  0  0  0  0
 28 34  1  0  0  0  0
 30 28  1  0  0  0  0
 31 35  1  0  0  0  0
 32 29  1  0  0  0  0
 32 37  1  0  0  0  0
 33 35  1  0  0  0  0
 34 35  1  0  0  0  0
 36 29  1  0  0  0  0
 36 40  1  0  0  0  0
 37 38  1  0  0  0  0
 38 30  1  0  0  0  0
 38 39  2  0  0  0  0
 39 33  1  0  0  0  0
M  END
>  <MODEL>
8

>  <REMARK>
 VINA RESULT:      -7.6      1.770      2.141
  Name = 
  10 active torsions:
  status: ('A' for Active; 'I' for Inactive)
    1  A    between atoms: N_3  and  C_14
    2  A    between atoms: N_3  and  C_30
    3  A    between atoms: C_8  and  C_21
    4  A    between atoms: C_11  and  C_22
    5  A    between atoms: C_11  and  P_37
    6  A    between atoms: C_13  and  C_21
    7  A    between atoms: C_13  and  C_22
    8  A    between atoms: C_14  and  C_19
    9  A    between atoms: C_21  and  C_27
   10  A    between atoms: C_26  and  C_38
                            x       y       z     vdW  Elec       q    Type
                         _______ _______ _______ _____ _____    ______ ____

>  <TORSDO>
F 10

$$$$
=
 OpenBabel11062419333D

 40 41  0  0  1  0  0  0  0  0999 V2000
  185.6250  178.3160  144.3060 C   0  0  1  0  0  3  0  0  0  0  0  0
  185.0720  178.3090  142.9060 C   0  0  0  0  0  0  0  0  0  0  0  0
  184.0770  178.2830  140.3250 N   0  0  0  0  0  0  0  0  0  0  0  0
  183.6910  178.3000  142.6780 C   0  0  0  0  0  3  0  0  0  0  0  0
  187.2900  178.3070  141.9940 F   0  0  0  0  0  0  0  0  0  0  0  0
  183.1960  178.2900  141.3660 C   0  0  0  0  0  0  0  0  0  0  0  0
  185.9460  178.3030  141.8120 C   0  0  0  0  0  0  0  0  0  0  0  0
  185.4230  178.2890  140.5180 C   0  0  0  0  0  3  0  0  0  0  0  0
  181.7790  178.2870  141.1120 N   0  0  0  0  0  0  0  0  0  0  0  0
  181.2390  177.5600  140.0010 C   0  0  0  0  0  3  0  0  0  0  0  0
  179.9990  177.5350  139.7780 O   0  0  0  0  0  0  0  0  0  0  0  0
  180.8740  178.9950  142.0140 C   0  0  0  0  0  2  0  0  0  0  0  0
  178.4450  179.7830  141.3350 C   0  0  0  0  0  2  0  0  0  0  0  0
  179.9290  179.8470  141.2370 C   0  0  0  0  0  0  0  0  0  0  0  0
  178.0460  180.8360  140.4160 N   0  0  0  0  0  0  0  0  0  0  0  0
  179.1280  181.3590  139.9370 C   0  0  0  0  0  0  0  0  0  0  0  0
  180.3230  180.7720  140.4310 N   0  0  0  0  0  0  0  0  0  0  0  0
  178.7100  183.7640  139.3820 N   0  0  0  0  0  1  0  0  0  0  0  0
  179.4700  182.2700  137.7800 O   0  0  0  0  0  0  0  0  0  0  0  0
  179.1200  182.4640  138.9730 C   0  0  0  0  0  0  0  0  0  0  0  0
  183.7960  178.9690  145.6840 F   0  0  0  0  0  0  0  0  0  0  0  0
  185.0080  179.4090  145.1840 C   0  0  0  0  0  0  0  0  0  0  0  0
  184.8000  180.5670  144.4540 F   0  0  0  0  0  0  0  0  0  0  0  0
  185.8490  179.6880  146.2460 F   0  0  0  0  0  0  0  0  0  0  0  0
  185.5220  176.9400  144.9620 C   0  0  0  0  0  2  0  0  0  0  0  0
  186.6150  176.7450  146.0040 C   0  0  0  0  0  2  0  0  0  0  0  0
  187.9150  177.4060  145.5700 C   0  0  0  0  0  1  0  0  0  0  0  0
  189.9150  173.8810  144.3170 C   0  0  0  0  0  2  0  0  0  0  0  0
  190.9240  176.7930  145.1210 C   0  0  0  0  0  2  0  0  0  0  0  0
  189.1550  175.1890  144.1730 C   0  0  0  0  0  2  0  0  0  0  0  0
  190.5550  172.9900  141.7350 O   0  0  0  0  0  1  0  0  0  0  0  0
  190.6370  177.8570  144.0920 C   0  0  0  0  0  2  0  0  0  0  0  0
  188.4550  173.9810  141.6110 C   0  0  0  0  0  2  0  0  0  0  0  0
  189.1810  172.7580  143.5790 C   0  0  0  0  0  2  0  0  0  0  0  0
  189.2580  172.8570  142.1170 N   0  0  0  0  0  0  0  0  0  0  0  0
  190.6160  177.1600  146.3500 O   0  0  0  0  0  0  0  0  0  0  0  0
  190.2840  177.1860  142.7620 C   0  0  0  0  0  2  0  0  0  0  0  0
  189.4880  175.8950  142.8600 C   0  0  0  0  0  0  0  0  0  0  0  0
  189.1590  175.3130  141.7010 C   0  0  0  0  0  3  0  0  0  0  0  0
  189.2940  176.2210  145.6750 P   0  0  0  0  0  1  0  0  0  0  0  0
  1 25  1  1  0  0  0
  1 22  1  0  0  0  0
  2  1  1  0  0  0  0
  3  8  2  0  0  0  0
  3  6  1  0  0  0  0
  4  2  1  0  0  0  0
  6  4  2  0  0  0  0
  7  5  1  0  0  0  0
  7  2  2  0  0  0  0
  8  7  1  0  0  0  0
  9  6  1  0  0  0  0
  9 12  1  0  0  0  0
 10  9  1  0  0  0  0
 11 10  2  0  0  0  0
 14 13  1  0  0  0  0
 14 12  1  0  0  0  0
 15 13  1  0  0  0  0
 16 15  2  0  0  0  0
 16 17  1  0  0  0  0
 17 14  2  0  0  0  0
 19 20  2  0  0  0  0
 20 18  1  0  0  0  0
 20 16  1  0  0  0  0
 22 21  1  0  0  0  0
 22 24  1  0  0  0  0
 23 22  1  0  0  0  0
 25 26  1  0  0  0  0
 27 26  1  0  0  0  0
 29 36  1  0  0  0  0
 30 28  1  0  0  0  0
 31 35  1  0  0  0  0
 32 29  1  0  0  0  0
 33 39  1  0  0  0  0
 33 35  1  0  0  0  0
 34 28  1  0  0  0  0
 35 34  1  0  0  0  0
 37 38  1  0  0  0  0
 37 32  1  0  0  0  0
 38 30  1  0  0  0  0
 39 38  2  0  0  0  0
 40 36  1  0  0  0  0
M  END
>  <MODEL>
9

>  <REMARK>
 VINA RESULT:      -7.5      5.444     10.927
  Name = 
  10 active torsions:
  status: ('A' for Active; 'I' for Inactive)
    1  A    between atoms: N_3  and  C_14
    2  A    between atoms: N_3  and  C_30
    3  A    between atoms: C_8  and  C_21
    4  A    between atoms: C_11  and  C_22
    5  A    between atoms: C_11  and  P_37
    6  A    between atoms: C_13  and  C_21
    7  A    between atoms: C_13  and  C_22
    8  A    between atoms: C_14  and  C_19
    9  A    between atoms: C_21  and  C_27
   10  A    between atoms: C_26  and  C_38
                            x       y       z     vdW  Elec       q    Type
                         _______ _______ _______ _____ _____    ______ ____

>  <TORSDO>
F 10

$$$$
