=
 OpenBabel11062419013D

 51 55  0  0  1  0  0  0  0  0999 V2000
  190.7040  176.1560  145.2420 C   0  0  1  0  0  3  0  0  0  0  0  0
  190.0050  176.1830  146.6120 C   0  0  1  0  0  3  0  0  0  0  0  0
  188.9080  175.1440  146.7740 C   0  0  0  0  0  1  0  0  0  0  0  0
  190.9800  176.1290  147.7430 C   0  0  0  0  0  0  0  0  0  0  0  0
  191.3260  177.3080  148.4630 N   0  0  0  0  0  1  0  0  0  0  0  0
  191.4900  175.0290  148.0690 O   0  0  0  0  0  0  0  0  0  0  0  0
  189.4930  176.1570  143.0550 C   0  0  0  0  0  0  0  0  0  0  0  0
  189.9050  176.7300  144.1520 N   0  0  0  0  0  0  0  0  0  0  0  0
  188.7190  176.9750  142.0970 C   0  0  0  0  0  0  0  0  0  0  0  0
  189.0810  178.1530  141.8220 O   0  0  0  0  0  0  0  0  0  0  0  0
  187.5430  176.4300  141.4890 N   0  0  0  0  0  2  0  0  0  0  0  0
  186.6830  177.2040  140.6060 C   0  0  0  0  0  2  0  0  0  0  0  0
  185.1200  177.5190  142.4120 N   0  0  0  0  0  0  0  0  0  0  0  0
  185.7300  178.0290  141.4060 C   0  0  0  0  0  3  0  0  0  0  0  0
  184.2190  178.3170  143.2040 C   0  0  0  0  0  2  0  0  0  0  0  0
  183.8810  178.8690  145.5330 O   0  0  0  0  0  0  0  0  0  0  0  0
  184.2790  178.0290  146.5940 C   0  0  0  0  0  2  0  0  0  0  0  0
  185.4790  177.2800  146.1570 C   0  0  0  0  0  3  0  0  0  0  0  0
  185.5390  179.9430  144.3640 O   0  0  0  0  0  1  0  0  0  0  0  0
  185.8150  177.6890  144.9600 C   0  0  0  0  0  3  0  0  0  0  0  0
  184.8610  178.7340  144.5240 C   0  0  2  0  0  0  0  0  0  0  0  0
  189.7630  174.6890  142.7880 C   0  0  1  0  0  3  0  0  0  0  0  0
  189.1180  172.4940  142.9840 C   0  0  0  0  0  1  0  0  0  0  0  0
  188.7300  173.8230  143.2130 O   0  0  0  0  0  0  0  0  0  0  0  0
  190.3430  174.3680  141.4080 C   0  0  0  0  0  2  0  0  0  0  0  0
  191.8560  174.4420  141.4480 C   0  0  0  0  0  1  0  0  0  0  0  0
  192.1530  176.6480  145.2560 C   0  0  0  0  0  2  0  0  0  0  0  0
  195.1410  173.9770  145.8040 C   0  0  0  0  0  2  0  0  0  0  0  0
  195.1450  175.0430  143.4240 C   0  0  0  0  0  2  0  0  0  0  0  0
  195.8980  174.2130  144.4770 C   0  0  2  0  0  3  0  0  0  0  0  0
  192.7540  174.1770  144.7860 C   0  0  0  0  0  2  0  0  0  0  0  0
  194.1950  176.0390  144.0260 C   0  0  0  0  0  3  0  0  0  0  0  0
  193.7360  173.3740  145.6560 C   0  0  0  0  0  2  0  0  0  0  0  0
  193.0860  175.6400  144.6660 C   0  0  0  0  0  0  0  0  0  0  0  0
  197.9320  172.9760  143.9100 O   0  0  0  0  0  0  0  0  0  0  0  0
  197.5620  170.6190  144.1560 C   0  0  1  0  0  3  0  0  0  0  0  0
  196.5300  172.9650  143.8430 C   0  0  2  0  0  0  0  0  0  0  0  0
  196.5610  170.1900  143.0950 C   0  0  0  0  0  2  0  0  0  0  0  0
  196.0030  172.5270  142.4670 C   0  0  0  0  0  2  0  0  0  0  0  0
  196.5800  171.2050  141.9690 C   0  0  2  0  0  3  0  0  0  0  0  0
  197.2800  172.0180  144.7250 C   0  0  2  0  0  3  0  0  0  0  0  0
  197.5730  169.6120  145.2580 C   0  0  0  0  0  3  0  0  0  0  0  0
  197.2430  169.9310  146.3900 O   0  0  0  0  0  0  0  0  0  0  0  0
  195.7840  170.7090  140.8600 N   0  0  0  0  0  2  0  0  0  0  0  0
  194.7440  169.9400  141.4030 N   0  0  0  0  0  0  0  0  0  0  0  0
  190.9650  169.8190  141.4180 C   0  0  0  0  0  2  0  0  0  0  0  0
  192.4130  169.5150  141.6940 C   0  0  0  0  0  2  0  0  0  0  0  0
  193.0270  171.2000  140.0420 C   0  0  0  0  0  3  0  0  0  0  0  0
  191.7890  171.2420  139.5390 C   0  0  0  0  0  3  0  0  0  0  0  0
  193.3810  170.2020  141.0770 C   0  0  0  0  0  0  0  0  0  0  0  0
  190.7660  170.2200  139.9530 C   0  0  0  0  0  2  0  0  0  0  0  0
  1 27  1  1  0  0  0
  1  2  1  0  0  0  0
  2  3  1  6  0  0  0
  2  4  1  0  0  0  0
  4  6  2  0  0  0  0
  4  5  1  0  0  0  0
  7  8  2  0  0  0  0
  8  1  1  0  0  0  0
  9  7  1  0  0  0  0
 10  9  2  0  0  0  0
 11  9  1  0  0  0  0
 12 14  1  0  0  0  0
 12 11  1  0  0  0  0
 13 15  1  0  0  0  0
 14 13  2  0  0  0  0
 15 21  1  0  0  0  0
 16 17  1  0  0  0  0
 18 17  1  0  0  0  0
 20 18  2  0  0  0  0
 21 19  1  6  0  0  0
 21 20  1  0  0  0  0
 21 16  1  0  0  0  0
 22 25  1  6  0  0  0
 22  7  1  0  0  0  0
 22 24  1  0  0  0  0
 23 24  1  0  0  0  0
 25 26  1  0  0  0  0
 29 32  1  0  0  0  0
 30 29  1  6  0  0  0
 30 28  1  0  0  0  0
 31 33  1  0  0  0  0
 32 34  2  0  0  0  0
 33 28  1  0  0  0  0
 34 31  1  0  0  0  0
 34 27  1  0  0  0  0
 36 41  1  0  0  0  0
 36 42  1  1  0  0  0
 37 39  1  6  0  0  0
 37 35  1  0  0  0  0
 37 30  1  0  0  0  0
 37 41  1  0  0  0  0
 38 36  1  0  0  0  0
 40 44  1  6  0  0  0
 40 39  1  0  0  0  0
 40 38  1  0  0  0  0
 41 35  1  6  0  0  0
 42 43  2  0  0  0  0
 44 45  1  0  0  0  0
 46 47  1  0  0  0  0
 48 50  1  0  0  0  0
 49 51  1  0  0  0  0
 49 48  2  0  0  0  0
 50 45  2  0  0  0  0
 50 47  1  0  0  0  0
 51 46  1  0  0  0  0
M  END
>  <MODEL>
1

>  <REMARK>
 VINA RESULT:      -6.6      0.000      0.000
  Name = 
  18 active torsions:
  status: ('A' for Active; 'I' for Inactive)
    1  A    between atoms: C_1  and  C_11
    2  A    between atoms: C_1  and  C_14
    3  A    between atoms: C_1  and  N_33
    4  A    between atoms: N_3  and  N_7
    5  A    between atoms: N_3  and  C_44
    6  A    between atoms: N_7  and  C_35
    7  A    between atoms: C_8  and  C_31
    8  A    between atoms: C_10  and  C_23
    9  A    between atoms: C_11  and  C_48
   10  A    between atoms: C_12  and  C_19
   11  A    between atoms: C_14  and  C_27
   12  A    between atoms: C_18  and  C_50
   13  A    between atoms: C_20  and  C_30
   14  A    between atoms: C_20  and  N_41
   15  A    between atoms: N_29  and  C_37
   16  A    between atoms: C_31  and  C_50
   17  A    between atoms: C_37  and  C_46
   18  A    between atoms: O_42  and  C_50
                            x       y       z     vdW  Elec       q    Type
                         _______ _______ _______ _____ _____    ______ ____

>  <TORSDO>
F 18

$$$$
=
 OpenBabel11062419013D

 51 55  0  0  1  0  0  0  0  0999 V2000
  193.0510  173.1880  142.8780 C   0  0  1  0  0  3  0  0  0  0  0  0
  193.5030  171.8250  143.4320 C   0  0  1  0  0  3  0  0  0  0  0  0
  192.3640  170.9090  143.8440 C   0  0  0  0  0  1  0  0  0  0  0  0
  194.4570  171.1320  142.5120 C   0  0  0  0  0  0  0  0  0  0  0  0
  195.8460  171.0650  142.8180 N   0  0  0  0  0  1  0  0  0  0  0  0
  194.0240  170.5920  141.4640 O   0  0  0  0  0  0  0  0  0  0  0  0
  194.9110  174.8540  142.7530 C   0  0  0  0  0  0  0  0  0  0  0  0
  194.1230  173.9550  142.2300 N   0  0  0  0  0  0  0  0  0  0  0  0
  195.8990  175.5050  141.8670 C   0  0  0  0  0  0  0  0  0  0  0  0
  196.0380  176.7590  141.8750 O   0  0  0  0  0  0  0  0  0  0  0  0
  196.6930  174.7040  140.9850 N   0  0  0  0  0  2  0  0  0  0  0  0
  197.6220  175.2790  140.0230 C   0  0  0  0  0  2  0  0  0  0  0  0
  195.8360  174.8180  138.4740 N   0  0  0  0  0  0  0  0  0  0  0  0
  197.0270  175.2590  138.6540 C   0  0  0  0  0  3  0  0  0  0  0  0
  195.2460  174.8200  137.1590 C   0  0  0  0  0  2  0  0  0  0  0  0
  193.3160  176.2190  136.7600 O   0  0  0  0  0  0  0  0  0  0  0  0
  192.3860  175.9800  135.7270 C   0  0  0  0  0  2  0  0  0  0  0  0
  192.3240  174.5190  135.4990 C   0  0  0  0  0  3  0  0  0  0  0  0
  193.2960  174.7800  138.5490 O   0  0  0  0  0  1  0  0  0  0  0  0
  193.1010  173.9260  136.3710 C   0  0  0  0  0  3  0  0  0  0  0  0
  193.7280  174.9540  137.2330 C   0  0  2  0  0  0  0  0  0  0  0  0
  194.8430  175.1920  144.2300 C   0  0  1  0  0  3  0  0  0  0  0  0
  196.4090  173.8440  145.2310 C   0  0  0  0  0  1  0  0  0  0  0  0
  196.0930  175.1680  144.8880 O   0  0  0  0  0  0  0  0  0  0  0  0
  193.9490  176.3820  144.5900 C   0  0  0  0  0  2  0  0  0  0  0  0
  194.4150  177.0100  145.8870 C   0  0  0  0  0  1  0  0  0  0  0  0
  191.7580  173.1460  142.0610 C   0  0  0  0  0  2  0  0  0  0  0  0
  188.3670  175.2350  141.3500 C   0  0  0  0  0  2  0  0  0  0  0  0
  190.1050  176.5580  142.7750 C   0  0  0  0  0  2  0  0  0  0  0  0
  188.8120  176.5910  141.9430 C   0  0  2  0  0  3  0  0  0  0  0  0
  189.5050  173.7640  143.1710 C   0  0  0  0  0  2  0  0  0  0  0  0
  191.0660  175.4910  142.3310 C   0  0  0  0  0  3  0  0  0  0  0  0
  188.2360  174.0900  142.3650 C   0  0  0  0  0  2  0  0  0  0  0  0
  190.7870  174.1910  142.5070 C   0  0  0  0  0  0  0  0  0  0  0  0
  187.6480  178.7250  142.2300 O   0  0  0  0  0  0  0  0  0  0  0  0
  185.3170  178.3450  142.6480 C   0  0  1  0  0  3  0  0  0  0  0  0
  187.7160  177.3910  142.6620 C   0  0  2  0  0  0  0  0  0  0  0  0
  185.1900  177.6700  144.0040 C   0  0  0  0  0  2  0  0  0  0  0  0
  187.6320  177.2570  144.1920 C   0  0  0  0  0  2  0  0  0  0  0  0
  186.4350  177.9690  144.8150 C   0  0  2  0  0  3  0  0  0  0  0  0
  186.5590  177.8980  141.8620 C   0  0  2  0  0  3  0  0  0  0  0  0
  184.0850  178.0820  141.8490 C   0  0  0  0  0  3  0  0  0  0  0  0
  184.0310  178.3990  140.6710 O   0  0  0  0  0  0  0  0  0  0  0  0
  186.2440  177.5050  146.1790 N   0  0  0  0  0  2  0  0  0  0  0  0
  187.3960  177.8510  146.9010 N   0  0  0  0  0  2  0  0  0  0  0  0
  190.9300  176.5320  147.1690 C   0  0  0  0  0  2  0  0  0  0  0  0
  189.7470  177.4470  146.9960 C   0  0  0  0  0  3  0  0  0  0  0  0
  188.2900  175.4940  147.0800 C   0  0  0  0  0  3  0  0  0  0  0  0
  189.3110  174.6520  146.8890 C   0  0  0  0  0  3  0  0  0  0  0  0
  188.5030  176.9570  147.0030 C   0  0  0  0  0  0  0  0  0  0  0  0
  190.6670  175.1770  146.5050 C   0  0  0  0  0  2  0  0  0  0  0  0
  1 27  1  6  0  0  0
  1  2  1  0  0  0  0
  2  3  1  6  0  0  0
  4  5  1  0  0  0  0
  4  2  1  0  0  0  0
  6  4  2  0  0  0  0
  7 22  1  0  0  0  0
  8  7  2  0  0  0  0
  8  1  1  0  0  0  0
  9 10  2  0  0  0  0
  9  7  1  0  0  0  0
 11  9  1  0  0  0  0
 12 11  1  0  0  0  0
 13 14  2  0  0  0  0
 14 12  1  0  0  0  0
 15 21  1  0  0  0  0
 15 13  1  0  0  0  0
 16 21  1  0  0  0  0
 17 16  1  0  0  0  0
 18 17  1  0  0  0  0
 18 20  2  0  0  0  0
 20 21  1  0  0  0  0
 21 19  1  1  0  0  0
 22 25  1  6  0  0  0
 22 24  1  0  0  0  0
 24 23  1  0  0  0  0
 25 26  1  0  0  0  0
 27 34  1  0  0  0  0
 28 33  1  0  0  0  0
 30 28  1  1  0  0  0
 30 37  1  0  0  0  0
 30 29  1  0  0  0  0
 32 34  2  0  0  0  0
 32 29  1  0  0  0  0
 33 31  1  0  0  0  0
 34 31  1  0  0  0  0
 35 37  1  0  0  0  0
 36 42  1  6  0  0  0
 36 38  1  0  0  0  0
 37 39  1  1  0  0  0
 38 40  1  0  0  0  0
 39 40  1  0  0  0  0
 40 44  1  1  0  0  0
 41 35  1  1  0  0  0
 41 36  1  0  0  0  0
 41 37  1  0  0  0  0
 43 42  2  0  0  0  0
 44 45  1  0  0  0  0
 45 50  1  0  0  0  0
 47 50  2  0  0  0  0
 47 46  1  0  0  0  0
 49 48  2  0  0  0  0
 50 48  1  0  0  0  0
 51 49  1  0  0  0  0
 51 46  1  0  0  0  0
M  END
>  <MODEL>
2

>  <REMARK>
 VINA RESULT:      -6.4      3.103      9.872
  Name = 
  18 active torsions:
  status: ('A' for Active; 'I' for Inactive)
    1  A    between atoms: C_1  and  C_11
    2  A    between atoms: C_1  and  C_14
    3  A    between atoms: C_1  and  N_33
    4  A    between atoms: N_3  and  N_7
    5  A    between atoms: N_3  and  C_44
    6  A    between atoms: N_7  and  C_35
    7  A    between atoms: C_8  and  C_31
    8  A    between atoms: C_10  and  C_23
    9  A    between atoms: C_11  and  C_48
   10  A    between atoms: C_12  and  C_19
   11  A    between atoms: C_14  and  C_27
   12  A    between atoms: C_18  and  C_50
   13  A    between atoms: C_20  and  C_30
   14  A    between atoms: C_20  and  N_41
   15  A    between atoms: N_29  and  C_37
   16  A    between atoms: C_31  and  C_50
   17  A    between atoms: C_37  and  C_46
   18  A    between atoms: O_42  and  C_50
                            x       y       z     vdW  Elec       q    Type
                         _______ _______ _______ _____ _____    ______ ____

>  <TORSDO>
F 18

$$$$
=
 OpenBabel11062419013D

 51 55  0  0  1  0  0  0  0  0999 V2000
  190.3780  175.3200  143.9520 C   0  0  1  0  0  3  0  0  0  0  0  0
  189.7270  175.2000  145.3410 C   0  0  1  0  0  3  0  0  0  0  0  0
  190.0510  173.9080  146.0740 C   0  0  0  0  0  1  0  0  0  0  0  0
  189.9990  176.3960  146.1950 C   0  0  0  0  0  0  0  0  0  0  0  0
  190.9380  176.3300  147.2640 N   0  0  0  0  0  1  0  0  0  0  0  0
  189.4000  177.4740  145.9590 O   0  0  0  0  0  0  0  0  0  0  0  0
  189.2110  174.9410  141.7750 C   0  0  0  0  0  0  0  0  0  0  0  0
  189.4290  175.6130  142.8710 N   0  0  0  0  0  0  0  0  0  0  0  0
  188.2090  175.4730  140.8270 C   0  0  0  0  0  0  0  0  0  0  0  0
  188.1410  175.0250  139.6480 O   0  0  0  0  0  0  0  0  0  0  0  0
  187.3190  176.5130  141.2470 N   0  0  0  0  0  2  0  0  0  0  0  0
  186.3680  177.1460  140.3460 C   0  0  0  0  0  2  0  0  0  0  0  0
  185.1790  177.6970  142.3680 N   0  0  0  0  0  0  0  0  0  0  0  0
  185.3700  177.9400  141.1230 C   0  0  0  0  0  3  0  0  0  0  0  0
  184.2360  178.4760  143.1300 C   0  0  0  0  0  2  0  0  0  0  0  0
  183.8780  178.9000  145.4820 O   0  0  0  0  0  0  0  0  0  0  0  0
  184.4190  178.0950  146.5070 C   0  0  0  0  0  2  0  0  0  0  0  0
  185.7050  177.5450  146.0220 C   0  0  0  0  0  3  0  0  0  0  0  0
  185.3320  180.2420  144.3190 O   0  0  0  0  0  1  0  0  0  0  0  0
  185.9490  178.0360  144.8330 C   0  0  0  0  0  3  0  0  0  0  0  0
  184.8420  178.9420  144.4510 C   0  0  2  0  0  0  0  0  0  0  0  0
  189.9310  173.6350  141.4990 C   0  0  1  0  0  3  0  0  0  0  0  0
  188.6740  172.2350  142.8150 C   0  0  0  0  0  1  0  0  0  0  0  0
  189.0910  172.4980  141.5010 O   0  0  0  0  0  0  0  0  0  0  0  0
  190.9540  173.6770  140.3600 C   0  0  0  0  0  2  0  0  0  0  0  0
  191.7090  172.3660  140.2890 C   0  0  0  0  0  1  0  0  0  0  0  0
  191.6330  176.1950  143.9110 C   0  0  0  0  0  2  0  0  0  0  0  0
  193.4100  172.7350  145.0260 C   0  0  0  0  0  2  0  0  0  0  0  0
  195.0130  174.7900  145.1310 C   0  0  0  0  0  2  0  0  0  0  0  0
  194.7560  173.3210  145.5100 C   0  0  2  0  0  3  0  0  0  0  0  0
  193.1520  174.3200  142.9780 C   0  0  0  0  0  2  0  0  0  0  0  0
  193.7520  175.5970  145.0110 C   0  0  0  0  0  3  0  0  0  0  0  0
  193.1370  172.8820  143.5220 C   0  0  0  0  0  2  0  0  0  0  0  0
  192.8810  175.3770  144.0140 C   0  0  0  0  0  0  0  0  0  0  0  0
  196.9980  172.6200  146.1970 O   0  0  0  0  0  0  0  0  0  0  0  0
  197.3240  170.2960  145.7030 C   0  0  1  0  0  3  0  0  0  0  0  0
  195.9940  172.4570  145.2290 C   0  0  2  0  0  0  0  0  0  0  0  0
  197.3340  170.1370  144.1910 C   0  0  0  0  0  2  0  0  0  0  0  0
  196.5460  172.4580  143.7940 C   0  0  0  0  0  2  0  0  0  0  0  0
  197.6860  171.4700  143.5640 C   0  0  2  0  0  3  0  0  0  0  0  0
  196.3380  171.3660  146.1930 C   0  0  2  0  0  3  0  0  0  0  0  0
  197.0060  168.9810  146.3340 C   0  0  0  0  0  3  0  0  0  0  0  0
  197.8040  168.4480  147.0900 O   0  0  0  0  0  0  0  0  0  0  0  0
  197.8990  171.2910  142.1370 N   0  0  0  0  0  2  0  0  0  0  0  0
  196.7340  171.7190  141.4850 N   0  0  0  0  0  2  0  0  0  0  0  0
  197.9410  174.6500  139.4240 C   0  0  0  0  0  2  0  0  0  0  0  0
  197.8660  173.5420  140.4410 C   0  0  0  0  0  3  0  0  0  0  0  0
  195.5620  173.1390  139.7540 C   0  0  0  0  0  3  0  0  0  0  0  0
  195.4880  174.3070  139.1090 C   0  0  0  0  0  3  0  0  0  0  0  0
  196.7580  172.8030  140.5590 C   0  0  0  0  0  0  0  0  0  0  0  0
  196.5790  175.3320  139.2650 C   0  0  0  0  0  2  0  0  0  0  0  0
  1 27  1  1  0  0  0
  1  2  1  0  0  0  0
  2  3  1  1  0  0  0
  2  4  1  0  0  0  0
  4  5  1  0  0  0  0
  6  4  2  0  0  0  0
  7  8  2  0  0  0  0
  8  1  1  0  0  0  0
  9 11  1  0  0  0  0
  9  7  1  0  0  0  0
 10  9  2  0  0  0  0
 12 14  1  0  0  0  0
 12 11  1  0  0  0  0
 13 15  1  0  0  0  0
 14 13  2  0  0  0  0
 15 21  1  0  0  0  0
 16 17  1  0  0  0  0
 18 17  1  0  0  0  0
 20 18  2  0  0  0  0
 21 19  1  6  0  0  0
 21 20  1  0  0  0  0
 21 16  1  0  0  0  0
 22 25  1  6  0  0  0
 22 24  1  0  0  0  0
 22  7  1  0  0  0  0
 24 23  1  0  0  0  0
 26 25  1  0  0  0  0
 27 34  1  0  0  0  0
 29 30  1  0  0  0  0
 30 28  1  6  0  0  0
 31 33  1  0  0  0  0
 31 34  1  0  0  0  0
 32 29  1  0  0  0  0
 33 28  1  0  0  0  0
 34 32  2  0  0  0  0
 36 41  1  0  0  0  0
 36 42  1  1  0  0  0
 37 39  1  6  0  0  0
 37 30  1  0  0  0  0
 37 41  1  0  0  0  0
 37 35  1  0  0  0  0
 38 36  1  0  0  0  0
 40 44  1  6  0  0  0
 40 39  1  0  0  0  0
 40 38  1  0  0  0  0
 41 35  1  1  0  0  0
 42 43  2  0  0  0  0
 45 44  1  0  0  0  0
 46 47  1  0  0  0  0
 47 50  2  0  0  0  0
 48 50  1  0  0  0  0
 49 51  1  0  0  0  0
 49 48  2  0  0  0  0
 50 45  1  0  0  0  0
 51 46  1  0  0  0  0
M  END
>  <MODEL>
3

>  <REMARK>
 VINA RESULT:      -6.4      1.831      2.703
  Name = 
  18 active torsions:
  status: ('A' for Active; 'I' for Inactive)
    1  A    between atoms: C_1  and  C_11
    2  A    between atoms: C_1  and  C_14
    3  A    between atoms: C_1  and  N_33
    4  A    between atoms: N_3  and  N_7
    5  A    between atoms: N_3  and  C_44
    6  A    between atoms: N_7  and  C_35
    7  A    between atoms: C_8  and  C_31
    8  A    between atoms: C_10  and  C_23
    9  A    between atoms: C_11  and  C_48
   10  A    between atoms: C_12  and  C_19
   11  A    between atoms: C_14  and  C_27
   12  A    between atoms: C_18  and  C_50
   13  A    between atoms: C_20  and  C_30
   14  A    between atoms: C_20  and  N_41
   15  A    between atoms: N_29  and  C_37
   16  A    between atoms: C_31  and  C_50
   17  A    between atoms: C_37  and  C_46
   18  A    between atoms: O_42  and  C_50
                            x       y       z     vdW  Elec       q    Type
                         _______ _______ _______ _____ _____    ______ ____

>  <TORSDO>
F 18

$$$$
=
 OpenBabel11062419013D

 51 55  0  0  1  0  0  0  0  0999 V2000
  190.6230  172.2530  139.1200 C   0  0  1  0  0  3  0  0  0  0  0  0
  190.4300  173.5510  138.3170 C   0  0  1  0  0  3  0  0  0  0  0  0
  191.6650  174.0050  137.5570 C   0  0  0  0  0  1  0  0  0  0  0  0
  189.2320  173.4880  137.4260 C   0  0  0  0  0  0  0  0  0  0  0  0
  188.1420  174.3870  137.6060 N   0  0  0  0  0  1  0  0  0  0  0  0
  189.1920  172.6410  136.5000 O   0  0  0  0  0  0  0  0  0  0  0  0
  192.7700  171.0300  139.5050 C   0  0  0  0  0  0  0  0  0  0  0  0
  191.9860  172.0650  139.6340 N   0  0  0  0  0  0  0  0  0  0  0  0
  194.0990  171.0860  140.1490 C   0  0  0  0  0  0  0  0  0  0  0  0
  195.1510  171.0540  139.4520 O   0  0  0  0  0  0  0  0  0  0  0  0
  194.1910  171.1640  141.5760 N   0  0  0  0  0  2  0  0  0  0  0  0
  195.4610  171.1340  142.2850 C   0  0  0  0  0  2  0  0  0  0  0  0
  196.3500  173.3280  142.7340 N   0  0  0  0  0  0  0  0  0  0  0  0
  195.6100  172.3570  143.1280 C   0  0  0  0  0  3  0  0  0  0  0  0
  196.4780  174.5210  143.5310 C   0  0  0  0  0  2  0  0  0  0  0  0
  197.1870  175.5430  141.4580 O   0  0  0  0  0  0  0  0  0  0  0  0
  196.3010  175.8520  140.4040 C   0  0  0  0  0  2  0  0  0  0  0  0
  194.9830  176.1710  140.9960 C   0  0  0  0  0  3  0  0  0  0  0  0
  197.0620  176.8360  143.3500 O   0  0  0  0  0  1  0  0  0  0  0  0
  195.0870  176.1260  142.3000 C   0  0  0  0  0  3  0  0  0  0  0  0
  196.4800  175.7740  142.6590 C   0  0  2  0  0  0  0  0  0  0  0  0
  192.3480  169.8250  138.6870 C   0  0  1  0  0  3  0  0  0  0  0  0
  192.0920  170.1860  136.4340 C   0  0  0  0  0  1  0  0  0  0  0  0
  192.9770  169.7330  137.4240 O   0  0  0  0  0  0  0  0  0  0  0  0
  192.2600  168.5060  139.4590 C   0  0  0  0  0  2  0  0  0  0  0  0
  191.1970  168.6000  140.5340 C   0  0  0  0  0  1  0  0  0  0  0  0
  189.5390  171.9830  140.1660 C   0  0  0  0  0  2  0  0  0  0  0  0
  192.2130  173.9830  142.4510 C   0  0  0  0  0  2  0  0  0  0  0  0
  190.8350  172.2210  143.7930 C   0  0  0  0  0  2  0  0  0  0  0  0
  192.0450  173.1690  143.7540 C   0  0  2  0  0  3  0  0  0  0  0  0
  189.6900  173.9760  141.8090 C   0  0  0  0  0  2  0  0  0  0  0  0
  190.4480  171.7040  142.4360 C   0  0  0  0  0  3  0  0  0  0  0  0
  190.9770  174.7900  142.0220 C   0  0  0  0  0  2  0  0  0  0  0  0
  189.9210  172.5180  141.5090 C   0  0  0  0  0  0  0  0  0  0  0  0
  192.9970  173.3680  146.0010 O   0  0  0  0  0  0  0  0  0  0  0  0
  193.4680  175.6670  146.4990 C   0  0  1  0  0  3  0  0  0  0  0  0
  192.1530  173.9750  145.0580 C   0  0  2  0  0  0  0  0  0  0  0  0
  192.1420  176.4050  146.5920 C   0  0  0  0  0  2  0  0  0  0  0  0
  190.8450  174.4950  145.6770 C   0  0  0  0  0  2  0  0  0  0  0  0
  191.0460  175.4010  146.8880 C   0  0  2  0  0  3  0  0  0  0  0  0
  193.4760  174.5700  145.4230 C   0  0  2  0  0  3  0  0  0  0  0  0
  194.5600  176.6480  146.2350 C   0  0  0  0  0  3  0  0  0  0  0  0
  194.3870  177.5720  145.4540 O   0  0  0  0  0  0  0  0  0  0  0  0
  189.8100  176.1090  147.1810 N   0  0  0  0  0  2  0  0  0  0  0  0
  188.9320  175.8720  146.1140 N   0  0  0  0  0  2  0  0  0  0  0  0
  186.5700  178.3770  144.5480 C   0  0  0  0  0  2  0  0  0  0  0  0
  187.7840  177.5360  144.8440 C   0  0  0  0  0  3  0  0  0  0  0  0
  186.6460  176.6830  146.8240 C   0  0  0  0  0  3  0  0  0  0  0  0
  185.7220  177.6490  146.7810 C   0  0  0  0  0  3  0  0  0  0  0  0
  187.7950  176.7050  145.8910 C   0  0  0  0  0  0  0  0  0  0  0  0
  185.8870  178.8170  145.8470 C   0  0  0  0  0  2  0  0  0  0  0  0
  1  8  1  0  0  0  0
  1 27  1  1  0  0  0
  2  3  1  6  0  0  0
  2  1  1  0  0  0  0
  4  5  1  0  0  0  0
  4  2  1  0  0  0  0
  6  4  2  0  0  0  0
  7  8  2  0  0  0  0
  7  9  1  0  0  0  0
  9 11  1  0  0  0  0
 10  9  2  0  0  0  0
 11 12  1  0  0  0  0
 12 14  1  0  0  0  0
 13 14  2  0  0  0  0
 13 15  1  0  0  0  0
 16 21  1  0  0  0  0
 17 18  1  0  0  0  0
 17 16  1  0  0  0  0
 18 20  2  0  0  0  0
 20 21  1  0  0  0  0
 21 19  1  1  0  0  0
 21 15  1  0  0  0  0
 22 25  1  1  0  0  0
 22  7  1  0  0  0  0
 23 24  1  0  0  0  0
 24 22  1  0  0  0  0
 25 26  1  0  0  0  0
 27 34  1  0  0  0  0
 30 28  1  6  0  0  0
 30 29  1  0  0  0  0
 30 37  1  0  0  0  0
 31 33  1  0  0  0  0
 32 29  1  0  0  0  0
 33 28  1  0  0  0  0
 34 31  1  0  0  0  0
 34 32  2  0  0  0  0
 36 42  1  6  0  0  0
 36 38  1  0  0  0  0
 37 41  1  0  0  0  0
 37 39  1  1  0  0  0
 37 35  1  0  0  0  0
 38 40  1  0  0  0  0
 39 40  1  0  0  0  0
 40 44  1  6  0  0  0
 41 35  1  1  0  0  0
 41 36  1  0  0  0  0
 43 42  2  0  0  0  0
 45 44  1  0  0  0  0
 46 47  1  0  0  0  0
 46 51  1  0  0  0  0
 47 50  2  0  0  0  0
 49 48  2  0  0  0  0
 50 45  1  0  0  0  0
 50 48  1  0  0  0  0
 51 49  1  0  0  0  0
M  END
>  <MODEL>
4

>  <REMARK>
 VINA RESULT:      -6.1      3.195      9.050
  Name = 
  18 active torsions:
  status: ('A' for Active; 'I' for Inactive)
    1  A    between atoms: C_1  and  C_11
    2  A    between atoms: C_1  and  C_14
    3  A    between atoms: C_1  and  N_33
    4  A    between atoms: N_3  and  N_7
    5  A    between atoms: N_3  and  C_44
    6  A    between atoms: N_7  and  C_35
    7  A    between atoms: C_8  and  C_31
    8  A    between atoms: C_10  and  C_23
    9  A    between atoms: C_11  and  C_48
   10  A    between atoms: C_12  and  C_19
   11  A    between atoms: C_14  and  C_27
   12  A    between atoms: C_18  and  C_50
   13  A    between atoms: C_20  and  C_30
   14  A    between atoms: C_20  and  N_41
   15  A    between atoms: N_29  and  C_37
   16  A    between atoms: C_31  and  C_50
   17  A    between atoms: C_37  and  C_46
   18  A    between atoms: O_42  and  C_50
                            x       y       z     vdW  Elec       q    Type
                         _______ _______ _______ _____ _____    ______ ____

>  <TORSDO>
F 18

$$$$
=
 OpenBabel11062419013D

 51 55  0  0  1  0  0  0  0  0999 V2000
  192.2490  174.3290  144.7080 C   0  0  1  0  0  3  0  0  0  0  0  0
  193.7400  174.7050  144.6610 C   0  0  1  0  0  3  0  0  0  0  0  0
  194.2970  174.8790  143.2580 C   0  0  0  0  0  1  0  0  0  0  0  0
  194.0490  175.8860  145.5230 C   0  0  0  0  0  0  0  0  0  0  0  0
  194.9500  176.8970  145.0790 N   0  0  0  0  0  1  0  0  0  0  0  0
  193.4980  175.9950  146.6460 O   0  0  0  0  0  0  0  0  0  0  0  0
  190.4150  175.8960  144.0500 C   0  0  0  0  0  0  0  0  0  0  0  0
  191.4100  175.0960  143.7780 N   0  0  0  0  0  0  0  0  0  0  0  0
  189.7110  176.5300  142.9160 C   0  0  0  0  0  0  0  0  0  0  0  0
  190.1020  177.6400  142.4590 O   0  0  0  0  0  0  0  0  0  0  0  0
  188.5680  175.8850  142.3420 N   0  0  0  0  0  2  0  0  0  0  0  0
  187.7720  176.4890  141.2840 C   0  0  0  0  0  2  0  0  0  0  0  0
  185.8630  176.9250  142.6870 N   0  0  0  0  0  0  0  0  0  0  0  0
  186.7340  177.3890  141.8680 C   0  0  0  0  0  3  0  0  0  0  0  0
  184.8740  177.7930  143.2740 C   0  0  0  0  0  2  0  0  0  0  0  0
  184.1950  178.7910  145.3680 O   0  0  0  0  0  0  0  0  0  0  0  0
  184.0940  178.0670  146.5750 C   0  0  0  0  0  2  0  0  0  0  0  0
  185.1030  176.9840  146.5420 C   0  0  0  0  0  3  0  0  0  0  0  0
  186.3040  179.2130  144.5670 O   0  0  0  0  0  1  0  0  0  0  0  0
  185.7980  177.0930  145.4380 C   0  0  0  0  0  3  0  0  0  0  0  0
  185.2960  178.2530  144.6670 C   0  0  2  0  0  0  0  0  0  0  0  0
  190.0200  176.1960  145.4820 C   0  0  1  0  0  3  0  0  0  0  0  0
  189.1580  177.7670  146.9190 C   0  0  0  0  0  1  0  0  0  0  0  0
  189.9750  177.5740  145.7940 O   0  0  0  0  0  0  0  0  0  0  0  0
  188.8470  175.3760  146.0260 C   0  0  0  0  0  2  0  0  0  0  0  0
  189.3290  174.4260  147.1020 C   0  0  0  0  0  1  0  0  0  0  0  0
  191.9700  172.8240  144.6750 C   0  0  0  0  0  2  0  0  0  0  0  0
  191.1110  173.7210  140.8240 C   0  0  0  0  0  2  0  0  0  0  0  0
  189.4520  172.0020  141.8690 C   0  0  0  0  0  2  0  0  0  0  0  0
  189.7670  172.9660  140.7140 C   0  0  2  0  0  3  0  0  0  0  0  0
  192.3070  171.9210  142.2750 C   0  0  0  0  0  2  0  0  0  0  0  0
  190.0590  172.4280  143.1760 C   0  0  0  0  0  3  0  0  0  0  0  0
  192.3450  172.8300  141.0350 C   0  0  0  0  0  2  0  0  0  0  0  0
  191.3860  172.3980  143.3660 C   0  0  0  0  0  0  0  0  0  0  0  0
  188.1560  172.4640  138.9400 O   0  0  0  0  0  0  0  0  0  0  0  0
  189.2310  172.5510  136.7980 C   0  0  1  0  0  3  0  0  0  0  0  0
  189.4880  172.3050  139.3560 C   0  0  2  0  0  0  0  0  0  0  0  0
  190.2280  171.4040  136.7290 C   0  0  0  0  0  2  0  0  0  0  0  0
  190.0100  170.8740  139.1460 C   0  0  0  0  0  2  0  0  0  0  0  0
  189.8170  170.3420  137.7280 C   0  0  2  0  0  3  0  0  0  0  0  0
  189.1270  173.1780  138.1960 C   0  0  2  0  0  3  0  0  0  0  0  0
  189.6090  173.5920  135.7980 C   0  0  0  0  0  3  0  0  0  0  0  0
  189.4910  174.7780  136.0650 O   0  0  0  0  0  0  0  0  0  0  0  0
  190.6340  169.1560  137.5350 N   0  0  0  0  0  2  0  0  0  0  0  0
  191.6700  169.2050  138.4780 N   0  0  0  0  0  2  0  0  0  0  0  0
  195.2860  170.3120  138.5020 C   0  0  0  0  0  2  0  0  0  0  0  0
  193.8360  170.1320  138.8650 C   0  0  0  0  0  3  0  0  0  0  0  0
  193.5290  168.8780  136.7980 C   0  0  0  0  0  3  0  0  0  0  0  0
  194.6920  169.3060  136.2960 C   0  0  0  0  0  3  0  0  0  0  0  0
  193.0240  169.4150  138.0810 C   0  0  0  0  0  0  0  0  0  0  0  0
  195.4570  170.4050  136.9830 C   0  0  0  0  0  2  0  0  0  0  0  0
  1 27  1  6  0  0  0
  2  3  1  6  0  0  0
  2  1  1  0  0  0  0
  2  4  1  0  0  0  0
  4  6  2  0  0  0  0
  5  4  1  0  0  0  0
  7 22  1  0  0  0  0
  8  7  2  0  0  0  0
  8  1  1  0  0  0  0
  9  7  1  0  0  0  0
 10  9  2  0  0  0  0
 11  9  1  0  0  0  0
 12 14  1  0  0  0  0
 12 11  1  0  0  0  0
 13 15  1  0  0  0  0
 14 13  2  0  0  0  0
 15 21  1  0  0  0  0
 16 17  1  0  0  0  0
 18 17  1  0  0  0  0
 20 18  2  0  0  0  0
 21 19  1  6  0  0  0
 21 16  1  0  0  0  0
 21 20  1  0  0  0  0
 22 24  1  0  0  0  0
 22 25  1  6  0  0  0
 24 23  1  0  0  0  0
 25 26  1  0  0  0  0
 28 33  1  0  0  0  0
 29 32  1  0  0  0  0
 30 28  1  6  0  0  0
 30 29  1  0  0  0  0
 31 34  1  0  0  0  0
 32 34  2  0  0  0  0
 33 31  1  0  0  0  0
 34 27  1  0  0  0  0
 35 37  1  0  0  0  0
 36 42  1  6  0  0  0
 36 41  1  0  0  0  0
 37 39  1  6  0  0  0
 37 30  1  0  0  0  0
 38 36  1  0  0  0  0
 38 40  1  0  0  0  0
 40 44  1  1  0  0  0
 40 39  1  0  0  0  0
 41 35  1  1  0  0  0
 41 37  1  0  0  0  0
 42 43  2  0  0  0  0
 44 45  1  0  0  0  0
 46 47  1  0  0  0  0
 48 50  1  0  0  0  0
 49 48  2  0  0  0  0
 49 51  1  0  0  0  0
 50 45  1  0  0  0  0
 50 47  2  0  0  0  0
 51 46  1  0  0  0  0
M  END
>  <MODEL>
5

>  <REMARK>
 VINA RESULT:      -6.1      2.813      5.716
  Name = 
  18 active torsions:
  status: ('A' for Active; 'I' for Inactive)
    1  A    between atoms: C_1  and  C_11
    2  A    between atoms: C_1  and  C_14
    3  A    between atoms: C_1  and  N_33
    4  A    between atoms: N_3  and  N_7
    5  A    between atoms: N_3  and  C_44
    6  A    between atoms: N_7  and  C_35
    7  A    between atoms: C_8  and  C_31
    8  A    between atoms: C_10  and  C_23
    9  A    between atoms: C_11  and  C_48
   10  A    between atoms: C_12  and  C_19
   11  A    between atoms: C_14  and  C_27
   12  A    between atoms: C_18  and  C_50
   13  A    between atoms: C_20  and  C_30
   14  A    between atoms: C_20  and  N_41
   15  A    between atoms: N_29  and  C_37
   16  A    between atoms: C_31  and  C_50
   17  A    between atoms: C_37  and  C_46
   18  A    between atoms: O_42  and  C_50
                            x       y       z     vdW  Elec       q    Type
                         _______ _______ _______ _____ _____    ______ ____

>  <TORSDO>
F 18

$$$$
=
 OpenBabel11062419013D

 51 55  0  0  1  0  0  0  0  0999 V2000
  191.4930  172.2310  140.3610 C   0  0  1  0  0  3  0  0  0  0  0  0
  190.4280  172.8890  139.4660 C   0  0  1  0  0  3  0  0  0  0  0  0
  190.9940  173.7760  138.3700 C   0  0  0  0  0  1  0  0  0  0  0  0
  189.4600  171.8910  138.9160 C   0  0  0  0  0  0  0  0  0  0  0  0
  189.7840  170.5050  138.8800 N   0  0  0  0  0  1  0  0  0  0  0  0
  188.3430  172.2800  138.4930 O   0  0  0  0  0  0  0  0  0  0  0  0
  193.8590  172.1800  139.5570 C   0  0  0  0  0  0  0  0  0  0  0  0
  192.8500  172.7510  140.1550 N   0  0  0  0  0  0  0  0  0  0  0  0
  195.1400  172.9160  139.5100 C   0  0  0  0  0  0  0  0  0  0  0  0
  196.2380  172.2970  139.5830 O   0  0  0  0  0  0  0  0  0  0  0  0
  195.1330  174.3430  139.3950 N   0  0  0  0  0  2  0  0  0  0  0  0
  196.3490  175.1420  139.4310 C   0  0  0  0  0  2  0  0  0  0  0  0
  195.6490  175.9210  141.6010 N   0  0  0  0  0  0  0  0  0  0  0  0
  196.6200  175.6080  140.8240 C   0  0  0  0  0  3  0  0  0  0  0  0
  195.9020  176.3460  142.9540 C   0  0  0  0  0  2  0  0  0  0  0  0
  195.3860  175.8440  145.2620 O   0  0  0  0  0  0  0  0  0  0  0  0
  194.3390  176.4650  145.9740 C   0  0  0  0  0  2  0  0  0  0  0  0
  193.2650  176.7940  145.0110 C   0  0  0  0  0  3  0  0  0  0  0  0
  194.8020  174.3320  143.6360 O   0  0  0  0  0  1  0  0  0  0  0  0
  193.6090  176.3450  143.8300 C   0  0  0  0  0  3  0  0  0  0  0  0
  194.9330  175.6890  143.9330 C   0  0  2  0  0  0  0  0  0  0  0  0
  193.7130  170.8240  138.8960 C   0  0  1  0  0  3  0  0  0  0  0  0
  194.2420  169.3090  140.5380 C   0  0  0  0  0  1  0  0  0  0  0  0
  193.2010  169.8170  139.7460 O   0  0  0  0  0  0  0  0  0  0  0  0
  193.1150  170.8410  137.4860 C   0  0  0  0  0  2  0  0  0  0  0  0
  192.7310  169.4370  137.0660 C   0  0  0  0  0  1  0  0  0  0  0  0
  191.1040  172.1180  141.8360 C   0  0  0  0  0  2  0  0  0  0  0  0
  188.2690  174.9080  141.0940 C   0  0  0  0  0  2  0  0  0  0  0  0
  190.1490  175.7590  142.6880 C   0  0  0  0  0  2  0  0  0  0  0  0
  188.9460  176.1070  141.7960 C   0  0  2  0  0  3  0  0  0  0  0  0
  188.9620  173.1360  142.8700 C   0  0  0  0  0  2  0  0  0  0  0  0
  190.8950  174.5400  142.2240 C   0  0  0  0  0  3  0  0  0  0  0  0
  187.8410  173.7630  142.0260 C   0  0  0  0  0  2  0  0  0  0  0  0
  190.3440  173.3190  142.3010 C   0  0  0  0  0  0  0  0  0  0  0  0
  187.9550  178.3430  141.8980 O   0  0  0  0  0  0  0  0  0  0  0  0
  185.6750  178.2040  142.6280 C   0  0  1  0  0  3  0  0  0  0  0  0
  187.9970  177.0800  142.5100 C   0  0  2  0  0  0  0  0  0  0  0  0
  185.6760  177.7330  144.0740 C   0  0  0  0  0  2  0  0  0  0  0  0
  188.0930  177.1640  144.0420 C   0  0  0  0  0  2  0  0  0  0  0  0
  187.0260  178.0450  144.6870 C   0  0  2  0  0  3  0  0  0  0  0  0
  186.7820  177.5580  141.7810 C   0  0  2  0  0  3  0  0  0  0  0  0
  184.3400  177.9270  142.0210 C   0  0  0  0  0  3  0  0  0  0  0  0
  183.3190  178.3060  142.5740 O   0  0  0  0  0  0  0  0  0  0  0  0
  186.9770  177.7900  146.1170 N   0  0  0  0  0  2  0  0  0  0  0  0
  187.4000  176.4680  146.3180 N   0  0  0  0  0  2  0  0  0  0  0  0
  190.6920  174.6200  146.5210 C   0  0  0  0  0  2  0  0  0  0  0  0
  189.2400  174.9470  146.2980 C   0  0  0  0  0  3  0  0  0  0  0  0
  189.6470  177.1560  147.2460 C   0  0  0  0  0  3  0  0  0  0  0  0
  190.8230  176.7830  147.7610 C   0  0  0  0  0  3  0  0  0  0  0  0
  188.7640  176.1600  146.5980 C   0  0  0  0  0  0  0  0  0  0  0  0
  191.2220  175.3320  147.7690 C   0  0  0  0  0  2  0  0  0  0  0  0
  1 27  1  1  0  0  0
  2  3  1  6  0  0  0
  2  1  1  0  0  0  0
  4  2  1  0  0  0  0
  5  4  1  0  0  0  0
  6  4  2  0  0  0  0
  7  8  2  0  0  0  0
  8  1  1  0  0  0  0
  9  7  1  0  0  0  0
  9 10  2  0  0  0  0
 11 12  1  0  0  0  0
 11  9  1  0  0  0  0
 12 14  1  0  0  0  0
 13 15  1  0  0  0  0
 14 13  2  0  0  0  0
 15 21  1  0  0  0  0
 16 17  1  0  0  0  0
 18 17  1  0  0  0  0
 20 21  1  0  0  0  0
 20 18  2  0  0  0  0
 21 19  1  6  0  0  0
 21 16  1  0  0  0  0
 22 25  1  6  0  0  0
 22  7  1  0  0  0  0
 22 24  1  0  0  0  0
 24 23  1  0  0  0  0
 26 25  1  0  0  0  0
 27 34  1  0  0  0  0
 28 33  1  0  0  0  0
 30 28  1  1  0  0  0
 30 37  1  0  0  0  0
 30 29  1  0  0  0  0
 32 34  2  0  0  0  0
 32 29  1  0  0  0  0
 33 31  1  0  0  0  0
 34 31  1  0  0  0  0
 35 37  1  0  0  0  0
 36 42  1  6  0  0  0
 36 38  1  0  0  0  0
 37 39  1  1  0  0  0
 38 40  1  0  0  0  0
 39 40  1  0  0  0  0
 40 44  1  1  0  0  0
 41 35  1  6  0  0  0
 41 37  1  0  0  0  0
 41 36  1  0  0  0  0
 42 43  2  0  0  0  0
 44 45  1  0  0  0  0
 45 50  1  0  0  0  0
 46 51  1  0  0  0  0
 47 46  1  0  0  0  0
 47 50  2  0  0  0  0
 48 49  2  0  0  0  0
 49 51  1  0  0  0  0
 50 48  1  0  0  0  0
M  END
>  <MODEL>
6

>  <REMARK>
 VINA RESULT:      -5.9      2.857      9.597
  Name = 
  18 active torsions:
  status: ('A' for Active; 'I' for Inactive)
    1  A    between atoms: C_1  and  C_11
    2  A    between atoms: C_1  and  C_14
    3  A    between atoms: C_1  and  N_33
    4  A    between atoms: N_3  and  N_7
    5  A    between atoms: N_3  and  C_44
    6  A    between atoms: N_7  and  C_35
    7  A    between atoms: C_8  and  C_31
    8  A    between atoms: C_10  and  C_23
    9  A    between atoms: C_11  and  C_48
   10  A    between atoms: C_12  and  C_19
   11  A    between atoms: C_14  and  C_27
   12  A    between atoms: C_18  and  C_50
   13  A    between atoms: C_20  and  C_30
   14  A    between atoms: C_20  and  N_41
   15  A    between atoms: N_29  and  C_37
   16  A    between atoms: C_31  and  C_50
   17  A    between atoms: C_37  and  C_46
   18  A    between atoms: O_42  and  C_50
                            x       y       z     vdW  Elec       q    Type
                         _______ _______ _______ _____ _____    ______ ____

>  <TORSDO>
F 18

$$$$
=
 OpenBabel11062419013D

 51 55  0  0  1  0  0  0  0  0999 V2000
  189.4310  176.5540  144.2440 C   0  0  1  0  0  3  0  0  0  0  0  0
  188.7820  176.0360  145.5390 C   0  0  1  0  0  3  0  0  0  0  0  0
  189.5110  174.8660  146.1790 C   0  0  0  0  0  1  0  0  0  0  0  0
  188.5380  177.1330  146.5250 C   0  0  0  0  0  0  0  0  0  0  0  0
  189.5590  177.5390  147.4310 N   0  0  0  0  0  1  0  0  0  0  0  0
  187.4230  177.7110  146.5440 O   0  0  0  0  0  0  0  0  0  0  0  0
  188.0000  176.2480  142.2170 C   0  0  0  0  0  0  0  0  0  0  0  0
  188.4670  176.9530  143.2110 N   0  0  0  0  0  0  0  0  0  0  0  0
  187.0500  176.9030  141.2930 C   0  0  0  0  0  0  0  0  0  0  0  0
  187.2580  176.8950  140.0480 O   0  0  0  0  0  0  0  0  0  0  0  0
  185.8920  177.5630  141.8180 N   0  0  0  0  0  2  0  0  0  0  0  0
  184.9600  178.3030  140.9800 C   0  0  0  0  0  2  0  0  0  0  0  0
  182.5930  178.1280  140.5680 N   0  0  0  0  0  0  0  0  0  0  0  0
  183.5560  178.0370  141.4110 C   0  0  0  0  0  3  0  0  0  0  0  0
  181.2390  177.8470  140.9710 C   0  0  0  0  0  2  0  0  0  0  0  0
  180.7090  180.1650  140.5340 O   0  0  0  0  0  0  0  0  0  0  0  0
  179.4190  180.6120  140.1790 C   0  0  0  0  0  2  0  0  0  0  0  0
  178.4330  179.7160  140.8270 C   0  0  0  0  0  3  0  0  0  0  0  0
  181.0280  179.4870  142.7040 O   0  0  0  0  0  1  0  0  0  0  0  0
  179.0780  178.8480  141.5650 C   0  0  0  0  0  3  0  0  0  0  0  0
  180.5310  179.1100  141.4560 C   0  0  2  0  0  0  0  0  0  0  0  0
  188.3870  174.7940  142.0380 C   0  0  1  0  0  3  0  0  0  0  0  0
  187.6390  172.6460  142.3550 C   0  0  0  0  0  1  0  0  0  0  0  0
  187.2900  173.9180  141.8750 O   0  0  0  0  0  0  0  0  0  0  0  0
  189.5600  174.5390  141.0870 C   0  0  0  0  0  2  0  0  0  0  0  0
  189.0500  174.0490  139.7490 C   0  0  0  0  0  1  0  0  0  0  0  0
  190.5490  177.5770  144.4570 C   0  0  0  0  0  2  0  0  0  0  0  0
  192.7490  174.1840  144.5420 C   0  0  0  0  0  2  0  0  0  0  0  0
  193.9720  176.2240  145.6110 C   0  0  0  0  0  2  0  0  0  0  0  0
  193.9240  174.7010  145.4030 C   0  0  2  0  0  3  0  0  0  0  0  0
  192.4430  176.3740  143.1700 C   0  0  0  0  0  2  0  0  0  0  0  0
  192.6140  176.8660  145.5900 C   0  0  0  0  0  3  0  0  0  0  0  0
  192.6100  174.8450  143.1630 C   0  0  0  0  0  2  0  0  0  0  0  0
  191.8970  176.9320  144.4580 C   0  0  0  0  0  0  0  0  0  0  0  0
  196.2370  174.2690  146.0800 O   0  0  0  0  0  0  0  0  0  0  0  0
  197.0060  172.2090  145.1220 C   0  0  1  0  0  3  0  0  0  0  0  0
  195.3100  174.1530  145.0310 C   0  0  2  0  0  0  0  0  0  0  0  0
  197.0900  172.3970  143.6150 C   0  0  0  0  0  2  0  0  0  0  0  0
  195.8940  174.5730  143.6730 C   0  0  0  0  0  2  0  0  0  0  0  0
  197.2050  173.8790  143.3160 C   0  0  2  0  0  3  0  0  0  0  0  0
  195.8230  172.9520  145.7590 C   0  0  2  0  0  3  0  0  0  0  0  0
  196.9210  170.7520  145.4310 C   0  0  0  0  0  3  0  0  0  0  0  0
  195.9860  170.0850  145.0160 O   0  0  0  0  0  0  0  0  0  0  0  0
  197.4900  174.0640  141.9030 N   0  0  0  0  0  2  0  0  0  0  0  0
  196.6390  173.2080  141.1900 N   0  0  0  0  0  2  0  0  0  0  0  0
  195.4430  174.8510  138.0020 C   0  0  0  0  0  2  0  0  0  0  0  0
  196.3130  174.3790  139.1360 C   0  0  0  0  0  3  0  0  0  0  0  0
  194.3200  173.5000  140.2300 C   0  0  0  0  0  3  0  0  0  0  0  0
  193.5030  174.1940  139.4310 C   0  0  0  0  0  3  0  0  0  0  0  0
  195.7850  173.7010  140.1600 C   0  0  0  0  0  0  0  0  0  0  0  0
  194.0560  175.2520  138.5150 C   0  0  0  0  0  2  0  0  0  0  0  0
  1 27  1  1  0  0  0
  1  2  1  0  0  0  0
  2  3  1  1  0  0  0
  2  4  1  0  0  0  0
  4  6  2  0  0  0  0
  4  5  1  0  0  0  0
  7  8  2  0  0  0  0
  8  1  1  0  0  0  0
  9 11  1  0  0  0  0
  9  7  1  0  0  0  0
 10  9  2  0  0  0  0
 12 14  1  0  0  0  0
 12 11  1  0  0  0  0
 13 15  1  0  0  0  0
 13 14  2  0  0  0  0
 15 21  1  0  0  0  0
 16 21  1  0  0  0  0
 17 16  1  0  0  0  0
 17 18  1  0  0  0  0
 18 20  2  0  0  0  0
 21 20  1  0  0  0  0
 21 19  1  1  0  0  0
 22 25  1  6  0  0  0
 22  7  1  0  0  0  0
 24 22  1  0  0  0  0
 24 23  1  0  0  0  0
 26 25  1  0  0  0  0
 27 34  1  0  0  0  0
 30 28  1  6  0  0  0
 30 29  1  0  0  0  0
 31 34  1  0  0  0  0
 32 29  1  0  0  0  0
 33 31  1  0  0  0  0
 33 28  1  0  0  0  0
 34 32  2  0  0  0  0
 36 42  1  6  0  0  0
 36 41  1  0  0  0  0
 37 39  1  6  0  0  0
 37 30  1  0  0  0  0
 37 41  1  0  0  0  0
 37 35  1  0  0  0  0
 38 36  1  0  0  0  0
 40 44  1  6  0  0  0
 40 38  1  0  0  0  0
 40 39  1  0  0  0  0
 41 35  1  1  0  0  0
 43 42  2  0  0  0  0
 45 44  1  0  0  0  0
 46 51  1  0  0  0  0
 46 47  1  0  0  0  0
 47 50  2  0  0  0  0
 49 48  2  0  0  0  0
 50 48  1  0  0  0  0
 50 45  1  0  0  0  0
 51 49  1  0  0  0  0
M  END
>  <MODEL>
7

>  <REMARK>
 VINA RESULT:      -5.8      2.764      3.776
  Name = 
  18 active torsions:
  status: ('A' for Active; 'I' for Inactive)
    1  A    between atoms: C_1  and  C_11
    2  A    between atoms: C_1  and  C_14
    3  A    between atoms: C_1  and  N_33
    4  A    between atoms: N_3  and  N_7
    5  A    between atoms: N_3  and  C_44
    6  A    between atoms: N_7  and  C_35
    7  A    between atoms: C_8  and  C_31
    8  A    between atoms: C_10  and  C_23
    9  A    between atoms: C_11  and  C_48
   10  A    between atoms: C_12  and  C_19
   11  A    between atoms: C_14  and  C_27
   12  A    between atoms: C_18  and  C_50
   13  A    between atoms: C_20  and  C_30
   14  A    between atoms: C_20  and  N_41
   15  A    between atoms: N_29  and  C_37
   16  A    between atoms: C_31  and  C_50
   17  A    between atoms: C_37  and  C_46
   18  A    between atoms: O_42  and  C_50
                            x       y       z     vdW  Elec       q    Type
                         _______ _______ _______ _____ _____    ______ ____

>  <TORSDO>
F 18

$$$$
=
 OpenBabel11062419013D

 51 55  0  0  1  0  0  0  0  0999 V2000
  191.6520  171.2530  140.2320 C   0  0  1  0  0  3  0  0  0  0  0  0
  192.0280  169.9990  139.4230 C   0  0  1  0  0  3  0  0  0  0  0  0
  193.3770  169.4020  139.7860 C   0  0  0  0  0  1  0  0  0  0  0  0
  190.9480  168.9660  139.4520 C   0  0  0  0  0  0  0  0  0  0  0  0
  190.2290  168.6300  138.2680 N   0  0  0  0  0  1  0  0  0  0  0  0
  190.6800  168.3800  140.5290 O   0  0  0  0  0  0  0  0  0  0  0  0
  192.7130  172.9850  138.7750 C   0  0  0  0  0  0  0  0  0  0  0  0
  192.4800  172.4280  139.9310 N   0  0  0  0  0  0  0  0  0  0  0  0
  193.6160  174.1550  138.7420 C   0  0  0  0  0  0  0  0  0  0  0  0
  193.3590  175.1420  137.9980 O   0  0  0  0  0  0  0  0  0  0  0  0
  194.7970  174.1610  139.5520 N   0  0  0  0  0  2  0  0  0  0  0  0
  195.7760  175.2360  139.5070 C   0  0  0  0  0  2  0  0  0  0  0  0
  196.0250  175.1310  141.9010 N   0  0  0  0  0  0  0  0  0  0  0  0
  195.9150  175.8640  140.8540 C   0  0  0  0  0  3  0  0  0  0  0  0
  196.1850  175.7300  143.2010 C   0  0  0  0  0  2  0  0  0  0  0  0
  195.5220  175.3300  145.4910 O   0  0  0  0  0  0  0  0  0  0  0  0
  194.6270  176.1620  146.1950 C   0  0  0  0  0  2  0  0  0  0  0  0
  193.6750  176.7370  145.2180 C   0  0  0  0  0  3  0  0  0  0  0  0
  194.6450  174.0080  143.8320 O   0  0  0  0  0  1  0  0  0  0  0  0
  193.9330  176.2350  144.0370 C   0  0  0  0  0  3  0  0  0  0  0  0
  195.0730  175.2970  144.1530 C   0  0  2  0  0  0  0  0  0  0  0  0
  192.0500  172.4740  137.5110 C   0  0  1  0  0  3  0  0  0  0  0  0
  189.9370  172.0850  136.6990 C   0  0  0  0  0  1  0  0  0  0  0  0
  190.7910  173.0590  137.2400 O   0  0  0  0  0  0  0  0  0  0  0  0
  192.9700  172.3380  136.2940 C   0  0  0  0  0  2  0  0  0  0  0  0
  193.5830  170.9540  136.2570 C   0  0  0  0  0  1  0  0  0  0  0  0
  190.1530  171.5610  140.2700 C   0  0  0  0  0  2  0  0  0  0  0  0
  191.2460  174.2610  143.0770 C   0  0  0  0  0  2  0  0  0  0  0  0
  189.4110  172.6060  143.9090 C   0  0  0  0  0  2  0  0  0  0  0  0
  190.4520  173.6790  144.2680 C   0  0  2  0  0  3  0  0  0  0  0  0
  189.4060  173.8170  141.2910 C   0  0  0  0  0  2  0  0  0  0  0  0
  189.7800  171.8100  142.6900 C   0  0  0  0  0  3  0  0  0  0  0  0
  190.3880  174.8140  141.9290 C   0  0  0  0  0  2  0  0  0  0  0  0
  189.7860  172.3710  141.4710 C   0  0  0  0  0  0  0  0  0  0  0  0
  189.4300  174.1340  146.4460 O   0  0  0  0  0  0  0  0  0  0  0  0
  190.1960  176.2430  147.2930 C   0  0  1  0  0  3  0  0  0  0  0  0
  189.8640  174.7110  145.2410 C   0  0  2  0  0  0  0  0  0  0  0  0
  189.6460  177.3360  146.3900 C   0  0  0  0  0  2  0  0  0  0  0  0
  188.8580  175.7250  144.6720 C   0  0  0  0  0  2  0  0  0  0  0  0
  188.4270  176.8010  145.6650 C   0  0  2  0  0  3  0  0  0  0  0  0
  190.5750  174.9640  146.5320 C   0  0  2  0  0  3  0  0  0  0  0  0
  191.3800  176.7670  148.0340 C   0  0  0  0  0  3  0  0  0  0  0  0
  191.2430  177.6290  148.8890 O   0  0  0  0  0  0  0  0  0  0  0  0
  187.7720  177.8880  144.9570 N   0  0  0  0  0  2  0  0  0  0  0  0
  186.4840  177.4470  144.6180 N   0  0  0  0  0  2  0  0  0  0  0  0
  186.3490  177.4310  140.8390 C   0  0  0  0  0  2  0  0  0  0  0  0
  186.8480  177.4020  142.2590 C   0  0  0  0  0  3  0  0  0  0  0  0
  184.5700  177.8280  143.0130 C   0  0  0  0  0  3  0  0  0  0  0  0
  184.1710  178.1960  141.7910 C   0  0  0  0  0  3  0  0  0  0  0  0
  185.9970  177.5430  143.2810 C   0  0  0  0  0  0  0  0  0  0  0  0
  185.1800  178.4110  140.6960 C   0  0  0  0  0  2  0  0  0  0  0  0
  1 27  1  6  0  0  0
  2  4  1  0  0  0  0
  2  3  1  1  0  0  0
  2  1  1  0  0  0  0
  4  6  2  0  0  0  0
  5  4  1  0  0  0  0
  7  8  2  0  0  0  0
  8  1  1  0  0  0  0
  9  7  1  0  0  0  0
  9 11  1  0  0  0  0
 10  9  2  0  0  0  0
 12 11  1  0  0  0  0
 12 14  1  0  0  0  0
 13 15  1  0  0  0  0
 14 13  2  0  0  0  0
 15 21  1  0  0  0  0
 16 17  1  0  0  0  0
 18 17  1  0  0  0  0
 20 21  1  0  0  0  0
 20 18  2  0  0  0  0
 21 19  1  6  0  0  0
 21 16  1  0  0  0  0
 22 25  1  6  0  0  0
 22  7  1  0  0  0  0
 23 24  1  0  0  0  0
 24 22  1  0  0  0  0
 26 25  1  0  0  0  0
 27 34  1  0  0  0  0
 29 30  1  0  0  0  0
 30 28  1  6  0  0  0
 30 37  1  0  0  0  0
 31 34  1  0  0  0  0
 31 33  1  0  0  0  0
 32 29  1  0  0  0  0
 33 28  1  0  0  0  0
 34 32  2  0  0  0  0
 36 42  1  6  0  0  0
 37 39  1  6  0  0  0
 37 35  1  0  0  0  0
 37 41  1  0  0  0  0
 38 36  1  0  0  0  0
 39 40  1  0  0  0  0
 40 44  1  6  0  0  0
 40 38  1  0  0  0  0
 41 35  1  1  0  0  0
 41 36  1  0  0  0  0
 42 43  2  0  0  0  0
 45 44  1  0  0  0  0
 46 47  1  0  0  0  0
 47 50  2  0  0  0  0
 48 50  1  0  0  0  0
 49 48  2  0  0  0  0
 50 45  1  0  0  0  0
 51 46  1  0  0  0  0
 51 49  1  0  0  0  0
M  END
>  <MODEL>
8

>  <REMARK>
 VINA RESULT:      -5.7      3.172      8.967
  Name = 
  18 active torsions:
  status: ('A' for Active; 'I' for Inactive)
    1  A    between atoms: C_1  and  C_11
    2  A    between atoms: C_1  and  C_14
    3  A    between atoms: C_1  and  N_33
    4  A    between atoms: N_3  and  N_7
    5  A    between atoms: N_3  and  C_44
    6  A    between atoms: N_7  and  C_35
    7  A    between atoms: C_8  and  C_31
    8  A    between atoms: C_10  and  C_23
    9  A    between atoms: C_11  and  C_48
   10  A    between atoms: C_12  and  C_19
   11  A    between atoms: C_14  and  C_27
   12  A    between atoms: C_18  and  C_50
   13  A    between atoms: C_20  and  C_30
   14  A    between atoms: C_20  and  N_41
   15  A    between atoms: N_29  and  C_37
   16  A    between atoms: C_31  and  C_50
   17  A    between atoms: C_37  and  C_46
   18  A    between atoms: O_42  and  C_50
                            x       y       z     vdW  Elec       q    Type
                         _______ _______ _______ _____ _____    ______ ____

>  <TORSDO>
F 18

$$$$
=
 OpenBabel11062419013D

 51 55  0  0  1  0  0  0  0  0999 V2000
  188.9210  176.1030  144.4480 C   0  0  1  0  0  3  0  0  0  0  0  0
  190.1990  176.8720  144.8240 C   0  0  1  0  0  3  0  0  0  0  0  0
  190.3460  178.2160  144.1310 C   0  0  0  0  0  1  0  0  0  0  0  0
  190.3630  177.0000  146.3050 C   0  0  0  0  0  0  0  0  0  0  0  0
  189.2300  176.9820  147.1680 N   0  0  0  0  0  1  0  0  0  0  0  0
  191.5140  177.1110  146.7930 O   0  0  0  0  0  0  0  0  0  0  0  0
  187.1640  177.4670  143.3070 C   0  0  0  0  0  0  0  0  0  0  0  0
  188.1970  176.6710  143.3030 N   0  0  0  0  0  0  0  0  0  0  0  0
  186.6020  177.8760  142.0030 C   0  0  0  0  0  0  0  0  0  0  0  0
  187.3640  178.1730  141.0410 O   0  0  0  0  0  0  0  0  0  0  0  0
  185.1810  177.9470  141.8350 N   0  0  0  0  0  2  0  0  0  0  0  0
  184.5570  178.4230  140.6090 C   0  0  0  0  0  2  0  0  0  0  0  0
  182.1630  178.6920  140.6120 N   0  0  0  0  0  0  0  0  0  0  0  0
  183.1640  177.8980  140.5020 C   0  0  0  0  0  3  0  0  0  0  0  0
  180.8170  178.1950  140.4840 C   0  0  0  0  0  2  0  0  0  0  0  0
  178.4910  178.8360  140.6480 O   0  0  0  0  0  0  0  0  0  0  0  0
  177.7390  178.7230  141.8360 C   0  0  0  0  0  2  0  0  0  0  0  0
  178.6610  178.9110  142.9790 C   0  0  0  0  0  3  0  0  0  0  0  0
  180.0950  180.4770  140.5710 O   0  0  0  0  0  1  0  0  0  0  0  0
  179.8540  179.1830  142.5140 C   0  0  0  0  0  3  0  0  0  0  0  0
  179.8020  179.1940  141.0350 C   0  0  2  0  0  0  0  0  0  0  0  0
  186.5820  177.9900  144.6060 C   0  0  1  0  0  3  0  0  0  0  0  0
  184.9100  179.4380  145.2220 C   0  0  0  0  0  1  0  0  0  0  0  0
  186.1330  179.3290  144.5430 O   0  0  0  0  0  0  0  0  0  0  0  0
  185.6390  177.0300  145.3370 C   0  0  0  0  0  2  0  0  0  0  0  0
  186.1640  176.7420  146.7290 C   0  0  0  0  0  1  0  0  0  0  0  0
  189.0930  174.5840  144.3620 C   0  0  0  0  0  2  0  0  0  0  0  0
  193.0800  175.2590  144.2500 C   0  0  0  0  0  2  0  0  0  0  0  0
  192.1500  174.2470  142.0340 C   0  0  0  0  0  2  0  0  0  0  0  0
  193.3190  174.9360  142.7570 C   0  0  2  0  0  3  0  0  0  0  0  0
  191.3510  173.3580  144.6590 C   0  0  0  0  0  2  0  0  0  0  0  0
  190.8080  174.6150  142.5970 C   0  0  0  0  0  3  0  0  0  0  0  0
  192.6360  174.0680  145.1130 C   0  0  0  0  0  2  0  0  0  0  0  0
  190.4350  174.2090  143.8200 C   0  0  0  0  0  0  0  0  0  0  0  0
  194.6270  173.5720  141.2010 O   0  0  0  0  0  0  0  0  0  0  0  0
  196.9160  174.2890  141.1970 C   0  0  1  0  0  3  0  0  0  0  0  0
  194.6510  174.2420  142.4350 C   0  0  2  0  0  0  0  0  0  0  0  0
  197.5090  173.9660  142.5590 C   0  0  0  0  0  2  0  0  0  0  0  0
  195.3010  173.4080  143.5510 C   0  0  0  0  0  2  0  0  0  0  0  0
  196.6850  172.8680  143.2000 C   0  0  2  0  0  3  0  0  0  0  0  0
  195.4450  174.7270  141.2650 C   0  0  2  0  0  3  0  0  0  0  0  0
  197.7350  175.3510  140.5430 C   0  0  0  0  0  3  0  0  0  0  0  0
  197.4620  175.7380  139.4170 O   0  0  0  0  0  0  0  0  0  0  0  0
  197.3520  172.4060  144.4060 N   0  0  0  0  0  2  0  0  0  0  0  0
  196.3670  172.2490  145.3920 N   0  0  0  0  0  2  0  0  0  0  0  0
  196.3860  168.8650  147.0800 C   0  0  0  0  0  2  0  0  0  0  0  0
  196.8130  170.2060  146.5440 C   0  0  0  0  0  3  0  0  0  0  0  0
  194.6260  170.4200  145.4890 C   0  0  0  0  0  3  0  0  0  0  0  0
  194.3540  169.1210  145.6530 C   0  0  0  0  0  3  0  0  0  0  0  0
  195.9620  170.9550  145.8350 C   0  0  0  0  0  0  0  0  0  0  0  0
  195.4300  168.1720  146.1050 C   0  0  0  0  0  2  0  0  0  0  0  0
  1 27  1  6  0  0  0
  1  2  1  0  0  0  0
  2  3  1  6  0  0  0
  2  4  1  0  0  0  0
  4  6  2  0  0  0  0
  4  5  1  0  0  0  0
  7 22  1  0  0  0  0
  8  7  2  0  0  0  0
  8  1  1  0  0  0  0
  9  7  1  0  0  0  0
 10  9  2  0  0  0  0
 11  9  1  0  0  0  0
 12 11  1  0  0  0  0
 14 12  1  0  0  0  0
 14 13  2  0  0  0  0
 15 13  1  0  0  0  0
 15 21  1  0  0  0  0
 16 21  1  0  0  0  0
 16 17  1  0  0  0  0
 17 18  1  0  0  0  0
 20 18  2  0  0  0  0
 21 19  1  6  0  0  0
 21 20  1  0  0  0  0
 22 25  1  6  0  0  0
 24 22  1  0  0  0  0
 24 23  1  0  0  0  0
 25 26  1  0  0  0  0
 28 33  1  0  0  0  0
 29 32  1  0  0  0  0
 30 29  1  1  0  0  0
 30 28  1  0  0  0  0
 31 33  1  0  0  0  0
 32 34  2  0  0  0  0
 34 27  1  0  0  0  0
 34 31  1  0  0  0  0
 35 37  1  0  0  0  0
 36 42  1  1  0  0  0
 36 41  1  0  0  0  0
 36 38  1  0  0  0  0
 37 30  1  0  0  0  0
 37 39  1  1  0  0  0
 38 40  1  0  0  0  0
 40 39  1  0  0  0  0
 40 44  1  1  0  0  0
 41 35  1  6  0  0  0
 41 37  1  0  0  0  0
 43 42  2  0  0  0  0
 44 45  1  0  0  0  0
 45 50  1  0  0  0  0
 47 46  1  0  0  0  0
 48 49  2  0  0  0  0
 48 50  1  0  0  0  0
 49 51  1  0  0  0  0
 50 47  2  0  0  0  0
 51 46  1  0  0  0  0
M  END
>  <MODEL>
9

>  <REMARK>
 VINA RESULT:      -5.6      3.033      5.031
  Name = 
  18 active torsions:
  status: ('A' for Active; 'I' for Inactive)
    1  A    between atoms: C_1  and  C_11
    2  A    between atoms: C_1  and  C_14
    3  A    between atoms: C_1  and  N_33
    4  A    between atoms: N_3  and  N_7
    5  A    between atoms: N_3  and  C_44
    6  A    between atoms: N_7  and  C_35
    7  A    between atoms: C_8  and  C_31
    8  A    between atoms: C_10  and  C_23
    9  A    between atoms: C_11  and  C_48
   10  A    between atoms: C_12  and  C_19
   11  A    between atoms: C_14  and  C_27
   12  A    between atoms: C_18  and  C_50
   13  A    between atoms: C_20  and  C_30
   14  A    between atoms: C_20  and  N_41
   15  A    between atoms: N_29  and  C_37
   16  A    between atoms: C_31  and  C_50
   17  A    between atoms: C_37  and  C_46
   18  A    between atoms: O_42  and  C_50
                            x       y       z     vdW  Elec       q    Type
                         _______ _______ _______ _____ _____    ______ ____

>  <TORSDO>
F 18

$$$$
