=
 OpenBabel11062420513D

 50 56  0  0  1  0  0  0  0  0999 V2000
  195.2940  175.6570  139.9670 N   0  0  0  0  0  0  0  0  0  0  0  0
  194.6320  173.5160  142.1240 C   0  0  2  0  0  3  0  0  0  0  0  0
  195.6410  175.6500  141.2180 C   0  0  0  0  0  0  0  0  0  0  0  0
  193.5440  173.2440  141.0840 C   0  0  1  0  0  3  0  0  0  0  0  0
  194.9510  174.9410  142.2380 N   0  0  0  0  0  0  0  0  0  0  0  0
  196.5370  176.5080  143.1630 C   0  0  0  0  0  3  0  0  0  0  0  0
  195.7880  172.7820  141.8390 O   0  0  0  0  0  1  0  0  0  0  0  0
  195.3580  175.5720  143.4990 C   0  0  2  0  0  3  0  0  0  0  0  0
  196.6160  176.5420  141.7120 N   0  0  0  0  0  0  0  0  0  0  0  0
  194.0990  175.0270  139.4190 C   0  0  0  0  0  2  0  0  0  0  0  0
  194.0510  173.5240  139.6550 C   0  0  2  0  0  3  0  0  0  0  0  0
  190.3590  172.7930  136.5020 N   0  0  0  0  0  1  0  0  0  0  0  0
  193.1900  172.9100  138.5910 C   0  0  0  0  0  0  0  0  0  0  0  0
  192.3980  171.5600  136.9120 C   0  0  0  0  0  3  0  0  0  0  0  0
  191.5820  172.5630  137.1870 C   0  0  0  0  0  0  0  0  0  0  0  0
  192.0570  173.4050  138.2230 N   0  0  0  0  0  2  0  0  0  0  0  0
  193.5710  171.6850  137.8270 C   0  0  0  0  0  3  0  0  0  0  0  0
  193.7230  170.8820  141.0450 O   0  0  0  0  0  0  0  0  0  0  0  0
  193.0080  171.8450  141.2840 C   0  0  0  0  0  0  0  0  0  0  0  0
  191.6230  171.6180  141.8220 C   0  0  1  0  0  3  0  0  0  0  0  0
  191.2620  172.6040  142.7450 O   0  0  0  0  0  1  0  0  0  0  0  0
  190.6160  170.5350  139.9550 O   0  0  0  0  0  0  0  0  0  0  0  0
  189.6620  172.5790  140.5340 N   0  0  0  0  0  2  0  0  0  0  0  0
  190.6090  171.5300  140.7270 C   0  0  0  0  0  0  0  0  0  0  0  0
  188.7380  172.5060  139.5480 O   0  0  0  0  0  1  0  0  0  0  0  0
  195.7080  174.5860  144.6230 C   0  0  0  0  0  2  0  0  0  0  0  0
  194.6770  174.5870  145.7450 C   0  0  0  0  0  2  0  0  0  0  0  0
  194.4080  176.0120  146.2040 C   0  0  0  0  0  2  0  0  0  0  0  0
  189.9430  175.6210  146.9460 C   0  0  2  0  0  0  0  0  0  0  0  0
  190.8870  175.0560  145.8430 C   0  0  2  0  0  0  0  0  0  0  0  0
  191.1400  175.7660  147.8710 C   0  0  0  0  0  2  0  0  0  0  0  0
  191.2610  175.8140  144.5630 C   0  0  2  0  0  3  0  0  0  0  0  0
  188.9940  174.5820  147.5310 C   0  0  0  0  0  1  0  0  0  0  0  0
  190.6660  173.7030  145.5720 O   0  0  0  0  0  1  0  0  0  0  0  0
  192.3770  176.7850  144.8920 C   0  0  0  0  0  2  0  0  0  0  0  0
  192.9220  176.3640  146.2480 C   0  0  1  0  0  3  0  0  0  0  0  0
  192.0670  175.2230  146.7900 C   0  0  2  0  0  3  0  0  0  0  0  0
  190.1020  175.9350  142.3780 C   0  0  0  0  0  2  0  0  0  0  0  0
  190.1160  176.4560  143.7990 C   0  0  0  0  0  3  0  0  0  0  0  0
  189.1140  175.3980  143.3890 C   0  0  0  0  0  2  0  0  0  0  0  0
  189.2070  176.9620  146.7580 C   0  0  2  0  0  3  0  0  0  0  0  0
  189.7000  177.9410  147.6240 O   0  0  0  0  0  1  0  0  0  0  0  0
  187.7620  176.8530  146.8950 N   0  0  0  0  0  2  0  0  0  0  0  0
  187.1370  178.2730  144.9960 C   0  0  0  0  0  2  0  0  0  0  0  0
  187.1890  178.1370  146.5210 C   0  0  1  0  0  3  0  0  0  0  0  0
  186.1420  177.2820  144.3910 C   0  0  2  0  0  3  0  0  0  0  0  0
  186.0790  177.5050  142.6290 Cl  0  0  0  0  0  0  0  0  0  0  0  0
  184.7990  177.3160  146.4960 C   0  0  0  0  0  2  0  0  0  0  0  0
  184.7550  177.5030  144.9840 C   0  0  0  0  0  2  0  0  0  0  0  0
  185.7920  178.2930  147.1280 C   0  0  0  0  0  2  0  0  0  0  0  0
  1  3  2  0  0  0  0
  2  7  1  6  0  0  0
  2  5  1  0  0  0  0
  3  9  1  0  0  0  0
  3  5  1  0  0  0  0
  4 19  1  6  0  0  0
  4  2  1  0  0  0  0
  5  8  1  0  0  0  0
  6  8  1  0  0  0  0
  8 26  1  1  0  0  0
  9  6  2  0  0  0  0
 10 11  1  0  0  0  0
 10  1  1  0  0  0  0
 11 13  1  6  0  0  0
 11  4  1  0  0  0  0
 12 15  1  0  0  0  0
 14 15  2  0  0  0  0
 14 17  1  0  0  0  0
 15 16  1  0  0  0  0
 16 13  1  0  0  0  0
 17 13  2  0  0  0  0
 18 19  2  0  0  0  0
 19 20  1  0  0  0  0
 20 21  1  1  0  0  0
 22 24  2  0  0  0  0
 23 24  1  0  0  0  0
 24 20  1  0  0  0  0
 25 23  1  0  0  0  0
 26 27  1  0  0  0  0
 27 28  1  0  0  0  0
 29 33  1  1  0  0  0
 29 31  1  0  0  0  0
 30 34  1  6  0  0  0
 30 37  1  0  0  0  0
 30 29  1  0  0  0  0
 32 39  1  1  0  0  0
 32 35  1  0  0  0  0
 32 30  1  0  0  0  0
 35 36  1  0  0  0  0
 36 28  1  6  0  0  0
 36 37  1  0  0  0  0
 37 31  1  1  0  0  0
 38 40  1  0  0  0  0
 38 39  1  0  0  0  0
 40 39  1  0  0  0  0
 41 43  1  0  0  0  0
 41 29  1  0  0  0  0
 41 42  1  1  0  0  0
 44 45  1  0  0  0  0
 45 43  1  6  0  0  0
 45 50  1  0  0  0  0
 46 47  1  6  0  0  0
 46 49  1  0  0  0  0
 46 44  1  0  0  0  0
 48 50  1  0  0  0  0
 49 48  1  0  0  0  0
M  END
>  <MODEL>
1

>  <REMARK>
 VINA RESULT:      -7.5      0.000      0.000
  Name = 
  12 active torsions:
  status: ('A' for Active; 'I' for Inactive)
    1  A    between atoms: C_3  and  C_10
    2  A    between atoms: C_3  and  N_48
    3  A    between atoms: C_5  and  C_50
    4  A    between atoms: C_13  and  N_48
    5  A    between atoms: C_14  and  C_16
    6  A    between atoms: C_16  and  C_44
    7  A    between atoms: C_20  and  C_23
    8  A    between atoms: C_28  and  C_44
    9  A    between atoms: C_31  and  C_38
   10  A    between atoms: C_31  and  C_49
   11  A    between atoms: C_38  and  C_43
   12  A    between atoms: C_39  and  C_49
                            x       y       z     vdW  Elec       q    Type
                         _______ _______ _______ _____ _____    ______ ____

>  <TORSDO>
F 12

$$$$
=
 OpenBabel11062420513D

 50 56  0  0  1  0  0  0  0  0999 V2000
  195.0110  174.9180  139.0330 N   0  0  0  0  0  0  0  0  0  0  0  0
  193.4590  172.8170  140.7220 C   0  0  2  0  0  3  0  0  0  0  0  0
  195.2290  174.5630  140.2620 C   0  0  0  0  0  0  0  0  0  0  0  0
  192.4340  173.1480  139.6370 C   0  0  1  0  0  3  0  0  0  0  0  0
  194.2510  173.9840  141.1160 N   0  0  0  0  0  0  0  0  0  0  0  0
  196.2080  174.6760  142.3470 C   0  0  0  0  0  3  0  0  0  0  0  0
  194.2990  171.7760  140.3130 O   0  0  0  0  0  1  0  0  0  0  0  0
  194.7500  174.1890  142.4800 C   0  0  2  0  0  3  0  0  0  0  0  0
  196.4130  174.9370  140.9320 N   0  0  0  0  0  0  0  0  0  0  0  0
  193.7180  174.8720  138.3580 C   0  0  0  0  0  2  0  0  0  0  0  0
  193.1230  173.4730  138.2950 C   0  0  2  0  0  3  0  0  0  0  0  0
  189.7050  174.7190  134.9980 N   0  0  0  0  0  1  0  0  0  0  0  0
  192.1890  173.4140  137.1220 C   0  0  0  0  0  0  0  0  0  0  0  0
  191.1020  172.7580  135.2100 C   0  0  0  0  0  3  0  0  0  0  0  0
  190.6940  173.9350  135.6500 C   0  0  0  0  0  0  0  0  0  0  0  0
  191.3550  174.3540  136.8310 N   0  0  0  0  0  2  0  0  0  0  0  0
  192.1560  172.2780  136.1530 C   0  0  0  0  0  3  0  0  0  0  0  0
  191.7700  170.9270  139.1500 O   0  0  0  0  0  0  0  0  0  0  0  0
  191.4230  172.0280  139.5530 C   0  0  0  0  0  0  0  0  0  0  0  0
  190.0040  172.2320  140.0070 C   0  0  1  0  0  3  0  0  0  0  0  0
  189.9390  173.0630  141.1290 O   0  0  0  0  0  1  0  0  0  0  0  0
  188.9020  172.0450  137.9050 O   0  0  0  0  0  0  0  0  0  0  0  0
  188.6180  174.0900  138.9810 N   0  0  0  0  0  2  0  0  0  0  0  0
  189.1410  172.7650  138.9100 C   0  0  0  0  0  0  0  0  0  0  0  0
  187.8320  174.5790  137.9940 O   0  0  0  0  0  1  0  0  0  0  0  0
  194.6360  172.9610  143.3950 C   0  0  0  0  0  2  0  0  0  0  0  0
  193.6870  173.1880  144.5640 C   0  0  0  0  0  2  0  0  0  0  0  0
  192.3220  172.5910  144.2510 C   0  0  0  0  0  2  0  0  0  0  0  0
  190.3660  176.6430  143.6270 C   0  0  2  0  0  0  0  0  0  0  0  0
  190.8870  175.9030  144.8950 C   0  0  2  0  0  0  0  0  0  0  0  0
  191.2940  175.7970  142.7730 C   0  0  0  0  0  2  0  0  0  0  0  0
  190.0530  174.9060  145.7100 C   0  0  2  0  0  3  0  0  0  0  0  0
  190.8110  178.0990  143.5420 C   0  0  0  0  0  1  0  0  0  0  0  0
  191.6430  176.7220  145.7370 O   0  0  0  0  0  1  0  0  0  0  0  0
  190.1040  173.5610  145.0140 C   0  0  0  0  0  2  0  0  0  0  0  0
  191.2420  173.6430  144.0080 C   0  0  1  0  0  3  0  0  0  0  0  0
  191.7980  175.0630  144.0100 C   0  0  2  0  0  3  0  0  0  0  0  0
  188.4540  175.2550  147.5690 C   0  0  0  0  0  2  0  0  0  0  0  0
  188.6420  175.3400  146.0690 C   0  0  0  0  0  3  0  0  0  0  0  0
  188.6890  176.5970  146.9120 C   0  0  0  0  0  2  0  0  0  0  0  0
  188.8990  176.5120  143.1710 C   0  0  2  0  0  3  0  0  0  0  0  0
  188.8130  176.0160  141.8690 O   0  0  0  0  0  1  0  0  0  0  0  0
  188.1440  177.7510  143.2870 N   0  0  0  0  0  2  0  0  0  0  0  0
  186.0320  176.7230  143.9900 C   0  0  0  0  0  2  0  0  0  0  0  0
  186.7770  177.4690  142.8790 C   0  0  1  0  0  3  0  0  0  0  0  0
  185.8310  177.6190  145.2120 C   0  0  2  0  0  3  0  0  0  0  0  0
  184.9250  176.7300  146.4570 Cl  0  0  0  0  0  0  0  0  0  0  0  0
  185.8310  179.6450  143.7520 C   0  0  0  0  0  2  0  0  0  0  0  0
  185.0630  178.8760  144.8200 C   0  0  0  0  0  2  0  0  0  0  0  0
  186.0520  178.7690  142.5180 C   0  0  0  0  0  2  0  0  0  0  0  0
  1  3  2  0  0  0  0
  2  7  1  6  0  0  0
  2  5  1  0  0  0  0
  3  9  1  0  0  0  0
  3  5  1  0  0  0  0
  4 19  1  6  0  0  0
  4  2  1  0  0  0  0
  5  8  1  0  0  0  0
  6  8  1  0  0  0  0
  8 26  1  1  0  0  0
  9  6  2  0  0  0  0
 10  1  1  0  0  0  0
 11 13  1  6  0  0  0
 11 10  1  0  0  0  0
 11  4  1  0  0  0  0
 12 15  1  0  0  0  0
 14 15  2  0  0  0  0
 14 17  1  0  0  0  0
 15 16  1  0  0  0  0
 16 13  1  0  0  0  0
 17 13  2  0  0  0  0
 18 19  2  0  0  0  0
 19 20  1  0  0  0  0
 20 21  1  1  0  0  0
 22 24  2  0  0  0  0
 24 23  1  0  0  0  0
 24 20  1  0  0  0  0
 25 23  1  0  0  0  0
 26 27  1  0  0  0  0
 28 27  1  0  0  0  0
 29 33  1  1  0  0  0
 29 30  1  0  0  0  0
 30 32  1  0  0  0  0
 30 34  1  1  0  0  0
 31 29  1  0  0  0  0
 32 39  1  6  0  0  0
 35 32  1  0  0  0  0
 36 37  1  0  0  0  0
 36 28  1  1  0  0  0
 36 35  1  0  0  0  0
 37 31  1  6  0  0  0
 37 30  1  0  0  0  0
 39 40  1  0  0  0  0
 39 38  1  0  0  0  0
 40 38  1  0  0  0  0
 41 42  1  6  0  0  0
 41 43  1  0  0  0  0
 41 29  1  0  0  0  0
 44 46  1  0  0  0  0
 45 43  1  1  0  0  0
 45 44  1  0  0  0  0
 46 47  1  1  0  0  0
 48 49  1  0  0  0  0
 49 46  1  0  0  0  0
 50 45  1  0  0  0  0
 50 48  1  0  0  0  0
M  END
>  <MODEL>
2

>  <REMARK>
 VINA RESULT:      -7.1      1.900      3.037
  Name = 
  12 active torsions:
  status: ('A' for Active; 'I' for Inactive)
    1  A    between atoms: C_3  and  C_10
    2  A    between atoms: C_3  and  N_48
    3  A    between atoms: C_5  and  C_50
    4  A    between atoms: C_13  and  N_48
    5  A    between atoms: C_14  and  C_16
    6  A    between atoms: C_16  and  C_44
    7  A    between atoms: C_20  and  C_23
    8  A    between atoms: C_28  and  C_44
    9  A    between atoms: C_31  and  C_38
   10  A    between atoms: C_31  and  C_49
   11  A    between atoms: C_38  and  C_43
   12  A    between atoms: C_39  and  C_49
                            x       y       z     vdW  Elec       q    Type
                         _______ _______ _______ _____ _____    ______ ____

>  <TORSDO>
F 12

$$$$
=
 OpenBabel11062420513D

 50 56  0  0  1  0  0  0  0  0999 V2000
  196.2150  176.1540  142.2200 N   0  0  0  0  0  0  0  0  0  0  0  0
  195.0710  173.2920  141.7930 C   0  0  2  0  0  3  0  0  0  0  0  0
  195.6390  175.3850  143.0940 C   0  0  0  0  0  0  0  0  0  0  0  0
  195.0970  173.8240  140.3600 C   0  0  1  0  0  3  0  0  0  0  0  0
  194.7400  174.3340  142.7690 N   0  0  0  0  0  0  0  0  0  0  0  0
  194.6970  174.8410  145.1280 C   0  0  0  0  0  3  0  0  0  0  0  0
  196.2900  172.6890  142.1230 O   0  0  0  0  0  1  0  0  0  0  0  0
  193.9860  174.0660  143.9990 C   0  0  2  0  0  3  0  0  0  0  0  0
  195.6850  175.6820  144.4720 N   0  0  0  0  0  0  0  0  0  0  0  0
  195.9660  176.1310  140.7830 C   0  0  0  0  0  2  0  0  0  0  0  0
  196.2810  174.7890  140.1400 C   0  0  2  0  0  3  0  0  0  0  0  0
  195.8020  176.0870  135.4290 N   0  0  0  0  0  1  0  0  0  0  0  0
  196.5900  175.0240  138.6910 C   0  0  0  0  0  0  0  0  0  0  0  0
  197.6760  175.2080  136.6780 C   0  0  0  0  0  3  0  0  0  0  0  0
  196.4140  175.5930  136.6130 C   0  0  0  0  0  0  0  0  0  0  0  0
  195.7290  175.4840  137.8480 N   0  0  0  0  0  0  0  0  0  0  0  0
  197.9340  174.7830  138.0860 C   0  0  0  0  0  2  0  0  0  0  0  0
  195.9960  171.8630  139.3820 O   0  0  0  0  0  0  0  0  0  0  0  0
  195.0680  172.6580  139.3990 C   0  0  0  0  0  0  0  0  0  0  0  0
  193.8870  172.4310  138.4960 C   0  0  1  0  0  3  0  0  0  0  0  0
  194.2320  171.6570  137.3840 O   0  0  0  0  0  1  0  0  0  0  0  0
  192.8580  170.6500  139.6980 O   0  0  0  0  0  0  0  0  0  0  0  0
  191.5060  172.5160  139.3630 N   0  0  0  0  0  2  0  0  0  0  0  0
  192.7390  171.8130  139.2270 C   0  0  0  0  0  0  0  0  0  0  0  0
  190.4630  171.9660  140.0270 O   0  0  0  0  0  1  0  0  0  0  0  0
  193.8210  172.5780  144.3380 C   0  0  0  0  0  2  0  0  0  0  0  0
  192.3610  172.1690  144.4860 C   0  0  0  0  0  2  0  0  0  0  0  0
  191.6190  172.4090  143.1790 C   0  0  0  0  0  2  0  0  0  0  0  0
  189.2510  176.2760  142.8860 C   0  0  2  0  0  0  0  0  0  0  0  0
  190.3780  175.7950  143.8480 C   0  0  2  0  0  0  0  0  0  0  0  0
  189.7290  175.2720  141.8520 C   0  0  0  0  0  2  0  0  0  0  0  0
  190.1270  174.9830  145.1260 C   0  0  2  0  0  3  0  0  0  0  0  0
  189.4710  177.6830  142.3420 C   0  0  0  0  0  1  0  0  0  0  0  0
  191.3690  176.7570  144.0590 O   0  0  0  0  0  1  0  0  0  0  0  0
  189.9580  173.5280  144.7410 C   0  0  0  0  0  2  0  0  0  0  0  0
  190.4650  173.4020  143.3120 C   0  0  1  0  0  3  0  0  0  0  0  0
  190.8260  174.7910  142.7950 C   0  0  2  0  0  3  0  0  0  0  0  0
  189.4870  175.3990  147.4820 C   0  0  0  0  0  2  0  0  0  0  0  0
  189.0270  175.4910  146.0420 C   0  0  0  0  0  3  0  0  0  0  0  0
  189.4960  176.7330  146.7700 C   0  0  0  0  0  2  0  0  0  0  0  0
  187.7630  176.0700  143.2310 C   0  0  2  0  0  3  0  0  0  0  0  0
  187.1210  175.2870  142.2700 O   0  0  0  0  0  1  0  0  0  0  0  0
  187.0380  177.3160  143.4310 N   0  0  0  0  0  2  0  0  0  0  0  0
  185.7230  176.7210  145.4120 C   0  0  0  0  0  2  0  0  0  0  0  0
  185.7040  176.9740  143.9020 C   0  0  1  0  0  3  0  0  0  0  0  0
  186.0210  178.0080  146.1810 C   0  0  2  0  0  3  0  0  0  0  0  0
  185.9880  177.6800  147.9270 Cl  0  0  0  0  0  0  0  0  0  0  0  0
  185.0050  179.3620  144.3440 C   0  0  0  0  0  2  0  0  0  0  0  0
  184.9860  179.0740  145.8410 C   0  0  0  0  0  2  0  0  0  0  0  0
  184.7150  178.0880  143.5500 C   0  0  0  0  0  2  0  0  0  0  0  0
  1  3  2  0  0  0  0
  2  7  1  1  0  0  0
  2  5  1  0  0  0  0
  3  9  1  0  0  0  0
  4 19  1  6  0  0  0
  4  2  1  0  0  0  0
  5  3  1  0  0  0  0
  5  8  1  0  0  0  0
  8 26  1  1  0  0  0
  8  6  1  0  0  0  0
  9  6  2  0  0  0  0
 10  1  1  0  0  0  0
 11 13  1  6  0  0  0
 11  4  1  0  0  0  0
 11 10  1  0  0  0  0
 12 15  1  0  0  0  0
 14 17  1  0  0  0  0
 15 14  2  0  0  0  0
 15 16  1  0  0  0  0
 16 13  2  0  0  0  0
 17 13  1  0  0  0  0
 18 19  2  0  0  0  0
 20 21  1  6  0  0  0
 20 24  1  0  0  0  0
 20 19  1  0  0  0  0
 23 25  1  0  0  0  0
 24 23  1  0  0  0  0
 24 22  2  0  0  0  0
 26 27  1  0  0  0  0
 28 27  1  0  0  0  0
 29 33  1  6  0  0  0
 29 41  1  0  0  0  0
 29 30  1  0  0  0  0
 30 34  1  1  0  0  0
 30 32  1  0  0  0  0
 31 29  1  0  0  0  0
 32 39  1  6  0  0  0
 35 32  1  0  0  0  0
 36 28  1  1  0  0  0
 36 35  1  0  0  0  0
 37 31  1  6  0  0  0
 37 36  1  0  0  0  0
 37 30  1  0  0  0  0
 39 40  1  0  0  0  0
 39 38  1  0  0  0  0
 40 38  1  0  0  0  0
 41 42  1  6  0  0  0
 41 43  1  0  0  0  0
 44 46  1  0  0  0  0
 45 43  1  1  0  0  0
 45 44  1  0  0  0  0
 46 47  1  1  0  0  0
 48 49  1  0  0  0  0
 49 46  1  0  0  0  0
 50 45  1  0  0  0  0
 50 48  1  0  0  0  0
M  END
>  <MODEL>
3

>  <REMARK>
 VINA RESULT:      -6.9      2.261      3.829
  Name = 
  12 active torsions:
  status: ('A' for Active; 'I' for Inactive)
    1  A    between atoms: C_3  and  C_10
    2  A    between atoms: C_3  and  N_48
    3  A    between atoms: C_5  and  C_50
    4  A    between atoms: C_13  and  N_48
    5  A    between atoms: C_14  and  C_16
    6  A    between atoms: C_16  and  C_44
    7  A    between atoms: C_20  and  C_23
    8  A    between atoms: C_28  and  C_44
    9  A    between atoms: C_31  and  C_38
   10  A    between atoms: C_31  and  C_49
   11  A    between atoms: C_38  and  C_43
   12  A    between atoms: C_39  and  C_49
                            x       y       z     vdW  Elec       q    Type
                         _______ _______ _______ _____ _____    ______ ____

>  <TORSDO>
F 12

$$$$
=
 OpenBabel11062420513D

 50 56  0  0  1  0  0  0  0  0999 V2000
  191.9480  170.0510  142.5080 N   0  0  0  0  0  0  0  0  0  0  0  0
  193.2410  172.7770  141.7540 C   0  0  2  0  0  3  0  0  0  0  0  0
  192.7190  170.7970  143.2370 C   0  0  0  0  0  0  0  0  0  0  0  0
  192.9380  172.1940  140.3730 C   0  0  1  0  0  3  0  0  0  0  0  0
  193.6380  171.7490  142.7190 N   0  0  0  0  0  0  0  0  0  0  0  0
  194.0200  171.3340  145.0650 C   0  0  0  0  0  3  0  0  0  0  0  0
  192.1460  173.5010  142.2390 O   0  0  0  0  0  1  0  0  0  0  0  0
  194.6010  171.9950  143.7980 C   0  0  2  0  0  3  0  0  0  0  0  0
  192.8730  170.5600  144.6200 N   0  0  0  0  0  0  0  0  0  0  0  0
  191.9610  169.9940  141.0510 C   0  0  0  0  0  2  0  0  0  0  0  0
  191.6590  171.3330  140.3950 C   0  0  2  0  0  3  0  0  0  0  0  0
  191.1990  169.6910  135.7910 N   0  0  0  0  0  1  0  0  0  0  0  0
  191.1000  171.0700  139.0280 C   0  0  0  0  0  0  0  0  0  0  0  0
  189.7080  170.9620  137.2060 C   0  0  0  0  0  3  0  0  0  0  0  0
  190.8640  170.3560  137.0010 C   0  0  0  0  0  0  0  0  0  0  0  0
  191.7360  170.4150  138.1160 N   0  0  0  0  0  0  0  0  0  0  0  0
  189.7390  171.5080  138.5960 C   0  0  0  0  0  2  0  0  0  0  0  0
  191.9900  174.1210  139.3730 O   0  0  0  0  0  0  0  0  0  0  0  0
  192.9090  173.3140  139.3590 C   0  0  0  0  0  0  0  0  0  0  0  0
  194.0210  173.4830  138.3610 C   0  0  1  0  0  3  0  0  0  0  0  0
  193.5760  174.1180  137.1980 O   0  0  0  0  0  1  0  0  0  0  0  0
  196.3550  173.8380  138.6720 O   0  0  0  0  0  0  0  0  0  0  0  0
  194.9760  175.3130  139.8310 N   0  0  0  0  0  2  0  0  0  0  0  0
  195.1850  174.2160  138.9440 C   0  0  0  0  0  0  0  0  0  0  0  0
  196.0240  175.9850  140.3610 O   0  0  0  0  0  1  0  0  0  0  0  0
  194.9420  173.4750  144.0260 C   0  0  0  0  0  2  0  0  0  0  0  0
  194.2740  174.0450  145.2710 C   0  0  0  0  0  2  0  0  0  0  0  0
  194.1010  175.5500  145.1250 C   0  0  0  0  0  2  0  0  0  0  0  0
  189.8480  175.5420  146.7240 C   0  0  2  0  0  0  0  0  0  0  0  0
  190.5030  174.9230  145.4530 C   0  0  2  0  0  0  0  0  0  0  0  0
  191.2100  175.5540  147.3980 C   0  0  0  0  0  2  0  0  0  0  0  0
  190.6900  175.6770  144.1310 C   0  0  2  0  0  3  0  0  0  0  0  0
  188.9380  174.5760  147.4750 C   0  0  0  0  0  1  0  0  0  0  0  0
  190.1090  173.6030  145.2200 O   0  0  0  0  0  1  0  0  0  0  0  0
  191.9340  176.5350  144.2430 C   0  0  0  0  0  2  0  0  0  0  0  0
  192.6910  176.0320  145.4620 C   0  0  1  0  0  3  0  0  0  0  0  0
  191.8550  174.9590  146.1520 C   0  0  2  0  0  3  0  0  0  0  0  0
  189.1940  176.0150  142.1870 C   0  0  0  0  0  2  0  0  0  0  0  0
  189.4830  176.4390  143.6110 C   0  0  0  0  0  3  0  0  0  0  0  0
  188.3520  175.4760  143.3210 C   0  0  0  0  0  2  0  0  0  0  0  0
  189.2170  176.9480  146.6940 C   0  0  2  0  0  3  0  0  0  0  0  0
  189.8050  177.7900  147.6410 O   0  0  0  0  0  1  0  0  0  0  0  0
  187.7710  176.9370  146.8610 N   0  0  0  0  0  2  0  0  0  0  0  0
  186.7970  178.3050  145.0750 C   0  0  0  0  0  2  0  0  0  0  0  0
  187.2830  178.2660  146.5270 C   0  0  1  0  0  3  0  0  0  0  0  0
  185.5480  177.4420  144.8920 C   0  0  2  0  0  3  0  0  0  0  0  0
  184.9910  177.5520  143.2080 Cl  0  0  0  0  0  0  0  0  0  0  0  0
  184.9100  177.8260  147.2760 C   0  0  0  0  0  2  0  0  0  0  0  0
  184.4410  177.9150  145.8290 C   0  0  0  0  0  2  0  0  0  0  0  0
  186.1630  178.6770  147.4860 C   0  0  0  0  0  2  0  0  0  0  0  0
  1  3  2  0  0  0  0
  2  7  1  1  0  0  0
  2  5  1  0  0  0  0
  3  9  1  0  0  0  0
  4 19  1  6  0  0  0
  4 11  1  0  0  0  0
  4  2  1  0  0  0  0
  5  3  1  0  0  0  0
  5  8  1  0  0  0  0
  8 26  1  1  0  0  0
  8  6  1  0  0  0  0
  9  6  2  0  0  0  0
 10  1  1  0  0  0  0
 11 13  1  6  0  0  0
 11 10  1  0  0  0  0
 12 15  1  0  0  0  0
 14 17  1  0  0  0  0
 15 14  2  0  0  0  0
 15 16  1  0  0  0  0
 16 13  2  0  0  0  0
 17 13  1  0  0  0  0
 19 18  2  0  0  0  0
 20 21  1  6  0  0  0
 20 24  1  0  0  0  0
 20 19  1  0  0  0  0
 22 24  2  0  0  0  0
 23 25  1  0  0  0  0
 24 23  1  0  0  0  0
 26 27  1  0  0  0  0
 28 27  1  0  0  0  0
 29 31  1  0  0  0  0
 29 33  1  1  0  0  0
 30 34  1  6  0  0  0
 30 37  1  0  0  0  0
 30 29  1  0  0  0  0
 32 39  1  1  0  0  0
 32 35  1  0  0  0  0
 32 30  1  0  0  0  0
 35 36  1  0  0  0  0
 36 28  1  6  0  0  0
 36 37  1  0  0  0  0
 37 31  1  1  0  0  0
 38 40  1  0  0  0  0
 38 39  1  0  0  0  0
 40 39  1  0  0  0  0
 41 29  1  0  0  0  0
 41 43  1  0  0  0  0
 41 42  1  1  0  0  0
 44 45  1  0  0  0  0
 45 43  1  1  0  0  0
 45 50  1  0  0  0  0
 46 47  1  6  0  0  0
 46 44  1  0  0  0  0
 46 49  1  0  0  0  0
 48 50  1  0  0  0  0
 49 48  1  0  0  0  0
M  END
>  <MODEL>
4

>  <REMARK>
 VINA RESULT:      -6.6      2.025      3.462
  Name = 
  12 active torsions:
  status: ('A' for Active; 'I' for Inactive)
    1  A    between atoms: C_3  and  C_10
    2  A    between atoms: C_3  and  N_48
    3  A    between atoms: C_5  and  C_50
    4  A    between atoms: C_13  and  N_48
    5  A    between atoms: C_14  and  C_16
    6  A    between atoms: C_16  and  C_44
    7  A    between atoms: C_20  and  C_23
    8  A    between atoms: C_28  and  C_44
    9  A    between atoms: C_31  and  C_38
   10  A    between atoms: C_31  and  C_49
   11  A    between atoms: C_38  and  C_43
   12  A    between atoms: C_39  and  C_49
                            x       y       z     vdW  Elec       q    Type
                         _______ _______ _______ _____ _____    ______ ____

>  <TORSDO>
F 12

$$$$
=
 OpenBabel11062420513D

 50 56  0  0  1  0  0  0  0  0999 V2000
  190.4060  176.8760  147.3190 N   0  0  0  0  0  0  0  0  0  0  0  0
  190.7420  176.6710  144.2330 C   0  0  2  0  0  3  0  0  0  0  0  0
  191.4680  176.5400  146.6520 C   0  0  0  0  0  0  0  0  0  0  0  0
  189.2230  176.5690  144.3790 C   0  0  1  0  0  3  0  0  0  0  0  0
  191.4530  176.0140  145.3320 N   0  0  0  0  0  0  0  0  0  0  0  0
  193.6190  175.7590  146.3650 C   0  0  0  0  0  3  0  0  0  0  0  0
  191.1440  178.0070  144.1260 O   0  0  0  0  0  1  0  0  0  0  0  0
  192.7490  175.3470  145.1600 C   0  0  2  0  0  3  0  0  0  0  0  0
  192.7300  176.4590  147.2770 N   0  0  0  0  0  0  0  0  0  0  0  0
  189.0320  176.6820  146.8700 C   0  0  0  0  0  2  0  0  0  0  0  0
  188.7160  177.4080  145.5700 C   0  0  2  0  0  3  0  0  0  0  0  0
  184.3770  179.4360  144.4920 N   0  0  0  0  0  1  0  0  0  0  0  0
  187.2390  177.6670  145.5250 C   0  0  0  0  0  0  0  0  0  0  0  0
  184.9670  177.4800  145.7840 C   0  0  0  0  0  3  0  0  0  0  0  0
  185.3130  178.5320  145.0630 C   0  0  0  0  0  0  0  0  0  0  0  0
  186.7130  178.6620  144.8950 N   0  0  0  0  0  0  0  0  0  0  0  0
  186.2270  176.7810  146.1740 C   0  0  0  0  0  2  0  0  0  0  0  0
  188.9440  177.9130  142.4480 O   0  0  0  0  0  0  0  0  0  0  0  0
  188.5750  176.9210  143.0600 C   0  0  0  0  0  0  0  0  0  0  0  0
  187.5140  176.0390  142.4610 C   0  0  1  0  0  3  0  0  0  0  0  0
  186.6700  176.7580  141.6090 O   0  0  0  0  0  1  0  0  0  0  0  0
  188.4870  174.9970  140.5530 O   0  0  0  0  0  0  0  0  0  0  0  0
  188.2030  173.6010  142.3940 N   0  0  0  0  0  2  0  0  0  0  0  0
  188.1040  174.8670  141.7460 C   0  0  0  0  0  0  0  0  0  0  0  0
  188.7400  172.5350  141.7570 O   0  0  0  0  0  1  0  0  0  0  0  0
  193.4450  175.6350  143.8220 C   0  0  0  0  0  2  0  0  0  0  0  0
  194.8310  176.2410  144.0010 C   0  0  0  0  0  2  0  0  0  0  0  0
  195.8180  175.5710  143.0560 C   0  0  0  0  0  2  0  0  0  0  0  0
  194.5140  172.5010  139.9710 C   0  0  2  0  0  0  0  0  0  0  0  0
  195.8610  173.2400  140.2250 C   0  0  2  0  0  0  0  0  0  0  0  0
  194.1270  172.7440  141.4200 C   0  0  0  0  0  2  0  0  0  0  0  0
  196.2020  174.6220  139.6520 C   0  0  2  0  0  3  0  0  0  0  0  0
  194.6710  171.0000  139.7510 C   0  0  0  0  0  1  0  0  0  0  0  0
  196.9710  172.3930  140.1730 O   0  0  0  0  0  1  0  0  0  0  0  0
  195.5620  175.6750  140.5320 C   0  0  0  0  0  2  0  0  0  0  0  0
  195.1560  174.9690  141.8170 C   0  0  1  0  0  3  0  0  0  0  0  0
  195.4400  173.4780  141.6680 C   0  0  2  0  0  3  0  0  0  0  0  0
  197.1820  175.3000  137.4810 C   0  0  0  0  0  2  0  0  0  0  0  0
  195.9220  174.8270  138.1730 C   0  0  0  0  0  3  0  0  0  0  0  0
  196.7460  173.8580  137.3530 C   0  0  0  0  0  2  0  0  0  0  0  0
  193.4600  173.0690  139.0000 C   0  0  2  0  0  3  0  0  0  0  0  0
  192.6080  173.9690  139.6430 O   0  0  0  0  0  1  0  0  0  0  0  0
  192.6850  172.0410  138.3210 N   0  0  0  0  0  2  0  0  0  0  0  0
  190.4170  172.4580  137.4900 C   0  0  0  0  0  2  0  0  0  0  0  0
  191.2950  172.2080  138.7190 C   0  0  1  0  0  3  0  0  0  0  0  0
  190.3550  171.2180  136.5990 C   0  0  2  0  0  3  0  0  0  0  0  0
  189.2900  171.5360  135.2110 Cl  0  0  0  0  0  0  0  0  0  0  0  0
  190.7270  169.7490  138.5840 C   0  0  0  0  0  2  0  0  0  0  0  0
  189.8220  170.0290  137.3900 C   0  0  0  0  0  2  0  0  0  0  0  0
  190.8120  170.9780  139.4910 C   0  0  0  0  0  2  0  0  0  0  0  0
  2  7  1  1  0  0  0
  2  4  1  0  0  0  0
  2  5  1  0  0  0  0
  3  9  1  0  0  0  0
  3  1  2  0  0  0  0
  4 19  1  6  0  0  0
  4 11  1  0  0  0  0
  5  3  1  0  0  0  0
  6  9  2  0  0  0  0
  8 26  1  6  0  0  0
  8  5  1  0  0  0  0
  8  6  1  0  0  0  0
 10  1  1  0  0  0  0
 11 13  1  6  0  0  0
 11 10  1  0  0  0  0
 12 15  1  0  0  0  0
 13 17  1  0  0  0  0
 14 17  1  0  0  0  0
 15 14  2  0  0  0  0
 16 15  1  0  0  0  0
 16 13  2  0  0  0  0
 18 19  2  0  0  0  0
 20 21  1  6  0  0  0
 20 19  1  0  0  0  0
 22 24  2  0  0  0  0
 24 23  1  0  0  0  0
 24 20  1  0  0  0  0
 25 23  1  0  0  0  0
 26 27  1  0  0  0  0
 28 27  1  0  0  0  0
 29 33  1  6  0  0  0
 29 30  1  0  0  0  0
 29 31  1  0  0  0  0
 30 34  1  6  0  0  0
 30 37  1  0  0  0  0
 32 39  1  6  0  0  0
 32 30  1  0  0  0  0
 32 35  1  0  0  0  0
 35 36  1  0  0  0  0
 36 28  1  1  0  0  0
 37 31  1  6  0  0  0
 37 36  1  0  0  0  0
 38 39  1  0  0  0  0
 40 38  1  0  0  0  0
 40 39  1  0  0  0  0
 41 42  1  1  0  0  0
 41 29  1  0  0  0  0
 43 41  1  0  0  0  0
 44 45  1  0  0  0  0
 45 43  1  6  0  0  0
 45 50  1  0  0  0  0
 46 47  1  6  0  0  0
 46 49  1  0  0  0  0
 46 44  1  0  0  0  0
 48 50  1  0  0  0  0
 49 48  1  0  0  0  0
M  END
>  <MODEL>
5

>  <REMARK>
 VINA RESULT:      -6.6      2.804      8.393
  Name = 
  12 active torsions:
  status: ('A' for Active; 'I' for Inactive)
    1  A    between atoms: C_3  and  C_10
    2  A    between atoms: C_3  and  N_48
    3  A    between atoms: C_5  and  C_50
    4  A    between atoms: C_13  and  N_48
    5  A    between atoms: C_14  and  C_16
    6  A    between atoms: C_16  and  C_44
    7  A    between atoms: C_20  and  C_23
    8  A    between atoms: C_28  and  C_44
    9  A    between atoms: C_31  and  C_38
   10  A    between atoms: C_31  and  C_49
   11  A    between atoms: C_38  and  C_43
   12  A    between atoms: C_39  and  C_49
                            x       y       z     vdW  Elec       q    Type
                         _______ _______ _______ _____ _____    ______ ____

>  <TORSDO>
F 12

$$$$
=
 OpenBabel11062420513D

 50 56  0  0  1  0  0  0  0  0999 V2000
  195.8340  175.5700  139.9770 N   0  0  0  0  0  0  0  0  0  0  0  0
  195.3530  173.5330  142.2780 C   0  0  2  0  0  3  0  0  0  0  0  0
  196.1240  175.7040  141.2350 C   0  0  0  0  0  0  0  0  0  0  0  0
  194.3550  173.0440  141.2280 C   0  0  1  0  0  3  0  0  0  0  0  0
  195.4840  174.9920  142.2850 N   0  0  0  0  0  0  0  0  0  0  0  0
  196.8170  176.8160  143.1320 C   0  0  0  0  0  3  0  0  0  0  0  0
  196.6040  172.9350  142.0930 O   0  0  0  0  0  1  0  0  0  0  0  0
  195.7520  175.7650  143.5040 C   0  0  2  0  0  3  0  0  0  0  0  0
  196.9560  176.7490  141.6870 N   0  0  0  0  0  0  0  0  0  0  0  0
  194.7530  174.7500  139.4420 C   0  0  0  0  0  2  0  0  0  0  0  0
  194.8850  173.2760  139.7980 C   0  0  2  0  0  3  0  0  0  0  0  0
  193.8780  169.8870  136.3910 N   0  0  0  0  0  1  0  0  0  0  0  0
  194.1550  172.4760  138.7600 C   0  0  0  0  0  0  0  0  0  0  0  0
  192.5290  171.6330  137.3780 C   0  0  0  0  0  3  0  0  0  0  0  0
  193.6780  170.9920  137.2610 C   0  0  0  0  0  0  0  0  0  0  0  0
  194.6940  171.5010  138.1080 N   0  0  0  0  0  0  0  0  0  0  0  0
  192.7240  172.7020  138.4010 C   0  0  0  0  0  2  0  0  0  0  0  0
  194.8200  170.7240  141.3530 O   0  0  0  0  0  0  0  0  0  0  0  0
  193.9910  171.6070  141.5230 C   0  0  0  0  0  0  0  0  0  0  0  0
  192.6380  171.2490  142.0730 C   0  0  1  0  0  3  0  0  0  0  0  0
  191.8890  170.5090  141.1540 O   0  0  0  0  0  1  0  0  0  0  0  0
  192.9310  171.1680  144.4350 O   0  0  0  0  0  0  0  0  0  0  0  0
  192.6620  169.0950  143.4090 N   0  0  0  0  0  2  0  0  0  0  0  0
  192.7420  170.5190  143.3720 C   0  0  0  0  0  0  0  0  0  0  0  0
  192.7500  168.4260  144.5810 O   0  0  0  0  0  1  0  0  0  0  0  0
  196.1740  174.9220  144.7160 C   0  0  0  0  0  2  0  0  0  0  0  0
  195.1950  175.0350  145.8770 C   0  0  0  0  0  2  0  0  0  0  0  0
  193.9810  174.1530  145.6230 C   0  0  0  0  0  2  0  0  0  0  0  0
  189.7460  175.7820  145.8470 C   0  0  2  0  0  0  0  0  0  0  0  0
  190.3310  174.4130  145.3880 C   0  0  2  0  0  0  0  0  0  0  0  0
  190.9920  176.0140  146.6840 C   0  0  0  0  0  2  0  0  0  0  0  0
  190.8350  174.1290  143.9670 C   0  0  2  0  0  3  0  0  0  0  0  0
  188.5460  175.6530  146.7790 C   0  0  0  0  0  1  0  0  0  0  0  0
  189.6260  173.3170  145.8920 O   0  0  0  0  0  1  0  0  0  0  0  0
  192.2450  174.6700  143.8440 C   0  0  0  0  0  2  0  0  0  0  0  0
  192.7240  174.9420  145.2620 C   0  0  1  0  0  3  0  0  0  0  0  0
  191.5720  174.6810  146.2280 C   0  0  2  0  0  3  0  0  0  0  0  0
  189.5770  173.3600  141.9770 C   0  0  0  0  0  2  0  0  0  0  0  0
  189.9270  174.5620  142.8290 C   0  0  0  0  0  3  0  0  0  0  0  0
  188.5730  173.9010  142.9700 C   0  0  0  0  0  2  0  0  0  0  0  0
  189.5150  176.9300  144.8440 C   0  0  2  0  0  3  0  0  0  0  0  0
  190.6120  177.7910  144.7930 O   0  0  0  0  0  1  0  0  0  0  0  0
  188.2960  177.6840  145.0990 N   0  0  0  0  0  2  0  0  0  0  0  0
  185.9090  177.1300  145.1910 C   0  0  0  0  0  2  0  0  0  0  0  0
  187.2130  177.0130  144.3960 C   0  0  1  0  0  3  0  0  0  0  0  0
  185.4230  178.5790  145.2350 C   0  0  2  0  0  3  0  0  0  0  0  0
  183.8870  178.6630  146.1260 Cl  0  0  0  0  0  0  0  0  0  0  0  0
  186.5340  179.0400  143.0470 C   0  0  0  0  0  2  0  0  0  0  0  0
  185.2230  179.1090  143.8200 C   0  0  0  0  0  2  0  0  0  0  0  0
  187.0470  177.6000  142.9910 C   0  0  0  0  0  2  0  0  0  0  0  0
  1  3  2  0  0  0  0
  2  7  1  6  0  0  0
  2  5  1  0  0  0  0
  3  9  1  0  0  0  0
  3  5  1  0  0  0  0
  4 19  1  1  0  0  0
  4  2  1  0  0  0  0
  5  8  1  0  0  0  0
  6  8  1  0  0  0  0
  8 26  1  1  0  0  0
  9  6  2  0  0  0  0
 10 11  1  0  0  0  0
 10  1  1  0  0  0  0
 11 13  1  6  0  0  0
 11  4  1  0  0  0  0
 12 15  1  0  0  0  0
 14 17  1  0  0  0  0
 15 14  2  0  0  0  0
 15 16  1  0  0  0  0
 16 13  2  0  0  0  0
 17 13  1  0  0  0  0
 18 19  2  0  0  0  0
 19 20  1  0  0  0  0
 20 21  1  6  0  0  0
 20 24  1  0  0  0  0
 23 25  1  0  0  0  0
 24 23  1  0  0  0  0
 24 22  2  0  0  0  0
 26 27  1  0  0  0  0
 28 27  1  0  0  0  0
 29 31  1  0  0  0  0
 29 33  1  1  0  0  0
 30 29  1  0  0  0  0
 30 34  1  1  0  0  0
 30 37  1  0  0  0  0
 32 39  1  6  0  0  0
 32 30  1  0  0  0  0
 35 32  1  0  0  0  0
 35 36  1  0  0  0  0
 36 28  1  1  0  0  0
 36 37  1  0  0  0  0
 37 31  1  1  0  0  0
 38 39  1  0  0  0  0
 38 40  1  0  0  0  0
 39 40  1  0  0  0  0
 41 42  1  1  0  0  0
 41 43  1  0  0  0  0
 41 29  1  0  0  0  0
 44 46  1  0  0  0  0
 45 43  1  1  0  0  0
 45 44  1  0  0  0  0
 46 47  1  1  0  0  0
 48 49  1  0  0  0  0
 49 46  1  0  0  0  0
 50 48  1  0  0  0  0
 50 45  1  0  0  0  0
M  END
>  <MODEL>
6

>  <REMARK>
 VINA RESULT:      -6.5      1.907      2.490
  Name = 
  12 active torsions:
  status: ('A' for Active; 'I' for Inactive)
    1  A    between atoms: C_3  and  C_10
    2  A    between atoms: C_3  and  N_48
    3  A    between atoms: C_5  and  C_50
    4  A    between atoms: C_13  and  N_48
    5  A    between atoms: C_14  and  C_16
    6  A    between atoms: C_16  and  C_44
    7  A    between atoms: C_20  and  C_23
    8  A    between atoms: C_28  and  C_44
    9  A    between atoms: C_31  and  C_38
   10  A    between atoms: C_31  and  C_49
   11  A    between atoms: C_38  and  C_43
   12  A    between atoms: C_39  and  C_49
                            x       y       z     vdW  Elec       q    Type
                         _______ _______ _______ _____ _____    ______ ____

>  <TORSDO>
F 12

$$$$
=
 OpenBabel11062420513D

 50 56  0  0  1  0  0  0  0  0999 V2000
  188.8080  177.8830  146.8880 N   0  0  0  0  0  0  0  0  0  0  0  0
  190.3760  176.0310  144.9420 C   0  0  2  0  0  3  0  0  0  0  0  0
  189.9130  177.2410  147.1130 C   0  0  0  0  0  0  0  0  0  0  0  0
  188.9830  176.0210  144.3110 C   0  0  1  0  0  3  0  0  0  0  0  0
  190.3260  176.0810  146.4050 N   0  0  0  0  0  0  0  0  0  0  0  0
  191.6630  176.4360  148.3820 C   0  0  0  0  0  3  0  0  0  0  0  0
  191.1390  177.0940  144.4470 O   0  0  0  0  0  1  0  0  0  0  0  0
  191.3250  175.4310  147.2620 C   0  0  2  0  0  3  0  0  0  0  0  0
  190.7010  177.5180  148.2510 N   0  0  0  0  0  0  0  0  0  0  0  0
  187.7700  177.4730  145.9480 C   0  0  0  0  0  2  0  0  0  0  0  0
  188.2660  177.3720  144.5130 C   0  0  2  0  0  3  0  0  0  0  0  0
  185.5750  178.5160  140.5680 N   0  0  0  0  0  1  0  0  0  0  0  0
  187.0920  177.5610  143.5980 C   0  0  0  0  0  0  0  0  0  0  0  0
  184.9840  177.5230  142.6920 C   0  0  0  0  0  3  0  0  0  0  0  0
  185.8800  178.0470  141.8750 C   0  0  0  0  0  0  0  0  0  0  0  0
  187.1880  178.0790  142.4200 N   0  0  0  0  0  0  0  0  0  0  0  0
  185.7030  177.1360  143.9420 C   0  0  0  0  0  2  0  0  0  0  0  0
  189.9010  176.1530  142.1310 O   0  0  0  0  0  0  0  0  0  0  0  0
  189.0970  175.5960  142.8660 C   0  0  0  0  0  0  0  0  0  0  0  0
  188.2720  174.4600  142.3270 C   0  0  1  0  0  3  0  0  0  0  0  0
  187.6860  174.7870  141.1010 O   0  0  0  0  0  1  0  0  0  0  0  0
  189.5680  172.6830  143.2400 O   0  0  0  0  0  0  0  0  0  0  0  0
  189.2960  172.6100  140.9280 N   0  0  0  0  0  2  0  0  0  0  0  0
  189.0700  173.2020  142.2060 C   0  0  0  0  0  0  0  0  0  0  0  0
  190.0130  171.4690  140.8100 O   0  0  0  0  0  1  0  0  0  0  0  0
  192.5810  174.9460  146.5250 C   0  0  0  0  0  2  0  0  0  0  0  0
  193.6780  176.0020  146.4780 C   0  0  0  0  0  2  0  0  0  0  0  0
  195.0430  175.3320  146.4100 C   0  0  0  0  0  2  0  0  0  0  0  0
  195.1360  175.3120  141.8680 C   0  0  2  0  0  0  0  0  0  0  0  0
  194.5220  174.3400  142.9190 C   0  0  2  0  0  0  0  0  0  0  0  0
  195.0920  176.4270  142.9000 C   0  0  0  0  0  2  0  0  0  0  0  0
  195.2970  173.1940  143.5820 C   0  0  2  0  0  3  0  0  0  0  0  0
  194.1850  175.6620  140.7280 C   0  0  0  0  0  1  0  0  0  0  0  0
  193.2200  173.9420  142.6040 O   0  0  0  0  0  1  0  0  0  0  0  0
  196.1130  173.7670  144.7230 C   0  0  0  0  0  2  0  0  0  0  0  0
  195.5620  175.1600  144.9840 C   0  0  1  0  0  3  0  0  0  0  0  0
  194.5020  175.4750  143.9330 C   0  0  2  0  0  3  0  0  0  0  0  0
  195.8870  170.8520  143.0320 C   0  0  0  0  0  2  0  0  0  0  0  0
  196.1070  172.3020  142.6560 C   0  0  0  0  0  3  0  0  0  0  0  0
  195.1780  171.4370  141.8320 C   0  0  0  0  0  2  0  0  0  0  0  0
  196.5620  175.1030  141.3200 C   0  0  2  0  0  3  0  0  0  0  0  0
  197.5230  175.6260  142.1870 O   0  0  0  0  0  1  0  0  0  0  0  0
  196.7510  175.6370  139.9800 N   0  0  0  0  0  2  0  0  0  0  0  0
  196.9150  173.3330  139.1570 C   0  0  0  0  0  2  0  0  0  0  0  0
  197.5950  174.7010  139.2520 C   0  0  1  0  0  3  0  0  0  0  0  0
  195.6670  173.4010  138.2750 C   0  0  2  0  0  3  0  0  0  0  0  0
  194.9360  171.7850  138.1550 Cl  0  0  0  0  0  0  0  0  0  0  0  0
  196.6650  175.2860  136.9760 C   0  0  0  0  0  2  0  0  0  0  0  0
  196.0360  173.9010  136.8830 C   0  0  0  0  0  2  0  0  0  0  0  0
  197.9140  175.2480  137.8580 C   0  0  0  0  0  2  0  0  0  0  0  0
  1  3  2  0  0  0  0
  2  7  1  6  0  0  0
  2  5  1  0  0  0  0
  3  9  1  0  0  0  0
  4 19  1  6  0  0  0
  4 11  1  0  0  0  0
  4  2  1  0  0  0  0
  5  3  1  0  0  0  0
  5  8  1  0  0  0  0
  8 26  1  6  0  0  0
  8  6  1  0  0  0  0
  9  6  2  0  0  0  0
 10  1  1  0  0  0  0
 11 13  1  6  0  0  0
 11 10  1  0  0  0  0
 12 15  1  0  0  0  0
 13 17  1  0  0  0  0
 14 17  1  0  0  0  0
 15 16  1  0  0  0  0
 15 14  2  0  0  0  0
 16 13  2  0  0  0  0
 18 19  2  0  0  0  0
 20 21  1  6  0  0  0
 20 19  1  0  0  0  0
 23 24  1  0  0  0  0
 24 20  1  0  0  0  0
 24 22  2  0  0  0  0
 25 23  1  0  0  0  0
 27 26  1  0  0  0  0
 28 27  1  0  0  0  0
 29 33  1  6  0  0  0
 29 31  1  0  0  0  0
 29 30  1  0  0  0  0
 30 34  1  6  0  0  0
 30 32  1  0  0  0  0
 30 37  1  0  0  0  0
 32 39  1  6  0  0  0
 32 35  1  0  0  0  0
 35 36  1  0  0  0  0
 36 28  1  1  0  0  0
 37 31  1  6  0  0  0
 37 36  1  0  0  0  0
 39 38  1  0  0  0  0
 40 39  1  0  0  0  0
 40 38  1  0  0  0  0
 41 29  1  0  0  0  0
 41 42  1  1  0  0  0
 43 41  1  0  0  0  0
 44 45  1  0  0  0  0
 45 43  1  6  0  0  0
 46 47  1  6  0  0  0
 46 44  1  0  0  0  0
 48 50  1  0  0  0  0
 49 48  1  0  0  0  0
 49 46  1  0  0  0  0
 50 45  1  0  0  0  0
M  END
>  <MODEL>
7

>  <REMARK>
 VINA RESULT:      -6.4      2.850      8.254
  Name = 
  12 active torsions:
  status: ('A' for Active; 'I' for Inactive)
    1  A    between atoms: C_3  and  C_10
    2  A    between atoms: C_3  and  N_48
    3  A    between atoms: C_5  and  C_50
    4  A    between atoms: C_13  and  N_48
    5  A    between atoms: C_14  and  C_16
    6  A    between atoms: C_16  and  C_44
    7  A    between atoms: C_20  and  C_23
    8  A    between atoms: C_28  and  C_44
    9  A    between atoms: C_31  and  C_38
   10  A    between atoms: C_31  and  C_49
   11  A    between atoms: C_38  and  C_43
   12  A    between atoms: C_39  and  C_49
                            x       y       z     vdW  Elec       q    Type
                         _______ _______ _______ _____ _____    ______ ____

>  <TORSDO>
F 12

$$$$
=
 OpenBabel11062420513D

 50 56  0  0  1  0  0  0  0  0999 V2000
  190.2510  176.9670  147.2840 N   0  0  0  0  0  0  0  0  0  0  0  0
  190.6060  176.7390  144.2020 C   0  0  2  0  0  3  0  0  0  0  0  0
  191.3200  176.6390  146.6250 C   0  0  0  0  0  0  0  0  0  0  0  0
  189.0880  176.6190  144.3410 C   0  0  1  0  0  3  0  0  0  0  0  0
  191.3200  176.1010  145.3100 N   0  0  0  0  0  0  0  0  0  0  0  0
  193.4830  175.8850  146.3570 C   0  0  0  0  0  3  0  0  0  0  0  0
  190.9900  178.0790  144.0850 O   0  0  0  0  0  1  0  0  0  0  0  0
  192.6250  175.4500  145.1510 C   0  0  2  0  0  3  0  0  0  0  0  0
  192.5800  176.5800  147.2580 N   0  0  0  0  0  0  0  0  0  0  0  0
  188.8810  176.7500  146.8300 C   0  0  0  0  0  2  0  0  0  0  0  0
  188.5630  177.4600  145.5220 C   0  0  2  0  0  3  0  0  0  0  0  0
  184.2030  179.4160  144.3960 N   0  0  0  0  0  1  0  0  0  0  0  0
  187.0830  177.6990  145.4670 C   0  0  0  0  0  0  0  0  0  0  0  0
  184.8120  177.4870  145.7190 C   0  0  0  0  0  3  0  0  0  0  0  0
  185.1470  178.5320  144.9840 C   0  0  0  0  0  0  0  0  0  0  0  0
  186.5470  178.6780  144.8190 N   0  0  0  0  0  0  0  0  0  0  0  0
  186.0800  176.8100  146.1240 C   0  0  0  0  0  2  0  0  0  0  0  0
  188.8280  177.9190  142.3780 O   0  0  0  0  0  0  0  0  0  0  0  0
  188.4420  176.9500  143.0150 C   0  0  0  0  0  0  0  0  0  0  0  0
  187.3630  176.0750  142.4410 C   0  0  1  0  0  3  0  0  0  0  0  0
  186.4460  176.8150  141.6890 O   0  0  0  0  0  1  0  0  0  0  0  0
  188.2030  175.1550  140.4110 O   0  0  0  0  0  0  0  0  0  0  0  0
  188.1260  173.6690  142.2020 N   0  0  0  0  0  2  0  0  0  0  0  0
  187.9280  174.9580  141.6250 C   0  0  0  0  0  0  0  0  0  0  0  0
  188.6410  172.6540  141.4710 O   0  0  0  0  0  1  0  0  0  0  0  0
  193.3240  175.7360  143.8150 C   0  0  0  0  0  2  0  0  0  0  0  0
  194.7150  175.1200  143.7370 C   0  0  0  0  0  2  0  0  0  0  0  0
  195.3560  175.4470  142.3960 C   0  0  0  0  0  2  0  0  0  0  0  0
  193.1550  173.6220  138.8660 C   0  0  2  0  0  0  0  0  0  0  0  0
  192.8250  173.7160  140.3850 C   0  0  2  0  0  0  0  0  0  0  0  0
  194.0690  174.8260  139.0070 C   0  0  0  0  0  2  0  0  0  0  0  0
  193.3090  172.7050  141.4320 C   0  0  2  0  0  3  0  0  0  0  0  0
  191.9860  173.9970  137.9610 C   0  0  0  0  0  1  0  0  0  0  0  0
  191.5050  174.0980  140.6380 O   0  0  0  0  0  1  0  0  0  0  0  0
  194.7330  173.0570  141.8120 C   0  0  0  0  0  2  0  0  0  0  0  0
  194.9800  174.4630  141.2890 C   0  0  1  0  0  3  0  0  0  0  0  0
  193.7570  174.9140  140.4970 C   0  0  2  0  0  3  0  0  0  0  0  0
  192.5080  170.5140  142.2650 C   0  0  0  0  0  2  0  0  0  0  0  0
  193.1270  171.2360  141.0880 C   0  0  0  0  0  3  0  0  0  0  0  0
  191.6540  170.8890  141.0750 C   0  0  0  0  0  2  0  0  0  0  0  0
  193.9040  172.4070  138.2830 C   0  0  2  0  0  3  0  0  0  0  0  0
  195.2870  172.5610  138.3910 O   0  0  0  0  0  1  0  0  0  0  0  0
  193.5380  172.1070  136.9070 N   0  0  0  0  0  2  0  0  0  0  0  0
  192.3420  170.0920  137.6280 C   0  0  0  0  0  2  0  0  0  0  0  0
  193.4810  170.6590  136.7760 C   0  0  1  0  0  3  0  0  0  0  0  0
  190.9810  170.5230  137.0820 C   0  0  2  0  0  3  0  0  0  0  0  0
  189.6900  169.8060  138.0710 Cl  0  0  0  0  0  0  0  0  0  0  0  0
  191.9330  170.6770  134.7780 C   0  0  0  0  0  2  0  0  0  0  0  0
  190.8290  170.0690  135.6340 C   0  0  0  0  0  2  0  0  0  0  0  0
  193.3080  170.2650  135.3060 C   0  0  0  0  0  2  0  0  0  0  0  0
  2  7  1  1  0  0  0
  2  4  1  0  0  0  0
  2  5  1  0  0  0  0
  3  9  1  0  0  0  0
  3  1  2  0  0  0  0
  4 19  1  6  0  0  0
  4 11  1  0  0  0  0
  5  3  1  0  0  0  0
  6  9  2  0  0  0  0
  8 26  1  6  0  0  0
  8  5  1  0  0  0  0
  8  6  1  0  0  0  0
 10  1  1  0  0  0  0
 11 13  1  6  0  0  0
 11 10  1  0  0  0  0
 12 15  1  0  0  0  0
 13 17  1  0  0  0  0
 14 17  1  0  0  0  0
 15 14  2  0  0  0  0
 16 15  1  0  0  0  0
 16 13  2  0  0  0  0
 18 19  2  0  0  0  0
 20 21  1  6  0  0  0
 20 19  1  0  0  0  0
 22 24  2  0  0  0  0
 24 23  1  0  0  0  0
 24 20  1  0  0  0  0
 25 23  1  0  0  0  0
 27 26  1  0  0  0  0
 28 27  1  0  0  0  0
 29 33  1  6  0  0  0
 29 31  1  0  0  0  0
 29 30  1  0  0  0  0
 30 37  1  0  0  0  0
 30 34  1  1  0  0  0
 30 32  1  0  0  0  0
 32 39  1  6  0  0  0
 32 35  1  0  0  0  0
 36 35  1  0  0  0  0
 36 28  1  1  0  0  0
 37 31  1  6  0  0  0
 37 36  1  0  0  0  0
 39 38  1  0  0  0  0
 40 39  1  0  0  0  0
 40 38  1  0  0  0  0
 41 42  1  6  0  0  0
 41 29  1  0  0  0  0
 43 41  1  0  0  0  0
 45 43  1  6  0  0  0
 45 44  1  0  0  0  0
 46 44  1  0  0  0  0
 46 47  1  1  0  0  0
 48 50  1  0  0  0  0
 48 49  1  0  0  0  0
 49 46  1  0  0  0  0
 50 45  1  0  0  0  0
M  END
>  <MODEL>
8

>  <REMARK>
 VINA RESULT:      -6.4      2.665      8.761
  Name = 
  12 active torsions:
  status: ('A' for Active; 'I' for Inactive)
    1  A    between atoms: C_3  and  C_10
    2  A    between atoms: C_3  and  N_48
    3  A    between atoms: C_5  and  C_50
    4  A    between atoms: C_13  and  N_48
    5  A    between atoms: C_14  and  C_16
    6  A    between atoms: C_16  and  C_44
    7  A    between atoms: C_20  and  C_23
    8  A    between atoms: C_28  and  C_44
    9  A    between atoms: C_31  and  C_38
   10  A    between atoms: C_31  and  C_49
   11  A    between atoms: C_38  and  C_43
   12  A    between atoms: C_39  and  C_49
                            x       y       z     vdW  Elec       q    Type
                         _______ _______ _______ _____ _____    ______ ____

>  <TORSDO>
F 12

$$$$
=
 OpenBabel11062420513D

 50 56  0  0  1  0  0  0  0  0999 V2000
  196.7430  175.1240  141.1740 N   0  0  0  0  0  0  0  0  0  0  0  0
  195.8120  173.2820  143.5020 C   0  0  2  0  0  3  0  0  0  0  0  0
  196.4360  175.4650  142.3880 C   0  0  0  0  0  0  0  0  0  0  0  0
  195.4900  172.4160  142.2840 C   0  0  1  0  0  3  0  0  0  0  0  0
  195.5930  174.7080  143.2460 N   0  0  0  0  0  0  0  0  0  0  0  0
  195.9910  176.9210  144.1220 C   0  0  0  0  0  3  0  0  0  0  0  0
  197.1240  173.0640  143.9360 O   0  0  0  0  0  1  0  0  0  0  0  0
  195.1390  175.6460  144.2800 C   0  0  2  0  0  3  0  0  0  0  0  0
  196.7380  176.7510  142.8860 N   0  0  0  0  0  0  0  0  0  0  0  0
  196.2050  173.9710  140.4600 C   0  0  0  0  0  2  0  0  0  0  0  0
  196.5060  172.6470  141.1460 C   0  0  2  0  0  3  0  0  0  0  0  0
  197.7860  168.7270  138.4800 N   0  0  0  0  0  1  0  0  0  0  0  0
  196.4850  171.5650  140.1070 C   0  0  0  0  0  0  0  0  0  0  0  0
  195.8460  170.1680  138.4030 C   0  0  0  0  0  3  0  0  0  0  0  0
  197.0170  169.8390  138.9180 C   0  0  0  0  0  0  0  0  0  0  0  0
  197.4260  170.6930  139.9720 N   0  0  0  0  0  2  0  0  0  0  0  0
  195.3580  171.3660  139.1480 C   0  0  0  0  0  3  0  0  0  0  0  0
  196.3840  170.3240  142.9470 O   0  0  0  0  0  0  0  0  0  0  0  0
  195.3730  170.9740  142.7200 C   0  0  0  0  0  0  0  0  0  0  0  0
  194.0270  170.3370  142.9310 C   0  0  1  0  0  3  0  0  0  0  0  0
  193.1390  171.2110  143.5650 O   0  0  0  0  0  1  0  0  0  0  0  0
  193.8520  168.7470  141.1670 O   0  0  0  0  0  0  0  0  0  0  0  0
  192.4540  170.5970  140.9600 N   0  0  0  0  0  2  0  0  0  0  0  0
  193.4430  169.8360  141.6510 C   0  0  0  0  0  0  0  0  0  0  0  0
  191.9170  170.1490  139.8020 O   0  0  0  0  0  1  0  0  0  0  0  0
  195.1890  175.0930  145.7110 C   0  0  0  0  0  2  0  0  0  0  0  0
  193.8110  175.0100  146.3560 C   0  0  0  0  0  2  0  0  0  0  0  0
  193.1830  176.3950  146.4210 C   0  0  0  0  0  2  0  0  0  0  0  0
  188.6600  176.4020  145.9910 C   0  0  2  0  0  0  0  0  0  0  0  0
  189.7030  175.2620  146.1930 C   0  0  2  0  0  0  0  0  0  0  0  0
  189.6460  177.3870  146.5960 C   0  0  0  0  0  2  0  0  0  0  0  0
  190.4560  174.5760  145.0460 C   0  0  2  0  0  3  0  0  0  0  0  0
  187.4500  176.2930  146.9120 C   0  0  0  0  0  1  0  0  0  0  0  0
  189.3190  174.3310  147.1610 O   0  0  0  0  0  1  0  0  0  0  0  0
  191.6260  175.4540  144.6510 C   0  0  0  0  0  2  0  0  0  0  0  0
  191.8010  176.4640  145.7740 C   0  0  1  0  0  3  0  0  0  0  0  0
  190.6730  176.2760  146.7840 C   0  0  2  0  0  3  0  0  0  0  0  0
  190.4060  173.1360  143.0320 C   0  0  0  0  0  2  0  0  0  0  0  0
  189.6180  174.1280  143.8610 C   0  0  0  0  0  3  0  0  0  0  0  0
  189.3240  172.6470  143.9690 C   0  0  0  0  0  2  0  0  0  0  0  0
  188.2140  176.8380  144.5820 C   0  0  2  0  0  3  0  0  0  0  0  0
  188.9650  177.9230  144.1230 O   0  0  0  0  0  1  0  0  0  0  0  0
  186.7930  177.1370  144.4920 N   0  0  0  0  0  2  0  0  0  0  0  0
  185.9310  178.5840  142.7100 C   0  0  0  0  0  2  0  0  0  0  0  0
  186.6650  178.5180  144.0520 C   0  0  1  0  0  3  0  0  0  0  0  0
  184.4720  178.1510  142.8610 C   0  0  2  0  0  3  0  0  0  0  0  0
  183.6470  178.2860  141.2920 Cl  0  0  0  0  0  0  0  0  0  0  0  0
  184.4680  178.9250  145.2350 C   0  0  0  0  0  2  0  0  0  0  0  0
  183.7670  179.0320  143.8860 C   0  0  0  0  0  2  0  0  0  0  0  0
  185.9330  179.3470  145.1120 C   0  0  0  0  0  2  0  0  0  0  0  0
  1  3  2  0  0  0  0
  2  7  1  6  0  0  0
  3  9  1  0  0  0  0
  3  5  1  0  0  0  0
  4 19  1  1  0  0  0
  4  2  1  0  0  0  0
  5  2  1  0  0  0  0
  5  8  1  0  0  0  0
  6  8  1  0  0  0  0
  8 26  1  1  0  0  0
  9  6  2  0  0  0  0
 10 11  1  0  0  0  0
 10  1  1  0  0  0  0
 11 13  1  6  0  0  0
 11  4  1  0  0  0  0
 12 15  1  0  0  0  0
 14 15  2  0  0  0  0
 14 17  1  0  0  0  0
 15 16  1  0  0  0  0
 16 13  1  0  0  0  0
 17 13  2  0  0  0  0
 19 20  1  0  0  0  0
 19 18  2  0  0  0  0
 20 21  1  6  0  0  0
 22 24  2  0  0  0  0
 23 24  1  0  0  0  0
 24 20  1  0  0  0  0
 25 23  1  0  0  0  0
 26 27  1  0  0  0  0
 27 28  1  0  0  0  0
 29 30  1  0  0  0  0
 29 31  1  0  0  0  0
 29 33  1  1  0  0  0
 30 37  1  0  0  0  0
 30 34  1  1  0  0  0
 32 39  1  6  0  0  0
 32 30  1  0  0  0  0
 35 32  1  0  0  0  0
 35 36  1  0  0  0  0
 36 28  1  1  0  0  0
 36 37  1  0  0  0  0
 37 31  1  6  0  0  0
 38 39  1  0  0  0  0
 38 40  1  0  0  0  0
 39 40  1  0  0  0  0
 41 42  1  1  0  0  0
 41 29  1  0  0  0  0
 43 41  1  0  0  0  0
 44 46  1  0  0  0  0
 44 45  1  0  0  0  0
 45 43  1  1  0  0  0
 45 50  1  0  0  0  0
 46 47  1  6  0  0  0
 46 49  1  0  0  0  0
 49 48  1  0  0  0  0
 50 48  1  0  0  0  0
M  END
>  <MODEL>
9

>  <REMARK>
 VINA RESULT:      -6.4      2.387      2.987
  Name = 
  12 active torsions:
  status: ('A' for Active; 'I' for Inactive)
    1  A    between atoms: C_3  and  C_10
    2  A    between atoms: C_3  and  N_48
    3  A    between atoms: C_5  and  C_50
    4  A    between atoms: C_13  and  N_48
    5  A    between atoms: C_14  and  C_16
    6  A    between atoms: C_16  and  C_44
    7  A    between atoms: C_20  and  C_23
    8  A    between atoms: C_28  and  C_44
    9  A    between atoms: C_31  and  C_38
   10  A    between atoms: C_31  and  C_49
   11  A    between atoms: C_38  and  C_43
   12  A    between atoms: C_39  and  C_49
                            x       y       z     vdW  Elec       q    Type
                         _______ _______ _______ _____ _____    ______ ____

>  <TORSDO>
F 12

$$$$
