=
 OpenBabel11062420553D

 31 33  0  0  1  0  0  0  0  0999 V2000
  189.9330  176.7770  145.8210 C   0  0  1  0  0  3  0  0  0  0  0  0
  189.8500  175.4910  143.7470 C   0  0  0  0  0  2  0  0  0  0  0  0
  190.7390  176.4040  144.5780 C   0  0  2  0  0  3  0  0  0  0  0  0
  188.4290  175.7040  144.2430 C   0  0  0  0  0  2  0  0  0  0  0  0
  188.5040  176.8090  145.2850 C   0  0  1  0  0  3  0  0  0  0  0  0
  185.2490  177.4700  146.9910 N   0  0  0  0  0  2  0  0  0  0  0  0
  185.9780  176.9450  145.8490 C   0  0  2  0  0  3  0  0  0  0  0  0
  187.3930  176.7010  146.3450 C   0  0  2  0  0  3  0  0  0  0  0  0
  187.5920  177.6440  147.4260 N   0  0  0  0  0  2  0  0  0  0  0  0
  186.2590  177.8360  147.9840 C   0  0  0  0  0  2  0  0  0  0  0  0
  185.5000  177.4460  143.4180 N   0  0  0  0  0  2  0  0  0  0  0  0
  185.6500  179.4810  142.2670 O   0  0  0  0  0  0  0  0  0  0  0  0
  186.2000  179.1320  144.8860 O   0  0  0  0  0  0  0  0  0  0  0  0
  185.8930  177.9220  144.7090 C   0  0  0  0  0  0  0  0  0  0  0  0
  185.4150  178.2440  142.2310 C   0  0  0  0  0  0  0  0  0  0  0  0
  185.0360  177.6150  140.9280 C   0  0  0  0  0  3  0  0  0  0  0  0
  182.6670  177.9330  140.9590 O   0  0  0  0  0  1  0  0  0  0  0  0
  183.8380  178.3190  140.3070 C   0  0  0  0  0  2  0  0  0  0  0  0
  186.2240  177.5480  139.9700 C   0  0  0  0  0  2  0  0  0  0  0  0
  187.2270  176.7110  140.4690 O   0  0  0  0  0  1  0  0  0  0  0  0
  190.1020  175.7770  146.8990 C   0  0  0  0  0  0  0  0  0  0  0  0
  190.2340  174.9960  147.7430 N   0  0  0  0  0  0  0  0  0  0  0  0
  191.9540  175.7760  144.8840 O   0  0  0  0  0  0  0  0  0  0  0  0
  192.9420  176.6600  144.4440 C   0  0  1  0  0  3  0  0  0  0  0  0
  194.3110  177.0750  146.3690 O   0  0  0  0  0  1  0  0  0  0  0  0
  194.0900  175.5480  142.4810 C   0  0  0  0  0  2  0  0  0  0  0  0
  195.4720  176.7030  144.3140 C   0  0  0  0  0  2  0  0  0  0  0  0
  194.2600  176.3580  145.1740 C   0  0  2  0  0  3  0  0  0  0  0  0
  195.4900  175.8680  143.0290 C   0  0  2  0  0  3  0  0  0  0  0  0
  193.0600  176.5910  142.9140 C   0  0  0  0  0  2  0  0  0  0  0  0
  196.3080  176.5850  141.9730 C   0  0  0  0  0  1  0  0  0  0  0  0
  1 21  1  1  0  0  0
  2  4  1  0  0  0  0
  2  3  1  0  0  0  0
  3 23  1  1  0  0  0
  3  1  1  0  0  0  0
  5  4  1  6  0  0  0
  5  1  1  0  0  0  0
  5  8  1  0  0  0  0
  6 10  1  0  0  0  0
  7 14  1  6  0  0  0
  7  8  1  0  0  0  0
  7  6  1  0  0  0  0
  8  9  1  1  0  0  0
  9 10  1  0  0  0  0
 11 14  1  0  0  0  0
 14 13  2  0  0  0  0
 15 12  2  0  0  0  0
 15 11  1  0  0  0  0
 16 15  1  0  0  0  0
 18 16  1  0  0  0  0
 18 17  1  0  0  0  0
 19 20  1  0  0  0  0
 19 16  1  0  0  0  0
 21 22  3  0  0  0  0
 24 23  1  1  0  0  0
 24 28  1  0  0  0  0
 26 30  1  0  0  0  0
 26 29  1  0  0  0  0
 27 28  1  0  0  0  0
 28 25  1  1  0  0  0
 29 31  1  6  0  0  0
 29 27  1  0  0  0  0
 30 24  1  0  0  0  0
M  END
>  <MODEL>
1

>  <REMARK>
 VINA RESULT:      -6.4      0.000      0.000
  Name = 
  8 active torsions:
  status: ('A' for Active; 'I' for Inactive)
    1  A    between atoms: C_1  and  C_7
    2  A    between atoms: C_4  and  O_31
    3  A    between atoms: C_5  and  C_18
    4  A    between atoms: C_5  and  C_23
    5  A    between atoms: C_5  and  C_25
    6  A    between atoms: C_8  and  C_19
    7  A    between atoms: C_9  and  C_29
    8  A    between atoms: C_20  and  O_31
                            x       y       z     vdW  Elec       q    Type
                         _______ _______ _______ _____ _____    ______ ____

>  <TORSDO>
F 8

$$$$
=
 OpenBabel11062420553D

 31 33  0  0  1  0  0  0  0  0999 V2000
  189.6150  177.6040  145.5620 C   0  0  1  0  0  3  0  0  0  0  0  0
  190.2640  175.6030  144.3240 C   0  0  0  0  0  2  0  0  0  0  0  0
  190.6090  177.0690  144.5330 C   0  0  2  0  0  3  0  0  0  0  0  0
  188.8480  175.4140  144.8420 C   0  0  0  0  0  2  0  0  0  0  0  0
  188.3580  176.7940  145.2530 C   0  0  1  0  0  3  0  0  0  0  0  0
  185.0820  177.2790  146.9760 N   0  0  0  0  0  2  0  0  0  0  0  0
  185.8600  176.6440  145.9260 C   0  0  2  0  0  3  0  0  0  0  0  0
  187.3070  176.7400  146.3770 C   0  0  2  0  0  3  0  0  0  0  0  0
  187.3720  177.9130  147.2240 N   0  0  0  0  0  2  0  0  0  0  0  0
  186.0400  178.0050  147.8090 C   0  0  0  0  0  2  0  0  0  0  0  0
  186.1310  176.7710  143.4160 N   0  0  0  0  0  2  0  0  0  0  0  0
  185.3090  178.3720  141.9160 O   0  0  0  0  0  0  0  0  0  0  0  0
  184.9120  178.3950  144.5850 O   0  0  0  0  0  0  0  0  0  0  0  0
  185.5840  177.3280  144.6160 C   0  0  0  0  0  0  0  0  0  0  0  0
  185.9910  177.3300  142.1040 C   0  0  0  0  0  0  0  0  0  0  0  0
  186.6530  176.6750  140.9340 C   0  0  0  0  0  3  0  0  0  0  0  0
  186.5910  176.7530  138.5450 O   0  0  0  0  0  1  0  0  0  0  0  0
  186.5590  177.5490  139.6910 C   0  0  0  0  0  2  0  0  0  0  0  0
  188.0940  176.2810  141.2520 C   0  0  0  0  0  2  0  0  0  0  0  0
  188.3080  174.9200  141.0140 O   0  0  0  0  0  1  0  0  0  0  0  0
  190.0940  177.3850  146.9450 C   0  0  0  0  0  0  0  0  0  0  0  0
  190.4680  177.2140  148.0270 N   0  0  0  0  0  0  0  0  0  0  0  0
  191.9430  177.2160  144.9350 O   0  0  0  0  0  0  0  0  0  0  0  0
  192.5360  175.9740  144.6940 C   0  0  1  0  0  3  0  0  0  0  0  0
  193.1850  176.0280  142.3860 O   0  0  0  0  0  1  0  0  0  0  0  0
  194.4160  175.7280  146.3720 C   0  0  0  0  0  2  0  0  0  0  0  0
  194.7830  175.1100  143.9050 C   0  0  0  0  0  2  0  0  0  0  0  0
  193.6810  176.1410  143.6830 C   0  0  2  0  0  3  0  0  0  0  0  0
  195.4090  175.2640  145.2960 C   0  0  2  0  0  3  0  0  0  0  0  0
  192.9790  175.3410  146.0220 C   0  0  0  0  0  2  0  0  0  0  0  0
  196.0460  173.9530  145.7110 C   0  0  0  0  0  1  0  0  0  0  0  0
  1 21  1  1  0  0  0
  2  3  1  0  0  0  0
  2  4  1  0  0  0  0
  3 23  1  1  0  0  0
  3  1  1  0  0  0  0
  5  4  1  1  0  0  0
  5  1  1  0  0  0  0
  5  8  1  0  0  0  0
  6 10  1  0  0  0  0
  7 14  1  6  0  0  0
  7  8  1  0  0  0  0
  7  6  1  0  0  0  0
  8  9  1  6  0  0  0
  9 10  1  0  0  0  0
 11 14  1  0  0  0  0
 12 15  2  0  0  0  0
 13 14  2  0  0  0  0
 15 11  1  0  0  0  0
 16 19  1  0  0  0  0
 16 15  1  0  0  0  0
 17 18  1  0  0  0  0
 18 16  1  0  0  0  0
 20 19  1  0  0  0  0
 21 22  3  0  0  0  0
 24 23  1  1  0  0  0
 24 30  1  0  0  0  0
 27 29  1  0  0  0  0
 28 25  1  6  0  0  0
 28 27  1  0  0  0  0
 28 24  1  0  0  0  0
 29 31  1  1  0  0  0
 29 26  1  0  0  0  0
 30 26  1  0  0  0  0
M  END
>  <MODEL>
2

>  <REMARK>
 VINA RESULT:      -6.4      1.487      2.144
  Name = 
  8 active torsions:
  status: ('A' for Active; 'I' for Inactive)
    1  A    between atoms: C_1  and  C_7
    2  A    between atoms: C_4  and  O_31
    3  A    between atoms: C_5  and  C_18
    4  A    between atoms: C_5  and  C_23
    5  A    between atoms: C_5  and  C_25
    6  A    between atoms: C_8  and  C_19
    7  A    between atoms: C_9  and  C_29
    8  A    between atoms: C_20  and  O_31
                            x       y       z     vdW  Elec       q    Type
                         _______ _______ _______ _____ _____    ______ ____

>  <TORSDO>
F 8

$$$$
=
 OpenBabel11062420553D

 31 33  0  0  1  0  0  0  0  0999 V2000
  190.4560  176.0300  144.7350 C   0  0  1  0  0  3  0  0  0  0  0  0
  190.6360  178.1160  143.4780 C   0  0  0  0  0  2  0  0  0  0  0  0
  189.6500  177.2150  144.2050 C   0  0  2  0  0  3  0  0  0  0  0  0
  191.8640  177.2670  143.1880 C   0  0  0  0  0  2  0  0  0  0  0  0
  191.5300  175.8610  143.6630 C   0  0  1  0  0  3  0  0  0  0  0  0
  194.3360  173.4080  143.4400 N   0  0  0  0  0  2  0  0  0  0  0  0
  193.6980  174.6250  142.9650 C   0  0  2  0  0  3  0  0  0  0  0  0
  192.7780  175.0670  144.0900 C   0  0  2  0  0  3  0  0  0  0  0  0
  192.4240  173.8560  144.8000 N   0  0  0  0  0  2  0  0  0  0  0  0
  193.5750  172.9820  144.6140 C   0  0  0  0  0  2  0  0  0  0  0  0
  191.8380  173.4910  141.6840 N   0  0  0  0  0  2  0  0  0  0  0  0
  191.3760  173.5410  139.3870 O   0  0  0  0  0  0  0  0  0  0  0  0
  193.4210  174.8280  140.5900 O   0  0  0  0  0  0  0  0  0  0  0  0
  192.9860  174.3450  141.6710 C   0  0  0  0  0  0  0  0  0  0  0  0
  191.0830  173.0990  140.5300 C   0  0  0  0  0  0  0  0  0  0  0  0
  189.9280  172.1610  140.6710 C   0  0  0  0  0  3  0  0  0  0  0  0
  188.9950  171.9380  142.8610 O   0  0  0  0  0  1  0  0  0  0  0  0
  189.9750  171.4310  142.0070 C   0  0  0  0  0  2  0  0  0  0  0  0
  188.5950  172.8740  140.4520 C   0  0  0  0  0  2  0  0  0  0  0  0
  188.1130  172.6540  139.1580 O   0  0  0  0  0  1  0  0  0  0  0  0
  191.0370  176.3200  146.0650 C   0  0  0  0  0  0  0  0  0  0  0  0
  191.4920  176.5460  147.1050 N   0  0  0  0  0  0  0  0  0  0  0  0
  188.9830  177.9170  145.2170 O   0  0  0  0  0  0  0  0  0  0  0  0
  187.7020  177.3590  145.2660 C   0  0  1  0  0  3  0  0  0  0  0  0
  187.7280  175.9000  147.1690 O   0  0  0  0  0  1  0  0  0  0  0  0
  186.0720  179.2930  145.3680 C   0  0  0  0  0  2  0  0  0  0  0  0
  185.7810  177.2610  146.9130 C   0  0  0  0  0  2  0  0  0  0  0  0
  187.2910  177.1500  146.7310 C   0  0  2  0  0  3  0  0  0  0  0  0
  185.2800  178.6550  146.5200 C   0  0  2  0  0  3  0  0  0  0  0  0
  186.7210  178.2370  144.4740 C   0  0  0  0  0  2  0  0  0  0  0  0
  183.8100  178.5790  146.1590 C   0  0  0  0  0  1  0  0  0  0  0  0
  1 21  1  1  0  0  0
  2  3  1  0  0  0  0
  3  1  1  0  0  0  0
  3 23  1  1  0  0  0
  4  2  1  0  0  0  0
  5  4  1  1  0  0  0
  5  8  1  0  0  0  0
  5  1  1  0  0  0  0
  6 10  1  0  0  0  0
  7 14  1  6  0  0  0
  7  6  1  0  0  0  0
  7  8  1  0  0  0  0
  8  9  1  6  0  0  0
 10  9  1  0  0  0  0
 12 15  2  0  0  0  0
 13 14  2  0  0  0  0
 14 11  1  0  0  0  0
 15 16  1  0  0  0  0
 15 11  1  0  0  0  0
 16 18  1  0  0  0  0
 18 17  1  0  0  0  0
 19 16  1  0  0  0  0
 20 19  1  0  0  0  0
 21 22  3  0  0  0  0
 24 23  1  1  0  0  0
 24 28  1  0  0  0  0
 26 29  1  0  0  0  0
 28 27  1  0  0  0  0
 28 25  1  6  0  0  0
 29 31  1  6  0  0  0
 29 27  1  0  0  0  0
 30 24  1  0  0  0  0
 30 26  1  0  0  0  0
M  END
>  <MODEL>
3

>  <REMARK>
 VINA RESULT:      -6.4      3.517      7.407
  Name = 
  8 active torsions:
  status: ('A' for Active; 'I' for Inactive)
    1  A    between atoms: C_1  and  C_7
    2  A    between atoms: C_4  and  O_31
    3  A    between atoms: C_5  and  C_18
    4  A    between atoms: C_5  and  C_23
    5  A    between atoms: C_5  and  C_25
    6  A    between atoms: C_8  and  C_19
    7  A    between atoms: C_9  and  C_29
    8  A    between atoms: C_20  and  O_31
                            x       y       z     vdW  Elec       q    Type
                         _______ _______ _______ _____ _____    ______ ____

>  <TORSDO>
F 8

$$$$
=
 OpenBabel11062420553D

 31 33  0  0  1  0  0  0  0  0999 V2000
  189.4290  175.0070  142.2920 C   0  0  1  0  0  3  0  0  0  0  0  0
  189.6810  174.9550  144.7200 C   0  0  0  0  0  2  0  0  0  0  0  0
  189.0260  175.7210  143.5800 C   0  0  2  0  0  3  0  0  0  0  0  0
  190.7920  174.1240  144.0990 C   0  0  0  0  0  2  0  0  0  0  0  0
  190.8290  174.4970  142.6250 C   0  0  1  0  0  3  0  0  0  0  0  0
  193.2310  172.5040  140.5760 N   0  0  0  0  0  2  0  0  0  0  0  0
  192.8310  173.0350  141.8680 C   0  0  2  0  0  3  0  0  0  0  0  0
  191.3510  173.3530  141.7370 C   0  0  2  0  0  3  0  0  0  0  0  0
  191.1370  173.6290  140.3320 N   0  0  0  0  0  2  0  0  0  0  0  0
  192.1430  172.8220  139.6520 C   0  0  0  0  0  2  0  0  0  0  0  0
  194.2040  174.3520  143.5320 N   0  0  0  0  0  2  0  0  0  0  0  0
  195.3230  176.3910  143.2450 O   0  0  0  0  0  0  0  0  0  0  0  0
  193.8980  175.1190  141.3390 O   0  0  0  0  0  0  0  0  0  0  0  0
  193.6820  174.2280  142.2050 C   0  0  0  0  0  0  0  0  0  0  0  0
  194.9920  175.4490  144.0130 C   0  0  0  0  0  0  0  0  0  0  0  0
  195.4390  175.4840  145.4390 C   0  0  0  0  0  3  0  0  0  0  0  0
  194.2930  177.1210  146.7510 O   0  0  0  0  0  1  0  0  0  0  0  0
  194.2720  175.7790  146.3720 C   0  0  0  0  0  2  0  0  0  0  0  0
  196.1760  174.2040  145.8280 C   0  0  0  0  0  2  0  0  0  0  0  0
  197.4460  174.1570  145.2460 O   0  0  0  0  0  1  0  0  0  0  0  0
  188.4970  173.9030  141.9680 C   0  0  0  0  0  0  0  0  0  0  0  0
  187.7670  173.0410  141.7150 N   0  0  0  0  0  0  0  0  0  0  0  0
  187.6380  175.7890  143.7560 O   0  0  0  0  0  0  0  0  0  0  0  0
  187.4070  177.0250  144.3640 C   0  0  1  0  0  3  0  0  0  0  0  0
  187.0230  178.5510  142.5540 O   0  0  0  0  0  1  0  0  0  0  0  0
  185.4770  176.6960  145.9690 C   0  0  0  0  0  2  0  0  0  0  0  0
  185.5500  178.7480  144.4250 C   0  0  0  0  0  2  0  0  0  0  0  0
  186.3750  177.8140  143.5440 C   0  0  2  0  0  3  0  0  0  0  0  0
  184.7570  177.9580  145.4720 C   0  0  2  0  0  3  0  0  0  0  0  0
  186.9950  176.8160  145.8290 C   0  0  0  0  0  2  0  0  0  0  0  0
  184.4300  178.8630  146.6440 C   0  0  0  0  0  1  0  0  0  0  0  0
  1 21  1  1  0  0  0
  1  5  1  0  0  0  0
  1  3  1  0  0  0  0
  3 23  1  1  0  0  0
  3  2  1  0  0  0  0
  4  2  1  0  0  0  0
  5  4  1  1  0  0  0
  6  7  1  0  0  0  0
  7 14  1  6  0  0  0
  8  9  1  6  0  0  0
  8  7  1  0  0  0  0
  8  5  1  0  0  0  0
 10  9  1  0  0  0  0
 10  6  1  0  0  0  0
 11 15  1  0  0  0  0
 12 15  2  0  0  0  0
 13 14  2  0  0  0  0
 14 11  1  0  0  0  0
 15 16  1  0  0  0  0
 16 19  1  0  0  0  0
 16 18  1  0  0  0  0
 18 17  1  0  0  0  0
 20 19  1  0  0  0  0
 22 21  3  0  0  0  0
 24 23  1  6  0  0  0
 24 30  1  0  0  0  0
 27 29  1  0  0  0  0
 28 25  1  6  0  0  0
 28 24  1  0  0  0  0
 28 27  1  0  0  0  0
 29 26  1  0  0  0  0
 29 31  1  1  0  0  0
 30 26  1  0  0  0  0
M  END
>  <MODEL>
4

>  <REMARK>
 VINA RESULT:      -6.3      3.274      8.977
  Name = 
  8 active torsions:
  status: ('A' for Active; 'I' for Inactive)
    1  A    between atoms: C_1  and  C_7
    2  A    between atoms: C_4  and  O_31
    3  A    between atoms: C_5  and  C_18
    4  A    between atoms: C_5  and  C_23
    5  A    between atoms: C_5  and  C_25
    6  A    between atoms: C_8  and  C_19
    7  A    between atoms: C_9  and  C_29
    8  A    between atoms: C_20  and  O_31
                            x       y       z     vdW  Elec       q    Type
                         _______ _______ _______ _____ _____    ______ ____

>  <TORSDO>
F 8

$$$$
=
 OpenBabel11062420553D

 31 33  0  0  1  0  0  0  0  0999 V2000
  187.0130  176.3130  141.9620 C   0  0  1  0  0  3  0  0  0  0  0  0
  189.2920  176.9190  142.5910 C   0  0  0  0  0  2  0  0  0  0  0  0
  188.4380  175.7740  142.0710 C   0  0  2  0  0  3  0  0  0  0  0  0
  188.3350  177.9280  143.2050 C   0  0  0  0  0  2  0  0  0  0  0  0
  186.9500  177.3060  143.1200 C   0  0  1  0  0  3  0  0  0  0  0  0
  184.0690  179.4160  144.2110 N   0  0  0  0  0  2  0  0  0  0  0  0
  185.4700  179.0490  144.3390 C   0  0  2  0  0  3  0  0  0  0  0  0
  185.8310  178.3590  143.0350 C   0  0  2  0  0  3  0  0  0  0  0  0
  184.5950  177.7870  142.5450 N   0  0  0  0  0  2  0  0  0  0  0  0
  183.5600  178.6770  143.0570 C   0  0  0  0  0  2  0  0  0  0  0  0
  186.9450  177.6310  145.8220 N   0  0  0  0  0  2  0  0  0  0  0  0
  186.3900  176.4480  147.7680 O   0  0  0  0  0  0  0  0  0  0  0  0
  184.6710  177.9270  146.3040 O   0  0  0  0  0  0  0  0  0  0  0  0
  185.6530  178.1850  145.5550 C   0  0  0  0  0  0  0  0  0  0  0  0
  187.2630  176.7580  146.9140 C   0  0  0  0  0  0  0  0  0  0  0  0
  188.6450  176.2060  147.0560 C   0  0  0  0  0  3  0  0  0  0  0  0
  189.3170  173.9770  146.5120 O   0  0  0  0  0  1  0  0  0  0  0  0
  188.9510  175.2020  145.9530 C   0  0  0  0  0  2  0  0  0  0  0  0
  189.6890  177.3180  147.1260 C   0  0  0  0  0  2  0  0  0  0  0  0
  190.7030  177.1180  146.1840 O   0  0  0  0  0  1  0  0  0  0  0  0
  186.7770  176.9660  140.6540 C   0  0  0  0  0  0  0  0  0  0  0  0
  186.5930  177.4780  139.6330 N   0  0  0  0  0  0  0  0  0  0  0  0
  188.9340  175.2930  140.8520 O   0  0  0  0  0  0  0  0  0  0  0  0
  188.6820  173.9180  140.8720 C   0  0  1  0  0  3  0  0  0  0  0  0
  188.1910  173.3400  138.5970 O   0  0  0  0  0  1  0  0  0  0  0  0
  190.7260  172.8200  141.8830 C   0  0  0  0  0  2  0  0  0  0  0  0
  189.6290  171.8400  139.7760 C   0  0  0  0  0  2  0  0  0  0  0  0
  189.1900  173.2860  139.5670 C   0  0  2  0  0  3  0  0  0  0  0  0
  190.7870  171.7550  140.7760 C   0  0  2  0  0  3  0  0  0  0  0  0
  189.2950  173.2940  142.1350 C   0  0  0  0  0  2  0  0  0  0  0  0
  190.8210  170.3710  141.3910 C   0  0  0  0  0  1  0  0  0  0  0  0
  1 21  1  6  0  0  0
  1  3  1  0  0  0  0
  1  5  1  0  0  0  0
  2  4  1  0  0  0  0
  3 23  1  6  0  0  0
  3  2  1  0  0  0  0
  5  4  1  6  0  0  0
  6  7  1  0  0  0  0
  7 14  1  1  0  0  0
  8  9  1  1  0  0  0
  8  5  1  0  0  0  0
  8  7  1  0  0  0  0
  9 10  1  0  0  0  0
 10  6  1  0  0  0  0
 11 15  1  0  0  0  0
 14 11  1  0  0  0  0
 14 13  2  0  0  0  0
 15 16  1  0  0  0  0
 15 12  2  0  0  0  0
 16 19  1  0  0  0  0
 18 17  1  0  0  0  0
 18 16  1  0  0  0  0
 20 19  1  0  0  0  0
 22 21  3  0  0  0  0
 24 23  1  6  0  0  0
 24 30  1  0  0  0  0
 26 30  1  0  0  0  0
 27 29  1  0  0  0  0
 28 25  1  6  0  0  0
 28 27  1  0  0  0  0
 28 24  1  0  0  0  0
 29 31  1  1  0  0  0
 29 26  1  0  0  0  0
M  END
>  <MODEL>
5

>  <REMARK>
 VINA RESULT:      -6.0      3.350      6.145
  Name = 
  8 active torsions:
  status: ('A' for Active; 'I' for Inactive)
    1  A    between atoms: C_1  and  C_7
    2  A    between atoms: C_4  and  O_31
    3  A    between atoms: C_5  and  C_18
    4  A    between atoms: C_5  and  C_23
    5  A    between atoms: C_5  and  C_25
    6  A    between atoms: C_8  and  C_19
    7  A    between atoms: C_9  and  C_29
    8  A    between atoms: C_20  and  O_31
                            x       y       z     vdW  Elec       q    Type
                         _______ _______ _______ _____ _____    ______ ____

>  <TORSDO>
F 8

$$$$
=
 OpenBabel11062420553D

 31 33  0  0  1  0  0  0  0  0999 V2000
  190.2070  175.0730  143.1280 C   0  0  1  0  0  3  0  0  0  0  0  0
  189.7040  173.7910  145.1440 C   0  0  0  0  0  2  0  0  0  0  0  0
  189.5340  175.1570  144.4970 C   0  0  2  0  0  3  0  0  0  0  0  0
  190.8270  173.0930  144.3930 C   0  0  0  0  0  2  0  0  0  0  0  0
  191.3580  174.1040  143.3890 C   0  0  1  0  0  3  0  0  0  0  0  0
  193.9360  172.5440  141.1840 N   0  0  0  0  0  2  0  0  0  0  0  0
  193.1280  172.4960  142.3910 C   0  0  2  0  0  3  0  0  0  0  0  0
  191.9640  173.4380  142.1400 C   0  0  2  0  0  3  0  0  0  0  0  0
  192.4570  174.4200  141.1970 N   0  0  0  0  0  2  0  0  0  0  0  0
  193.4640  173.7010  140.4260 C   0  0  0  0  0  2  0  0  0  0  0  0
  194.4120  174.2300  143.7070 N   0  0  0  0  0  2  0  0  0  0  0  0
  195.6390  173.9790  145.6870 O   0  0  0  0  0  0  0  0  0  0  0  0
  194.3170  171.9990  144.4160 O   0  0  0  0  0  0  0  0  0  0  0  0
  193.9730  172.8740  143.5760 C   0  0  0  0  0  0  0  0  0  0  0  0
  195.2540  174.7310  144.7530 C   0  0  0  0  0  0  0  0  0  0  0  0
  195.6810  176.1640  144.7520 C   0  0  0  0  0  3  0  0  0  0  0  0
  197.5470  176.2450  143.2580 O   0  0  0  0  0  1  0  0  0  0  0  0
  196.1980  176.5800  143.3810 C   0  0  0  0  0  2  0  0  0  0  0  0
  194.5680  177.0830  145.2500 C   0  0  0  0  0  2  0  0  0  0  0  0
  194.4020  176.9690  146.6330 O   0  0  0  0  0  1  0  0  0  0  0  0
  189.2750  174.5670  142.0950 C   0  0  0  0  0  0  0  0  0  0  0  0
  188.5470  174.1720  141.2870 N   0  0  0  0  0  0  0  0  0  0  0  0
  188.1810  175.5090  144.4200 O   0  0  0  0  0  0  0  0  0  0  0  0
  188.1190  176.8240  144.8890 C   0  0  1  0  0  3  0  0  0  0  0  0
  187.5040  178.1400  142.9800 O   0  0  0  0  0  1  0  0  0  0  0  0
  186.4800  176.8290  146.8180 C   0  0  0  0  0  2  0  0  0  0  0  0
  186.3860  178.6680  145.0250 C   0  0  0  0  0  2  0  0  0  0  0  0
  187.0000  177.5770  144.1520 C   0  0  2  0  0  3  0  0  0  0  0  0
  185.7470  178.0690  146.2840 C   0  0  2  0  0  3  0  0  0  0  0  0
  187.9550  176.8250  146.4160 C   0  0  0  0  0  2  0  0  0  0  0  0
  185.6710  179.1310  147.3630 C   0  0  0  0  0  1  0  0  0  0  0  0
  1 21  1  6  0  0  0
  1  5  1  0  0  0  0
  1  3  1  0  0  0  0
  3 23  1  6  0  0  0
  3  2  1  0  0  0  0
  4  2  1  0  0  0  0
  5  4  1  1  0  0  0
  6  7  1  0  0  0  0
  7 14  1  1  0  0  0
  8  9  1  6  0  0  0
  8  7  1  0  0  0  0
  8  5  1  0  0  0  0
 10  6  1  0  0  0  0
 10  9  1  0  0  0  0
 11 15  1  0  0  0  0
 14 11  1  0  0  0  0
 14 13  2  0  0  0  0
 15 12  2  0  0  0  0
 16 15  1  0  0  0  0
 16 19  1  0  0  0  0
 17 18  1  0  0  0  0
 18 16  1  0  0  0  0
 19 20  1  0  0  0  0
 22 21  3  0  0  0  0
 24 23  1  6  0  0  0
 24 30  1  0  0  0  0
 27 29  1  0  0  0  0
 28 25  1  6  0  0  0
 28 24  1  0  0  0  0
 28 27  1  0  0  0  0
 29 26  1  0  0  0  0
 29 31  1  1  0  0  0
 30 26  1  0  0  0  0
M  END
>  <MODEL>
6

>  <REMARK>
 VINA RESULT:      -5.8      3.259      8.922
  Name = 
  8 active torsions:
  status: ('A' for Active; 'I' for Inactive)
    1  A    between atoms: C_1  and  C_7
    2  A    between atoms: C_4  and  O_31
    3  A    between atoms: C_5  and  C_18
    4  A    between atoms: C_5  and  C_23
    5  A    between atoms: C_5  and  C_25
    6  A    between atoms: C_8  and  C_19
    7  A    between atoms: C_9  and  C_29
    8  A    between atoms: C_20  and  O_31
                            x       y       z     vdW  Elec       q    Type
                         _______ _______ _______ _____ _____    ______ ____

>  <TORSDO>
F 8

$$$$
=
 OpenBabel11062420553D

 31 33  0  0  1  0  0  0  0  0999 V2000
  190.4180  175.1370  144.6450 C   0  0  1  0  0  3  0  0  0  0  0  0
  190.1460  176.6320  142.7340 C   0  0  0  0  0  2  0  0  0  0  0  0
  189.4240  176.0610  143.9450 C   0  0  2  0  0  3  0  0  0  0  0  0
  191.3370  175.7240  142.4740 C   0  0  0  0  0  2  0  0  0  0  0  0
  191.2300  174.5850  143.4760 C   0  0  1  0  0  3  0  0  0  0  0  0
  194.0480  172.1360  143.5420 N   0  0  0  0  0  2  0  0  0  0  0  0
  193.2220  173.0730  142.7980 C   0  0  2  0  0  3  0  0  0  0  0  0
  192.6000  173.9850  143.8400 C   0  0  2  0  0  3  0  0  0  0  0  0
  192.5320  173.1970  145.0530 N   0  0  0  0  0  2  0  0  0  0  0  0
  193.6550  172.2740  144.9440 C   0  0  0  0  0  2  0  0  0  0  0  0
  191.8470  172.8200  140.6920 N   0  0  0  0  0  2  0  0  0  0  0  0
  190.2960  171.1570  140.1260 O   0  0  0  0  0  0  0  0  0  0  0  0
  191.6860  171.2640  142.4370 O   0  0  0  0  0  0  0  0  0  0  0  0
  192.2170  172.3120  141.9780 C   0  0  0  0  0  0  0  0  0  0  0  0
  190.8760  172.2320  139.8170 C   0  0  0  0  0  0  0  0  0  0  0  0
  190.5440  172.8880  138.5150 C   0  0  0  0  0  3  0  0  0  0  0  0
  190.1170  171.4700  136.6390 O   0  0  0  0  0  1  0  0  0  0  0  0
  191.1330  172.1130  137.3440 C   0  0  0  0  0  2  0  0  0  0  0  0
  189.0390  173.1030  138.3630 C   0  0  0  0  0  2  0  0  0  0  0  0
  188.5680  174.0370  139.2900 O   0  0  0  0  0  1  0  0  0  0  0  0
  191.2620  175.8790  145.6090 C   0  0  0  0  0  0  0  0  0  0  0  0
  191.9220  176.4590  146.3630 N   0  0  0  0  0  0  0  0  0  0  0  0
  188.9520  177.0860  144.7750 O   0  0  0  0  0  0  0  0  0  0  0  0
  187.6370  176.7290  145.0850 C   0  0  1  0  0  3  0  0  0  0  0  0
  187.7640  175.6850  147.2410 O   0  0  0  0  0  1  0  0  0  0  0  0
  186.2590  178.8480  144.9540 C   0  0  0  0  0  2  0  0  0  0  0  0
  185.9620  177.2210  146.9210 C   0  0  0  0  0  2  0  0  0  0  0  0
  187.4120  176.8710  146.5980 C   0  0  2  0  0  3  0  0  0  0  0  0
  185.5690  178.5650  146.2970 C   0  0  2  0  0  3  0  0  0  0  0  0
  186.6590  177.5580  144.2390 C   0  0  0  0  0  2  0  0  0  0  0  0
  184.0640  178.6200  146.1270 C   0  0  0  0  0  1  0  0  0  0  0  0
  1 21  1  1  0  0  0
  2  3  1  0  0  0  0
  3  1  1  0  0  0  0
  3 23  1  1  0  0  0
  4  2  1  0  0  0  0
  5  4  1  6  0  0  0
  5  8  1  0  0  0  0
  5  1  1  0  0  0  0
  6 10  1  0  0  0  0
  7 14  1  1  0  0  0
  7  6  1  0  0  0  0
  7  8  1  0  0  0  0
  8  9  1  1  0  0  0
 10  9  1  0  0  0  0
 11 14  1  0  0  0  0
 14 13  2  0  0  0  0
 15 12  2  0  0  0  0
 15 11  1  0  0  0  0
 16 15  1  0  0  0  0
 17 18  1  0  0  0  0
 18 16  1  0  0  0  0
 19 16  1  0  0  0  0
 19 20  1  0  0  0  0
 21 22  3  0  0  0  0
 24 23  1  1  0  0  0
 24 28  1  0  0  0  0
 26 29  1  0  0  0  0
 28 27  1  0  0  0  0
 28 25  1  1  0  0  0
 29 31  1  6  0  0  0
 29 27  1  0  0  0  0
 30 26  1  0  0  0  0
 30 24  1  0  0  0  0
M  END
>  <MODEL>
7

>  <REMARK>
 VINA RESULT:      -5.7      3.965      7.612
  Name = 
  8 active torsions:
  status: ('A' for Active; 'I' for Inactive)
    1  A    between atoms: C_1  and  C_7
    2  A    between atoms: C_4  and  O_31
    3  A    between atoms: C_5  and  C_18
    4  A    between atoms: C_5  and  C_23
    5  A    between atoms: C_5  and  C_25
    6  A    between atoms: C_8  and  C_19
    7  A    between atoms: C_9  and  C_29
    8  A    between atoms: C_20  and  O_31
                            x       y       z     vdW  Elec       q    Type
                         _______ _______ _______ _____ _____    ______ ____

>  <TORSDO>
F 8

$$$$
=
 OpenBabel11062420553D

 31 33  0  0  1  0  0  0  0  0999 V2000
  190.9860  175.1880  145.0220 C   0  0  1  0  0  3  0  0  0  0  0  0
  190.0230  177.2650  144.1730 C   0  0  0  0  0  2  0  0  0  0  0  0
  189.7250  175.7920  144.4080 C   0  0  2  0  0  3  0  0  0  0  0  0
  191.5360  177.4100  144.2060 C   0  0  0  0  0  2  0  0  0  0  0  0
  192.0940  176.0030  144.3600 C   0  0  1  0  0  3  0  0  0  0  0  0
  195.7710  175.5500  144.8240 N   0  0  0  0  0  2  0  0  0  0  0  0
  194.6680  176.2640  144.2030 C   0  0  2  0  0  3  0  0  0  0  0  0
  193.4570  175.9800  145.0750 C   0  0  2  0  0  3  0  0  0  0  0  0
  193.7150  174.6960  145.6910 N   0  0  0  0  0  2  0  0  0  0  0  0
  195.1680  174.6320  145.7890 C   0  0  0  0  0  2  0  0  0  0  0  0
  195.0150  174.5170  142.4090 N   0  0  0  0  0  2  0  0  0  0  0  0
  194.4390  174.5900  140.1390 O   0  0  0  0  0  0  0  0  0  0  0  0
  193.9820  176.5630  141.9220 O   0  0  0  0  0  0  0  0  0  0  0  0
  194.5130  175.8050  142.7790 C   0  0  0  0  0  0  0  0  0  0  0  0
  194.9790  173.9620  141.0880 C   0  0  0  0  0  0  0  0  0  0  0  0
  195.5820  172.6200  140.8210 C   0  0  0  0  0  3  0  0  0  0  0  0
  197.7880  173.4940  140.5270 O   0  0  0  0  0  1  0  0  0  0  0  0
  197.0390  172.5760  141.2620 C   0  0  0  0  0  2  0  0  0  0  0  0
  194.7560  171.4990  141.4480 C   0  0  0  0  0  2  0  0  0  0  0  0
  193.3890  171.7070  141.2470 O   0  0  0  0  0  1  0  0  0  0  0  0
  190.9950  175.3300  146.4960 C   0  0  0  0  0  0  0  0  0  0  0  0
  191.0010  175.4410  147.6470 N   0  0  0  0  0  0  0  0  0  0  0  0
  188.5930  175.6340  145.2190 O   0  0  0  0  0  0  0  0  0  0  0  0
  187.8580  176.8110  145.0530 C   0  0  1  0  0  3  0  0  0  0  0  0
  186.8620  176.6240  142.8790 O   0  0  0  0  0  1  0  0  0  0  0  0
  186.2510  176.9450  147.0040 C   0  0  0  0  0  2  0  0  0  0  0  0
  185.4450  177.4480  144.6170 C   0  0  0  0  0  2  0  0  0  0  0  0
  186.5890  176.5100  144.2410 C   0  0  2  0  0  3  0  0  0  0  0  0
  185.0620  177.2850  146.0920 C   0  0  2  0  0  3  0  0  0  0  0  0
  187.5730  177.4460  146.4220 C   0  0  0  0  0  2  0  0  0  0  0  0
  184.3810  178.5480  146.5780 C   0  0  0  0  0  1  0  0  0  0  0  0
  1 21  1  1  0  0  0
  2  4  1  0  0  0  0
  2  3  1  0  0  0  0
  3  1  1  0  0  0  0
  3 23  1  1  0  0  0
  5  4  1  1  0  0  0
  5  1  1  0  0  0  0
  5  8  1  0  0  0  0
  6 10  1  0  0  0  0
  7 14  1  6  0  0  0
  7  6  1  0  0  0  0
  7  8  1  0  0  0  0
  8  9  1  6  0  0  0
  9 10  1  0  0  0  0
 11 14  1  0  0  0  0
 12 15  2  0  0  0  0
 13 14  2  0  0  0  0
 15 11  1  0  0  0  0
 16 15  1  0  0  0  0
 16 18  1  0  0  0  0
 16 19  1  0  0  0  0
 17 18  1  0  0  0  0
 20 19  1  0  0  0  0
 21 22  3  0  0  0  0
 24 23  1  1  0  0  0
 24 30  1  0  0  0  0
 27 29  1  0  0  0  0
 28 25  1  6  0  0  0
 28 27  1  0  0  0  0
 28 24  1  0  0  0  0
 29 31  1  1  0  0  0
 29 26  1  0  0  0  0
 30 26  1  0  0  0  0
M  END
>  <MODEL>
8

>  <REMARK>
 VINA RESULT:      -5.6      3.305      8.693
  Name = 
  8 active torsions:
  status: ('A' for Active; 'I' for Inactive)
    1  A    between atoms: C_1  and  C_7
    2  A    between atoms: C_4  and  O_31
    3  A    between atoms: C_5  and  C_18
    4  A    between atoms: C_5  and  C_23
    5  A    between atoms: C_5  and  C_25
    6  A    between atoms: C_8  and  C_19
    7  A    between atoms: C_9  and  C_29
    8  A    between atoms: C_20  and  O_31
                            x       y       z     vdW  Elec       q    Type
                         _______ _______ _______ _____ _____    ______ ____

>  <TORSDO>
F 8

$$$$
=
 OpenBabel11062420553D

 31 33  0  0  1  0  0  0  0  0999 V2000
  193.2100  175.2720  145.2740 C   0  0  1  0  0  3  0  0  0  0  0  0
  192.5890  176.4050  143.2030 C   0  0  0  0  0  2  0  0  0  0  0  0
  192.0160  175.7420  144.4460 C   0  0  2  0  0  3  0  0  0  0  0  0
  194.0270  175.9260  143.0810 C   0  0  0  0  0  2  0  0  0  0  0  0
  194.2330  174.9150  144.1990 C   0  0  1  0  0  3  0  0  0  0  0  0
  197.6990  173.5820  144.5900 N   0  0  0  0  0  2  0  0  0  0  0  0
  196.6590  174.1300  143.7350 C   0  0  2  0  0  3  0  0  0  0  0  0
  195.6970  174.8430  144.6690 C   0  0  2  0  0  3  0  0  0  0  0  0
  195.8160  174.1610  145.9410 N   0  0  0  0  0  2  0  0  0  0  0  0
  197.1880  173.6690  145.9570 C   0  0  0  0  0  2  0  0  0  0  0  0
  195.7470  171.7770  143.5930 N   0  0  0  0  0  2  0  0  0  0  0  0
  194.8550  170.6430  141.7470 O   0  0  0  0  0  0  0  0  0  0  0  0
  195.7840  173.1770  141.7140 O   0  0  0  0  0  0  0  0  0  0  0  0
  196.0270  173.0200  142.9420 C   0  0  0  0  0  0  0  0  0  0  0  0
  195.1880  170.6180  142.9610 C   0  0  0  0  0  0  0  0  0  0  0  0
  194.9870  169.3600  143.7430 C   0  0  0  0  0  3  0  0  0  0  0  0
  196.0460  168.2930  145.6020 O   0  0  0  0  0  1  0  0  0  0  0  0
  196.2940  168.8860  144.3640 C   0  0  0  0  0  2  0  0  0  0  0  0
  193.8800  169.5160  144.7840 C   0  0  0  0  0  2  0  0  0  0  0  0
  192.7140  170.0260  144.2050 O   0  0  0  0  0  1  0  0  0  0  0  0
  193.6990  176.3390  146.1770 C   0  0  0  0  0  0  0  0  0  0  0  0
  194.0810  177.1720  146.8830 N   0  0  0  0  0  0  0  0  0  0  0  0
  191.1810  176.6230  145.1430 O   0  0  0  0  0  0  0  0  0  0  0  0
  189.9780  175.9310  145.3120 C   0  0  1  0  0  3  0  0  0  0  0  0
  190.0690  175.0530  147.5420 O   0  0  0  0  0  1  0  0  0  0  0  0
  188.1180  177.5820  144.8410 C   0  0  0  0  0  2  0  0  0  0  0  0
  187.9870  176.0190  146.8760 C   0  0  0  0  0  2  0  0  0  0  0  0
  189.5090  176.0690  146.7680 C   0  0  2  0  0  3  0  0  0  0  0  0
  187.3430  177.1760  146.1040 C   0  0  2  0  0  3  0  0  0  0  0  0
  188.9460  176.4230  144.2860 C   0  0  0  0  0  2  0  0  0  0  0  0
  185.9190  176.8080  145.7410 C   0  0  0  0  0  1  0  0  0  0  0  0
  1 21  1  1  0  0  0
  2  3  1  0  0  0  0
  3 23  1  1  0  0  0
  3  1  1  0  0  0  0
  4  2  1  0  0  0  0
  5  4  1  6  0  0  0
  5  8  1  0  0  0  0
  5  1  1  0  0  0  0
  6 10  1  0  0  0  0
  7 14  1  1  0  0  0
  7  6  1  0  0  0  0
  7  8  1  0  0  0  0
  8  9  1  1  0  0  0
  9 10  1  0  0  0  0
 12 15  2  0  0  0  0
 13 14  2  0  0  0  0
 14 11  1  0  0  0  0
 15 11  1  0  0  0  0
 15 16  1  0  0  0  0
 16 18  1  0  0  0  0
 16 19  1  0  0  0  0
 18 17  1  0  0  0  0
 20 19  1  0  0  0  0
 21 22  3  0  0  0  0
 24 23  1  1  0  0  0
 24 28  1  0  0  0  0
 26 29  1  0  0  0  0
 28 27  1  0  0  0  0
 28 25  1  1  0  0  0
 29 31  1  6  0  0  0
 29 27  1  0  0  0  0
 30 26  1  0  0  0  0
 30 24  1  0  0  0  0
M  END
>  <MODEL>
9

>  <REMARK>
 VINA RESULT:      -5.6      4.333      9.507
  Name = 
  8 active torsions:
  status: ('A' for Active; 'I' for Inactive)
    1  A    between atoms: C_1  and  C_7
    2  A    between atoms: C_4  and  O_31
    3  A    between atoms: C_5  and  C_18
    4  A    between atoms: C_5  and  C_23
    5  A    between atoms: C_5  and  C_25
    6  A    between atoms: C_8  and  C_19
    7  A    between atoms: C_9  and  C_29
    8  A    between atoms: C_20  and  O_31
                            x       y       z     vdW  Elec       q    Type
                         _______ _______ _______ _____ _____    ______ ____

>  <TORSDO>
F 8

$$$$
