=
 OpenBabel11062419053D

 32 35  0  0  1  0  0  0  0  0999 V2000
  191.8060  176.8630  147.9360 N   0  0  0  0  0  0  0  0  0  0  0  0
  189.2580  175.2760  143.2610 C   0  0  0  0  0  0  0  0  0  0  0  0
  188.2800  175.2280  142.0900 C   0  0  1  0  0  3  0  0  0  0  0  0
  190.3040  173.0180  142.7340 C   0  0  0  0  0  2  0  0  0  0  0  0
  191.5520  174.7060  144.0640 C   0  0  0  0  0  0  0  0  0  0  0  0
  187.6110  173.8670  141.9980 C   0  0  0  0  0  2  0  0  0  0  0  0
  190.1330  176.2020  145.3560 C   0  0  0  0  0  0  0  0  0  0  0  0
  188.4000  172.9270  141.0840 C   0  0  0  0  0  2  0  0  0  0  0  0
  190.3910  174.3780  143.2770 N   0  0  0  0  0  0  0  0  0  0  0  0
  190.5300  176.9940  147.7490 C   0  0  0  0  0  3  0  0  0  0  0  0
  187.9610  177.1390  144.3220 C   0  0  0  0  0  2  0  0  0  0  0  0
  192.8350  176.4810  147.0240 C   0  0  0  0  0  3  0  0  0  0  0  0
  186.7760  176.6860  143.4810 C   0  0  2  0  0  3  0  0  0  0  0  0
  189.1020  176.1470  144.2860 C   0  0  0  0  0  0  0  0  0  0  0  0
  189.7820  176.7850  146.5060 C   0  0  0  0  0  3  0  0  0  0  0  0
  191.4520  175.5700  145.0980 C   0  0  0  0  0  0  0  0  0  0  0  0
  192.6830  175.9250  145.8280 C   0  0  0  0  0  3  0  0  0  0  0  0
  189.9160  173.0210  141.2620 C   0  0  0  0  0  2  0  0  0  0  0  0
  187.2270  176.3370  142.0600 C   0  0  1  0  0  3  0  0  0  0  0  0
  185.6520  177.6740  143.5080 C   0  0  0  0  0  0  0  0  0  0  0  0
  185.7290  178.7720  144.3550 O   0  0  0  0  0  1  0  0  0  0  0  0
  184.6250  177.5050  142.7990 O   0  0  0  0  0  0  0  0  0  0  0  0
  187.7190  177.5160  141.2720 C   0  0  0  0  0  0  0  0  0  0  0  0
  188.8140  178.2540  141.7020 O   0  0  0  0  0  1  0  0  0  0  0  0
  187.1230  177.8470  140.2140 O   0  0  0  0  0  0  0  0  0  0  0  0
  192.8750  174.0920  143.6870 C   0  0  0  0  0  2  0  0  0  0  0  0
  193.0560  176.3590  142.2710 O   0  0  0  0  0  0  0  0  0  0  0  0
  193.6010  174.9600  142.3080 S   0  0  0  0  0  0  0  0  0  0  0  0
  193.2440  174.2550  141.0290 O   0  0  0  0  0  0  0  0  0  0  0  0
  195.3750  175.0200  142.4950 C   0  0  0  0  0  2  0  0  0  0  0  0
  195.7770  175.9900  143.5920 C   0  0  0  0  0  2  0  0  0  0  0  0
  196.9620  176.8240  143.1470 C   0  0  0  0  0  1  0  0  0  0  0  0
  2  9  1  0  0  0  0
  2 14  2  0  0  0  0
  3  6  1  1  0  0  0
  3  2  1  0  0  0  0
  4  9  1  0  0  0  0
  5 16  2  0  0  0  0
  7 15  2  0  0  0  0
  8 18  1  0  0  0  0
  8  6  1  0  0  0  0
  9  5  1  0  0  0  0
 10  1  2  0  0  0  0
 12  1  1  0  0  0  0
 13 20  1  6  0  0  0
 13 11  1  0  0  0  0
 14 11  1  0  0  0  0
 14  7  1  0  0  0  0
 15 10  1  0  0  0  0
 16  7  1  0  0  0  0
 16 17  1  0  0  0  0
 17 12  2  0  0  0  0
 18  4  1  0  0  0  0
 19 23  1  1  0  0  0
 19  3  1  0  0  0  0
 19 13  1  0  0  0  0
 20 21  1  0  0  0  0
 22 20  2  0  0  0  0
 23 24  1  0  0  0  0
 25 23  2  0  0  0  0
 26  5  1  0  0  0  0
 27 28  2  0  0  0  0
 28 30  1  0  0  0  0
 28 26  1  0  0  0  0
 29 28  2  0  0  0  0
 30 31  1  0  0  0  0
 32 31  1  0  0  0  0
M  END
>  <MODEL>
1

>  <REMARK>
 VINA RESULT:      -6.8      0.000      0.000
  Name = 
  6 active torsions:
  status: ('A' for Active; 'I' for Inactive)
    1  A    between atoms: C_1  and  C_22
    2  A    between atoms: C_5  and  C_10
    3  A    between atoms: C_5  and  S_26
    4  A    between atoms: C_6  and  C_32
    5  A    between atoms: C_17  and  C_18
    6  A    between atoms: C_18  and  S_26
                            x       y       z     vdW  Elec       q    Type
                         _______ _______ _______ _____ _____    ______ ____

>  <TORSDO>
F 6

$$$$
=
 OpenBabel11062419053D

 32 35  0  0  1  0  0  0  0  0999 V2000
  189.6390  171.8870  140.6040 N   0  0  0  0  0  0  0  0  0  0  0  0
  191.3500  174.9950  144.8790 C   0  0  0  0  0  0  0  0  0  0  0  0
  192.2550  175.6920  145.8910 C   0  0  1  0  0  3  0  0  0  0  0  0
  189.2010  175.5750  146.1100 C   0  0  0  0  0  2  0  0  0  0  0  0
  189.1610  175.0520  143.6800 C   0  0  0  0  0  0  0  0  0  0  0  0
  191.8480  175.3430  147.3130 C   0  0  0  0  0  2  0  0  0  0  0  0
  190.9180  173.5300  142.9610 C   0  0  0  0  0  0  0  0  0  0  0  0
  190.8390  176.3540  147.8590 C   0  0  0  0  0  2  0  0  0  0  0  0
  189.9340  175.2910  144.8720 N   0  0  0  0  0  0  0  0  0  0  0  0
  190.6800  171.5930  141.3170 C   0  0  0  0  0  3  0  0  0  0  0  0
  193.3100  173.7800  143.9000 C   0  0  0  0  0  2  0  0  0  0  0  0
  188.8270  173.0610  140.6010 C   0  0  0  0  0  3  0  0  0  0  0  0
  194.0290  174.0420  145.2160 C   0  0  2  0  0  3  0  0  0  0  0  0
  191.8370  174.1130  143.9750 C   0  0  0  0  0  0  0  0  0  0  0  0
  191.3280  172.4210  142.3390 C   0  0  0  0  0  3  0  0  0  0  0  0
  189.6010  174.1820  142.7450 C   0  0  0  0  0  0  0  0  0  0  0  0
  188.8060  174.0260  141.5130 C   0  0  0  0  0  3  0  0  0  0  0  0
  189.7760  176.7770  146.8440 C   0  0  0  0  0  2  0  0  0  0  0  0
  193.7570  175.4680  145.7020 C   0  0  1  0  0  3  0  0  0  0  0  0
  195.4890  173.7230  145.1370 C   0  0  0  0  0  0  0  0  0  0  0  0
  196.3300  174.1130  146.1700 O   0  0  0  0  0  1  0  0  0  0  0  0
  195.9680  173.1330  144.1320 O   0  0  0  0  0  0  0  0  0  0  0  0
  194.3460  176.5330  144.8230 C   0  0  0  0  0  0  0  0  0  0  0  0
  194.2610  176.4420  143.4390 O   0  0  0  0  0  0  0  0  0  0  0  0
  194.9360  177.5130  145.3470 O   0  0  0  0  0  1  0  0  0  0  0  0
  187.8760  175.8160  143.4900 C   0  0  0  0  0  2  0  0  0  0  0  0
  188.1390  177.3930  141.3390 O   0  0  0  0  0  0  0  0  0  0  0  0
  188.2050  177.4450  142.8390 S   0  0  0  0  0  0  0  0  0  0  0  0
  189.5800  177.8840  143.2600 O   0  0  0  0  0  0  0  0  0  0  0  0
  186.9840  178.5980  143.4460 C   0  0  0  0  0  2  0  0  0  0  0  0
  186.6490  178.3240  144.9010 C   0  0  0  0  0  2  0  0  0  0  0  0
  185.4920  179.1970  145.3460 C   0  0  0  0  0  1  0  0  0  0  0  0
  1 10  2  0  0  0  0
  2  3  1  0  0  0  0
  3  6  1  1  0  0  0
  4 18  1  0  0  0  0
  5  9  1  0  0  0  0
  6  8  1  0  0  0  0
  7 14  1  0  0  0  0
  9  2  1  0  0  0  0
  9  4  1  0  0  0  0
 10 15  1  0  0  0  0
 11 14  1  0  0  0  0
 11 13  1  0  0  0  0
 12  1  1  0  0  0  0
 12 17  2  0  0  0  0
 13 20  1  6  0  0  0
 13 19  1  0  0  0  0
 14  2  2  0  0  0  0
 15  7  2  0  0  0  0
 16  7  1  0  0  0  0
 16  5  2  0  0  0  0
 17 16  1  0  0  0  0
 18  8  1  0  0  0  0
 19 23  1  6  0  0  0
 19  3  1  0  0  0  0
 20 21  1  0  0  0  0
 22 20  2  0  0  0  0
 23 25  1  0  0  0  0
 24 23  2  0  0  0  0
 26  5  1  0  0  0  0
 27 28  2  0  0  0  0
 28 29  2  0  0  0  0
 28 30  1  0  0  0  0
 28 26  1  0  0  0  0
 30 31  1  0  0  0  0
 31 32  1  0  0  0  0
M  END
>  <MODEL>
2

>  <REMARK>
 VINA RESULT:      -6.5      2.299      7.371
  Name = 
  6 active torsions:
  status: ('A' for Active; 'I' for Inactive)
    1  A    between atoms: C_1  and  C_22
    2  A    between atoms: C_5  and  C_10
    3  A    between atoms: C_5  and  S_26
    4  A    between atoms: C_6  and  C_32
    5  A    between atoms: C_17  and  C_18
    6  A    between atoms: C_18  and  S_26
                            x       y       z     vdW  Elec       q    Type
                         _______ _______ _______ _____ _____    ______ ____

>  <TORSDO>
F 6

$$$$
=
 OpenBabel11062419053D

 32 35  0  0  1  0  0  0  0  0999 V2000
  188.8800  173.2770  139.9480 N   0  0  0  0  0  0  0  0  0  0  0  0
  188.6390  176.1550  144.6940 C   0  0  0  0  0  0  0  0  0  0  0  0
  188.1800  177.1320  145.7720 C   0  0  1  0  0  3  0  0  0  0  0  0
  190.8440  175.6200  145.8440 C   0  0  0  0  0  2  0  0  0  0  0  0
  189.8530  174.0260  144.2150 C   0  0  0  0  0  0  0  0  0  0  0  0
  189.3050  178.0770  146.1620 C   0  0  0  0  0  2  0  0  0  0  0  0
  188.4910  175.0800  142.4950 C   0  0  0  0  0  0  0  0  0  0  0  0
  190.1130  177.5160  147.3330 C   0  0  0  0  0  2  0  0  0  0  0  0
  189.7210  175.2380  144.9810 N   0  0  0  0  0  0  0  0  0  0  0  0
  188.4500  174.4970  140.0110 C   0  0  0  0  0  3  0  0  0  0  0  0
  186.8950  177.0130  143.1130 C   0  0  0  0  0  2  0  0  0  0  0  0
  189.2120  172.3620  140.9920 C   0  0  0  0  0  3  0  0  0  0  0  0
  186.8620  178.2770  143.9620 C   0  0  2  0  0  3  0  0  0  0  0  0
  188.0530  176.1100  143.4740 C   0  0  0  0  0  0  0  0  0  0  0  0
  188.1700  175.2860  141.2140 C   0  0  0  0  0  3  0  0  0  0  0  0
  189.2880  173.9280  142.9920 C   0  0  0  0  0  0  0  0  0  0  0  0
  189.3930  172.6430  142.2780 C   0  0  0  0  0  3  0  0  0  0  0  0
  190.3780  176.0130  147.2370 C   0  0  0  0  0  2  0  0  0  0  0  0
  186.9120  177.9250  145.4510 C   0  0  1  0  0  3  0  0  0  0  0  0
  185.7090  179.1640  143.6110 C   0  0  0  0  0  0  0  0  0  0  0  0
  185.5660  180.3850  144.2560 O   0  0  0  0  0  1  0  0  0  0  0  0
  184.8510  178.8030  142.7630 O   0  0  0  0  0  0  0  0  0  0  0  0
  185.6930  177.2020  145.9460 C   0  0  0  0  0  0  0  0  0  0  0  0
  184.4410  177.8040  145.9020 O   0  0  0  0  0  0  0  0  0  0  0  0
  185.8090  176.0410  146.4160 O   0  0  0  0  0  1  0  0  0  0  0  0
  190.6030  172.8680  144.8210 C   0  0  0  0  0  2  0  0  0  0  0  0
  192.4810  173.9460  143.2430 O   0  0  0  0  0  0  0  0  0  0  0  0
  192.2920  172.8450  144.2470 S   0  0  0  0  0  0  0  0  0  0  0  0
  192.5810  171.5220  143.5940 O   0  0  0  0  0  0  0  0  0  0  0  0
  193.4020  173.1010  145.6220 C   0  0  0  0  0  2  0  0  0  0  0  0
  194.5300  174.0450  145.2480 C   0  0  0  0  0  2  0  0  0  0  0  0
  194.5050  175.2730  146.1380 C   0  0  0  0  0  1  0  0  0  0  0  0
  1 10  2  0  0  0  0
  1 12  1  0  0  0  0
  2  9  1  0  0  0  0
  2  3  1  0  0  0  0
  3  6  1  6  0  0  0
  4 18  1  0  0  0  0
  5 26  1  0  0  0  0
  5  9  1  0  0  0  0
  6  8  1  0  0  0  0
  7 16  1  0  0  0  0
  7 14  1  0  0  0  0
  9  4  1  0  0  0  0
 10 15  1  0  0  0  0
 11 14  1  0  0  0  0
 11 13  1  0  0  0  0
 12 17  2  0  0  0  0
 13 20  1  1  0  0  0
 13 19  1  0  0  0  0
 14  2  2  0  0  0  0
 15  7  2  0  0  0  0
 16  5  2  0  0  0  0
 17 16  1  0  0  0  0
 18  8  1  0  0  0  0
 19  3  1  0  0  0  0
 19 23  1  6  0  0  0
 20 21  1  0  0  0  0
 22 20  2  0  0  0  0
 23 25  1  0  0  0  0
 24 23  2  0  0  0  0
 27 28  2  0  0  0  0
 28 26  1  0  0  0  0
 28 30  1  0  0  0  0
 29 28  2  0  0  0  0
 31 30  1  0  0  0  0
 31 32  1  0  0  0  0
M  END
>  <MODEL>
3

>  <REMARK>
 VINA RESULT:      -6.5      2.161      4.744
  Name = 
  6 active torsions:
  status: ('A' for Active; 'I' for Inactive)
    1  A    between atoms: C_1  and  C_22
    2  A    between atoms: C_5  and  C_10
    3  A    between atoms: C_5  and  S_26
    4  A    between atoms: C_6  and  C_32
    5  A    between atoms: C_17  and  C_18
    6  A    between atoms: C_18  and  S_26
                            x       y       z     vdW  Elec       q    Type
                         _______ _______ _______ _____ _____    ______ ____

>  <TORSDO>
F 6

$$$$
=
 OpenBabel11062419053D

 32 35  0  0  1  0  0  0  0  0999 V2000
  189.1120  172.0050  139.0330 N   0  0  0  0  0  0  0  0  0  0  0  0
  189.9840  175.9350  142.8620 C   0  0  0  0  0  0  0  0  0  0  0  0
  189.7390  177.0640  143.8590 C   0  0  1  0  0  3  0  0  0  0  0  0
  192.5190  176.1160  142.9820 C   0  0  0  0  0  2  0  0  0  0  0  0
  191.4400  174.0030  142.2430 C   0  0  0  0  0  0  0  0  0  0  0  0
  190.6240  178.2610  143.5510 C   0  0  0  0  0  2  0  0  0  0  0  0
  189.2810  174.3130  141.1620 C   0  0  0  0  0  0  0  0  0  0  0  0
  191.9470  178.1770  144.3160 C   0  0  0  0  0  2  0  0  0  0  0  0
  191.2960  175.3310  142.7820 N   0  0  0  0  0  0  0  0  0  0  0  0
  188.4270  173.1040  139.0840 C   0  0  0  0  0  3  0  0  0  0  0  0
  187.5980  176.0300  142.1040 C   0  0  0  0  0  2  0  0  0  0  0  0
  190.0620  171.4690  139.9540 C   0  0  0  0  0  3  0  0  0  0  0  0
  187.5600  177.4450  142.6640 C   0  0  2  0  0  3  0  0  0  0  0  0
  189.0020  175.4710  142.0540 C   0  0  0  0  0  0  0  0  0  0  0  0
  188.4400  174.1180  140.1420 C   0  0  0  0  0  3  0  0  0  0  0  0
  190.4890  173.4910  141.4310 C   0  0  0  0  0  0  0  0  0  0  0  0
  190.6500  172.1030  140.9620 C   0  0  0  0  0  3  0  0  0  0  0  0
  192.5500  176.7720  144.3550 C   0  0  0  0  0  2  0  0  0  0  0  0
  188.2840  177.5100  144.0110 C   0  0  1  0  0  3  0  0  0  0  0  0
  186.1680  177.9920  142.7240 C   0  0  0  0  0  0  0  0  0  0  0  0
  185.9720  179.3220  143.0720 O   0  0  0  0  0  1  0  0  0  0  0  0
  185.1730  177.2540  142.4950 O   0  0  0  0  0  0  0  0  0  0  0  0
  187.6030  176.7380  145.1050 C   0  0  0  0  0  0  0  0  0  0  0  0
  186.3650  177.1370  145.5930 O   0  0  0  0  0  0  0  0  0  0  0  0
  188.1680  175.7250  145.5930 O   0  0  0  0  0  1  0  0  0  0  0  0
  192.6510  173.1950  142.6300 C   0  0  0  0  0  2  0  0  0  0  0  0
  192.8190  171.0260  144.1940 O   0  0  0  0  0  0  0  0  0  0  0  0
  192.4350  172.4770  144.2490 S   0  0  0  0  0  0  0  0  0  0  0  0
  190.9930  172.5930  144.6600 O   0  0  0  0  0  0  0  0  0  0  0  0
  193.4750  173.3210  145.4300 C   0  0  0  0  0  2  0  0  0  0  0  0
  194.7780  173.7650  144.7920 C   0  0  0  0  0  2  0  0  0  0  0  0
  195.5330  174.6890  145.7280 C   0  0  0  0  0  1  0  0  0  0  0  0
  1 10  2  0  0  0  0
  1 12  1  0  0  0  0
  2  3  1  0  0  0  0
  3  6  1  6  0  0  0
  3 19  1  0  0  0  0
  4 18  1  0  0  0  0
  5 26  1  0  0  0  0
  5  9  1  0  0  0  0
  6  8  1  0  0  0  0
  7 16  1  0  0  0  0
  7 14  1  0  0  0  0
  8 18  1  0  0  0  0
  9  2  1  0  0  0  0
  9  4  1  0  0  0  0
 10 15  1  0  0  0  0
 11 13  1  0  0  0  0
 12 17  2  0  0  0  0
 13 20  1  1  0  0  0
 13 19  1  0  0  0  0
 14 11  1  0  0  0  0
 14  2  2  0  0  0  0
 15  7  2  0  0  0  0
 16  5  2  0  0  0  0
 17 16  1  0  0  0  0
 19 23  1  1  0  0  0
 20 21  1  0  0  0  0
 22 20  2  0  0  0  0
 23 24  2  0  0  0  0
 23 25  1  0  0  0  0
 26 28  1  0  0  0  0
 27 28  2  0  0  0  0
 28 29  2  0  0  0  0
 28 30  1  0  0  0  0
 31 30  1  0  0  0  0
 31 32  1  0  0  0  0
M  END
>  <MODEL>
4

>  <REMARK>
 VINA RESULT:      -6.5      2.489      4.873
  Name = 
  6 active torsions:
  status: ('A' for Active; 'I' for Inactive)
    1  A    between atoms: C_1  and  C_22
    2  A    between atoms: C_5  and  C_10
    3  A    between atoms: C_5  and  S_26
    4  A    between atoms: C_6  and  C_32
    5  A    between atoms: C_17  and  C_18
    6  A    between atoms: C_18  and  S_26
                            x       y       z     vdW  Elec       q    Type
                         _______ _______ _______ _____ _____    ______ ____

>  <TORSDO>
F 6

$$$$
=
 OpenBabel11062419053D

 32 35  0  0  1  0  0  0  0  0999 V2000
  192.6940  176.7910  147.7820 N   0  0  0  0  0  0  0  0  0  0  0  0
  189.3610  175.7410  143.4630 C   0  0  0  0  0  0  0  0  0  0  0  0
  188.1800  175.8010  142.4970 C   0  0  1  0  0  3  0  0  0  0  0  0
  190.3680  173.6560  142.4090 C   0  0  0  0  0  2  0  0  0  0  0  0
  191.7850  175.2100  143.7340 C   0  0  0  0  0  0  0  0  0  0  0  0
  187.5560  174.4270  142.3190 C   0  0  0  0  0  2  0  0  0  0  0  0
  190.5850  176.4060  145.4810 C   0  0  0  0  0  0  0  0  0  0  0  0
  188.1900  173.6840  141.1420 C   0  0  0  0  0  2  0  0  0  0  0  0
  190.5080  174.9250  143.1310 N   0  0  0  0  0  0  0  0  0  0  0  0
  191.4030  176.8640  147.8540 C   0  0  0  0  0  3  0  0  0  0  0  0
  188.2230  177.3410  145.0200 C   0  0  0  0  0  2  0  0  0  0  0  0
  193.5440  176.6130  146.6490 C   0  0  0  0  0  3  0  0  0  0  0  0
  186.9170  176.9400  144.3490 C   0  0  2  0  0  3  0  0  0  0  0  0
  189.3720  176.4410  144.6220 C   0  0  0  0  0  0  0  0  0  0  0  0
  190.4390  176.7910  146.7520 C   0  0  0  0  0  3  0  0  0  0  0  0
  191.8530  175.9050  144.8900 C   0  0  0  0  0  0  0  0  0  0  0  0
  193.1860  176.2290  145.4290 C   0  0  0  0  0  3  0  0  0  0  0  0
  189.7070  173.8490  141.0520 C   0  0  0  0  0  2  0  0  0  0  0  0
  187.1010  176.8310  142.8340 C   0  0  1  0  0  3  0  0  0  0  0  0
  185.7840  177.8380  144.7360 C   0  0  0  0  0  0  0  0  0  0  0  0
  184.5370  177.6550  144.1510 O   0  0  0  0  0  0  0  0  0  0  0  0
  185.9540  178.7760  145.5590 O   0  0  0  0  0  1  0  0  0  0  0  0
  187.3900  178.1420  142.1620 C   0  0  0  0  0  0  0  0  0  0  0  0
  188.6700  178.4460  141.7130 O   0  0  0  0  0  0  0  0  0  0  0  0
  186.4640  178.9810  142.0140 O   0  0  0  0  0  1  0  0  0  0  0  0
  193.0340  174.7440  143.0310 C   0  0  0  0  0  2  0  0  0  0  0  0
  193.4660  172.1280  142.6410 O   0  0  0  0  0  0  0  0  0  0  0  0
  193.5870  173.1850  143.7010 S   0  0  0  0  0  0  0  0  0  0  0  0
  192.7270  172.8110  144.8750 O   0  0  0  0  0  0  0  0  0  0  0  0
  195.2920  173.3180  144.2130 C   0  0  0  0  0  2  0  0  0  0  0  0
  195.4110  173.3210  145.7260 C   0  0  0  0  0  2  0  0  0  0  0  0
  196.8670  173.4200  146.1390 C   0  0  0  0  0  1  0  0  0  0  0  0
  1 10  2  0  0  0  0
  2 14  2  0  0  0  0
  3  6  1  1  0  0  0
  3 19  1  0  0  0  0
  3  2  1  0  0  0  0
  4  9  1  0  0  0  0
  5 16  2  0  0  0  0
  7 15  2  0  0  0  0
  8  6  1  0  0  0  0
  9  2  1  0  0  0  0
  9  5  1  0  0  0  0
 12  1  1  0  0  0  0
 13 20  1  6  0  0  0
 13 11  1  0  0  0  0
 14 11  1  0  0  0  0
 14  7  1  0  0  0  0
 15 10  1  0  0  0  0
 16 17  1  0  0  0  0
 16  7  1  0  0  0  0
 17 12  2  0  0  0  0
 18  8  1  0  0  0  0
 18  4  1  0  0  0  0
 19 23  1  1  0  0  0
 19 13  1  0  0  0  0
 20 22  1  0  0  0  0
 21 20  2  0  0  0  0
 24 23  2  0  0  0  0
 25 23  1  0  0  0  0
 26 28  1  0  0  0  0
 26  5  1  0  0  0  0
 27 28  2  0  0  0  0
 28 30  1  0  0  0  0
 28 29  2  0  0  0  0
 30 31  1  0  0  0  0
 31 32  1  0  0  0  0
M  END
>  <MODEL>
5

>  <REMARK>
 VINA RESULT:      -6.4      1.608      1.866
  Name = 
  6 active torsions:
  status: ('A' for Active; 'I' for Inactive)
    1  A    between atoms: C_1  and  C_22
    2  A    between atoms: C_5  and  C_10
    3  A    between atoms: C_5  and  S_26
    4  A    between atoms: C_6  and  C_32
    5  A    between atoms: C_17  and  C_18
    6  A    between atoms: C_18  and  S_26
                            x       y       z     vdW  Elec       q    Type
                         _______ _______ _______ _____ _____    ______ ____

>  <TORSDO>
F 6

$$$$
=
 OpenBabel11062419053D

 32 35  0  0  1  0  0  0  0  0999 V2000
  194.2660  176.5490  146.4760 N   0  0  0  0  0  0  0  0  0  0  0  0
  189.9890  175.5690  143.0680 C   0  0  0  0  0  0  0  0  0  0  0  0
  188.5930  175.5960  142.4530 C   0  0  1  0  0  3  0  0  0  0  0  0
  190.8340  173.7110  141.5500 C   0  0  0  0  0  2  0  0  0  0  0  0
  192.4310  175.2720  142.6410 C   0  0  0  0  0  0  0  0  0  0  0  0
  188.0500  174.1870  142.2790 C   0  0  0  0  0  2  0  0  0  0  0  0
  191.6540  176.1650  144.7670 C   0  0  0  0  0  0  0  0  0  0  0  0
  188.4010  173.6300  140.8990 C   0  0  0  0  0  2  0  0  0  0  0  0
  191.0650  174.9130  142.3570 N   0  0  0  0  0  0  0  0  0  0  0  0
  193.0390  176.4800  146.8870 C   0  0  0  0  0  3  0  0  0  0  0  0
  189.1910  176.8860  145.0440 C   0  0  0  0  0  2  0  0  0  0  0  0
  194.7930  176.5700  145.1500 C   0  0  0  0  0  3  0  0  0  0  0  0
  187.7870  176.4160  144.6900 C   0  0  2  0  0  3  0  0  0  0  0  0
  190.2560  176.1540  144.2600 C   0  0  0  0  0  0  0  0  0  0  0  0
  191.8240  176.4110  146.0700 C   0  0  0  0  0  3  0  0  0  0  0  0
  192.7520  175.8580  143.8140 C   0  0  0  0  0  0  0  0  0  0  0  0
  194.1530  176.2670  144.0260 C   0  0  0  0  0  3  0  0  0  0  0  0
  189.8220  173.9610  140.4410 C   0  0  0  0  0  2  0  0  0  0  0  0
  187.5670  176.4710  143.1760 C   0  0  1  0  0  3  0  0  0  0  0  0
  186.7330  177.1500  145.4590 C   0  0  0  0  0  0  0  0  0  0  0  0
  185.4010  176.7910  145.3040 O   0  0  0  0  0  0  0  0  0  0  0  0
  187.0370  178.1070  146.2180 O   0  0  0  0  0  1  0  0  0  0  0  0
  187.5660  177.8630  142.6130 C   0  0  0  0  0  0  0  0  0  0  0  0
  186.4480  178.6800  142.7350 O   0  0  0  0  0  1  0  0  0  0  0  0
  188.5860  178.2910  142.0130 O   0  0  0  0  0  0  0  0  0  0  0  0
  193.4780  175.0080  141.5890 C   0  0  0  0  0  2  0  0  0  0  0  0
  195.7770  173.8490  142.3340 O   0  0  0  0  0  0  0  0  0  0  0  0
  194.3660  173.5030  141.9510 S   0  0  0  0  0  0  0  0  0  0  0  0
  194.3840  172.6260  140.7300 O   0  0  0  0  0  0  0  0  0  0  0  0
  193.5780  172.6460  143.3050 C   0  0  0  0  0  2  0  0  0  0  0  0
  194.5160  172.5180  144.4920 C   0  0  0  0  0  2  0  0  0  0  0  0
  193.8200  172.9640  145.7630 C   0  0  0  0  0  1  0  0  0  0  0  0
  1 10  2  0  0  0  0
  2 14  2  0  0  0  0
  3  6  1  1  0  0  0
  3  2  1  0  0  0  0
  3 19  1  0  0  0  0
  4  9  1  0  0  0  0
  5 16  2  0  0  0  0
  7 15  2  0  0  0  0
  8  6  1  0  0  0  0
  9  5  1  0  0  0  0
  9  2  1  0  0  0  0
 12  1  1  0  0  0  0
 13 11  1  0  0  0  0
 13 20  1  1  0  0  0
 14  7  1  0  0  0  0
 14 11  1  0  0  0  0
 15 10  1  0  0  0  0
 16 17  1  0  0  0  0
 16  7  1  0  0  0  0
 17 12  2  0  0  0  0
 18  8  1  0  0  0  0
 18  4  1  0  0  0  0
 19 23  1  6  0  0  0
 19 13  1  0  0  0  0
 20 22  1  0  0  0  0
 21 20  2  0  0  0  0
 23 24  1  0  0  0  0
 25 23  2  0  0  0  0
 26 28  1  0  0  0  0
 26  5  1  0  0  0  0
 28 27  2  0  0  0  0
 28 30  1  0  0  0  0
 29 28  2  0  0  0  0
 30 31  1  0  0  0  0
 31 32  1  0  0  0  0
M  END
>  <MODEL>
6

>  <REMARK>
 VINA RESULT:      -6.4      1.691      2.378
  Name = 
  6 active torsions:
  status: ('A' for Active; 'I' for Inactive)
    1  A    between atoms: C_1  and  C_22
    2  A    between atoms: C_5  and  C_10
    3  A    between atoms: C_5  and  S_26
    4  A    between atoms: C_6  and  C_32
    5  A    between atoms: C_17  and  C_18
    6  A    between atoms: C_18  and  S_26
                            x       y       z     vdW  Elec       q    Type
                         _______ _______ _______ _____ _____    ______ ____

>  <TORSDO>
F 6

$$$$
=
 OpenBabel11062419053D

 32 35  0  0  1  0  0  0  0  0999 V2000
  195.0140  176.0750  143.9070 N   0  0  0  0  0  0  0  0  0  0  0  0
  189.6910  175.6380  142.3800 C   0  0  0  0  0  0  0  0  0  0  0  0
  188.4010  175.1050  141.7630 C   0  0  1  0  0  3  0  0  0  0  0  0
  188.7020  177.9090  142.9630 C   0  0  0  0  0  2  0  0  0  0  0  0
  190.6920  177.0500  144.1790 C   0  0  0  0  0  0  0  0  0  0  0  0
  187.7740  176.1360  140.8390 C   0  0  0  0  0  2  0  0  0  0  0  0
  192.0930  175.5560  142.8660 C   0  0  0  0  0  0  0  0  0  0  0  0
  186.7800  177.0190  141.5950 C   0  0  0  0  0  2  0  0  0  0  0  0
  189.6410  176.8130  143.2230 N   0  0  0  0  0  0  0  0  0  0  0  0
  194.6430  175.5250  142.7950 C   0  0  0  0  0  3  0  0  0  0  0  0
  191.0100  173.7870  141.3280 C   0  0  0  0  0  2  0  0  0  0  0  0
  194.2370  176.5170  145.0200 C   0  0  0  0  0  3  0  0  0  0  0  0
  189.8660  173.6430  140.3340 C   0  0  2  0  0  3  0  0  0  0  0  0
  190.8850  175.0360  142.1700 C   0  0  0  0  0  0  0  0  0  0  0  0
  193.2800  175.1910  142.3730 C   0  0  0  0  0  3  0  0  0  0  0  0
  191.9030  176.4740  144.0180 C   0  0  0  0  0  0  0  0  0  0  0  0
  192.9210  176.6940  145.0610 C   0  0  0  0  0  3  0  0  0  0  0  0
  187.2570  177.4330  142.9880 C   0  0  0  0  0  2  0  0  0  0  0  0
  188.5170  173.7580  141.0480 C   0  0  1  0  0  3  0  0  0  0  0  0
  189.9850  172.4000  139.5100 C   0  0  0  0  0  0  0  0  0  0  0  0
  189.0050  172.1060  138.5720 O   0  0  0  0  0  0  0  0  0  0  0  0
  190.9460  171.6030  139.6780 O   0  0  0  0  0  1  0  0  0  0  0  0
  188.2320  172.6270  141.9940 C   0  0  0  0  0  0  0  0  0  0  0  0
  189.2680  171.9490  142.6260 O   0  0  0  0  0  1  0  0  0  0  0  0
  187.0410  172.2830  142.2090 O   0  0  0  0  0  0  0  0  0  0  0  0
  190.3970  177.9250  145.3710 C   0  0  0  0  0  2  0  0  0  0  0  0
  190.4360  177.1240  147.9270 O   0  0  0  0  0  0  0  0  0  0  0  0
  189.6270  176.9760  146.6710 S   0  0  0  0  0  0  0  0  0  0  0  0
  189.5840  175.5270  146.2750 O   0  0  0  0  0  0  0  0  0  0  0  0
  187.9700  177.5780  146.9580 C   0  0  0  0  0  2  0  0  0  0  0  0
  186.9560  176.4510  146.8710 C   0  0  0  0  0  2  0  0  0  0  0  0
  185.6400  176.9700  146.3260 C   0  0  0  0  0  1  0  0  0  0  0  0
  1 12  1  0  0  0  0
  2  9  1  0  0  0  0
  3  6  1  6  0  0  0
  3  2  1  0  0  0  0
  4 18  1  0  0  0  0
  4  9  1  0  0  0  0
  5 26  1  0  0  0  0
  6  8  1  0  0  0  0
  7 16  1  0  0  0  0
  8 18  1  0  0  0  0
  9  5  1  0  0  0  0
 10  1  2  0  0  0  0
 11 14  1  0  0  0  0
 12 17  2  0  0  0  0
 13 20  1  1  0  0  0
 13 19  1  0  0  0  0
 13 11  1  0  0  0  0
 14  2  2  0  0  0  0
 14  7  1  0  0  0  0
 15 10  1  0  0  0  0
 15  7  2  0  0  0  0
 16  5  2  0  0  0  0
 16 17  1  0  0  0  0
 19  3  1  0  0  0  0
 19 23  1  1  0  0  0
 20 22  1  0  0  0  0
 21 20  2  0  0  0  0
 23 25  2  0  0  0  0
 23 24  1  0  0  0  0
 26 28  1  0  0  0  0
 28 30  1  0  0  0  0
 28 27  2  0  0  0  0
 29 28  2  0  0  0  0
 31 30  1  0  0  0  0
 32 31  1  0  0  0  0
M  END
>  <MODEL>
7

>  <REMARK>
 VINA RESULT:      -6.3      3.043      5.821
  Name = 
  6 active torsions:
  status: ('A' for Active; 'I' for Inactive)
    1  A    between atoms: C_1  and  C_22
    2  A    between atoms: C_5  and  C_10
    3  A    between atoms: C_5  and  S_26
    4  A    between atoms: C_6  and  C_32
    5  A    between atoms: C_17  and  C_18
    6  A    between atoms: C_18  and  S_26
                            x       y       z     vdW  Elec       q    Type
                         _______ _______ _______ _____ _____    ______ ____

>  <TORSDO>
F 6

$$$$
=
 OpenBabel11062419053D

 32 35  0  0  1  0  0  0  0  0999 V2000
  186.2720  177.5500  144.1820 N   0  0  0  0  0  0  0  0  0  0  0  0
  189.7080  173.5200  142.5050 C   0  0  0  0  0  0  0  0  0  0  0  0
  190.5150  172.5860  141.6070 C   0  0  1  0  0  3  0  0  0  0  0  0
  190.2120  172.2230  144.6350 C   0  0  0  0  0  2  0  0  0  0  0  0
  189.5590  174.6190  144.7420 C   0  0  0  0  0  0  0  0  0  0  0  0
  190.2170  171.1310  141.9290 C   0  0  0  0  0  2  0  0  0  0  0  0
  188.1180  175.3400  142.9190 C   0  0  0  0  0  0  0  0  0  0  0  0
  191.1870  170.5910  142.9810 C   0  0  0  0  0  2  0  0  0  0  0  0
  189.9100  173.4770  143.9370 N   0  0  0  0  0  0  0  0  0  0  0  0
  186.0850  176.8710  143.0950 C   0  0  0  0  0  3  0  0  0  0  0  0
  188.5720  174.5250  140.5110 C   0  0  0  0  0  2  0  0  0  0  0  0
  187.3890  177.5760  145.0710 C   0  0  0  0  0  3  0  0  0  0  0  0
  188.9500  173.2580  139.7570 C   0  0  2  0  0  3  0  0  0  0  0  0
  188.8130  174.4000  141.9990 C   0  0  0  0  0  0  0  0  0  0  0  0
  187.0060  175.9240  142.4610 C   0  0  0  0  0  3  0  0  0  0  0  0
  188.6710  175.5280  144.2850 C   0  0  0  0  0  0  0  0  0  0  0  0
  188.3980  176.7130  145.1180 C   0  0  0  0  0  3  0  0  0  0  0  0
  191.4860  171.5770  144.1110 C   0  0  0  0  0  2  0  0  0  0  0  0
  190.3790  172.8320  140.1030 C   0  0  1  0  0  3  0  0  0  0  0  0
  188.7220  173.3870  138.2830 C   0  0  0  0  0  0  0  0  0  0  0  0
  189.0050  172.3120  137.4520 O   0  0  0  0  0  0  0  0  0  0  0  0
  188.3080  174.4680  137.7860 O   0  0  0  0  0  1  0  0  0  0  0  0
  191.4310  173.7890  139.6240 C   0  0  0  0  0  0  0  0  0  0  0  0
  191.7100  173.9220  138.2690 O   0  0  0  0  0  0  0  0  0  0  0  0
  192.0770  174.4720  140.4610 O   0  0  0  0  0  1  0  0  0  0  0  0
  190.2270  174.7880  146.0820 C   0  0  0  0  0  2  0  0  0  0  0  0
  192.8370  174.1800  146.0610 O   0  0  0  0  0  0  0  0  0  0  0  0
  191.9090  175.3470  145.8780 S   0  0  0  0  0  0  0  0  0  0  0  0
  192.2180  176.3930  146.9130 O   0  0  0  0  0  0  0  0  0  0  0  0
  192.1280  176.0270  144.2420 C   0  0  0  0  0  2  0  0  0  0  0  0
  191.9810  177.5380  144.2520 C   0  0  0  0  0  2  0  0  0  0  0  0
  191.0770  177.9860  143.1210 C   0  0  0  0  0  1  0  0  0  0  0  0
  1 12  1  0  0  0  0
  2  9  1  0  0  0  0
  3  6  1  6  0  0  0
  3  2  1  0  0  0  0
  5 26  1  0  0  0  0
  6  8  1  0  0  0  0
  7 16  1  0  0  0  0
  8 18  1  0  0  0  0
  9  4  1  0  0  0  0
  9  5  1  0  0  0  0
 10  1  2  0  0  0  0
 11 14  1  0  0  0  0
 12 17  2  0  0  0  0
 13 20  1  6  0  0  0
 13 19  1  0  0  0  0
 13 11  1  0  0  0  0
 14  2  2  0  0  0  0
 14  7  1  0  0  0  0
 15  7  2  0  0  0  0
 15 10  1  0  0  0  0
 16  5  2  0  0  0  0
 16 17  1  0  0  0  0
 18  4  1  0  0  0  0
 19 23  1  1  0  0  0
 19  3  1  0  0  0  0
 21 20  2  0  0  0  0
 22 20  1  0  0  0  0
 23 25  1  0  0  0  0
 24 23  2  0  0  0  0
 28 27  2  0  0  0  0
 28 26  1  0  0  0  0
 28 29  2  0  0  0  0
 30 31  1  0  0  0  0
 30 28  1  0  0  0  0
 32 31  1  0  0  0  0
M  END
>  <MODEL>
8

>  <REMARK>
 VINA RESULT:      -6.3      3.101      5.019
  Name = 
  6 active torsions:
  status: ('A' for Active; 'I' for Inactive)
    1  A    between atoms: C_1  and  C_22
    2  A    between atoms: C_5  and  C_10
    3  A    between atoms: C_5  and  S_26
    4  A    between atoms: C_6  and  C_32
    5  A    between atoms: C_17  and  C_18
    6  A    between atoms: C_18  and  S_26
                            x       y       z     vdW  Elec       q    Type
                         _______ _______ _______ _____ _____    ______ ____

>  <TORSDO>
F 6

$$$$
=
 OpenBabel11062419053D

 32 35  0  0  1  0  0  0  0  0999 V2000
  188.0390  174.0470  140.5080 N   0  0  0  0  0  0  0  0  0  0  0  0
  190.9450  175.5150  145.0100 C   0  0  0  0  0  0  0  0  0  0  0  0
  192.0660  175.6130  146.0410 C   0  0  1  0  0  3  0  0  0  0  0  0
  189.2630  176.7900  146.4310 C   0  0  0  0  0  2  0  0  0  0  0  0
  188.9920  176.6660  143.9640 C   0  0  0  0  0  0  0  0  0  0  0  0
  191.5530  175.2850  147.4330 C   0  0  0  0  0  2  0  0  0  0  0  0
  189.9120  174.6490  142.9610 C   0  0  0  0  0  0  0  0  0  0  0  0
  191.0830  176.5470  148.1570 C   0  0  0  0  0  2  0  0  0  0  0  0
  189.7960  176.3870  145.1250 N   0  0  0  0  0  0  0  0  0  0  0  0
  188.8520  173.2420  141.1150 C   0  0  0  0  0  3  0  0  0  0  0  0
  192.1800  173.7200  143.7740 C   0  0  0  0  0  2  0  0  0  0  0  0
  187.8160  175.4450  140.6950 C   0  0  0  0  0  3  0  0  0  0  0  0
  192.9460  173.4690  145.0650 C   0  0  2  0  0  3  0  0  0  0  0  0
  190.9970  174.6400  143.9790 C   0  0  0  0  0  0  0  0  0  0  0  0
  189.7990  173.5660  142.1860 C   0  0  0  0  0  3  0  0  0  0  0  0
  189.0070  175.8260  142.9060 C   0  0  0  0  0  0  0  0  0  0  0  0
  188.2190  176.1930  141.7160 C   0  0  0  0  0  3  0  0  0  0  0  0
  190.3050  177.5170  147.2670 C   0  0  0  0  0  2  0  0  0  0  0  0
  193.3210  174.7940  145.7340 C   0  0  1  0  0  3  0  0  0  0  0  0
  194.1230  172.5680  144.8590 C   0  0  0  0  0  0  0  0  0  0  0  0
  194.7180  172.4970  143.6060 O   0  0  0  0  0  0  0  0  0  0  0  0
  194.5590  171.8490  145.7970 O   0  0  0  0  0  1  0  0  0  0  0  0
  194.3110  175.6100  144.9540 C   0  0  0  0  0  0  0  0  0  0  0  0
  195.6770  175.4110  145.1100 O   0  0  0  0  0  1  0  0  0  0  0  0
  193.8970  176.4920  144.1580 O   0  0  0  0  0  0  0  0  0  0  0  0
  188.1650  177.9260  143.9460 C   0  0  0  0  0  2  0  0  0  0  0  0
  186.4520  176.3050  145.2190 O   0  0  0  0  0  0  0  0  0  0  0  0
  186.4810  177.5780  144.4220 S   0  0  0  0  0  0  0  0  0  0  0  0
  185.6360  177.4100  143.1890 O   0  0  0  0  0  0  0  0  0  0  0  0
  185.8440  178.9150  145.4190 C   0  0  0  0  0  2  0  0  0  0  0  0
  185.3170  178.4050  146.7480 C   0  0  0  0  0  2  0  0  0  0  0  0
  186.3220  178.6780  147.8500 C   0  0  0  0  0  1  0  0  0  0  0  0
  1 12  1  0  0  0  0
  1 10  2  0  0  0  0
  2  9  1  0  0  0  0
  2  3  1  0  0  0  0
  3  6  1  1  0  0  0
  4 18  1  0  0  0  0
  5  9  1  0  0  0  0
  6  8  1  0  0  0  0
  7 14  1  0  0  0  0
  9  4  1  0  0  0  0
 10 15  1  0  0  0  0
 11 14  1  0  0  0  0
 11 13  1  0  0  0  0
 12 17  2  0  0  0  0
 13 20  1  6  0  0  0
 13 19  1  0  0  0  0
 14  2  2  0  0  0  0
 15  7  2  0  0  0  0
 16  7  1  0  0  0  0
 16  5  2  0  0  0  0
 17 16  1  0  0  0  0
 18  8  1  0  0  0  0
 19 23  1  6  0  0  0
 19  3  1  0  0  0  0
 20 22  1  0  0  0  0
 21 20  2  0  0  0  0
 23 24  1  0  0  0  0
 25 23  2  0  0  0  0
 26  5  1  0  0  0  0
 26 28  1  0  0  0  0
 28 27  2  0  0  0  0
 28 30  1  0  0  0  0
 29 28  2  0  0  0  0
 30 31  1  0  0  0  0
 31 32  1  0  0  0  0
M  END
>  <MODEL>
9

>  <REMARK>
 VINA RESULT:      -6.2      2.586      7.582
  Name = 
  6 active torsions:
  status: ('A' for Active; 'I' for Inactive)
    1  A    between atoms: C_1  and  C_22
    2  A    between atoms: C_5  and  C_10
    3  A    between atoms: C_5  and  S_26
    4  A    between atoms: C_6  and  C_32
    5  A    between atoms: C_17  and  C_18
    6  A    between atoms: C_18  and  S_26
                            x       y       z     vdW  Elec       q    Type
                         _______ _______ _______ _____ _____    ______ ____

>  <TORSDO>
F 6

$$$$
