=
 OpenBabel11062422173D

 41 44  0  0  1  0  0  0  0  0999 V2000
  190.8750  173.4320  142.4070 C   0  0  1  0  0  3  0  0  0  0  0  0
  190.2490  171.1500  142.2630 N   0  0  0  0  0  0  0  0  0  0  0  0
  191.7930  172.5810  143.2310 C   0  0  0  0  0  0  0  0  0  0  0  0
  188.7480  174.6410  142.8000 C   0  0  0  0  0  3  0  0  0  0  0  0
  192.1140  170.2150  143.6390 C   0  0  0  0  0  3  0  0  0  0  0  0
  193.0060  172.8980  143.8620 C   0  0  0  0  0  0  0  0  0  0  0  0
  188.6660  172.6850  141.3760 N   0  0  0  0  0  0  0  0  0  0  0  0
  189.9630  172.3520  141.8740 C   0  0  0  0  0  0  0  0  0  0  0  0
  191.4010  171.2700  143.0770 C   0  0  0  0  0  0  0  0  0  0  0  0
  188.0920  173.7760  141.7900 C   0  0  0  0  0  3  0  0  0  0  0  0
  190.0280  174.4420  143.1620 C   0  0  0  0  0  0  0  0  0  0  0  0
  193.2830  170.5140  144.3550 C   0  0  0  0  0  0  0  0  0  0  0  0
  193.7430  171.8420  144.4370 C   0  0  0  0  0  3  0  0  0  0  0  0
  193.5950  174.2740  143.7700 C   0  0  2  0  0  3  0  0  0  0  0  0
  194.1990  174.4230  142.5200 O   0  0  0  0  0  1  0  0  0  0  0  0
  194.6120  174.5360  144.8870 C   0  0  2  0  0  3  0  0  0  0  0  0
  194.1260  175.5120  145.7600 O   0  0  0  0  0  1  0  0  0  0  0  0
  195.9780  174.9460  144.3340 C   0  0  2  0  0  3  0  0  0  0  0  0
  197.7290  173.1940  144.5830 C   0  0  0  0  0  2  0  0  0  0  0  0
  196.7170  173.0140  145.6950 C   0  0  0  0  0  2  0  0  0  0  0  0
  197.0870  174.4070  145.2270 C   0  0  0  0  0  3  0  0  0  0  0  0
  196.0730  176.3380  144.2370 O   0  0  0  0  0  0  0  0  0  0  0  0
  196.8930  176.5690  143.1340 C   0  0  0  0  0  1  0  0  0  0  0  0
  193.1650  168.1720  145.4580 O   0  0  0  0  0  0  0  0  0  0  0  0
  194.2200  169.2090  145.0980 S   0  0  0  0  0  3  0  0  0  0  0  0
  190.6320  175.3230  144.2070 C   0  0  0  0  0  2  0  0  0  0  0  0
  189.7270  175.4290  145.4270 C   0  0  0  0  0  2  0  0  0  0  0  0
  190.1980  177.8050  144.8640 C   0  0  0  0  0  1  0  0  0  0  0  0
  189.3040  176.8710  145.6690 C   0  0  1  0  0  3  0  0  0  0  0  0
  186.9380  178.3490  143.2900 C   0  0  0  0  0  0  0  0  0  0  0  0
  187.8300  177.0770  145.4020 C   0  0  0  0  0  0  0  0  0  0  0  0
  187.3950  177.7070  144.3380 C   0  0  0  0  0  0  0  0  0  0  0  0
  188.7470  178.0560  141.7980 O   0  0  0  0  0  1  0  0  0  0  0  0
  186.6650  177.8100  140.8740 O   0  0  0  0  0  0  0  0  0  0  0  0
  187.4980  178.0700  141.9590 C   0  0  0  0  0  0  0  0  0  0  0  0
  186.3870  177.6090  147.3420 C   0  0  0  0  0  1  0  0  0  0  0  0
  186.8160  176.5370  146.3560 C   0  0  0  0  0  2  0  0  0  0  0  0
  185.8800  179.2680  143.3990 O   0  0  0  0  0  0  0  0  0  0  0  0
  184.5730  178.9560  143.8030 C   0  0  0  0  0  0  0  0  0  0  0  0
  184.1490  179.2800  144.9440 O   0  0  0  0  0  1  0  0  0  0  0  0
  183.7130  178.3390  142.9060 O   0  0  0  0  0  0  0  0  0  0  0  0
  1  8  1  1  0  0  0
  1 11  1  0  0  0  0
  1  3  1  0  0  0  0
  2  9  1  0  0  0  0
  3  6  1  0  0  0  0
  4 11  2  0  0  0  0
  5 12  2  0  0  0  0
  6 13  2  0  0  0  0
  7 10  2  0  0  0  0
  7  8  1  0  0  0  0
  8  2  2  0  0  0  0
  9  3  2  0  0  0  0
  9  5  1  0  0  0  0
 10  4  1  0  0  0  0
 11 26  1  0  0  0  0
 12 13  1  0  0  0  0
 12 25  1  0  0  0  0
 14 15  1  6  0  0  0
 14  6  1  0  0  0  0
 14 16  1  0  0  0  0
 16 17  1  1  0  0  0
 18 22  1  1  0  0  0
 18 16  1  0  0  0  0
 18 21  1  0  0  0  0
 19 21  1  0  0  0  0
 19 20  1  0  0  0  0
 21 20  1  0  0  0  0
 23 22  1  0  0  0  0
 25 24  2  0  0  0  0
 26 27  1  0  0  0  0
 27 29  1  0  0  0  0
 29 28  1  6  0  0  0
 30 38  1  0  0  0  0
 30 32  2  0  0  0  0
 31 29  1  0  0  0  0
 31 37  1  0  0  0  0
 32 31  2  0  0  0  0
 33 35  1  0  0  0  0
 34 35  2  0  0  0  0
 35 30  1  0  0  0  0
 37 36  1  0  0  0  0
 38 39  1  0  0  0  0
 39 40  1  0  0  0  0
 41 39  2  0  0  0  0
M  END
>  <MODEL>
1

>  <REMARK>
 VINA RESULT:      -6.8      0.000      0.000
  Name = 
  14 active torsions:
  status: ('A' for Active; 'I' for Inactive)
    1  A    between atoms: C_4  and  C_9
    2  A    between atoms: C_4  and  C_18
    3  A    between atoms: O_6  and  C_14
    4  A    between atoms: C_9  and  C_14
    5  A    between atoms: C_12  and  O_35
    6  A    between atoms: C_14  and  C_30
    7  A    between atoms: C_20  and  O_35
    8  A    between atoms: C_20  and  C_39
    9  A    between atoms: C_21  and  C_34
   10  A    between atoms: C_21  and  C_36
   11  A    between atoms: C_22  and  C_25
   12  A    between atoms: C_22  and  C_37
   13  A    between atoms: C_25  and  C_36
   14  A    between atoms: S_33  and  C_38
                            x       y       z     vdW  Elec       q    Type
                         _______ _______ _______ _____ _____    ______ ____

>  <TORSDO>
F 14

$$$$
=
 OpenBabel11062422173D

 41 44  0  0  1  0  0  0  0  0999 V2000
  193.0290  175.0960  146.4720 C   0  0  1  0  0  3  0  0  0  0  0  0
  194.2130  177.1470  146.3520 N   0  0  0  0  0  0  0  0  0  0  0  0
  193.9120  175.1250  145.2620 C   0  0  0  0  0  0  0  0  0  0  0  0
  190.6930  175.7500  146.9780 C   0  0  0  0  0  3  0  0  0  0  0  0
  195.5750  176.6170  144.3250 C   0  0  0  0  0  3  0  0  0  0  0  0
  194.2660  174.1010  144.3700 C   0  0  0  0  0  0  0  0  0  0  0  0
  192.4570  177.0900  147.9540 N   0  0  0  0  0  0  0  0  0  0  0  0
  193.3510  176.4610  147.0340 C   0  0  0  0  0  0  0  0  0  0  0  0
  194.5960  176.3200  145.2690 C   0  0  0  0  0  0  0  0  0  0  0  0
  191.2030  176.7460  147.9520 C   0  0  0  0  0  3  0  0  0  0  0  0
  191.5330  175.0260  146.2170 C   0  0  0  0  0  0  0  0  0  0  0  0
  195.8830  175.6430  143.3640 C   0  0  0  0  0  0  0  0  0  0  0  0
  195.2580  174.3830  143.4060 C   0  0  0  0  0  3  0  0  0  0  0  0
  193.7530  172.7030  144.5450 C   0  0  2  0  0  3  0  0  0  0  0  0
  193.9010  172.3330  145.8830 O   0  0  0  0  0  1  0  0  0  0  0  0
  194.4810  171.7090  143.6330 C   0  0  2  0  0  3  0  0  0  0  0  0
  193.6050  171.2160  142.6620 O   0  0  0  0  0  1  0  0  0  0  0  0
  195.1050  170.5570  144.4240 C   0  0  2  0  0  3  0  0  0  0  0  0
  197.3130  170.3170  145.5480 C   0  0  0  0  0  2  0  0  0  0  0  0
  197.2280  171.7110  144.9620 C   0  0  0  0  0  2  0  0  0  0  0  0
  196.6140  170.5400  144.2210 C   0  0  0  0  0  3  0  0  0  0  0  0
  194.5530  169.3330  144.0300 O   0  0  0  0  0  0  0  0  0  0  0  0
  193.9680  168.8120  145.1830 C   0  0  0  0  0  1  0  0  0  0  0  0
  196.4400  175.5620  140.8340 O   0  0  0  0  0  0  0  0  0  0  0  0
  197.1140  175.9760  142.1350 S   0  0  0  0  0  3  0  0  0  0  0  0
  190.9660  174.0570  145.2300 C   0  0  0  0  0  2  0  0  0  0  0  0
  189.5760  174.4830  144.7780 C   0  0  0  0  0  2  0  0  0  0  0  0
  188.7460  174.8350  142.4600 C   0  0  0  0  0  1  0  0  0  0  0  0
  189.6530  175.3850  143.5540 C   0  0  1  0  0  3  0  0  0  0  0  0
  187.0930  177.6070  144.9510 C   0  0  0  0  0  0  0  0  0  0  0  0
  189.3650  176.8290  143.8990 C   0  0  0  0  0  0  0  0  0  0  0  0
  188.2290  177.2050  144.4330 C   0  0  0  0  0  0  0  0  0  0  0  0
  185.2390  176.6990  146.1000 O   0  0  0  0  0  0  0  0  0  0  0  0
  187.2790  176.3020  147.0640 O   0  0  0  0  0  1  0  0  0  0  0  0
  186.4880  176.8550  146.0610 C   0  0  0  0  0  0  0  0  0  0  0  0
  191.6880  177.2450  143.1510 C   0  0  0  0  0  1  0  0  0  0  0  0
  190.4010  177.8760  143.6540 C   0  0  0  0  0  2  0  0  0  0  0  0
  186.4590  178.7790  144.5030 O   0  0  0  0  0  0  0  0  0  0  0  0
  185.5930  178.8620  143.4030 C   0  0  0  0  0  0  0  0  0  0  0  0
  186.0340  178.8360  142.2230 O   0  0  0  0  0  0  0  0  0  0  0  0
  184.2230  178.9070  143.6180 O   0  0  0  0  0  1  0  0  0  0  0  0
  1  3  1  6  0  0  0
  1  8  1  0  0  0  0
  2  8  2  0  0  0  0
  3  9  1  0  0  0  0
  4 10  1  0  0  0  0
  5  9  2  0  0  0  0
  6 14  1  0  0  0  0
  6  3  2  0  0  0  0
  8  7  1  0  0  0  0
  9  2  1  0  0  0  0
 10  7  2  0  0  0  0
 11  1  1  0  0  0  0
 11  4  2  0  0  0  0
 12 13  2  0  0  0  0
 12  5  1  0  0  0  0
 13  6  1  0  0  0  0
 14 15  1  1  0  0  0
 16 17  1  6  0  0  0
 16 18  1  0  0  0  0
 16 14  1  0  0  0  0
 18 22  1  6  0  0  0
 20 19  1  0  0  0  0
 21 18  1  0  0  0  0
 21 20  1  0  0  0  0
 21 19  1  0  0  0  0
 22 23  1  0  0  0  0
 24 25  2  0  0  0  0
 25 12  1  0  0  0  0
 26 11  1  0  0  0  0
 27 26  1  0  0  0  0
 29 28  1  6  0  0  0
 29 31  1  0  0  0  0
 29 27  1  0  0  0  0
 30 35  1  0  0  0  0
 31 32  2  0  0  0  0
 32 30  2  0  0  0  0
 35 33  2  0  0  0  0
 35 34  1  0  0  0  0
 36 37  1  0  0  0  0
 37 31  1  0  0  0  0
 38 30  1  0  0  0  0
 39 41  1  0  0  0  0
 39 38  1  0  0  0  0
 40 39  2  0  0  0  0
M  END
>  <MODEL>
2

>  <REMARK>
 VINA RESULT:      -6.6      2.981      5.091
  Name = 
  14 active torsions:
  status: ('A' for Active; 'I' for Inactive)
    1  A    between atoms: C_4  and  C_9
    2  A    between atoms: C_4  and  C_18
    3  A    between atoms: O_6  and  C_14
    4  A    between atoms: C_9  and  C_14
    5  A    between atoms: C_12  and  O_35
    6  A    between atoms: C_14  and  C_30
    7  A    between atoms: C_20  and  O_35
    8  A    between atoms: C_20  and  C_39
    9  A    between atoms: C_21  and  C_34
   10  A    between atoms: C_21  and  C_36
   11  A    between atoms: C_22  and  C_25
   12  A    between atoms: C_22  and  C_37
   13  A    between atoms: C_25  and  C_36
   14  A    between atoms: S_33  and  C_38
                            x       y       z     vdW  Elec       q    Type
                         _______ _______ _______ _____ _____    ______ ____

>  <TORSDO>
F 14

$$$$
=
 OpenBabel11062422173D

 41 44  0  0  1  0  0  0  0  0999 V2000
  190.8750  172.9980  141.6000 C   0  0  1  0  0  3  0  0  0  0  0  0
  190.8600  170.7890  140.7410 N   0  0  0  0  0  0  0  0  0  0  0  0
  191.7170  172.0970  142.4510 C   0  0  0  0  0  0  0  0  0  0  0  0
  188.4970  173.6970  141.5700 C   0  0  0  0  0  3  0  0  0  0  0  0
  192.4630  169.7940  142.3800 C   0  0  0  0  0  3  0  0  0  0  0  0
  192.6120  172.4000  143.4880 C   0  0  0  0  0  0  0  0  0  0  0  0
  189.2520  172.2520  139.7810 N   0  0  0  0  0  0  0  0  0  0  0  0
  190.4130  171.9930  140.5720 C   0  0  0  0  0  0  0  0  0  0  0  0
  191.6970  170.8430  141.8820 C   0  0  0  0  0  0  0  0  0  0  0  0
  188.3510  173.0730  140.2320 C   0  0  0  0  0  3  0  0  0  0  0  0
  189.6480  173.6020  142.2610 C   0  0  0  0  0  0  0  0  0  0  0  0
  193.2990  170.0490  143.4770 C   0  0  0  0  0  0  0  0  0  0  0  0
  193.3980  171.3490  144.0060 C   0  0  0  0  0  3  0  0  0  0  0  0
  192.8660  173.8170  143.9090 C   0  0  2  0  0  3  0  0  0  0  0  0
  193.7230  174.4160  142.9830 O   0  0  0  0  0  1  0  0  0  0  0  0
  193.4650  173.8960  145.3180 C   0  0  2  0  0  3  0  0  0  0  0  0
  192.4670  174.1920  146.2490 O   0  0  0  0  0  1  0  0  0  0  0  0
  194.5970  174.9230  145.4020 C   0  0  2  0  0  3  0  0  0  0  0  0
  196.9580  174.2500  144.9930 C   0  0  0  0  0  2  0  0  0  0  0  0
  196.1510  173.0000  145.2750 C   0  0  0  0  0  2  0  0  0  0  0  0
  195.8370  174.2860  146.0130 C   0  0  0  0  0  3  0  0  0  0  0  0
  194.2010  176.0300  146.1600 O   0  0  0  0  0  0  0  0  0  0  0  0
  194.3650  177.1260  145.3140 C   0  0  0  0  0  1  0  0  0  0  0  0
  193.8130  168.6510  145.5990 O   0  0  0  0  0  0  0  0  0  0  0  0
  194.2870  168.7440  144.1550 S   0  0  0  0  0  3  0  0  0  0  0  0
  189.7320  174.2230  143.6180 C   0  0  0  0  0  2  0  0  0  0  0  0
  189.5540  175.7330  143.5440 C   0  0  0  0  0  2  0  0  0  0  0  0
  190.6200  177.6070  144.7840 C   0  0  0  0  0  1  0  0  0  0  0  0
  189.7360  176.3730  144.9130 C   0  0  1  0  0  3  0  0  0  0  0  0
  186.6200  178.2710  144.5580 C   0  0  0  0  0  0  0  0  0  0  0  0
  188.4100  176.6540  145.5840 C   0  0  0  0  0  0  0  0  0  0  0  0
  187.5190  177.4580  145.0570 C   0  0  0  0  0  0  0  0  0  0  0  0
  187.1320  178.5400  142.2670 O   0  0  0  0  0  0  0  0  0  0  0  0
  185.0300  177.7460  142.7150 O   0  0  0  0  0  1  0  0  0  0  0  0
  186.2800  178.1980  143.1290 C   0  0  0  0  0  0  0  0  0  0  0  0
  189.0850  174.9050  147.2000 C   0  0  0  0  0  1  0  0  0  0  0  0
  188.0730  175.9900  146.8780 C   0  0  0  0  0  2  0  0  0  0  0  0
  185.9280  179.1850  145.3720 O   0  0  0  0  0  0  0  0  0  0  0  0
  184.8350  178.8730  146.1940 C   0  0  0  0  0  0  0  0  0  0  0  0
  183.6700  178.7810  145.7230 O   0  0  0  0  0  0  0  0  0  0  0  0
  185.0510  178.5940  147.5360 O   0  0  0  0  0  1  0  0  0  0  0  0
  1  8  1  6  0  0  0
  1 11  1  0  0  0  0
  1  3  1  0  0  0  0
  2  9  1  0  0  0  0
  3  6  1  0  0  0  0
  4 11  2  0  0  0  0
  5 12  2  0  0  0  0
  6 14  1  0  0  0  0
  6 13  2  0  0  0  0
  7 10  2  0  0  0  0
  7  8  1  0  0  0  0
  8  2  2  0  0  0  0
  9  5  1  0  0  0  0
  9  3  2  0  0  0  0
 10  4  1  0  0  0  0
 11 26  1  0  0  0  0
 12 13  1  0  0  0  0
 12 25  1  0  0  0  0
 14 15  1  6  0  0  0
 14 16  1  0  0  0  0
 16 18  1  0  0  0  0
 16 17  1  1  0  0  0
 18 21  1  0  0  0  0
 18 22  1  1  0  0  0
 19 20  1  0  0  0  0
 19 21  1  0  0  0  0
 20 21  1  0  0  0  0
 23 22  1  0  0  0  0
 25 24  2  0  0  0  0
 27 26  1  0  0  0  0
 27 29  1  0  0  0  0
 29 28  1  6  0  0  0
 29 31  1  0  0  0  0
 30 32  2  0  0  0  0
 30 38  1  0  0  0  0
 31 37  1  0  0  0  0
 32 31  2  0  0  0  0
 33 35  2  0  0  0  0
 34 35  1  0  0  0  0
 35 30  1  0  0  0  0
 37 36  1  0  0  0  0
 38 39  1  0  0  0  0
 39 41  1  0  0  0  0
 40 39  2  0  0  0  0
M  END
>  <MODEL>
3

>  <REMARK>
 VINA RESULT:      -6.6      1.348      1.790
  Name = 
  14 active torsions:
  status: ('A' for Active; 'I' for Inactive)
    1  A    between atoms: C_4  and  C_9
    2  A    between atoms: C_4  and  C_18
    3  A    between atoms: O_6  and  C_14
    4  A    between atoms: C_9  and  C_14
    5  A    between atoms: C_12  and  O_35
    6  A    between atoms: C_14  and  C_30
    7  A    between atoms: C_20  and  O_35
    8  A    between atoms: C_20  and  C_39
    9  A    between atoms: C_21  and  C_34
   10  A    between atoms: C_21  and  C_36
   11  A    between atoms: C_22  and  C_25
   12  A    between atoms: C_22  and  C_37
   13  A    between atoms: C_25  and  C_36
   14  A    between atoms: S_33  and  C_38
                            x       y       z     vdW  Elec       q    Type
                         _______ _______ _______ _____ _____    ______ ____

>  <TORSDO>
F 14

$$$$
=
 OpenBabel11062422173D

 41 44  0  0  1  0  0  0  0  0999 V2000
  186.7900  178.3730  145.1700 C   0  0  1  0  0  3  0  0  0  0  0  0
  184.5170  179.0370  145.2790 N   0  0  0  0  0  0  0  0  0  0  0  0
  186.0920  178.0750  143.8780 C   0  0  0  0  0  0  0  0  0  0  0  0
  187.1890  177.1550  147.2910 C   0  0  0  0  0  3  0  0  0  0  0  0
  183.9020  178.4730  142.9230 C   0  0  0  0  0  3  0  0  0  0  0  0
  186.6090  177.6790  142.6350 C   0  0  0  0  0  0  0  0  0  0  0  0
  185.6660  179.0360  147.3600 N   0  0  0  0  0  0  0  0  0  0  0  0
  185.6340  178.9740  145.9330 C   0  0  0  0  0  0  0  0  0  0  0  0
  184.7930  178.5150  143.9920 C   0  0  0  0  0  0  0  0  0  0  0  0
  186.4150  178.1950  148.0120 C   0  0  0  0  0  3  0  0  0  0  0  0
  187.3080  177.1770  145.9510 C   0  0  0  0  0  0  0  0  0  0  0  0
  184.3700  177.9930  141.6920 C   0  0  0  0  0  0  0  0  0  0  0  0
  185.7210  177.6310  141.5400 C   0  0  0  0  0  3  0  0  0  0  0  0
  188.0830  177.4930  142.4270 C   0  0  2  0  0  3  0  0  0  0  0  0
  188.6060  178.6510  141.8480 O   0  0  0  0  0  1  0  0  0  0  0  0
  188.3860  176.2740  141.5490 C   0  0  2  0  0  3  0  0  0  0  0  0
  187.4890  176.2160  140.4800 O   0  0  0  0  0  1  0  0  0  0  0  0
  188.3500  174.9690  142.3480 C   0  0  2  0  0  3  0  0  0  0  0  0
  190.4590  173.9160  143.1510 C   0  0  0  0  0  2  0  0  0  0  0  0
  190.8080  174.9000  142.0540 C   0  0  0  0  0  2  0  0  0  0  0  0
  189.5310  174.0880  141.9640 C   0  0  0  0  0  3  0  0  0  0  0  0
  187.1490  174.2880  142.1250 O   0  0  0  0  0  0  0  0  0  0  0  0
  187.5250  172.9770  141.8340 C   0  0  0  0  0  1  0  0  0  0  0  0
  181.8950  178.0850  140.9270 O   0  0  0  0  0  0  0  0  0  0  0  0
  183.2730  177.9100  140.3040 S   0  0  0  0  0  3  0  0  0  0  0  0
  188.0740  176.0880  145.2730 C   0  0  0  0  0  2  0  0  0  0  0  0
  189.0960  175.4660  146.2140 C   0  0  0  0  0  2  0  0  0  0  0  0
  190.8910  175.9890  147.8540 C   0  0  0  0  0  1  0  0  0  0  0  0
  190.1630  176.4780  146.6080 C   0  0  1  0  0  3  0  0  0  0  0  0
  193.4820  175.7380  145.2390 C   0  0  0  0  0  0  0  0  0  0  0  0
  191.0920  176.7930  145.4570 C   0  0  0  0  0  0  0  0  0  0  0  0
  192.2820  176.2530  145.3540 C   0  0  0  0  0  0  0  0  0  0  0  0
  194.8530  173.8590  145.6590 O   0  0  0  0  0  1  0  0  0  0  0  0
  192.6100  173.4200  145.4960 O   0  0  0  0  0  0  0  0  0  0  0  0
  193.6880  174.3010  145.4710 C   0  0  0  0  0  0  0  0  0  0  0  0
  191.8330  178.1270  143.5090 C   0  0  0  0  0  1  0  0  0  0  0  0
  190.6550  177.7300  144.3800 C   0  0  0  0  0  2  0  0  0  0  0  0
  194.5800  176.5240  144.8460 O   0  0  0  0  0  0  0  0  0  0  0  0
  195.3440  176.3260  143.6860 C   0  0  0  0  0  0  0  0  0  0  0  0
  196.5940  176.1750  143.7460 O   0  0  0  0  0  1  0  0  0  0  0  0
  194.7040  176.2280  142.4590 O   0  0  0  0  0  0  0  0  0  0  0  0
  1  3  1  6  0  0  0
  1  8  1  0  0  0  0
  1 11  1  0  0  0  0
  2  8  2  0  0  0  0
  3  9  1  0  0  0  0
  4 10  1  0  0  0  0
  5  9  2  0  0  0  0
  6  3  2  0  0  0  0
  7 10  2  0  0  0  0
  8  7  1  0  0  0  0
  9  2  1  0  0  0  0
 11  4  2  0  0  0  0
 12  5  1  0  0  0  0
 13 12  2  0  0  0  0
 13  6  1  0  0  0  0
 14 15  1  6  0  0  0
 14  6  1  0  0  0  0
 16 17  1  6  0  0  0
 16 18  1  0  0  0  0
 16 14  1  0  0  0  0
 18 22  1  6  0  0  0
 20 19  1  0  0  0  0
 21 20  1  0  0  0  0
 21 18  1  0  0  0  0
 21 19  1  0  0  0  0
 23 22  1  0  0  0  0
 25 24  2  0  0  0  0
 25 12  1  0  0  0  0
 26 11  1  0  0  0  0
 26 27  1  0  0  0  0
 27 29  1  0  0  0  0
 29 28  1  1  0  0  0
 30 32  2  0  0  0  0
 30 35  1  0  0  0  0
 31 29  1  0  0  0  0
 32 31  2  0  0  0  0
 35 34  2  0  0  0  0
 35 33  1  0  0  0  0
 36 37  1  0  0  0  0
 37 31  1  0  0  0  0
 38 30  1  0  0  0  0
 39 40  1  0  0  0  0
 39 38  1  0  0  0  0
 41 39  2  0  0  0  0
M  END
>  <MODEL>
4

>  <REMARK>
 VINA RESULT:      -6.5      3.805      8.610
  Name = 
  14 active torsions:
  status: ('A' for Active; 'I' for Inactive)
    1  A    between atoms: C_4  and  C_9
    2  A    between atoms: C_4  and  C_18
    3  A    between atoms: O_6  and  C_14
    4  A    between atoms: C_9  and  C_14
    5  A    between atoms: C_12  and  O_35
    6  A    between atoms: C_14  and  C_30
    7  A    between atoms: C_20  and  O_35
    8  A    between atoms: C_20  and  C_39
    9  A    between atoms: C_21  and  C_34
   10  A    between atoms: C_21  and  C_36
   11  A    between atoms: C_22  and  C_25
   12  A    between atoms: C_22  and  C_37
   13  A    between atoms: C_25  and  C_36
   14  A    between atoms: S_33  and  C_38
                            x       y       z     vdW  Elec       q    Type
                         _______ _______ _______ _____ _____    ______ ____

>  <TORSDO>
F 14

$$$$
=
 OpenBabel11062422173D

 41 44  0  0  1  0  0  0  0  0999 V2000
  186.6950  178.4990  145.3080 C   0  0  1  0  0  3  0  0  0  0  0  0
  184.5000  179.3610  145.5440 N   0  0  0  0  0  0  0  0  0  0  0  0
  185.8730  178.1840  144.0950 C   0  0  0  0  0  0  0  0  0  0  0  0
  187.1660  177.3820  147.4700 C   0  0  0  0  0  3  0  0  0  0  0  0
  183.6520  178.7100  143.2850 C   0  0  0  0  0  3  0  0  0  0  0  0
  186.2530  177.6710  142.8460 C   0  0  0  0  0  0  0  0  0  0  0  0
  185.8090  179.3870  147.5280 N   0  0  0  0  0  0  0  0  0  0  0  0
  185.6570  179.2420  146.1150 C   0  0  0  0  0  0  0  0  0  0  0  0
  184.6270  178.7400  144.2780 C   0  0  0  0  0  0  0  0  0  0  0  0
  186.5390  178.5260  148.1760 C   0  0  0  0  0  3  0  0  0  0  0  0
  187.1760  177.3130  146.1260 C   0  0  0  0  0  0  0  0  0  0  0  0
  183.9780  178.1180  142.0560 C   0  0  0  0  0  0  0  0  0  0  0  0
  185.2790  177.6330  141.8270 C   0  0  0  0  0  3  0  0  0  0  0  0
  187.6860  177.3470  142.5400 C   0  0  2  0  0  3  0  0  0  0  0  0
  188.2320  178.3880  141.7860 O   0  0  0  0  0  1  0  0  0  0  0  0
  187.8230  176.0170  141.7910 C   0  0  2  0  0  3  0  0  0  0  0  0
  187.0360  175.0380  142.4020 O   0  0  0  0  0  1  0  0  0  0  0  0
  189.2800  175.5550  141.7070 C   0  0  2  0  0  3  0  0  0  0  0  0
  190.3250  173.7390  140.3620 C   0  0  0  0  0  2  0  0  0  0  0  0
  188.8380  173.7480  140.0720 C   0  0  0  0  0  2  0  0  0  0  0  0
  189.3390  174.0520  141.4700 C   0  0  0  0  0  3  0  0  0  0  0  0
  189.9700  175.8850  142.8770 O   0  0  0  0  0  0  0  0  0  0  0  0
  191.2510  176.2380  142.4550 C   0  0  0  0  0  1  0  0  0  0  0  0
  183.5320  177.4360  139.5950 O   0  0  0  0  0  0  0  0  0  0  0  0
  182.7700  178.0450  140.7640 S   0  0  0  0  0  3  0  0  0  0  0  0
  187.7940  176.1230  145.4660 C   0  0  0  0  0  2  0  0  0  0  0  0
  188.6690  175.3460  146.4400 C   0  0  0  0  0  2  0  0  0  0  0  0
  190.7100  176.2000  147.5750 C   0  0  0  0  0  1  0  0  0  0  0  0
  190.1380  175.6980  146.2550 C   0  0  1  0  0  3  0  0  0  0  0  0
  193.4840  174.7110  145.1270 C   0  0  0  0  0  0  0  0  0  0  0  0
  190.9220  174.5490  145.6630 C   0  0  0  0  0  0  0  0  0  0  0  0
  192.2050  174.6380  145.4070 C   0  0  0  0  0  0  0  0  0  0  0  0
  194.0920  176.3590  146.7080 O   0  0  0  0  0  1  0  0  0  0  0  0
  195.6440  174.7080  146.3660 O   0  0  0  0  0  0  0  0  0  0  0  0
  194.4140  175.3040  146.0990 C   0  0  0  0  0  0  0  0  0  0  0  0
  190.9770  172.5000  144.2760 C   0  0  0  0  0  1  0  0  0  0  0  0
  190.2420  173.2530  145.3700 C   0  0  0  0  0  2  0  0  0  0  0  0
  194.0020  174.1840  143.9300 O   0  0  0  0  0  0  0  0  0  0  0  0
  194.9050  174.8400  143.0810 C   0  0  0  0  0  0  0  0  0  0  0  0
  194.7270  176.0410  142.7430 O   0  0  0  0  0  1  0  0  0  0  0  0
  196.0470  174.1750  142.6590 O   0  0  0  0  0  0  0  0  0  0  0  0
  1  3  1  6  0  0  0
  1  8  1  0  0  0  0
  1 11  1  0  0  0  0
  2  8  2  0  0  0  0
  3  9  1  0  0  0  0
  4 10  1  0  0  0  0
  5  9  2  0  0  0  0
  6  3  2  0  0  0  0
  7 10  2  0  0  0  0
  8  7  1  0  0  0  0
  9  2  1  0  0  0  0
 11  4  2  0  0  0  0
 12  5  1  0  0  0  0
 13 12  2  0  0  0  0
 13  6  1  0  0  0  0
 14 15  1  6  0  0  0
 14  6  1  0  0  0  0
 16 17  1  1  0  0  0
 16 14  1  0  0  0  0
 18 16  1  0  0  0  0
 18 22  1  1  0  0  0
 19 21  1  0  0  0  0
 20 19  1  0  0  0  0
 20 21  1  0  0  0  0
 21 18  1  0  0  0  0
 23 22  1  0  0  0  0
 24 25  2  0  0  0  0
 25 12  1  0  0  0  0
 26 11  1  0  0  0  0
 26 27  1  0  0  0  0
 29 27  1  0  0  0  0
 29 28  1  1  0  0  0
 30 32  2  0  0  0  0
 30 35  1  0  0  0  0
 31 29  1  0  0  0  0
 32 31  2  0  0  0  0
 35 34  2  0  0  0  0
 35 33  1  0  0  0  0
 36 37  1  0  0  0  0
 37 31  1  0  0  0  0
 38 30  1  0  0  0  0
 39 38  1  0  0  0  0
 40 39  1  0  0  0  0
 41 39  2  0  0  0  0
M  END
>  <MODEL>
5

>  <REMARK>
 VINA RESULT:      -6.4      3.922      8.703
  Name = 
  14 active torsions:
  status: ('A' for Active; 'I' for Inactive)
    1  A    between atoms: C_4  and  C_9
    2  A    between atoms: C_4  and  C_18
    3  A    between atoms: O_6  and  C_14
    4  A    between atoms: C_9  and  C_14
    5  A    between atoms: C_12  and  O_35
    6  A    between atoms: C_14  and  C_30
    7  A    between atoms: C_20  and  O_35
    8  A    between atoms: C_20  and  C_39
    9  A    between atoms: C_21  and  C_34
   10  A    between atoms: C_21  and  C_36
   11  A    between atoms: C_22  and  C_25
   12  A    between atoms: C_22  and  C_37
   13  A    between atoms: C_25  and  C_36
   14  A    between atoms: S_33  and  C_38
                            x       y       z     vdW  Elec       q    Type
                         _______ _______ _______ _____ _____    ______ ____

>  <TORSDO>
F 14

$$$$
=
 OpenBabel11062422173D

 41 44  0  0  1  0  0  0  0  0999 V2000
  192.8130  175.0500  146.4910 C   0  0  1  0  0  3  0  0  0  0  0  0
  194.1230  177.0230  146.3960 N   0  0  0  0  0  0  0  0  0  0  0  0
  193.6770  175.0490  145.2670 C   0  0  0  0  0  0  0  0  0  0  0  0
  190.5320  175.8390  147.0530 C   0  0  0  0  0  3  0  0  0  0  0  0
  195.4160  176.4540  144.3350 C   0  0  0  0  0  3  0  0  0  0  0  0
  193.9510  174.0270  144.3470 C   0  0  0  0  0  0  0  0  0  0  0  0
  192.3940  177.0410  148.0270 N   0  0  0  0  0  0  0  0  0  0  0  0
  193.2300  176.3780  147.0780 C   0  0  0  0  0  0  0  0  0  0  0  0
  194.4360  176.1990  145.2890 C   0  0  0  0  0  0  0  0  0  0  0  0
  191.1200  176.7770  148.0390 C   0  0  0  0  0  3  0  0  0  0  0  0
  191.3120  175.0800  146.2620 C   0  0  0  0  0  0  0  0  0  0  0  0
  195.6460  175.4860  143.3470 C   0  0  0  0  0  0  0  0  0  0  0  0
  194.9420  174.2670  143.3730 C   0  0  0  0  0  3  0  0  0  0  0  0
  193.3520  172.6600  144.5000 C   0  0  2  0  0  3  0  0  0  0  0  0
  194.3820  171.7170  144.5290 O   0  0  0  0  0  1  0  0  0  0  0  0
  192.3670  172.3380  143.3700 C   0  0  2  0  0  3  0  0  0  0  0  0
  191.6500  171.1780  143.6740 O   0  0  0  0  0  1  0  0  0  0  0  0
  193.0720  172.1920  142.0200 C   0  0  2  0  0  3  0  0  0  0  0  0
  193.0050  174.0800  140.3970 C   0  0  0  0  0  2  0  0  0  0  0  0
  191.8760  174.2660  141.3880 C   0  0  0  0  0  2  0  0  0  0  0  0
  192.2560  172.8730  140.9290 C   0  0  0  0  0  3  0  0  0  0  0  0
  193.2630  170.8430  141.7060 O   0  0  0  0  0  0  0  0  0  0  0  0
  192.5520  170.6420  140.5240 C   0  0  0  0  0  1  0  0  0  0  0  0
  196.3160  176.9390  141.3080 O   0  0  0  0  0  0  0  0  0  0  0  0
  196.8750  175.7680  142.1050 S   0  0  0  0  0  3  0  0  0  0  0  0
  190.6690  174.1720  145.2640 C   0  0  0  0  0  2  0  0  0  0  0  0
  189.2860  174.6770  144.8720 C   0  0  0  0  0  2  0  0  0  0  0  0
  188.4310  174.8650  142.5450 C   0  0  0  0  0  1  0  0  0  0  0  0
  189.3460  175.4930  143.5880 C   0  0  1  0  0  3  0  0  0  0  0  0
  186.8670  177.7830  145.0200 C   0  0  0  0  0  0  0  0  0  0  0  0
  189.0560  176.9560  143.8370 C   0  0  0  0  0  0  0  0  0  0  0  0
  187.9620  177.3570  144.4370 C   0  0  0  0  0  0  0  0  0  0  0  0
  187.2040  176.7000  147.0940 O   0  0  0  0  0  1  0  0  0  0  0  0
  185.0150  176.9540  146.4640 O   0  0  0  0  0  0  0  0  0  0  0  0
  186.3790  177.1180  146.2380 C   0  0  0  0  0  0  0  0  0  0  0  0
  191.4600  177.4740  143.5590 C   0  0  0  0  0  1  0  0  0  0  0  0
  190.0410  177.9950  143.4140 C   0  0  0  0  0  2  0  0  0  0  0  0
  186.1680  178.9020  144.5350 O   0  0  0  0  0  0  0  0  0  0  0  0
  185.1890  178.8740  143.5320 C   0  0  0  0  0  0  0  0  0  0  0  0
  185.5010  178.7170  142.3200 O   0  0  0  0  0  0  0  0  0  0  0  0
  183.8490  178.9520  143.8850 O   0  0  0  0  0  1  0  0  0  0  0  0
  1  3  1  6  0  0  0
  1  8  1  0  0  0  0
  2  8  2  0  0  0  0
  3  9  1  0  0  0  0
  4 10  1  0  0  0  0
  5  9  2  0  0  0  0
  6 14  1  0  0  0  0
  6  3  2  0  0  0  0
  7 10  2  0  0  0  0
  8  7  1  0  0  0  0
  9  2  1  0  0  0  0
 11  1  1  0  0  0  0
 11  4  2  0  0  0  0
 12 13  2  0  0  0  0
 12  5  1  0  0  0  0
 13  6  1  0  0  0  0
 14 15  1  6  0  0  0
 16 17  1  1  0  0  0
 16 14  1  0  0  0  0
 18 22  1  6  0  0  0
 18 16  1  0  0  0  0
 19 21  1  0  0  0  0
 19 20  1  0  0  0  0
 21 20  1  0  0  0  0
 21 18  1  0  0  0  0
 23 22  1  0  0  0  0
 24 25  2  0  0  0  0
 25 12  1  0  0  0  0
 26 11  1  0  0  0  0
 27 26  1  0  0  0  0
 29 28  1  6  0  0  0
 29 31  1  0  0  0  0
 29 27  1  0  0  0  0
 30 35  1  0  0  0  0
 31 32  2  0  0  0  0
 32 30  2  0  0  0  0
 35 34  2  0  0  0  0
 35 33  1  0  0  0  0
 37 36  1  0  0  0  0
 37 31  1  0  0  0  0
 38 30  1  0  0  0  0
 39 41  1  0  0  0  0
 39 38  1  0  0  0  0
 40 39  2  0  0  0  0
M  END
>  <MODEL>
6

>  <REMARK>
 VINA RESULT:      -6.4      2.998      5.242
  Name = 
  14 active torsions:
  status: ('A' for Active; 'I' for Inactive)
    1  A    between atoms: C_4  and  C_9
    2  A    between atoms: C_4  and  C_18
    3  A    between atoms: O_6  and  C_14
    4  A    between atoms: C_9  and  C_14
    5  A    between atoms: C_12  and  O_35
    6  A    between atoms: C_14  and  C_30
    7  A    between atoms: C_20  and  O_35
    8  A    between atoms: C_20  and  C_39
    9  A    between atoms: C_21  and  C_34
   10  A    between atoms: C_21  and  C_36
   11  A    between atoms: C_22  and  C_25
   12  A    between atoms: C_22  and  C_37
   13  A    between atoms: C_25  and  C_36
   14  A    between atoms: S_33  and  C_38
                            x       y       z     vdW  Elec       q    Type
                         _______ _______ _______ _____ _____    ______ ____

>  <TORSDO>
F 14

$$$$
=
 OpenBabel11062422173D

 41 44  0  0  1  0  0  0  0  0999 V2000
  191.9230  174.3300  145.5820 C   0  0  1  0  0  3  0  0  0  0  0  0
  193.2220  175.9260  146.7590 N   0  0  0  0  0  0  0  0  0  0  0  0
  193.0120  174.8710  144.7070 C   0  0  0  0  0  0  0  0  0  0  0  0
  189.5740  174.9480  146.0760 C   0  0  0  0  0  3  0  0  0  0  0  0
  194.9000  176.3680  144.9600 C   0  0  0  0  0  3  0  0  0  0  0  0
  193.4650  174.4440  143.4490 C   0  0  0  0  0  0  0  0  0  0  0  0
  191.2030  175.2810  147.8350 N   0  0  0  0  0  0  0  0  0  0  0  0
  192.2130  175.1180  146.8380 C   0  0  0  0  0  0  0  0  0  0  0  0
  193.7500  175.7600  145.4560 C   0  0  0  0  0  0  0  0  0  0  0  0
  189.9530  175.1810  147.4910 C   0  0  0  0  0  3  0  0  0  0  0  0
  190.4970  174.6280  145.1510 C   0  0  0  0  0  0  0  0  0  0  0  0
  195.3230  176.0260  143.6680 C   0  0  0  0  0  0  0  0  0  0  0  0
  194.6300  175.0480  142.9310 C   0  0  0  0  0  3  0  0  0  0  0  0
  192.8500  173.2630  142.7590 C   0  0  2  0  0  3  0  0  0  0  0  0
  193.3510  172.0940  143.3360 O   0  0  0  0  0  1  0  0  0  0  0  0
  193.1270  173.2740  141.2520 C   0  0  2  0  0  3  0  0  0  0  0  0
  192.0840  173.9120  140.5760 O   0  0  0  0  0  1  0  0  0  0  0  0
  193.3380  171.8630  140.6970 C   0  0  2  0  0  3  0  0  0  0  0  0
  195.6030  170.8590  140.4520 C   0  0  0  0  0  2  0  0  0  0  0  0
  195.7650  172.3510  140.6550 C   0  0  0  0  0  2  0  0  0  0  0  0
  194.5990  171.8200  139.8450 C   0  0  0  0  0  3  0  0  0  0  0  0
  192.2330  171.4600  139.9410 O   0  0  0  0  0  0  0  0  0  0  0  0
  191.7630  170.3090  140.5720 C   0  0  0  0  0  1  0  0  0  0  0  0
  196.6770  176.4640  141.5010 O   0  0  0  0  0  0  0  0  0  0  0  0
  196.7740  176.7790  142.9880 S   0  0  0  0  0  3  0  0  0  0  0  0
  190.0660  174.4340  143.7330 C   0  0  0  0  0  2  0  0  0  0  0  0
  190.1680  175.7330  142.9440 C   0  0  0  0  0  2  0  0  0  0  0  0
  191.0330  177.8980  143.8100 C   0  0  0  0  0  1  0  0  0  0  0  0
  189.8540  176.9330  143.8270 C   0  0  1  0  0  3  0  0  0  0  0  0
  186.4790  177.6560  145.0610 C   0  0  0  0  0  0  0  0  0  0  0  0
  188.5430  177.5840  143.4470 C   0  0  0  0  0  0  0  0  0  0  0  0
  187.5200  177.6220  144.2660 C   0  0  0  0  0  0  0  0  0  0  0  0
  187.7740  177.8690  147.0270 O   0  0  0  0  0  0  0  0  0  0  0  0
  185.5880  178.5300  147.2170 O   0  0  0  0  0  1  0  0  0  0  0  0
  186.6500  178.0160  146.4770 C   0  0  0  0  0  0  0  0  0  0  0  0
  187.3460  177.5030  141.2820 C   0  0  0  0  0  1  0  0  0  0  0  0
  188.3910  178.2300  142.1100 C   0  0  0  0  0  2  0  0  0  0  0  0
  185.1820  177.4060  144.5800 O   0  0  0  0  0  0  0  0  0  0  0  0
  184.4510  178.2590  143.7400 C   0  0  0  0  0  0  0  0  0  0  0  0
  184.1120  177.8990  142.5810 O   0  0  0  0  0  0  0  0  0  0  0  0
  184.0350  179.4930  144.2190 O   0  0  0  0  0  1  0  0  0  0  0  0
  1  3  1  6  0  0  0
  1  8  1  0  0  0  0
  2  8  2  0  0  0  0
  3  9  1  0  0  0  0
  4 10  1  0  0  0  0
  5  9  2  0  0  0  0
  6  3  2  0  0  0  0
  8  7  1  0  0  0  0
  9  2  1  0  0  0  0
 10  7  2  0  0  0  0
 11  1  1  0  0  0  0
 11  4  2  0  0  0  0
 12  5  1  0  0  0  0
 13  6  1  0  0  0  0
 13 12  2  0  0  0  0
 14 15  1  1  0  0  0
 14  6  1  0  0  0  0
 16 17  1  6  0  0  0
 16 14  1  0  0  0  0
 18 22  1  6  0  0  0
 18 16  1  0  0  0  0
 19 20  1  0  0  0  0
 21 19  1  0  0  0  0
 21 20  1  0  0  0  0
 21 18  1  0  0  0  0
 22 23  1  0  0  0  0
 24 25  2  0  0  0  0
 25 12  1  0  0  0  0
 26 11  1  0  0  0  0
 27 26  1  0  0  0  0
 27 29  1  0  0  0  0
 29 28  1  6  0  0  0
 30 35  1  0  0  0  0
 31 29  1  0  0  0  0
 31 32  2  0  0  0  0
 32 30  2  0  0  0  0
 35 33  2  0  0  0  0
 35 34  1  0  0  0  0
 36 37  1  0  0  0  0
 37 31  1  0  0  0  0
 38 30  1  0  0  0  0
 39 41  1  0  0  0  0
 39 38  1  0  0  0  0
 40 39  2  0  0  0  0
M  END
>  <MODEL>
7

>  <REMARK>
 VINA RESULT:      -6.3      3.040      4.984
  Name = 
  14 active torsions:
  status: ('A' for Active; 'I' for Inactive)
    1  A    between atoms: C_4  and  C_9
    2  A    between atoms: C_4  and  C_18
    3  A    between atoms: O_6  and  C_14
    4  A    between atoms: C_9  and  C_14
    5  A    between atoms: C_12  and  O_35
    6  A    between atoms: C_14  and  C_30
    7  A    between atoms: C_20  and  O_35
    8  A    between atoms: C_20  and  C_39
    9  A    between atoms: C_21  and  C_34
   10  A    between atoms: C_21  and  C_36
   11  A    between atoms: C_22  and  C_25
   12  A    between atoms: C_22  and  C_37
   13  A    between atoms: C_25  and  C_36
   14  A    between atoms: S_33  and  C_38
                            x       y       z     vdW  Elec       q    Type
                         _______ _______ _______ _____ _____    ______ ____

>  <TORSDO>
F 14

$$$$
=
 OpenBabel11062422173D

 41 44  0  0  1  0  0  0  0  0999 V2000
  192.9570  174.5540  145.0920 C   0  0  1  0  0  3  0  0  0  0  0  0
  194.1930  176.3960  144.2580 N   0  0  0  0  0  0  0  0  0  0  0  0
  193.0460  174.4940  143.5980 C   0  0  0  0  0  0  0  0  0  0  0  0
  191.3910  175.5440  146.7380 C   0  0  0  0  0  3  0  0  0  0  0  0
  194.1560  175.7450  141.8450 C   0  0  0  0  0  3  0  0  0  0  0  0
  192.7030  173.4670  142.7060 C   0  0  0  0  0  0  0  0  0  0  0  0
  193.5860  176.5480  146.5510 N   0  0  0  0  0  0  0  0  0  0  0  0
  193.7370  175.8260  145.3280 C   0  0  0  0  0  0  0  0  0  0  0  0
  193.8030  175.5650  143.1790 C   0  0  0  0  0  0  0  0  0  0  0  0
  192.4910  176.4060  147.2370 C   0  0  0  0  0  3  0  0  0  0  0  0
  191.5680  174.7300  145.6820 C   0  0  0  0  0  0  0  0  0  0  0  0
  193.7450  174.7760  140.9170 C   0  0  0  0  0  0  0  0  0  0  0  0
  193.0530  173.6300  141.3500 C   0  0  0  0  0  3  0  0  0  0  0  0
  192.1540  172.1600  143.1970 C   0  0  2  0  0  3  0  0  0  0  0  0
  193.2010  171.2440  143.3080 O   0  0  0  0  0  1  0  0  0  0  0  0
  191.0630  171.6140  142.2690 C   0  0  2  0  0  3  0  0  0  0  0  0
  189.8790  171.4150  142.9820 O   0  0  0  0  0  1  0  0  0  0  0  0
  191.4950  170.3180  141.5790 C   0  0  2  0  0  3  0  0  0  0  0  0
  191.7660  170.6500  139.1260 C   0  0  0  0  0  2  0  0  0  0  0  0
  190.6740  171.5790  139.6130 C   0  0  0  0  0  2  0  0  0  0  0  0
  190.8180  170.1980  140.2200 C   0  0  0  0  0  3  0  0  0  0  0  0
  191.1810  169.2090  142.3710 O   0  0  0  0  0  0  0  0  0  0  0  0
  190.8250  168.2080  141.4690 C   0  0  0  0  0  1  0  0  0  0  0  0
  193.7940  173.6140  138.6010 O   0  0  0  0  0  0  0  0  0  0  0  0
  194.1590  174.9630  139.2060 S   0  0  0  0  0  3  0  0  0  0  0  0
  190.4190  173.9050  145.2010 C   0  0  0  0  0  2  0  0  0  0  0  0
  189.2460  174.7840  144.7870 C   0  0  0  0  0  2  0  0  0  0  0  0
  188.8080  174.7140  142.3400 C   0  0  0  0  0  1  0  0  0  0  0  0
  189.5210  175.4690  143.4550 C   0  0  1  0  0  3  0  0  0  0  0  0
  186.9900  177.8500  144.6250 C   0  0  0  0  0  0  0  0  0  0  0  0
  189.1750  176.9410  143.4970 C   0  0  0  0  0  0  0  0  0  0  0  0
  188.0840  177.3850  144.0710 C   0  0  0  0  0  0  0  0  0  0  0  0
  185.3960  176.9260  146.1050 O   0  0  0  0  0  0  0  0  0  0  0  0
  187.4560  177.3420  147.0180 O   0  0  0  0  0  1  0  0  0  0  0  0
  186.5690  177.3550  145.9440 C   0  0  0  0  0  0  0  0  0  0  0  0
  191.2160  178.2930  143.8590 C   0  0  0  0  0  1  0  0  0  0  0  0
  190.1010  177.9420  142.8900 C   0  0  0  0  0  2  0  0  0  0  0  0
  186.2290  178.8580  144.0070 O   0  0  0  0  0  0  0  0  0  0  0  0
  185.2920  178.6530  142.9840 C   0  0  0  0  0  0  0  0  0  0  0  0
  184.0640  178.5310  143.2390 O   0  0  0  0  0  1  0  0  0  0  0  0
  185.7160  178.6520  141.6630 O   0  0  0  0  0  0  0  0  0  0  0  0
  1  3  1  6  0  0  0
  1  8  1  0  0  0  0
  1 11  1  0  0  0  0
  2  8  2  0  0  0  0
  4 10  1  0  0  0  0
  5  9  2  0  0  0  0
  6 14  1  0  0  0  0
  6  3  2  0  0  0  0
  7 10  2  0  0  0  0
  8  7  1  0  0  0  0
  9  3  1  0  0  0  0
  9  2  1  0  0  0  0
 11  4  2  0  0  0  0
 12 13  2  0  0  0  0
 12  5  1  0  0  0  0
 13  6  1  0  0  0  0
 14 15  1  6  0  0  0
 16 17  1  1  0  0  0
 16 14  1  0  0  0  0
 18 16  1  0  0  0  0
 18 22  1  1  0  0  0
 19 20  1  0  0  0  0
 19 21  1  0  0  0  0
 20 21  1  0  0  0  0
 21 18  1  0  0  0  0
 23 22  1  0  0  0  0
 24 25  2  0  0  0  0
 25 12  1  0  0  0  0
 26 11  1  0  0  0  0
 27 26  1  0  0  0  0
 29 28  1  6  0  0  0
 29 31  1  0  0  0  0
 29 27  1  0  0  0  0
 30 35  1  0  0  0  0
 31 32  2  0  0  0  0
 32 30  2  0  0  0  0
 35 33  2  0  0  0  0
 35 34  1  0  0  0  0
 37 31  1  0  0  0  0
 37 36  1  0  0  0  0
 38 30  1  0  0  0  0
 39 40  1  0  0  0  0
 39 38  1  0  0  0  0
 41 39  2  0  0  0  0
M  END
>  <MODEL>
8

>  <REMARK>
 VINA RESULT:      -6.2      3.085      5.545
  Name = 
  14 active torsions:
  status: ('A' for Active; 'I' for Inactive)
    1  A    between atoms: C_4  and  C_9
    2  A    between atoms: C_4  and  C_18
    3  A    between atoms: O_6  and  C_14
    4  A    between atoms: C_9  and  C_14
    5  A    between atoms: C_12  and  O_35
    6  A    between atoms: C_14  and  C_30
    7  A    between atoms: C_20  and  O_35
    8  A    between atoms: C_20  and  C_39
    9  A    between atoms: C_21  and  C_34
   10  A    between atoms: C_21  and  C_36
   11  A    between atoms: C_22  and  C_25
   12  A    between atoms: C_22  and  C_37
   13  A    between atoms: C_25  and  C_36
   14  A    between atoms: S_33  and  C_38
                            x       y       z     vdW  Elec       q    Type
                         _______ _______ _______ _____ _____    ______ ____

>  <TORSDO>
F 14

$$$$
=
 OpenBabel11062422173D

 41 44  0  0  1  0  0  0  0  0999 V2000
  192.3150  174.9130  146.0770 C   0  0  1  0  0  3  0  0  0  0  0  0
  193.7020  176.8250  145.8750 N   0  0  0  0  0  0  0  0  0  0  0  0
  192.8890  175.0040  144.6960 C   0  0  0  0  0  0  0  0  0  0  0  0
  190.2700  175.7400  147.2060 C   0  0  0  0  0  3  0  0  0  0  0  0
  194.4730  176.4200  143.5320 C   0  0  0  0  0  3  0  0  0  0  0  0
  192.8860  174.0720  143.6460 C   0  0  0  0  0  0  0  0  0  0  0  0
  192.3750  176.7490  147.8450 N   0  0  0  0  0  0  0  0  0  0  0  0
  192.9380  176.1520  146.6760 C   0  0  0  0  0  0  0  0  0  0  0  0
  193.7090  176.1090  144.6530 C   0  0  0  0  0  0  0  0  0  0  0  0
  191.1200  176.5420  148.1180 C   0  0  0  0  0  3  0  0  0  0  0  0
  190.8060  175.0340  146.1930 C   0  0  0  0  0  0  0  0  0  0  0  0
  194.4160  175.5510  142.4330 C   0  0  0  0  0  0  0  0  0  0  0  0
  193.6550  174.3700  142.5020 C   0  0  0  0  0  3  0  0  0  0  0  0
  192.2450  172.7250  143.8020 C   0  0  2  0  0  3  0  0  0  0  0  0
  193.0920  171.9070  144.5530 O   0  0  0  0  0  1  0  0  0  0  0  0
  191.9420  172.0770  142.4470 C   0  0  2  0  0  3  0  0  0  0  0  0
  190.6820  172.4770  141.9940 O   0  0  0  0  0  1  0  0  0  0  0  0
  192.0270  170.5500  142.5100 C   0  0  2  0  0  3  0  0  0  0  0  0
  194.2080  169.4460  142.0390 C   0  0  0  0  0  2  0  0  0  0  0  0
  194.2400  170.8350  141.4380 C   0  0  0  0  0  2  0  0  0  0  0  0
  192.9540  170.0320  141.4190 C   0  0  0  0  0  3  0  0  0  0  0  0
  190.7570  169.9800  142.3720 O   0  0  0  0  0  0  0  0  0  0  0  0
  190.8150  169.2510  141.1850 C   0  0  0  0  0  1  0  0  0  0  0  0
  196.4220  176.8820  141.4710 O   0  0  0  0  0  0  0  0  0  0  0  0
  195.3610  175.9080  140.9780 S   0  0  0  0  0  3  0  0  0  0  0  0
  189.9010  174.2670  145.2840 C   0  0  0  0  0  2  0  0  0  0  0  0
  189.4670  175.1140  144.0960 C   0  0  0  0  0  2  0  0  0  0  0  0
  190.1240  177.4750  143.6730 C   0  0  0  0  0  1  0  0  0  0  0  0
  189.2390  176.5610  144.5110 C   0  0  1  0  0  3  0  0  0  0  0  0
  186.6360  177.9170  142.3150 C   0  0  0  0  0  0  0  0  0  0  0  0
  187.7750  176.9370  144.4630 C   0  0  0  0  0  0  0  0  0  0  0  0
  187.2140  177.4180  143.3810 C   0  0  0  0  0  0  0  0  0  0  0  0
  186.3140  177.7850  139.9770 O   0  0  0  0  0  0  0  0  0  0  0  0
  187.7550  176.2360  140.8580 O   0  0  0  0  0  1  0  0  0  0  0  0
  186.8850  177.3150  140.9970 C   0  0  0  0  0  0  0  0  0  0  0  0
  187.2930  177.7320  146.7570 C   0  0  0  0  0  1  0  0  0  0  0  0
  186.9150  176.7440  145.6680 C   0  0  0  0  0  2  0  0  0  0  0  0
  185.7340  178.9910  142.4070 O   0  0  0  0  0  0  0  0  0  0  0  0
  185.1050  179.4230  143.5850 C   0  0  0  0  0  0  0  0  0  0  0  0
  185.5730  180.3770  144.2620 O   0  0  0  0  0  1  0  0  0  0  0  0
  183.9120  178.8320  143.9740 O   0  0  0  0  0  0  0  0  0  0  0  0
  1  3  1  6  0  0  0
  1 11  1  0  0  0  0
  1  8  1  0  0  0  0
  2  8  2  0  0  0  0
  4 10  1  0  0  0  0
  5  9  2  0  0  0  0
  6 14  1  0  0  0  0
  6  3  2  0  0  0  0
  7 10  2  0  0  0  0
  8  7  1  0  0  0  0
  9  3  1  0  0  0  0
  9  2  1  0  0  0  0
 11  4  2  0  0  0  0
 12 13  2  0  0  0  0
 12  5  1  0  0  0  0
 13  6  1  0  0  0  0
 14 15  1  1  0  0  0
 16 17  1  1  0  0  0
 16 18  1  0  0  0  0
 16 14  1  0  0  0  0
 18 22  1  6  0  0  0
 20 19  1  0  0  0  0
 21 20  1  0  0  0  0
 21 19  1  0  0  0  0
 21 18  1  0  0  0  0
 23 22  1  0  0  0  0
 25 24  2  0  0  0  0
 25 12  1  0  0  0  0
 26 11  1  0  0  0  0
 27 29  1  0  0  0  0
 27 26  1  0  0  0  0
 29 28  1  6  0  0  0
 30 38  1  0  0  0  0
 30 32  2  0  0  0  0
 31 29  1  0  0  0  0
 31 37  1  0  0  0  0
 32 31  2  0  0  0  0
 33 35  2  0  0  0  0
 34 35  1  0  0  0  0
 35 30  1  0  0  0  0
 37 36  1  0  0  0  0
 38 39  1  0  0  0  0
 39 41  2  0  0  0  0
 39 40  1  0  0  0  0
M  END
>  <MODEL>
9

>  <REMARK>
 VINA RESULT:      -6.2      2.949      4.932
  Name = 
  14 active torsions:
  status: ('A' for Active; 'I' for Inactive)
    1  A    between atoms: C_4  and  C_9
    2  A    between atoms: C_4  and  C_18
    3  A    between atoms: O_6  and  C_14
    4  A    between atoms: C_9  and  C_14
    5  A    between atoms: C_12  and  O_35
    6  A    between atoms: C_14  and  C_30
    7  A    between atoms: C_20  and  O_35
    8  A    between atoms: C_20  and  C_39
    9  A    between atoms: C_21  and  C_34
   10  A    between atoms: C_21  and  C_36
   11  A    between atoms: C_22  and  C_25
   12  A    between atoms: C_22  and  C_37
   13  A    between atoms: C_25  and  C_36
   14  A    between atoms: S_33  and  C_38
                            x       y       z     vdW  Elec       q    Type
                         _______ _______ _______ _____ _____    ______ ____

>  <TORSDO>
F 14

$$$$
