=
 OpenBabel11062421243D

 31 34  0  0  1  0  0  0  0  0999 V2000
  190.8060  176.9050  147.6320 C   0  0  0  0  0  3  0  0  0  0  0  0
  191.9450  176.2470  147.7770 C   0  0  0  0  0  2  0  0  0  0  0  0
  191.7050  176.4690  144.6340 C   0  0  0  0  0  0  0  0  0  0  0  0
  192.6020  175.4240  146.7570 C   0  0  0  0  0  3  0  0  0  0  0  0
  188.8000  175.9470  146.3210 C   0  0  0  0  0  0  0  0  0  0  0  0
  188.3620  176.7760  143.9460 C   0  0  2  0  0  3  0  0  0  0  0  0
  193.4810  174.6800  143.1820 C   0  0  0  0  0  2  0  0  0  0  0  0
  190.5820  177.0810  145.0730 C   0  0  0  0  0  0  0  0  0  0  0  0
  188.6880  174.9920  147.0730 O   0  0  0  0  0  0  0  0  0  0  0  0
  192.1100  176.7200  143.1990 C   0  0  0  0  0  2  0  0  0  0  0  0
  189.6020  177.6880  144.1060 C   0  0  0  0  0  2  0  0  0  0  0  0
  193.4830  176.1620  142.8660 C   0  0  0  0  0  2  0  0  0  0  0  0
  192.4810  175.4470  145.4230 C   0  0  0  0  0  0  0  0  0  0  0  0
  193.3710  174.4520  144.6880 C   0  0  1  0  0  3  0  0  0  0  0  0
  187.7570  176.2330  145.2670 C   0  0  2  0  0  3  0  0  0  0  0  0
  189.9620  176.8780  146.4060 C   0  0  0  0  0  0  0  0  0  0  0  0
  186.7220  177.1730  145.7960 C   0  0  0  0  0  0  0  0  0  0  0  0
  185.7020  178.5090  147.1170 N   0  0  0  0  0  0  0  0  0  0  0  0
  185.5950  177.4790  145.1280 N   0  0  0  0  0  0  0  0  0  0  0  0
  183.6760  178.9600  145.7290 C   0  0  0  0  0  1  0  0  0  0  0  0
  184.9920  178.3190  145.9910 C   0  0  0  0  0  0  0  0  0  0  0  0
  186.7970  177.7800  146.9960 N   0  0  0  0  0  2  0  0  0  0  0  0
  188.5910  175.6840  142.9490 C   0  0  0  0  0  0  0  0  0  0  0  0
  188.3930  175.9130  141.5600 N   0  0  0  0  0  1  0  0  0  0  0  0
  188.9680  174.5520  143.3490 O   0  0  0  0  0  0  0  0  0  0  0  0
  193.0410  172.9740  144.9570 C   0  0  2  0  0  3  0  0  0  0  0  0
  194.2430  172.1990  145.4700 C   0  0  0  0  0  1  0  0  0  0  0  0
  190.6820  171.1970  142.4460 C   0  0  0  0  0  1  0  0  0  0  0  0
  192.5030  172.3240  143.7710 N   0  0  0  0  0  2  0  0  0  0  0  0
  191.1670  171.8210  143.7040 C   0  0  0  0  0  0  0  0  0  0  0  0
  190.3950  171.9050  144.6950 O   0  0  0  0  0  0  0  0  0  0  0  0
  1  2  1  0  0  0  0
  3  8  2  0  0  0  0
  3 13  1  0  0  0  0
  4  2  1  0  0  0  0
  5 16  1  0  0  0  0
  5  9  2  0  0  0  0
  6 23  1  6  0  0  0
  6 11  1  0  0  0  0
  6 15  1  0  0  0  0
  7 14  1  0  0  0  0
  8 16  1  0  0  0  0
 10  3  1  0  0  0  0
 11  8  1  0  0  0  0
 12  7  1  0  0  0  0
 12 10  1  0  0  0  0
 13  4  2  0  0  0  0
 14 26  1  6  0  0  0
 14 13  1  0  0  0  0
 15 17  1  1  0  0  0
 15  5  1  0  0  0  0
 16  1  2  0  0  0  0
 17 22  1  0  0  0  0
 19 17  2  0  0  0  0
 19 21  1  0  0  0  0
 20 21  1  0  0  0  0
 21 18  2  0  0  0  0
 22 18  1  0  0  0  0
 23 25  2  0  0  0  0
 24 23  1  0  0  0  0
 26 27  1  6  0  0  0
 28 30  1  0  0  0  0
 29 26  1  0  0  0  0
 30 29  1  0  0  0  0
 30 31  2  0  0  0  0
M  END
>  <MODEL>
1

>  <REMARK>
 VINA RESULT:      -7.9      0.000      0.000
  Name = 
  4 active torsions:
  status: ('A' for Active; 'I' for Inactive)
    1  A    between atoms: C_3  and  C_28
    2  A    between atoms: C_4  and  C_10
    3  A    between atoms: N_7  and  C_12
    4  A    between atoms: C_12  and  C_23
                            x       y       z     vdW  Elec       q    Type
                         _______ _______ _______ _____ _____    ______ ____

>  <TORSDO>
F 4

$$$$
=
 OpenBabel11062421243D

 31 34  0  0  1  0  0  0  0  0999 V2000
  191.2890  178.1020  143.5000 C   0  0  0  0  0  3  0  0  0  0  0  0
  190.2400  178.5880  142.8570 C   0  0  0  0  0  3  0  0  0  0  0  0
  188.9280  177.4480  145.4950 C   0  0  0  0  0  0  0  0  0  0  0  0
  188.8400  178.2200  143.0870 C   0  0  0  0  0  3  0  0  0  0  0  0
  191.4770  175.6200  144.1840 C   0  0  0  0  0  0  0  0  0  0  0  0
  191.0110  174.9650  146.6070 C   0  0  2  0  0  3  0  0  0  0  0  0
  186.0360  177.1680  145.3530 C   0  0  0  0  0  2  0  0  0  0  0  0
  190.2380  177.1490  145.6490 C   0  0  0  0  0  0  0  0  0  0  0  0
  191.4270  175.2350  143.0270 O   0  0  0  0  0  0  0  0  0  0  0  0
  188.0580  177.3890  146.7310 C   0  0  0  0  0  2  0  0  0  0  0  0
  190.7350  176.4610  146.8910 C   0  0  0  0  0  2  0  0  0  0  0  0
  186.6620  177.9380  146.4980 C   0  0  0  0  0  2  0  0  0  0  0  0
  188.2580  177.6800  144.1660 C   0  0  0  0  0  0  0  0  0  0  0  0
  186.7520  177.4790  144.0410 C   0  0  1  0  0  3  0  0  0  0  0  0
  191.8030  174.6660  145.3080 C   0  0  2  0  0  3  0  0  0  0  0  0
  191.2270  177.0450  144.5470 C   0  0  2  0  0  3  0  0  0  0  0  0
  193.2730  174.6570  145.5780 C   0  0  0  0  0  0  0  0  0  0  0  0
  195.2240  175.3380  146.1230 N   0  0  0  0  0  0  0  0  0  0  0  0
  194.0530  173.5800  145.3710 N   0  0  0  0  0  0  0  0  0  0  0  0
  196.5080  173.2420  145.6820 C   0  0  0  0  0  1  0  0  0  0  0  0
  195.2620  174.0530  145.7290 C   0  0  0  0  0  0  0  0  0  0  0  0
  193.9640  175.7220  146.0250 N   0  0  0  0  0  2  0  0  0  0  0  0
  189.7700  174.1350  146.7070 C   0  0  0  0  0  0  0  0  0  0  0  0
  189.4960  173.1170  145.7530 N   0  0  0  0  0  1  0  0  0  0  0  0
  188.9630  174.3410  147.6500 O   0  0  0  0  0  0  0  0  0  0  0  0
  186.3280  176.4570  142.9730 C   0  0  2  0  0  3  0  0  0  0  0  0
  187.4210  175.4440  142.6770 C   0  0  0  0  0  1  0  0  0  0  0  0
  184.3680  178.5320  140.3500 C   0  0  0  0  0  1  0  0  0  0  0  0
  185.9170  177.1150  141.7420 N   0  0  0  0  0  2  0  0  0  0  0  0
  184.7040  177.8640  141.6330 C   0  0  0  0  0  0  0  0  0  0  0  0
  183.9200  177.9690  142.6130 O   0  0  0  0  0  0  0  0  0  0  0  0
  2  4  1  0  0  0  0
  2  1  2  0  0  0  0
  3  8  2  0  0  0  0
  3 10  1  0  0  0  0
  4 13  2  0  0  0  0
  5 16  1  0  0  0  0
  5 15  1  0  0  0  0
  6 23  1  6  0  0  0
  6 11  1  0  0  0  0
  7 12  1  0  0  0  0
  8 11  1  0  0  0  0
  9  5  2  0  0  0  0
 12 10  1  0  0  0  0
 13  3  1  0  0  0  0
 14 26  1  6  0  0  0
 14 13  1  0  0  0  0
 14  7  1  0  0  0  0
 15 17  1  1  0  0  0
 15  6  1  0  0  0  0
 16  1  1  6  0  0  0
 16  8  1  0  0  0  0
 17 22  1  0  0  0  0
 19 17  2  0  0  0  0
 19 21  1  0  0  0  0
 20 21  1  0  0  0  0
 21 18  2  0  0  0  0
 22 18  1  0  0  0  0
 23 25  2  0  0  0  0
 24 23  1  0  0  0  0
 26 27  1  6  0  0  0
 28 30  1  0  0  0  0
 29 26  1  0  0  0  0
 30 29  1  0  0  0  0
 30 31  2  0  0  0  0
M  END
>  <MODEL>
2

>  <REMARK>
 VINA RESULT:      -7.6      2.600      7.092
  Name = 
  4 active torsions:
  status: ('A' for Active; 'I' for Inactive)
    1  A    between atoms: C_3  and  C_28
    2  A    between atoms: C_4  and  C_10
    3  A    between atoms: N_7  and  C_12
    4  A    between atoms: C_12  and  C_23
                            x       y       z     vdW  Elec       q    Type
                         _______ _______ _______ _____ _____    ______ ____

>  <TORSDO>
F 4

$$$$
=
 OpenBabel11062421243D

 31 34  0  0  1  0  0  0  0  0999 V2000
  191.2460  176.6450  147.4060 C   0  0  0  0  0  3  0  0  0  0  0  0
  192.4370  176.0690  147.4090 C   0  0  0  0  0  2  0  0  0  0  0  0
  191.9040  176.4680  144.3200 C   0  0  0  0  0  0  0  0  0  0  0  0
  193.0580  175.3650  146.2840 C   0  0  0  0  0  3  0  0  0  0  0  0
  189.2050  175.6190  146.2040 C   0  0  0  0  0  0  0  0  0  0  0  0
  188.5010  176.5590  143.9370 C   0  0  2  0  0  3  0  0  0  0  0  0
  193.6690  174.9160  142.6050 C   0  0  0  0  0  2  0  0  0  0  0  0
  190.7840  176.9640  144.8920 C   0  0  0  0  0  0  0  0  0  0  0  0
  189.2290  174.6130  146.8950 O   0  0  0  0  0  0  0  0  0  0  0  0
  192.1620  176.8390  142.8770 C   0  0  0  0  0  2  0  0  0  0  0  0
  189.6820  177.5520  144.0550 C   0  0  0  0  0  2  0  0  0  0  0  0
  193.5370  176.4110  142.3930 C   0  0  0  0  0  2  0  0  0  0  0  0
  192.8190  175.4620  144.9690 C   0  0  0  0  0  0  0  0  0  0  0  0
  193.7090  174.5860  144.0950 C   0  0  1  0  0  3  0  0  0  0  0  0
  188.0560  175.8890  145.2640 C   0  0  2  0  0  3  0  0  0  0  0  0
  190.3010  176.6300  146.2560 C   0  0  0  0  0  0  0  0  0  0  0  0
  187.0070  176.7110  145.9410 C   0  0  0  0  0  0  0  0  0  0  0  0
  185.9190  177.7140  147.4840 N   0  0  0  0  0  0  0  0  0  0  0  0
  185.9470  177.2320  145.2950 N   0  0  0  0  0  0  0  0  0  0  0  0
  184.0270  178.6000  146.1170 C   0  0  0  0  0  1  0  0  0  0  0  0
  185.2990  177.8520  146.2990 C   0  0  0  0  0  0  0  0  0  0  0  0
  187.0000  176.9890  147.2580 N   0  0  0  0  0  2  0  0  0  0  0  0
  188.7180  175.5530  142.8520 C   0  0  0  0  0  0  0  0  0  0  0  0
  189.0160  174.1970  143.1630 N   0  0  0  0  0  1  0  0  0  0  0  0
  188.6310  175.9130  141.6490 O   0  0  0  0  0  0  0  0  0  0  0  0
  193.5110  173.0730  144.2890 C   0  0  2  0  0  3  0  0  0  0  0  0
  192.0850  172.7240  144.6810 C   0  0  0  0  0  1  0  0  0  0  0  0
  196.6520  171.5780  145.9970 C   0  0  0  0  0  1  0  0  0  0  0  0
  194.4390  172.5370  145.2720 N   0  0  0  0  0  2  0  0  0  0  0  0
  195.7520  172.0850  144.9300 C   0  0  0  0  0  0  0  0  0  0  0  0
  196.1550  172.1160  143.7380 O   0  0  0  0  0  0  0  0  0  0  0  0
  1  2  1  0  0  0  0
  3  8  2  0  0  0  0
  3 13  1  0  0  0  0
  4  2  1  0  0  0  0
  5 16  1  0  0  0  0
  5  9  2  0  0  0  0
  6 23  1  6  0  0  0
  6 11  1  0  0  0  0
  6 15  1  0  0  0  0
  7 14  1  0  0  0  0
  8 16  1  0  0  0  0
 10  3  1  0  0  0  0
 11  8  1  0  0  0  0
 12  7  1  0  0  0  0
 12 10  1  0  0  0  0
 13  4  2  0  0  0  0
 14 26  1  6  0  0  0
 14 13  1  0  0  0  0
 15 17  1  1  0  0  0
 15  5  1  0  0  0  0
 16  1  2  0  0  0  0
 17 22  1  0  0  0  0
 19 17  2  0  0  0  0
 19 21  1  0  0  0  0
 20 21  1  0  0  0  0
 21 18  2  0  0  0  0
 22 18  1  0  0  0  0
 23 24  1  0  0  0  0
 25 23  2  0  0  0  0
 26 27  1  1  0  0  0
 26 29  1  0  0  0  0
 30 29  1  0  0  0  0
 30 28  1  0  0  0  0
 31 30  2  0  0  0  0
M  END
>  <MODEL>
3

>  <REMARK>
 VINA RESULT:      -7.4      1.491      2.090
  Name = 
  4 active torsions:
  status: ('A' for Active; 'I' for Inactive)
    1  A    between atoms: C_3  and  C_28
    2  A    between atoms: C_4  and  C_10
    3  A    between atoms: N_7  and  C_12
    4  A    between atoms: C_12  and  C_23
                            x       y       z     vdW  Elec       q    Type
                         _______ _______ _______ _____ _____    ______ ____

>  <TORSDO>
F 4

$$$$
=
 OpenBabel11062421243D

 31 34  0  0  1  0  0  0  0  0999 V2000
  188.7700  175.4140  142.5570 C   0  0  0  0  0  3  0  0  0  0  0  0
  189.7290  175.1640  141.6800 C   0  0  0  0  0  3  0  0  0  0  0  0
  190.9490  173.9920  144.3490 C   0  0  0  0  0  0  0  0  0  0  0  0
  191.1360  174.8990  141.9940 C   0  0  0  0  0  3  0  0  0  0  0  0
  189.1470  176.8570  144.6630 C   0  0  0  0  0  0  0  0  0  0  0  0
  189.4580  175.7000  146.9180 C   0  0  2  0  0  3  0  0  0  0  0  0
  193.8090  173.4750  144.2160 C   0  0  0  0  0  2  0  0  0  0  0  0
  189.7520  174.4810  144.7470 C   0  0  0  0  0  0  0  0  0  0  0  0
  189.4400  177.8440  144.0080 O   0  0  0  0  0  0  0  0  0  0  0  0
  191.6410  173.0230  145.2820 C   0  0  0  0  0  2  0  0  0  0  0  0
  189.2980  174.3520  146.1740 C   0  0  0  0  0  2  0  0  0  0  0  0
  192.8650  172.3750  144.6590 C   0  0  0  0  0  2  0  0  0  0  0  0
  191.6980  174.4600  143.1290 C   0  0  0  0  0  0  0  0  0  0  0  0
  193.2070  174.2640  143.0550 C   0  0  1  0  0  3  0  0  0  0  0  0
  188.9410  176.9480  146.1560 C   0  0  2  0  0  3  0  0  0  0  0  0
  188.9720  175.5190  144.0280 C   0  0  2  0  0  3  0  0  0  0  0  0
  187.5020  177.1980  146.4720 C   0  0  0  0  0  0  0  0  0  0  0  0
  185.5960  177.0560  147.4300 N   0  0  0  0  0  0  0  0  0  0  0  0
  186.7230  178.0300  145.7540 N   0  0  0  0  0  0  0  0  0  0  0  0
  184.3130  178.6390  145.9860 C   0  0  0  0  0  1  0  0  0  0  0  0
  185.5440  177.9100  146.3930 C   0  0  0  0  0  0  0  0  0  0  0  0
  186.8360  176.6020  147.4780 N   0  0  0  0  0  2  0  0  0  0  0  0
  190.8490  175.8980  147.4320 C   0  0  0  0  0  0  0  0  0  0  0  0
  191.3010  177.1860  147.8330 N   0  0  0  0  0  1  0  0  0  0  0  0
  191.6240  174.9100  147.5130 O   0  0  0  0  0  0  0  0  0  0  0  0
  194.0140  175.5560  142.8440 C   0  0  2  0  0  3  0  0  0  0  0  0
  195.1080  175.3890  141.8040 C   0  0  0  0  0  1  0  0  0  0  0  0
  194.5200  177.3120  146.2630 C   0  0  0  0  0  1  0  0  0  0  0  0
  194.5870  176.0350  144.0930 N   0  0  0  0  0  2  0  0  0  0  0  0
  193.8770  176.8890  144.9930 C   0  0  0  0  0  0  0  0  0  0  0  0
  192.7120  177.2840  144.7240 O   0  0  0  0  0  0  0  0  0  0  0  0
  2  4  1  0  0  0  0
  2  1  2  0  0  0  0
  3  8  2  0  0  0  0
  3 10  1  0  0  0  0
  4 13  2  0  0  0  0
  5 15  1  0  0  0  0
  6 23  1  6  0  0  0
  7 12  1  0  0  0  0
  8 11  1  0  0  0  0
  9  5  2  0  0  0  0
 11  6  1  0  0  0  0
 12 10  1  0  0  0  0
 13  3  1  0  0  0  0
 14 26  1  1  0  0  0
 14 13  1  0  0  0  0
 14  7  1  0  0  0  0
 15 17  1  6  0  0  0
 15  6  1  0  0  0  0
 16  1  1  6  0  0  0
 16  5  1  0  0  0  0
 16  8  1  0  0  0  0
 17 22  1  0  0  0  0
 18 22  1  0  0  0  0
 19 21  1  0  0  0  0
 19 17  2  0  0  0  0
 20 21  1  0  0  0  0
 21 18  2  0  0  0  0
 23 25  2  0  0  0  0
 23 24  1  0  0  0  0
 26 27  1  6  0  0  0
 26 29  1  0  0  0  0
 29 30  1  0  0  0  0
 30 28  1  0  0  0  0
 31 30  2  0  0  0  0
M  END
>  <MODEL>
4

>  <REMARK>
 VINA RESULT:      -7.1      2.149      4.097
  Name = 
  4 active torsions:
  status: ('A' for Active; 'I' for Inactive)
    1  A    between atoms: C_3  and  C_28
    2  A    between atoms: C_4  and  C_10
    3  A    between atoms: N_7  and  C_12
    4  A    between atoms: C_12  and  C_23
                            x       y       z     vdW  Elec       q    Type
                         _______ _______ _______ _____ _____    ______ ____

>  <TORSDO>
F 4

$$$$
=
 OpenBabel11062421243D

 31 34  0  0  1  0  0  0  0  0999 V2000
  192.1460  177.5990  143.9540 C   0  0  0  0  0  3  0  0  0  0  0  0
  191.1990  178.5020  143.7580 C   0  0  0  0  0  3  0  0  0  0  0  0
  189.7130  176.3610  145.5450 C   0  0  0  0  0  0  0  0  0  0  0  0
  189.7570  178.2840  143.9010 C   0  0  0  0  0  3  0  0  0  0  0  0
  191.8890  175.1320  143.2410 C   0  0  0  0  0  0  0  0  0  0  0  0
  191.3210  173.3830  145.0130 C   0  0  2  0  0  3  0  0  0  0  0  0
  186.8170  176.6380  145.5610 C   0  0  0  0  0  2  0  0  0  0  0  0
  190.9490  175.8330  145.3960 C   0  0  0  0  0  0  0  0  0  0  0  0
  191.7670  175.4230  142.0620 O   0  0  0  0  0  0  0  0  0  0  0  0
  188.8510  175.7960  146.6520 C   0  0  0  0  0  2  0  0  0  0  0  0
  191.3190  174.5310  146.0510 C   0  0  0  0  0  2  0  0  0  0  0  0
  187.5750  176.5890  146.8710 C   0  0  0  0  0  2  0  0  0  0  0  0
  189.0910  177.3540  144.5980 C   0  0  0  0  0  0  0  0  0  0  0  0
  187.5730  177.4770  144.5340 C   0  0  1  0  0  3  0  0  0  0  0  0
  192.0420  173.6940  143.6750 C   0  0  2  0  0  3  0  0  0  0  0  0
  191.8990  176.1740  144.3080 C   0  0  2  0  0  3  0  0  0  0  0  0
  193.4880  173.3230  143.7580 C   0  0  0  0  0  0  0  0  0  0  0  0
  195.5270  173.0260  143.1890 N   0  0  0  0  0  0  0  0  0  0  0  0
  194.0440  172.7690  144.8510 N   0  0  0  0  0  0  0  0  0  0  0  0
  196.3800  172.0100  145.3040 C   0  0  0  0  0  1  0  0  0  0  0  0
  195.3190  172.6050  144.4490 C   0  0  0  0  0  0  0  0  0  0  0  0
  194.3660  173.4790  142.7500 N   0  0  0  0  0  2  0  0  0  0  0  0
  189.9520  172.8230  144.7900 C   0  0  0  0  0  0  0  0  0  0  0  0
  189.3650  172.8260  143.4940 N   0  0  0  0  0  1  0  0  0  0  0  0
  189.3170  172.3400  145.7630 O   0  0  0  0  0  0  0  0  0  0  0  0
  186.9680  177.2450  143.1390 C   0  0  2  0  0  3  0  0  0  0  0  0
  185.4510  177.1650  143.1740 C   0  0  0  0  0  1  0  0  0  0  0  0
  188.3190  174.6920  140.5530 C   0  0  0  0  0  1  0  0  0  0  0  0
  187.5120  176.0460  142.5170 N   0  0  0  0  0  2  0  0  0  0  0  0
  187.7330  175.9390  141.1090 C   0  0  0  0  0  0  0  0  0  0  0  0
  187.4420  176.8880  140.3350 O   0  0  0  0  0  0  0  0  0  0  0  0
  2  4  1  0  0  0  0
  2  1  2  0  0  0  0
  3 10  1  0  0  0  0
  4 13  2  0  0  0  0
  5 15  1  0  0  0  0
  5 16  1  0  0  0  0
  6 23  1  6  0  0  0
  6 11  1  0  0  0  0
  7 12  1  0  0  0  0
  8  3  2  0  0  0  0
  8 11  1  0  0  0  0
  9  5  2  0  0  0  0
 10 12  1  0  0  0  0
 13  3  1  0  0  0  0
 14 26  1  6  0  0  0
 14 13  1  0  0  0  0
 14  7  1  0  0  0  0
 15 17  1  1  0  0  0
 15  6  1  0  0  0  0
 16  1  1  6  0  0  0
 16  8  1  0  0  0  0
 17 19  2  0  0  0  0
 18 21  2  0  0  0  0
 21 19  1  0  0  0  0
 21 20  1  0  0  0  0
 22 18  1  0  0  0  0
 22 17  1  0  0  0  0
 23 25  2  0  0  0  0
 24 23  1  0  0  0  0
 26 27  1  1  0  0  0
 28 30  1  0  0  0  0
 29 26  1  0  0  0  0
 30 29  1  0  0  0  0
 31 30  2  0  0  0  0
M  END
>  <MODEL>
5

>  <REMARK>
 VINA RESULT:      -7.0      2.318      6.919
  Name = 
  4 active torsions:
  status: ('A' for Active; 'I' for Inactive)
    1  A    between atoms: C_3  and  C_28
    2  A    between atoms: C_4  and  C_10
    3  A    between atoms: N_7  and  C_12
    4  A    between atoms: C_12  and  C_23
                            x       y       z     vdW  Elec       q    Type
                         _______ _______ _______ _____ _____    ______ ____

>  <TORSDO>
F 4

$$$$
=
 OpenBabel11062421243D

 31 34  0  0  1  0  0  0  0  0999 V2000
  189.6530  173.2690  144.7700 C   0  0  0  0  0  3  0  0  0  0  0  0
  190.7050  172.4660  144.7680 C   0  0  0  0  0  2  0  0  0  0  0  0
  192.0030  175.2530  145.4990 C   0  0  0  0  0  0  0  0  0  0  0  0
  192.1050  172.8780  144.6320 C   0  0  0  0  0  3  0  0  0  0  0  0
  189.4740  175.3320  143.2290 C   0  0  0  0  0  0  0  0  0  0  0  0
  189.9250  177.6490  144.2020 C   0  0  2  0  0  3  0  0  0  0  0  0
  194.8980  175.3200  145.2170 C   0  0  0  0  0  2  0  0  0  0  0  0
  190.6930  175.5540  145.3460 C   0  0  0  0  0  0  0  0  0  0  0  0
  189.5350  174.6550  142.2150 O   0  0  0  0  0  0  0  0  0  0  0  0
  192.8630  176.2670  146.2190 C   0  0  0  0  0  2  0  0  0  0  0  0
  190.1900  176.9550  145.5600 C   0  0  0  0  0  2  0  0  0  0  0  0
  194.2590  175.7500  146.5220 C   0  0  0  0  0  2  0  0  0  0  0  0
  192.6820  174.0620  144.8730 C   0  0  0  0  0  0  0  0  0  0  0  0
  194.1890  174.0920  144.6510 C   0  0  1  0  0  3  0  0  0  0  0  0
  189.1450  176.8040  143.1620 C   0  0  2  0  0  3  0  0  0  0  0  0
  189.7140  174.7450  144.5790 C   0  0  0  0  0  0  0  0  0  0  0  0
  187.6730  177.0190  143.3080 C   0  0  0  0  0  0  0  0  0  0  0  0
  185.5670  176.8010  143.0120 N   0  0  0  0  0  0  0  0  0  0  0  0
  187.1410  177.9620  144.1070 N   0  0  0  0  0  0  0  0  0  0  0  0
  184.7670  178.5980  144.5500 C   0  0  0  0  0  1  0  0  0  0  0  0
  185.8240  177.7840  143.8920 C   0  0  0  0  0  0  0  0  0  0  0  0
  186.7380  176.3170  142.6390 N   0  0  0  0  0  2  0  0  0  0  0  0
  191.1690  178.2400  143.6190 C   0  0  0  0  0  0  0  0  0  0  0  0
  192.0070  177.4750  142.7610 N   0  0  0  0  0  1  0  0  0  0  0  0
  191.4730  179.4300  143.8900 O   0  0  0  0  0  0  0  0  0  0  0  0
  194.6280  173.8770  143.1920 C   0  0  2  0  0  3  0  0  0  0  0  0
  195.2380  172.5030  142.9700 C   0  0  0  0  0  1  0  0  0  0  0  0
  196.3050  176.7900  141.2620 C   0  0  0  0  0  1  0  0  0  0  0  0
  195.5600  174.9070  142.7590 N   0  0  0  0  0  2  0  0  0  0  0  0
  195.3190  175.7400  141.6230 C   0  0  0  0  0  0  0  0  0  0  0  0
  194.2800  175.5960  140.9260 O   0  0  0  0  0  0  0  0  0  0  0  0
  2  1  1  0  0  0  0
  3 10  1  0  0  0  0
  4  2  1  0  0  0  0
  4 13  2  0  0  0  0
  5 16  1  0  0  0  0
  6 23  1  6  0  0  0
  6 11  1  0  0  0  0
  7 12  1  0  0  0  0
  8  3  2  0  0  0  0
  8 11  1  0  0  0  0
  9  5  2  0  0  0  0
 10 12  1  0  0  0  0
 13  3  1  0  0  0  0
 14 26  1  6  0  0  0
 14 13  1  0  0  0  0
 14  7  1  0  0  0  0
 15  5  1  0  0  0  0
 15 17  1  1  0  0  0
 15  6  1  0  0  0  0
 16  1  2  0  0  0  0
 16  8  1  0  0  0  0
 17 19  2  0  0  0  0
 18 21  2  0  0  0  0
 21 19  1  0  0  0  0
 21 20  1  0  0  0  0
 22 18  1  0  0  0  0
 22 17  1  0  0  0  0
 23 25  2  0  0  0  0
 24 23  1  0  0  0  0
 26 27  1  1  0  0  0
 28 30  1  0  0  0  0
 29 26  1  0  0  0  0
 30 29  1  0  0  0  0
 31 30  2  0  0  0  0
M  END
>  <MODEL>
6

>  <REMARK>
 VINA RESULT:      -7.0      2.392      3.804
  Name = 
  4 active torsions:
  status: ('A' for Active; 'I' for Inactive)
    1  A    between atoms: C_3  and  C_28
    2  A    between atoms: C_4  and  C_10
    3  A    between atoms: N_7  and  C_12
    4  A    between atoms: C_12  and  C_23
                            x       y       z     vdW  Elec       q    Type
                         _______ _______ _______ _____ _____    ______ ____

>  <TORSDO>
F 4

$$$$
=
 OpenBabel11062421243D

 31 34  0  0  1  0  0  0  0  0999 V2000
  190.7460  174.8800  146.6440 C   0  0  0  0  0  3  0  0  0  0  0  0
  189.5710  175.4860  146.5810 C   0  0  0  0  0  2  0  0  0  0  0  0
  189.7640  174.1190  143.7390 C   0  0  0  0  0  0  0  0  0  0  0  0
  188.8450  175.8340  145.3560 C   0  0  0  0  0  3  0  0  0  0  0  0
  192.6620  175.3800  144.9890 C   0  0  0  0  0  0  0  0  0  0  0  0
  193.1050  173.7480  143.0770 C   0  0  2  0  0  3  0  0  0  0  0  0
  187.8510  175.1420  141.8000 C   0  0  0  0  0  2  0  0  0  0  0  0
  190.9310  173.7720  144.3270 C   0  0  0  0  0  0  0  0  0  0  0  0
  192.7290  176.5510  145.3270 O   0  0  0  0  0  0  0  0  0  0  0  0
  189.3470  173.3300  142.5170 C   0  0  0  0  0  2  0  0  0  0  0  0
  191.9280  172.8990  143.6150 C   0  0  0  0  0  2  0  0  0  0  0  0
  187.9360  173.6520  142.0580 C   0  0  0  0  0  2  0  0  0  0  0  0
  188.9410  175.3200  144.1230 C   0  0  0  0  0  0  0  0  0  0  0  0
  187.9760  175.9220  143.1070 C   0  0  1  0  0  3  0  0  0  0  0  0
  193.7000  174.7740  144.0750 C   0  0  2  0  0  3  0  0  0  0  0  0
  191.5630  174.4900  145.4620 C   0  0  0  0  0  0  0  0  0  0  0  0
  194.8020  174.1550  144.8730 C   0  0  0  0  0  0  0  0  0  0  0  0
  196.4860  173.9690  146.1760 N   0  0  0  0  0  0  0  0  0  0  0  0
  195.0700  172.8360  144.8590 N   0  0  0  0  0  0  0  0  0  0  0  0
  196.8280  171.5000  146.0260 C   0  0  0  0  0  1  0  0  0  0  0  0
  196.1270  172.7680  145.6900 C   0  0  0  0  0  0  0  0  0  0  0  0
  195.6490  174.8480  145.6560 N   0  0  0  0  0  2  0  0  0  0  0  0
  192.7890  174.3750  141.7560 C   0  0  0  0  0  0  0  0  0  0  0  0
  192.3770  173.5790  140.6520 N   0  0  0  0  0  1  0  0  0  0  0  0
  192.8870  175.6220  141.6260 O   0  0  0  0  0  0  0  0  0  0  0  0
  188.2180  177.4080  142.7940 C   0  0  2  0  0  3  0  0  0  0  0  0
  189.6790  177.7980  142.9380 C   0  0  0  0  0  1  0  0  0  0  0  0
  185.3660  179.6910  144.0940 C   0  0  0  0  0  1  0  0  0  0  0  0
  187.3930  178.2690  143.6290 N   0  0  0  0  0  2  0  0  0  0  0  0
  186.1680  178.8460  143.1710 C   0  0  0  0  0  0  0  0  0  0  0  0
  185.7590  178.6460  141.9980 O   0  0  0  0  0  0  0  0  0  0  0  0
  2  1  1  0  0  0  0
  3 13  1  0  0  0  0
  3  8  2  0  0  0  0
  4  2  1  0  0  0  0
  5  9  2  0  0  0  0
  5 16  1  0  0  0  0
  6 23  1  6  0  0  0
  6 11  1  0  0  0  0
  6 15  1  0  0  0  0
  7 12  1  0  0  0  0
  7 14  1  0  0  0  0
  8 16  1  0  0  0  0
 10  3  1  0  0  0  0
 11  8  1  0  0  0  0
 12 10  1  0  0  0  0
 13  4  2  0  0  0  0
 14 26  1  6  0  0  0
 14 13  1  0  0  0  0
 15 17  1  1  0  0  0
 15  5  1  0  0  0  0
 16  1  2  0  0  0  0
 17 22  1  0  0  0  0
 19 17  2  0  0  0  0
 19 21  1  0  0  0  0
 21 20  1  0  0  0  0
 21 18  2  0  0  0  0
 22 18  1  0  0  0  0
 24 23  1  0  0  0  0
 25 23  2  0  0  0  0
 26 27  1  1  0  0  0
 26 29  1  0  0  0  0
 30 29  1  0  0  0  0
 30 28  1  0  0  0  0
 31 30  2  0  0  0  0
M  END
>  <MODEL>
7

>  <REMARK>
 VINA RESULT:      -7.0      2.602      7.221
  Name = 
  4 active torsions:
  status: ('A' for Active; 'I' for Inactive)
    1  A    between atoms: C_3  and  C_28
    2  A    between atoms: C_4  and  C_10
    3  A    between atoms: N_7  and  C_12
    4  A    between atoms: C_12  and  C_23
                            x       y       z     vdW  Elec       q    Type
                         _______ _______ _______ _____ _____    ______ ____

>  <TORSDO>
F 4

$$$$
=
 OpenBabel11062421243D

 31 34  0  0  1  0  0  0  0  0999 V2000
  188.5670  177.0260  141.9510 C   0  0  0  0  0  3  0  0  0  0  0  0
  188.3500  177.8100  142.9950 C   0  0  0  0  0  2  0  0  0  0  0  0
  190.7580  176.0270  143.9960 C   0  0  0  0  0  0  0  0  0  0  0  0
  188.7710  177.5470  144.3740 C   0  0  0  0  0  3  0  0  0  0  0  0
  188.4270  174.4530  142.0890 C   0  0  0  0  0  0  0  0  0  0  0  0
  190.5880  173.1000  142.2240 C   0  0  2  0  0  3  0  0  0  0  0  0
  191.1970  176.1370  146.8700 C   0  0  0  0  0  2  0  0  0  0  0  0
  190.5180  175.5500  142.7540 C   0  0  0  0  0  0  0  0  0  0  0  0
  187.2500  174.4740  142.4120 O   0  0  0  0  0  0  0  0  0  0  0  0
  192.0850  175.6670  144.6280 C   0  0  0  0  0  2  0  0  0  0  0  0
  191.3550  174.4440  142.1740 C   0  0  0  0  0  2  0  0  0  0  0  0
  192.3460  176.4160  145.9230 C   0  0  0  0  0  2  0  0  0  0  0  0
  189.7440  176.7540  144.8410 C   0  0  0  0  0  0  0  0  0  0  0  0
  189.9090  176.7750  146.3560 C   0  0  1  0  0  3  0  0  0  0  0  0
  189.1150  173.1540  141.7430 C   0  0  2  0  0  3  0  0  0  0  0  0
  189.2410  175.7010  142.0130 C   0  0  0  0  0  0  0  0  0  0  0  0
  189.0310  172.8920  140.2740 C   0  0  0  0  0  0  0  0  0  0  0  0
  188.4230  173.0530  138.2310 N   0  0  0  0  0  0  0  0  0  0  0  0
  189.7260  171.9180  139.6580 N   0  0  0  0  0  0  0  0  0  0  0  0
  189.7930  171.2020  137.2670 C   0  0  0  0  0  1  0  0  0  0  0  0
  189.3160  172.0600  138.3840 C   0  0  0  0  0  0  0  0  0  0  0  0
  188.2400  173.5790  139.4290 N   0  0  0  0  0  2  0  0  0  0  0  0
  190.7150  172.4290  143.5550 C   0  0  0  0  0  0  0  0  0  0  0  0
  191.9890  172.0520  144.0620 N   0  0  0  0  0  1  0  0  0  0  0  0
  189.6790  172.1990  144.2320 O   0  0  0  0  0  0  0  0  0  0  0  0
  188.7110  176.2120  147.1390 C   0  0  2  0  0  3  0  0  0  0  0  0
  188.9190  174.7630  147.5480 C   0  0  0  0  0  1  0  0  0  0  0  0
  185.1210  177.1660  146.0320 C   0  0  0  0  0  1  0  0  0  0  0  0
  187.4740  176.3400  146.3840 N   0  0  0  0  0  2  0  0  0  0  0  0
  186.3380  177.0550  146.8760 C   0  0  0  0  0  0  0  0  0  0  0  0
  186.3580  177.5950  148.0130 O   0  0  0  0  0  0  0  0  0  0  0  0
  1 16  2  0  0  0  0
  1  2  1  0  0  0  0
  2  4  1  0  0  0  0
  3 10  1  0  0  0  0
  3 13  1  0  0  0  0
  4 13  2  0  0  0  0
  5  9  2  0  0  0  0
  6 23  1  1  0  0  0
  8  3  2  0  0  0  0
 10 12  1  0  0  0  0
 11  6  1  0  0  0  0
 11  8  1  0  0  0  0
 12  7  1  0  0  0  0
 13 14  1  0  0  0  0
 14  7  1  0  0  0  0
 14 26  1  1  0  0  0
 15 17  1  6  0  0  0
 15  5  1  0  0  0  0
 15  6  1  0  0  0  0
 16  5  1  0  0  0  0
 16  8  1  0  0  0  0
 18 21  2  0  0  0  0
 18 22  1  0  0  0  0
 19 17  2  0  0  0  0
 20 21  1  0  0  0  0
 21 19  1  0  0  0  0
 22 17  1  0  0  0  0
 23 24  1  0  0  0  0
 23 25  2  0  0  0  0
 26 27  1  6  0  0  0
 28 30  1  0  0  0  0
 29 30  1  0  0  0  0
 29 26  1  0  0  0  0
 30 31  2  0  0  0  0
M  END
>  <MODEL>
8

>  <REMARK>
 VINA RESULT:      -6.9      2.344      6.451
  Name = 
  4 active torsions:
  status: ('A' for Active; 'I' for Inactive)
    1  A    between atoms: C_3  and  C_28
    2  A    between atoms: C_4  and  C_10
    3  A    between atoms: N_7  and  C_12
    4  A    between atoms: C_12  and  C_23
                            x       y       z     vdW  Elec       q    Type
                         _______ _______ _______ _____ _____    ______ ____

>  <TORSDO>
F 4

$$$$
=
 OpenBabel11062421243D

 31 34  0  0  1  0  0  0  0  0999 V2000
  188.2520  174.8290  141.7700 C   0  0  0  0  0  3  0  0  0  0  0  0
  189.1310  174.2270  140.9850 C   0  0  0  0  0  3  0  0  0  0  0  0
  190.4890  173.9600  143.8260 C   0  0  0  0  0  0  0  0  0  0  0  0
  190.5430  173.9870  141.2960 C   0  0  0  0  0  3  0  0  0  0  0  0
  188.8530  176.8780  143.2200 C   0  0  0  0  0  0  0  0  0  0  0  0
  189.2760  176.5470  145.7160 C   0  0  2  0  0  3  0  0  0  0  0  0
  193.3030  173.2290  143.7280 C   0  0  0  0  0  2  0  0  0  0  0  0
  189.3500  174.6390  144.0920 C   0  0  0  0  0  0  0  0  0  0  0  0
  189.1430  177.5560  142.2480 O   0  0  0  0  0  0  0  0  0  0  0  0
  191.2020  173.3250  144.9990 C   0  0  0  0  0  2  0  0  0  0  0  0
  188.9980  175.0400  145.4970 C   0  0  0  0  0  2  0  0  0  0  0  0
  192.3450  172.4180  144.5750 C   0  0  0  0  0  2  0  0  0  0  0  0
  191.1660  173.9270  142.4800 C   0  0  0  0  0  0  0  0  0  0  0  0
  192.6550  173.6120  142.3990 C   0  0  1  0  0  3  0  0  0  0  0  0
  188.7630  177.4910  144.5970 C   0  0  2  0  0  3  0  0  0  0  0  0
  188.5680  175.4180  143.1000 C   0  0  2  0  0  3  0  0  0  0  0  0
  187.3650  177.9340  144.8830 C   0  0  0  0  0  0  0  0  0  0  0  0
  185.4580  178.8670  144.6350 N   0  0  0  0  0  0  0  0  0  0  0  0
  186.7330  177.6760  146.0430 N   0  0  0  0  0  0  0  0  0  0  0  0
  184.4490  178.2900  146.8450 C   0  0  0  0  0  1  0  0  0  0  0  0
  185.5440  178.2760  145.8390 C   0  0  0  0  0  0  0  0  0  0  0  0
  186.6120  178.6540  144.0300 N   0  0  0  0  0  2  0  0  0  0  0  0
  190.7090  176.8120  146.0540 C   0  0  0  0  0  0  0  0  0  0  0  0
  191.1830  176.6640  147.3870 N   0  0  0  0  0  1  0  0  0  0  0  0
  191.5030  177.1650  145.1440 O   0  0  0  0  0  0  0  0  0  0  0  0
  193.5040  174.6930  141.7090 C   0  0  2  0  0  3  0  0  0  0  0  0
  193.9410  174.2800  140.3140 C   0  0  0  0  0  1  0  0  0  0  0  0
  196.6300  176.5030  143.1150 C   0  0  0  0  0  1  0  0  0  0  0  0
  194.6680  175.0450  142.5080 N   0  0  0  0  0  2  0  0  0  0  0  0
  195.4730  176.1940  142.2360 C   0  0  0  0  0  0  0  0  0  0  0  0
  195.2130  176.9490  141.2630 O   0  0  0  0  0  0  0  0  0  0  0  0
  2  4  1  0  0  0  0
  2  1  2  0  0  0  0
  3  8  2  0  0  0  0
  3 10  1  0  0  0  0
  4 13  2  0  0  0  0
  5 15  1  0  0  0  0
  6 23  1  6  0  0  0
  7 12  1  0  0  0  0
  8 11  1  0  0  0  0
  9  5  2  0  0  0  0
 11  6  1  0  0  0  0
 12 10  1  0  0  0  0
 13  3  1  0  0  0  0
 14 26  1  1  0  0  0
 14 13  1  0  0  0  0
 14  7  1  0  0  0  0
 15 17  1  1  0  0  0
 15  6  1  0  0  0  0
 16  1  1  6  0  0  0
 16  5  1  0  0  0  0
 16  8  1  0  0  0  0
 17 19  2  0  0  0  0
 18 21  2  0  0  0  0
 21 19  1  0  0  0  0
 21 20  1  0  0  0  0
 22 18  1  0  0  0  0
 22 17  1  0  0  0  0
 23 24  1  0  0  0  0
 25 23  2  0  0  0  0
 26 27  1  6  0  0  0
 26 29  1  0  0  0  0
 30 29  1  0  0  0  0
 30 28  1  0  0  0  0
 31 30  2  0  0  0  0
M  END
>  <MODEL>
9

>  <REMARK>
 VINA RESULT:      -6.9      2.478      4.411
  Name = 
  4 active torsions:
  status: ('A' for Active; 'I' for Inactive)
    1  A    between atoms: C_3  and  C_28
    2  A    between atoms: C_4  and  C_10
    3  A    between atoms: N_7  and  C_12
    4  A    between atoms: C_12  and  C_23
                            x       y       z     vdW  Elec       q    Type
                         _______ _______ _______ _____ _____    ______ ____

>  <TORSDO>
F 4

$$$$
