=
 OpenBabel11072409193D

 64 72  0  0  1  0  0  0  0  0999 V2000
  195.6400  171.5120  143.9860 C   0  0  2  0  0  0  0  0  0  0  0  0
  195.2670  170.8570  145.1890 O   0  0  0  0  0  1  0  0  0  0  0  0
  196.6740  169.0370  141.4070 O   0  0  0  0  0  0  0  0  0  0  0  0
  197.3590  170.1470  140.9730 C   0  0  0  0  0  0  0  0  0  0  0  0
  195.4000  168.5830  143.2840 O   0  0  0  0  0  0  0  0  0  0  0  0
  197.5350  171.2340  142.0570 C   0  0  2  0  0  3  0  0  0  0  0  0
  196.7840  170.6160  143.2970 C   0  0  2  0  0  3  0  0  0  0  0  0
  196.2850  169.3010  142.7260 C   0  0  0  0  0  0  0  0  0  0  0  0
  197.9390  170.1670  139.8390 O   0  0  0  0  0  0  0  0  0  0  0  0
  196.9730  172.6220  141.6090 C   0  0  0  0  0  2  0  0  0  0  0  0
  196.2810  172.3210  140.2640 C   0  0  0  0  0  2  0  0  0  0  0  0
  194.9380  172.7970  140.0850 O   0  0  0  0  0  0  0  0  0  0  0  0
  193.3770  174.6200  141.4800 C   0  0  0  0  0  2  0  0  0  0  0  0
  193.0020  174.1650  138.8780 C   0  0  0  0  0  1  0  0  0  0  0  0
  194.7350  174.0660  140.8330 C   0  0  2  0  0  0  0  0  0  0  0  0
  193.2190  173.7060  140.3770 C   0  0  1  0  0  3  0  0  0  0  0  0
  196.7190  176.0660  140.9680 C   0  0  0  0  0  2  0  0  0  0  0  0
  195.3390  176.6460  141.2780 C   0  0  0  0  0  2  0  0  0  0  0  0
  195.4180  175.4370  140.2540 C   0  0  0  0  0  3  0  0  0  0  0  0
  196.1750  172.9070  144.3720 C   0  0  0  0  0  2  0  0  0  0  0  0
  195.1890  174.0910  144.4310 C   0  0  0  0  0  2  0  0  0  0  0  0
  195.5160  174.9600  145.6600 C   0  0  2  0  0  3  0  0  0  0  0  0
  196.2220  174.1920  146.6450 O   0  0  0  0  0  1  0  0  0  0  0  0
  194.3210  175.6830  146.2570 C   0  0  1  0  0  3  0  0  0  0  0  0
  194.4240  177.1850  146.2150 C   0  0  0  0  0  1  0  0  0  0  0  0
  193.1870  175.1270  145.6560 O   0  0  0  0  0  0  0  0  0  0  0  0
  188.4560  176.1460  145.3230 C   0  0  0  0  0  2  0  0  0  0  0  0
  191.0750  176.7970  144.5060 C   0  0  0  0  0  3  0  0  0  0  0  0
  190.0800  177.5050  143.9770 C   0  0  0  0  0  3  0  0  0  0  0  0
  189.5680  175.9260  146.3220 C   0  0  1  0  0  3  0  0  0  0  0  0
  189.2900  174.7420  147.2750 C   0  0  0  0  0  1  0  0  0  0  0  0
  188.7180  177.4480  144.6580 C   0  0  1  0  0  3  0  0  0  0  0  0
  190.9290  175.9590  145.7270 C   0  0  0  0  0  0  0  0  0  0  0  0
  191.9070  175.2430  146.2400 C   0  0  0  0  0  3  0  0  0  0  0  0
  186.2780  177.5360  144.2260 O   0  0  0  0  0  0  0  0  0  0  0  0
  187.5430  177.8390  143.8730 C   0  0  0  0  0  0  0  0  0  0  0  0
  185.3940  177.8410  143.2350 N   0  0  0  0  0  2  0  0  0  0  0  0
  186.2440  178.4310  142.1770 C   0  0  1  0  0  3  0  0  0  0  0  0
  187.6110  178.1670  142.6190 N   0  0  0  0  0  0  0  0  0  0  0  0
  185.9670  177.7100  140.8610 C   0  0  0  0  0  1  0  0  0  0  0  0
  194.4280  171.5890  143.1940 O   0  0  0  0  0  0  0  0  0  0  0  0
  193.1940  171.1600  143.7610 C   0  0  0  0  0  2  0  0  0  0  0  0
  187.8990  173.3370  138.0950 O   0  0  0  0  0  0  0  0  0  0  0  0
  192.2850  170.0520  140.1740 C   0  0  0  0  0  2  0  0  0  0  0  0
  188.3470  174.7170  139.9680 C   0  0  0  0  0  3  0  0  0  0  0  0
  189.4920  173.6000  143.3160 C   0  0  0  0  0  3  0  0  0  0  0  0
  191.1930  172.2520  136.7290 O   0  0  0  0  0  1  0  0  0  0  0  0
  190.9540  170.1880  139.3160 C   0  0  2  0  0  0  0  0  0  0  0  0
  190.1170  170.2350  137.0800 C   0  0  0  0  0  2  0  0  0  0  0  0
  188.5510  173.4720  139.1610 C   0  0  0  0  0  0  0  0  0  0  0  0
  190.4900  171.6990  138.9740 C   0  0  2  0  0  3  0  0  0  0  0  0
  189.2920  172.2540  139.7500 C   0  0  1  0  0  3  0  0  0  0  0  0
  191.9360  168.8250  142.1430 O   0  0  0  0  0  0  0  0  0  0  0  0
  192.1770  171.1550  142.6330 C   0  0  1  0  0  3  0  0  0  0  0  0
  189.1760  173.5700  141.9460 C   0  0  0  0  0  0  0  0  0  0  0  0
  192.1490  169.9170  141.6630 C   0  0  0  0  0  0  0  0  0  0  0  0
  190.0700  171.4060  141.8010 C   0  0  0  0  0  3  0  0  0  0  0  0
  189.4420  172.4250  141.1930 C   0  0  0  0  0  0  0  0  0  0  0  0
  190.7760  171.5690  142.9610 C   0  0  0  0  0  0  0  0  0  0  0  0
  188.5330  174.7200  141.2830 C   0  0  0  0  0  3  0  0  0  0  0  0
  189.9110  169.4610  139.9040 F   0  0  0  0  0  0  0  0  0  0  0  0
  190.4390  172.6230  143.7800 C   0  0  0  0  0  3  0  0  0  0  0  0
  190.1390  171.6880  137.4730 C   0  0  1  0  0  3  0  0  0  0  0  0
  191.1480  169.5800  137.9690 C   0  0  0  0  0  2  0  0  0  0  0  0
  1 20  1  0  0  0  0
  1  2  1  1  0  0  0
  3  8  1  0  0  0  0
  4  3  1  0  0  0  0
  4  6  1  0  0  0  0
  6 10  1  6  0  0  0
  6  7  1  0  0  0  0
  7  1  1  6  0  0  0
  8  5  2  0  0  0  0
  8  7  1  0  0  0  0
  9  4  2  0  0  0  0
 11 10  1  0  0  0  0
 12 11  1  0  0  0  0
 15 12  1  1  0  0  0
 15 13  1  0  0  0  0
 16 14  1  6  0  0  0
 16 15  1  0  0  0  0
 16 13  1  0  0  0  0
 17 18  1  0  0  0  0
 19 15  1  0  0  0  0
 19 17  1  0  0  0  0
 19 18  1  0  0  0  0
 20 21  1  0  0  0  0
 21 22  1  0  0  0  0
 22 24  1  0  0  0  0
 22 23  1  1  0  0  0
 24 25  1  6  0  0  0
 26 34  1  0  0  0  0
 26 24  1  0  0  0  0
 27 30  1  0  0  0  0
 28 33  1  0  0  0  0
 29 28  2  0  0  0  0
 29 32  1  0  0  0  0
 30 31  1  6  0  0  0
 32 36  1  6  0  0  0
 32 27  1  0  0  0  0
 33 34  2  0  0  0  0
 33 30  1  0  0  0  0
 36 35  1  0  0  0  0
 37 35  1  0  0  0  0
 38 40  1  6  0  0  0
 38 39  1  0  0  0  0
 38 37  1  0  0  0  0
 39 36  2  0  0  0  0
 41 42  1  0  0  0  0
 41  1  1  0  0  0  0
 43 50  2  0  0  0  0
 44 56  1  0  0  0  0
 45 60  2  0  0  0  0
 46 62  1  0  0  0  0
 47 63  1  0  0  0  0
 48 61  1  1  0  0  0
 48 44  1  0  0  0  0
 49 63  1  0  0  0  0
 49 64  1  0  0  0  0
 50 52  1  0  0  0  0
 50 45  1  0  0  0  0
 51 48  1  0  0  0  0
 51 52  1  0  0  0  0
 52 58  1  0  0  0  0
 54 59  1  0  0  0  0
 54 42  1  0  0  0  0
 55 46  2  0  0  0  0
 56 53  2  0  0  0  0
 56 54  1  0  0  0  0
 57 59  1  0  0  0  0
 58 57  2  0  0  0  0
 58 55  1  0  0  0  0
 59 62  2  0  0  0  0
 60 55  1  0  0  0  0
 63 51  1  0  0  0  0
 64 48  1  0  0  0  0
M  END
>  <MODEL>
1

>  <REMARK>
 VINA RESULT:      -7.1      0.000      0.000
  Name = 
  16 active torsions:
  status: ('A' for Active; 'I' for Inactive)
    1  A    between atoms: O_9  and  C_38
    2  A    between atoms: O_9  and  C_64
    3  A    between atoms: C_10  and  C_16
    4  A    between atoms: C_10  and  C_41
    5  A    between atoms: O_11  and  C_22
    6  A    between atoms: O_11  and  C_46
    7  A    between atoms: C_13  and  C_38
    8  A    between atoms: C_13  and  C_41
    9  A    between atoms: C_16  and  C_36
   10  A    between atoms: C_16  and  O_49
   11  A    between atoms: C_18  and  C_20
   12  A    between atoms: C_18  and  C_22
   13  A    between atoms: C_19  and  C_57
   14  A    between atoms: C_23  and  C_31
   15  A    between atoms: C_23  and  O_49
   16  A    between atoms: C_46  and  C_47
                            x       y       z     vdW  Elec       q    Type
                         _______ _______ _______ _____ _____    ______ ____

>  <TORSDO>
F 16

$$$$
=
 OpenBabel11072409193D

 64 72  0  0  1  0  0  0  0  0999 V2000
  188.0440  175.6740  141.6490 C   0  0  2  0  0  0  0  0  0  0  0  0
  186.9950  174.8860  142.1930 O   0  0  0  0  0  1  0  0  0  0  0  0
  185.3750  177.6070  139.9230 O   0  0  0  0  0  0  0  0  0  0  0  0
  185.1180  177.9440  141.2310 C   0  0  0  0  0  0  0  0  0  0  0  0
  187.0570  176.4030  138.8880 O   0  0  0  0  0  0  0  0  0  0  0  0
  186.3090  177.6970  142.1840 C   0  0  2  0  0  3  0  0  0  0  0  0
  187.4010  177.0860  141.2260 C   0  0  2  0  0  3  0  0  0  0  0  0
  186.6630  177.0610  139.9000 C   0  0  0  0  0  0  0  0  0  0  0  0
  184.0580  178.5700  141.5580 O   0  0  0  0  0  0  0  0  0  0  0  0
  185.9320  176.7670  143.3820 C   0  0  0  0  0  2  0  0  0  0  0  0
  186.4750  177.5190  144.6150 C   0  0  0  0  0  2  0  0  0  0  0  0
  187.6740  177.0150  145.2260 O   0  0  0  0  0  0  0  0  0  0  0  0
  189.3240  177.7600  147.3300 C   0  0  0  0  0  2  0  0  0  0  0  0
  188.4600  175.2500  147.0540 C   0  0  0  0  0  1  0  0  0  0  0  0
  187.9630  177.7530  146.4830 C   0  0  2  0  0  0  0  0  0  0  0  0
  189.0990  176.5940  146.5130 C   0  0  1  0  0  3  0  0  0  0  0  0
  185.5430  178.7280  147.5550 C   0  0  0  0  0  2  0  0  0  0  0  0
  186.7310  179.1590  148.4140 C   0  0  0  0  0  2  0  0  0  0  0  0
  186.8300  177.7640  147.6660 C   0  0  0  0  0  3  0  0  0  0  0  0
  188.5940  174.9170  140.4220 C   0  0  0  0  0  2  0  0  0  0  0  0
  188.2780  173.4150  140.2720 C   0  0  0  0  0  2  0  0  0  0  0  0
  189.0160  172.8630  139.0380 C   0  0  2  0  0  3  0  0  0  0  0  0
  188.2400  173.0780  137.8500 O   0  0  0  0  0  1  0  0  0  0  0  0
  189.4650  171.4170  139.1650 C   0  0  1  0  0  3  0  0  0  0  0  0
  189.9810  170.8170  137.8840 C   0  0  0  0  0  1  0  0  0  0  0  0
  190.3340  171.3730  140.2600 O   0  0  0  0  0  0  0  0  0  0  0  0
  195.0300  172.4700  140.7920 C   0  0  0  0  0  2  0  0  0  0  0  0
  192.4380  173.4100  140.2010 C   0  0  0  0  0  3  0  0  0  0  0  0
  193.4190  174.3090  140.2240 C   0  0  0  0  0  3  0  0  0  0  0  0
  194.0940  171.5200  140.0850 C   0  0  1  0  0  3  0  0  0  0  0  0
  194.3520  170.0410  140.4520 C   0  0  0  0  0  1  0  0  0  0  0  0
  194.8560  173.8040  140.1620 C   0  0  1  0  0  3  0  0  0  0  0  0
  192.6690  171.9420  140.1120 C   0  0  0  0  0  0  0  0  0  0  0  0
  191.7000  171.0510  140.1090 C   0  0  0  0  0  3  0  0  0  0  0  0
  197.2020  174.3240  140.7700 O   0  0  0  0  0  0  0  0  0  0  0  0
  195.9170  174.7040  140.6240 C   0  0  0  0  0  0  0  0  0  0  0  0
  197.9410  175.2840  141.3930 N   0  0  0  0  0  2  0  0  0  0  0  0
  196.9740  176.3830  141.6110 C   0  0  1  0  0  3  0  0  0  0  0  0
  195.6780  175.7990  141.2760 N   0  0  0  0  0  0  0  0  0  0  0  0
  197.0070  176.7870  143.0820 C   0  0  0  0  0  1  0  0  0  0  0  0
  189.0290  175.7940  142.7060 O   0  0  0  0  0  0  0  0  0  0  0  0
  190.3530  176.2080  142.3840 C   0  0  0  0  0  2  0  0  0  0  0  0
  194.9870  170.3320  145.3660 O   0  0  0  0  0  0  0  0  0  0  0  0
  193.7430  175.9440  144.2160 C   0  0  0  0  0  2  0  0  0  0  0  0
  193.2010  169.8680  143.8800 C   0  0  0  0  0  3  0  0  0  0  0  0
  190.1180  171.8820  143.4290 C   0  0  0  0  0  3  0  0  0  0  0  0
  196.9170  173.1640  143.8990 O   0  0  0  0  0  1  0  0  0  0  0  0
  194.3570  174.8390  145.1810 C   0  0  2  0  0  0  0  0  0  0  0  0
  196.4130  173.9550  146.0120 C   0  0  0  0  0  2  0  0  0  0  0  0
  194.0480  170.8090  144.6800 C   0  0  0  0  0  0  0  0  0  0  0  0
  194.5920  173.3820  144.5200 C   0  0  2  0  0  3  0  0  0  0  0  0
  193.6130  172.2710  144.9120 C   0  0  1  0  0  3  0  0  0  0  0  0
  191.7600  176.8550  145.0770 O   0  0  0  0  0  0  0  0  0  0  0  0
  191.2880  175.3820  143.2510 C   0  0  1  0  0  3  0  0  0  0  0  0
  191.4130  171.5160  143.8370 C   0  0  0  0  0  0  0  0  0  0  0  0
  192.2550  176.1420  144.2320 C   0  0  0  0  0  0  0  0  0  0  0  0
  191.7400  173.6760  144.6920 C   0  0  0  0  0  3  0  0  0  0  0  0
  192.2160  172.4330  144.5180 C   0  0  0  0  0  0  0  0  0  0  0  0
  190.7170  174.1800  143.9370 C   0  0  0  0  0  0  0  0  0  0  0  0
  191.9390  170.1600  143.5900 C   0  0  0  0  0  3  0  0  0  0  0  0
  193.6060  174.7430  146.3600 F   0  0  0  0  0  0  0  0  0  0  0  0
  189.8380  173.2910  143.3620 C   0  0  0  0  0  3  0  0  0  0  0  0
  196.0100  172.9620  144.9560 C   0  0  1  0  0  3  0  0  0  0  0  0
  195.7240  175.2410  145.6150 C   0  0  0  0  0  2  0  0  0  0  0  0
  1  2  1  1  0  0  0
  1 41  1  0  0  0  0
  3  4  1  0  0  0  0
  4  9  2  0  0  0  0
  4  6  1  0  0  0  0
  5  8  2  0  0  0  0
  6 10  1  1  0  0  0
  7  1  1  1  0  0  0
  7  6  1  0  0  0  0
  8  3  1  0  0  0  0
  8  7  1  0  0  0  0
 10 11  1  0  0  0  0
 11 12  1  0  0  0  0
 15 12  1  6  0  0  0
 15 16  1  0  0  0  0
 15 13  1  0  0  0  0
 15 19  1  0  0  0  0
 16 14  1  1  0  0  0
 16 13  1  0  0  0  0
 17 19  1  0  0  0  0
 17 18  1  0  0  0  0
 19 18  1  0  0  0  0
 20  1  1  0  0  0  0
 21 20  1  0  0  0  0
 22 23  1  6  0  0  0
 22 24  1  0  0  0  0
 22 21  1  0  0  0  0
 24 25  1  6  0  0  0
 24 26  1  0  0  0  0
 28 29  2  0  0  0  0
 30 33  1  0  0  0  0
 30 31  1  1  0  0  0
 30 27  1  0  0  0  0
 32 29  1  0  0  0  0
 32 36  1  1  0  0  0
 32 27  1  0  0  0  0
 33 28  1  0  0  0  0
 34 33  2  0  0  0  0
 34 26  1  0  0  0  0
 35 37  1  0  0  0  0
 36 35  1  0  0  0  0
 36 39  2  0  0  0  0
 37 38  1  0  0  0  0
 38 40  1  1  0  0  0
 39 38  1  0  0  0  0
 42 41  1  0  0  0  0
 42 54  1  0  0  0  0
 44 56  1  0  0  0  0
 44 48  1  0  0  0  0
 45 50  1  0  0  0  0
 46 55  1  0  0  0  0
 47 63  1  0  0  0  0
 48 64  1  0  0  0  0
 48 61  1  1  0  0  0
 50 52  1  0  0  0  0
 50 43  2  0  0  0  0
 51 52  1  0  0  0  0
 51 63  1  0  0  0  0
 51 48  1  0  0  0  0
 54 59  1  0  0  0  0
 54 56  1  0  0  0  0
 55 58  2  0  0  0  0
 56 53  2  0  0  0  0
 58 57  1  0  0  0  0
 58 52  1  0  0  0  0
 59 57  2  0  0  0  0
 60 55  1  0  0  0  0
 60 45  2  0  0  0  0
 62 46  2  0  0  0  0
 62 59  1  0  0  0  0
 63 49  1  0  0  0  0
 64 49  1  0  0  0  0
M  END
>  <MODEL>
2

>  <REMARK>
 VINA RESULT:      -6.9      2.849      9.468
  Name = 
  16 active torsions:
  status: ('A' for Active; 'I' for Inactive)
    1  A    between atoms: O_9  and  C_38
    2  A    between atoms: O_9  and  C_64
    3  A    between atoms: C_10  and  C_16
    4  A    between atoms: C_10  and  C_41
    5  A    between atoms: O_11  and  C_22
    6  A    between atoms: O_11  and  C_46
    7  A    between atoms: C_13  and  C_38
    8  A    between atoms: C_13  and  C_41
    9  A    between atoms: C_16  and  C_36
   10  A    between atoms: C_16  and  O_49
   11  A    between atoms: C_18  and  C_20
   12  A    between atoms: C_18  and  C_22
   13  A    between atoms: C_19  and  C_57
   14  A    between atoms: C_23  and  C_31
   15  A    between atoms: C_23  and  O_49
   16  A    between atoms: C_46  and  C_47
                            x       y       z     vdW  Elec       q    Type
                         _______ _______ _______ _____ _____    ______ ____

>  <TORSDO>
F 16

$$$$
=
 OpenBabel11072409193D

 64 72  0  0  1  0  0  0  0  0999 V2000
  193.0350  174.5490  144.6630 C   0  0  2  0  0  0  0  0  0  0  0  0
  193.8060  174.1600  145.7900 O   0  0  0  0  0  1  0  0  0  0  0  0
  195.6170  177.2200  144.8590 O   0  0  0  0  0  0  0  0  0  0  0  0
  196.0810  176.5060  143.7790 C   0  0  0  0  0  0  0  0  0  0  0  0
  193.7010  177.0940  146.1500 O   0  0  0  0  0  0  0  0  0  0  0  0
  195.0130  175.6020  143.1250 C   0  0  2  0  0  3  0  0  0  0  0  0
  193.7460  175.8450  144.0310 C   0  0  2  0  0  3  0  0  0  0  0  0
  194.2910  176.8200  145.0590 C   0  0  0  0  0  0  0  0  0  0  0  0
  197.2300  176.7330  143.2810 O   0  0  0  0  0  0  0  0  0  0  0  0
  195.4580  174.1050  143.0550 C   0  0  0  0  0  2  0  0  0  0  0  0
  196.0150  173.9550  141.6250 C   0  0  0  0  0  2  0  0  0  0  0  0
  195.3980  174.7310  140.5860 O   0  0  0  0  0  0  0  0  0  0  0  0
  194.7660  174.4070  137.9020 C   0  0  0  0  0  2  0  0  0  0  0  0
  192.9060  174.2190  139.8070 C   0  0  0  0  0  1  0  0  0  0  0  0
  195.4610  174.0050  139.2900 C   0  0  2  0  0  0  0  0  0  0  0  0
  194.1330  174.9190  139.0920 C   0  0  1  0  0  3  0  0  0  0  0  0
  196.5890  171.4210  139.3760 C   0  0  0  0  0  2  0  0  0  0  0  0
  195.9380  171.6870  138.0180 C   0  0  0  0  0  2  0  0  0  0  0  0
  195.2920  172.3770  139.2930 C   0  0  0  0  0  3  0  0  0  0  0  0
  191.6160  174.8810  145.1730 C   0  0  0  0  0  2  0  0  0  0  0  0
  190.8020  175.9730  144.4500 C   0  0  0  0  0  2  0  0  0  0  0  0
  190.1730  176.9120  145.4970 C   0  0  2  0  0  3  0  0  0  0  0  0
  190.6150  176.5610  146.8160 O   0  0  0  0  0  1  0  0  0  0  0  0
  188.6600  177.0200  145.4190 C   0  0  1  0  0  3  0  0  0  0  0  0
  187.9890  177.2470  146.7480 C   0  0  0  0  0  1  0  0  0  0  0  0
  188.3870  177.9630  144.4220 O   0  0  0  0  0  0  0  0  0  0  0  0
  184.7920  178.2640  141.1790 C   0  0  0  0  0  2  0  0  0  0  0  0
  185.5160  178.2100  143.9040 C   0  0  0  0  0  3  0  0  0  0  0  0
  184.2240  178.3600  143.6210 C   0  0  0  0  0  3  0  0  0  0  0  0
  185.9980  177.4390  141.5580 C   0  0  1  0  0  3  0  0  0  0  0  0
  187.0630  177.3840  140.4390 C   0  0  0  0  0  1  0  0  0  0  0  0
  183.7530  178.0210  142.2120 C   0  0  1  0  0  3  0  0  0  0  0  0
  186.5210  177.7230  142.9200 C   0  0  0  0  0  0  0  0  0  0  0  0
  187.8020  177.5920  143.1920 C   0  0  0  0  0  3  0  0  0  0  0  0
  181.5730  179.1370  142.5960 O   0  0  0  0  0  0  0  0  0  0  0  0
  182.4770  178.5840  141.7620 C   0  0  0  0  0  0  0  0  0  0  0  0
  180.3990  179.4040  141.9570 N   0  0  0  0  0  2  0  0  0  0  0  0
  180.6580  178.9860  140.5610 C   0  0  1  0  0  3  0  0  0  0  0  0
  181.9360  178.2810  140.6230 N   0  0  0  0  0  0  0  0  0  0  0  0
  179.5510  178.0350  140.1160 C   0  0  0  0  0  1  0  0  0  0  0  0
  193.0440  173.4060  143.7720 O   0  0  0  0  0  0  0  0  0  0  0  0
  192.1270  172.3390  143.9940 C   0  0  0  0  0  2  0  0  0  0  0  0
  189.2080  172.1820  136.4880 O   0  0  0  0  0  0  0  0  0  0  0  0
  192.8320  170.3920  140.7340 C   0  0  0  0  0  2  0  0  0  0  0  0
  188.7120  173.9600  137.9740 C   0  0  0  0  0  3  0  0  0  0  0  0
  188.6040  173.7830  141.6780 C   0  0  0  0  0  3  0  0  0  0  0  0
  192.8850  171.5980  136.6780 O   0  0  0  0  0  1  0  0  0  0  0  0
  191.9320  170.0680  139.4640 C   0  0  2  0  0  0  0  0  0  0  0  0
  192.0290  169.5020  137.1460 C   0  0  0  0  0  2  0  0  0  0  0  0
  189.3730  172.6580  137.6400 C   0  0  0  0  0  0  0  0  0  0  0  0
  191.4450  171.3480  138.6030 C   0  0  2  0  0  3  0  0  0  0  0  0
  189.9790  171.7670  138.7440 C   0  0  1  0  0  3  0  0  0  0  0  0
  191.9090  169.5200  142.7060 O   0  0  0  0  0  0  0  0  0  0  0  0
  191.6370  171.8970  142.6270 C   0  0  1  0  0  3  0  0  0  0  0  0
  188.8510  173.4230  140.3410 C   0  0  0  0  0  0  0  0  0  0  0  0
  192.1480  170.5190  142.0640 C   0  0  0  0  0  0  0  0  0  0  0  0
  190.0040  171.5180  141.0820 C   0  0  0  0  0  3  0  0  0  0  0  0
  189.5350  172.2400  140.0520 C   0  0  0  0  0  0  0  0  0  0  0  0
  190.1770  172.0510  142.3300 C   0  0  0  0  0  0  0  0  0  0  0  0
  188.3720  174.2560  139.2230 C   0  0  0  0  0  3  0  0  0  0  0  0
  190.8460  169.2580  139.8230 F   0  0  0  0  0  0  0  0  0  0  0  0
  189.4160  173.1430  142.6780 C   0  0  0  0  0  3  0  0  0  0  0  0
  191.7080  170.9720  137.1310 C   0  0  1  0  0  3  0  0  0  0  0  0
  192.7100  169.2690  138.4750 C   0  0  0  0  0  2  0  0  0  0  0  0
  1 20  1  0  0  0  0
  1  2  1  1  0  0  0
  3  8  1  0  0  0  0
  4  3  1  0  0  0  0
  6 10  1  1  0  0  0
  6  4  1  0  0  0  0
  6  7  1  0  0  0  0
  7  1  1  1  0  0  0
  7  8  1  0  0  0  0
  8  5  2  0  0  0  0
  9  4  2  0  0  0  0
 11 10  1  0  0  0  0
 12 11  1  0  0  0  0
 13 16  1  0  0  0  0
 13 15  1  0  0  0  0
 15 19  1  0  0  0  0
 15 12  1  1  0  0  0
 16 15  1  0  0  0  0
 16 14  1  1  0  0  0
 18 19  1  0  0  0  0
 18 17  1  0  0  0  0
 19 17  1  0  0  0  0
 21 20  1  0  0  0  0
 21 22  1  0  0  0  0
 22 23  1  1  0  0  0
 24 22  1  0  0  0  0
 24 25  1  1  0  0  0
 26 24  1  0  0  0  0
 27 30  1  0  0  0  0
 27 32  1  0  0  0  0
 29 28  2  0  0  0  0
 30 31  1  6  0  0  0
 30 33  1  0  0  0  0
 32 36  1  6  0  0  0
 32 29  1  0  0  0  0
 33 34  2  0  0  0  0
 33 28  1  0  0  0  0
 34 26  1  0  0  0  0
 36 35  1  0  0  0  0
 37 35  1  0  0  0  0
 38 40  1  1  0  0  0
 38 39  1  0  0  0  0
 38 37  1  0  0  0  0
 39 36  2  0  0  0  0
 41 42  1  0  0  0  0
 41  1  1  0  0  0  0
 43 50  2  0  0  0  0
 44 56  1  0  0  0  0
 45 60  2  0  0  0  0
 46 62  1  0  0  0  0
 47 63  1  0  0  0  0
 48 61  1  1  0  0  0
 48 44  1  0  0  0  0
 49 64  1  0  0  0  0
 50 45  1  0  0  0  0
 50 52  1  0  0  0  0
 51 52  1  0  0  0  0
 51 48  1  0  0  0  0
 52 58  1  0  0  0  0
 54 42  1  0  0  0  0
 55 46  2  0  0  0  0
 56 54  1  0  0  0  0
 56 53  2  0  0  0  0
 57 59  1  0  0  0  0
 58 55  1  0  0  0  0
 58 57  2  0  0  0  0
 59 54  1  0  0  0  0
 59 62  2  0  0  0  0
 60 55  1  0  0  0  0
 63 49  1  0  0  0  0
 63 51  1  0  0  0  0
 64 48  1  0  0  0  0
M  END
>  <MODEL>
3

>  <REMARK>
 VINA RESULT:      -6.8      2.255      4.532
  Name = 
  16 active torsions:
  status: ('A' for Active; 'I' for Inactive)
    1  A    between atoms: O_9  and  C_38
    2  A    between atoms: O_9  and  C_64
    3  A    between atoms: C_10  and  C_16
    4  A    between atoms: C_10  and  C_41
    5  A    between atoms: O_11  and  C_22
    6  A    between atoms: O_11  and  C_46
    7  A    between atoms: C_13  and  C_38
    8  A    between atoms: C_13  and  C_41
    9  A    between atoms: C_16  and  C_36
   10  A    between atoms: C_16  and  O_49
   11  A    between atoms: C_18  and  C_20
   12  A    between atoms: C_18  and  C_22
   13  A    between atoms: C_19  and  C_57
   14  A    between atoms: C_23  and  C_31
   15  A    between atoms: C_23  and  O_49
   16  A    between atoms: C_46  and  C_47
                            x       y       z     vdW  Elec       q    Type
                         _______ _______ _______ _____ _____    ______ ____

>  <TORSDO>
F 16

$$$$
=
 OpenBabel11072409193D

 64 72  0  0  1  0  0  0  0  0999 V2000
  195.8490  171.4400  144.9330 C   0  0  2  0  0  0  0  0  0  0  0  0
  195.3800  170.7810  146.1000 O   0  0  0  0  0  1  0  0  0  0  0  0
  196.6880  168.3230  143.0830 O   0  0  0  0  0  0  0  0  0  0  0  0
  197.0140  169.2670  142.1370 C   0  0  0  0  0  0  0  0  0  0  0  0
  196.0250  168.4460  145.2960 O   0  0  0  0  0  0  0  0  0  0  0  0
  197.2320  170.6820  142.7190 C   0  0  2  0  0  3  0  0  0  0  0  0
  196.9430  170.4770  144.2550 C   0  0  2  0  0  3  0  0  0  0  0  0
  196.5890  169.0020  144.3030 C   0  0  0  0  0  0  0  0  0  0  0  0
  197.2840  168.9380  140.9380 O   0  0  0  0  0  0  0  0  0  0  0  0
  196.3160  171.7540  142.0450 C   0  0  0  0  0  2  0  0  0  0  0  0
  197.2740  172.5170  141.1070 C   0  0  0  0  0  2  0  0  0  0  0  0
  196.9320  173.8690  140.7650 O   0  0  0  0  0  0  0  0  0  0  0  0
  196.5720  175.2500  138.3840 C   0  0  0  0  0  2  0  0  0  0  0  0
  195.0750  175.7600  140.5330 C   0  0  0  0  0  1  0  0  0  0  0  0
  196.5420  173.9580  139.3340 C   0  0  2  0  0  0  0  0  0  0  0  0
  196.4540  175.5120  139.7960 C   0  0  1  0  0  3  0  0  0  0  0  0
  195.2130  171.6980  138.2930 C   0  0  0  0  0  2  0  0  0  0  0  0
  195.1740  172.8580  137.2990 C   0  0  0  0  0  2  0  0  0  0  0  0
  195.1690  173.2120  138.8450 C   0  0  0  0  0  3  0  0  0  0  0  0
  196.4790  172.7750  145.3850 C   0  0  0  0  0  2  0  0  0  0  0  0
  195.9120  174.0930  144.8210 C   0  0  0  0  0  2  0  0  0  0  0  0
  195.1010  174.8060  145.9190 C   0  0  2  0  0  3  0  0  0  0  0  0
  193.9270  174.0480  146.2480 O   0  0  0  0  0  1  0  0  0  0  0  0
  194.7690  176.2570  145.6170 C   0  0  1  0  0  3  0  0  0  0  0  0
  195.1770  176.7100  144.2400 C   0  0  0  0  0  1  0  0  0  0  0  0
  193.4210  176.4270  145.9480 O   0  0  0  0  0  0  0  0  0  0  0  0
  188.9390  177.7910  144.6860 C   0  0  0  0  0  2  0  0  0  0  0  0
  190.5490  176.3730  146.5160 C   0  0  0  0  0  3  0  0  0  0  0  0
  189.2400  176.4080  146.7580 C   0  0  0  0  0  3  0  0  0  0  0  0
  190.1900  177.1390  144.1470 C   0  0  1  0  0  3  0  0  0  0  0  0
  190.8080  177.9160  142.9620 C   0  0  0  0  0  1  0  0  0  0  0  0
  188.3120  176.8250  145.6240 C   0  0  1  0  0  3  0  0  0  0  0  0
  191.1510  176.7130  145.1980 C   0  0  0  0  0  0  0  0  0  0  0  0
  192.4460  176.6980  144.9630 C   0  0  0  0  0  3  0  0  0  0  0  0
  185.9830  176.4710  146.3940 O   0  0  0  0  0  0  0  0  0  0  0  0
  186.9670  177.2900  145.9760 C   0  0  0  0  0  0  0  0  0  0  0  0
  184.7860  177.1200  146.4670 N   0  0  0  0  0  2  0  0  0  0  0  0
  185.1180  178.5070  146.0730 C   0  0  1  0  0  3  0  0  0  0  0  0
  186.4880  178.4280  145.5750 N   0  0  0  0  0  0  0  0  0  0  0  0
  184.1740  178.9430  144.9550 C   0  0  0  0  0  1  0  0  0  0  0  0
  194.6780  171.6400  144.1020 O   0  0  0  0  0  0  0  0  0  0  0  0
  193.4010  171.2320  144.5830 C   0  0  0  0  0  2  0  0  0  0  0  0
  188.2410  173.8210  138.9660 O   0  0  0  0  0  0  0  0  0  0  0  0
  192.7680  170.5950  140.8270 C   0  0  0  0  0  2  0  0  0  0  0  0
  188.4810  174.9420  141.0400 C   0  0  0  0  0  3  0  0  0  0  0  0
  189.5410  173.4350  144.2600 C   0  0  0  0  0  3  0  0  0  0  0  0
  191.6770  173.1890  137.6660 O   0  0  0  0  0  1  0  0  0  0  0  0
  191.4750  170.7580  139.9150 C   0  0  2  0  0  0  0  0  0  0  0  0
  190.7510  171.0700  137.6620 C   0  0  0  0  0  2  0  0  0  0  0  0
  188.8250  173.8460  140.0790 C   0  0  0  0  0  0  0  0  0  0  0  0
  190.9080  172.2650  139.7630 C   0  0  2  0  0  3  0  0  0  0  0  0
  189.6320  172.6120  140.5340 C   0  0  1  0  0  3  0  0  0  0  0  0
  192.4190  169.0720  142.5770 O   0  0  0  0  0  0  0  0  0  0  0  0
  192.4470  171.3180  143.4050 C   0  0  1  0  0  3  0  0  0  0  0  0
  189.2990  173.5820  142.8830 C   0  0  0  0  0  0  0  0  0  0  0  0
  192.5680  170.2350  142.2700 C   0  0  0  0  0  0  0  0  0  0  0  0
  190.3710  171.5330  142.4890 C   0  0  0  0  0  3  0  0  0  0  0  0
  189.6940  172.5820  141.9930 C   0  0  0  0  0  0  0  0  0  0  0  0
  191.0020  171.5770  143.7020 C   0  0  0  0  0  0  0  0  0  0  0  0
  188.6000  174.7670  142.3510 C   0  0  0  0  0  3  0  0  0  0  0  0
  190.4660  169.8790  140.3300 F   0  0  0  0  0  0  0  0  0  0  0  0
  190.5400  172.4720  144.6390 C   0  0  0  0  0  3  0  0  0  0  0  0
  190.6360  172.4470  138.2570 C   0  0  1  0  0  3  0  0  0  0  0  0
  191.7860  170.3680  138.5110 C   0  0  0  0  0  2  0  0  0  0  0  0
  1 20  1  0  0  0  0
  1  2  1  1  0  0  0
  3  8  1  0  0  0  0
  4  6  1  0  0  0  0
  4  3  1  0  0  0  0
  6 10  1  6  0  0  0
  6  7  1  0  0  0  0
  7  8  1  0  0  0  0
  7  1  1  6  0  0  0
  8  5  2  0  0  0  0
  9  4  2  0  0  0  0
 11 10  1  0  0  0  0
 12 11  1  0  0  0  0
 13 15  1  0  0  0  0
 13 16  1  0  0  0  0
 15 16  1  0  0  0  0
 15 12  1  1  0  0  0
 16 14  1  6  0  0  0
 17 19  1  0  0  0  0
 18 17  1  0  0  0  0
 18 19  1  0  0  0  0
 19 15  1  0  0  0  0
 21 20  1  0  0  0  0
 21 22  1  0  0  0  0
 22 23  1  6  0  0  0
 24 25  1  6  0  0  0
 24 22  1  0  0  0  0
 24 26  1  0  0  0  0
 27 32  1  0  0  0  0
 28 29  2  0  0  0  0
 30 31  1  6  0  0  0
 30 27  1  0  0  0  0
 30 33  1  0  0  0  0
 32 36  1  1  0  0  0
 32 29  1  0  0  0  0
 33 28  1  0  0  0  0
 34 33  2  0  0  0  0
 34 26  1  0  0  0  0
 35 37  1  0  0  0  0
 36 35  1  0  0  0  0
 38 40  1  6  0  0  0
 38 37  1  0  0  0  0
 39 36  2  0  0  0  0
 39 38  1  0  0  0  0
 41 42  1  0  0  0  0
 41  1  1  0  0  0  0
 43 50  2  0  0  0  0
 44 56  1  0  0  0  0
 45 60  2  0  0  0  0
 46 62  1  0  0  0  0
 47 63  1  0  0  0  0
 48 61  1  1  0  0  0
 48 44  1  0  0  0  0
 49 63  1  0  0  0  0
 49 64  1  0  0  0  0
 50 52  1  0  0  0  0
 50 45  1  0  0  0  0
 51 48  1  0  0  0  0
 51 52  1  0  0  0  0
 52 58  1  0  0  0  0
 54 59  1  0  0  0  0
 54 42  1  0  0  0  0
 55 46  2  0  0  0  0
 56 53  2  0  0  0  0
 56 54  1  0  0  0  0
 57 59  1  0  0  0  0
 58 57  2  0  0  0  0
 58 55  1  0  0  0  0
 59 62  2  0  0  0  0
 60 55  1  0  0  0  0
 63 51  1  0  0  0  0
 64 48  1  0  0  0  0
M  END
>  <MODEL>
4

>  <REMARK>
 VINA RESULT:      -6.8      1.475      2.212
  Name = 
  16 active torsions:
  status: ('A' for Active; 'I' for Inactive)
    1  A    between atoms: O_9  and  C_38
    2  A    between atoms: O_9  and  C_64
    3  A    between atoms: C_10  and  C_16
    4  A    between atoms: C_10  and  C_41
    5  A    between atoms: O_11  and  C_22
    6  A    between atoms: O_11  and  C_46
    7  A    between atoms: C_13  and  C_38
    8  A    between atoms: C_13  and  C_41
    9  A    between atoms: C_16  and  C_36
   10  A    between atoms: C_16  and  O_49
   11  A    between atoms: C_18  and  C_20
   12  A    between atoms: C_18  and  C_22
   13  A    between atoms: C_19  and  C_57
   14  A    between atoms: C_23  and  C_31
   15  A    between atoms: C_23  and  O_49
   16  A    between atoms: C_46  and  C_47
                            x       y       z     vdW  Elec       q    Type
                         _______ _______ _______ _____ _____    ______ ____

>  <TORSDO>
F 16

$$$$
=
 OpenBabel11072409193D

 64 72  0  0  1  0  0  0  0  0999 V2000
  193.9840  173.9310  145.2110 C   0  0  2  0  0  0  0  0  0  0  0  0
  193.8170  173.1020  146.3520 O   0  0  0  0  0  1  0  0  0  0  0  0
  197.6200  174.0910  144.4400 O   0  0  0  0  0  0  0  0  0  0  0  0
  197.1770  175.2120  143.7780 C   0  0  0  0  0  0  0  0  0  0  0  0
  196.6030  172.5690  145.8550 O   0  0  0  0  0  0  0  0  0  0  0  0
  195.7990  175.7170  144.2610 C   0  0  2  0  0  3  0  0  0  0  0  0
  195.4070  174.6620  145.3650 C   0  0  2  0  0  3  0  0  0  0  0  0
  196.5980  173.7220  145.3220 C   0  0  0  0  0  0  0  0  0  0  0  0
  197.9360  175.8530  142.9810 O   0  0  0  0  0  0  0  0  0  0  0  0
  194.7610  175.8240  143.0970 C   0  0  0  0  0  2  0  0  0  0  0  0
  195.4390  176.7720  142.0870 C   0  0  0  0  0  2  0  0  0  0  0  0
  195.5890  176.3060  140.7360 O   0  0  0  0  0  0  0  0  0  0  0  0
  195.9890  173.5760  140.4360 C   0  0  0  0  0  2  0  0  0  0  0  0
  196.5610  175.2940  138.4760 C   0  0  0  0  0  1  0  0  0  0  0  0
  195.1100  174.9040  140.6160 C   0  0  2  0  0  0  0  0  0  0  0  0
  196.6000  174.7990  139.9800 C   0  0  1  0  0  3  0  0  0  0  0  0
  192.4720  173.9690  140.2630 C   0  0  0  0  0  2  0  0  0  0  0  0
  193.4740  173.0480  139.5670 C   0  0  0  0  0  2  0  0  0  0  0  0
  193.8260  174.5930  139.6490 C   0  0  0  0  0  3  0  0  0  0  0  0
  192.8250  174.9500  145.2130 C   0  0  0  0  0  2  0  0  0  0  0  0
  191.9560  175.0840  146.4800 C   0  0  0  0  0  2  0  0  0  0  0  0
  192.0310  176.5330  146.9950 C   0  0  2  0  0  3  0  0  0  0  0  0
  193.3490  176.8270  147.4780 O   0  0  0  0  0  1  0  0  0  0  0  0
  190.9620  176.8980  148.0110 C   0  0  1  0  0  3  0  0  0  0  0  0
  191.4110  177.8950  149.0470 C   0  0  0  0  0  1  0  0  0  0  0  0
  189.8250  177.2460  147.2750 O   0  0  0  0  0  0  0  0  0  0  0  0
  187.6530  178.1570  143.0330 C   0  0  0  0  0  2  0  0  0  0  0  0
  187.3630  177.2570  145.6900 C   0  0  0  0  0  3  0  0  0  0  0  0
  186.2610  177.3150  144.9440 C   0  0  0  0  0  3  0  0  0  0  0  0
  188.8230  177.4270  143.6480 C   0  0  1  0  0  3  0  0  0  0  0  0
  190.1860  177.9160  143.1060 C   0  0  0  0  0  1  0  0  0  0  0  0
  186.4230  177.4270  143.4330 C   0  0  1  0  0  3  0  0  0  0  0  0
  188.7400  177.2880  145.1260 C   0  0  0  0  0  0  0  0  0  0  0  0
  189.8300  177.2500  145.8630 C   0  0  0  0  0  3  0  0  0  0  0  0
  184.0430  178.0660  143.1640 O   0  0  0  0  0  0  0  0  0  0  0  0
  185.2850  177.9290  142.6580 C   0  0  0  0  0  0  0  0  0  0  0  0
  183.1350  178.3630  142.1920 N   0  0  0  0  0  2  0  0  0  0  0  0
  183.9540  178.4430  140.9620 C   0  0  1  0  0  3  0  0  0  0  0  0
  185.2620  177.9300  141.3610 N   0  0  0  0  0  0  0  0  0  0  0  0
  183.3350  177.5430  139.8970 C   0  0  0  0  0  1  0  0  0  0  0  0
  193.9260  173.0380  144.0700 O   0  0  0  0  0  0  0  0  0  0  0  0
  193.4570  171.7050  144.2490 C   0  0  0  0  0  2  0  0  0  0  0  0
  187.8330  172.6750  138.5650 O   0  0  0  0  0  0  0  0  0  0  0  0
  192.5080  170.0230  140.9040 C   0  0  0  0  0  2  0  0  0  0  0  0
  188.2470  174.3430  140.1970 C   0  0  0  0  0  3  0  0  0  0  0  0
  189.5790  173.8080  143.6180 C   0  0  0  0  0  3  0  0  0  0  0  0
  191.1480  171.6160  137.2270 O   0  0  0  0  0  1  0  0  0  0  0  0
  191.1420  169.9450  140.0940 C   0  0  2  0  0  0  0  0  0  0  0  0
  190.2290  169.6080  137.9140 C   0  0  0  0  0  2  0  0  0  0  0  0
  188.5100  173.0080  139.5700 C   0  0  0  0  0  0  0  0  0  0  0  0
  190.5620  171.3560  139.5580 C   0  0  2  0  0  3  0  0  0  0  0  0
  189.3540  171.9410  140.2970 C   0  0  1  0  0  3  0  0  0  0  0  0
  192.3120  169.0800  143.0430 O   0  0  0  0  0  0  0  0  0  0  0  0
  192.4060  171.4680  143.1790 C   0  0  1  0  0  3  0  0  0  0  0  0
  189.2200  173.5560  142.2810 C   0  0  0  0  0  0  0  0  0  0  0  0
  192.4320  170.1010  142.4010 C   0  0  0  0  0  0  0  0  0  0  0  0
  190.2590  171.4570  142.4120 C   0  0  0  0  0  3  0  0  0  0  0  0
  189.5410  172.3320  141.6910 C   0  0  0  0  0  0  0  0  0  0  0  0
  190.9900  171.8350  143.5050 C   0  0  0  0  0  0  0  0  0  0  0  0
  188.4760  174.5520  141.4870 C   0  0  0  0  0  3  0  0  0  0  0  0
  190.1740  169.2470  140.8270 F   0  0  0  0  0  0  0  0  0  0  0  0
  190.6090  172.9730  144.1760 C   0  0  0  0  0  3  0  0  0  0  0  0
  190.1620  171.1010  138.0910 C   0  0  1  0  0  3  0  0  0  0  0  0
  191.3330  169.1580  138.8430 C   0  0  0  0  0  2  0  0  0  0  0  0
  1 20  1  0  0  0  0
  1  2  1  1  0  0  0
  3  8  1  0  0  0  0
  4  6  1  0  0  0  0
  4  3  1  0  0  0  0
  6 10  1  6  0  0  0
  6  7  1  0  0  0  0
  7  1  1  6  0  0  0
  8  7  1  0  0  0  0
  8  5  2  0  0  0  0
  9  4  2  0  0  0  0
 11 10  1  0  0  0  0
 12 11  1  0  0  0  0
 13 15  1  0  0  0  0
 15 12  1  1  0  0  0
 16 14  1  6  0  0  0
 16 13  1  0  0  0  0
 16 15  1  0  0  0  0
 18 19  1  0  0  0  0
 18 17  1  0  0  0  0
 19 17  1  0  0  0  0
 19 15  1  0  0  0  0
 20 21  1  0  0  0  0
 21 22  1  0  0  0  0
 22 23  1  1  0  0  0
 22 24  1  0  0  0  0
 24 25  1  6  0  0  0
 26 24  1  0  0  0  0
 27 32  1  0  0  0  0
 27 30  1  0  0  0  0
 29 28  2  0  0  0  0
 30 31  1  1  0  0  0
 30 33  1  0  0  0  0
 32 36  1  1  0  0  0
 32 29  1  0  0  0  0
 33 28  1  0  0  0  0
 33 34  2  0  0  0  0
 34 26  1  0  0  0  0
 36 35  1  0  0  0  0
 37 35  1  0  0  0  0
 38 40  1  6  0  0  0
 38 39  1  0  0  0  0
 38 37  1  0  0  0  0
 39 36  2  0  0  0  0
 41 42  1  0  0  0  0
 41  1  1  0  0  0  0
 43 50  2  0  0  0  0
 44 56  1  0  0  0  0
 45 60  2  0  0  0  0
 46 62  1  0  0  0  0
 47 63  1  0  0  0  0
 48 61  1  1  0  0  0
 48 44  1  0  0  0  0
 49 63  1  0  0  0  0
 49 64  1  0  0  0  0
 50 45  1  0  0  0  0
 50 52  1  0  0  0  0
 51 48  1  0  0  0  0
 51 52  1  0  0  0  0
 52 58  1  0  0  0  0
 54 59  1  0  0  0  0
 54 42  1  0  0  0  0
 55 46  2  0  0  0  0
 56 53  2  0  0  0  0
 56 54  1  0  0  0  0
 57 59  1  0  0  0  0
 58 55  1  0  0  0  0
 58 57  2  0  0  0  0
 59 62  2  0  0  0  0
 60 55  1  0  0  0  0
 63 51  1  0  0  0  0
 64 48  1  0  0  0  0
M  END
>  <MODEL>
5

>  <REMARK>
 VINA RESULT:      -6.7      1.925      3.166
  Name = 
  16 active torsions:
  status: ('A' for Active; 'I' for Inactive)
    1  A    between atoms: O_9  and  C_38
    2  A    between atoms: O_9  and  C_64
    3  A    between atoms: C_10  and  C_16
    4  A    between atoms: C_10  and  C_41
    5  A    between atoms: O_11  and  C_22
    6  A    between atoms: O_11  and  C_46
    7  A    between atoms: C_13  and  C_38
    8  A    between atoms: C_13  and  C_41
    9  A    between atoms: C_16  and  C_36
   10  A    between atoms: C_16  and  O_49
   11  A    between atoms: C_18  and  C_20
   12  A    between atoms: C_18  and  C_22
   13  A    between atoms: C_19  and  C_57
   14  A    between atoms: C_23  and  C_31
   15  A    between atoms: C_23  and  O_49
   16  A    between atoms: C_46  and  C_47
                            x       y       z     vdW  Elec       q    Type
                         _______ _______ _______ _____ _____    ______ ____

>  <TORSDO>
F 16

$$$$
=
 OpenBabel11072409193D

 64 72  0  0  1  0  0  0  0  0999 V2000
  192.6230  174.0230  144.1450 C   0  0  2  0  0  0  0  0  0  0  0  0
  192.0860  173.1540  145.1310 O   0  0  0  0  0  1  0  0  0  0  0  0
  196.2870  174.4900  144.5970 O   0  0  0  0  0  0  0  0  0  0  0  0
  195.9650  175.6640  143.9570 C   0  0  0  0  0  0  0  0  0  0  0  0
  195.0330  172.7350  145.4350 O   0  0  0  0  0  0  0  0  0  0  0  0
  194.4630  176.0200  144.0290 C   0  0  2  0  0  3  0  0  0  0  0  0
  193.8520  174.8050  144.8250 C   0  0  2  0  0  3  0  0  0  0  0  0
  195.0820  173.9470  145.0600 C   0  0  0  0  0  0  0  0  0  0  0  0
  196.8670  176.4490  143.5210 O   0  0  0  0  0  0  0  0  0  0  0  0
  193.8300  176.2270  142.6140 C   0  0  0  0  0  2  0  0  0  0  0  0
  195.0050  175.9760  141.6470 C   0  0  0  0  0  2  0  0  0  0  0  0
  194.6970  175.8380  140.2500 O   0  0  0  0  0  0  0  0  0  0  0  0
  195.1400  173.9710  138.2440 C   0  0  0  0  0  2  0  0  0  0  0  0
  192.7800  174.1640  139.4760 C   0  0  0  0  0  1  0  0  0  0  0  0
  195.3450  174.6200  139.6960 C   0  0  2  0  0  0  0  0  0  0  0  0
  194.0430  174.7670  138.7360 C   0  0  1  0  0  3  0  0  0  0  0  0
  196.8400  172.9710  141.4280 C   0  0  0  0  0  2  0  0  0  0  0  0
  196.5390  172.2500  140.1150 C   0  0  0  0  0  2  0  0  0  0  0  0
  195.4670  173.2930  140.6460 C   0  0  0  0  0  3  0  0  0  0  0  0
  191.4990  174.9960  143.7310 C   0  0  0  0  0  2  0  0  0  0  0  0
  190.2060  175.0380  144.5710 C   0  0  0  0  0  2  0  0  0  0  0  0
  190.0870  176.4170  145.2470 C   0  0  2  0  0  3  0  0  0  0  0  0
  191.3070  177.1570  145.0970 O   0  0  0  0  0  1  0  0  0  0  0  0
  189.6280  176.3730  146.6940 C   0  0  1  0  0  3  0  0  0  0  0  0
  190.1020  177.5350  147.5280 C   0  0  0  0  0  1  0  0  0  0  0  0
  188.2450  176.1640  146.6590 O   0  0  0  0  0  0  0  0  0  0  0  0
  184.4420  178.2550  144.4900 C   0  0  0  0  0  2  0  0  0  0  0  0
  186.7630  176.6820  144.1870 C   0  0  0  0  0  3  0  0  0  0  0  0
  186.0370  176.9110  143.0950 C   0  0  0  0  0  3  0  0  0  0  0  0
  185.5970  178.5390  145.4200 C   0  0  1  0  0  3  0  0  0  0  0  0
  185.1380  179.0420  146.8080 C   0  0  0  0  0  1  0  0  0  0  0  0
  185.0140  178.0390  143.1360 C   0  0  1  0  0  3  0  0  0  0  0  0
  186.6330  177.4740  145.4410 C   0  0  0  0  0  0  0  0  0  0  0  0
  187.3370  177.2370  146.5280 C   0  0  0  0  0  3  0  0  0  0  0  0
  184.1390  178.1040  140.8190 O   0  0  0  0  0  0  0  0  0  0  0  0
  183.9330  178.0190  142.1470 C   0  0  0  0  0  0  0  0  0  0  0  0
  182.9680  178.2590  140.1380 N   0  0  0  0  0  2  0  0  0  0  0  0
  181.9390  178.2270  141.2010 C   0  0  1  0  0  3  0  0  0  0  0  0
  182.7000  178.2920  142.4460 N   0  0  0  0  0  0  0  0  0  0  0  0
  181.0460  179.4570  141.0630 C   0  0  0  0  0  1  0  0  0  0  0  0
  193.0340  173.1630  143.0520 O   0  0  0  0  0  0  0  0  0  0  0  0
  192.6470  171.7930  143.0570 C   0  0  0  0  0  2  0  0  0  0  0  0
  189.2930  172.3050  135.7520 O   0  0  0  0  0  0  0  0  0  0  0  0
  193.3610  170.4100  139.5220 C   0  0  0  0  0  2  0  0  0  0  0  0
  188.6910  173.7900  137.4980 C   0  0  0  0  0  3  0  0  0  0  0  0
  188.8410  173.0960  141.1400 C   0  0  0  0  0  3  0  0  0  0  0  0
  193.0170  172.1570  135.6830 O   0  0  0  0  0  1  0  0  0  0  0  0
  192.4260  170.1550  138.2620 C   0  0  2  0  0  0  0  0  0  0  0  0
  192.4390  169.9270  135.8860 C   0  0  0  0  0  2  0  0  0  0  0  0
  189.4740  172.6360  136.9500 C   0  0  0  0  0  0  0  0  0  0  0  0
  191.7410  171.4710  137.6180 C   0  0  2  0  0  3  0  0  0  0  0  0
  190.2480  171.6830  137.8860 C   0  0  1  0  0  3  0  0  0  0  0  0
  192.6720  169.1710  141.3910 O   0  0  0  0  0  0  0  0  0  0  0  0
  192.1240  171.4840  141.6650 C   0  0  1  0  0  3  0  0  0  0  0  0
  189.0420  172.9550  139.7550 C   0  0  0  0  0  0  0  0  0  0  0  0
  192.7530  170.2700  140.8870 C   0  0  0  0  0  0  0  0  0  0  0  0
  190.4510  171.1230  140.1600 C   0  0  0  0  0  3  0  0  0  0  0  0
  189.8370  171.9160  139.2670 C   0  0  0  0  0  0  0  0  0  0  0  0
  190.6410  171.4980  141.4620 C   0  0  0  0  0  0  0  0  0  0  0  0
  188.4000  173.8680  138.7910 C   0  0  0  0  0  3  0  0  0  0  0  0
  191.4650  169.1770  138.5520 F   0  0  0  0  0  0  0  0  0  0  0  0
  189.7830  172.4300  141.9980 C   0  0  0  0  0  3  0  0  0  0  0  0
  191.9510  171.3350  136.0960 C   0  0  1  0  0  3  0  0  0  0  0  0
  193.2260  169.6000  137.1340 C   0  0  0  0  0  2  0  0  0  0  0  0
  1  2  1  1  0  0  0
  3  8  1  0  0  0  0
  4  6  1  0  0  0  0
  4  3  1  0  0  0  0
  6 10  1  6  0  0  0
  6  7  1  0  0  0  0
  7  1  1  6  0  0  0
  7  8  1  0  0  0  0
  8  5  2  0  0  0  0
  9  4  2  0  0  0  0
 11 10  1  0  0  0  0
 12 11  1  0  0  0  0
 13 16  1  0  0  0  0
 13 15  1  0  0  0  0
 15 12  1  1  0  0  0
 15 19  1  0  0  0  0
 16 14  1  1  0  0  0
 16 15  1  0  0  0  0
 18 19  1  0  0  0  0
 18 17  1  0  0  0  0
 19 17  1  0  0  0  0
 20  1  1  0  0  0  0
 20 21  1  0  0  0  0
 21 22  1  0  0  0  0
 22 23  1  1  0  0  0
 22 24  1  0  0  0  0
 24 25  1  6  0  0  0
 26 24  1  0  0  0  0
 27 30  1  0  0  0  0
 28 33  1  0  0  0  0
 29 32  1  0  0  0  0
 29 28  2  0  0  0  0
 30 33  1  0  0  0  0
 30 31  1  1  0  0  0
 32 36  1  6  0  0  0
 32 27  1  0  0  0  0
 33 34  2  0  0  0  0
 34 26  1  0  0  0  0
 35 36  1  0  0  0  0
 36 39  2  0  0  0  0
 37 35  1  0  0  0  0
 37 38  1  0  0  0  0
 38 40  1  6  0  0  0
 38 39  1  0  0  0  0
 41 42  1  0  0  0  0
 41  1  1  0  0  0  0
 43 50  2  0  0  0  0
 44 56  1  0  0  0  0
 45 60  2  0  0  0  0
 46 62  1  0  0  0  0
 47 63  1  0  0  0  0
 48 61  1  1  0  0  0
 48 44  1  0  0  0  0
 49 63  1  0  0  0  0
 49 64  1  0  0  0  0
 50 45  1  0  0  0  0
 50 52  1  0  0  0  0
 51 52  1  0  0  0  0
 51 48  1  0  0  0  0
 52 58  1  0  0  0  0
 54 42  1  0  0  0  0
 55 46  2  0  0  0  0
 56 53  2  0  0  0  0
 56 54  1  0  0  0  0
 57 59  1  0  0  0  0
 58 55  1  0  0  0  0
 58 57  2  0  0  0  0
 59 54  1  0  0  0  0
 59 62  2  0  0  0  0
 60 55  1  0  0  0  0
 63 51  1  0  0  0  0
 64 48  1  0  0  0  0
M  END
>  <MODEL>
6

>  <REMARK>
 VINA RESULT:      -6.4      2.134      3.908
  Name = 
  16 active torsions:
  status: ('A' for Active; 'I' for Inactive)
    1  A    between atoms: O_9  and  C_38
    2  A    between atoms: O_9  and  C_64
    3  A    between atoms: C_10  and  C_16
    4  A    between atoms: C_10  and  C_41
    5  A    between atoms: O_11  and  C_22
    6  A    between atoms: O_11  and  C_46
    7  A    between atoms: C_13  and  C_38
    8  A    between atoms: C_13  and  C_41
    9  A    between atoms: C_16  and  C_36
   10  A    between atoms: C_16  and  O_49
   11  A    between atoms: C_18  and  C_20
   12  A    between atoms: C_18  and  C_22
   13  A    between atoms: C_19  and  C_57
   14  A    between atoms: C_23  and  C_31
   15  A    between atoms: C_23  and  O_49
   16  A    between atoms: C_46  and  C_47
                            x       y       z     vdW  Elec       q    Type
                         _______ _______ _______ _____ _____    ______ ____

>  <TORSDO>
F 16

$$$$
=
 OpenBabel11072409193D

 64 72  0  0  1  0  0  0  0  0999 V2000
  191.9570  170.7500  139.6440 C   0  0  2  0  0  0  0  0  0  0  0  0
  192.4410  171.7780  138.7920 O   0  0  0  0  0  1  0  0  0  0  0  0
  194.2620  168.9150  137.3710 O   0  0  0  0  0  0  0  0  0  0  0  0
  195.0280  168.9660  138.5120 C   0  0  0  0  0  0  0  0  0  0  0  0
  192.0820  169.5210  136.8860 O   0  0  0  0  0  0  0  0  0  0  0  0
  194.2160  169.2450  139.7960 C   0  0  2  0  0  3  0  0  0  0  0  0
  192.7450  169.4040  139.2520 C   0  0  2  0  0  3  0  0  0  0  0  0
  192.9510  169.2150  137.7600 C   0  0  0  0  0  0  0  0  0  0  0  0
  196.2560  168.6290  138.5000 O   0  0  0  0  0  0  0  0  0  0  0  0
  194.7370  170.4980  140.5730 C   0  0  0  0  0  2  0  0  0  0  0  0
  195.5400  171.2790  139.5130 C   0  0  0  0  0  2  0  0  0  0  0  0
  196.6760  172.0330  139.9620 O   0  0  0  0  0  0  0  0  0  0  0  0
  197.1820  174.6380  140.7780 C   0  0  0  0  0  2  0  0  0  0  0  0
  197.9380  172.5430  142.2480 C   0  0  0  0  0  1  0  0  0  0  0  0
  196.2530  173.3780  140.4320 C   0  0  2  0  0  0  0  0  0  0  0  0
  197.8100  173.3450  140.8890 C   0  0  1  0  0  3  0  0  0  0  0  0
  193.7030  174.2230  141.2930 C   0  0  0  0  0  2  0  0  0  0  0  0
  194.8060  174.9720  142.0400 C   0  0  0  0  0  2  0  0  0  0  0  0
  195.1020  173.4790  141.5920 C   0  0  0  0  0  3  0  0  0  0  0  0
  190.4430  170.6120  139.3770 C   0  0  0  0  0  2  0  0  0  0  0  0
  189.6790  171.8150  138.7890 C   0  0  0  0  0  2  0  0  0  0  0  0
  189.3440  172.8040  139.9210 C   0  0  2  0  0  3  0  0  0  0  0  0
  188.4630  172.1960  140.8760 O   0  0  0  0  0  1  0  0  0  0  0  0
  188.8220  174.1510  139.4490 C   0  0  1  0  0  3  0  0  0  0  0  0
  188.1990  174.1250  138.0780 C   0  0  0  0  0  1  0  0  0  0  0  0
  188.0160  174.6410  140.4830 O   0  0  0  0  0  0  0  0  0  0  0  0
  187.4930  178.1380  143.8040 C   0  0  0  0  0  2  0  0  0  0  0  0
  186.5770  175.6600  142.8200 C   0  0  0  0  0  3  0  0  0  0  0  0
  185.9760  176.1420  143.9060 C   0  0  0  0  0  3  0  0  0  0  0  0
  187.5940  177.9040  142.3150 C   0  0  1  0  0  3  0  0  0  0  0  0
  188.7990  178.6310  141.6760 C   0  0  0  0  0  1  0  0  0  0  0  0
  186.1730  177.6160  144.2390 C   0  0  1  0  0  3  0  0  0  0  0  0
  187.4230  176.4830  141.9140 C   0  0  0  0  0  0  0  0  0  0  0  0
  188.0320  176.0040  140.8510 C   0  0  0  0  0  3  0  0  0  0  0  0
  185.1370  179.1090  145.9250 O   0  0  0  0  0  0  0  0  0  0  0  0
  185.9070  178.0480  145.6150 C   0  0  0  0  0  0  0  0  0  0  0  0
  185.2100  179.4110  147.2520 N   0  0  0  0  0  2  0  0  0  0  0  0
  186.1130  178.3730  147.7970 C   0  0  1  0  0  3  0  0  0  0  0  0
  186.6570  177.7070  146.6170 N   0  0  0  0  0  0  0  0  0  0  0  0
  187.2310  179.0520  148.5830 C   0  0  0  0  0  1  0  0  0  0  0  0
  192.2380  171.1990  140.9930 O   0  0  0  0  0  0  0  0  0  0  0  0
  191.3460  170.8480  142.0460 C   0  0  0  0  0  2  0  0  0  0  0  0
  194.1800  176.6640  146.8440 O   0  0  0  0  0  0  0  0  0  0  0  0
  189.9980  174.1000  143.6360 C   0  0  0  0  0  2  0  0  0  0  0  0
  195.6300  175.1290  145.7680 C   0  0  0  0  0  3  0  0  0  0  0  0
  194.8070  171.6630  144.7330 C   0  0  0  0  0  3  0  0  0  0  0  0
  191.7810  177.8860  144.2670 O   0  0  0  0  0  1  0  0  0  0  0  0
  190.4350  174.9250  144.9230 C   0  0  2  0  0  0  0  0  0  0  0  0
  190.3680  177.0940  145.9180 C   0  0  0  0  0  2  0  0  0  0  0  0
  194.2680  175.6700  146.0800 C   0  0  0  0  0  0  0  0  0  0  0  0
  191.9250  175.5530  144.8820 C   0  0  2  0  0  3  0  0  0  0  0  0
  192.9950  174.8690  145.7370 C   0  0  1  0  0  3  0  0  0  0  0  0
  189.3500  171.9110  144.1770 O   0  0  0  0  0  0  0  0  0  0  0  0
  191.4940  171.9170  143.1150 C   0  0  1  0  0  3  0  0  0  0  0  0
  194.6420  172.9870  145.1780 C   0  0  0  0  0  0  0  0  0  0  0  0
  190.1910  172.6120  143.6570 C   0  0  0  0  0  0  0  0  0  0  0  0
  192.3140  172.7140  145.0860 C   0  0  0  0  0  3  0  0  0  0  0  0
  193.3610  173.4980  145.3920 C   0  0  0  0  0  0  0  0  0  0  0  0
  192.4260  171.6360  144.2530 C   0  0  0  0  0  0  0  0  0  0  0  0
  195.8050  173.8500  145.4590 C   0  0  0  0  0  3  0  0  0  0  0  0
  190.2400  174.1660  146.0840 F   0  0  0  0  0  0  0  0  0  0  0  0
  193.6600  171.0400  144.1290 C   0  0  0  0  0  3  0  0  0  0  0  0
  191.7660  177.0080  145.3670 C   0  0  1  0  0  3  0  0  0  0  0  0
  189.5650  176.1230  145.0840 C   0  0  0  0  0  2  0  0  0  0  0  0
  1  2  1  6  0  0  0
  1 41  1  0  0  0  0
  3  8  1  0  0  0  0
  3  4  1  0  0  0  0
  4  6  1  0  0  0  0
  5  8  2  0  0  0  0
  6 10  1  6  0  0  0
  7  1  1  6  0  0  0
  7  6  1  0  0  0  0
  8  7  1  0  0  0  0
  9  4  2  0  0  0  0
 11 12  1  0  0  0  0
 11 10  1  0  0  0  0
 13 16  1  0  0  0  0
 15 12  1  6  0  0  0
 15 13  1  0  0  0  0
 15 16  1  0  0  0  0
 15 19  1  0  0  0  0
 16 14  1  1  0  0  0
 17 19  1  0  0  0  0
 17 18  1  0  0  0  0
 19 18  1  0  0  0  0
 20  1  1  0  0  0  0
 21 20  1  0  0  0  0
 21 22  1  0  0  0  0
 22 23  1  1  0  0  0
 24 25  1  6  0  0  0
 24 22  1  0  0  0  0
 24 26  1  0  0  0  0
 26 34  1  0  0  0  0
 27 32  1  0  0  0  0
 28 29  2  0  0  0  0
 29 32  1  0  0  0  0
 30 31  1  1  0  0  0
 30 27  1  0  0  0  0
 32 36  1  1  0  0  0
 33 30  1  0  0  0  0
 33 28  1  0  0  0  0
 34 33  2  0  0  0  0
 35 37  1  0  0  0  0
 36 35  1  0  0  0  0
 36 39  2  0  0  0  0
 37 38  1  0  0  0  0
 38 40  1  6  0  0  0
 39 38  1  0  0  0  0
 41 42  1  0  0  0  0
 42 54  1  0  0  0  0
 44 56  1  0  0  0  0
 44 48  1  0  0  0  0
 45 50  1  0  0  0  0
 46 55  1  0  0  0  0
 47 63  1  0  0  0  0
 48 64  1  0  0  0  0
 48 61  1  1  0  0  0
 50 43  2  0  0  0  0
 51 48  1  0  0  0  0
 51 63  1  0  0  0  0
 51 52  1  0  0  0  0
 52 50  1  0  0  0  0
 54 56  1  0  0  0  0
 54 59  1  0  0  0  0
 55 58  2  0  0  0  0
 55 60  1  0  0  0  0
 56 53  2  0  0  0  0
 57 58  1  0  0  0  0
 58 52  1  0  0  0  0
 59 57  2  0  0  0  0
 60 45  2  0  0  0  0
 62 59  1  0  0  0  0
 62 46  2  0  0  0  0
 63 49  1  0  0  0  0
 64 49  1  0  0  0  0
M  END
>  <MODEL>
7

>  <REMARK>
 VINA RESULT:      -6.3      2.336      6.254
  Name = 
  16 active torsions:
  status: ('A' for Active; 'I' for Inactive)
    1  A    between atoms: O_9  and  C_38
    2  A    between atoms: O_9  and  C_64
    3  A    between atoms: C_10  and  C_16
    4  A    between atoms: C_10  and  C_41
    5  A    between atoms: O_11  and  C_22
    6  A    between atoms: O_11  and  C_46
    7  A    between atoms: C_13  and  C_38
    8  A    between atoms: C_13  and  C_41
    9  A    between atoms: C_16  and  C_36
   10  A    between atoms: C_16  and  O_49
   11  A    between atoms: C_18  and  C_20
   12  A    between atoms: C_18  and  C_22
   13  A    between atoms: C_19  and  C_57
   14  A    between atoms: C_23  and  C_31
   15  A    between atoms: C_23  and  O_49
   16  A    between atoms: C_46  and  C_47
                            x       y       z     vdW  Elec       q    Type
                         _______ _______ _______ _____ _____    ______ ____

>  <TORSDO>
F 16

$$$$
=
 OpenBabel11072409193D

 64 72  0  0  1  0  0  0  0  0999 V2000
  193.2030  174.1950  144.8210 C   0  0  2  0  0  0  0  0  0  0  0  0
  193.8770  173.6970  145.9680 O   0  0  0  0  0  1  0  0  0  0  0  0
  195.2920  176.3920  142.6650 O   0  0  0  0  0  0  0  0  0  0  0  0
  196.2680  175.7960  143.4300 C   0  0  0  0  0  0  0  0  0  0  0  0
  193.0090  176.0800  142.4680 O   0  0  0  0  0  0  0  0  0  0  0  0
  195.8110  174.4880  144.1140 C   0  0  2  0  0  3  0  0  0  0  0  0
  194.3050  174.3650  143.6640 C   0  0  2  0  0  3  0  0  0  0  0  0
  194.1370  175.6180  142.8230 C   0  0  0  0  0  0  0  0  0  0  0  0
  197.4720  176.2080  143.4060 O   0  0  0  0  0  0  0  0  0  0  0  0
  196.0020  174.5260  145.6650 C   0  0  0  0  0  2  0  0  0  0  0  0
  197.1340  173.5090  145.9190 C   0  0  0  0  0  2  0  0  0  0  0  0
  196.7570  172.1700  146.2750 O   0  0  0  0  0  0  0  0  0  0  0  0
  195.3190  170.1940  144.9570 C   0  0  0  0  0  2  0  0  0  0  0  0
  197.1950  169.5900  146.7560 C   0  0  0  0  0  1  0  0  0  0  0  0
  196.3670  171.4020  145.0630 C   0  0  2  0  0  0  0  0  0  0  0  0
  195.9250  170.3880  146.2510 C   0  0  1  0  0  3  0  0  0  0  0  0
  197.6770  171.6080  142.5730 C   0  0  0  0  0  2  0  0  0  0  0  0
  196.9640  170.2630  142.7040 C   0  0  0  0  0  2  0  0  0  0  0  0
  197.5400  170.9230  144.0260 C   0  0  0  0  0  3  0  0  0  0  0  0
  192.5830  175.5540  145.2100 C   0  0  0  0  0  2  0  0  0  0  0  0
  192.7990  176.0870  146.6410 C   0  0  0  0  0  2  0  0  0  0  0  0
  191.4440  176.1360  147.3720 C   0  0  2  0  0  3  0  0  0  0  0  0
  191.4820  175.3260  148.5560 O   0  0  0  0  0  1  0  0  0  0  0  0
  190.2440  175.8070  146.5010 C   0  0  1  0  0  3  0  0  0  0  0  0
  189.2570  174.8660  147.1400 C   0  0  0  0  0  1  0  0  0  0  0  0
  189.7310  177.0330  146.0630 O   0  0  0  0  0  0  0  0  0  0  0  0
  186.8860  178.5120  142.4220 C   0  0  0  0  0  2  0  0  0  0  0  0
  187.0620  177.1080  144.8610 C   0  0  0  0  0  3  0  0  0  0  0  0
  185.8590  177.2000  144.2980 C   0  0  0  0  0  3  0  0  0  0  0  0
  188.1820  177.7930  142.7160 C   0  0  1  0  0  3  0  0  0  0  0  0
  189.4110  178.5000  142.1010 C   0  0  0  0  0  1  0  0  0  0  0  0
  185.7820  177.6070  142.8320 C   0  0  1  0  0  3  0  0  0  0  0  0
  188.3330  177.3730  144.1330 C   0  0  0  0  0  0  0  0  0  0  0  0
  189.5220  177.3000  144.6930 C   0  0  0  0  0  3  0  0  0  0  0  0
  183.4380  178.3590  143.1210 O   0  0  0  0  0  0  0  0  0  0  0  0
  184.5090  178.1360  142.3340 C   0  0  0  0  0  0  0  0  0  0  0  0
  182.3310  178.6630  142.3870 N   0  0  0  0  0  2  0  0  0  0  0  0
  182.8220  178.6490  140.9910 C   0  0  1  0  0  3  0  0  0  0  0  0
  184.1660  178.0840  141.0840 N   0  0  0  0  0  0  0  0  0  0  0  0
  181.9230  177.7380  140.1590 C   0  0  0  0  0  1  0  0  0  0  0  0
  192.1950  173.2040  144.5020 O   0  0  0  0  0  0  0  0  0  0  0  0
  192.5670  172.0360  143.7760 C   0  0  0  0  0  2  0  0  0  0  0  0
  187.8320  174.1070  137.5970 O   0  0  0  0  0  0  0  0  0  0  0  0
  192.2990  171.1830  140.0190 C   0  0  0  0  0  2  0  0  0  0  0  0
  187.8410  175.3410  139.6200 C   0  0  0  0  0  3  0  0  0  0  0  0
  188.6670  174.0460  142.9980 C   0  0  0  0  0  3  0  0  0  0  0  0
  191.3940  173.5640  136.6390 O   0  0  0  0  0  1  0  0  0  0  0  0
  191.0880  171.2420  138.9900 C   0  0  2  0  0  0  0  0  0  0  0  0
  190.5580  171.4080  136.6680 C   0  0  0  0  0  2  0  0  0  0  0  0
  188.3130  174.2140  138.7540 C   0  0  0  0  0  0  0  0  0  0  0  0
  190.4780  172.7130  138.7080 C   0  0  2  0  0  3  0  0  0  0  0  0
  189.1240  173.0420  139.3440 C   0  0  1  0  0  3  0  0  0  0  0  0
  191.8560  169.7370  141.8110 O   0  0  0  0  0  0  0  0  0  0  0  0
  191.7190  172.0200  142.5160 C   0  0  1  0  0  3  0  0  0  0  0  0
  188.5430  174.1130  141.5990 C   0  0  0  0  0  0  0  0  0  0  0  0
  191.9850  170.8880  141.4560 C   0  0  0  0  0  0  0  0  0  0  0  0
  189.7280  172.0960  141.4110 C   0  0  0  0  0  3  0  0  0  0  0  0
  189.0570  173.0870  140.8020 C   0  0  0  0  0  0  0  0  0  0  0  0
  190.2440  172.2290  142.6710 C   0  0  0  0  0  0  0  0  0  0  0  0
  187.8480  175.2370  140.9440 C   0  0  0  0  0  3  0  0  0  0  0  0
  190.0820  170.3420  139.3620 F   0  0  0  0  0  0  0  0  0  0  0  0
  189.6650  173.1490  143.5140 C   0  0  0  0  0  3  0  0  0  0  0  0
  190.3350  172.8070  137.1760 C   0  0  1  0  0  3  0  0  0  0  0  0
  191.5390  170.7970  137.6420 C   0  0  0  0  0  2  0  0  0  0  0  0
  1 20  1  0  0  0  0
  1  2  1  1  0  0  0
  3  8  1  0  0  0  0
  3  4  1  0  0  0  0
  4  6  1  0  0  0  0
  5  8  2  0  0  0  0
  6 10  1  1  0  0  0
  7  6  1  0  0  0  0
  7  1  1  1  0  0  0
  8  7  1  0  0  0  0
  9  4  2  0  0  0  0
 10 11  1  0  0  0  0
 11 12  1  0  0  0  0
 13 15  1  0  0  0  0
 13 16  1  0  0  0  0
 15 16  1  0  0  0  0
 15 12  1  6  0  0  0
 16 14  1  6  0  0  0
 17 18  1  0  0  0  0
 17 19  1  0  0  0  0
 18 19  1  0  0  0  0
 19 15  1  0  0  0  0
 20 21  1  0  0  0  0
 21 22  1  0  0  0  0
 22 23  1  1  0  0  0
 24 25  1  1  0  0  0
 24 22  1  0  0  0  0
 26 24  1  0  0  0  0
 27 30  1  0  0  0  0
 27 32  1  0  0  0  0
 29 28  2  0  0  0  0
 30 31  1  1  0  0  0
 30 33  1  0  0  0  0
 32 36  1  1  0  0  0
 32 29  1  0  0  0  0
 33 34  2  0  0  0  0
 33 28  1  0  0  0  0
 34 26  1  0  0  0  0
 36 35  1  0  0  0  0
 37 35  1  0  0  0  0
 38 40  1  6  0  0  0
 38 39  1  0  0  0  0
 38 37  1  0  0  0  0
 39 36  2  0  0  0  0
 41  1  1  0  0  0  0
 42 41  1  0  0  0  0
 43 50  2  0  0  0  0
 44 56  1  0  0  0  0
 45 60  2  0  0  0  0
 46 62  1  0  0  0  0
 47 63  1  0  0  0  0
 48 61  1  1  0  0  0
 48 44  1  0  0  0  0
 49 63  1  0  0  0  0
 49 64  1  0  0  0  0
 50 52  1  0  0  0  0
 50 45  1  0  0  0  0
 51 48  1  0  0  0  0
 51 52  1  0  0  0  0
 52 58  1  0  0  0  0
 54 59  1  0  0  0  0
 54 42  1  0  0  0  0
 55 46  2  0  0  0  0
 56 53  2  0  0  0  0
 56 54  1  0  0  0  0
 57 59  1  0  0  0  0
 58 57  2  0  0  0  0
 58 55  1  0  0  0  0
 59 62  2  0  0  0  0
 60 55  1  0  0  0  0
 63 51  1  0  0  0  0
 64 48  1  0  0  0  0
M  END
>  <MODEL>
8

>  <REMARK>
 VINA RESULT:      -6.3      2.028      4.225
  Name = 
  16 active torsions:
  status: ('A' for Active; 'I' for Inactive)
    1  A    between atoms: O_9  and  C_38
    2  A    between atoms: O_9  and  C_64
    3  A    between atoms: C_10  and  C_16
    4  A    between atoms: C_10  and  C_41
    5  A    between atoms: O_11  and  C_22
    6  A    between atoms: O_11  and  C_46
    7  A    between atoms: C_13  and  C_38
    8  A    between atoms: C_13  and  C_41
    9  A    between atoms: C_16  and  C_36
   10  A    between atoms: C_16  and  O_49
   11  A    between atoms: C_18  and  C_20
   12  A    between atoms: C_18  and  C_22
   13  A    between atoms: C_19  and  C_57
   14  A    between atoms: C_23  and  C_31
   15  A    between atoms: C_23  and  O_49
   16  A    between atoms: C_46  and  C_47
                            x       y       z     vdW  Elec       q    Type
                         _______ _______ _______ _____ _____    ______ ____

>  <TORSDO>
F 16

$$$$
=
 OpenBabel11072409193D

 64 72  0  0  1  0  0  0  0  0999 V2000
  192.0800  173.8060  142.6670 C   0  0  2  0  0  0  0  0  0  0  0  0
  191.6230  174.5430  141.5430 O   0  0  0  0  0  1  0  0  0  0  0  0
  193.8610  176.5440  144.4480 O   0  0  0  0  0  0  0  0  0  0  0  0
  194.1660  175.4790  145.2630 C   0  0  0  0  0  0  0  0  0  0  0  0
  192.7770  176.7340  142.4130 O   0  0  0  0  0  0  0  0  0  0  0  0
  193.9820  174.1030  144.5850 C   0  0  2  0  0  3  0  0  0  0  0  0
  193.4530  174.4870  143.1510 C   0  0  2  0  0  3  0  0  0  0  0  0
  193.3970  176.0010  143.2440 C   0  0  0  0  0  0  0  0  0  0  0  0
  194.7200  175.6510  146.3970 O   0  0  0  0  0  0  0  0  0  0  0  0
  193.0160  173.1680  145.3820 C   0  0  0  0  0  2  0  0  0  0  0  0
  193.8540  171.8950  145.6230 C   0  0  0  0  0  2  0  0  0  0  0  0
  194.8780  171.5830  144.6650 O   0  0  0  0  0  0  0  0  0  0  0  0
  197.6030  171.1640  144.9920 C   0  0  0  0  0  2  0  0  0  0  0  0
  196.3050  170.2880  142.8310 C   0  0  0  0  0  1  0  0  0  0  0  0
  196.0500  170.9690  145.3420 C   0  0  2  0  0  0  0  0  0  0  0  0
  196.6810  171.3870  143.9060 C   0  0  1  0  0  3  0  0  0  0  0  0
  195.2800  168.9030  147.1010 C   0  0  0  0  0  2  0  0  0  0  0  0
  196.8020  169.0370  147.0520 C   0  0  0  0  0  2  0  0  0  0  0  0
  195.9890  169.3810  145.7340 C   0  0  0  0  0  3  0  0  0  0  0  0
  192.3080  172.3530  142.1980 C   0  0  0  0  0  2  0  0  0  0  0  0
  191.5670  171.2120  142.9250 C   0  0  0  0  0  2  0  0  0  0  0  0
  191.9300  169.8700  142.2610 C   0  0  2  0  0  3  0  0  0  0  0  0
  193.0600  169.2750  142.9150 O   0  0  0  0  0  1  0  0  0  0  0  0
  192.1220  169.9420  140.7560 C   0  0  1  0  0  3  0  0  0  0  0  0
  193.0970  168.9320  140.2090 C   0  0  0  0  0  1  0  0  0  0  0  0
  190.8400  169.9270  140.1970 O   0  0  0  0  0  0  0  0  0  0  0  0
  190.4620  172.2610  135.9600 C   0  0  0  0  0  2  0  0  0  0  0  0
  189.9080  172.2810  138.7250 C   0  0  0  0  0  3  0  0  0  0  0  0
  189.5360  173.3490  138.0230 C   0  0  0  0  0  3  0  0  0  0  0  0
  190.1990  170.9300  136.6230 C   0  0  1  0  0  3  0  0  0  0  0  0
  190.9780  169.7690  135.9640 C   0  0  0  0  0  1  0  0  0  0  0  0
  189.4710  173.2240  136.5060 C   0  0  1  0  0  3  0  0  0  0  0  0
  190.2560  170.9720  138.1080 C   0  0  0  0  0  0  0  0  0  0  0  0
  190.6420  169.9200  138.7990 C   0  0  0  0  0  3  0  0  0  0  0  0
  190.6090  175.2140  135.5630 O   0  0  0  0  0  0  0  0  0  0  0  0
  189.5040  174.4580  135.7150 C   0  0  0  0  0  0  0  0  0  0  0  0
  190.3260  176.3980  134.9500 N   0  0  0  0  0  2  0  0  0  0  0  0
  188.8750  176.3110  134.6770 C   0  0  1  0  0  3  0  0  0  0  0  0
  188.4360  175.1270  135.4100 N   0  0  0  0  0  0  0  0  0  0  0  0
  188.1910  177.5590  135.2310 C   0  0  0  0  0  1  0  0  0  0  0  0
  191.0200  173.9040  143.6520 O   0  0  0  0  0  0  0  0  0  0  0  0
  189.6670  173.7350  143.2420 C   0  0  0  0  0  2  0  0  0  0  0  0
  184.2300  179.6220  144.0580 O   0  0  0  0  0  0  0  0  0  0  0  0
  188.2310  175.8690  146.1230 C   0  0  0  0  0  2  0  0  0  0  0  0
  184.3570  178.3180  142.0840 C   0  0  0  0  0  3  0  0  0  0  0  0
  187.3740  176.6250  140.7420 C   0  0  0  0  0  3  0  0  0  0  0  0
  184.3160  177.2530  146.9350 O   0  0  0  0  0  1  0  0  0  0  0  0
  187.5400  177.3010  146.1550 C   0  0  2  0  0  0  0  0  0  0  0  0
  186.0650  178.6840  147.4240 C   0  0  0  0  0  2  0  0  0  0  0  0
  184.8190  178.6870  143.4600 C   0  0  0  0  0  0  0  0  0  0  0  0
  186.1380  177.4220  145.3570 C   0  0  2  0  0  3  0  0  0  0  0  0
  186.1590  178.1630  144.0170 C   0  0  1  0  0  3  0  0  0  0  0  0
  190.4130  175.9690  145.2680 O   0  0  0  0  0  0  0  0  0  0  0  0
  188.9250  174.9890  143.6700 C   0  0  1  0  0  3  0  0  0  0  0  0
  186.5220  177.3070  141.6290 C   0  0  0  0  0  0  0  0  0  0  0  0
  189.2710  175.6160  145.0710 C   0  0  0  0  0  0  0  0  0  0  0  0
  188.1360  177.0980  143.3190 C   0  0  0  0  0  3  0  0  0  0  0  0
  186.9420  177.5760  142.9330 C   0  0  0  0  0  0  0  0  0  0  0  0
  188.7650  176.0800  142.6570 C   0  0  0  0  0  0  0  0  0  0  0  0
  185.1910  177.7790  141.2030 C   0  0  0  0  0  3  0  0  0  0  0  0
  188.4410  178.2920  145.7450 F   0  0  0  0  0  0  0  0  0  0  0  0
  188.4550  175.8820  141.3310 C   0  0  0  0  0  3  0  0  0  0  0  0
  185.1880  178.1670  146.3150 C   0  0  1  0  0  3  0  0  0  0  0  0
  187.1680  177.6590  147.5530 C   0  0  0  0  0  2  0  0  0  0  0  0
  1  2  1  6  0  0  0
  1 41  1  0  0  0  0
  3  4  1  0  0  0  0
  4  9  2  0  0  0  0
  5  8  2  0  0  0  0
  6  4  1  0  0  0  0
  6 10  1  1  0  0  0
  7  1  1  1  0  0  0
  7  8  1  0  0  0  0
  7  6  1  0  0  0  0
  8  3  1  0  0  0  0
 10 11  1  0  0  0  0
 12 11  1  0  0  0  0
 13 15  1  0  0  0  0
 15 12  1  1  0  0  0
 15 19  1  0  0  0  0
 16 14  1  6  0  0  0
 16 13  1  0  0  0  0
 16 15  1  0  0  0  0
 18 17  1  0  0  0  0
 19 18  1  0  0  0  0
 19 17  1  0  0  0  0
 20  1  1  0  0  0  0
 20 21  1  0  0  0  0
 22 23  1  1  0  0  0
 22 21  1  0  0  0  0
 24 25  1  6  0  0  0
 24 22  1  0  0  0  0
 26 24  1  0  0  0  0
 27 32  1  0  0  0  0
 27 30  1  0  0  0  0
 29 28  2  0  0  0  0
 30 31  1  6  0  0  0
 30 33  1  0  0  0  0
 32 36  1  6  0  0  0
 32 29  1  0  0  0  0
 33 28  1  0  0  0  0
 33 34  2  0  0  0  0
 34 26  1  0  0  0  0
 35 36  1  0  0  0  0
 37 35  1  0  0  0  0
 38 37  1  0  0  0  0
 38 40  1  1  0  0  0
 38 39  1  0  0  0  0
 39 36  2  0  0  0  0
 42 41  1  0  0  0  0
 42 54  1  0  0  0  0
 44 48  1  0  0  0  0
 45 50  1  0  0  0  0
 46 62  2  0  0  0  0
 46 55  1  0  0  0  0
 48 61  1  6  0  0  0
 48 64  1  0  0  0  0
 49 64  1  0  0  0  0
 50 52  1  0  0  0  0
 50 43  2  0  0  0  0
 51 48  1  0  0  0  0
 51 63  1  0  0  0  0
 52 51  1  0  0  0  0
 54 56  1  0  0  0  0
 55 58  2  0  0  0  0
 56 53  2  0  0  0  0
 56 44  1  0  0  0  0
 58 57  1  0  0  0  0
 58 52  1  0  0  0  0
 59 57  2  0  0  0  0
 59 54  1  0  0  0  0
 60 55  1  0  0  0  0
 60 45  2  0  0  0  0
 62 59  1  0  0  0  0
 63 47  1  0  0  0  0
 63 49  1  0  0  0  0
M  END
>  <MODEL>
9

>  <REMARK>
 VINA RESULT:      -6.2      2.989      8.098
  Name = 
  16 active torsions:
  status: ('A' for Active; 'I' for Inactive)
    1  A    between atoms: O_9  and  C_38
    2  A    between atoms: O_9  and  C_64
    3  A    between atoms: C_10  and  C_16
    4  A    between atoms: C_10  and  C_41
    5  A    between atoms: O_11  and  C_22
    6  A    between atoms: O_11  and  C_46
    7  A    between atoms: C_13  and  C_38
    8  A    between atoms: C_13  and  C_41
    9  A    between atoms: C_16  and  C_36
   10  A    between atoms: C_16  and  O_49
   11  A    between atoms: C_18  and  C_20
   12  A    between atoms: C_18  and  C_22
   13  A    between atoms: C_19  and  C_57
   14  A    between atoms: C_23  and  C_31
   15  A    between atoms: C_23  and  O_49
   16  A    between atoms: C_46  and  C_47
                            x       y       z     vdW  Elec       q    Type
                         _______ _______ _______ _____ _____    ______ ____

>  <TORSDO>
F 16

$$$$
