=
 OpenBabel11072409153D

 39 42  0  0  1  0  0  0  0  0999 V2000
  189.9760  174.9590  144.5990 C   0  0  0  0  0  0  0  0  0  0  0  0
  188.7300  174.2440  142.1610 C   0  0  0  0  0  0  0  0  0  0  0  0
  189.2560  173.2530  143.0240 C   0  0  0  0  0  0  0  0  0  0  0  0
  189.2000  171.9040  142.7040 O   0  0  0  0  0  1  0  0  0  0  0  0
  189.4720  175.9400  143.7410 C   0  0  0  0  0  3  0  0  0  0  0  0
  188.8490  175.6050  142.5350 C   0  0  0  0  0  0  0  0  0  0  0  0
  189.8640  173.6190  144.2250 C   0  0  0  0  0  3  0  0  0  0  0  0
  190.1450  175.1670  147.1600 C   0  0  0  0  0  0  0  0  0  0  0  0
  188.8920  174.5910  147.5160 N   0  0  0  0  0  1  0  0  0  0  0  0
  192.0630  176.1230  147.4050 N   0  0  0  0  0  0  0  0  0  0  0  0
  191.8560  175.9530  146.0840 C   0  0  0  0  0  0  0  0  0  0  0  0
  190.6260  175.3410  145.8740 C   0  0  0  0  0  0  0  0  0  0  0  0
  191.0170  175.6470  148.0620 N   0  0  0  0  0  2  0  0  0  0  0  0
  193.0720  176.4150  144.8480 S   0  0  0  0  0  0  0  0  0  0  0  0
  193.1830  172.8350  142.7780 C   0  0  0  0  0  0  0  0  0  0  0  0
  193.3270  174.3230  142.9310 C   0  0  1  0  0  3  0  0  0  0  0  0
  193.7010  173.8310  145.3350 C   0  0  0  0  0  3  0  0  0  0  0  0
  192.6440  172.2110  141.3700 S   0  0  0  0  0  0  0  0  0  0  0  0
  193.6340  171.9600  143.8180 N   0  0  0  0  0  0  0  0  0  0  0  0
  193.3730  174.7120  144.3870 C   0  0  0  0  0  0  0  0  0  0  0  0
  193.9040  172.4000  145.0100 C   0  0  0  0  0  0  0  0  0  0  0  0
  194.5060  174.7390  142.3060 O   0  0  0  0  0  0  0  0  0  0  0  0
  194.1030  175.6680  141.3450 C   0  0  0  0  0  1  0  0  0  0  0  0
  194.3560  171.5000  145.9790 O   0  0  0  0  0  0  0  0  0  0  0  0
  195.4520  170.6210  145.7630 C   0  0  0  0  0  2  0  0  0  0  0  0
  195.2550  169.3980  146.5230 N   0  0  0  0  0  1  0  0  0  0  0  0
  188.8050  173.7320  139.7080 C   0  0  0  0  0  1  0  0  0  0  0  0
  188.1180  173.9250  140.9370 O   0  0  0  0  0  0  0  0  0  0  0  0
  188.3660  176.6880  141.7240 N   0  0  0  0  0  2  0  0  0  0  0  0
  187.9550  177.9990  142.2070 C   0  0  0  0  0  2  0  0  0  0  0  0
  186.4870  177.9650  142.5940 C   0  0  0  0  0  2  0  0  0  0  0  0
  186.2790  178.6470  143.9380 C   0  0  1  0  0  3  0  0  0  0  0  0
  185.5400  179.8210  143.7720 O   0  0  0  0  0  1  0  0  0  0  0  0
  187.0970  177.5840  146.9460 C   0  0  0  0  0  2  0  0  0  0  0  0
  184.7800  178.5000  147.1590 C   0  0  0  0  0  3  0  0  0  0  0  0
  186.6260  176.8600  145.6890 C   0  0  0  0  0  2  0  0  0  0  0  0
  185.5900  177.6990  144.9220 C   0  0  1  0  0  3  0  0  0  0  0  0
  185.9040  177.7950  147.8690 C   0  0  0  0  0  2  0  0  0  0  0  0
  184.6160  178.4250  145.8300 C   0  0  0  0  0  3  0  0  0  0  0  0
  1 12  1  0  0  0  0
  2  6  2  0  0  0  0
  2  3  1  0  0  0  0
  3  7  2  0  0  0  0
  4  3  1  0  0  0  0
  5  1  2  0  0  0  0
  6  5  1  0  0  0  0
  7  1  1  0  0  0  0
  8  9  1  0  0  0  0
  8 13  1  0  0  0  0
 10 13  1  0  0  0  0
 11 10  2  0  0  0  0
 12 11  1  0  0  0  0
 12  8  2  0  0  0  0
 14 11  1  0  0  0  0
 15 16  1  0  0  0  0
 15 19  1  0  0  0  0
 16 22  1  6  0  0  0
 16 20  1  0  0  0  0
 18 15  2  0  0  0  0
 19 21  2  0  0  0  0
 20 14  1  0  0  0  0
 20 17  2  0  0  0  0
 21 17  1  0  0  0  0
 21 24  1  0  0  0  0
 23 22  1  0  0  0  0
 25 24  1  0  0  0  0
 25 26  1  0  0  0  0
 27 28  1  0  0  0  0
 28  2  1  0  0  0  0
 29 30  1  0  0  0  0
 29  6  1  0  0  0  0
 30 31  1  0  0  0  0
 31 32  1  0  0  0  0
 32 33  1  6  0  0  0
 34 38  1  0  0  0  0
 35 38  1  0  0  0  0
 36 34  1  0  0  0  0
 37 32  1  1  0  0  0
 37 36  1  0  0  0  0
 37 39  1  0  0  0  0
 39 35  2  0  0  0  0
M  END
>  <MODEL>
1

>  <REMARK>
 VINA RESULT:      -7.2      0.000      0.000
  Name = 
  12 active torsions:
  status: ('A' for Active; 'I' for Inactive)
    1  A    between atoms: S_1  and  C_19
    2  A    between atoms: S_1  and  C_30
    3  A    between atoms: C_2  and  C_32
    4  A    between atoms: C_5  and  C_13
    5  A    between atoms: C_5  and  C_38
    6  A    between atoms: C_9  and  O_23
    7  A    between atoms: C_12  and  O_35
    8  A    between atoms: O_18  and  C_22
    9  A    between atoms: O_18  and  C_39
   10  A    between atoms: C_26  and  N_34
   11  A    between atoms: C_26  and  C_38
   12  A    between atoms: C_29  and  N_34
                            x       y       z     vdW  Elec       q    Type
                         _______ _______ _______ _____ _____    ______ ____

>  <TORSDO>
F 12

$$$$
=
 OpenBabel11072409153D

 39 42  0  0  1  0  0  0  0  0999 V2000
  190.5010  175.0720  144.1910 C   0  0  0  0  0  0  0  0  0  0  0  0
  189.5670  174.4380  141.5970 C   0  0  0  0  0  0  0  0  0  0  0  0
  190.3710  173.5260  142.3210 C   0  0  0  0  0  0  0  0  0  0  0  0
  190.7490  172.3020  141.7840 O   0  0  0  0  0  1  0  0  0  0  0  0
  189.7210  175.9810  143.4730 C   0  0  0  0  0  3  0  0  0  0  0  0
  189.2460  175.6820  142.1920 C   0  0  0  0  0  0  0  0  0  0  0  0
  190.8220  173.8490  143.6000 C   0  0  0  0  0  3  0  0  0  0  0  0
  190.4080  175.0860  146.7650 C   0  0  0  0  0  0  0  0  0  0  0  0
  189.1960  174.3620  146.9500 N   0  0  0  0  0  1  0  0  0  0  0  0
  192.1830  176.2030  147.2700 N   0  0  0  0  0  0  0  0  0  0  0  0
  192.1200  176.1210  145.9260 C   0  0  0  0  0  0  0  0  0  0  0  0
  190.9860  175.4110  145.5490 C   0  0  0  0  0  0  0  0  0  0  0  0
  191.1380  175.5750  147.7820 N   0  0  0  0  0  2  0  0  0  0  0  0
  193.3900  176.8000  144.8550 S   0  0  0  0  0  0  0  0  0  0  0  0
  194.3510  173.4560  142.6160 C   0  0  0  0  0  0  0  0  0  0  0  0
  194.3110  174.9280  142.9140 C   0  0  1  0  0  3  0  0  0  0  0  0
  194.1180  174.2320  145.2890 C   0  0  0  0  0  3  0  0  0  0  0  0
  194.2410  172.9350  141.0740 S   0  0  0  0  0  0  0  0  0  0  0  0
  194.6090  172.5180  143.6670 N   0  0  0  0  0  0  0  0  0  0  0  0
  193.9560  175.1760  144.3580 C   0  0  0  0  0  0  0  0  0  0  0  0
  194.5300  172.8580  144.9190 C   0  0  0  0  0  0  0  0  0  0  0  0
  195.5630  175.4880  142.6460 O   0  0  0  0  0  0  0  0  0  0  0  0
  195.3390  176.4190  141.6310 C   0  0  0  0  0  1  0  0  0  0  0  0
  194.8090  171.9020  145.8990 O   0  0  0  0  0  0  0  0  0  0  0  0
  194.5780  170.5130  145.7090 C   0  0  0  0  0  2  0  0  0  0  0  0
  195.5180  169.7470  146.5090 N   0  0  0  0  0  1  0  0  0  0  0  0
  188.1560  173.1480  139.9750 C   0  0  0  0  0  1  0  0  0  0  0  0
  189.0980  174.1610  140.3020 O   0  0  0  0  0  0  0  0  0  0  0  0
  188.4520  176.6840  141.5380 N   0  0  0  0  0  2  0  0  0  0  0  0
  188.0800  177.9780  142.0940 C   0  0  0  0  0  2  0  0  0  0  0  0
  186.5810  178.1830  141.9560 C   0  0  0  0  0  2  0  0  0  0  0  0
  185.8590  177.6430  143.1820 C   0  0  1  0  0  3  0  0  0  0  0  0
  185.8200  176.2470  143.1400 O   0  0  0  0  0  1  0  0  0  0  0  0
  184.6590  178.8510  146.0000 C   0  0  0  0  0  2  0  0  0  0  0  0
  186.1720  176.9720  146.6590 C   0  0  0  0  0  3  0  0  0  0  0  0
  185.7640  179.3260  145.0630 C   0  0  0  0  0  2  0  0  0  0  0  0
  186.5320  178.1350  144.4650 C   0  0  1  0  0  3  0  0  0  0  0  0
  185.2900  178.0860  147.1570 C   0  0  0  0  0  2  0  0  0  0  0  0
  186.7650  177.0130  145.4570 C   0  0  0  0  0  3  0  0  0  0  0  0
  1 12  1  0  0  0  0
  2  6  2  0  0  0  0
  2  3  1  0  0  0  0
  3  7  2  0  0  0  0
  4  3  1  0  0  0  0
  5  1  2  0  0  0  0
  6  5  1  0  0  0  0
  7  1  1  0  0  0  0
  8  9  1  0  0  0  0
  8 13  1  0  0  0  0
 10 13  1  0  0  0  0
 11 10  2  0  0  0  0
 12 11  1  0  0  0  0
 12  8  2  0  0  0  0
 14 11  1  0  0  0  0
 15 16  1  0  0  0  0
 15 19  1  0  0  0  0
 16 22  1  1  0  0  0
 16 20  1  0  0  0  0
 18 15  2  0  0  0  0
 19 21  2  0  0  0  0
 20 14  1  0  0  0  0
 20 17  2  0  0  0  0
 21 17  1  0  0  0  0
 21 24  1  0  0  0  0
 23 22  1  0  0  0  0
 25 24  1  0  0  0  0
 25 26  1  0  0  0  0
 27 28  1  0  0  0  0
 28  2  1  0  0  0  0
 29 30  1  0  0  0  0
 29  6  1  0  0  0  0
 31 30  1  0  0  0  0
 31 32  1  0  0  0  0
 32 33  1  6  0  0  0
 34 38  1  0  0  0  0
 35 38  1  0  0  0  0
 36 34  1  0  0  0  0
 37 32  1  6  0  0  0
 37 36  1  0  0  0  0
 37 39  1  0  0  0  0
 39 35  2  0  0  0  0
M  END
>  <MODEL>
2

>  <REMARK>
 VINA RESULT:      -6.7      1.082      1.352
  Name = 
  12 active torsions:
  status: ('A' for Active; 'I' for Inactive)
    1  A    between atoms: S_1  and  C_19
    2  A    between atoms: S_1  and  C_30
    3  A    between atoms: C_2  and  C_32
    4  A    between atoms: C_5  and  C_13
    5  A    between atoms: C_5  and  C_38
    6  A    between atoms: C_9  and  O_23
    7  A    between atoms: C_12  and  O_35
    8  A    between atoms: O_18  and  C_22
    9  A    between atoms: O_18  and  C_39
   10  A    between atoms: C_26  and  N_34
   11  A    between atoms: C_26  and  C_38
   12  A    between atoms: C_29  and  N_34
                            x       y       z     vdW  Elec       q    Type
                         _______ _______ _______ _____ _____    ______ ____

>  <TORSDO>
F 12

$$$$
=
 OpenBabel11072409153D

 39 42  0  0  1  0  0  0  0  0999 V2000
  189.9420  174.9500  143.8350 C   0  0  0  0  0  0  0  0  0  0  0  0
  191.1830  173.4770  141.7620 C   0  0  0  0  0  0  0  0  0  0  0  0
  189.9990  173.0060  142.3770 C   0  0  0  0  0  0  0  0  0  0  0  0
  189.4150  171.8020  142.0070 O   0  0  0  0  0  1  0  0  0  0  0  0
  191.1190  175.4100  143.2400 C   0  0  0  0  0  3  0  0  0  0  0  0
  191.7440  174.6980  142.2110 C   0  0  0  0  0  0  0  0  0  0  0  0
  189.3950  173.7430  143.3950 C   0  0  0  0  0  3  0  0  0  0  0  0
  189.0300  175.3170  146.2150 C   0  0  0  0  0  0  0  0  0  0  0  0
  189.3100  174.0340  146.7640 N   0  0  0  0  0  1  0  0  0  0  0  0
  188.3020  177.3450  146.1060 N   0  0  0  0  0  0  0  0  0  0  0  0
  188.8170  177.0300  144.9010 C   0  0  0  0  0  0  0  0  0  0  0  0
  189.2970  175.7270  144.9200 C   0  0  0  0  0  0  0  0  0  0  0  0
  188.4280  176.2990  146.9080 N   0  0  0  0  0  2  0  0  0  0  0  0
  188.8920  178.2040  143.5460 S   0  0  0  0  0  0  0  0  0  0  0  0
  185.0830  178.2160  141.9320 C   0  0  0  0  0  0  0  0  0  0  0  0
  186.5010  177.7390  142.0680 C   0  0  1  0  0  3  0  0  0  0  0  0
  186.3550  178.6120  144.3870 C   0  0  0  0  0  3  0  0  0  0  0  0
  184.3680  178.2360  140.4660 S   0  0  0  0  0  0  0  0  0  0  0  0
  184.3180  178.5340  143.1010 N   0  0  0  0  0  0  0  0  0  0  0  0
  187.1130  178.2270  143.3570 C   0  0  0  0  0  0  0  0  0  0  0  0
  184.8820  178.7010  144.2600 C   0  0  0  0  0  0  0  0  0  0  0  0
  186.5220  176.3420  142.0490 O   0  0  0  0  0  0  0  0  0  0  0  0
  187.4900  176.0030  141.1020 C   0  0  0  0  0  1  0  0  0  0  0  0
  184.0810  178.9950  145.3660 O   0  0  0  0  0  0  0  0  0  0  0  0
  184.0640  178.1940  146.5400 C   0  0  0  0  0  2  0  0  0  0  0  0
  185.0920  178.6520  147.4600 N   0  0  0  0  0  1  0  0  0  0  0  0
  192.8010  171.7460  140.9460 C   0  0  0  0  0  1  0  0  0  0  0  0
  191.8330  172.7650  140.7400 O   0  0  0  0  0  0  0  0  0  0  0  0
  192.9500  175.2560  141.6680 N   0  0  0  0  0  2  0  0  0  0  0  0
  194.0360  175.8530  142.4330 C   0  0  0  0  0  2  0  0  0  0  0  0
  194.9280  174.7580  142.9930 C   0  0  0  0  0  2  0  0  0  0  0  0
  195.8410  175.3210  144.0720 C   0  0  1  0  0  3  0  0  0  0  0  0
  195.8420  176.7170  144.0190 O   0  0  0  0  0  1  0  0  0  0  0  0
  193.3820  176.1900  146.0830 C   0  0  0  0  0  2  0  0  0  0  0  0
  193.1910  173.7110  145.8120 C   0  0  0  0  0  3  0  0  0  0  0  0
  194.8760  175.9840  146.3100 C   0  0  0  0  0  2  0  0  0  0  0  0
  195.4120  174.8250  145.4540 C   0  0  1  0  0  3  0  0  0  0  0  0
  192.6420  174.9270  146.5080 C   0  0  0  0  0  2  0  0  0  0  0  0
  194.4560  173.6500  145.3700 C   0  0  0  0  0  3  0  0  0  0  0  0
  1 12  1  0  0  0  0
  2  6  2  0  0  0  0
  2  3  1  0  0  0  0
  3  7  2  0  0  0  0
  4  3  1  0  0  0  0
  5  1  2  0  0  0  0
  6  5  1  0  0  0  0
  7  1  1  0  0  0  0
  8  9  1  0  0  0  0
  8 13  1  0  0  0  0
 10 13  1  0  0  0  0
 11 12  1  0  0  0  0
 11 10  2  0  0  0  0
 12  8  2  0  0  0  0
 14 11  1  0  0  0  0
 15 16  1  0  0  0  0
 15 19  1  0  0  0  0
 16 22  1  1  0  0  0
 16 20  1  0  0  0  0
 18 15  2  0  0  0  0
 19 21  2  0  0  0  0
 20 14  1  0  0  0  0
 20 17  2  0  0  0  0
 21 17  1  0  0  0  0
 21 24  1  0  0  0  0
 23 22  1  0  0  0  0
 24 25  1  0  0  0  0
 25 26  1  0  0  0  0
 28 27  1  0  0  0  0
 28  2  1  0  0  0  0
 29  6  1  0  0  0  0
 29 30  1  0  0  0  0
 30 31  1  0  0  0  0
 31 32  1  0  0  0  0
 32 33  1  1  0  0  0
 34 36  1  0  0  0  0
 34 38  1  0  0  0  0
 35 38  1  0  0  0  0
 37 32  1  6  0  0  0
 37 36  1  0  0  0  0
 39 37  1  0  0  0  0
 39 35  2  0  0  0  0
M  END
>  <MODEL>
3

>  <REMARK>
 VINA RESULT:      -6.6      2.855      7.628
  Name = 
  12 active torsions:
  status: ('A' for Active; 'I' for Inactive)
    1  A    between atoms: S_1  and  C_19
    2  A    between atoms: S_1  and  C_30
    3  A    between atoms: C_2  and  C_32
    4  A    between atoms: C_5  and  C_13
    5  A    between atoms: C_5  and  C_38
    6  A    between atoms: C_9  and  O_23
    7  A    between atoms: C_12  and  O_35
    8  A    between atoms: O_18  and  C_22
    9  A    between atoms: O_18  and  C_39
   10  A    between atoms: C_26  and  N_34
   11  A    between atoms: C_26  and  C_38
   12  A    between atoms: C_29  and  N_34
                            x       y       z     vdW  Elec       q    Type
                         _______ _______ _______ _____ _____    ______ ____

>  <TORSDO>
F 12

$$$$
=
 OpenBabel11072409153D

 39 42  0  0  1  0  0  0  0  0999 V2000
  190.5530  173.7530  141.5690 C   0  0  0  0  0  0  0  0  0  0  0  0
  188.2600  175.4000  141.3850 C   0  0  0  0  0  0  0  0  0  0  0  0
  188.6690  174.6020  140.2900 C   0  0  0  0  0  0  0  0  0  0  0  0
  187.9800  174.6090  139.0850 O   0  0  0  0  0  1  0  0  0  0  0  0
  190.1620  174.5520  142.6460 C   0  0  0  0  0  3  0  0  0  0  0  0
  189.0280  175.3670  142.5750 C   0  0  0  0  0  0  0  0  0  0  0  0
  189.7990  173.7910  140.3950 C   0  0  0  0  0  3  0  0  0  0  0  0
  191.8160  171.5540  142.0190 C   0  0  0  0  0  0  0  0  0  0  0  0
  190.7110  170.7280  142.3710 N   0  0  0  0  0  1  0  0  0  0  0  0
  193.8630  172.1320  141.6590 N   0  0  0  0  0  0  0  0  0  0  0  0
  193.0890  173.2150  141.4490 C   0  0  0  0  0  0  0  0  0  0  0  0
  191.7560  172.8930  141.6730 C   0  0  0  0  0  0  0  0  0  0  0  0
  193.0870  171.1190  142.0110 N   0  0  0  0  0  2  0  0  0  0  0  0
  193.7550  174.7860  140.8960 S   0  0  0  0  0  0  0  0  0  0  0  0
  196.0960  174.8670  144.3070 C   0  0  0  0  0  0  0  0  0  0  0  0
  195.8520  174.8700  142.8240 C   0  0  1  0  0  3  0  0  0  0  0  0
  193.6200  175.7910  143.4020 C   0  0  0  0  0  3  0  0  0  0  0  0
  197.4140  174.1200  144.9120 S   0  0  0  0  0  0  0  0  0  0  0  0
  195.2430  175.6210  145.1760 N   0  0  0  0  0  0  0  0  0  0  0  0
  194.4070  175.1750  142.5170 C   0  0  0  0  0  0  0  0  0  0  0  0
  194.0970  176.0820  144.7740 C   0  0  0  0  0  0  0  0  0  0  0  0
  196.6630  175.8380  142.2250 O   0  0  0  0  0  0  0  0  0  0  0  0
  197.4710  175.1350  141.3290 C   0  0  0  0  0  1  0  0  0  0  0  0
  193.3160  176.8250  145.6640 O   0  0  0  0  0  0  0  0  0  0  0  0
  192.6500  176.2420  146.7760 C   0  0  0  0  0  2  0  0  0  0  0  0
  192.0820  174.9610  146.3890 N   0  0  0  0  0  1  0  0  0  0  0  0
  187.1290  177.5560  140.7900 C   0  0  0  0  0  1  0  0  0  0  0  0
  187.1350  176.2390  141.3240 O   0  0  0  0  0  0  0  0  0  0  0  0
  188.7110  176.1500  143.7360 N   0  0  0  0  0  2  0  0  0  0  0  0
  189.6250  177.0340  144.4470 C   0  0  0  0  0  2  0  0  0  0  0  0
  189.1330  177.2420  145.8690 C   0  0  0  0  0  2  0  0  0  0  0  0
  187.6310  177.0100  145.9480 C   0  0  1  0  0  3  0  0  0  0  0  0
  187.3340  176.1470  147.0060 O   0  0  0  0  0  1  0  0  0  0  0  0
  184.8120  178.1370  144.6730 C   0  0  0  0  0  2  0  0  0  0  0  0
  184.6090  178.4510  147.1460 C   0  0  0  0  0  3  0  0  0  0  0  0
  186.2100  178.7380  144.7770 C   0  0  0  0  0  2  0  0  0  0  0  0
  186.8870  178.3380  146.0980 C   0  0  1  0  0  3  0  0  0  0  0  0
  183.9560  178.6820  145.8100 C   0  0  0  0  0  2  0  0  0  0  0  0
  185.9390  178.3340  147.2810 C   0  0  0  0  0  3  0  0  0  0  0  0
  1 12  1  0  0  0  0
  1  5  1  0  0  0  0
  2  6  1  0  0  0  0
  3  7  1  0  0  0  0
  3  2  2  0  0  0  0
  4  3  1  0  0  0  0
  6  5  2  0  0  0  0
  6 29  1  0  0  0  0
  7  1  2  0  0  0  0
  8  9  1  0  0  0  0
 10 13  1  0  0  0  0
 11 10  2  0  0  0  0
 11 12  1  0  0  0  0
 12  8  2  0  0  0  0
 13  8  1  0  0  0  0
 14 11  1  0  0  0  0
 14 20  1  0  0  0  0
 15 18  2  0  0  0  0
 15 19  1  0  0  0  0
 16 22  1  6  0  0  0
 16 15  1  0  0  0  0
 17 21  1  0  0  0  0
 20 16  1  0  0  0  0
 20 17  2  0  0  0  0
 21 19  2  0  0  0  0
 21 24  1  0  0  0  0
 23 22  1  0  0  0  0
 24 25  1  0  0  0  0
 26 25  1  0  0  0  0
 27 28  1  0  0  0  0
 28  2  1  0  0  0  0
 29 30  1  0  0  0  0
 30 31  1  0  0  0  0
 31 32  1  0  0  0  0
 32 33  1  1  0  0  0
 34 36  1  0  0  0  0
 34 38  1  0  0  0  0
 35 39  2  0  0  0  0
 36 37  1  0  0  0  0
 37 32  1  6  0  0  0
 37 39  1  0  0  0  0
 38 35  1  0  0  0  0
M  END
>  <MODEL>
4

>  <REMARK>
 VINA RESULT:      -6.4      2.533      4.220
  Name = 
  12 active torsions:
  status: ('A' for Active; 'I' for Inactive)
    1  A    between atoms: S_1  and  C_19
    2  A    between atoms: S_1  and  C_30
    3  A    between atoms: C_2  and  C_32
    4  A    between atoms: C_5  and  C_13
    5  A    between atoms: C_5  and  C_38
    6  A    between atoms: C_9  and  O_23
    7  A    between atoms: C_12  and  O_35
    8  A    between atoms: O_18  and  C_22
    9  A    between atoms: O_18  and  C_39
   10  A    between atoms: C_26  and  N_34
   11  A    between atoms: C_26  and  C_38
   12  A    between atoms: C_29  and  N_34
                            x       y       z     vdW  Elec       q    Type
                         _______ _______ _______ _____ _____    ______ ____

>  <TORSDO>
F 12

$$$$
=
 OpenBabel11072409153D

 39 42  0  0  1  0  0  0  0  0999 V2000
  191.2460  175.5960  143.1490 C   0  0  0  0  0  0  0  0  0  0  0  0
  193.6040  176.2190  144.5830 C   0  0  0  0  0  0  0  0  0  0  0  0
  192.3700  176.0490  145.2550 C   0  0  0  0  0  0  0  0  0  0  0  0
  192.2630  176.1990  146.6310 O   0  0  0  0  0  1  0  0  0  0  0  0
  192.4590  175.7800  142.4810 C   0  0  0  0  0  3  0  0  0  0  0  0
  193.6350  176.0820  143.1730 C   0  0  0  0  0  0  0  0  0  0  0  0
  191.2160  175.7390  144.5370 C   0  0  0  0  0  3  0  0  0  0  0  0
  189.6000  174.0310  141.9350 C   0  0  0  0  0  0  0  0  0  0  0  0
  190.3020  172.8020  142.0900 N   0  0  0  0  0  1  0  0  0  0  0  0
  188.0610  175.4040  141.3030 N   0  0  0  0  0  0  0  0  0  0  0  0
  188.9960  176.1140  141.9650 C   0  0  0  0  0  0  0  0  0  0  0  0
  190.0150  175.2710  142.3910 C   0  0  1  0  0  3  0  0  0  0  0  0
  188.4310  174.1330  141.2800 N   0  0  0  0  0  0  0  0  0  0  0  0
  188.8360  177.8750  142.2680 S   0  0  0  0  0  0  0  0  0  0  0  0
  185.5020  178.1750  144.6980 C   0  0  0  0  0  0  0  0  0  0  0  0
  186.2220  178.0780  143.3840 C   0  0  1  0  0  3  0  0  0  0  0  0
  188.0280  176.9840  144.6890 C   0  0  0  0  0  3  0  0  0  0  0  0
  184.1410  179.0680  144.8160 S   0  0  0  0  0  0  0  0  0  0  0  0
  185.9350  177.3870  145.8130 N   0  0  0  0  0  0  0  0  0  0  0  0
  187.6470  177.6270  143.5820 C   0  0  0  0  0  0  0  0  0  0  0  0
  187.0950  176.8030  145.8260 C   0  0  0  0  0  0  0  0  0  0  0  0
  185.5600  177.1620  142.5610 O   0  0  0  0  0  0  0  0  0  0  0  0
  185.1930  177.8870  141.4260 C   0  0  0  0  0  1  0  0  0  0  0  0
  187.4550  176.0350  146.9360 O   0  0  0  0  0  0  0  0  0  0  0  0
  188.8070  175.7680  147.2830 C   0  0  0  0  0  2  0  0  0  0  0  0
  189.0850  174.3520  147.1100 N   0  0  0  0  0  1  0  0  0  0  0  0
  195.1600  177.8480  145.6810 C   0  0  0  0  0  1  0  0  0  0  0  0
  194.7910  176.5410  145.2620 O   0  0  0  0  0  0  0  0  0  0  0  0
  194.8290  176.2510  142.3940 N   0  0  0  0  0  2  0  0  0  0  0  0
  195.9050  175.2790  142.2580 C   0  0  0  0  0  2  0  0  0  0  0  0
  195.4740  173.9510  142.8560 C   0  0  0  0  0  2  0  0  0  0  0  0
  196.5750  173.3890  143.7440 C   0  0  1  0  0  3  0  0  0  0  0  0
  197.6340  174.2970  143.8270 O   0  0  0  0  0  1  0  0  0  0  0  0
  194.4260  171.1300  144.8050 C   0  0  0  0  0  2  0  0  0  0  0  0
  196.4730  170.8320  146.2120 C   0  0  0  0  0  3  0  0  0  0  0  0
  194.5530  172.6300  145.0540 C   0  0  0  0  0  2  0  0  0  0  0  0
  196.0290  173.0540  145.1330 C   0  0  1  0  0  3  0  0  0  0  0  0
  195.0560  170.3820  145.9740 C   0  0  0  0  0  2  0  0  0  0  0  0
  196.9020  172.0540  145.8670 C   0  0  0  0  0  3  0  0  0  0  0  0
  1  7  1  0  0  0  0
  2  3  1  0  0  0  0
  2 28  1  0  0  0  0
  3  4  1  0  0  0  0
  5  1  2  0  0  0  0
  5  6  1  0  0  0  0
  6  2  2  0  0  0  0
  7  3  2  0  0  0  0
  8  9  1  0  0  0  0
  8 12  1  0  0  0  0
 10 11  2  0  0  0  0
 11 14  1  0  0  0  0
 11 12  1  0  0  0  0
 12  1  1  1  0  0  0
 13 10  1  0  0  0  0
 13  8  2  0  0  0  0
 14 20  1  0  0  0  0
 15 18  2  0  0  0  0
 15 19  1  0  0  0  0
 16 22  1  6  0  0  0
 16 20  1  0  0  0  0
 16 15  1  0  0  0  0
 17 21  1  0  0  0  0
 19 21  2  0  0  0  0
 20 17  2  0  0  0  0
 21 24  1  0  0  0  0
 23 22  1  0  0  0  0
 24 25  1  0  0  0  0
 26 25  1  0  0  0  0
 28 27  1  0  0  0  0
 29  6  1  0  0  0  0
 30 29  1  0  0  0  0
 30 31  1  0  0  0  0
 31 32  1  0  0  0  0
 32 33  1  1  0  0  0
 34 36  1  0  0  0  0
 34 38  1  0  0  0  0
 36 37  1  0  0  0  0
 37 32  1  6  0  0  0
 37 39  1  0  0  0  0
 38 35  1  0  0  0  0
 39 35  2  0  0  0  0
M  END
>  <MODEL>
5

>  <REMARK>
 VINA RESULT:      -6.3      2.960      8.492
  Name = 
  12 active torsions:
  status: ('A' for Active; 'I' for Inactive)
    1  A    between atoms: S_1  and  C_19
    2  A    between atoms: S_1  and  C_30
    3  A    between atoms: C_2  and  C_32
    4  A    between atoms: C_5  and  C_13
    5  A    between atoms: C_5  and  C_38
    6  A    between atoms: C_9  and  O_23
    7  A    between atoms: C_12  and  O_35
    8  A    between atoms: O_18  and  C_22
    9  A    between atoms: O_18  and  C_39
   10  A    between atoms: C_26  and  N_34
   11  A    between atoms: C_26  and  C_38
   12  A    between atoms: C_29  and  N_34
                            x       y       z     vdW  Elec       q    Type
                         _______ _______ _______ _____ _____    ______ ____

>  <TORSDO>
F 12

$$$$
=
 OpenBabel11072409153D

 39 42  0  0  1  0  0  0  0  0999 V2000
  192.8120  174.4230  145.3540 C   0  0  0  0  0  0  0  0  0  0  0  0
  193.8310  172.6030  143.4420 C   0  0  0  0  0  0  0  0  0  0  0  0
  193.9060  172.3180  144.8260 C   0  0  0  0  0  0  0  0  0  0  0  0
  194.4960  171.1540  145.2990 O   0  0  0  0  0  1  0  0  0  0  0  0
  192.7510  174.7150  143.9890 C   0  0  0  0  0  3  0  0  0  0  0  0
  193.2440  173.8250  143.0300 C   0  0  0  0  0  0  0  0  0  0  0  0
  193.3970  173.2210  145.7580 C   0  0  0  0  0  3  0  0  0  0  0  0
  192.9300  176.4480  146.9400 C   0  0  0  0  0  0  0  0  0  0  0  0
  194.2830  176.8310  146.7160 N   0  0  0  0  0  1  0  0  0  0  0  0
  190.9450  176.4720  147.7840 N   0  0  0  0  0  0  0  0  0  0  0  0
  191.0100  175.4400  146.9190 C   0  0  0  0  0  0  0  0  0  0  0  0
  192.2760  175.3810  146.3490 C   0  0  0  0  0  0  0  0  0  0  0  0
  192.1180  177.0850  147.8000 N   0  0  0  0  0  2  0  0  0  0  0  0
  189.6000  174.3890  146.5620 S   0  0  0  0  0  0  0  0  0  0  0  0
  188.5670  177.2590  143.7670 C   0  0  0  0  0  0  0  0  0  0  0  0
  189.0360  175.9040  144.2150 C   0  0  1  0  0  3  0  0  0  0  0  0
  187.8170  176.4070  146.3190 C   0  0  0  0  0  3  0  0  0  0  0  0
  189.1650  177.9140  142.3980 S   0  0  0  0  0  0  0  0  0  0  0  0
  187.5080  177.9200  144.4690 N   0  0  0  0  0  0  0  0  0  0  0  0
  188.7460  175.6910  145.6800 C   0  0  0  0  0  0  0  0  0  0  0  0
  187.1240  177.5310  145.6480 C   0  0  0  0  0  0  0  0  0  0  0  0
  188.3820  174.9190  143.4700 O   0  0  0  0  0  0  0  0  0  0  0  0
  189.3960  174.2350  142.7970 C   0  0  0  0  0  1  0  0  0  0  0  0
  186.0750  178.2070  146.2760 O   0  0  0  0  0  0  0  0  0  0  0  0
  184.7110  177.8510  146.0940 C   0  0  0  0  0  2  0  0  0  0  0  0
  183.9360  179.0360  145.7630 N   0  0  0  0  0  1  0  0  0  0  0  0
  193.6270  170.6370  141.9010 C   0  0  0  0  0  1  0  0  0  0  0  0
  194.3390  171.7290  142.4670 O   0  0  0  0  0  0  0  0  0  0  0  0
  193.1340  174.2190  141.6540 N   0  0  0  0  0  2  0  0  0  0  0  0
  193.9580  175.2130  140.9810 C   0  0  0  0  0  2  0  0  0  0  0  0
  195.3710  174.6800  140.8150 C   0  0  0  0  0  2  0  0  0  0  0  0
  196.3750  175.8220  140.8470 C   0  0  1  0  0  3  0  0  0  0  0  0
  195.7160  177.0340  141.0750 O   0  0  0  0  0  1  0  0  0  0  0  0
  196.2720  175.7820  144.1390 C   0  0  0  0  0  2  0  0  0  0  0  0
  197.3050  173.6050  143.4670 C   0  0  0  0  0  3  0  0  0  0  0  0
  197.2100  176.4590  143.1440 C   0  0  0  0  0  2  0  0  0  0  0  0
  197.4440  175.5710  141.9120 C   0  0  1  0  0  3  0  0  0  0  0  0
  196.9180  174.4890  144.6220 C   0  0  0  0  0  2  0  0  0  0  0  0
  197.5810  174.0990  142.2510 C   0  0  0  0  0  3  0  0  0  0  0  0
  1  7  1  0  0  0  0
  1 12  1  0  0  0  0
  2  3  1  0  0  0  0
  3  4  1  0  0  0  0
  3  7  2  0  0  0  0
  5  1  2  0  0  0  0
  6  2  2  0  0  0  0
  6  5  1  0  0  0  0
  8 13  1  0  0  0  0
  9  8  1  0  0  0  0
 10 13  1  0  0  0  0
 11 10  2  0  0  0  0
 12 11  1  0  0  0  0
 12  8  2  0  0  0  0
 14 11  1  0  0  0  0
 15 16  1  0  0  0  0
 15 19  1  0  0  0  0
 16 22  1  6  0  0  0
 16 20  1  0  0  0  0
 18 15  2  0  0  0  0
 19 21  2  0  0  0  0
 20 17  2  0  0  0  0
 20 14  1  0  0  0  0
 21 24  1  0  0  0  0
 21 17  1  0  0  0  0
 23 22  1  0  0  0  0
 25 24  1  0  0  0  0
 26 25  1  0  0  0  0
 27 28  1  0  0  0  0
 28  2  1  0  0  0  0
 29  6  1  0  0  0  0
 30 29  1  0  0  0  0
 31 32  1  0  0  0  0
 31 30  1  0  0  0  0
 32 33  1  1  0  0  0
 34 38  1  0  0  0  0
 35 38  1  0  0  0  0
 36 34  1  0  0  0  0
 37 32  1  6  0  0  0
 37 39  1  0  0  0  0
 37 36  1  0  0  0  0
 39 35  2  0  0  0  0
M  END
>  <MODEL>
6

>  <REMARK>
 VINA RESULT:      -6.2      2.556      8.018
  Name = 
  12 active torsions:
  status: ('A' for Active; 'I' for Inactive)
    1  A    between atoms: S_1  and  C_19
    2  A    between atoms: S_1  and  C_30
    3  A    between atoms: C_2  and  C_32
    4  A    between atoms: C_5  and  C_13
    5  A    between atoms: C_5  and  C_38
    6  A    between atoms: C_9  and  O_23
    7  A    between atoms: C_12  and  O_35
    8  A    between atoms: O_18  and  C_22
    9  A    between atoms: O_18  and  C_39
   10  A    between atoms: C_26  and  N_34
   11  A    between atoms: C_26  and  C_38
   12  A    between atoms: C_29  and  N_34
                            x       y       z     vdW  Elec       q    Type
                         _______ _______ _______ _____ _____    ______ ____

>  <TORSDO>
F 12

$$$$
=
 OpenBabel11072409153D

 39 42  0  0  1  0  0  0  0  0999 V2000
  192.9370  175.4670  145.1310 C   0  0  0  0  0  0  0  0  0  0  0  0
  190.6800  176.6280  146.3810 C   0  0  0  0  0  0  0  0  0  0  0  0
  191.4860  175.6890  147.0680 C   0  0  0  0  0  0  0  0  0  0  0  0
  191.1940  175.2880  148.3640 O   0  0  0  0  0  1  0  0  0  0  0  0
  192.1330  176.3810  144.4440 C   0  0  0  0  0  3  0  0  0  0  0  0
  191.0180  176.9690  145.0480 C   0  0  0  0  0  0  0  0  0  0  0  0
  192.5980  175.1270  146.4410 C   0  0  0  0  0  3  0  0  0  0  0  0
  195.3350  175.4620  144.1920 C   0  0  0  0  0  0  0  0  0  0  0  0
  195.6910  176.8100  144.4760 N   0  0  0  0  0  1  0  0  0  0  0  0
  195.5200  173.4440  143.4500 N   0  0  0  0  0  0  0  0  0  0  0  0
  194.2870  173.5740  143.9800 C   0  0  0  0  0  0  0  0  0  0  0  0
  194.1180  174.8630  144.4690 C   0  0  1  0  0  3  0  0  0  0  0  0
  196.1590  174.5960  143.5760 N   0  0  0  0  0  0  0  0  0  0  0  0
  193.1220  172.2120  144.0610 S   0  0  0  0  0  0  0  0  0  0  0  0
  192.6860  172.8810  140.0010 C   0  0  0  0  0  0  0  0  0  0  0  0
  193.1610  172.1300  141.2130 C   0  0  1  0  0  3  0  0  0  0  0  0
  191.2610  173.2220  142.3790 C   0  0  0  0  0  3  0  0  0  0  0  0
  193.6060  172.9170  138.6540 S   0  0  0  0  0  0  0  0  0  0  0  0
  191.3750  173.4580  139.9840 N   0  0  0  0  0  0  0  0  0  0  0  0
  192.4370  172.5930  142.4520 C   0  0  0  0  0  0  0  0  0  0  0  0
  190.6810  173.6080  141.0720 C   0  0  0  0  0  0  0  0  0  0  0  0
  192.9300  170.7630  141.0290 O   0  0  0  0  0  0  0  0  0  0  0  0
  194.1870  170.1640  141.1130 C   0  0  0  0  0  1  0  0  0  0  0  0
  189.4020  174.1630  140.9880 O   0  0  0  0  0  0  0  0  0  0  0  0
  188.2370  173.3850  140.7510 C   0  0  0  0  0  2  0  0  0  0  0  0
  187.5660  173.1120  142.0110 N   0  0  0  0  0  1  0  0  0  0  0  0
  189.5690  178.2940  147.8880 C   0  0  0  0  0  1  0  0  0  0  0  0
  189.5440  177.2130  146.9660 O   0  0  0  0  0  0  0  0  0  0  0  0
  190.2570  177.8950  144.2570 N   0  0  0  0  0  2  0  0  0  0  0  0
  189.3940  177.5540  143.1350 C   0  0  0  0  0  2  0  0  0  0  0  0
  188.3010  176.6080  143.6000 C   0  0  0  0  0  2  0  0  0  0  0  0
  186.9520  177.3130  143.5890 C   0  0  1  0  0  3  0  0  0  0  0  0
  185.9300  176.3900  143.3510 O   0  0  0  0  0  1  0  0  0  0  0  0
  184.4040  179.0470  144.7470 C   0  0  0  0  0  2  0  0  0  0  0  0
  184.9280  177.3540  146.5120 C   0  0  0  0  0  3  0  0  0  0  0  0
  185.8990  179.3360  144.6720 C   0  0  0  0  0  2  0  0  0  0  0  0
  186.7220  178.0590  144.9050 C   0  0  1  0  0  3  0  0  0  0  0  0
  184.0710  178.5350  146.1430 C   0  0  0  0  0  2  0  0  0  0  0  0
  186.1440  177.1600  145.9800 C   0  0  0  0  0  3  0  0  0  0  0  0
  1  7  1  0  0  0  0
  2 28  1  0  0  0  0
  2  3  1  0  0  0  0
  3  4  1  0  0  0  0
  5  6  1  0  0  0  0
  5  1  2  0  0  0  0
  6  2  2  0  0  0  0
  7  3  2  0  0  0  0
  8 12  1  0  0  0  0
  8  9  1  0  0  0  0
 10 13  1  0  0  0  0
 10 11  2  0  0  0  0
 11 14  1  0  0  0  0
 11 12  1  0  0  0  0
 12  1  1  1  0  0  0
 13  8  2  0  0  0  0
 15 16  1  0  0  0  0
 16 22  1  6  0  0  0
 16 20  1  0  0  0  0
 17 20  2  0  0  0  0
 18 15  2  0  0  0  0
 19 15  1  0  0  0  0
 19 21  2  0  0  0  0
 20 14  1  0  0  0  0
 21 17  1  0  0  0  0
 22 23  1  0  0  0  0
 24 21  1  0  0  0  0
 25 24  1  0  0  0  0
 25 26  1  0  0  0  0
 28 27  1  0  0  0  0
 29  6  1  0  0  0  0
 30 31  1  0  0  0  0
 30 29  1  0  0  0  0
 32 33  1  1  0  0  0
 32 31  1  0  0  0  0
 34 38  1  0  0  0  0
 36 34  1  0  0  0  0
 36 37  1  0  0  0  0
 37 32  1  6  0  0  0
 37 39  1  0  0  0  0
 38 35  1  0  0  0  0
 39 35  2  0  0  0  0
M  END
>  <MODEL>
7

>  <REMARK>
 VINA RESULT:      -6.1      2.646      4.976
  Name = 
  12 active torsions:
  status: ('A' for Active; 'I' for Inactive)
    1  A    between atoms: S_1  and  C_19
    2  A    between atoms: S_1  and  C_30
    3  A    between atoms: C_2  and  C_32
    4  A    between atoms: C_5  and  C_13
    5  A    between atoms: C_5  and  C_38
    6  A    between atoms: C_9  and  O_23
    7  A    between atoms: C_12  and  O_35
    8  A    between atoms: O_18  and  C_22
    9  A    between atoms: O_18  and  C_39
   10  A    between atoms: C_26  and  N_34
   11  A    between atoms: C_26  and  C_38
   12  A    between atoms: C_29  and  N_34
                            x       y       z     vdW  Elec       q    Type
                         _______ _______ _______ _____ _____    ______ ____

>  <TORSDO>
F 12

$$$$
=
 OpenBabel11072409153D

 39 42  0  0  1  0  0  0  0  0999 V2000
  193.2900  176.1320  143.7820 C   0  0  0  0  0  0  0  0  0  0  0  0
  191.1480  176.5860  145.5740 C   0  0  0  0  0  0  0  0  0  0  0  0
  192.2510  175.7850  145.9520 C   0  0  0  0  0  0  0  0  0  0  0  0
  192.3180  175.1780  147.1980 O   0  0  0  0  0  1  0  0  0  0  0  0
  192.1940  176.9100  143.4000 C   0  0  0  0  0  3  0  0  0  0  0  0
  191.1300  177.1490  144.2740 C   0  0  0  0  0  0  0  0  0  0  0  0
  193.3030  175.5720  145.0610 C   0  0  0  0  0  3  0  0  0  0  0  0
  195.7410  176.2400  142.9990 C   0  0  0  0  0  0  0  0  0  0  0  0
  196.3050  176.9160  144.1170 N   0  0  0  0  0  1  0  0  0  0  0  0
  195.6340  175.2870  141.0660 N   0  0  0  0  0  0  0  0  0  0  0  0
  194.3930  175.2890  141.5900 C   0  0  0  0  0  0  0  0  0  0  0  0
  194.4090  175.8990  142.8390 C   0  0  1  0  0  3  0  0  0  0  0  0
  196.4570  175.8710  141.9230 N   0  0  0  0  0  0  0  0  0  0  0  0
  192.9920  174.5330  140.7610 S   0  0  0  0  0  0  0  0  0  0  0  0
  191.3470  172.5710  144.0100 C   0  0  0  0  0  0  0  0  0  0  0  0
  191.3160  173.2280  142.6600 C   0  0  1  0  0  3  0  0  0  0  0  0
  193.7250  172.6400  142.5470 C   0  0  0  0  0  3  0  0  0  0  0  0
  190.0660  172.7080  145.0110 S   0  0  0  0  0  0  0  0  0  0  0  0
  192.4430  171.7220  144.3700 N   0  0  0  0  0  0  0  0  0  0  0  0
  192.7090  173.3860  142.1050 C   0  0  0  0  0  0  0  0  0  0  0  0
  193.5530  171.7180  143.6930 C   0  0  0  0  0  0  0  0  0  0  0  0
  190.5580  172.4460  141.7830 O   0  0  0  0  0  0  0  0  0  0  0  0
  189.4760  173.2480  141.4170 C   0  0  0  0  0  1  0  0  0  0  0  0
  194.5810  170.8570  144.0840 O   0  0  0  0  0  0  0  0  0  0  0  0
  194.9750  170.6920  145.4400 C   0  0  0  0  0  2  0  0  0  0  0  0
  196.0270  171.6410  145.7620 N   0  0  0  0  0  1  0  0  0  0  0  0
  189.0530  175.8710  146.7490 C   0  0  0  0  0  1  0  0  0  0  0  0
  190.0610  176.8210  146.4330 O   0  0  0  0  0  0  0  0  0  0  0  0
  190.0510  177.9620  143.7850 N   0  0  0  0  0  2  0  0  0  0  0  0
  189.1960  177.6530  142.6470 C   0  0  0  0  0  2  0  0  0  0  0  0
  188.0410  176.7770  143.0990 C   0  0  0  0  0  2  0  0  0  0  0  0
  186.7610  177.5940  143.1890 C   0  0  1  0  0  3  0  0  0  0  0  0
  185.6560  176.7890  142.9020 O   0  0  0  0  0  1  0  0  0  0  0  0
  184.3300  179.2820  144.6330 C   0  0  0  0  0  2  0  0  0  0  0  0
  184.9130  177.4410  146.2230 C   0  0  0  0  0  3  0  0  0  0  0  0
  185.8250  179.5450  144.4920 C   0  0  0  0  0  2  0  0  0  0  0  0
  186.6280  178.2360  144.5720 C   0  0  1  0  0  3  0  0  0  0  0  0
  184.0660  178.6660  146.0020 C   0  0  0  0  0  2  0  0  0  0  0  0
  186.0900  177.2660  145.6050 C   0  0  0  0  0  3  0  0  0  0  0  0
  1  7  1  0  0  0  0
  2  3  1  0  0  0  0
  2 28  1  0  0  0  0
  3  4  1  0  0  0  0
  5  1  2  0  0  0  0
  5  6  1  0  0  0  0
  6  2  2  0  0  0  0
  7  3  2  0  0  0  0
  8  9  1  0  0  0  0
 10 11  2  0  0  0  0
 10 13  1  0  0  0  0
 11 12  1  0  0  0  0
 12  8  1  0  0  0  0
 12  1  1  1  0  0  0
 13  8  2  0  0  0  0
 14 11  1  0  0  0  0
 14 20  1  0  0  0  0
 15 19  1  0  0  0  0
 15 18  2  0  0  0  0
 16 22  1  6  0  0  0
 16 15  1  0  0  0  0
 17 21  1  0  0  0  0
 20 17  2  0  0  0  0
 20 16  1  0  0  0  0
 21 24  1  0  0  0  0
 21 19  2  0  0  0  0
 23 22  1  0  0  0  0
 24 25  1  0  0  0  0
 25 26  1  0  0  0  0
 28 27  1  0  0  0  0
 29  6  1  0  0  0  0
 30 31  1  0  0  0  0
 30 29  1  0  0  0  0
 31 32  1  0  0  0  0
 32 33  1  1  0  0  0
 34 38  1  0  0  0  0
 36 37  1  0  0  0  0
 36 34  1  0  0  0  0
 37 32  1  6  0  0  0
 37 39  1  0  0  0  0
 38 35  1  0  0  0  0
 39 35  2  0  0  0  0
M  END
>  <MODEL>
8

>  <REMARK>
 VINA RESULT:      -6.1      2.508      4.305
  Name = 
  12 active torsions:
  status: ('A' for Active; 'I' for Inactive)
    1  A    between atoms: S_1  and  C_19
    2  A    between atoms: S_1  and  C_30
    3  A    between atoms: C_2  and  C_32
    4  A    between atoms: C_5  and  C_13
    5  A    between atoms: C_5  and  C_38
    6  A    between atoms: C_9  and  O_23
    7  A    between atoms: C_12  and  O_35
    8  A    between atoms: O_18  and  C_22
    9  A    between atoms: O_18  and  C_39
   10  A    between atoms: C_26  and  N_34
   11  A    between atoms: C_26  and  C_38
   12  A    between atoms: C_29  and  N_34
                            x       y       z     vdW  Elec       q    Type
                         _______ _______ _______ _____ _____    ______ ____

>  <TORSDO>
F 12

$$$$
=
 OpenBabel11072409153D

 39 42  0  0  1  0  0  0  0  0999 V2000
  192.9610  175.6380  145.0960 C   0  0  0  0  0  0  0  0  0  0  0  0
  190.6210  176.6560  146.3160 C   0  0  0  0  0  0  0  0  0  0  0  0
  191.4560  175.7420  147.0010 C   0  0  0  0  0  0  0  0  0  0  0  0
  191.1530  175.2950  148.2800 O   0  0  0  0  0  1  0  0  0  0  0  0
  192.1300  176.5280  144.4110 C   0  0  0  0  0  3  0  0  0  0  0  0
  190.9730  177.0460  145.0000 C   0  0  0  0  0  0  0  0  0  0  0  0
  192.6090  175.2500  146.3900 C   0  0  0  0  0  3  0  0  0  0  0  0
  195.3940  175.7560  144.2610 C   0  0  0  0  0  0  0  0  0  0  0  0
  195.6980  177.0950  144.6400 N   0  0  0  0  0  1  0  0  0  0  0  0
  195.6710  173.7940  143.4090 N   0  0  0  0  0  0  0  0  0  0  0  0
  194.4140  173.8570  143.8920 C   0  0  0  0  0  0  0  0  0  0  0  0
  194.1860  175.1090  144.4500 C   0  0  1  0  0  3  0  0  0  0  0  0
  196.2680  174.9540  143.6300 N   0  0  0  0  0  0  0  0  0  0  0  0
  193.2880  172.4610  143.8420 S   0  0  0  0  0  0  0  0  0  0  0  0
  190.5930  173.0680  140.7630 C   0  0  0  0  0  0  0  0  0  0  0  0
  191.0090  172.9420  142.2010 C   0  0  1  0  0  3  0  0  0  0  0  0
  193.2610  173.6040  141.3920 C   0  0  0  0  0  3  0  0  0  0  0  0
  189.1230  172.5400  140.2920 S   0  0  0  0  0  0  0  0  0  0  0  0
  191.4310  173.7620  139.8320 N   0  0  0  0  0  0  0  0  0  0  0  0
  192.5080  173.0370  142.3380 C   0  0  0  0  0  0  0  0  0  0  0  0
  192.6690  174.0450  140.1080 C   0  0  0  0  0  0  0  0  0  0  0  0
  190.4140  173.9640  142.9460 O   0  0  0  0  0  0  0  0  0  0  0  0
  189.7510  173.3180  143.9900 C   0  0  0  0  0  1  0  0  0  0  0  0
  193.4320  174.7380  139.1640 O   0  0  0  0  0  0  0  0  0  0  0  0
  194.5720  174.1730  138.5300 C   0  0  0  0  0  2  0  0  0  0  0  0
  195.7770  174.8110  139.0330 N   0  0  0  0  0  1  0  0  0  0  0  0
  189.3940  178.2230  147.8410 C   0  0  0  0  0  1  0  0  0  0  0  0
  189.4440  177.1710  146.8870 O   0  0  0  0  0  0  0  0  0  0  0  0
  190.1870  177.9540  144.2130 N   0  0  0  0  0  2  0  0  0  0  0  0
  189.3530  177.5950  143.0740 C   0  0  0  0  0  2  0  0  0  0  0  0
  188.2570  176.6440  143.5210 C   0  0  0  0  0  2  0  0  0  0  0  0
  186.9120  177.3550  143.5320 C   0  0  1  0  0  3  0  0  0  0  0  0
  185.8830  176.4380  143.3030 O   0  0  0  0  0  1  0  0  0  0  0  0
  184.4200  179.1640  144.6980 C   0  0  0  0  0  2  0  0  0  0  0  0
  184.8800  177.4370  146.4480 C   0  0  0  0  0  3  0  0  0  0  0  0
  185.9240  179.4030  144.6310 C   0  0  0  0  0  2  0  0  0  0  0  0
  186.7030  178.0960  144.8540 C   0  0  1  0  0  3  0  0  0  0  0  0
  184.0640  178.6500  146.0880 C   0  0  0  0  0  2  0  0  0  0  0  0
  186.0900  177.2060  145.9180 C   0  0  0  0  0  3  0  0  0  0  0  0
  1  7  1  0  0  0  0
  2 28  1  0  0  0  0
  2  3  1  0  0  0  0
  3  4  1  0  0  0  0
  5  6  1  0  0  0  0
  5  1  2  0  0  0  0
  6  2  2  0  0  0  0
  7  3  2  0  0  0  0
  8 12  1  0  0  0  0
  8  9  1  0  0  0  0
 10 13  1  0  0  0  0
 10 11  2  0  0  0  0
 11 12  1  0  0  0  0
 12  1  1  1  0  0  0
 13  8  2  0  0  0  0
 14 11  1  0  0  0  0
 15 16  1  0  0  0  0
 16 20  1  0  0  0  0
 16 22  1  1  0  0  0
 17 20  2  0  0  0  0
 18 15  2  0  0  0  0
 19 21  2  0  0  0  0
 19 15  1  0  0  0  0
 20 14  1  0  0  0  0
 21 17  1  0  0  0  0
 22 23  1  0  0  0  0
 24 21  1  0  0  0  0
 25 26  1  0  0  0  0
 25 24  1  0  0  0  0
 28 27  1  0  0  0  0
 29  6  1  0  0  0  0
 30 31  1  0  0  0  0
 30 29  1  0  0  0  0
 31 32  1  0  0  0  0
 32 33  1  1  0  0  0
 34 38  1  0  0  0  0
 36 34  1  0  0  0  0
 36 37  1  0  0  0  0
 37 32  1  6  0  0  0
 37 39  1  0  0  0  0
 38 35  1  0  0  0  0
 39 35  2  0  0  0  0
M  END
>  <MODEL>
9

>  <REMARK>
 VINA RESULT:      -6.1      2.739      4.917
  Name = 
  12 active torsions:
  status: ('A' for Active; 'I' for Inactive)
    1  A    between atoms: S_1  and  C_19
    2  A    between atoms: S_1  and  C_30
    3  A    between atoms: C_2  and  C_32
    4  A    between atoms: C_5  and  C_13
    5  A    between atoms: C_5  and  C_38
    6  A    between atoms: C_9  and  O_23
    7  A    between atoms: C_12  and  O_35
    8  A    between atoms: O_18  and  C_22
    9  A    between atoms: O_18  and  C_39
   10  A    between atoms: C_26  and  N_34
   11  A    between atoms: C_26  and  C_38
   12  A    between atoms: C_29  and  N_34
                            x       y       z     vdW  Elec       q    Type
                         _______ _______ _______ _____ _____    ______ ____

>  <TORSDO>
F 12

$$$$
