=
 OpenBabel11062418343D

 54 59  0  0  1  0  0  0  0  0999 V2000
  189.9590  171.9620  140.8390 C   0  0  0  0  0  2  0  0  0  0  0  0
  192.3350  170.4580  139.7310 C   0  0  1  0  0  3  0  0  0  0  0  0
  189.5680  171.1500  136.3170 O   0  0  0  0  0  1  0  0  0  0  0  0
  190.1780  172.0360  137.1470 N   0  0  0  0  0  0  0  0  0  0  0  0
  190.1200  171.3750  139.4490 C   0  0  1  0  0  3  0  0  0  0  0  0
  191.4550  171.4380  137.5390 C   0  0  0  0  0  2  0  0  0  0  0  0
  191.0160  171.4240  141.8380 C   0  0  1  0  0  3  0  0  0  0  0  0
  192.1410  170.5050  141.2650 C   0  0  1  0  0  3  0  0  0  0  0  0
  189.3640  172.1110  138.3640 C   0  0  0  0  0  2  0  0  0  0  0  0
  191.5340  171.5480  139.0410 C   0  0  2  0  0  3  0  0  0  0  0  0
  192.6330  169.0130  143.2190 C   0  0  0  0  0  1  0  0  0  0  0  0
  190.7390  168.6230  141.8150 O   0  0  0  0  0  1  0  0  0  0  0  0
  192.0600  169.0840  141.8160 C   0  0  1  0  0  3  0  0  0  0  0  0
  191.6670  172.5950  142.5650 C   0  0  0  0  0  2  0  0  0  0  0  0
  191.4300  172.5480  144.0460 C   0  0  0  0  0  0  0  0  0  0  0  0
  190.2920  172.0390  144.5280 C   0  0  0  0  0  2  0  0  0  0  0  0
  192.2770  173.4160  144.9300 C   0  0  0  0  0  2  0  0  0  0  0  0
  192.2020  174.8620  144.4660 C   0  0  0  0  0  2  0  0  0  0  0  0
  190.9910  175.5340  145.1010 C   0  0  1  0  0  3  0  0  0  0  0  0
  191.3360  176.0470  146.3520 O   0  0  0  0  0  1  0  0  0  0  0  0
  188.5070  177.5190  142.8620 C   0  0  1  0  0  3  0  0  0  0  0  0
  191.1030  177.7110  144.1060 O   0  0  0  0  0  0  0  0  0  0  0  0
  188.7180  175.1200  143.1560 C   0  0  0  0  0  2  0  0  0  0  0  0
  190.4720  176.6230  144.2100 C   0  0  0  0  0  0  0  0  0  0  0  0
  189.2630  176.4280  143.4610 N   0  0  0  0  0  0  0  0  0  0  0  0
  187.6380  175.3450  142.1130 C   0  0  1  0  0  3  0  0  0  0  0  0
  187.3550  176.8550  142.1190 C   0  0  2  0  0  3  0  0  0  0  0  0
  188.1210  174.9250  140.8680 O   0  0  0  0  0  1  0  0  0  0  0  0
  185.9060  177.7040  140.6780 C   0  0  0  0  0  1  0  0  0  0  0  0
  187.2550  177.3760  140.8280 O   0  0  0  0  0  0  0  0  0  0  0  0
  187.9510  178.4170  143.9680 C   0  0  0  0  0  2  0  0  0  0  0  0
  185.6310  179.1860  144.4890 C   0  0  0  0  0  2  0  0  0  0  0  0
  184.2460  178.7570  144.9710 C   0  0  0  0  0  2  0  0  0  0  0  0
  184.3500  178.0600  146.3300 C   0  0  0  0  0  2  0  0  0  0  0  0
  186.6610  177.2920  145.7610 C   0  0  0  0  0  2  0  0  0  0  0  0
  185.2770  176.8540  146.2340 C   0  0  0  0  0  2  0  0  0  0  0  0
  186.5590  177.9820  144.4020 C   0  0  0  0  0  3  0  0  0  0  0  0
  193.6930  170.5880  139.4190 O   0  0  0  0  0  0  0  0  0  0  0  0
  194.0690  171.8270  139.9440 C   0  0  0  0  0  2  0  0  0  0  0  0
  195.5350  171.8100  140.3360 C   0  0  0  0  0  2  0  0  0  0  0  0
  195.7510  170.9210  141.5470 C   0  0  0  0  0  2  0  0  0  0  0  0
  196.3950  171.7370  142.6510 C   0  0  2  0  0  3  0  0  0  0  0  0
  196.5320  173.7880  145.1670 C   0  0  0  0  0  3  0  0  0  0  0  0
  195.9440  171.1920  143.9960 C   0  0  2  0  0  3  0  0  0  0  0  0
  195.3260  172.4840  143.4310 C   0  0  1  0  0  3  0  0  0  0  0  0
  195.8900  173.7710  143.9890 C   0  0  0  0  0  0  0  0  0  0  0  0
  196.7150  172.5410  145.9660 C   0  0  0  0  0  2  0  0  0  0  0  0
  197.0640  171.4020  145.0220 C   0  0  1  0  0  3  0  0  0  0  0  0
  196.5460  175.4720  142.1780 C   0  0  0  0  0  0  0  0  0  0  0  0
  197.5630  174.8380  141.7880 O   0  0  0  0  0  0  0  0  0  0  0  0
  195.7010  174.9700  143.2240 N   0  0  0  0  0  2  0  0  0  0  0  0
  196.2000  176.7620  141.5260 C   0  0  0  0  0  1  0  0  0  0  0  0
  197.2830  170.1350  145.8210 C   0  0  0  0  0  2  0  0  0  0  0  0
  196.4270  170.0980  146.9060 F   0  0  0  0  0  0  0  0  0  0  0  0
  1  7  1  0  0  0  0
  2 38  1  1  0  0  0
  2  8  1  0  0  0  0
  3  4  1  0  0  0  0
  4  6  1  0  0  0  0
  4  9  1  0  0  0  0
  5  9  1  6  0  0  0
  5  1  1  0  0  0  0
  7 14  1  6  0  0  0
  8 13  1  6  0  0  0
  8  7  1  0  0  0  0
 10  6  1  6  0  0  0
 10  5  1  0  0  0  0
 10  2  1  0  0  0  0
 12 13  1  0  0  0  0
 13 11  1  1  0  0  0
 14 15  1  0  0  0  0
 15 16  2  0  0  0  0
 15 17  1  0  0  0  0
 18 17  1  0  0  0  0
 18 19  1  0  0  0  0
 19 20  1  1  0  0  0
 21 25  1  0  0  0  0
 21 31  1  1  0  0  0
 22 24  2  0  0  0  0
 23 25  1  0  0  0  0
 24 19  1  0  0  0  0
 25 24  1  0  0  0  0
 26 28  1  6  0  0  0
 26 27  1  0  0  0  0
 26 23  1  0  0  0  0
 27 30  1  6  0  0  0
 27 21  1  0  0  0  0
 29 30  1  0  0  0  0
 31 37  1  0  0  0  0
 32 33  1  0  0  0  0
 33 34  1  0  0  0  0
 35 36  1  0  0  0  0
 36 34  1  0  0  0  0
 37 32  1  0  0  0  0
 37 35  1  0  0  0  0
 38 39  1  0  0  0  0
 39 40  1  0  0  0  0
 40 41  1  0  0  0  0
 42 41  1  6  0  0  0
 42 45  1  0  0  0  0
 42 44  1  0  0  0  0
 43 47  1  0  0  0  0
 44 48  1  0  0  0  0
 45 46  1  0  0  0  0
 45 44  1  0  0  0  0
 46 43  2  0  0  0  0
 48 53  1  0  0  0  0
 48 47  1  0  0  0  0
 49 51  1  0  0  0  0
 50 49  2  0  0  0  0
 51 46  1  0  0  0  0
 52 49  1  0  0  0  0
 53 54  1  0  0  0  0
M  END
>  <MODEL>
1

>  <REMARK>
 VINA RESULT:      -6.8      0.000      0.000
  Name = 
  17 active torsions:
  status: ('A' for Active; 'I' for Inactive)
    1  A    between atoms: C_1  and  C_54
    2  A    between atoms: C_2  and  C_13
    3  A    between atoms: C_3  and  C_17
    4  A    between atoms: C_3  and  C_18
    5  A    between atoms: C_6  and  C_9
    6  A    between atoms: C_6  and  C_48
    7  A    between atoms: C_7  and  C_17
    8  A    between atoms: C_8  and  C_20
    9  A    between atoms: C_8  and  C_53
   10  A    between atoms: C_13  and  C_44
   11  A    between atoms: C_18  and  O_26
   12  A    between atoms: C_20  and  C_48
   13  A    between atoms: O_26  and  C_29
   14  A    between atoms: C_37  and  C_53
   15  A    between atoms: C_38  and  O_47
   16  A    between atoms: N_42  and  C_45
   17  A    between atoms: C_43  and  C_50
                            x       y       z     vdW  Elec       q    Type
                         _______ _______ _______ _____ _____    ______ ____

>  <TORSDO>
F 17

$$$$
=
 OpenBabel11062418343D

 54 59  0  0  1  0  0  0  0  0999 V2000
  191.8300  173.3190  141.2120 C   0  0  0  0  0  2  0  0  0  0  0  0
  192.4660  175.2020  143.4880 C   0  0  1  0  0  3  0  0  0  0  0  0
  196.3270  174.3000  141.4730 O   0  0  0  0  0  1  0  0  0  0  0  0
  195.1880  174.8530  140.9810 N   0  0  0  0  0  0  0  0  0  0  0  0
  193.1990  173.7380  141.7150 C   0  0  1  0  0  3  0  0  0  0  0  0
  194.5660  175.5890  142.0820 C   0  0  0  0  0  2  0  0  0  0  0  0
  190.6960  173.6720  142.2090 C   0  0  1  0  0  3  0  0  0  0  0  0
  191.0850  174.5050  143.4710 C   0  0  1  0  0  3  0  0  0  0  0  0
  194.2820  173.7470  140.6580 C   0  0  0  0  0  2  0  0  0  0  0  0
  193.1210  175.1620  142.1190 C   0  0  2  0  0  3  0  0  0  0  0  0
  191.1160  174.6010  145.9770 C   0  0  0  0  0  1  0  0  0  0  0  0
  189.6140  173.1510  144.8160 O   0  0  0  0  0  1  0  0  0  0  0  0
  190.8920  173.7170  144.7640 C   0  0  1  0  0  3  0  0  0  0  0  0
  189.5810  174.4010  141.4680 C   0  0  0  0  0  2  0  0  0  0  0  0
  188.4880  173.4720  141.0290 C   0  0  0  0  0  0  0  0  0  0  0  0
  187.7290  172.8510  141.9360 C   0  0  0  0  0  2  0  0  0  0  0  0
  188.5170  172.9540  139.6200 C   0  0  0  0  0  2  0  0  0  0  0  0
  188.4080  174.1100  138.6380 C   0  0  0  0  0  2  0  0  0  0  0  0
  188.9060  173.6600  137.2710 C   0  0  1  0  0  3  0  0  0  0  0  0
  188.6710  174.6620  136.3280 O   0  0  0  0  0  1  0  0  0  0  0  0
  192.2530  171.8520  136.4650 C   0  0  1  0  0  3  0  0  0  0  0  0
  191.1750  174.1170  137.8910 O   0  0  0  0  0  0  0  0  0  0  0  0
  190.0020  170.9500  136.5130 C   0  0  0  0  0  2  0  0  0  0  0  0
  190.3670  173.3250  137.3310 C   0  0  0  0  0  0  0  0  0  0  0  0
  190.8500  172.0980  136.7650 N   0  0  0  0  0  0  0  0  0  0  0  0
  190.9370  169.7920  136.2120 C   0  0  1  0  0  3  0  0  0  0  0  0
  192.3130  170.4200  135.9500 C   0  0  2  0  0  3  0  0  0  0  0  0
  190.9700  168.9420  137.3240 O   0  0  0  0  0  1  0  0  0  0  0  0
  194.2090  169.3440  135.5690 C   0  0  0  0  0  1  0  0  0  0  0  0
  193.3390  169.7230  136.5930 O   0  0  0  0  0  0  0  0  0  0  0  0
  192.7110  172.8100  135.3630 C   0  0  0  0  0  2  0  0  0  0  0  0
  194.4920  173.1300  137.0870 C   0  0  0  0  0  2  0  0  0  0  0  0
  195.8760  173.7140  137.3660 C   0  0  0  0  0  2  0  0  0  0  0  0
  195.9020  175.2050  137.0220 C   0  0  0  0  0  2  0  0  0  0  0  0
  194.1340  174.8370  135.2920 C   0  0  0  0  0  2  0  0  0  0  0  0
  195.5220  175.4150  135.5610 C   0  0  0  0  0  2  0  0  0  0  0  0
  194.1090  173.3480  135.6280 C   0  0  0  0  0  3  0  0  0  0  0  0
  192.3240  176.5280  143.9150 O   0  0  0  0  0  0  0  0  0  0  0  0
  191.5670  177.1510  142.9180 C   0  0  0  0  0  2  0  0  0  0  0  0
  190.6610  178.2050  143.5270 C   0  0  0  0  0  2  0  0  0  0  0  0
  190.0730  177.7090  144.8350 C   0  0  0  0  0  2  0  0  0  0  0  0
  188.5610  177.8080  144.7660 C   0  0  2  0  0  3  0  0  0  0  0  0
  185.5070  176.7620  144.3940 C   0  0  0  0  0  3  0  0  0  0  0  0
  187.9620  177.0350  145.9290 C   0  0  2  0  0  3  0  0  0  0  0  0
  187.9660  176.4320  144.5130 C   0  0  1  0  0  3  0  0  0  0  0  0
  186.6660  176.5570  143.7510 C   0  0  0  0  0  0  0  0  0  0  0  0
  185.4580  176.8760  145.8810 C   0  0  0  0  0  2  0  0  0  0  0  0
  186.6460  177.7020  146.3480 C   0  0  1  0  0  3  0  0  0  0  0  0
  186.7030  177.5000  141.3600 C   0  0  0  0  0  0  0  0  0  0  0  0
  186.6940  178.7100  141.7140 O   0  0  0  0  0  0  0  0  0  0  0  0
  186.7150  176.4350  142.3220 N   0  0  0  0  0  2  0  0  0  0  0  0
  186.7210  177.1660  139.9130 C   0  0  0  0  0  1  0  0  0  0  0  0
  186.5940  177.8540  147.8540 C   0  0  0  0  0  2  0  0  0  0  0  0
  186.6890  179.1870  148.2050 F   0  0  0  0  0  0  0  0  0  0  0  0
  1  5  1  0  0  0  0
  1  7  1  0  0  0  0
  2 38  1  6  0  0  0
  4  3  1  0  0  0  0
  4  6  1  0  0  0  0
  5  9  1  6  0  0  0
  5 10  1  0  0  0  0
  7 14  1  6  0  0  0
  7  8  1  0  0  0  0
  8  2  1  0  0  0  0
  8 13  1  1  0  0  0
  9  4  1  0  0  0  0
 10  6  1  1  0  0  0
 10  2  1  0  0  0  0
 13 12  1  0  0  0  0
 13 11  1  1  0  0  0
 15 14  1  0  0  0  0
 15 16  2  0  0  0  0
 17 15  1  0  0  0  0
 18 17  1  0  0  0  0
 19 20  1  6  0  0  0
 19 24  1  0  0  0  0
 19 18  1  0  0  0  0
 21 31  1  6  0  0  0
 21 25  1  0  0  0  0
 23 25  1  0  0  0  0
 24 22  2  0  0  0  0
 25 24  1  0  0  0  0
 26 23  1  0  0  0  0
 26 28  1  1  0  0  0
 27 26  1  0  0  0  0
 27 21  1  0  0  0  0
 27 30  1  1  0  0  0
 29 30  1  0  0  0  0
 31 37  1  0  0  0  0
 32 33  1  0  0  0  0
 34 33  1  0  0  0  0
 35 36  1  0  0  0  0
 35 37  1  0  0  0  0
 36 34  1  0  0  0  0
 37 32  1  0  0  0  0
 39 40  1  0  0  0  0
 39 38  1  0  0  0  0
 40 41  1  0  0  0  0
 42 41  1  1  0  0  0
 42 44  1  0  0  0  0
 43 47  1  0  0  0  0
 44 48  1  0  0  0  0
 45 42  1  0  0  0  0
 45 44  1  0  0  0  0
 46 43  2  0  0  0  0
 46 45  1  0  0  0  0
 47 48  1  0  0  0  0
 48 53  1  0  0  0  0
 49 50  2  0  0  0  0
 49 51  1  0  0  0  0
 51 46  1  0  0  0  0
 52 49  1  0  0  0  0
 53 54  1  0  0  0  0
M  END
>  <MODEL>
2

>  <REMARK>
 VINA RESULT:      -6.3      3.331      9.331
  Name = 
  17 active torsions:
  status: ('A' for Active; 'I' for Inactive)
    1  A    between atoms: C_1  and  C_54
    2  A    between atoms: C_2  and  C_13
    3  A    between atoms: C_3  and  C_17
    4  A    between atoms: C_3  and  C_18
    5  A    between atoms: C_6  and  C_9
    6  A    between atoms: C_6  and  C_48
    7  A    between atoms: C_7  and  C_17
    8  A    between atoms: C_8  and  C_20
    9  A    between atoms: C_8  and  C_53
   10  A    between atoms: C_13  and  C_44
   11  A    between atoms: C_18  and  O_26
   12  A    between atoms: C_20  and  C_48
   13  A    between atoms: O_26  and  C_29
   14  A    between atoms: C_37  and  C_53
   15  A    between atoms: C_38  and  O_47
   16  A    between atoms: N_42  and  C_45
   17  A    between atoms: C_43  and  C_50
                            x       y       z     vdW  Elec       q    Type
                         _______ _______ _______ _____ _____    ______ ____

>  <TORSDO>
F 17

$$$$
=
 OpenBabel11062418343D

 54 59  0  0  1  0  0  0  0  0999 V2000
  192.4860  171.7040  139.1610 C   0  0  0  0  0  2  0  0  0  0  0  0
  189.8760  172.5820  140.4070 C   0  0  1  0  0  3  0  0  0  0  0  0
  190.5810  168.4010  141.7530 O   0  0  0  0  0  1  0  0  0  0  0  0
  191.3410  169.5160  141.9150 N   0  0  0  0  0  0  0  0  0  0  0  0
  191.4950  170.8540  139.9340 C   0  0  1  0  0  3  0  0  0  0  0  0
  190.4180  170.6490  141.9910 C   0  0  0  0  0  2  0  0  0  0  0  0
  191.8900  173.0680  138.7270 C   0  0  1  0  0  3  0  0  0  0  0  0
  190.4610  173.4240  139.2490 C   0  0  1  0  0  3  0  0  0  0  0  0
  192.1110  169.6900  140.6800 C   0  0  0  0  0  2  0  0  0  0  0  0
  190.9350  171.6860  141.0260 C   0  0  2  0  0  3  0  0  0  0  0  0
  189.5860  172.3520  137.1580 C   0  0  0  0  0  1  0  0  0  0  0  0
  188.1380  173.5640  138.6230 O   0  0  0  0  0  1  0  0  0  0  0  0
  189.4420  173.5190  138.1170 C   0  0  1  0  0  3  0  0  0  0  0  0
  192.8460  174.1870  139.1220 C   0  0  0  0  0  2  0  0  0  0  0  0
  193.6570  174.6790  137.9600 C   0  0  0  0  0  0  0  0  0  0  0  0
  193.0590  175.2920  136.9350 C   0  0  0  0  0  2  0  0  0  0  0  0
  195.0450  174.1370  137.7800 C   0  0  0  0  0  2  0  0  0  0  0  0
  196.0290  174.9320  138.6240 C   0  0  0  0  0  2  0  0  0  0  0  0
  196.4400  174.1030  139.8350 C   0  0  1  0  0  3  0  0  0  0  0  0
  197.5230  173.2870  139.5040 O   0  0  0  0  0  1  0  0  0  0  0  0
  196.3200  175.6370  143.4060 C   0  0  1  0  0  3  0  0  0  0  0  0
  197.8430  175.6880  140.9570 O   0  0  0  0  0  0  0  0  0  0  0  0
  194.5120  174.7140  142.0770 C   0  0  0  0  0  2  0  0  0  0  0  0
  196.7860  174.9990  140.9870 C   0  0  0  0  0  0  0  0  0  0  0  0
  195.9120  175.0870  142.1220 N   0  0  0  0  0  0  0  0  0  0  0  0
  193.8940  175.2390  143.3620 C   0  0  1  0  0  3  0  0  0  0  0  0
  195.0720  175.5940  144.2800 C   0  0  2  0  0  3  0  0  0  0  0  0
  193.1270  176.3700  143.0610 O   0  0  0  0  0  1  0  0  0  0  0  0
  194.5640  176.5020  146.2330 C   0  0  0  0  0  1  0  0  0  0  0  0
  194.8910  176.8250  144.9150 O   0  0  0  0  0  0  0  0  0  0  0  0
  197.4020  174.7450  144.0180 C   0  0  0  0  0  2  0  0  0  0  0  0
  197.0540  173.0550  145.8270 C   0  0  0  0  0  2  0  0  0  0  0  0
  196.5670  171.6430  146.1460 C   0  0  0  0  0  2  0  0  0  0  0  0
  197.3150  170.6170  145.2930 C   0  0  0  0  0  2  0  0  0  0  0  0
  197.6220  172.3320  143.4980 C   0  0  0  0  0  2  0  0  0  0  0  0
  197.1230  170.9220  143.8120 C   0  0  0  0  0  2  0  0  0  0  0  0
  196.8700  173.3570  144.3450 C   0  0  0  0  0  3  0  0  0  0  0  0
  189.3310  173.4260  141.3810 O   0  0  0  0  0  0  0  0  0  0  0  0
  190.3700  174.2920  141.7340 C   0  0  0  0  0  2  0  0  0  0  0  0
  189.9000  175.2780  142.7860 C   0  0  0  0  0  2  0  0  0  0  0  0
  188.4330  175.6100  142.5850 C   0  0  0  0  0  2  0  0  0  0  0  0
  187.8320  176.0220  143.9160 C   0  0  2  0  0  3  0  0  0  0  0  0
  187.4310  177.8230  146.5890 C   0  0  0  0  0  3  0  0  0  0  0  0
  187.1010  177.3420  143.7400 C   0  0  2  0  0  3  0  0  0  0  0  0
  188.4890  177.3030  144.4030 C   0  0  1  0  0  3  0  0  0  0  0  0
  188.4880  177.3470  145.9150 C   0  0  0  0  0  0  0  0  0  0  0  0
  186.2200  178.3240  145.8750 C   0  0  0  0  0  2  0  0  0  0  0  0
  185.9170  177.3910  144.7140 C   0  0  1  0  0  3  0  0  0  0  0  0
  189.8720  175.5710  147.1540 C   0  0  0  0  0  0  0  0  0  0  0  0
  189.0120  174.6560  147.0420 O   0  0  0  0  0  0  0  0  0  0  0  0
  189.6590  176.8770  146.5980 N   0  0  0  0  0  2  0  0  0  0  0  0
  191.1470  175.2870  147.8630 C   0  0  0  0  0  1  0  0  0  0  0  0
  184.6710  177.8670  143.9960 C   0  0  0  0  0  2  0  0  0  0  0  0
  184.1840  179.0150  144.5920 F   0  0  0  0  0  0  0  0  0  0  0  0
  2 10  1  0  0  0  0
  2 38  1  1  0  0  0
  3  4  1  0  0  0  0
  4  6  1  0  0  0  0
  5  1  1  1  0  0  0
  5  9  1  0  0  0  0
  5 10  1  0  0  0  0
  7 14  1  1  0  0  0
  7  1  1  0  0  0  0
  7  8  1  0  0  0  0
  8 13  1  6  0  0  0
  8  2  1  0  0  0  0
  9  4  1  0  0  0  0
 10  6  1  1  0  0  0
 13 11  1  6  0  0  0
 13 12  1  0  0  0  0
 15 14  1  0  0  0  0
 16 15  2  0  0  0  0
 17 15  1  0  0  0  0
 17 18  1  0  0  0  0
 18 19  1  0  0  0  0
 19 20  1  6  0  0  0
 19 24  1  0  0  0  0
 21 31  1  1  0  0  0
 21 27  1  0  0  0  0
 22 24  2  0  0  0  0
 23 25  1  0  0  0  0
 23 26  1  0  0  0  0
 24 25  1  0  0  0  0
 25 21  1  0  0  0  0
 26 28  1  6  0  0  0
 26 27  1  0  0  0  0
 27 30  1  6  0  0  0
 30 29  1  0  0  0  0
 31 37  1  0  0  0  0
 32 33  1  0  0  0  0
 34 33  1  0  0  0  0
 35 36  1  0  0  0  0
 35 37  1  0  0  0  0
 36 34  1  0  0  0  0
 37 32  1  0  0  0  0
 38 39  1  0  0  0  0
 39 40  1  0  0  0  0
 41 40  1  0  0  0  0
 42 41  1  6  0  0  0
 42 45  1  0  0  0  0
 44 42  1  0  0  0  0
 44 45  1  0  0  0  0
 44 48  1  0  0  0  0
 45 46  1  0  0  0  0
 46 43  2  0  0  0  0
 46 51  1  0  0  0  0
 47 43  1  0  0  0  0
 48 47  1  0  0  0  0
 49 52  1  0  0  0  0
 50 49  2  0  0  0  0
 51 49  1  0  0  0  0
 53 54  1  0  0  0  0
 53 48  1  0  0  0  0
M  END
>  <MODEL>
3

>  <REMARK>
 VINA RESULT:      -6.2      2.985      8.741
  Name = 
  17 active torsions:
  status: ('A' for Active; 'I' for Inactive)
    1  A    between atoms: C_1  and  C_54
    2  A    between atoms: C_2  and  C_13
    3  A    between atoms: C_3  and  C_17
    4  A    between atoms: C_3  and  C_18
    5  A    between atoms: C_6  and  C_9
    6  A    between atoms: C_6  and  C_48
    7  A    between atoms: C_7  and  C_17
    8  A    between atoms: C_8  and  C_20
    9  A    between atoms: C_8  and  C_53
   10  A    between atoms: C_13  and  C_44
   11  A    between atoms: C_18  and  O_26
   12  A    between atoms: C_20  and  C_48
   13  A    between atoms: O_26  and  C_29
   14  A    between atoms: C_37  and  C_53
   15  A    between atoms: C_38  and  O_47
   16  A    between atoms: N_42  and  C_45
   17  A    between atoms: C_43  and  C_50
                            x       y       z     vdW  Elec       q    Type
                         _______ _______ _______ _____ _____    ______ ____

>  <TORSDO>
F 17

$$$$
=
 OpenBabel11062418343D

 54 59  0  0  1  0  0  0  0  0999 V2000
  193.7020  173.6790  145.6590 C   0  0  0  0  0  2  0  0  0  0  0  0
  195.6170  173.4490  143.3320 C   0  0  1  0  0  3  0  0  0  0  0  0
  192.6880  170.1290  142.8970 O   0  0  0  0  0  1  0  0  0  0  0  0
  192.4910  171.4720  142.9480 N   0  0  0  0  0  0  0  0  0  0  0  0
  193.7940  172.5580  144.6400 C   0  0  1  0  0  3  0  0  0  0  0  0
  193.6770  172.0960  142.3590 C   0  0  0  0  0  2  0  0  0  0  0  0
  194.9470  174.6030  145.6410 C   0  0  1  0  0  3  0  0  0  0  0  0
  196.0100  174.3510  144.5250 C   0  0  1  0  0  3  0  0  0  0  0  0
  192.4850  171.8500  144.3640 C   0  0  0  0  0  2  0  0  0  0  0  0
  194.1260  173.1610  143.3270 C   0  0  2  0  0  3  0  0  0  0  0  0
  197.2150  173.5320  146.5650 C   0  0  0  0  0  1  0  0  0  0  0  0
  197.8480  172.7990  144.3810 O   0  0  0  0  0  1  0  0  0  0  0  0
  197.3480  173.8920  145.0970 C   0  0  1  0  0  3  0  0  0  0  0  0
  194.4960  176.0570  145.5650 C   0  0  0  0  0  2  0  0  0  0  0  0
  193.0020  176.1920  145.6100 C   0  0  0  0  0  0  0  0  0  0  0  0
  192.3160  176.4340  144.4890 C   0  0  0  0  0  2  0  0  0  0  0  0
  192.3500  176.4470  146.9370 C   0  0  0  0  0  2  0  0  0  0  0  0
  191.2870  175.3930  147.2060 C   0  0  0  0  0  2  0  0  0  0  0  0
  189.9080  176.0350  147.1300 C   0  0  1  0  0  3  0  0  0  0  0  0
  190.0320  177.4260  147.1530 O   0  0  0  0  0  1  0  0  0  0  0  0
  187.7340  176.2590  143.9140 C   0  0  1  0  0  3  0  0  0  0  0  0
  189.4400  174.4590  145.3880 O   0  0  0  0  0  0  0  0  0  0  0  0
  187.5410  177.5160  145.9810 C   0  0  0  0  0  2  0  0  0  0  0  0
  189.1920  175.5900  145.8900 C   0  0  0  0  0  0  0  0  0  0  0  0
  188.2120  176.4410  145.2770 N   0  0  0  0  0  0  0  0  0  0  0  0
  186.3920  177.9520  145.0880 C   0  0  1  0  0  3  0  0  0  0  0  0
  186.6700  177.3310  143.7110 C   0  0  2  0  0  3  0  0  0  0  0  0
  185.1950  177.4690  145.6290 O   0  0  0  0  0  1  0  0  0  0  0  0
  185.1940  177.6100  142.0870 C   0  0  0  0  0  1  0  0  0  0  0  0
  185.5240  176.7660  143.1480 O   0  0  0  0  0  0  0  0  0  0  0  0
  188.8880  176.4950  142.9370 C   0  0  0  0  0  2  0  0  0  0  0  0
  187.9450  174.3070  142.1820 C   0  0  0  0  0  2  0  0  0  0  0  0
  188.0800  173.1630  141.1790 C   0  0  0  0  0  2  0  0  0  0  0  0
  189.4880  172.5670  141.2390 C   0  0  0  0  0  2  0  0  0  0  0  0
  190.3940  174.7800  141.9710 C   0  0  0  0  0  2  0  0  0  0  0  0
  190.5290  173.6450  140.9580 C   0  0  0  0  0  2  0  0  0  0  0  0
  188.9910  175.3800  141.9070 C   0  0  0  0  0  3  0  0  0  0  0  0
  195.9920  174.0590  142.1300 O   0  0  0  0  0  0  0  0  0  0  0  0
  195.4350  175.3390  142.1830 C   0  0  0  0  0  2  0  0  0  0  0  0
  195.0550  175.8070  140.7900 C   0  0  0  0  0  2  0  0  0  0  0  0
  193.7750  175.1320  140.3340 C   0  0  0  0  0  2  0  0  0  0  0  0
  194.0820  174.2370  139.1480 C   0  0  2  0  0  3  0  0  0  0  0  0
  193.9930  173.2210  136.0640 C   0  0  0  0  0  3  0  0  0  0  0  0
  194.9350  175.0080  138.1560 C   0  0  2  0  0  3  0  0  0  0  0  0
  193.4320  174.8020  137.8960 C   0  0  1  0  0  3  0  0  0  0  0  0
  193.0870  173.6840  136.9370 C   0  0  0  0  0  0  0  0  0  0  0  0
  195.3720  173.7890  136.0060 C   0  0  0  0  0  2  0  0  0  0  0  0
  195.8620  174.0290  137.4250 C   0  0  1  0  0  3  0  0  0  0  0  0
  191.3070  172.0110  137.7370 C   0  0  0  0  0  0  0  0  0  0  0  0
  192.0840  171.3730  138.4990 O   0  0  0  0  0  0  0  0  0  0  0  0
  191.7560  173.1490  136.9870 N   0  0  0  0  0  2  0  0  0  0  0  0
  189.8880  171.5870  137.6260 C   0  0  0  0  0  1  0  0  0  0  0  0
  197.2730  174.5770  137.3860 C   0  0  0  0  0  2  0  0  0  0  0  0
  197.3680  175.7120  138.1690 F   0  0  0  0  0  0  0  0  0  0  0  0
  2 38  1  6  0  0  0
  2  8  1  0  0  0  0
  3  4  1  0  0  0  0
  4  9  1  0  0  0  0
  5  9  1  6  0  0  0
  5  1  1  0  0  0  0
  6  4  1  0  0  0  0
  7 14  1  6  0  0  0
  7  1  1  0  0  0  0
  8 13  1  1  0  0  0
  8  7  1  0  0  0  0
 10  6  1  6  0  0  0
 10  2  1  0  0  0  0
 10  5  1  0  0  0  0
 12 13  1  0  0  0  0
 13 11  1  1  0  0  0
 14 15  1  0  0  0  0
 15 17  1  0  0  0  0
 16 15  2  0  0  0  0
 17 18  1  0  0  0  0
 19 20  1  6  0  0  0
 19 18  1  0  0  0  0
 21 31  1  6  0  0  0
 21 25  1  0  0  0  0
 22 24  2  0  0  0  0
 24 19  1  0  0  0  0
 25 24  1  0  0  0  0
 25 23  1  0  0  0  0
 26 28  1  1  0  0  0
 26 23  1  0  0  0  0
 27 30  1  1  0  0  0
 27 21  1  0  0  0  0
 27 26  1  0  0  0  0
 29 30  1  0  0  0  0
 33 34  1  0  0  0  0
 33 32  1  0  0  0  0
 36 34  1  0  0  0  0
 36 35  1  0  0  0  0
 37 35  1  0  0  0  0
 37 32  1  0  0  0  0
 37 31  1  0  0  0  0
 38 39  1  0  0  0  0
 40 39  1  0  0  0  0
 41 40  1  0  0  0  0
 42 41  1  1  0  0  0
 43 46  2  0  0  0  0
 44 42  1  0  0  0  0
 45 44  1  0  0  0  0
 45 42  1  0  0  0  0
 46 51  1  0  0  0  0
 46 45  1  0  0  0  0
 47 43  1  0  0  0  0
 47 48  1  0  0  0  0
 48 44  1  0  0  0  0
 49 50  2  0  0  0  0
 51 49  1  0  0  0  0
 52 49  1  0  0  0  0
 53 48  1  0  0  0  0
 53 54  1  0  0  0  0
M  END
>  <MODEL>
4

>  <REMARK>
 VINA RESULT:      -6.2      2.772      6.177
  Name = 
  17 active torsions:
  status: ('A' for Active; 'I' for Inactive)
    1  A    between atoms: C_1  and  C_54
    2  A    between atoms: C_2  and  C_13
    3  A    between atoms: C_3  and  C_17
    4  A    between atoms: C_3  and  C_18
    5  A    between atoms: C_6  and  C_9
    6  A    between atoms: C_6  and  C_48
    7  A    between atoms: C_7  and  C_17
    8  A    between atoms: C_8  and  C_20
    9  A    between atoms: C_8  and  C_53
   10  A    between atoms: C_13  and  C_44
   11  A    between atoms: C_18  and  O_26
   12  A    between atoms: C_20  and  C_48
   13  A    between atoms: O_26  and  C_29
   14  A    between atoms: C_37  and  C_53
   15  A    between atoms: C_38  and  O_47
   16  A    between atoms: N_42  and  C_45
   17  A    between atoms: C_43  and  C_50
                            x       y       z     vdW  Elec       q    Type
                         _______ _______ _______ _____ _____    ______ ____

>  <TORSDO>
F 17

$$$$
=
 OpenBabel11062418343D

 54 59  0  0  1  0  0  0  0  0999 V2000
  188.2030  177.4650  145.5490 C   0  0  0  0  0  2  0  0  0  0  0  0
  186.1620  178.0010  143.3860 C   0  0  1  0  0  3  0  0  0  0  0  0
  184.0040  178.2890  147.2650 O   0  0  0  0  0  1  0  0  0  0  0  0
  185.0730  178.9870  146.8010 N   0  0  0  0  0  0  0  0  0  0  0  0
  186.7010  177.6120  145.7070 C   0  0  1  0  0  3  0  0  0  0  0  0
  184.9220  179.0750  145.3480 C   0  0  0  0  0  2  0  0  0  0  0  0
  188.6290  177.2580  144.0720 C   0  0  1  0  0  3  0  0  0  0  0  0
  187.5160  177.3730  142.9820 C   0  0  1  0  0  3  0  0  0  0  0  0
  186.2600  178.1630  147.0450 C   0  0  0  0  0  2  0  0  0  0  0  0
  186.2420  178.6530  144.7550 C   0  0  2  0  0  3  0  0  0  0  0  0
  188.5600  175.2500  142.1510 C   0  0  0  0  0  1  0  0  0  0  0  0
  186.3010  175.2920  142.9280 O   0  0  0  0  0  1  0  0  0  0  0  0
  187.2740  176.0480  142.2650 C   0  0  1  0  0  3  0  0  0  0  0  0
  189.7500  178.2330  143.7290 C   0  0  0  0  0  2  0  0  0  0  0  0
  191.1070  177.6020  143.8410 C   0  0  0  0  0  0  0  0  0  0  0  0
  191.7590  177.2130  142.7420 C   0  0  0  0  0  2  0  0  0  0  0  0
  191.5330  177.0630  145.1760 C   0  0  0  0  0  2  0  0  0  0  0  0
  193.0440  176.8990  145.2120 C   0  0  0  0  0  2  0  0  0  0  0  0
  193.3990  175.6750  146.0470 C   0  0  1  0  0  3  0  0  0  0  0  0
  192.2360  175.1010  146.5620 O   0  0  0  0  0  1  0  0  0  0  0  0
  196.3380  174.1110  144.0380 C   0  0  1  0  0  3  0  0  0  0  0  0
  193.7220  173.5020  145.0910 O   0  0  0  0  0  0  0  0  0  0  0  0
  195.7130  176.4450  144.2660 C   0  0  0  0  0  2  0  0  0  0  0  0
  194.1570  174.6800  145.2190 C   0  0  0  0  0  0  0  0  0  0  0  0
  195.3700  175.0670  144.5570 N   0  0  0  0  0  0  0  0  0  0  0  0
  196.8920  176.3930  143.3110 C   0  0  1  0  0  3  0  0  0  0  0  0
  197.4180  174.9520  143.3680 C   0  0  2  0  0  3  0  0  0  0  0  0
  196.4420  176.7170  142.0250 O   0  0  0  0  0  1  0  0  0  0  0  0
  196.5010  173.8780  141.6650 C   0  0  0  0  0  1  0  0  0  0  0  0
  197.7010  174.4440  142.0980 O   0  0  0  0  0  0  0  0  0  0  0  0
  196.9490  173.3270  145.2000 C   0  0  0  0  0  2  0  0  0  0  0  0
  196.0240  171.4540  143.8280 C   0  0  0  0  0  2  0  0  0  0  0  0
  196.0900  169.9530  143.5490 C   0  0  0  0  0  2  0  0  0  0  0  0
  195.8540  169.1630  144.8380 C   0  0  0  0  0  2  0  0  0  0  0  0
  196.8080  171.0520  146.1720 C   0  0  0  0  0  2  0  0  0  0  0  0
  196.8860  169.5520  145.8910 C   0  0  0  0  0  2  0  0  0  0  0  0
  197.0490  171.8410  144.8870 C   0  0  0  0  0  3  0  0  0  0  0  0
  185.7710  178.9440  142.4270 O   0  0  0  0  0  0  0  0  0  0  0  0
  184.8530  178.2740  141.6140 C   0  0  0  0  0  2  0  0  0  0  0  0
  183.4560  178.3800  142.1980 C   0  0  0  0  0  2  0  0  0  0  0  0
  182.4110  178.1870  141.1160 C   0  0  0  0  0  2  0  0  0  0  0  0
  181.1400  178.9080  141.5210 C   0  0  2  0  0  3  0  0  0  0  0  0
  178.2010  180.2390  141.1360 C   0  0  0  0  0  3  0  0  0  0  0  0
  179.9690  177.9460  141.4080 C   0  0  2  0  0  3  0  0  0  0  0  0
  180.2060  179.0160  140.3270 C   0  0  1  0  0  3  0  0  0  0  0  0
  179.3500  180.2570  140.4440 C   0  0  0  0  0  0  0  0  0  0  0  0
  177.7270  178.9980  141.8160 C   0  0  0  0  0  2  0  0  0  0  0  0
  178.9180  178.3100  142.4640 C   0  0  1  0  0  3  0  0  0  0  0  0
  179.2530  182.0350  138.5910 C   0  0  0  0  0  0  0  0  0  0  0  0
  178.2350  181.5540  138.0230 O   0  0  0  0  0  0  0  0  0  0  0  0
  179.8020  181.4450  139.7780 N   0  0  0  0  0  2  0  0  0  0  0  0
  179.8900  183.2540  138.0300 C   0  0  0  0  0  1  0  0  0  0  0  0
  178.4490  177.0640  143.1850 C   0  0  0  0  0  2  0  0  0  0  0  0
  178.4350  177.2770  144.5510 F   0  0  0  0  0  0  0  0  0  0  0  0
  2 38  1  6  0  0  0
  2 10  1  0  0  0  0
  4  9  1  0  0  0  0
  4  3  1  0  0  0  0
  5  1  1  1  0  0  0
  5  9  1  0  0  0  0
  6  4  1  0  0  0  0
  7 14  1  6  0  0  0
  7  1  1  0  0  0  0
  8 13  1  1  0  0  0
  8  2  1  0  0  0  0
  8  7  1  0  0  0  0
 10  6  1  1  0  0  0
 10  5  1  0  0  0  0
 13 11  1  1  0  0  0
 13 12  1  0  0  0  0
 14 15  1  0  0  0  0
 15 17  1  0  0  0  0
 16 15  2  0  0  0  0
 17 18  1  0  0  0  0
 18 19  1  0  0  0  0
 19 20  1  6  0  0  0
 21 25  1  0  0  0  0
 21 31  1  1  0  0  0
 22 24  2  0  0  0  0
 23 25  1  0  0  0  0
 24 19  1  0  0  0  0
 25 24  1  0  0  0  0
 26 28  1  6  0  0  0
 26 27  1  0  0  0  0
 26 23  1  0  0  0  0
 27 30  1  6  0  0  0
 27 21  1  0  0  0  0
 29 30  1  0  0  0  0
 32 37  1  0  0  0  0
 33 32  1  0  0  0  0
 33 34  1  0  0  0  0
 34 36  1  0  0  0  0
 36 35  1  0  0  0  0
 37 31  1  0  0  0  0
 37 35  1  0  0  0  0
 39 40  1  0  0  0  0
 39 38  1  0  0  0  0
 41 40  1  0  0  0  0
 42 41  1  6  0  0  0
 43 47  1  0  0  0  0
 44 42  1  0  0  0  0
 44 48  1  0  0  0  0
 45 46  1  0  0  0  0
 45 44  1  0  0  0  0
 45 42  1  0  0  0  0
 46 43  2  0  0  0  0
 47 48  1  0  0  0  0
 48 53  1  0  0  0  0
 49 51  1  0  0  0  0
 50 49  2  0  0  0  0
 51 46  1  0  0  0  0
 52 49  1  0  0  0  0
 53 54  1  0  0  0  0
M  END
>  <MODEL>
5

>  <REMARK>
 VINA RESULT:      -6.2      4.868     12.666
  Name = 
  17 active torsions:
  status: ('A' for Active; 'I' for Inactive)
    1  A    between atoms: C_1  and  C_54
    2  A    between atoms: C_2  and  C_13
    3  A    between atoms: C_3  and  C_17
    4  A    between atoms: C_3  and  C_18
    5  A    between atoms: C_6  and  C_9
    6  A    between atoms: C_6  and  C_48
    7  A    between atoms: C_7  and  C_17
    8  A    between atoms: C_8  and  C_20
    9  A    between atoms: C_8  and  C_53
   10  A    between atoms: C_13  and  C_44
   11  A    between atoms: C_18  and  O_26
   12  A    between atoms: C_20  and  C_48
   13  A    between atoms: O_26  and  C_29
   14  A    between atoms: C_37  and  C_53
   15  A    between atoms: C_38  and  O_47
   16  A    between atoms: N_42  and  C_45
   17  A    between atoms: C_43  and  C_50
                            x       y       z     vdW  Elec       q    Type
                         _______ _______ _______ _____ _____    ______ ____

>  <TORSDO>
F 17

$$$$
=
 OpenBabel11062418343D

 54 59  0  0  1  0  0  0  0  0999 V2000
  192.8300  173.2790  143.2460 C   0  0  0  0  0  2  0  0  0  0  0  0
  192.0130  175.3990  145.2390 C   0  0  1  0  0  3  0  0  0  0  0  0
  196.1670  174.2050  146.2880 O   0  0  0  0  0  1  0  0  0  0  0  0
  195.6660  174.7180  145.1350 N   0  0  0  0  0  0  0  0  0  0  0  0
  193.5840  173.7290  144.4830 C   0  0  1  0  0  3  0  0  0  0  0  0
  194.5490  175.5860  145.5080 C   0  0  0  0  0  2  0  0  0  0  0  0
  191.3570  173.7630  143.2370 C   0  0  1  0  0  3  0  0  0  0  0  0
  190.9130  174.7290  144.3820 C   0  0  1  0  0  3  0  0  0  0  0  0
  195.0880  173.5990  144.3860 C   0  0  0  0  0  2  0  0  0  0  0  0
  193.3890  175.1910  144.6300 C   0  0  2  0  0  3  0  0  0  0  0  0
  189.7330  172.6110  145.0210 C   0  0  0  0  0  1  0  0  0  0  0  0
  190.1830  174.3090  146.6400 O   0  0  0  0  0  1  0  0  0  0  0  0
  189.8650  174.0970  145.2950 C   0  0  1  0  0  3  0  0  0  0  0  0
  191.0490  174.4230  141.8980 C   0  0  0  0  0  2  0  0  0  0  0  0
  189.8260  173.8450  141.2470 C   0  0  0  0  0  0  0  0  0  0  0  0
  188.6200  174.3500  141.5190 C   0  0  0  0  0  2  0  0  0  0  0  0
  189.9280  172.4840  140.6220 C   0  0  0  0  0  2  0  0  0  0  0  0
  190.1650  172.6150  139.1260 C   0  0  0  0  0  2  0  0  0  0  0  0
  190.7800  171.3250  138.5980 C   0  0  1  0  0  3  0  0  0  0  0  0
  190.2960  171.0610  137.3150 O   0  0  0  0  0  1  0  0  0  0  0  0
  194.3080  172.9460  138.3900 C   0  0  1  0  0  3  0  0  0  0  0  0
  192.9790  170.4540  138.9770 O   0  0  0  0  0  0  0  0  0  0  0  0
  192.2610  173.5880  137.2570 C   0  0  0  0  0  2  0  0  0  0  0  0
  192.2760  171.4260  138.5860 C   0  0  0  0  0  0  0  0  0  0  0  0
  192.9150  172.6230  138.1170 N   0  0  0  0  0  0  0  0  0  0  0  0
  193.3540  174.5170  136.7570 C   0  0  1  0  0  3  0  0  0  0  0  0
  194.5720  174.2540  137.6550 C   0  0  2  0  0  3  0  0  0  0  0  0
  193.6330  174.2040  135.4210 O   0  0  0  0  0  1  0  0  0  0  0  0
  196.3550  175.4140  137.0440 C   0  0  0  0  0  1  0  0  0  0  0  0
  195.7560  174.1590  136.9210 O   0  0  0  0  0  0  0  0  0  0  0  0
  194.4930  173.1600  139.8940 C   0  0  0  0  0  2  0  0  0  0  0  0
  196.5330  174.1450  140.9490 C   0  0  0  0  0  2  0  0  0  0  0  0
  197.2650  175.4410  141.2920 C   0  0  0  0  0  2  0  0  0  0  0  0
  196.3610  176.3600  142.1170 C   0  0  0  0  0  2  0  0  0  0  0  0
  194.3470  175.3620  141.0200 C   0  0  0  0  0  2  0  0  0  0  0  0
  195.0780  176.6620  141.3510 C   0  0  0  0  0  2  0  0  0  0  0  0
  195.2460  174.4470  140.1920 C   0  0  0  0  0  3  0  0  0  0  0  0
  191.7470  176.7680  145.3690 O   0  0  0  0  0  0  0  0  0  0  0  0
  190.9080  177.0780  144.2950 C   0  0  0  0  0  2  0  0  0  0  0  0
  189.6490  177.7630  144.7910 C   0  0  0  0  0  2  0  0  0  0  0  0
  188.4200  177.1430  144.1550 C   0  0  0  0  0  2  0  0  0  0  0  0
  187.2050  177.9830  144.5010 C   0  0  2  0  0  3  0  0  0  0  0  0
  184.0660  178.6280  145.0350 C   0  0  0  0  0  3  0  0  0  0  0  0
  186.6280  177.4970  145.8190 C   0  0  2  0  0  3  0  0  0  0  0  0
  185.9580  177.1140  144.4880 C   0  0  1  0  0  3  0  0  0  0  0  0
  184.7500  177.9420  144.1080 C   0  0  0  0  0  0  0  0  0  0  0  0
  184.4720  178.6030  146.4720 C   0  0  0  0  0  2  0  0  0  0  0  0
  185.9880  178.6820  146.5530 C   0  0  1  0  0  3  0  0  0  0  0  0
  185.1490  178.3600  141.6040 C   0  0  0  0  0  0  0  0  0  0  0  0
  186.3500  178.7210  141.7380 O   0  0  0  0  0  0  0  0  0  0  0  0
  184.3550  177.9530  142.7280 N   0  0  0  0  0  2  0  0  0  0  0  0
  184.5440  178.3370  140.2470 C   0  0  0  0  0  1  0  0  0  0  0  0
  186.4150  178.6880  148.0050 C   0  0  0  0  0  2  0  0  0  0  0  0
  186.6660  179.9810  148.4250 F   0  0  0  0  0  0  0  0  0  0  0  0
  2 38  1  6  0  0  0
  4  6  1  0  0  0  0
  4  3  1  0  0  0  0
  5  1  1  6  0  0  0
  5 10  1  0  0  0  0
  7 14  1  6  0  0  0
  7  1  1  0  0  0  0
  7  8  1  0  0  0  0
  8  2  1  0  0  0  0
  8 13  1  1  0  0  0
  9  5  1  0  0  0  0
  9  4  1  0  0  0  0
 10  2  1  0  0  0  0
 10  6  1  1  0  0  0
 13 11  1  1  0  0  0
 13 12  1  0  0  0  0
 15 16  2  0  0  0  0
 15 14  1  0  0  0  0
 17 15  1  0  0  0  0
 18 17  1  0  0  0  0
 19 20  1  6  0  0  0
 19 18  1  0  0  0  0
 21 31  1  1  0  0  0
 23 25  1  0  0  0  0
 24 19  1  0  0  0  0
 24 22  2  0  0  0  0
 25 21  1  0  0  0  0
 25 24  1  0  0  0  0
 26 28  1  6  0  0  0
 26 23  1  0  0  0  0
 26 27  1  0  0  0  0
 27 30  1  6  0  0  0
 27 21  1  0  0  0  0
 30 29  1  0  0  0  0
 31 37  1  0  0  0  0
 32 33  1  0  0  0  0
 33 34  1  0  0  0  0
 35 36  1  0  0  0  0
 36 34  1  0  0  0  0
 37 32  1  0  0  0  0
 37 35  1  0  0  0  0
 39 40  1  0  0  0  0
 39 38  1  0  0  0  0
 41 40  1  0  0  0  0
 42 41  1  6  0  0  0
 42 44  1  0  0  0  0
 43 47  1  0  0  0  0
 44 48  1  0  0  0  0
 45 42  1  0  0  0  0
 45 44  1  0  0  0  0
 46 45  1  0  0  0  0
 46 43  2  0  0  0  0
 47 48  1  0  0  0  0
 48 53  1  0  0  0  0
 49 50  2  0  0  0  0
 49 51  1  0  0  0  0
 51 46  1  0  0  0  0
 52 49  1  0  0  0  0
 53 54  1  0  0  0  0
M  END
>  <MODEL>
6

>  <REMARK>
 VINA RESULT:      -6.1      2.910      9.612
  Name = 
  17 active torsions:
  status: ('A' for Active; 'I' for Inactive)
    1  A    between atoms: C_1  and  C_54
    2  A    between atoms: C_2  and  C_13
    3  A    between atoms: C_3  and  C_17
    4  A    between atoms: C_3  and  C_18
    5  A    between atoms: C_6  and  C_9
    6  A    between atoms: C_6  and  C_48
    7  A    between atoms: C_7  and  C_17
    8  A    between atoms: C_8  and  C_20
    9  A    between atoms: C_8  and  C_53
   10  A    between atoms: C_13  and  C_44
   11  A    between atoms: C_18  and  O_26
   12  A    between atoms: C_20  and  C_48
   13  A    between atoms: O_26  and  C_29
   14  A    between atoms: C_37  and  C_53
   15  A    between atoms: C_38  and  O_47
   16  A    between atoms: N_42  and  C_45
   17  A    between atoms: C_43  and  C_50
                            x       y       z     vdW  Elec       q    Type
                         _______ _______ _______ _____ _____    ______ ____

>  <TORSDO>
F 17

$$$$
=
 OpenBabel11062418343D

 54 59  0  0  1  0  0  0  0  0999 V2000
  192.7790  172.0990  139.1170 C   0  0  0  0  0  2  0  0  0  0  0  0
  190.2670  173.0680  140.4910 C   0  0  1  0  0  3  0  0  0  0  0  0
  192.0700  170.0000  143.1600 O   0  0  0  0  0  1  0  0  0  0  0  0
  192.5830  171.1670  142.6910 N   0  0  0  0  0  0  0  0  0  0  0  0
  192.1300  171.5370  140.3680 C   0  0  1  0  0  3  0  0  0  0  0  0
  191.4590  172.0900  142.5310 C   0  0  0  0  0  2  0  0  0  0  0  0
  191.8380  173.0530  138.3360 C   0  0  1  0  0  3  0  0  0  0  0  0
  190.4650  173.4040  138.9940 C   0  0  1  0  0  3  0  0  0  0  0  0
  193.0940  170.8980  141.3440 C   0  0  0  0  0  2  0  0  0  0  0  0
  191.5790  172.6730  141.1460 C   0  0  2  0  0  3  0  0  0  0  0  0
  189.5900  172.8950  136.7010 C   0  0  0  0  0  1  0  0  0  0  0  0
  188.9580  171.5690  138.5850 O   0  0  0  0  0  1  0  0  0  0  0  0
  189.2860  172.8690  138.1870 C   0  0  1  0  0  3  0  0  0  0  0  0
  192.5760  174.3510  138.0280 C   0  0  0  0  0  2  0  0  0  0  0  0
  193.7380  174.1390  137.1020 C   0  0  0  0  0  0  0  0  0  0  0  0
  193.5830  173.4250  135.9840 C   0  0  0  0  0  2  0  0  0  0  0  0
  195.1220  174.3860  137.6280 C   0  0  0  0  0  2  0  0  0  0  0  0
  195.0600  175.2740  138.8600 C   0  0  0  0  0  2  0  0  0  0  0  0
  196.0320  174.7510  139.9100 C   0  0  1  0  0  3  0  0  0  0  0  0
  196.9820  175.7300  140.2040 O   0  0  0  0  0  1  0  0  0  0  0  0
  195.4110  173.2030  143.4220 C   0  0  1  0  0  3  0  0  0  0  0  0
  194.1540  174.8260  141.3950 O   0  0  0  0  0  0  0  0  0  0  0  0
  196.9200  172.4650  141.6720 C   0  0  0  0  0  2  0  0  0  0  0  0
  195.2940  174.3430  141.1500 C   0  0  0  0  0  0  0  0  0  0  0  0
  195.8730  173.3910  142.0550 N   0  0  0  0  0  0  0  0  0  0  0  0
  197.0240  171.4550  142.8010 C   0  0  1  0  0  3  0  0  0  0  0  0
  196.2530  172.0640  143.9820 C   0  0  2  0  0  3  0  0  0  0  0  0
  196.4430  170.2530  142.3830 O   0  0  0  0  0  1  0  0  0  0  0  0
  195.9760  170.9770  145.8900 C   0  0  0  0  0  1  0  0  0  0  0  0
  195.4320  171.1270  144.6120 O   0  0  0  0  0  0  0  0  0  0  0  0
  195.6760  174.4770  144.2260 C   0  0  0  0  0  2  0  0  0  0  0  0
  194.6590  175.7230  146.1390 C   0  0  0  0  0  2  0  0  0  0  0  0
  193.3610  176.2710  146.7290 C   0  0  0  0  0  2  0  0  0  0  0  0
  192.3280  175.1520  146.8720 C   0  0  0  0  0  2  0  0  0  0  0  0
  193.3630  173.9480  144.9390 C   0  0  0  0  0  2  0  0  0  0  0  0
  192.0620  174.5030  145.5180 C   0  0  0  0  0  2  0  0  0  0  0  0
  194.3920  175.0660  144.7900 C   0  0  0  0  0  3  0  0  0  0  0  0
  189.7090  174.1670  141.1550 O   0  0  0  0  0  0  0  0  0  0  0  0
  188.4150  174.2830  140.6420 C   0  0  0  0  0  2  0  0  0  0  0  0
  187.8140  175.6220  141.0270 C   0  0  0  0  0  2  0  0  0  0  0  0
  187.1800  175.5440  142.4030 C   0  0  0  0  0  2  0  0  0  0  0  0
  187.7850  176.6160  143.2880 C   0  0  2  0  0  3  0  0  0  0  0  0
  189.0030  177.9190  146.0040 C   0  0  0  0  0  3  0  0  0  0  0  0
  189.2010  176.2080  143.6610 C   0  0  2  0  0  3  0  0  0  0  0  0
  188.0520  176.0500  144.6740 C   0  0  1  0  0  3  0  0  0  0  0  0
  187.9490  177.1430  145.7130 C   0  0  0  0  0  0  0  0  0  0  0  0
  190.3130  177.7350  145.3130 C   0  0  0  0  0  2  0  0  0  0  0  0
  190.0550  177.4690  143.8380 C   0  0  1  0  0  3  0  0  0  0  0  0
  185.6550  178.2480  146.0640 C   0  0  0  0  0  0  0  0  0  0  0  0
  185.7500  179.0240  145.0750 O   0  0  0  0  0  0  0  0  0  0  0  0
  186.6920  177.3090  146.3850 N   0  0  0  0  0  2  0  0  0  0  0  0
  184.4340  178.2930  146.9090 C   0  0  0  0  0  1  0  0  0  0  0  0
  191.3760  177.3110  143.1160 C   0  0  0  0  0  2  0  0  0  0  0  0
  192.4270  177.5490  143.9810 F   0  0  0  0  0  0  0  0  0  0  0  0
  2 10  1  0  0  0  0
  2 38  1  1  0  0  0
  4  3  1  0  0  0  0
  5  1  1  6  0  0  0
  5 10  1  0  0  0  0
  5  9  1  0  0  0  0
  6  4  1  0  0  0  0
  7 14  1  1  0  0  0
  7  8  1  0  0  0  0
  7  1  1  0  0  0  0
  8 13  1  6  0  0  0
  8  2  1  0  0  0  0
  9  4  1  0  0  0  0
 10  6  1  1  0  0  0
 13 11  1  6  0  0  0
 13 12  1  0  0  0  0
 15 17  1  0  0  0  0
 15 14  1  0  0  0  0
 16 15  2  0  0  0  0
 17 18  1  0  0  0  0
 18 19  1  0  0  0  0
 19 20  1  1  0  0  0
 19 24  1  0  0  0  0
 21 27  1  0  0  0  0
 21 31  1  1  0  0  0
 23 25  1  0  0  0  0
 23 26  1  0  0  0  0
 24 22  2  0  0  0  0
 24 25  1  0  0  0  0
 25 21  1  0  0  0  0
 26 28  1  6  0  0  0
 26 27  1  0  0  0  0
 27 30  1  6  0  0  0
 30 29  1  0  0  0  0
 31 37  1  0  0  0  0
 32 33  1  0  0  0  0
 33 34  1  0  0  0  0
 35 36  1  0  0  0  0
 36 34  1  0  0  0  0
 37 35  1  0  0  0  0
 37 32  1  0  0  0  0
 39 40  1  0  0  0  0
 39 38  1  0  0  0  0
 40 41  1  0  0  0  0
 42 41  1  6  0  0  0
 42 44  1  0  0  0  0
 42 45  1  0  0  0  0
 44 48  1  0  0  0  0
 44 45  1  0  0  0  0
 45 46  1  0  0  0  0
 46 43  2  0  0  0  0
 46 51  1  0  0  0  0
 47 43  1  0  0  0  0
 48 47  1  0  0  0  0
 49 51  1  0  0  0  0
 49 52  1  0  0  0  0
 50 49  2  0  0  0  0
 53 48  1  0  0  0  0
 53 54  1  0  0  0  0
M  END
>  <MODEL>
7

>  <REMARK>
 VINA RESULT:      -6.1      2.612      8.197
  Name = 
  17 active torsions:
  status: ('A' for Active; 'I' for Inactive)
    1  A    between atoms: C_1  and  C_54
    2  A    between atoms: C_2  and  C_13
    3  A    between atoms: C_3  and  C_17
    4  A    between atoms: C_3  and  C_18
    5  A    between atoms: C_6  and  C_9
    6  A    between atoms: C_6  and  C_48
    7  A    between atoms: C_7  and  C_17
    8  A    between atoms: C_8  and  C_20
    9  A    between atoms: C_8  and  C_53
   10  A    between atoms: C_13  and  C_44
   11  A    between atoms: C_18  and  O_26
   12  A    between atoms: C_20  and  C_48
   13  A    between atoms: O_26  and  C_29
   14  A    between atoms: C_37  and  C_53
   15  A    between atoms: C_38  and  O_47
   16  A    between atoms: N_42  and  C_45
   17  A    between atoms: C_43  and  C_50
                            x       y       z     vdW  Elec       q    Type
                         _______ _______ _______ _____ _____    ______ ____

>  <TORSDO>
F 17

$$$$
=
 OpenBabel11062418343D

 54 59  0  0  1  0  0  0  0  0999 V2000
  192.9520  174.1370  138.4260 C   0  0  0  0  0  2  0  0  0  0  0  0
  194.0330  171.5130  139.4660 C   0  0  1  0  0  3  0  0  0  0  0  0
  197.4100  174.4060  139.5710 O   0  0  0  0  0  1  0  0  0  0  0  0
  196.1960  174.4520  140.1780 N   0  0  0  0  0  0  0  0  0  0  0  0
  194.3950  173.7880  138.7440 C   0  0  1  0  0  3  0  0  0  0  0  0
  195.8070  173.0680  140.4530 C   0  0  0  0  0  2  0  0  0  0  0  0
  192.0420  172.8850  138.3410 C   0  0  1  0  0  3  0  0  0  0  0  0
  192.6770  171.5100  138.7220 C   0  0  1  0  0  3  0  0  0  0  0  0
  195.2430  174.9610  139.1870 C   0  0  0  0  0  2  0  0  0  0  0  0
  194.3990  172.9090  139.9380 C   0  0  2  0  0  3  0  0  0  0  0  0
  191.6320  170.8440  136.5430 C   0  0  0  0  0  1  0  0  0  0  0  0
  193.9880  170.6500  136.8920 O   0  0  0  0  0  1  0  0  0  0  0  0
  192.7470  170.5580  137.5310 C   0  0  1  0  0  3  0  0  0  0  0  0
  190.8010  173.1030  139.1980 C   0  0  0  0  0  2  0  0  0  0  0  0
  189.5600  173.2690  138.3710 C   0  0  0  0  0  0  0  0  0  0  0  0
  189.6520  173.4620  137.0530 C   0  0  0  0  0  2  0  0  0  0  0  0
  188.2770  173.6090  139.0730 C   0  0  0  0  0  2  0  0  0  0  0  0
  188.5420  173.8650  140.5480 C   0  0  0  0  0  2  0  0  0  0  0  0
  188.3950  175.3540  140.8360 C   0  0  1  0  0  3  0  0  0  0  0  0
  187.4210  175.9040  140.0000 O   0  0  0  0  0  1  0  0  0  0  0  0
  188.7010  176.6180  144.5010 C   0  0  1  0  0  3  0  0  0  0  0  0
  186.8690  175.3290  142.6830 O   0  0  0  0  0  0  0  0  0  0  0  0
  190.4530  175.9390  142.9660 C   0  0  0  0  0  2  0  0  0  0  0  0
  188.0380  175.5740  142.2760 C   0  0  0  0  0  0  0  0  0  0  0  0
  189.0270  176.0510  143.2000 N   0  0  0  0  0  0  0  0  0  0  0  0
  191.1250  176.2710  144.2870 C   0  0  1  0  0  3  0  0  0  0  0  0
  190.0410  176.9210  145.1590 C   0  0  2  0  0  3  0  0  0  0  0  0
  191.5940  175.0840  144.8620 O   0  0  0  0  0  1  0  0  0  0  0  0
  189.8040  177.5460  147.2680 C   0  0  0  0  0  1  0  0  0  0  0  0
  190.0540  176.4310  146.4660 O   0  0  0  0  0  0  0  0  0  0  0  0
  187.9230  177.9200  144.3040 C   0  0  0  0  0  2  0  0  0  0  0  0
  185.8180  179.1500  144.8560 C   0  0  0  0  0  2  0  0  0  0  0  0
  184.3730  179.0120  145.3320 C   0  0  0  0  0  2  0  0  0  0  0  0
  184.3240  178.2720  146.6700 C   0  0  0  0  0  2  0  0  0  0  0  0
  186.4200  177.0460  146.0700 C   0  0  0  0  0  2  0  0  0  0  0  0
  184.9730  176.8990  146.5370 C   0  0  0  0  0  2  0  0  0  0  0  0
  186.4690  177.7790  144.7310 C   0  0  0  0  0  3  0  0  0  0  0  0
  193.9790  170.6360  140.5560 O   0  0  0  0  0  0  0  0  0  0  0  0
  192.7730  170.9280  141.1980 C   0  0  0  0  0  2  0  0  0  0  0  0
  192.9390  170.8250  142.7030 C   0  0  0  0  0  2  0  0  0  0  0  0
  192.8640  172.1980  143.3420 C   0  0  0  0  0  2  0  0  0  0  0  0
  194.2600  172.6320  143.7470 C   0  0  2  0  0  3  0  0  0  0  0  0
  196.6730  173.4490  145.7640 C   0  0  0  0  0  3  0  0  0  0  0  0
  194.9350  171.4940  144.4940 C   0  0  2  0  0  3  0  0  0  0  0  0
  194.3600  172.6970  145.2630 C   0  0  1  0  0  3  0  0  0  0  0  0
  195.3680  173.7450  145.6760 C   0  0  0  0  0  0  0  0  0  0  0  0
  197.1770  172.0780  145.4570 C   0  0  0  0  0  2  0  0  0  0  0  0
  196.4450  171.5500  144.2330 C   0  0  1  0  0  3  0  0  0  0  0  0
  195.1490  176.2730  145.2670 C   0  0  0  0  0  0  0  0  0  0  0  0
  195.8460  176.2800  144.2160 O   0  0  0  0  0  0  0  0  0  0  0  0
  194.8790  175.0590  145.9830 N   0  0  0  0  0  2  0  0  0  0  0  0
  194.5770  177.5490  145.7680 C   0  0  0  0  0  1  0  0  0  0  0  0
  196.9670  170.1710  143.8890 C   0  0  0  0  0  2  0  0  0  0  0  0
  196.0280  169.4740  143.1520 F   0  0  0  0  0  0  0  0  0  0  0  0
  2 10  1  0  0  0  0
  2 38  1  1  0  0  0
  3  4  1  0  0  0  0
  4  6  1  0  0  0  0
  5  1  1  1  0  0  0
  5  9  1  0  0  0  0
  5 10  1  0  0  0  0
  7  1  1  0  0  0  0
  7  8  1  0  0  0  0
  7 14  1  1  0  0  0
  8 13  1  6  0  0  0
  8  2  1  0  0  0  0
  9  4  1  0  0  0  0
 10  6  1  6  0  0  0
 12 13  1  0  0  0  0
 13 11  1  6  0  0  0
 15 17  1  0  0  0  0
 15 14  1  0  0  0  0
 16 15  2  0  0  0  0
 17 18  1  0  0  0  0
 18 19  1  0  0  0  0
 19 20  1  6  0  0  0
 19 24  1  0  0  0  0
 21 31  1  6  0  0  0
 21 27  1  0  0  0  0
 23 25  1  0  0  0  0
 23 26  1  0  0  0  0
 24 22  2  0  0  0  0
 24 25  1  0  0  0  0
 25 21  1  0  0  0  0
 26 28  1  1  0  0  0
 26 27  1  0  0  0  0
 27 30  1  1  0  0  0
 30 29  1  0  0  0  0
 31 37  1  0  0  0  0
 32 33  1  0  0  0  0
 33 34  1  0  0  0  0
 35 36  1  0  0  0  0
 36 34  1  0  0  0  0
 37 32  1  0  0  0  0
 37 35  1  0  0  0  0
 38 39  1  0  0  0  0
 39 40  1  0  0  0  0
 40 41  1  0  0  0  0
 42 41  1  1  0  0  0
 42 44  1  0  0  0  0
 42 45  1  0  0  0  0
 44 45  1  0  0  0  0
 45 46  1  0  0  0  0
 46 43  2  0  0  0  0
 46 51  1  0  0  0  0
 47 43  1  0  0  0  0
 48 44  1  0  0  0  0
 48 47  1  0  0  0  0
 49 52  1  0  0  0  0
 49 51  1  0  0  0  0
 50 49  2  0  0  0  0
 53 48  1  0  0  0  0
 54 53  1  0  0  0  0
M  END
>  <MODEL>
8

>  <REMARK>
 VINA RESULT:      -6.1      2.109      4.289
  Name = 
  17 active torsions:
  status: ('A' for Active; 'I' for Inactive)
    1  A    between atoms: C_1  and  C_54
    2  A    between atoms: C_2  and  C_13
    3  A    between atoms: C_3  and  C_17
    4  A    between atoms: C_3  and  C_18
    5  A    between atoms: C_6  and  C_9
    6  A    between atoms: C_6  and  C_48
    7  A    between atoms: C_7  and  C_17
    8  A    between atoms: C_8  and  C_20
    9  A    between atoms: C_8  and  C_53
   10  A    between atoms: C_13  and  C_44
   11  A    between atoms: C_18  and  O_26
   12  A    between atoms: C_20  and  C_48
   13  A    between atoms: O_26  and  C_29
   14  A    between atoms: C_37  and  C_53
   15  A    between atoms: C_38  and  O_47
   16  A    between atoms: N_42  and  C_45
   17  A    between atoms: C_43  and  C_50
                            x       y       z     vdW  Elec       q    Type
                         _______ _______ _______ _____ _____    ______ ____

>  <TORSDO>
F 17

$$$$
=
 OpenBabel11062418343D

 54 59  0  0  1  0  0  0  0  0999 V2000
  192.9460  171.8050  139.5710 C   0  0  0  0  0  2  0  0  0  0  0  0
  190.0620  172.4210  140.2330 C   0  0  1  0  0  3  0  0  0  0  0  0
  190.8290  168.2730  141.6460 O   0  0  0  0  0  1  0  0  0  0  0  0
  191.4350  169.4420  141.9830 N   0  0  0  0  0  0  0  0  0  0  0  0
  191.8910  170.8510  140.1000 C   0  0  1  0  0  3  0  0  0  0  0  0
  190.4200  170.4910  141.8720 C   0  0  0  0  0  2  0  0  0  0  0  0
  192.3370  173.1270  139.0350 C   0  0  1  0  0  3  0  0  0  0  0  0
  190.8040  173.3450  139.2400 C   0  0  1  0  0  3  0  0  0  0  0  0
  192.4330  169.7200  140.9470 C   0  0  0  0  0  2  0  0  0  0  0  0
  191.0380  171.5980  141.0550 C   0  0  2  0  0  3  0  0  0  0  0  0
  190.9630  173.0470  136.7560 C   0  0  0  0  0  1  0  0  0  0  0  0
  188.9530  172.5190  137.9370 O   0  0  0  0  0  1  0  0  0  0  0  0
  190.0470  173.3910  137.9160 C   0  0  1  0  0  3  0  0  0  0  0  0
  193.0830  174.3090  139.6430 C   0  0  0  0  0  2  0  0  0  0  0  0
  194.2190  174.7710  138.7780 C   0  0  0  0  0  0  0  0  0  0  0  0
  194.1030  174.7470  137.4480 C   0  0  0  0  0  2  0  0  0  0  0  0
  195.5850  174.8740  139.3930 C   0  0  0  0  0  2  0  0  0  0  0  0
  195.4730  174.9070  140.9080 C   0  0  0  0  0  2  0  0  0  0  0  0
  195.8900  176.2820  141.4160 C   0  0  1  0  0  3  0  0  0  0  0  0
  195.0430  177.2580  140.8880 O   0  0  0  0  0  1  0  0  0  0  0  0
  194.6180  175.6720  145.0390 C   0  0  1  0  0  3  0  0  0  0  0  0
  196.9020  176.6300  143.5590 O   0  0  0  0  0  0  0  0  0  0  0  0
  193.3380  176.0720  143.0160 C   0  0  0  0  0  2  0  0  0  0  0  0
  195.8630  176.3160  142.9150 C   0  0  0  0  0  0  0  0  0  0  0  0
  194.6530  176.0050  143.6220 N   0  0  0  0  0  0  0  0  0  0  0  0
  192.3420  175.9730  144.1580 C   0  0  1  0  0  3  0  0  0  0  0  0
  193.1430  175.4860  145.3750 C   0  0  2  0  0  3  0  0  0  0  0  0
  191.7950  177.2410  144.3870 O   0  0  0  0  0  1  0  0  0  0  0  0
  192.1410  175.2790  147.3370 C   0  0  0  0  0  1  0  0  0  0  0  0
  192.8230  176.1950  146.5340 O   0  0  0  0  0  0  0  0  0  0  0  0
  195.3640  174.3570  145.2700 C   0  0  0  0  0  2  0  0  0  0  0  0
  194.1790  172.1630  145.4300 C   0  0  0  0  0  2  0  0  0  0  0  0
  193.6020  170.9890  144.6400 C   0  0  0  0  0  2  0  0  0  0  0  0
  194.6760  170.3750  143.7400 C   0  0  0  0  0  2  0  0  0  0  0  0
  195.8190  172.5950  143.5880 C   0  0  0  0  0  2  0  0  0  0  0  0
  195.2350  171.4290  142.7920 C   0  0  0  0  0  2  0  0  0  0  0  0
  194.7450  173.2120  144.4820 C   0  0  0  0  0  3  0  0  0  0  0  0
  189.2470  173.1850  141.0770 O   0  0  0  0  0  0  0  0  0  0  0  0
  190.1090  174.1090  141.6740 C   0  0  0  0  0  2  0  0  0  0  0  0
  189.3460  175.3550  142.0820 C   0  0  0  0  0  2  0  0  0  0  0  0
  187.8760  175.2160  141.7310 C   0  0  0  0  0  2  0  0  0  0  0  0
  187.0640  176.1230  142.6350 C   0  0  2  0  0  3  0  0  0  0  0  0
  186.3180  178.8280  144.2730 C   0  0  0  0  0  3  0  0  0  0  0  0
  186.5270  177.2850  141.8170 C   0  0  2  0  0  3  0  0  0  0  0  0
  187.7390  177.4800  142.7450 C   0  0  1  0  0  3  0  0  0  0  0  0
  187.4350  178.1080  144.0870 C   0  0  0  0  0  0  0  0  0  0  0  0
  185.3380  179.0350  143.1660 C   0  0  0  0  0  2  0  0  0  0  0  0
  185.1820  177.7310  142.4020 C   0  0  1  0  0  3  0  0  0  0  0  0
  188.2360  177.0840  146.3040 C   0  0  0  0  0  0  0  0  0  0  0  0
  187.2120  176.3700  146.4770 O   0  0  0  0  0  0  0  0  0  0  0  0
  188.3850  177.9180  145.1450 N   0  0  0  0  0  2  0  0  0  0  0  0
  189.3250  177.0500  147.3140 C   0  0  0  0  0  1  0  0  0  0  0  0
  184.1660  177.9150  141.2940 C   0  0  0  0  0  2  0  0  0  0  0  0
  182.9400  178.2740  141.8220 F   0  0  0  0  0  0  0  0  0  0  0  0
  2 10  1  0  0  0  0
  2 38  1  1  0  0  0
  3  4  1  0  0  0  0
  5  1  1  1  0  0  0
  5  9  1  0  0  0  0
  5 10  1  0  0  0  0
  6  4  1  0  0  0  0
  7  8  1  0  0  0  0
  7  1  1  0  0  0  0
  7 14  1  1  0  0  0
  8 13  1  6  0  0  0
  8  2  1  0  0  0  0
  9  4  1  0  0  0  0
 10  6  1  1  0  0  0
 13 11  1  6  0  0  0
 13 12  1  0  0  0  0
 15 17  1  0  0  0  0
 15 14  1  0  0  0  0
 16 15  2  0  0  0  0
 17 18  1  0  0  0  0
 18 19  1  0  0  0  0
 19 20  1  6  0  0  0
 19 24  1  0  0  0  0
 21 31  1  6  0  0  0
 21 27  1  0  0  0  0
 23 25  1  0  0  0  0
 23 26  1  0  0  0  0
 24 22  2  0  0  0  0
 24 25  1  0  0  0  0
 25 21  1  0  0  0  0
 26 28  1  1  0  0  0
 26 27  1  0  0  0  0
 27 30  1  1  0  0  0
 30 29  1  0  0  0  0
 33 32  1  0  0  0  0
 34 33  1  0  0  0  0
 35 37  1  0  0  0  0
 36 35  1  0  0  0  0
 36 34  1  0  0  0  0
 37 31  1  0  0  0  0
 37 32  1  0  0  0  0
 38 39  1  0  0  0  0
 39 40  1  0  0  0  0
 41 40  1  0  0  0  0
 42 41  1  6  0  0  0
 42 45  1  0  0  0  0
 44 48  1  0  0  0  0
 44 42  1  0  0  0  0
 44 45  1  0  0  0  0
 45 46  1  0  0  0  0
 46 43  2  0  0  0  0
 46 51  1  0  0  0  0
 47 43  1  0  0  0  0
 48 47  1  0  0  0  0
 49 50  2  0  0  0  0
 49 52  1  0  0  0  0
 51 49  1  0  0  0  0
 53 54  1  0  0  0  0
 53 48  1  0  0  0  0
M  END
>  <MODEL>
9

>  <REMARK>
 VINA RESULT:      -6.0      3.040      8.437
  Name = 
  17 active torsions:
  status: ('A' for Active; 'I' for Inactive)
    1  A    between atoms: C_1  and  C_54
    2  A    between atoms: C_2  and  C_13
    3  A    between atoms: C_3  and  C_17
    4  A    between atoms: C_3  and  C_18
    5  A    between atoms: C_6  and  C_9
    6  A    between atoms: C_6  and  C_48
    7  A    between atoms: C_7  and  C_17
    8  A    between atoms: C_8  and  C_20
    9  A    between atoms: C_8  and  C_53
   10  A    between atoms: C_13  and  C_44
   11  A    between atoms: C_18  and  O_26
   12  A    between atoms: C_20  and  C_48
   13  A    between atoms: O_26  and  C_29
   14  A    between atoms: C_37  and  C_53
   15  A    between atoms: C_38  and  O_47
   16  A    between atoms: N_42  and  C_45
   17  A    between atoms: C_43  and  C_50
                            x       y       z     vdW  Elec       q    Type
                         _______ _______ _______ _____ _____    ______ ____

>  <TORSDO>
F 17

$$$$
