=
 OpenBabel11062423103D

 28 31  0  0  1  0  0  0  0  0999 V2000
  186.8950  176.0540  143.3320 N   0  0  0  0  0  0  0  0  0  0  0  0
  188.8160  176.3650  144.6870 N   0  0  0  0  0  2  0  0  0  0  0  0
  188.7160  174.5980  142.9590 N   0  0  0  0  0  2  0  0  0  0  0  0
  188.0990  175.6840  143.6520 C   0  0  0  0  0  0  0  0  0  0  0  0
  190.2020  175.8870  146.6620 C   0  0  1  0  0  3  0  0  0  0  0  0
  191.2220  176.9240  144.6260 C   0  0  0  0  0  0  0  0  0  0  0  0
  191.3110  177.1200  143.1310 C   0  0  0  0  0  2  0  0  0  0  0  0
  192.5230  176.8650  145.2780 N   0  0  0  0  0  0  0  0  0  0  0  0
  189.3280  174.7680  147.1980 C   0  0  0  0  0  1  0  0  0  0  0  0
  191.6040  175.7060  147.1790 C   0  0  0  0  0  2  0  0  0  0  0  0
  192.6670  176.2010  146.5380 C   0  0  0  0  0  3  0  0  0  0  0  0
  190.8600  178.2670  144.0340 C   0  0  0  0  0  2  0  0  0  0  0  0
  190.1440  175.9510  145.1270 C   0  0  2  0  0  3  0  0  0  0  0  0
  185.6700  176.7010  145.3150 C   0  0  0  0  0  3  0  0  0  0  0  0
  185.0820  177.6180  143.1090 C   0  0  0  0  0  3  0  0  0  0  0  0
  184.3460  179.3710  144.6600 N   0  0  0  0  0  0  0  0  0  0  0  0
  186.1900  177.1490  143.9870 C   0  0  2  0  0  3  0  0  0  0  0  0
  185.0200  177.5140  146.1440 C   0  0  0  0  0  3  0  0  0  0  0  0
  184.6510  178.9110  145.8420 C   0  0  0  0  0  3  0  0  0  0  0  0
  184.2900  178.6450  143.4190 C   0  0  0  0  0  3  0  0  0  0  0  0
  188.0400  173.8970  141.9500 N   0  0  0  0  0  2  0  0  0  0  0  0
  189.0410  173.1440  141.2140 C   0  0  1  0  0  3  0  0  0  0  0  0
  190.2920  173.9990  141.0140 C   0  0  0  0  0  2  0  0  0  0  0  0
  189.4090  171.8850  141.9960 C   0  0  0  0  0  2  0  0  0  0  0  0
  191.6410  171.9130  141.1890 C   0  0  0  0  0  2  0  0  0  0  0  0
  191.3970  173.1740  140.3650 C   0  0  0  0  0  2  0  0  0  0  0  0
  190.4160  171.1190  141.2640 N   0  0  0  0  0  0  0  0  0  0  0  0
  190.7010  170.0320  142.0180 O   0  0  0  0  0  1  0  0  0  0  0  0
  1  4  2  0  0  0  0
  3  4  1  0  0  0  0
  4  2  1  0  0  0  0
  5 10  1  0  0  0  0
  5  9  1  6  0  0  0
  6 13  1  0  0  0  0
  6  8  1  0  0  0  0
  7 12  1  0  0  0  0
  7  6  1  0  0  0  0
  8 11  2  0  0  0  0
 11 10  1  0  0  0  0
 12  6  1  0  0  0  0
 13  2  1  1  0  0  0
 13  5  1  0  0  0  0
 14 18  2  0  0  0  0
 15 20  2  0  0  0  0
 15 17  1  0  0  0  0
 16 19  2  0  0  0  0
 17  1  1  6  0  0  0
 17 14  1  0  0  0  0
 19 18  1  0  0  0  0
 20 16  1  0  0  0  0
 21  3  1  0  0  0  0
 22 21  1  1  0  0  0
 22 24  1  0  0  0  0
 23 22  1  0  0  0  0
 25 27  1  0  0  0  0
 26 23  1  0  0  0  0
 26 25  1  0  0  0  0
 27 24  1  0  0  0  0
 27 28  1  0  0  0  0
M  END
>  <MODEL>
1

>  <REMARK>
 VINA RESULT:      -7.5      0.000      0.000
  Name = 
  4 active torsions:
  status: ('A' for Active; 'I' for Inactive)
    1  A    between atoms: N_2  and  C_17
    2  A    between atoms: C_6  and  N_24
    3  A    between atoms: N_8  and  C_26
    4  A    between atoms: N_10  and  N_24
                            x       y       z     vdW  Elec       q    Type
                         _______ _______ _______ _____ _____    ______ ____

>  <TORSDO>
F 4

$$$$
=
 OpenBabel11062423103D

 28 31  0  0  1  0  0  0  0  0999 V2000
  186.9210  176.0780  143.2000 N   0  0  0  0  0  0  0  0  0  0  0  0
  188.8250  176.3530  144.5860 N   0  0  0  0  0  2  0  0  0  0  0  0
  188.7560  174.6480  142.7930 N   0  0  0  0  0  2  0  0  0  0  0  0
  188.1240  175.7040  143.5190 C   0  0  0  0  0  0  0  0  0  0  0  0
  190.1960  175.8180  146.5570 C   0  0  1  0  0  3  0  0  0  0  0  0
  191.2290  176.9270  144.5650 C   0  0  0  0  0  0  0  0  0  0  0  0
  191.3300  177.1720  143.0780 C   0  0  0  0  0  2  0  0  0  0  0  0
  192.5230  176.8540  145.2270 N   0  0  0  0  0  0  0  0  0  0  0  0
  189.3240  174.6780  147.0490 C   0  0  0  0  0  1  0  0  0  0  0  0
  191.5950  175.6290  147.0810 C   0  0  0  0  0  2  0  0  0  0  0  0
  192.6600  176.1500  146.4660 C   0  0  0  0  0  3  0  0  0  0  0  0
  190.8630  178.2860  144.0130 C   0  0  0  0  0  2  0  0  0  0  0  0
  190.1520  175.9320  145.0250 C   0  0  2  0  0  3  0  0  0  0  0  0
  185.7090  176.6560  145.2120 C   0  0  0  0  0  3  0  0  0  0  0  0
  185.0710  177.6050  143.0330 C   0  0  0  0  0  3  0  0  0  0  0  0
  184.3190  179.3090  144.6300 N   0  0  0  0  0  0  0  0  0  0  0  0
  186.2010  177.1420  143.8860 C   0  0  2  0  0  3  0  0  0  0  0  0
  185.0530  177.4370  146.0660 C   0  0  0  0  0  3  0  0  0  0  0  0
  184.6490  178.8320  145.7970 C   0  0  0  0  0  3  0  0  0  0  0  0
  184.2610  178.6080  143.3750 C   0  0  0  0  0  3  0  0  0  0  0  0
  188.0970  173.9810  141.7520 N   0  0  0  0  0  2  0  0  0  0  0  0
  189.0710  173.7770  140.6940 C   0  0  1  0  0  3  0  0  0  0  0  0
  189.5710  172.3330  140.7200 C   0  0  0  0  0  2  0  0  0  0  0  0
  188.4220  174.0640  139.3420 C   0  0  0  0  0  2  0  0  0  0  0  0
  189.7670  172.4480  138.2390 C   0  0  0  0  0  2  0  0  0  0  0  0
  190.4880  172.0700  139.5310 C   0  0  0  0  0  2  0  0  0  0  0  0
  189.3940  173.8610  138.2690 N   0  0  0  0  0  0  0  0  0  0  0  0
  188.7500  174.1200  137.1070 O   0  0  0  0  0  1  0  0  0  0  0  0
  1  4  2  0  0  0  0
  3  4  1  0  0  0  0
  4  2  1  0  0  0  0
  5  9  1  6  0  0  0
  5 10  1  0  0  0  0
  6 13  1  0  0  0  0
  6  8  1  0  0  0  0
  7 12  1  0  0  0  0
  7  6  1  0  0  0  0
  8 11  2  0  0  0  0
 11 10  1  0  0  0  0
 12  6  1  0  0  0  0
 13  2  1  1  0  0  0
 13  5  1  0  0  0  0
 14 18  2  0  0  0  0
 15 20  2  0  0  0  0
 15 17  1  0  0  0  0
 16 19  2  0  0  0  0
 17  1  1  6  0  0  0
 17 14  1  0  0  0  0
 19 18  1  0  0  0  0
 20 16  1  0  0  0  0
 21  3  1  0  0  0  0
 22 23  1  0  0  0  0
 22 21  1  1  0  0  0
 24 22  1  0  0  0  0
 25 27  1  0  0  0  0
 25 26  1  0  0  0  0
 26 23  1  0  0  0  0
 27 24  1  0  0  0  0
 28 27  1  0  0  0  0
M  END
>  <MODEL>
2

>  <REMARK>
 VINA RESULT:      -7.5      1.662      1.837
  Name = 
  4 active torsions:
  status: ('A' for Active; 'I' for Inactive)
    1  A    between atoms: N_2  and  C_17
    2  A    between atoms: C_6  and  N_24
    3  A    between atoms: N_8  and  C_26
    4  A    between atoms: N_10  and  N_24
                            x       y       z     vdW  Elec       q    Type
                         _______ _______ _______ _____ _____    ______ ____

>  <TORSDO>
F 4

$$$$
=
 OpenBabel11062423103D

 28 31  0  0  1  0  0  0  0  0999 V2000
  189.2190  177.1520  144.8040 N   0  0  0  0  0  0  0  0  0  0  0  0
  189.1200  175.0920  143.6340 N   0  0  0  0  0  2  0  0  0  0  0  0
  191.2130  176.4030  143.7850 N   0  0  0  0  0  2  0  0  0  0  0  0
  189.8270  176.2480  144.0960 C   0  0  0  0  0  0  0  0  0  0  0  0
  188.7560  173.6300  141.6910 C   0  0  1  0  0  3  0  0  0  0  0  0
  190.1680  172.8550  143.6060 C   0  0  0  0  0  0  0  0  0  0  0  0
  191.1350  173.1080  144.7380 C   0  0  0  0  0  2  0  0  0  0  0  0
  190.4490  171.6300  142.8710 N   0  0  0  0  0  2  0  0  0  0  0  0
  188.4840  174.7480  140.7020 C   0  0  0  0  0  1  0  0  0  0  0  0
  189.2450  172.4190  140.9410 C   0  0  0  0  0  3  0  0  0  0  0  0
  190.0020  171.4820  141.5190 C   0  0  0  0  0  3  0  0  0  0  0  0
  189.7050  172.6580  145.0310 C   0  0  0  0  0  2  0  0  0  0  0  0
  189.7380  174.0790  142.7850 C   0  0  2  0  0  3  0  0  0  0  0  0
  187.0850  178.2790  144.6530 C   0  0  0  0  0  3  0  0  0  0  0  0
  187.6840  176.9670  146.6460 C   0  0  0  0  0  3  0  0  0  0  0  0
  185.2340  176.8550  146.6160 N   0  0  0  0  0  0  0  0  0  0  0  0
  187.8100  177.0770  145.1660 C   0  0  2  0  0  3  0  0  0  0  0  0
  185.7730  178.4480  144.8060 C   0  0  0  0  0  3  0  0  0  0  0  0
  184.8870  177.5420  145.5630 C   0  0  0  0  0  3  0  0  0  0  0  0
  186.5140  176.8310  147.2710 C   0  0  0  0  0  3  0  0  0  0  0  0
  191.9350  177.5270  144.2060 N   0  0  0  0  0  2  0  0  0  0  0  0
  193.2280  177.0530  144.6670 C   0  0  1  0  0  3  0  0  0  0  0  0
  193.0790  176.3810  146.0320 C   0  0  0  0  0  2  0  0  0  0  0  0
  193.7880  176.0450  143.6660 C   0  0  0  0  0  2  0  0  0  0  0  0
  194.9030  174.8200  145.3660 C   0  0  0  0  0  2  0  0  0  0  0  0
  194.4030  175.7580  146.4620 C   0  0  0  0  0  2  0  0  0  0  0  0
  195.0910  175.5610  144.1200 N   0  0  0  0  0  0  0  0  0  0  0  0
  195.5170  174.6680  143.1960 O   0  0  0  0  0  1  0  0  0  0  0  0
  2  4  1  0  0  0  0
  3  4  1  0  0  0  0
  3 21  1  0  0  0  0
  4  1  2  0  0  0  0
  5  9  1  6  0  0  0
  5 13  1  0  0  0  0
  6  7  1  0  0  0  0
  6 12  1  0  0  0  0
  7 12  1  0  0  0  0
  8  6  1  0  0  0  0
 10 11  2  0  0  0  0
 10  5  1  0  0  0  0
 11  8  1  0  0  0  0
 13  6  1  0  0  0  0
 13  2  1  1  0  0  0
 14 18  2  0  0  0  0
 14 17  1  0  0  0  0
 15 20  2  0  0  0  0
 16 20  1  0  0  0  0
 17  1  1  1  0  0  0
 17 15  1  0  0  0  0
 18 19  1  0  0  0  0
 19 16  2  0  0  0  0
 22 21  1  6  0  0  0
 22 23  1  0  0  0  0
 23 26  1  0  0  0  0
 24 27  1  0  0  0  0
 24 22  1  0  0  0  0
 25 26  1  0  0  0  0
 27 25  1  0  0  0  0
 28 27  1  0  0  0  0
M  END
>  <MODEL>
3

>  <REMARK>
 VINA RESULT:      -7.2      2.334      5.131
  Name = 
  4 active torsions:
  status: ('A' for Active; 'I' for Inactive)
    1  A    between atoms: N_2  and  C_17
    2  A    between atoms: C_6  and  N_24
    3  A    between atoms: N_8  and  C_26
    4  A    between atoms: N_10  and  N_24
                            x       y       z     vdW  Elec       q    Type
                         _______ _______ _______ _____ _____    ______ ____

>  <TORSDO>
F 4

$$$$
=
 OpenBabel11062423103D

 28 31  0  0  1  0  0  0  0  0999 V2000
  190.4740  175.8360  146.2670 N   0  0  0  0  0  0  0  0  0  0  0  0
  189.8740  175.5370  143.9930 N   0  0  0  0  0  2  0  0  0  0  0  0
  188.1670  175.7910  145.7660 N   0  0  0  0  0  2  0  0  0  0  0  0
  189.5390  175.7200  145.3720 C   0  0  0  0  0  0  0  0  0  0  0  0
  189.3230  174.2610  141.9630 C   0  0  1  0  0  3  0  0  0  0  0  0
  188.5940  176.6450  142.1930 C   0  0  0  0  0  0  0  0  0  0  0  0
  188.1380  177.8260  143.0150 C   0  0  0  0  0  2  0  0  0  0  0  0
  187.9090  176.5330  140.9130 N   0  0  0  0  0  2  0  0  0  0  0  0
  189.3730  172.8940  142.6190 C   0  0  0  0  0  1  0  0  0  0  0  0
  188.4420  174.1900  140.7440 C   0  0  0  0  0  3  0  0  0  0  0  0
  187.8220  175.2670  140.2520 C   0  0  0  0  0  3  0  0  0  0  0  0
  189.5040  177.8440  142.3330 C   0  0  0  0  0  2  0  0  0  0  0  0
  188.8650  175.3400  142.9580 C   0  0  2  0  0  3  0  0  0  0  0  0
  192.3680  174.3560  145.9940 C   0  0  0  0  0  3  0  0  0  0  0  0
  192.6510  176.6160  146.9260 C   0  0  0  0  0  3  0  0  0  0  0  0
  194.8370  176.1480  145.9160 N   0  0  0  0  0  0  0  0  0  0  0  0
  191.8960  175.7750  145.9560 C   0  0  2  0  0  3  0  0  0  0  0  0
  193.6200  174.0070  145.7070 C   0  0  0  0  0  3  0  0  0  0  0  0
  194.7140  174.9530  145.4080 C   0  0  0  0  0  3  0  0  0  0  0  0
  193.9710  176.7970  146.8630 C   0  0  0  0  0  3  0  0  0  0  0  0
  187.8000  175.9550  147.1080 N   0  0  0  0  0  2  0  0  0  0  0  0
  186.6290  176.8150  147.1250 C   0  0  1  0  0  3  0  0  0  0  0  0
  187.0100  178.2010  147.6440 C   0  0  0  0  0  2  0  0  0  0  0  0
  186.0690  176.9410  145.7100 C   0  0  0  0  0  2  0  0  0  0  0  0
  185.3020  179.1540  146.1010 C   0  0  0  0  0  2  0  0  0  0  0  0
  185.8220  179.1510  147.5360 C   0  0  0  0  0  2  0  0  0  0  0  0
  184.8890  177.8050  145.7160 N   0  0  0  0  0  0  0  0  0  0  0  0
  184.4570  177.8810  144.4350 O   0  0  0  0  0  1  0  0  0  0  0  0
  2  4  1  0  0  0  0
  3 21  1  0  0  0  0
  4  3  1  0  0  0  0
  4  1  2  0  0  0  0
  5  9  1  1  0  0  0
  5 13  1  0  0  0  0
  6 12  1  0  0  0  0
  6 13  1  0  0  0  0
  6  7  1  0  0  0  0
  8  6  1  0  0  0  0
 10  5  1  0  0  0  0
 11 10  2  0  0  0  0
 11  8  1  0  0  0  0
 12  7  1  0  0  0  0
 13  2  1  1  0  0  0
 16 20  1  0  0  0  0
 17 14  1  0  0  0  0
 17  1  1  1  0  0  0
 17 15  1  0  0  0  0
 18 14  2  0  0  0  0
 19 18  1  0  0  0  0
 19 16  2  0  0  0  0
 20 15  2  0  0  0  0
 22 21  1  6  0  0  0
 22 23  1  0  0  0  0
 24 27  1  0  0  0  0
 24 22  1  0  0  0  0
 25 26  1  0  0  0  0
 26 23  1  0  0  0  0
 27 25  1  0  0  0  0
 28 27  1  0  0  0  0
M  END
>  <MODEL>
4

>  <REMARK>
 VINA RESULT:      -7.1      2.869      7.374
  Name = 
  4 active torsions:
  status: ('A' for Active; 'I' for Inactive)
    1  A    between atoms: N_2  and  C_17
    2  A    between atoms: C_6  and  N_24
    3  A    between atoms: N_8  and  C_26
    4  A    between atoms: N_10  and  N_24
                            x       y       z     vdW  Elec       q    Type
                         _______ _______ _______ _____ _____    ______ ____

>  <TORSDO>
F 4

$$$$
=
 OpenBabel11062423103D

 28 31  0  0  1  0  0  0  0  0999 V2000
  188.4190  175.4360  142.3930 N   0  0  0  0  0  0  0  0  0  0  0  0
  190.0030  175.5370  144.1540 N   0  0  0  0  0  2  0  0  0  0  0  0
  188.1430  177.1600  143.9840 N   0  0  0  0  0  2  0  0  0  0  0  0
  188.8440  176.0250  143.4700 C   0  0  0  0  0  0  0  0  0  0  0  0
  192.0930  176.2320  145.2490 C   0  0  1  0  0  3  0  0  0  0  0  0
  190.1410  175.4740  146.6200 C   0  0  0  0  0  0  0  0  0  0  0  0
  188.6580  175.3380  146.8680 C   0  0  0  0  0  2  0  0  0  0  0  0
  190.9020  175.7750  147.8250 N   0  0  0  0  0  2  0  0  0  0  0  0
  192.5640  177.1370  144.1270 C   0  0  0  0  0  1  0  0  0  0  0  0
  192.7290  176.6760  146.5400 C   0  0  0  0  0  3  0  0  0  0  0  0
  192.1760  176.4220  147.7290 C   0  0  0  0  0  3  0  0  0  0  0  0
  189.5080  174.1010  146.5860 C   0  0  0  0  0  2  0  0  0  0  0  0
  190.5590  176.1970  145.3310 C   0  0  2  0  0  3  0  0  0  0  0  0
  188.5760  174.0680  140.4040 C   0  0  0  0  0  3  0  0  0  0  0  0
  188.8110  173.0770  142.6440 C   0  0  0  0  0  3  0  0  0  0  0  0
  190.1120  171.5620  141.2200 N   0  0  0  0  0  0  0  0  0  0  0  0
  189.0710  174.2760  141.8000 C   0  0  2  0  0  3  0  0  0  0  0  0
  189.0360  173.1010  139.6150 C   0  0  0  0  0  3  0  0  0  0  0  0
  190.0090  172.0680  140.0230 C   0  0  0  0  0  3  0  0  0  0  0  0
  189.3230  171.8740  142.3810 C   0  0  0  0  0  3  0  0  0  0  0  0
  187.0140  177.6760  143.3340 N   0  0  0  0  0  2  0  0  0  0  0  0
  186.2880  178.4680  144.3110 C   0  0  1  0  0  3  0  0  0  0  0  0
  184.7840  178.3550  144.0580 C   0  0  0  0  0  2  0  0  0  0  0  0
  186.6030  177.9590  145.7160 C   0  0  0  0  0  2  0  0  0  0  0  0
  184.4440  178.5310  146.5200 C   0  0  0  0  0  2  0  0  0  0  0  0
  184.0080  179.0690  145.1590 C   0  0  0  0  0  2  0  0  0  0  0  0
  185.8770  178.7500  146.7080 N   0  0  0  0  0  0  0  0  0  0  0  0
  186.1930  178.2370  147.9210 O   0  0  0  0  0  1  0  0  0  0  0  0
  1  4  2  0  0  0  0
  4  3  1  0  0  0  0
  4  2  1  0  0  0  0
  5  9  1  6  0  0  0
  5 13  1  0  0  0  0
  5 10  1  0  0  0  0
  6  7  1  0  0  0  0
  6  8  1  0  0  0  0
 10 11  2  0  0  0  0
 11  8  1  0  0  0  0
 12  6  1  0  0  0  0
 12  7  1  0  0  0  0
 13  2  1  6  0  0  0
 13  6  1  0  0  0  0
 14 17  1  0  0  0  0
 16 20  1  0  0  0  0
 17  1  1  1  0  0  0
 17 15  1  0  0  0  0
 18 19  1  0  0  0  0
 18 14  2  0  0  0  0
 19 16  2  0  0  0  0
 20 15  2  0  0  0  0
 21  3  1  0  0  0  0
 22 21  1  6  0  0  0
 22 24  1  0  0  0  0
 23 22  1  0  0  0  0
 23 26  1  0  0  0  0
 24 27  1  0  0  0  0
 25 27  1  0  0  0  0
 26 25  1  0  0  0  0
 27 28  1  0  0  0  0
M  END
>  <MODEL>
5

>  <REMARK>
 VINA RESULT:      -7.0      2.528      6.619
  Name = 
  4 active torsions:
  status: ('A' for Active; 'I' for Inactive)
    1  A    between atoms: N_2  and  C_17
    2  A    between atoms: C_6  and  N_24
    3  A    between atoms: N_8  and  C_26
    4  A    between atoms: N_10  and  N_24
                            x       y       z     vdW  Elec       q    Type
                         _______ _______ _______ _____ _____    ______ ____

>  <TORSDO>
F 4

$$$$
=
 OpenBabel11062423103D

 28 31  0  0  1  0  0  0  0  0999 V2000
  189.3560  175.3260  142.1100 N   0  0  0  0  0  0  0  0  0  0  0  0
  190.4820  175.5030  144.1890 N   0  0  0  0  0  2  0  0  0  0  0  0
  189.0860  177.3450  143.3050 N   0  0  0  0  0  2  0  0  0  0  0  0
  189.6360  176.0330  143.1630 C   0  0  0  0  0  0  0  0  0  0  0  0
  192.3870  176.1330  145.6120 C   0  0  1  0  0  3  0  0  0  0  0  0
  190.1150  175.8180  146.6120 C   0  0  0  0  0  0  0  0  0  0  0  0
  188.6080  175.8850  146.5460 C   0  0  0  0  0  2  0  0  0  0  0  0
  190.6540  176.2230  147.9030 N   0  0  0  0  0  2  0  0  0  0  0  0
  193.1940  176.7930  144.5100 C   0  0  0  0  0  1  0  0  0  0  0  0
  192.8080  176.7050  146.9390 C   0  0  0  0  0  3  0  0  0  0  0  0
  191.9990  176.7040  148.0020 C   0  0  0  0  0  3  0  0  0  0  0  0
  189.3170  174.5350  146.6230 C   0  0  0  0  0  2  0  0  0  0  0  0
  190.8780  176.2780  145.3610 C   0  0  2  0  0  3  0  0  0  0  0  0
  189.8010  173.6450  140.4290 C   0  0  0  0  0  3  0  0  0  0  0  0
  189.0950  173.0090  142.6990 C   0  0  0  0  0  3  0  0  0  0  0  0
  190.3860  171.0630  141.9460 N   0  0  0  0  0  0  0  0  0  0  0  0
  189.8730  173.9820  141.8830 C   0  0  2  0  0  3  0  0  0  0  0  0
  190.2460  172.4920  139.9350 C   0  0  0  0  0  3  0  0  0  0  0  0
  190.7780  171.3760  140.7420 C   0  0  0  0  0  3  0  0  0  0  0  0
  189.3700  171.7040  142.7370 C   0  0  0  0  0  3  0  0  0  0  0  0
  188.2660  177.9030  142.3150 N   0  0  0  0  0  2  0  0  0  0  0  0
  186.8920  177.6300  142.6990 C   0  0  1  0  0  3  0  0  0  0  0  0
  186.5880  178.2860  144.0460 C   0  0  0  0  0  2  0  0  0  0  0  0
  185.9450  178.1880  141.6390 C   0  0  0  0  0  2  0  0  0  0  0  0
  184.2580  178.6530  143.2440 C   0  0  0  0  0  2  0  0  0  0  0  0
  185.1130  178.1220  144.3920 C   0  0  0  0  0  2  0  0  0  0  0  0
  184.5590  177.9180  142.0160 N   0  0  0  0  0  0  0  0  0  0  0  0
  183.7810  178.4490  141.0440 O   0  0  0  0  0  1  0  0  0  0  0  0
  1  4  2  0  0  0  0
  4  3  1  0  0  0  0
  4  2  1  0  0  0  0
  5  9  1  6  0  0  0
  5 10  1  0  0  0  0
  6 12  1  0  0  0  0
  6  8  1  0  0  0  0
  7  6  1  0  0  0  0
  7 12  1  0  0  0  0
  8 11  1  0  0  0  0
 10 11  2  0  0  0  0
 13  2  1  6  0  0  0
 13  5  1  0  0  0  0
 13  6  1  0  0  0  0
 14 17  1  0  0  0  0
 15 20  2  0  0  0  0
 16 20  1  0  0  0  0
 17  1  1  6  0  0  0
 17 15  1  0  0  0  0
 18 14  2  0  0  0  0
 18 19  1  0  0  0  0
 19 16  2  0  0  0  0
 21  3  1  0  0  0  0
 22 21  1  6  0  0  0
 22 23  1  0  0  0  0
 23 26  1  0  0  0  0
 24 27  1  0  0  0  0
 24 22  1  0  0  0  0
 25 26  1  0  0  0  0
 27 25  1  0  0  0  0
 28 27  1  0  0  0  0
M  END
>  <MODEL>
6

>  <REMARK>
 VINA RESULT:      -6.9      2.583      6.429
  Name = 
  4 active torsions:
  status: ('A' for Active; 'I' for Inactive)
    1  A    between atoms: N_2  and  C_17
    2  A    between atoms: C_6  and  N_24
    3  A    between atoms: N_8  and  C_26
    4  A    between atoms: N_10  and  N_24
                            x       y       z     vdW  Elec       q    Type
                         _______ _______ _______ _____ _____    ______ ____

>  <TORSDO>
F 4

$$$$
=
 OpenBabel11062423103D

 28 31  0  0  1  0  0  0  0  0999 V2000
  188.2030  174.7900  141.2680 N   0  0  0  0  0  0  0  0  0  0  0  0
  189.9240  175.0610  142.8760 N   0  0  0  0  0  2  0  0  0  0  0  0
  187.6350  175.9160  143.2640 N   0  0  0  0  0  2  0  0  0  0  0  0
  188.5770  175.2430  142.4270 C   0  0  0  0  0  0  0  0  0  0  0  0
  191.6440  176.4900  143.9000 C   0  0  1  0  0  3  0  0  0  0  0  0
  190.7850  174.4790  145.1180 C   0  0  0  0  0  0  0  0  0  0  0  0
  189.6910  173.4990  145.4680 C   0  0  0  0  0  2  0  0  0  0  0  0
  191.6220  174.8400  146.2530 N   0  0  0  0  0  2  0  0  0  0  0  0
  191.2760  177.7490  143.1370 C   0  0  0  0  0  1  0  0  0  0  0  0
  192.3340  176.8760  145.1820 C   0  0  0  0  0  3  0  0  0  0  0  0
  192.3420  176.0770  146.2530 C   0  0  0  0  0  3  0  0  0  0  0  0
  190.9050  173.0440  144.6610 C   0  0  0  0  0  2  0  0  0  0  0  0
  190.4120  175.6040  144.1400 C   0  0  2  0  0  3  0  0  0  0  0  0
  188.5560  174.1660  138.9580 C   0  0  0  0  0  3  0  0  0  0  0  0
  189.2540  172.6810  140.7910 C   0  0  0  0  0  3  0  0  0  0  0  0
  190.7930  172.0910  138.9740 N   0  0  0  0  0  0  0  0  0  0  0  0
  189.0960  174.0940  140.3500 C   0  0  2  0  0  3  0  0  0  0  0  0
  189.1940  173.6470  137.9110 C   0  0  0  0  0  3  0  0  0  0  0  0
  190.4470  172.8690  137.9860 C   0  0  0  0  0  3  0  0  0  0  0  0
  190.0540  171.8090  140.1750 C   0  0  0  0  0  3  0  0  0  0  0  0
  186.3120  176.1260  142.8530 N   0  0  0  0  0  2  0  0  0  0  0  0
  185.6760  176.9450  143.8700 C   0  0  1  0  0  3  0  0  0  0  0  0
  186.2520  176.6060  145.2450 C   0  0  0  0  0  2  0  0  0  0  0  0
  185.9280  178.4210  143.5670 C   0  0  0  0  0  2  0  0  0  0  0  0
  185.9410  178.9980  145.8700 C   0  0  0  0  0  2  0  0  0  0  0  0
  185.6930  177.5540  146.3000 C   0  0  0  0  0  2  0  0  0  0  0  0
  185.2920  179.2550  144.5850 N   0  0  0  0  0  0  0  0  0  0  0  0
  185.5660  180.5410  144.2610 O   0  0  0  0  0  1  0  0  0  0  0  0
  1  4  2  0  0  0  0
  4  2  1  0  0  0  0
  4  3  1  0  0  0  0
  5  9  1  1  0  0  0
  5 13  1  0  0  0  0
  5 10  1  0  0  0  0
  6  7  1  0  0  0  0
  6  8  1  0  0  0  0
  8 11  1  0  0  0  0
 10 11  2  0  0  0  0
 12  6  1  0  0  0  0
 12  7  1  0  0  0  0
 13  2  1  6  0  0  0
 13  6  1  0  0  0  0
 14 17  1  0  0  0  0
 16 20  1  0  0  0  0
 17 15  1  0  0  0  0
 17  1  1  1  0  0  0
 18 19  1  0  0  0  0
 18 14  2  0  0  0  0
 19 16  2  0  0  0  0
 20 15  2  0  0  0  0
 21  3  1  0  0  0  0
 22 21  1  6  0  0  0
 22 23  1  0  0  0  0
 23 26  1  0  0  0  0
 24 22  1  0  0  0  0
 24 27  1  0  0  0  0
 25 26  1  0  0  0  0
 27 25  1  0  0  0  0
 28 27  1  0  0  0  0
M  END
>  <MODEL>
7

>  <REMARK>
 VINA RESULT:      -6.9      2.776      6.776
  Name = 
  4 active torsions:
  status: ('A' for Active; 'I' for Inactive)
    1  A    between atoms: N_2  and  C_17
    2  A    between atoms: C_6  and  N_24
    3  A    between atoms: N_8  and  C_26
    4  A    between atoms: N_10  and  N_24
                            x       y       z     vdW  Elec       q    Type
                         _______ _______ _______ _____ _____    ______ ____

>  <TORSDO>
F 4

$$$$
=
 OpenBabel11062423103D

 28 31  0  0  1  0  0  0  0  0999 V2000
  191.5260  174.5070  144.3950 N   0  0  0  0  0  0  0  0  0  0  0  0
  189.7950  176.1180  144.5700 N   0  0  0  0  0  2  0  0  0  0  0  0
  189.3280  173.7700  143.9450 N   0  0  0  0  0  2  0  0  0  0  0  0
  190.2610  174.7910  144.3030 C   0  0  0  0  0  0  0  0  0  0  0  0
  188.2560  177.6040  143.3560 C   0  0  1  0  0  3  0  0  0  0  0  0
  187.8180  177.0160  145.7490 C   0  0  0  0  0  0  0  0  0  0  0  0
  187.8750  176.0650  146.9210 C   0  0  0  0  0  2  0  0  0  0  0  0
  186.5770  177.7760  145.6830 N   0  0  0  0  0  2  0  0  0  0  0  0
  188.5860  177.0750  141.9730 C   0  0  0  0  0  1  0  0  0  0  0  0
  186.8790  178.2130  143.3340 C   0  0  0  0  0  3  0  0  0  0  0  0
  186.1290  178.3160  144.4350 C   0  0  0  0  0  3  0  0  0  0  0  0
  188.7110  177.3440  146.9240 C   0  0  0  0  0  2  0  0  0  0  0  0
  188.3950  176.5040  144.4210 C   0  0  2  0  0  3  0  0  0  0  0  0
  193.7810  175.2550  143.9420 C   0  0  0  0  0  3  0  0  0  0  0  0
  192.8340  175.3900  146.2100 C   0  0  0  0  0  3  0  0  0  0  0  0
  194.4980  177.1920  146.1880 N   0  0  0  0  0  0  0  0  0  0  0  0
  192.5450  175.4860  144.7520 C   0  0  2  0  0  3  0  0  0  0  0  0
  194.8580  176.0320  144.0360 C   0  0  0  0  0  3  0  0  0  0  0  0
  195.0150  177.1470  144.9920 C   0  0  0  0  0  3  0  0  0  0  0  0
  193.6910  176.1960  146.8380 C   0  0  0  0  0  3  0  0  0  0  0  0
  189.7490  172.4630  143.6630 N   0  0  0  0  0  2  0  0  0  0  0  0
  189.4600  172.2190  142.2600 C   0  0  1  0  0  3  0  0  0  0  0  0
  188.4090  173.2130  141.7660 C   0  0  0  0  0  2  0  0  0  0  0  0
  190.7370  172.3840  141.4400 C   0  0  0  0  0  2  0  0  0  0  0  0
  189.5420  173.1750  139.5470 C   0  0  0  0  0  2  0  0  0  0  0  0
  188.1990  173.0560  140.2640 C   0  0  0  0  0  2  0  0  0  0  0  0
  190.4580  172.1410  140.0260 N   0  0  0  0  0  0  0  0  0  0  0  0
  191.6250  172.3160  139.3630 O   0  0  0  0  0  1  0  0  0  0  0  0
  3  4  1  0  0  0  0
  4  1  2  0  0  0  0
  4  2  1  0  0  0  0
  5  9  1  6  0  0  0
  5 13  1  0  0  0  0
  6  7  1  0  0  0  0
  6 12  1  0  0  0  0
  7 12  1  0  0  0  0
  8  6  1  0  0  0  0
 10  5  1  0  0  0  0
 10 11  2  0  0  0  0
 11  8  1  0  0  0  0
 13  2  1  1  0  0  0
 13  6  1  0  0  0  0
 14 18  2  0  0  0  0
 14 17  1  0  0  0  0
 15 20  2  0  0  0  0
 16 20  1  0  0  0  0
 17  1  1  6  0  0  0
 17 15  1  0  0  0  0
 18 19  1  0  0  0  0
 19 16  2  0  0  0  0
 21  3  1  0  0  0  0
 22 21  1  1  0  0  0
 23 22  1  0  0  0  0
 24 22  1  0  0  0  0
 25 27  1  0  0  0  0
 25 26  1  0  0  0  0
 26 23  1  0  0  0  0
 27 24  1  0  0  0  0
 28 27  1  0  0  0  0
M  END
>  <MODEL>
8

>  <REMARK>
 VINA RESULT:      -6.7      2.027      5.809
  Name = 
  4 active torsions:
  status: ('A' for Active; 'I' for Inactive)
    1  A    between atoms: N_2  and  C_17
    2  A    between atoms: C_6  and  N_24
    3  A    between atoms: N_8  and  C_26
    4  A    between atoms: N_10  and  N_24
                            x       y       z     vdW  Elec       q    Type
                         _______ _______ _______ _____ _____    ______ ____

>  <TORSDO>
F 4

$$$$
=
 OpenBabel11062423103D

 28 31  0  0  1  0  0  0  0  0999 V2000
  189.3920  175.9380  143.0770 N   0  0  0  0  0  0  0  0  0  0  0  0
  187.2990  176.6930  143.8970 N   0  0  0  0  0  2  0  0  0  0  0  0
  189.3980  177.9170  144.3650 N   0  0  0  0  0  2  0  0  0  0  0  0
  188.7190  176.8150  143.7590 C   0  0  0  0  0  0  0  0  0  0  0  0
  185.8670  176.8750  145.8880 C   0  0  1  0  0  3  0  0  0  0  0  0
  185.3960  178.2690  143.8640 C   0  0  0  0  0  0  0  0  0  0  0  0
  185.8380  179.0410  142.6440 C   0  0  0  0  0  2  0  0  0  0  0  0
  184.3080  178.9100  144.5890 N   0  0  0  0  0  0  0  0  0  0  0  0
  186.9190  176.4160  146.8800 C   0  0  0  0  0  1  0  0  0  0  0  0
  184.8450  177.7140  146.6090 C   0  0  0  0  0  2  0  0  0  0  0  0
  184.1050  178.6300  145.9780 C   0  0  0  0  0  3  0  0  0  0  0  0
  185.0360  177.7510  142.4900 C   0  0  0  0  0  2  0  0  0  0  0  0
  186.5050  177.6160  144.7020 C   0  0  2  0  0  3  0  0  0  0  0  0
  189.3200  173.5200  143.0190 C   0  0  0  0  0  3  0  0  0  0  0  0
  189.0440  174.8450  140.9640 C   0  0  0  0  0  3  0  0  0  0  0  0
  187.8170  172.7790  140.4700 N   0  0  0  0  0  0  0  0  0  0  0  0
  188.7820  174.7840  142.4280 C   0  0  2  0  0  3  0  0  0  0  0  0
  188.9030  172.3150  142.6400 C   0  0  0  0  0  3  0  0  0  0  0  0
  187.9430  172.0570  141.5480 C   0  0  0  0  0  3  0  0  0  0  0  0
  188.5660  173.9490  140.0990 C   0  0  0  0  0  3  0  0  0  0  0  0
  190.7880  178.0620  144.2640 N   0  0  0  0  0  2  0  0  0  0  0  0
  191.3600  177.5340  145.4910 C   0  0  1  0  0  3  0  0  0  0  0  0
  190.2430  177.1650  146.4670 C   0  0  0  0  0  2  0  0  0  0  0  0
  192.1860  176.2900  145.1740 C   0  0  0  0  0  2  0  0  0  0  0  0
  191.6800  175.2950  147.2700 C   0  0  0  0  0  2  0  0  0  0  0  0
  190.8230  176.4830  147.7010 C   0  0  0  0  0  2  0  0  0  0  0  0
  192.7660  175.7490  146.4030 N   0  0  0  0  0  0  0  0  0  0  0  0
  193.4690  174.6480  146.0490 O   0  0  0  0  0  1  0  0  0  0  0  0
  1  4  2  0  0  0  0
  4  2  1  0  0  0  0
  4  3  1  0  0  0  0
  5 10  1  0  0  0  0
  5  9  1  1  0  0  0
  6  8  1  0  0  0  0
  6 13  1  0  0  0  0
  7  6  1  0  0  0  0
  8 11  2  0  0  0  0
 11 10  1  0  0  0  0
 12  7  1  0  0  0  0
 12  6  1  0  0  0  0
 13  2  1  6  0  0  0
 13  5  1  0  0  0  0
 15 17  1  0  0  0  0
 16 19  2  0  0  0  0
 17 14  1  0  0  0  0
 17  1  1  1  0  0  0
 18 14  2  0  0  0  0
 19 18  1  0  0  0  0
 20 16  1  0  0  0  0
 20 15  2  0  0  0  0
 21  3  1  0  0  0  0
 22 21  1  6  0  0  0
 22 23  1  0  0  0  0
 23 26  1  0  0  0  0
 24 22  1  0  0  0  0
 24 27  1  0  0  0  0
 25 26  1  0  0  0  0
 27 25  1  0  0  0  0
 28 27  1  0  0  0  0
M  END
>  <MODEL>
9

>  <REMARK>
 VINA RESULT:      -6.7      2.064      6.173
  Name = 
  4 active torsions:
  status: ('A' for Active; 'I' for Inactive)
    1  A    between atoms: N_2  and  C_17
    2  A    between atoms: C_6  and  N_24
    3  A    between atoms: N_8  and  C_26
    4  A    between atoms: N_10  and  N_24
                            x       y       z     vdW  Elec       q    Type
                         _______ _______ _______ _____ _____    ______ ____

>  <TORSDO>
F 4

$$$$
