=
 OpenBabel11072408503D

 26 29  0  0  1  0  0  0  0  0999 V2000
  185.9300  178.0250  148.7110 F   0  0  0  0  0  0  0  0  0  0  0  0
  183.9910  178.3150  141.0980 C   0  0  0  0  0  3  0  0  0  0  0  0
  183.9520  178.3400  142.6050 C   0  0  0  0  0  3  0  0  0  0  0  0
  186.8300  177.8280  146.5500 N   0  0  0  0  0  0  0  0  0  0  0  0
  185.7650  178.0420  147.3670 C   0  0  0  0  0  0  0  0  0  0  0  0
  186.4860  177.8490  142.4070 C   0  0  1  0  0  3  0  0  0  0  0  0
  185.1100  178.0920  140.4050 C   0  0  0  0  0  3  0  0  0  0  0  0
  184.3540  178.2940  145.4390 C   0  0  0  0  0  3  0  0  0  0  0  0
  187.8220  177.6130  144.4230 C   0  0  0  0  0  0  0  0  0  0  0  0
  185.2990  178.0870  143.2520 C   0  0  0  0  0  0  0  0  0  0  0  0
  185.4530  178.0720  144.5940 C   0  0  0  0  0  0  0  0  0  0  0  0
  187.7120  177.6200  143.0270 O   0  0  0  0  0  0  0  0  0  0  0  0
  184.5060  178.2800  146.8240 C   0  0  0  0  0  3  0  0  0  0  0  0
  186.3960  177.8510  141.0780 C   0  0  0  0  0  3  0  0  0  0  0  0
  186.7240  177.8340  145.1910 C   0  0  0  0  0  0  0  0  0  0  0  0
  191.0030  175.4790  144.7730 C   0  0  2  0  0  3  0  0  0  0  0  0
  189.1890  177.3620  144.9980 C   0  0  2  0  0  3  0  0  0  0  0  0
  190.3030  177.7020  144.0280 C   0  0  0  0  0  2  0  0  0  0  0  0
  189.3890  175.6490  145.5960 S   0  0  0  0  0  0  0  0  0  0  0  0
  192.4750  176.8890  143.4610 O   0  0  0  0  0  1  0  0  0  0  0  0
  191.4970  176.8870  144.4580 C   0  0  2  0  0  3  0  0  0  0  0  0
  190.6530  171.1140  142.2560 C   0  0  0  0  0  1  0  0  0  0  0  0
  190.6770  172.5650  142.3220 N   0  0  0  0  0  2  0  0  0  0  0  0
  190.8280  174.6900  143.5580 N   0  0  0  0  0  2  0  0  0  0  0  0
  190.8110  173.2620  143.5600 C   0  0  0  0  0  0  0  0  0  0  0  0
  190.9110  172.6260  144.6440 O   0  0  0  0  0  0  0  0  0  0  0  0
  2  3  2  0  0  0  0
  3 10  1  0  0  0  0
  4  5  2  0  0  0  0
  5  1  1  0  0  0  0
  6 14  1  1  0  0  0
  6 12  1  0  0  0  0
  6 10  1  0  0  0  0
  7 14  2  0  0  0  0
  7  2  1  0  0  0  0
  8 13  2  0  0  0  0
  9 15  2  0  0  0  0
 10 11  2  0  0  0  0
 11 15  1  0  0  0  0
 11  8  1  0  0  0  0
 12  9  1  0  0  0  0
 13  5  1  0  0  0  0
 15  4  1  0  0  0  0
 16 24  1  6  0  0  0
 16 19  1  0  0  0  0
 17  9  1  6  0  0  0
 17 19  1  0  0  0  0
 18 21  1  0  0  0  0
 18 17  1  0  0  0  0
 21 20  1  6  0  0  0
 21 16  1  0  0  0  0
 22 23  1  0  0  0  0
 23 25  1  0  0  0  0
 24 25  1  0  0  0  0
 25 26  2  0  0  0  0
M  END
>  <MODEL>
1

>  <REMARK>
 VINA RESULT:      -8.2      0.000      0.000
  Name = 
  2 active torsions:
  status: ('A' for Active; 'I' for Inactive)
    1  A    between atoms: C_8  and  N_10
    2  A    between atoms: C_12  and  C_14
                            x       y       z     vdW  Elec       q    Type
                         _______ _______ _______ _____ _____    ______ ____

>  <TORSDO>
F 2

$$$$
=
 OpenBabel11072408503D

 26 29  0  0  1  0  0  0  0  0999 V2000
  184.4390  178.2900  148.0920 F   0  0  0  0  0  0  0  0  0  0  0  0
  185.9330  177.9130  140.3840 C   0  0  0  0  0  3  0  0  0  0  0  0
  185.3110  178.2020  141.7260 C   0  0  0  0  0  2  0  0  0  0  0  0
  185.9810  177.4500  146.5320 N   0  0  0  0  0  0  0  0  0  0  0  0
  184.8400  178.1340  146.8080 C   0  0  0  0  0  0  0  0  0  0  0  0
  187.3420  176.8850  142.6440 C   0  0  0  0  0  0  0  0  0  0  0  0
  187.0680  177.2230  140.2420 C   0  0  0  0  0  3  0  0  0  0  0  0
  184.5090  178.5040  144.4570 C   0  0  0  0  0  3  0  0  0  0  0  0
  187.5800  176.5680  145.0420 C   0  0  0  0  0  0  0  0  0  0  0  0
  186.0950  177.6360  142.8930 C   0  0  0  0  0  0  0  0  0  0  0  0
  185.6880  177.7970  144.1710 C   0  0  0  0  0  0  0  0  0  0  0  0
  188.0440  176.3750  143.7350 O   0  0  0  0  0  0  0  0  0  0  0  0
  184.0830  178.6740  145.7730 C   0  0  0  0  0  3  0  0  0  0  0  0
  187.7940  176.6920  141.4060 C   0  0  0  0  0  3  0  0  0  0  0  0
  186.4330  177.2610  145.2590 C   0  0  0  0  0  0  0  0  0  0  0  0
  190.9280  175.3110  146.4590 C   0  0  2  0  0  3  0  0  0  0  0  0
  188.4110  175.9840  146.1520 C   0  0  2  0  0  3  0  0  0  0  0  0
  189.2360  177.0290  146.8750 C   0  0  0  0  0  2  0  0  0  0  0  0
  189.4900  174.6290  145.5770 S   0  0  0  0  0  0  0  0  0  0  0  0
  191.3750  177.1880  147.9250 O   0  0  0  0  0  1  0  0  0  0  0  0
  190.3940  176.2900  147.4990 C   0  0  2  0  0  3  0  0  0  0  0  0
  195.3990  176.1630  144.2680 C   0  0  0  0  0  1  0  0  0  0  0  0
  193.9780  176.4120  144.4360 N   0  0  0  0  0  2  0  0  0  0  0  0
  191.7960  175.9780  145.4940 N   0  0  0  0  0  2  0  0  0  0  0  0
  193.1890  175.6850  145.3770 C   0  0  0  0  0  0  0  0  0  0  0  0
  193.7150  174.7910  146.0960 O   0  0  0  0  0  0  0  0  0  0  0  0
  2  3  1  0  0  0  0
  3 10  1  0  0  0  0
  4  5  2  0  0  0  0
  5  1  1  0  0  0  0
  6 10  1  0  0  0  0
  6 12  1  0  0  0  0
  7  2  2  0  0  0  0
  7 14  1  0  0  0  0
  8 13  2  0  0  0  0
  9 15  2  0  0  0  0
 10 11  2  0  0  0  0
 11  8  1  0  0  0  0
 11 15  1  0  0  0  0
 12  9  1  0  0  0  0
 13  5  1  0  0  0  0
 14  6  2  0  0  0  0
 15  4  1  0  0  0  0
 16 24  1  6  0  0  0
 16 21  1  0  0  0  0
 17  9  1  6  0  0  0
 17 18  1  0  0  0  0
 18 21  1  0  0  0  0
 19 17  1  0  0  0  0
 19 16  1  0  0  0  0
 21 20  1  6  0  0  0
 22 23  1  0  0  0  0
 23 25  1  0  0  0  0
 25 24  1  0  0  0  0
 25 26  2  0  0  0  0
M  END
>  <MODEL>
2

>  <REMARK>
 VINA RESULT:      -8.1      2.354      2.752
  Name = 
  2 active torsions:
  status: ('A' for Active; 'I' for Inactive)
    1  A    between atoms: C_8  and  N_10
    2  A    between atoms: C_12  and  C_14
                            x       y       z     vdW  Elec       q    Type
                         _______ _______ _______ _____ _____    ______ ____

>  <TORSDO>
F 2

$$$$
=
 OpenBabel11072408503D

 26 29  0  0  1  0  0  0  0  0999 V2000
  184.5900  177.8530  139.6780 F   0  0  0  0  0  0  0  0  0  0  0  0
  184.7240  178.4180  147.5180 C   0  0  0  0  0  3  0  0  0  0  0  0
  184.3110  178.4650  146.0690 C   0  0  0  0  0  3  0  0  0  0  0  0
  185.9540  177.4660  141.5510 N   0  0  0  0  0  0  0  0  0  0  0  0
  184.7760  177.8850  141.0190 C   0  0  0  0  0  0  0  0  0  0  0  0
  186.6770  177.5050  145.6450 C   0  0  1  0  0  3  0  0  0  0  0  0
  185.9210  177.9800  147.9170 C   0  0  0  0  0  3  0  0  0  0  0  0
  183.9690  178.3750  143.2280 C   0  0  0  0  0  3  0  0  0  0  0  0
  187.3940  177.0460  143.3690 C   0  0  0  0  0  0  0  0  0  0  0  0
  185.3800  177.9710  145.1150 C   0  0  0  0  0  0  0  0  0  0  0  0
  185.1850  177.9430  143.7790 C   0  0  0  0  0  0  0  0  0  0  0  0
  187.6430  177.0560  144.7470 O   0  0  0  0  0  0  0  0  0  0  0  0
  183.7610  178.3480  141.8510 C   0  0  0  0  0  3  0  0  0  0  0  0
  186.9280  177.5110  146.9530 C   0  0  0  0  0  3  0  0  0  0  0  0
  186.1980  177.4760  142.8930 C   0  0  0  0  0  0  0  0  0  0  0  0
  191.0670  176.0820  142.7530 C   0  0  2  0  0  3  0  0  0  0  0  0
  188.4980  176.5380  142.4810 C   0  0  2  0  0  3  0  0  0  0  0  0
  188.8330  175.0830  142.7400 C   0  0  0  0  0  2  0  0  0  0  0  0
  190.0090  177.5550  142.5970 S   0  0  0  0  0  0  0  0  0  0  0  0
  190.7630  173.6780  142.7340 O   0  0  0  0  0  1  0  0  0  0  0  0
  190.2520  174.8900  142.2650 C   0  0  2  0  0  3  0  0  0  0  0  0
  194.4530  175.9620  146.5000 C   0  0  0  0  0  1  0  0  0  0  0  0
  193.1010  175.8490  145.9810 N   0  0  0  0  0  2  0  0  0  0  0  0
  191.4520  175.9290  144.1530 N   0  0  0  0  0  2  0  0  0  0  0  0
  192.8020  176.0550  144.6010 C   0  0  0  0  0  0  0  0  0  0  0  0
  193.7190  176.3490  143.7850 O   0  0  0  0  0  0  0  0  0  0  0  0
  1  5  1  0  0  0  0
  2  7  1  0  0  0  0
  3  2  2  0  0  0  0
  4 15  1  0  0  0  0
  5  4  2  0  0  0  0
  5 13  1  0  0  0  0
  6 14  1  6  0  0  0
  8 11  1  0  0  0  0
  9 12  1  0  0  0  0
 10  6  1  0  0  0  0
 10  3  1  0  0  0  0
 11 10  2  0  0  0  0
 12  6  1  0  0  0  0
 13  8  2  0  0  0  0
 14  7  2  0  0  0  0
 15  9  2  0  0  0  0
 15 11  1  0  0  0  0
 16 24  1  1  0  0  0
 17 19  1  0  0  0  0
 17 18  1  0  0  0  0
 17  9  1  1  0  0  0
 19 16  1  0  0  0  0
 21 20  1  1  0  0  0
 21 18  1  0  0  0  0
 21 16  1  0  0  0  0
 23 22  1  0  0  0  0
 24 25  1  0  0  0  0
 25 23  1  0  0  0  0
 26 25  2  0  0  0  0
M  END
>  <MODEL>
3

>  <REMARK>
 VINA RESULT:      -8.1      2.733      4.539
  Name = 
  2 active torsions:
  status: ('A' for Active; 'I' for Inactive)
    1  A    between atoms: C_8  and  N_10
    2  A    between atoms: C_12  and  C_14
                            x       y       z     vdW  Elec       q    Type
                         _______ _______ _______ _____ _____    ______ ____

>  <TORSDO>
F 2

$$$$
=
 OpenBabel11072408503D

 26 29  0  0  1  0  0  0  0  0999 V2000
  186.4830  177.2780  138.9760 F   0  0  0  0  0  0  0  0  0  0  0  0
  184.6480  178.4890  146.5220 C   0  0  0  0  0  3  0  0  0  0  0  0
  184.6750  178.5180  145.0160 C   0  0  0  0  0  2  0  0  0  0  0  0
  187.1150  176.6990  141.1620 N   0  0  0  0  0  0  0  0  0  0  0  0
  186.3000  177.3780  140.3130 C   0  0  0  0  0  0  0  0  0  0  0  0
  186.6810  176.9060  145.2920 C   0  0  0  0  0  0  0  0  0  0  0  0
  185.5110  177.7750  147.2500 C   0  0  0  0  0  3  0  0  0  0  0  0
  185.1040  178.2700  142.1960 C   0  0  0  0  0  3  0  0  0  0  0  0
  187.8210  176.0620  143.3190 C   0  0  0  0  0  0  0  0  0  0  0  0
  185.7700  177.6630  144.4110 C   0  0  0  0  0  0  0  0  0  0  0  0
  185.9450  177.5690  143.0750 C   0  0  0  0  0  0  0  0  0  0  0  0
  187.6800  176.1270  144.7110 O   0  0  0  0  0  0  0  0  0  0  0  0
  185.2780  178.1770  140.8170 C   0  0  0  0  0  3  0  0  0  0  0  0
  186.5590  176.9600  146.6170 C   0  0  0  0  0  3  0  0  0  0  0  0
  186.9780  176.7620  142.5180 C   0  0  0  0  0  0  0  0  0  0  0  0
  191.4380  174.7540  143.4060 C   0  0  2  0  0  3  0  0  0  0  0  0
  188.9260  175.1900  142.7870 C   0  0  2  0  0  3  0  0  0  0  0  0
  189.1390  173.9430  143.6210 C   0  0  0  0  0  2  0  0  0  0  0  0
  190.5020  176.0940  142.6060 S   0  0  0  0  0  0  0  0  0  0  0  0
  190.9570  172.5580  144.3100 O   0  0  0  0  0  1  0  0  0  0  0  0
  190.5610  173.5080  143.3670 C   0  0  2  0  0  3  0  0  0  0  0  0
  194.1920  177.1650  146.8880 C   0  0  0  0  0  1  0  0  0  0  0  0
  193.0930  176.3070  146.4820 N   0  0  0  0  0  2  0  0  0  0  0  0
  191.7410  175.1500  144.7780 N   0  0  0  0  0  2  0  0  0  0  0  0
  192.8390  176.0010  145.1110 C   0  0  0  0  0  0  0  0  0  0  0  0
  193.5730  176.4790  144.2040 O   0  0  0  0  0  0  0  0  0  0  0  0
  1  5  1  0  0  0  0
  2  7  2  0  0  0  0
  3  2  1  0  0  0  0
  4 15  1  0  0  0  0
  5 13  1  0  0  0  0
  5  4  2  0  0  0  0
  6 14  2  0  0  0  0
  8 11  1  0  0  0  0
  9 12  1  0  0  0  0
 10  3  1  0  0  0  0
 10  6  1  0  0  0  0
 11 10  2  0  0  0  0
 12  6  1  0  0  0  0
 13  8  2  0  0  0  0
 14  7  1  0  0  0  0
 15 11  1  0  0  0  0
 15  9  2  0  0  0  0
 16 24  1  1  0  0  0
 17  9  1  1  0  0  0
 17 18  1  0  0  0  0
 19 17  1  0  0  0  0
 19 16  1  0  0  0  0
 21 16  1  0  0  0  0
 21 18  1  0  0  0  0
 21 20  1  1  0  0  0
 23 22  1  0  0  0  0
 24 25  1  0  0  0  0
 25 23  1  0  0  0  0
 26 25  2  0  0  0  0
M  END
>  <MODEL>
4

>  <REMARK>
 VINA RESULT:      -7.9      2.763      4.763
  Name = 
  2 active torsions:
  status: ('A' for Active; 'I' for Inactive)
    1  A    between atoms: C_8  and  N_10
    2  A    between atoms: C_12  and  C_14
                            x       y       z     vdW  Elec       q    Type
                         _______ _______ _______ _____ _____    ______ ____

>  <TORSDO>
F 2

$$$$
=
 OpenBabel11072408503D

 26 29  0  0  1  0  0  0  0  0999 V2000
  186.3190  178.5260  148.7640 F   0  0  0  0  0  0  0  0  0  0  0  0
  185.8980  178.2910  140.9180 C   0  0  0  0  0  3  0  0  0  0  0  0
  185.6490  178.5940  142.3730 C   0  0  0  0  0  2  0  0  0  0  0  0
  187.3370  177.5790  146.8710 N   0  0  0  0  0  0  0  0  0  0  0  0
  186.3850  178.3770  147.4200 C   0  0  0  0  0  0  0  0  0  0  0  0
  187.6670  177.0200  142.7650 C   0  0  0  0  0  0  0  0  0  0  0  0
  186.8760  177.4830  140.5010 C   0  0  0  0  0  3  0  0  0  0  0  0
  185.5560  178.8760  145.2210 C   0  0  0  0  0  3  0  0  0  0  0  0
  188.4230  176.5820  145.0320 C   0  0  0  0  0  0  0  0  0  0  0  0
  186.6130  177.8970  143.3130 C   0  0  0  0  0  0  0  0  0  0  0  0
  186.5400  178.0520  144.6530 C   0  0  0  0  0  0  0  0  0  0  0  0
  188.5390  176.3900  143.6500 O   0  0  0  0  0  0  0  0  0  0  0  0
  185.4760  179.0410  146.6020 C   0  0  0  0  0  3  0  0  0  0  0  0
  187.7870  176.8270  141.4520 C   0  0  0  0  0  3  0  0  0  0  0  0
  187.4510  177.3910  145.5250 C   0  0  0  0  0  0  0  0  0  0  0  0
  191.8570  174.9480  145.6110 C   0  0  2  0  0  3  0  0  0  0  0  0
  189.4160  175.8640  145.9050 C   0  0  2  0  0  3  0  0  0  0  0  0
  190.4830  176.7870  146.4580 C   0  0  0  0  0  2  0  0  0  0  0  0
  190.1980  174.4510  145.0540 S   0  0  0  0  0  0  0  0  0  0  0  0
  192.8060  176.6910  147.0010 O   0  0  0  0  0  1  0  0  0  0  0  0
  191.6690  175.9120  146.7780 C   0  0  2  0  0  3  0  0  0  0  0  0
  195.9430  175.8400  142.7780 C   0  0  0  0  0  1  0  0  0  0  0  0
  194.5470  176.0410  143.1250 N   0  0  0  0  0  2  0  0  0  0  0  0
  192.5530  175.5860  144.4980 N   0  0  0  0  0  2  0  0  0  0  0  0
  193.9300  175.3440  144.2070 C   0  0  0  0  0  0  0  0  0  0  0  0
  194.5910  174.5210  144.8970 O   0  0  0  0  0  0  0  0  0  0  0  0
  2  3  1  0  0  0  0
  3 10  1  0  0  0  0
  4  5  2  0  0  0  0
  5  1  1  0  0  0  0
  6 10  1  0  0  0  0
  6 12  1  0  0  0  0
  7  2  2  0  0  0  0
  7 14  1  0  0  0  0
  8 13  2  0  0  0  0
  9 15  2  0  0  0  0
 10 11  2  0  0  0  0
 11  8  1  0  0  0  0
 11 15  1  0  0  0  0
 12  9  1  0  0  0  0
 13  5  1  0  0  0  0
 14  6  2  0  0  0  0
 15  4  1  0  0  0  0
 16 24  1  6  0  0  0
 16 21  1  0  0  0  0
 17  9  1  6  0  0  0
 17 18  1  0  0  0  0
 18 21  1  0  0  0  0
 19 16  1  0  0  0  0
 19 17  1  0  0  0  0
 21 20  1  6  0  0  0
 22 23  1  0  0  0  0
 23 25  1  0  0  0  0
 25 24  1  0  0  0  0
 25 26  2  0  0  0  0
M  END
>  <MODEL>
5

>  <REMARK>
 VINA RESULT:      -7.6      2.177      2.602
  Name = 
  2 active torsions:
  status: ('A' for Active; 'I' for Inactive)
    1  A    between atoms: C_8  and  N_10
    2  A    between atoms: C_12  and  C_14
                            x       y       z     vdW  Elec       q    Type
                         _______ _______ _______ _____ _____    ______ ____

>  <TORSDO>
F 2

$$$$
=
 OpenBabel11072408503D

 26 29  0  0  1  0  0  0  0  0999 V2000
  191.0990  177.0170  142.3810 F   0  0  0  0  0  0  0  0  0  0  0  0
  183.9180  179.0390  144.8580 C   0  0  0  0  0  3  0  0  0  0  0  0
  185.1540  178.8200  144.0240 C   0  0  0  0  0  2  0  0  0  0  0  0
  189.6950  176.9690  144.2640 N   0  0  0  0  0  0  0  0  0  0  0  0
  189.9090  177.2970  142.9630 C   0  0  0  0  0  0  0  0  0  0  0  0
  186.0980  177.7630  146.1900 C   0  0  0  0  0  0  0  0  0  0  0  0
  183.8300  178.6670  146.1380 C   0  0  0  0  0  3  0  0  0  0  0  0
  187.6870  178.2040  142.8420 C   0  0  0  0  0  3  0  0  0  0  0  0
  188.3600  176.8760  146.2040 C   0  0  0  0  0  0  0  0  0  0  0  0
  186.2810  178.1410  144.7740 C   0  0  0  0  0  0  0  0  0  0  0  0
  187.4660  177.8650  144.1860 C   0  0  0  0  0  0  0  0  0  0  0  0
  187.1500  177.1400  146.8580 O   0  0  0  0  0  0  0  0  0  0  0  0
  188.9060  177.9220  142.2280 C   0  0  0  0  0  3  0  0  0  0  0  0
  184.9530  178.0110  146.8250 C   0  0  0  0  0  3  0  0  0  0  0  0
  188.5180  177.2260  144.9020 C   0  0  0  0  0  0  0  0  0  0  0  0
  191.6600  174.9160  146.4640 C   0  0  2  0  0  3  0  0  0  0  0  0
  189.4340  176.1940  147.0070 C   0  0  2  0  0  3  0  0  0  0  0  0
  190.6780  177.0460  147.1610 C   0  0  0  0  0  2  0  0  0  0  0  0
  189.8800  174.5590  146.3290 S   0  0  0  0  0  0  0  0  0  0  0  0
  193.0410  176.7310  147.2800 O   0  0  0  0  0  1  0  0  0  0  0  0
  191.8120  176.0870  147.4280 C   0  0  2  0  0  3  0  0  0  0  0  0
  195.0590  174.5760  142.7430 C   0  0  0  0  0  1  0  0  0  0  0  0
  193.8370  175.1000  143.3280 N   0  0  0  0  0  2  0  0  0  0  0  0
  192.1720  175.2460  145.1380 N   0  0  0  0  0  2  0  0  0  0  0  0
  193.3830  174.6930  144.6180 C   0  0  0  0  0  0  0  0  0  0  0  0
  194.0400  173.8530  145.2920 O   0  0  0  0  0  0  0  0  0  0  0  0
  1  5  1  0  0  0  0
  2  7  2  0  0  0  0
  3 10  1  0  0  0  0
  3  2  1  0  0  0  0
  4 15  1  0  0  0  0
  5  4  2  0  0  0  0
  6 14  2  0  0  0  0
  6 12  1  0  0  0  0
  7 14  1  0  0  0  0
  8 11  1  0  0  0  0
  9 12  1  0  0  0  0
 10  6  1  0  0  0  0
 11 10  2  0  0  0  0
 11 15  1  0  0  0  0
 13  8  2  0  0  0  0
 13  5  1  0  0  0  0
 15  9  2  0  0  0  0
 16 24  1  6  0  0  0
 16 21  1  0  0  0  0
 17  9  1  6  0  0  0
 17 18  1  0  0  0  0
 18 21  1  0  0  0  0
 19 16  1  0  0  0  0
 19 17  1  0  0  0  0
 21 20  1  6  0  0  0
 22 23  1  0  0  0  0
 23 25  1  0  0  0  0
 25 24  1  0  0  0  0
 25 26  2  0  0  0  0
M  END
>  <MODEL>
6

>  <REMARK>
 VINA RESULT:      -7.3      2.985      4.076
  Name = 
  2 active torsions:
  status: ('A' for Active; 'I' for Inactive)
    1  A    between atoms: C_8  and  N_10
    2  A    between atoms: C_12  and  C_14
                            x       y       z     vdW  Elec       q    Type
                         _______ _______ _______ _____ _____    ______ ____

>  <TORSDO>
F 2

$$$$
=
 OpenBabel11072408503D

 26 29  0  0  1  0  0  0  0  0999 V2000
  190.6530  174.2710  146.8360 F   0  0  0  0  0  0  0  0  0  0  0  0
  184.2100  178.6660  145.8560 C   0  0  0  0  0  3  0  0  0  0  0  0
  185.2670  177.7500  146.4190 C   0  0  0  0  0  3  0  0  0  0  0  0
  189.5740  175.6760  145.2950 N   0  0  0  0  0  0  0  0  0  0  0  0
  189.6080  175.0660  146.5090 C   0  0  0  0  0  0  0  0  0  0  0  0
  186.4340  178.1450  144.1420 C   0  0  2  0  0  3  0  0  0  0  0  0
  184.2920  179.2070  144.6380 C   0  0  0  0  0  3  0  0  0  0  0  0
  187.5010  176.0790  147.0620 C   0  0  0  0  0  3  0  0  0  0  0  0
  188.5650  177.0700  143.6850 C   0  0  0  0  0  0  0  0  0  0  0  0
  186.4250  177.5050  145.4730 C   0  0  0  0  0  0  0  0  0  0  0  0
  187.4640  176.7100  145.8080 C   0  0  0  0  0  0  0  0  0  0  0  0
  187.5110  177.9040  143.2910 O   0  0  0  0  0  0  0  0  0  0  0  0
  188.5700  175.2580  147.4150 C   0  0  0  0  0  3  0  0  0  0  0  0
  185.4370  178.9390  143.7540 C   0  0  0  0  0  3  0  0  0  0  0  0
  188.5470  176.4870  144.9100 C   0  0  0  0  0  0  0  0  0  0  0  0
  192.2610  176.4020  142.8510 C   0  0  2  0  0  3  0  0  0  0  0  0
  189.6840  176.8760  142.6980 C   0  0  2  0  0  3  0  0  0  0  0  0
  190.0470  175.4170  142.5070 C   0  0  0  0  0  2  0  0  0  0  0  0
  191.1750  177.8340  143.1380 S   0  0  0  0  0  0  0  0  0  0  0  0
  192.0050  174.1130  142.0970 O   0  0  0  0  0  1  0  0  0  0  0  0
  191.4720  175.4010  142.0130 C   0  0  2  0  0  3  0  0  0  0  0  0
  195.6150  174.5410  146.1380 C   0  0  0  0  0  1  0  0  0  0  0  0
  194.2670  174.9090  145.7410 N   0  0  0  0  0  2  0  0  0  0  0  0
  192.6390  175.8360  144.1420 N   0  0  0  0  0  2  0  0  0  0  0  0
  193.9860  175.4970  144.4720 C   0  0  0  0  0  0  0  0  0  0  0  0
  194.9180  175.7200  143.6510 O   0  0  0  0  0  0  0  0  0  0  0  0
  2  3  2  0  0  0  0
  4  5  2  0  0  0  0
  5  1  1  0  0  0  0
  5 13  1  0  0  0  0
  6 14  1  1  0  0  0
  6 10  1  0  0  0  0
  7  2  1  0  0  0  0
  8 13  2  0  0  0  0
  9 15  2  0  0  0  0
 10 11  2  0  0  0  0
 10  3  1  0  0  0  0
 11  8  1  0  0  0  0
 12  9  1  0  0  0  0
 12  6  1  0  0  0  0
 14  7  2  0  0  0  0
 15  4  1  0  0  0  0
 15 11  1  0  0  0  0
 16 19  1  0  0  0  0
 16 24  1  1  0  0  0
 17 19  1  0  0  0  0
 17  9  1  1  0  0  0
 18 17  1  0  0  0  0
 21 20  1  1  0  0  0
 21 18  1  0  0  0  0
 21 16  1  0  0  0  0
 23 22  1  0  0  0  0
 24 25  1  0  0  0  0
 25 23  1  0  0  0  0
 26 25  2  0  0  0  0
M  END
>  <MODEL>
7

>  <REMARK>
 VINA RESULT:      -7.2      2.703      3.894
  Name = 
  2 active torsions:
  status: ('A' for Active; 'I' for Inactive)
    1  A    between atoms: C_8  and  N_10
    2  A    between atoms: C_12  and  C_14
                            x       y       z     vdW  Elec       q    Type
                         _______ _______ _______ _____ _____    ______ ____

>  <TORSDO>
F 2

$$$$
=
 OpenBabel11072408503D

 26 29  0  0  1  0  0  0  0  0999 V2000
  189.1330  174.9800  141.3590 F   0  0  0  0  0  0  0  0  0  0  0  0
  184.2420  178.3410  146.5130 C   0  0  0  0  0  3  0  0  0  0  0  0
  184.8260  177.6700  145.2970 C   0  0  0  0  0  2  0  0  0  0  0  0
  189.0590  175.9530  143.4950 N   0  0  0  0  0  0  0  0  0  0  0  0
  188.4310  175.5760  142.3520 C   0  0  0  0  0  0  0  0  0  0  0  0
  187.0410  177.7920  146.6310 C   0  0  0  0  0  0  0  0  0  0  0  0
  184.9700  178.6640  147.5850 C   0  0  0  0  0  3  0  0  0  0  0  0
  186.3580  176.4150  143.2300 C   0  0  0  0  0  3  0  0  0  0  0  0
  189.0820  176.9130  145.6480 C   0  0  0  0  0  0  0  0  0  0  0  0
  186.3130  177.4000  145.4070 C   0  0  0  0  0  0  0  0  0  0  0  0
  187.0060  176.8050  144.4120 C   0  0  0  0  0  0  0  0  0  0  0  0
  188.4080  177.5320  146.7080 O   0  0  0  0  0  0  0  0  0  0  0  0
  187.0660  175.8000  142.1990 C   0  0  0  0  0  3  0  0  0  0  0  0
  186.4120  178.3830  147.6460 C   0  0  0  0  0  3  0  0  0  0  0  0
  188.4040  176.5570  144.5280 C   0  0  0  0  0  0  0  0  0  0  0  0
  192.2830  174.8860  144.9780 C   0  0  2  0  0  3  0  0  0  0  0  0
  190.5560  176.6700  145.8280 C   0  0  2  0  0  3  0  0  0  0  0  0
  191.3740  177.1330  144.6390 C   0  0  0  0  0  2  0  0  0  0  0  0
  190.9340  174.9230  146.1990 S   0  0  0  0  0  0  0  0  0  0  0  0
  193.3390  176.4560  143.4640 O   0  0  0  0  0  1  0  0  0  0  0  0
  192.6530  176.3340  144.6740 C   0  0  2  0  0  3  0  0  0  0  0  0
  191.3300  170.7300  142.2700 C   0  0  0  0  0  1  0  0  0  0  0  0
  191.3650  172.1710  142.4500 N   0  0  0  0  0  2  0  0  0  0  0  0
  191.8120  174.1930  143.7820 N   0  0  0  0  0  2  0  0  0  0  0  0
  191.8020  172.7700  143.6690 C   0  0  0  0  0  0  0  0  0  0  0  0
  192.1710  172.0510  144.6380 O   0  0  0  0  0  0  0  0  0  0  0  0
  1  5  1  0  0  0  0
  2  7  2  0  0  0  0
  3 10  1  0  0  0  0
  3  2  1  0  0  0  0
  4 15  1  0  0  0  0
  5  4  2  0  0  0  0
  6 12  1  0  0  0  0
  6 14  2  0  0  0  0
  7 14  1  0  0  0  0
  8 11  1  0  0  0  0
  9 12  1  0  0  0  0
 10  6  1  0  0  0  0
 11 15  1  0  0  0  0
 11 10  2  0  0  0  0
 13  5  1  0  0  0  0
 13  8  2  0  0  0  0
 15  9  2  0  0  0  0
 16 24  1  6  0  0  0
 16 19  1  0  0  0  0
 17  9  1  6  0  0  0
 17 19  1  0  0  0  0
 18 21  1  0  0  0  0
 18 17  1  0  0  0  0
 21 20  1  6  0  0  0
 21 16  1  0  0  0  0
 22 23  1  0  0  0  0
 23 25  1  0  0  0  0
 25 24  1  0  0  0  0
 25 26  2  0  0  0  0
M  END
>  <MODEL>
8

>  <REMARK>
 VINA RESULT:      -7.1      2.566      3.817
  Name = 
  2 active torsions:
  status: ('A' for Active; 'I' for Inactive)
    1  A    between atoms: C_8  and  N_10
    2  A    between atoms: C_12  and  C_14
                            x       y       z     vdW  Elec       q    Type
                         _______ _______ _______ _____ _____    ______ ____

>  <TORSDO>
F 2

$$$$
=
 OpenBabel11072408503D

 26 29  0  0  1  0  0  0  0  0999 V2000
  190.9270  174.9840  147.2410 F   0  0  0  0  0  0  0  0  0  0  0  0
  185.3180  179.1410  143.6280 C   0  0  0  0  0  3  0  0  0  0  0  0
  186.3140  178.6170  144.6310 C   0  0  0  0  0  3  0  0  0  0  0  0
  189.7270  175.1390  145.2280 N   0  0  0  0  0  0  0  0  0  0  0  0
  189.9850  175.5930  146.4820 C   0  0  0  0  0  0  0  0  0  0  0  0
  186.8670  176.8980  142.7760 C   0  0  1  0  0  3  0  0  0  0  0  0
  185.1570  178.6030  142.4160 C   0  0  0  0  0  3  0  0  0  0  0  0
  188.3150  177.2960  146.1940 C   0  0  0  0  0  3  0  0  0  0  0  0
  188.5750  175.2160  143.1730 C   0  0  0  0  0  0  0  0  0  0  0  0
  187.1100  177.4290  144.1330 C   0  0  0  0  0  0  0  0  0  0  0  0
  188.0480  176.8280  144.8970 C   0  0  0  0  0  0  0  0  0  0  0  0
  187.6130  175.8040  142.3430 O   0  0  0  0  0  0  0  0  0  0  0  0
  189.2820  176.6820  146.9870 C   0  0  0  0  0  3  0  0  0  0  0  0
  185.9540  177.4480  141.9770 C   0  0  0  0  0  3  0  0  0  0  0  0
  188.7910  175.7110  144.4180 C   0  0  0  0  0  0  0  0  0  0  0  0
  189.5970  172.9340  140.2490 C   0  0  2  0  0  3  0  0  0  0  0  0
  189.3330  174.0430  142.6130 C   0  0  2  0  0  3  0  0  0  0  0  0
  190.5950  174.4570  141.8840 C   0  0  0  0  0  2  0  0  0  0  0  0
  188.3000  173.0020  141.5240 S   0  0  0  0  0  0  0  0  0  0  0  0
  191.8620  173.7530  139.9870 O   0  0  0  0  0  1  0  0  0  0  0  0
  190.9050  173.3420  140.9170 C   0  0  2  0  0  3  0  0  0  0  0  0
  189.2100  174.2130  135.3770 C   0  0  0  0  0  1  0  0  0  0  0  0
  189.0680  174.4870  136.7970 N   0  0  0  0  0  2  0  0  0  0  0  0
  189.2400  173.8500  139.1700 N   0  0  0  0  0  2  0  0  0  0  0  0
  189.4020  173.5190  137.7910 C   0  0  0  0  0  0  0  0  0  0  0  0
  189.8320  172.3810  137.4550 O   0  0  0  0  0  0  0  0  0  0  0  0
  2  3  2  0  0  0  0
  4  5  2  0  0  0  0
  5 13  1  0  0  0  0
  5  1  1  0  0  0  0
  6 14  1  1  0  0  0
  6 10  1  0  0  0  0
  7  2  1  0  0  0  0
  8 13  2  0  0  0  0
  9 15  2  0  0  0  0
 10  3  1  0  0  0  0
 10 11  2  0  0  0  0
 11  8  1  0  0  0  0
 12  6  1  0  0  0  0
 12  9  1  0  0  0  0
 14  7  2  0  0  0  0
 15 11  1  0  0  0  0
 15  4  1  0  0  0  0
 16 24  1  6  0  0  0
 16 21  1  0  0  0  0
 16 19  1  0  0  0  0
 17  9  1  6  0  0  0
 18 17  1  0  0  0  0
 19 17  1  0  0  0  0
 21 20  1  6  0  0  0
 21 18  1  0  0  0  0
 22 23  1  0  0  0  0
 23 25  1  0  0  0  0
 25 24  1  0  0  0  0
 26 25  2  0  0  0  0
M  END
>  <MODEL>
9

>  <REMARK>
 VINA RESULT:      -6.9      3.548      4.472
  Name = 
  2 active torsions:
  status: ('A' for Active; 'I' for Inactive)
    1  A    between atoms: C_8  and  N_10
    2  A    between atoms: C_12  and  C_14
                            x       y       z     vdW  Elec       q    Type
                         _______ _______ _______ _____ _____    ______ ____

>  <TORSDO>
F 2

$$$$
