=
 OpenBabel11072409173D

 39 45  0  0  1  0  0  0  0  0999 V2000
  193.7930  174.1500  143.7590 C   0  0  0  0  0  2  0  0  0  0  0  0
  195.0500  176.8440  144.7310 N   0  0  0  0  0  2  0  0  0  0  0  0
  193.7850  175.0840  144.9000 N   0  0  1  0  0  0  0  0  0  0  0  0
  195.0180  171.2640  145.7610 N   0  0  0  0  0  2  0  0  0  0  0  0
  196.3290  174.7270  144.8360 C   0  0  0  0  0  2  0  0  0  0  0  0
  196.3810  173.3150  145.4370 C   0  0  0  0  0  2  0  0  0  0  0  0
  194.9980  172.6740  145.4370 C   0  0  1  0  0  3  0  0  0  0  0  0
  195.1190  175.5350  145.3530 C   0  0  2  0  0  0  0  0  0  0  0  0
  193.7180  176.4160  144.3090 C   0  0  1  0  0  0  0  0  0  0  0  0
  193.8360  170.7230  145.2050 N   0  0  0  0  0  2  0  0  0  0  0  0
  194.3500  172.7570  144.0970 C   0  0  1  0  0  3  0  0  0  0  0  0
  193.3150  171.6820  144.2250 C   0  0  1  0  0  3  0  0  0  0  0  0
  192.6400  177.2580  144.9970 C   0  0  2  0  0  3  0  0  0  0  0  0
  190.4670  176.7490  143.9990 C   0  0  2  0  0  3  0  0  0  0  0  0
  191.8560  176.4060  145.9780 C   0  0  0  0  0  2  0  0  0  0  0  0
  190.6080  175.9200  145.2620 C   0  0  1  0  0  3  0  0  0  0  0  0
  191.6240  177.7310  143.9770 C   0  0  0  0  0  2  0  0  0  0  0  0
  189.5770  177.0320  145.1950 C   0  0  2  0  0  3  0  0  0  0  0  0
  187.2410  177.4370  144.2860 C   0  0  1  0  0  3  0  0  0  0  0  0
  188.1900  176.4400  144.9540 C   0  0  2  0  0  3  0  0  0  0  0  0
  186.4040  178.0840  146.3280 C   0  0  2  0  0  3  0  0  0  0  0  0
  186.9950  178.5430  145.1260 O   0  0  0  0  0  0  0  0  0  0  0  0
  187.2590  177.2170  147.0560 O   0  0  0  0  0  0  0  0  0  0  0  0
  187.5380  176.0680  146.2830 C   0  0  0  0  0  2  0  0  0  0  0  0
  184.0940  178.5930  145.9480 O   0  0  0  0  0  1  0  0  0  0  0  0
  184.9820  177.5390  146.1560 C   0  0  0  0  0  2  0  0  0  0  0  0
  187.7490  177.8970  142.9240 C   0  0  0  0  0  2  0  0  0  0  0  0
  185.5560  177.2500  142.2310 O   0  0  0  0  0  1  0  0  0  0  0  0
  186.5930  178.1470  141.9690 C   0  0  0  0  0  2  0  0  0  0  0  0
  193.1110  171.0020  142.8830 C   0  0  0  0  0  2  0  0  0  0  0  0
  191.8640  171.5370  142.1840 C   0  0  1  0  0  3  0  0  0  0  0  0
  190.5030  169.5920  141.8020 O   0  0  0  0  0  1  0  0  0  0  0  0
  190.5580  171.1990  140.1780 O   0  0  0  0  0  1  0  0  0  0  0  0
  191.3010  170.5460  141.1660 C   0  0  0  0  0  3  0  0  0  0  0  0
  190.7940  171.8950  143.2080 C   0  0  0  0  0  2  0  0  0  0  0  0
  190.2590  173.3020  142.9760 C   0  0  0  0  0  2  0  0  0  0  0  0
  188.2040  172.1850  142.5170 O   0  0  0  0  0  0  0  0  0  0  0  0
  188.8510  173.2640  142.4870 C   0  0  0  0  0  0  0  0  0  0  0  0
  188.2430  174.4410  141.9650 N   0  0  0  0  0  1  0  0  0  0  0  0
  2  8  1  0  0  0  0
  3  1  1  6  0  0  0
  3  8  1  0  0  0  0
  5  6  1  0  0  0  0
  7  6  1  6  0  0  0
  7  4  1  0  0  0  0
  8  5  1  6  0  0  0
  9  2  1  6  0  0  0
  9  3  1  0  0  0  0
  9 13  1  0  0  0  0
  9  8  1  0  0  0  0
 10  4  1  0  0  0  0
 11  1  1  1  0  0  0
 11 12  1  0  0  0  0
 11  7  1  0  0  0  0
 12 30  1  6  0  0  0
 12 10  1  0  0  0  0
 13 17  1  6  0  0  0
 13 15  1  0  0  0  0
 14 17  1  1  0  0  0
 14 18  1  0  0  0  0
 14 16  1  0  0  0  0
 16 15  1  1  0  0  0
 18 20  1  6  0  0  0
 18 16  1  0  0  0  0
 19 27  1  6  0  0  0
 19 20  1  0  0  0  0
 19 22  1  0  0  0  0
 20 24  1  1  0  0  0
 21 26  1  6  0  0  0
 21 23  1  0  0  0  0
 22 21  1  0  0  0  0
 24 23  1  0  0  0  0
 25 26  1  0  0  0  0
 29 28  1  0  0  0  0
 29 27  1  0  0  0  0
 31 30  1  1  0  0  0
 31 35  1  0  0  0  0
 33 34  1  0  0  0  0
 34 32  1  0  0  0  0
 34 31  1  0  0  0  0
 36 35  1  0  0  0  0
 38 37  2  0  0  0  0
 38 36  1  0  0  0  0
 39 38  1  0  0  0  0
M  END
>  <MODEL>
1

>  <REMARK>
 VINA RESULT:      -6.5      0.000      0.000
  Name = 
  11 active torsions:
  status: ('A' for Active; 'I' for Inactive)
    1  A    between atoms: C_2  and  C_28
    2  A    between atoms: C_7  and  C_8
    3  A    between atoms: C_7  and  C_27
    4  A    between atoms: C_9  and  C_21
    5  A    between atoms: C_10  and  C_11
    6  A    between atoms: C_10  and  C_12
    7  A    between atoms: C_11  and  C_34
    8  A    between atoms: C_12  and  C_36
    9  A    between atoms: C_12  and  C_37
   10  A    between atoms: C_24  and  C_30
   11  A    between atoms: C_36  and  C_38
                            x       y       z     vdW  Elec       q    Type
                         _______ _______ _______ _____ _____    ______ ____

>  <TORSDO>
F 11

$$$$
=
 OpenBabel11072409173D

 39 45  0  0  1  0  0  0  0  0999 V2000
  189.1990  175.2210  145.6740 C   0  0  0  0  0  2  0  0  0  0  0  0
  191.9430  173.9140  144.9380 N   0  0  0  0  0  2  0  0  0  0  0  0
  190.4320  175.4750  144.9050 N   0  0  1  0  0  0  0  0  0  0  0  0
  189.6390  178.1690  147.8990 N   0  0  0  0  0  2  0  0  0  0  0  0
  191.5870  174.9750  147.1450 C   0  0  0  0  0  2  0  0  0  0  0  0
  191.2570  176.2860  147.8740 C   0  0  0  0  0  2  0  0  0  0  0  0
  190.1640  177.0550  147.1400 C   0  0  1  0  0  3  0  0  0  0  0  0
  191.6910  175.1710  145.6170 C   0  0  2  0  0  0  0  0  0  0  0  0
  190.7160  174.2260  144.2080 C   0  0  1  0  0  0  0  0  0  0  0  0
  188.3460  178.4150  147.3800 N   0  0  0  0  0  2  0  0  0  0  0  0
  188.9840  176.1920  146.8460 C   0  0  1  0  0  3  0  0  0  0  0  0
  187.9340  177.2350  146.6120 C   0  0  1  0  0  3  0  0  0  0  0  0
  191.0220  174.4900  142.7310 C   0  0  2  0  0  3  0  0  0  0  0  0
  190.2700  172.5800  141.4030 C   0  0  2  0  0  3  0  0  0  0  0  0
  189.7570  174.8930  141.9970 C   0  0  0  0  0  2  0  0  0  0  0  0
  189.1860  173.6400  141.3550 C   0  0  1  0  0  3  0  0  0  0  0  0
  191.4830  173.2110  142.0620 C   0  0  0  0  0  2  0  0  0  0  0  0
  189.9660  173.2940  140.1000 C   0  0  2  0  0  3  0  0  0  0  0  0
  189.9720  171.3200  138.5030 C   0  0  1  0  0  3  0  0  0  0  0  0
  189.1270  172.3870  139.2010 C   0  0  2  0  0  3  0  0  0  0  0  0
  190.1960  172.6460  136.6370 C   0  0  2  0  0  3  0  0  0  0  0  0
  190.9000  171.9060  137.6190 O   0  0  0  0  0  0  0  0  0  0  0  0
  189.4510  173.7160  137.1960 O   0  0  0  0  0  0  0  0  0  0  0  0
  188.4810  173.2040  138.0860 C   0  0  0  0  0  2  0  0  0  0  0  0
  190.2470  170.9520  134.9430 O   0  0  0  0  0  1  0  0  0  0  0  0
  189.3870  171.7800  135.6650 C   0  0  0  0  0  2  0  0  0  0  0  0
  190.6780  170.4010  139.4930 C   0  0  0  0  0  2  0  0  0  0  0  0
  193.0320  170.5530  139.8710 O   0  0  0  0  0  1  0  0  0  0  0  0
  192.0690  170.0380  139.0010 C   0  0  0  0  0  2  0  0  0  0  0  0
  186.5900  176.7310  147.1090 C   0  0  0  0  0  2  0  0  0  0  0  0
  185.5080  176.9340  146.0510 C   0  0  1  0  0  3  0  0  0  0  0  0
  184.7960  178.5510  147.6810 O   0  0  0  0  0  1  0  0  0  0  0  0
  184.0240  178.7730  145.5420 O   0  0  0  0  0  1  0  0  0  0  0  0
  184.3930  177.8620  146.5350 C   0  0  0  0  0  3  0  0  0  0  0  0
  186.1170  177.4800  144.7660 C   0  0  0  0  0  2  0  0  0  0  0  0
  185.9450  176.4960  143.6150 C   0  0  0  0  0  2  0  0  0  0  0  0
  186.4750  177.1860  141.3960 O   0  0  0  0  0  0  0  0  0  0  0  0
  185.6450  177.2110  142.3420 C   0  0  0  0  0  0  0  0  0  0  0  0
  184.4300  177.9400  142.2010 N   0  0  0  0  0  1  0  0  0  0  0  0
  2  8  1  0  0  0  0
  3  8  1  0  0  0  0
  3  1  1  1  0  0  0
  5  6  1  0  0  0  0
  7  6  1  1  0  0  0
  7  4  1  0  0  0  0
  8  5  1  1  0  0  0
  9  3  1  0  0  0  0
  9  2  1  1  0  0  0
  9  8  1  0  0  0  0
 10  4  1  0  0  0  0
 11  1  1  6  0  0  0
 11  7  1  0  0  0  0
 12 11  1  0  0  0  0
 12 30  1  1  0  0  0
 12 10  1  0  0  0  0
 13 15  1  6  0  0  0
 13  9  1  0  0  0  0
 14 17  1  1  0  0  0
 16 14  1  0  0  0  0
 16 15  1  1  0  0  0
 17 13  1  0  0  0  0
 18 20  1  6  0  0  0
 18 16  1  0  0  0  0
 18 14  1  0  0  0  0
 19 20  1  0  0  0  0
 19 27  1  1  0  0  0
 20 24  1  6  0  0  0
 21 26  1  1  0  0  0
 21 23  1  0  0  0  0
 21 22  1  0  0  0  0
 22 19  1  0  0  0  0
 23 24  1  0  0  0  0
 25 26  1  0  0  0  0
 29 27  1  0  0  0  0
 29 28  1  0  0  0  0
 31 35  1  6  0  0  0
 31 34  1  0  0  0  0
 31 30  1  0  0  0  0
 33 34  1  0  0  0  0
 34 32  1  0  0  0  0
 36 35  1  0  0  0  0
 37 38  2  0  0  0  0
 38 36  1  0  0  0  0
 39 38  1  0  0  0  0
M  END
>  <MODEL>
2

>  <REMARK>
 VINA RESULT:      -6.5      2.994      8.203
  Name = 
  11 active torsions:
  status: ('A' for Active; 'I' for Inactive)
    1  A    between atoms: C_2  and  C_28
    2  A    between atoms: C_7  and  C_8
    3  A    between atoms: C_7  and  C_27
    4  A    between atoms: C_9  and  C_21
    5  A    between atoms: C_10  and  C_11
    6  A    between atoms: C_10  and  C_12
    7  A    between atoms: C_11  and  C_34
    8  A    between atoms: C_12  and  C_36
    9  A    between atoms: C_12  and  C_37
   10  A    between atoms: C_24  and  C_30
   11  A    between atoms: C_36  and  C_38
                            x       y       z     vdW  Elec       q    Type
                         _______ _______ _______ _____ _____    ______ ____

>  <TORSDO>
F 11

$$$$
=
 OpenBabel11072409173D

 39 45  0  0  1  0  0  0  0  0999 V2000
  193.9420  174.1250  144.2580 C   0  0  0  0  0  2  0  0  0  0  0  0
  193.0330  176.5120  142.4550 N   0  0  0  0  0  2  0  0  0  0  0  0
  193.7990  175.5920  144.2680 N   0  0  1  0  0  0  0  0  0  0  0  0
  197.6100  174.1910  144.8740 N   0  0  0  0  0  2  0  0  0  0  0  0
  195.2520  175.4590  142.1540 C   0  0  0  0  0  2  0  0  0  0  0  0
  196.6020  175.1540  142.8180 C   0  0  0  0  0  2  0  0  0  0  0  0
  196.4090  174.7240  144.2680 C   0  0  1  0  0  3  0  0  0  0  0  0
  194.3260  176.2840  143.0730 C   0  0  2  0  0  0  0  0  0  0  0  0
  192.5050  175.8590  143.6500 C   0  0  1  0  0  0  0  0  0  0  0  0
  197.1730  173.3700  145.9390 N   0  0  0  0  0  2  0  0  0  0  0  0
  195.3950  173.6380  144.3910 C   0  0  1  0  0  3  0  0  0  0  0  0
  195.7490  173.0840  145.7370 C   0  0  1  0  0  3  0  0  0  0  0  0
  191.6990  176.8500  144.4930 C   0  0  2  0  0  3  0  0  0  0  0  0
  189.3180  176.5420  144.0340 C   0  0  2  0  0  3  0  0  0  0  0  0
  191.0750  176.1430  145.6820 C   0  0  0  0  0  2  0  0  0  0  0  0
  189.6560  175.7660  145.2930 C   0  0  1  0  0  3  0  0  0  0  0  0
  190.5310  177.3840  143.6880 C   0  0  0  0  0  2  0  0  0  0  0  0
  188.7520  176.9830  145.3710 C   0  0  2  0  0  3  0  0  0  0  0  0
  186.3460  177.4650  144.7180 C   0  0  1  0  0  3  0  0  0  0  0  0
  187.2940  176.5400  145.4830 C   0  0  2  0  0  3  0  0  0  0  0  0
  185.9250  178.6870  146.6210 C   0  0  2  0  0  3  0  0  0  0  0  0
  186.3480  178.7620  145.2710 O   0  0  0  0  0  0  0  0  0  0  0  0
  186.8030  177.9140  147.4220 O   0  0  0  0  0  0  0  0  0  0  0  0
  186.8410  176.5870  146.9400 C   0  0  0  0  0  2  0  0  0  0  0  0
  183.6860  178.9300  145.8020 O   0  0  0  0  0  1  0  0  0  0  0  0
  184.4490  178.3100  146.7910 C   0  0  0  0  0  2  0  0  0  0  0  0
  186.6620  177.5140  143.2280 C   0  0  0  0  0  2  0  0  0  0  0  0
  184.4090  177.9620  142.5700 O   0  0  0  0  0  1  0  0  0  0  0  0
  185.7140  178.4540  142.5020 C   0  0  0  0  0  2  0  0  0  0  0  0
  195.5080  171.5840  145.7550 C   0  0  0  0  0  2  0  0  0  0  0  0
  195.8850  170.9570  144.4150 C   0  0  1  0  0  3  0  0  0  0  0  0
  197.5810  169.9970  145.8240 O   0  0  0  0  0  1  0  0  0  0  0  0
  197.0770  168.9260  143.8700 O   0  0  0  0  0  1  0  0  0  0  0  0
  197.1940  170.1710  144.4930 C   0  0  0  0  0  3  0  0  0  0  0  0
  194.7640  170.0520  143.9180 C   0  0  0  0  0  2  0  0  0  0  0  0
  193.4710  170.3100  144.6800 C   0  0  0  0  0  2  0  0  0  0  0  0
  191.4090  171.4250  144.2460 O   0  0  0  0  0  0  0  0  0  0  0  0
  192.4090  170.8280  143.7700 C   0  0  0  0  0  0  0  0  0  0  0  0
  192.5130  170.6280  142.3640 N   0  0  0  0  0  1  0  0  0  0  0  0
  2  8  1  0  0  0  0
  3  1  1  6  0  0  0
  4 10  1  0  0  0  0
  5  6  1  0  0  0  0
  7  6  1  6  0  0  0
  7 11  1  0  0  0  0
  7  4  1  0  0  0  0
  8  5  1  6  0  0  0
  8  9  1  0  0  0  0
  8  3  1  0  0  0  0
  9  2  1  6  0  0  0
  9  3  1  0  0  0  0
  9 13  1  0  0  0  0
 11  1  1  1  0  0  0
 11 12  1  0  0  0  0
 12 30  1  6  0  0  0
 12 10  1  0  0  0  0
 13 17  1  6  0  0  0
 13 15  1  0  0  0  0
 14 17  1  1  0  0  0
 14 16  1  0  0  0  0
 14 18  1  0  0  0  0
 16 18  1  0  0  0  0
 16 15  1  1  0  0  0
 18 20  1  6  0  0  0
 19 27  1  6  0  0  0
 19 22  1  0  0  0  0
 19 20  1  0  0  0  0
 20 24  1  1  0  0  0
 21 26  1  6  0  0  0
 21 23  1  0  0  0  0
 22 21  1  0  0  0  0
 24 23  1  0  0  0  0
 25 26  1  0  0  0  0
 29 28  1  0  0  0  0
 29 27  1  0  0  0  0
 31 35  1  1  0  0  0
 31 34  1  0  0  0  0
 31 30  1  0  0  0  0
 33 34  1  0  0  0  0
 34 32  1  0  0  0  0
 35 36  1  0  0  0  0
 38 37  2  0  0  0  0
 38 36  1  0  0  0  0
 39 38  1  0  0  0  0
M  END
>  <MODEL>
3

>  <REMARK>
 VINA RESULT:      -6.4      2.409      3.315
  Name = 
  11 active torsions:
  status: ('A' for Active; 'I' for Inactive)
    1  A    between atoms: C_2  and  C_28
    2  A    between atoms: C_7  and  C_8
    3  A    between atoms: C_7  and  C_27
    4  A    between atoms: C_9  and  C_21
    5  A    between atoms: C_10  and  C_11
    6  A    between atoms: C_10  and  C_12
    7  A    between atoms: C_11  and  C_34
    8  A    between atoms: C_12  and  C_36
    9  A    between atoms: C_12  and  C_37
   10  A    between atoms: C_24  and  C_30
   11  A    between atoms: C_36  and  C_38
                            x       y       z     vdW  Elec       q    Type
                         _______ _______ _______ _____ _____    ______ ____

>  <TORSDO>
F 11

$$$$
=
 OpenBabel11072409173D

 39 45  0  0  1  0  0  0  0  0999 V2000
  192.7240  174.4360  143.2630 C   0  0  0  0  0  2  0  0  0  0  0  0
  194.2760  176.7800  144.6340 N   0  0  0  0  0  2  0  0  0  0  0  0
  192.8170  175.1720  144.5370 N   0  0  1  0  0  0  0  0  0  0  0  0
  193.5990  171.1480  144.7660 N   0  0  0  0  0  2  0  0  0  0  0  0
  195.3030  174.5420  144.3860 C   0  0  0  0  0  2  0  0  0  0  0  0
  195.1900  173.0560  144.7550 C   0  0  0  0  0  2  0  0  0  0  0  0
  193.7420  172.5850  144.6710 C   0  0  1  0  0  3  0  0  0  0  0  0
  194.1910  175.3890  145.0400 C   0  0  2  0  0  0  0  0  0  0  0  0
  192.9070  176.5790  144.1660 C   0  0  1  0  0  0  0  0  0  0  0  0
  192.3660  170.8400  144.1460 N   0  0  0  0  0  2  0  0  0  0  0  0
  193.1160  172.9530  143.3690 C   0  0  1  0  0  3  0  0  0  0  0  0
  191.9640  171.9960  143.3380 C   0  0  1  0  0  3  0  0  0  0  0  0
  191.9280  177.4190  144.9920 C   0  0  2  0  0  3  0  0  0  0  0  0
  189.6630  177.0800  144.1380 C   0  0  2  0  0  3  0  0  0  0  0  0
  191.1800  176.5360  145.9740 C   0  0  0  0  0  2  0  0  0  0  0  0
  189.8570  176.1590  145.3280 C   0  0  1  0  0  3  0  0  0  0  0  0
  190.8630  178.0080  144.0900 C   0  0  0  0  0  2  0  0  0  0  0  0
  188.8820  177.3180  145.4170 C   0  0  2  0  0  3  0  0  0  0  0  0
  186.5350  177.8510  144.6090 C   0  0  1  0  0  3  0  0  0  0  0  0
  187.4520  176.8080  145.2490 C   0  0  2  0  0  3  0  0  0  0  0  0
  185.8330  178.5740  146.6770 C   0  0  2  0  0  3  0  0  0  0  0  0
  186.3940  178.9810  145.4420 O   0  0  0  0  0  0  0  0  0  0  0  0
  186.6670  177.6670  147.3790 O   0  0  0  0  0  0  0  0  0  0  0  0
  186.8420  176.4940  146.6120 C   0  0  0  0  0  2  0  0  0  0  0  0
  183.6400  179.0290  145.8240 O   0  0  0  0  0  1  0  0  0  0  0  0
  184.3750  178.1140  146.5780 C   0  0  0  0  0  2  0  0  0  0  0  0
  187.0060  178.2620  143.2190 C   0  0  0  0  0  2  0  0  0  0  0  0
  187.3920  176.9100  141.2870 O   0  0  0  0  0  1  0  0  0  0  0  0
  186.3950  177.3680  142.1520 C   0  0  0  0  0  2  0  0  0  0  0  0
  191.6910  171.5650  141.9070 C   0  0  0  0  0  2  0  0  0  0  0  0
  190.4040  172.1980  141.3840 C   0  0  1  0  0  3  0  0  0  0  0  0
  189.2900  174.1360  142.2700 O   0  0  0  0  0  1  0  0  0  0  0  0
  188.3450  172.0890  142.6460 O   0  0  0  0  0  1  0  0  0  0  0  0
  189.5500  172.7840  142.5080 C   0  0  0  0  0  3  0  0  0  0  0  0
  190.7210  173.2760  140.3550 C   0  0  0  0  0  2  0  0  0  0  0  0
  190.1090  172.9410  139.0010 C   0  0  0  0  0  2  0  0  0  0  0  0
  187.8260  172.3110  139.2650 O   0  0  0  0  0  0  0  0  0  0  0  0
  188.6450  173.2260  138.9920 C   0  0  0  0  0  0  0  0  0  0  0  0
  188.1710  174.5250  138.6550 N   0  0  0  0  0  1  0  0  0  0  0  0
  2  8  1  0  0  0  0
  3  1  1  6  0  0  0
  3  8  1  0  0  0  0
  5  6  1  0  0  0  0
  7  6  1  6  0  0  0
  7  4  1  0  0  0  0
  8  5  1  6  0  0  0
  9  3  1  0  0  0  0
  9  2  1  6  0  0  0
  9 13  1  0  0  0  0
  9  8  1  0  0  0  0
 10  4  1  0  0  0  0
 11  1  1  1  0  0  0
 11  7  1  0  0  0  0
 12 30  1  6  0  0  0
 12 11  1  0  0  0  0
 12 10  1  0  0  0  0
 13 17  1  6  0  0  0
 13 15  1  0  0  0  0
 14 17  1  1  0  0  0
 14 16  1  0  0  0  0
 14 18  1  0  0  0  0
 16 18  1  0  0  0  0
 16 15  1  1  0  0  0
 18 20  1  6  0  0  0
 19 27  1  6  0  0  0
 19 20  1  0  0  0  0
 19 22  1  0  0  0  0
 20 24  1  1  0  0  0
 21 26  1  6  0  0  0
 21 23  1  0  0  0  0
 22 21  1  0  0  0  0
 24 23  1  0  0  0  0
 25 26  1  0  0  0  0
 28 29  1  0  0  0  0
 29 27  1  0  0  0  0
 31 35  1  6  0  0  0
 31 30  1  0  0  0  0
 31 34  1  0  0  0  0
 32 34  1  0  0  0  0
 34 33  1  0  0  0  0
 36 35  1  0  0  0  0
 38 36  1  0  0  0  0
 38 37  2  0  0  0  0
 39 38  1  0  0  0  0
M  END
>  <MODEL>
4

>  <REMARK>
 VINA RESULT:      -6.4      1.524      1.941
  Name = 
  11 active torsions:
  status: ('A' for Active; 'I' for Inactive)
    1  A    between atoms: C_2  and  C_28
    2  A    between atoms: C_7  and  C_8
    3  A    between atoms: C_7  and  C_27
    4  A    between atoms: C_9  and  C_21
    5  A    between atoms: C_10  and  C_11
    6  A    between atoms: C_10  and  C_12
    7  A    between atoms: C_11  and  C_34
    8  A    between atoms: C_12  and  C_36
    9  A    between atoms: C_12  and  C_37
   10  A    between atoms: C_24  and  C_30
   11  A    between atoms: C_36  and  C_38
                            x       y       z     vdW  Elec       q    Type
                         _______ _______ _______ _____ _____    ______ ____

>  <TORSDO>
F 11

$$$$
=
 OpenBabel11072409173D

 39 45  0  0  1  0  0  0  0  0999 V2000
  193.9370  173.9680  144.2090 C   0  0  0  0  0  2  0  0  0  0  0  0
  193.2040  176.4090  142.3950 N   0  0  0  0  0  2  0  0  0  0  0  0
  193.8500  175.4400  144.2300 N   0  0  1  0  0  0  0  0  0  0  0  0
  197.5720  173.8840  144.9910 N   0  0  0  0  0  2  0  0  0  0  0  0
  195.3920  175.2720  142.1830 C   0  0  0  0  0  2  0  0  0  0  0  0
  196.6980  174.9080  142.9040 C   0  0  0  0  0  2  0  0  0  0  0  0
  196.4220  174.4710  144.3380 C   0  0  1  0  0  3  0  0  0  0  0  0
  194.4570  176.1230  143.0680 C   0  0  2  0  0  0  0  0  0  0  0  0
  192.5970  175.7640  143.5570 C   0  0  1  0  0  0  0  0  0  0  0  0
  197.0550  173.0700  146.0260 N   0  0  0  0  0  2  0  0  0  0  0  0
  195.3620  173.4240  144.4020 C   0  0  1  0  0  3  0  0  0  0  0  0
  195.6320  172.8420  145.7560 C   0  0  1  0  0  3  0  0  0  0  0  0
  191.7920  176.7780  144.3750 C   0  0  2  0  0  3  0  0  0  0  0  0
  189.4060  176.3480  144.0580 C   0  0  2  0  0  3  0  0  0  0  0  0
  191.2570  176.1270  145.6370 C   0  0  0  0  0  2  0  0  0  0  0  0
  189.8370  175.6710  145.3460 C   0  0  1  0  0  3  0  0  0  0  0  0
  190.5660  177.2110  143.5970 C   0  0  0  0  0  2  0  0  0  0  0  0
  188.8880  176.8550  145.3910 C   0  0  2  0  0  3  0  0  0  0  0  0
  186.4530  177.0940  144.7110 C   0  0  1  0  0  3  0  0  0  0  0  0
  187.4570  176.3650  145.6050 C   0  0  2  0  0  3  0  0  0  0  0  0
  185.9870  178.6050  146.3820 C   0  0  2  0  0  3  0  0  0  0  0  0
  186.3920  178.4660  145.0310 O   0  0  0  0  0  0  0  0  0  0  0  0
  186.9130  178.0270  147.2880 O   0  0  0  0  0  0  0  0  0  0  0  0
  187.0160  176.6410  147.0400 C   0  0  0  0  0  2  0  0  0  0  0  0
  183.6770  178.9410  145.8410 O   0  0  0  0  0  1  0  0  0  0  0  0
  184.5350  178.1880  146.6420 C   0  0  0  0  0  2  0  0  0  0  0  0
  186.7510  176.9000  143.2280 C   0  0  0  0  0  2  0  0  0  0  0  0
  187.7870  178.5530  141.8480 O   0  0  0  0  0  1  0  0  0  0  0  0
  186.5840  178.2040  142.4650 C   0  0  0  0  0  2  0  0  0  0  0  0
  195.3320  171.3540  145.7450 C   0  0  0  0  0  2  0  0  0  0  0  0
  196.6160  170.5390  145.8870 C   0  0  1  0  0  3  0  0  0  0  0  0
  195.3480  168.9120  147.1220 O   0  0  0  0  0  1  0  0  0  0  0  0
  197.6190  168.6690  147.0450 O   0  0  0  0  0  1  0  0  0  0  0  0
  196.5680  169.5900  147.0850 C   0  0  0  0  0  3  0  0  0  0  0  0
  196.8910  169.7530  144.6110 C   0  0  0  0  0  2  0  0  0  0  0  0
  197.8200  170.5230  143.6810 C   0  0  0  0  0  2  0  0  0  0  0  0
  197.9410  169.7150  141.4430 O   0  0  0  0  0  0  0  0  0  0  0  0
  197.3430  170.4500  142.2700 C   0  0  0  0  0  0  0  0  0  0  0  0
  196.2260  171.2260  141.8520 N   0  0  0  0  0  1  0  0  0  0  0  0
  2  8  1  0  0  0  0
  3  1  1  6  0  0  0
  4 10  1  0  0  0  0
  5  6  1  0  0  0  0
  7  6  1  6  0  0  0
  7 11  1  0  0  0  0
  7  4  1  0  0  0  0
  8  5  1  6  0  0  0
  8  9  1  0  0  0  0
  8  3  1  0  0  0  0
  9  2  1  6  0  0  0
  9  3  1  0  0  0  0
  9 13  1  0  0  0  0
 11  1  1  1  0  0  0
 11 12  1  0  0  0  0
 12 30  1  6  0  0  0
 12 10  1  0  0  0  0
 13 17  1  6  0  0  0
 13 15  1  0  0  0  0
 14 17  1  1  0  0  0
 14 16  1  0  0  0  0
 14 18  1  0  0  0  0
 16 18  1  0  0  0  0
 16 15  1  1  0  0  0
 18 20  1  6  0  0  0
 19 27  1  6  0  0  0
 19 22  1  0  0  0  0
 19 20  1  0  0  0  0
 20 24  1  1  0  0  0
 21 26  1  6  0  0  0
 21 23  1  0  0  0  0
 22 21  1  0  0  0  0
 24 23  1  0  0  0  0
 25 26  1  0  0  0  0
 28 29  1  0  0  0  0
 29 27  1  0  0  0  0
 30 31  1  0  0  0  0
 31 35  1  6  0  0  0
 31 34  1  0  0  0  0
 33 34  1  0  0  0  0
 34 32  1  0  0  0  0
 36 35  1  0  0  0  0
 37 38  2  0  0  0  0
 38 36  1  0  0  0  0
 39 38  1  0  0  0  0
M  END
>  <MODEL>
5

>  <REMARK>
 VINA RESULT:      -6.4      2.941      4.354
  Name = 
  11 active torsions:
  status: ('A' for Active; 'I' for Inactive)
    1  A    between atoms: C_2  and  C_28
    2  A    between atoms: C_7  and  C_8
    3  A    between atoms: C_7  and  C_27
    4  A    between atoms: C_9  and  C_21
    5  A    between atoms: C_10  and  C_11
    6  A    between atoms: C_10  and  C_12
    7  A    between atoms: C_11  and  C_34
    8  A    between atoms: C_12  and  C_36
    9  A    between atoms: C_12  and  C_37
   10  A    between atoms: C_24  and  C_30
   11  A    between atoms: C_36  and  C_38
                            x       y       z     vdW  Elec       q    Type
                         _______ _______ _______ _____ _____    ______ ____

>  <TORSDO>
F 11

$$$$
=
 OpenBabel11072409173D

 39 45  0  0  1  0  0  0  0  0999 V2000
  194.6320  175.7790  143.4510 C   0  0  0  0  0  2  0  0  0  0  0  0
  192.9370  175.9800  146.0710 N   0  0  0  0  0  2  0  0  0  0  0  0
  193.6160  175.0470  144.2300 N   0  0  1  0  0  0  0  0  0  0  0  0
  197.1660  173.0640  143.6630 N   0  0  0  0  0  2  0  0  0  0  0  0
  195.3160  175.3020  146.1400 C   0  0  0  0  0  2  0  0  0  0  0  0
  196.3410  174.2550  145.6800 C   0  0  0  0  0  2  0  0  0  0  0  0
  196.0960  173.8560  144.2290 C   0  0  1  0  0  3  0  0  0  0  0  0
  193.8840  174.9530  145.6810 C   0  0  2  0  0  0  0  0  0  0  0  0
  192.6450  176.0540  144.6410 C   0  0  1  0  0  0  0  0  0  0  0  0
  197.0780  173.2410  142.2620 N   0  0  0  0  0  2  0  0  0  0  0  0
  195.9800  175.0480  143.3400 C   0  0  1  0  0  3  0  0  0  0  0  0
  196.2450  174.4210  142.0060 C   0  0  1  0  0  3  0  0  0  0  0  0
  191.2190  175.5750  144.3590 C   0  0  2  0  0  3  0  0  0  0  0  0
  189.6500  177.3720  144.8930 C   0  0  2  0  0  3  0  0  0  0  0  0
  190.7160  176.1670  143.0550 C   0  0  0  0  0  2  0  0  0  0  0  0
  189.9180  177.4140  143.4000 C   0  0  1  0  0  3  0  0  0  0  0  0
  190.2770  176.0970  145.4250 C   0  0  0  0  0  2  0  0  0  0  0  0
  188.5430  177.0290  143.9140 C   0  0  2  0  0  3  0  0  0  0  0  0
  186.3190  178.0340  144.6150 C   0  0  1  0  0  3  0  0  0  0  0  0
  187.5890  178.2140  143.7800 C   0  0  2  0  0  3  0  0  0  0  0  0
  185.1940  177.1670  142.8060 C   0  0  2  0  0  3  0  0  0  0  0  0
  185.5610  176.9370  144.1550 O   0  0  0  0  0  0  0  0  0  0  0  0
  186.3180  177.2600  141.9460 O   0  0  0  0  0  0  0  0  0  0  0  0
  187.1220  178.3540  142.3340 C   0  0  0  0  0  2  0  0  0  0  0  0
  183.6280  178.2380  141.3430 O   0  0  0  0  0  1  0  0  0  0  0  0
  184.1850  178.3050  142.6190 C   0  0  0  0  0  2  0  0  0  0  0  0
  186.6190  177.8950  146.1030 C   0  0  0  0  0  2  0  0  0  0  0  0
  184.4420  178.2940  147.0020 O   0  0  0  0  0  1  0  0  0  0  0  0
  185.7330  178.8180  146.9240 C   0  0  0  0  0  2  0  0  0  0  0  0
  196.9880  175.4020  141.1150 C   0  0  0  0  0  2  0  0  0  0  0  0
  196.5320  175.2730  139.6640 C   0  0  1  0  0  3  0  0  0  0  0  0
  197.8640  173.6470  138.4960 O   0  0  0  0  0  1  0  0  0  0  0  0
  197.5120  175.6680  137.4900 O   0  0  0  0  0  1  0  0  0  0  0  0
  197.7010  175.0170  138.7120 C   0  0  0  0  0  3  0  0  0  0  0  0
  195.4980  174.1620  139.5290 C   0  0  0  0  0  2  0  0  0  0  0  0
  194.2400  174.6640  138.8330 C   0  0  0  0  0  2  0  0  0  0  0  0
  192.9000  174.2670  140.7630 O   0  0  0  0  0  0  0  0  0  0  0  0
  193.0140  174.1580  139.5150 C   0  0  0  0  0  0  0  0  0  0  0  0
  191.9830  173.5310  138.7600 N   0  0  0  0  0  1  0  0  0  0  0  0
  3  1  1  6  0  0  0
  3  9  1  0  0  0  0
  3  8  1  0  0  0  0
  4  7  1  0  0  0  0
  6  5  1  0  0  0  0
  7  6  1  1  0  0  0
  8  2  1  0  0  0  0
  8  5  1  6  0  0  0
  9  8  1  0  0  0  0
  9  2  1  6  0  0  0
 10  4  1  0  0  0  0
 11  1  1  6  0  0  0
 11  7  1  0  0  0  0
 12 30  1  6  0  0  0
 12 10  1  0  0  0  0
 12 11  1  0  0  0  0
 13 15  1  6  0  0  0
 13  9  1  0  0  0  0
 13 17  1  0  0  0  0
 14 17  1  1  0  0  0
 16 15  1  1  0  0  0
 16 18  1  0  0  0  0
 16 14  1  0  0  0  0
 18 20  1  6  0  0  0
 18 14  1  0  0  0  0
 19 27  1  1  0  0  0
 20 24  1  6  0  0  0
 20 19  1  0  0  0  0
 21 26  1  1  0  0  0
 21 22  1  0  0  0  0
 22 19  1  0  0  0  0
 23 24  1  0  0  0  0
 23 21  1  0  0  0  0
 25 26  1  0  0  0  0
 27 29  1  0  0  0  0
 29 28  1  0  0  0  0
 31 35  1  1  0  0  0
 31 30  1  0  0  0  0
 32 34  1  0  0  0  0
 33 34  1  0  0  0  0
 34 31  1  0  0  0  0
 36 38  1  0  0  0  0
 36 35  1  0  0  0  0
 38 37  2  0  0  0  0
 39 38  1  0  0  0  0
M  END
>  <MODEL>
6

>  <REMARK>
 VINA RESULT:      -6.3      3.220      4.400
  Name = 
  11 active torsions:
  status: ('A' for Active; 'I' for Inactive)
    1  A    between atoms: C_2  and  C_28
    2  A    between atoms: C_7  and  C_8
    3  A    between atoms: C_7  and  C_27
    4  A    between atoms: C_9  and  C_21
    5  A    between atoms: C_10  and  C_11
    6  A    between atoms: C_10  and  C_12
    7  A    between atoms: C_11  and  C_34
    8  A    between atoms: C_12  and  C_36
    9  A    between atoms: C_12  and  C_37
   10  A    between atoms: C_24  and  C_30
   11  A    between atoms: C_36  and  C_38
                            x       y       z     vdW  Elec       q    Type
                         _______ _______ _______ _____ _____    ______ ____

>  <TORSDO>
F 11

$$$$
=
 OpenBabel11072409173D

 39 45  0  0  1  0  0  0  0  0999 V2000
  192.2340  174.0320  143.3860 C   0  0  0  0  0  2  0  0  0  0  0  0
  192.1210  175.6550  146.0580 N   0  0  0  0  0  2  0  0  0  0  0  0
  191.5150  174.0940  144.6720 N   0  0  1  0  0  0  0  0  0  0  0  0
  193.5040  170.5790  143.9320 N   0  0  0  0  0  2  0  0  0  0  0  0
  193.8790  173.9570  145.6690 C   0  0  0  0  0  2  0  0  0  0  0  0
  194.1580  172.4700  145.4030 C   0  0  0  0  0  2  0  0  0  0  0  0
  193.1520  171.8990  144.4100 C   0  0  1  0  0  3  0  0  0  0  0  0
  192.3740  174.2390  145.8670 C   0  0  2  0  0  0  0  0  0  0  0  0
  191.2450  175.5090  144.8970 C   0  0  1  0  0  0  0  0  0  0  0  0
  192.8430  170.4290  142.6910 N   0  0  0  0  0  2  0  0  0  0  0  0
  193.0450  172.7410  143.1850 C   0  0  1  0  0  3  0  0  0  0  0  0
  192.4360  171.7610  142.2300 C   0  0  1  0  0  3  0  0  0  0  0  0
  189.7830  175.7220  145.2990 C   0  0  2  0  0  3  0  0  0  0  0  0
  189.0380  177.9020  144.4830 C   0  0  2  0  0  3  0  0  0  0  0  0
  188.8740  175.4950  144.1050 C   0  0  0  0  0  2  0  0  0  0  0  0
  188.5970  176.8530  143.4810 C   0  0  1  0  0  3  0  0  0  0  0  0
  189.5620  177.1660  145.7020 C   0  0  0  0  0  2  0  0  0  0  0  0
  187.5620  177.6030  144.2990 C   0  0  2  0  0  3  0  0  0  0  0  0
  185.4830  178.9990  143.8780 C   0  0  1  0  0  3  0  0  0  0  0  0
  186.9190  178.6950  143.4460 C   0  0  2  0  0  3  0  0  0  0  0  0
  184.6480  177.5410  142.3060 C   0  0  2  0  0  3  0  0  0  0  0  0
  184.6470  177.8800  143.6820 O   0  0  0  0  0  0  0  0  0  0  0  0
  185.9340  177.1610  141.8430 O   0  0  0  0  0  0  0  0  0  0  0  0
  186.8300  178.2420  141.9910 C   0  0  0  0  0  2  0  0  0  0  0  0
  183.6860  178.0090  140.1630 O   0  0  0  0  0  1  0  0  0  0  0  0
  183.9560  178.5730  141.4090 C   0  0  0  0  0  2  0  0  0  0  0  0
  185.4030  179.4840  145.3210 C   0  0  0  0  0  2  0  0  0  0  0  0
  184.8300  178.5330  147.4360 O   0  0  0  0  0  1  0  0  0  0  0  0
  184.3990  178.6650  146.1150 C   0  0  0  0  0  2  0  0  0  0  0  0
  192.9620  172.0150  140.8280 C   0  0  0  0  0  2  0  0  0  0  0  0
  191.8160  172.3070  139.8620 C   0  0  1  0  0  3  0  0  0  0  0  0
  190.6980  170.3330  139.0660 O   0  0  0  0  0  1  0  0  0  0  0  0
  191.4490  171.8370  137.5190 O   0  0  0  0  0  1  0  0  0  0  0  0
  191.7050  171.2510  138.7610 C   0  0  0  0  0  3  0  0  0  0  0  0
  190.4970  172.4120  140.6170 C   0  0  0  0  0  2  0  0  0  0  0  0
  189.7680  173.7030  140.2710 C   0  0  0  0  0  2  0  0  0  0  0  0
  187.8160  172.6460  139.4020 O   0  0  0  0  0  0  0  0  0  0  0  0
  188.7460  173.4710  139.2090 C   0  0  0  0  0  0  0  0  0  0  0  0
  188.8340  174.1660  137.9690 N   0  0  0  0  0  1  0  0  0  0  0  0
  3  1  1  6  0  0  0
  3  9  1  0  0  0  0
  3  8  1  0  0  0  0
  4  7  1  0  0  0  0
  6  5  1  0  0  0  0
  7  6  1  1  0  0  0
  8  5  1  6  0  0  0
  8  2  1  0  0  0  0
  9 13  1  0  0  0  0
  9  8  1  0  0  0  0
  9  2  1  6  0  0  0
 10  4  1  0  0  0  0
 11  1  1  1  0  0  0
 11  7  1  0  0  0  0
 12 30  1  6  0  0  0
 12 10  1  0  0  0  0
 12 11  1  0  0  0  0
 13 15  1  6  0  0  0
 13 17  1  0  0  0  0
 14 17  1  1  0  0  0
 16 15  1  1  0  0  0
 16 18  1  0  0  0  0
 16 14  1  0  0  0  0
 18 20  1  6  0  0  0
 18 14  1  0  0  0  0
 19 27  1  1  0  0  0
 20 24  1  6  0  0  0
 20 19  1  0  0  0  0
 21 26  1  6  0  0  0
 21 22  1  0  0  0  0
 22 19  1  0  0  0  0
 23 24  1  0  0  0  0
 23 21  1  0  0  0  0
 25 26  1  0  0  0  0
 27 29  1  0  0  0  0
 29 28  1  0  0  0  0
 31 35  1  1  0  0  0
 31 30  1  0  0  0  0
 33 34  1  0  0  0  0
 34 32  1  0  0  0  0
 34 31  1  0  0  0  0
 36 35  1  0  0  0  0
 38 37  2  0  0  0  0
 38 36  1  0  0  0  0
 39 38  1  0  0  0  0
M  END
>  <MODEL>
7

>  <REMARK>
 VINA RESULT:      -6.2      2.034      3.317
  Name = 
  11 active torsions:
  status: ('A' for Active; 'I' for Inactive)
    1  A    between atoms: C_2  and  C_28
    2  A    between atoms: C_7  and  C_8
    3  A    between atoms: C_7  and  C_27
    4  A    between atoms: C_9  and  C_21
    5  A    between atoms: C_10  and  C_11
    6  A    between atoms: C_10  and  C_12
    7  A    between atoms: C_11  and  C_34
    8  A    between atoms: C_12  and  C_36
    9  A    between atoms: C_12  and  C_37
   10  A    between atoms: C_24  and  C_30
   11  A    between atoms: C_36  and  C_38
                            x       y       z     vdW  Elec       q    Type
                         _______ _______ _______ _____ _____    ______ ____

>  <TORSDO>
F 11

$$$$
=
 OpenBabel11072409173D

 39 45  0  0  1  0  0  0  0  0999 V2000
  188.4580  176.7630  143.7090 C   0  0  0  0  0  2  0  0  0  0  0  0
  187.3230  176.8280  140.7960 N   0  0  0  0  0  2  0  0  0  0  0  0
  187.4530  176.1170  142.8450 N   0  0  1  0  0  0  0  0  0  0  0  0
  185.9640  177.9940  146.1800 N   0  0  0  0  0  2  0  0  0  0  0  0
  186.6530  178.5290  142.4640 C   0  0  0  0  0  2  0  0  0  0  0  0
  185.9690  178.7640  143.8180 C   0  0  0  0  0  2  0  0  0  0  0  0
  186.3770  177.6950  144.8250 C   0  0  1  0  0  3  0  0  0  0  0  0
  186.6210  177.0430  142.0470 C   0  0  2  0  0  0  0  0  0  0  0  0
  188.1270  175.8870  141.5730 C   0  0  1  0  0  0  0  0  0  0  0  0
  186.8370  177.2640  147.0190 N   0  0  0  0  0  2  0  0  0  0  0  0
  187.8580  177.5370  144.8950 C   0  0  1  0  0  3  0  0  0  0  0  0
  187.9990  176.8580  146.2220 C   0  0  1  0  0  3  0  0  0  0  0  0
  187.8930  174.4530  141.0890 C   0  0  2  0  0  3  0  0  0  0  0  0
  189.8370  173.7120  139.8070 C   0  0  2  0  0  3  0  0  0  0  0  0
  188.6790  173.4770  141.9440 C   0  0  0  0  0  2  0  0  0  0  0  0
  189.9880  173.1960  141.2250 C   0  0  1  0  0  3  0  0  0  0  0  0
  188.4370  174.2860  139.6850 C   0  0  0  0  0  2  0  0  0  0  0  0
  189.7590  172.2230  140.0840 C   0  0  2  0  0  3  0  0  0  0  0  0
  191.0480  170.9910  138.2750 C   0  0  1  0  0  3  0  0  0  0  0  0
  191.0780  171.5580  139.6960 C   0  0  2  0  0  3  0  0  0  0  0  0
  190.4500  168.9140  139.0640 C   0  0  2  0  0  3  0  0  0  0  0  0
  190.1010  169.9520  138.1650 O   0  0  0  0  0  0  0  0  0  0  0  0
  190.4180  169.3370  140.4180 O   0  0  0  0  0  0  0  0  0  0  0  0
  191.3600  170.3720  140.6140 C   0  0  0  0  0  2  0  0  0  0  0  0
  191.8880  168.1660  137.3000 O   0  0  0  0  0  1  0  0  0  0  0  0
  191.7340  168.1680  138.6860 C   0  0  0  0  0  2  0  0  0  0  0  0
  190.7900  172.0680  137.2280 C   0  0  0  0  0  2  0  0  0  0  0  0
  193.1070  171.6360  136.8370 O   0  0  0  0  0  1  0  0  0  0  0  0
  192.0960  172.5790  136.6410 C   0  0  0  0  0  2  0  0  0  0  0  0
  189.2820  177.3110  146.8980 C   0  0  0  0  0  2  0  0  0  0  0  0
  190.3700  176.2470  146.7710 C   0  0  1  0  0  3  0  0  0  0  0  0
  192.7110  176.5990  147.1890 O   0  0  0  0  0  1  0  0  0  0  0  0
  191.2110  177.5080  148.6540 O   0  0  0  0  0  1  0  0  0  0  0  0
  191.4740  176.4230  147.8130 C   0  0  0  0  0  3  0  0  0  0  0  0
  189.7650  174.8530  146.8840 C   0  0  0  0  0  2  0  0  0  0  0  0
  189.8940  174.0910  145.5710 C   0  0  0  0  0  2  0  0  0  0  0  0
  191.3180  175.1460  143.9780 O   0  0  0  0  0  0  0  0  0  0  0  0
  191.2220  174.3380  144.9380 C   0  0  0  0  0  0  0  0  0  0  0  0
  192.3760  173.6470  145.4030 N   0  0  0  0  0  1  0  0  0  0  0  0
  2  8  1  0  0  0  0
  3  1  1  1  0  0  0
  4 10  1  0  0  0  0
  5  6  1  0  0  0  0
  7  6  1  6  0  0  0
  7 11  1  0  0  0  0
  7  4  1  0  0  0  0
  8  5  1  1  0  0  0
  8  3  1  0  0  0  0
  9  2  1  6  0  0  0
  9  8  1  0  0  0  0
  9  3  1  0  0  0  0
 11  1  1  6  0  0  0
 11 12  1  0  0  0  0
 12 30  1  1  0  0  0
 12 10  1  0  0  0  0
 13 17  1  6  0  0  0
 13  9  1  0  0  0  0
 13 15  1  0  0  0  0
 14 17  1  1  0  0  0
 14 18  1  0  0  0  0
 14 16  1  0  0  0  0
 16 15  1  1  0  0  0
 18 20  1  6  0  0  0
 18 16  1  0  0  0  0
 19 27  1  6  0  0  0
 19 20  1  0  0  0  0
 20 24  1  1  0  0  0
 21 26  1  6  0  0  0
 21 23  1  0  0  0  0
 22 19  1  0  0  0  0
 22 21  1  0  0  0  0
 23 24  1  0  0  0  0
 25 26  1  0  0  0  0
 29 28  1  0  0  0  0
 29 27  1  0  0  0  0
 31 35  1  1  0  0  0
 31 30  1  0  0  0  0
 31 34  1  0  0  0  0
 32 34  1  0  0  0  0
 34 33  1  0  0  0  0
 36 35  1  0  0  0  0
 37 38  2  0  0  0  0
 38 39  1  0  0  0  0
 38 36  1  0  0  0  0
M  END
>  <MODEL>
8

>  <REMARK>
 VINA RESULT:      -6.1      3.287      8.823
  Name = 
  11 active torsions:
  status: ('A' for Active; 'I' for Inactive)
    1  A    between atoms: C_2  and  C_28
    2  A    between atoms: C_7  and  C_8
    3  A    between atoms: C_7  and  C_27
    4  A    between atoms: C_9  and  C_21
    5  A    between atoms: C_10  and  C_11
    6  A    between atoms: C_10  and  C_12
    7  A    between atoms: C_11  and  C_34
    8  A    between atoms: C_12  and  C_36
    9  A    between atoms: C_12  and  C_37
   10  A    between atoms: C_24  and  C_30
   11  A    between atoms: C_36  and  C_38
                            x       y       z     vdW  Elec       q    Type
                         _______ _______ _______ _____ _____    ______ ____

>  <TORSDO>
F 11

$$$$
=
 OpenBabel11072409173D

 39 45  0  0  1  0  0  0  0  0999 V2000
  193.2110  173.3480  142.1310 C   0  0  0  0  0  2  0  0  0  0  0  0
  190.8650  172.4680  140.2590 N   0  0  0  0  0  2  0  0  0  0  0  0
  191.9510  173.8420  141.5460 N   0  0  1  0  0  0  0  0  0  0  0  0
  195.3120  175.9800  140.5520 N   0  0  0  0  0  2  0  0  0  0  0  0
  193.0510  173.1600  139.3270 C   0  0  0  0  0  2  0  0  0  0  0  0
  194.0620  174.3090  139.2050 C   0  0  0  0  0  2  0  0  0  0  0  0
  194.2040  175.0490  140.5300 C   0  0  1  0  0  3  0  0  0  0  0  0
  191.7830  173.5810  140.1000 C   0  0  2  0  0  0  0  0  0  0  0  0
  191.0020  172.7440  141.6870 C   0  0  1  0  0  0  0  0  0  0  0  0
  195.6440  176.1530  141.9160 N   0  0  0  0  0  2  0  0  0  0  0  0
  194.4590  174.1130  141.6620 C   0  0  1  0  0  3  0  0  0  0  0  0
  195.0340  175.0550  142.6740 C   0  0  1  0  0  3  0  0  0  0  0  0
  189.6770  173.2470  142.2660 C   0  0  2  0  0  3  0  0  0  0  0  0
  190.1170  174.4520  144.3470 C   0  0  2  0  0  3  0  0  0  0  0  0
  189.5170  174.7320  141.9960 C   0  0  0  0  0  2  0  0  0  0  0  0
  190.0030  175.4730  143.2310 C   0  0  1  0  0  3  0  0  0  0  0  0
  189.6880  173.1130  143.7750 C   0  0  0  0  0  2  0  0  0  0  0  0
  188.9490  175.4190  144.3220 C   0  0  2  0  0  3  0  0  0  0  0  0
  188.7410  176.1580  146.7420 C   0  0  1  0  0  3  0  0  0  0  0  0
  189.1880  176.5410  145.3300 C   0  0  2  0  0  3  0  0  0  0  0  0
  186.6900  177.1460  146.4130 C   0  0  2  0  0  3  0  0  0  0  0  0
  187.3470  175.9500  146.7920 O   0  0  0  0  0  0  0  0  0  0  0  0
  186.9850  177.5270  145.0790 O   0  0  0  0  0  0  0  0  0  0  0  0
  188.3700  177.7720  144.9520 C   0  0  0  0  0  2  0  0  0  0  0  0
  185.6160  178.9280  147.6010 O   0  0  0  0  0  1  0  0  0  0  0  0
  186.8420  178.2880  147.4230 C   0  0  0  0  0  2  0  0  0  0  0  0
  189.4860  174.9400  147.2760 C   0  0  0  0  0  2  0  0  0  0  0  0
  190.9130  176.6640  148.1130 O   0  0  0  0  0  1  0  0  0  0  0  0
  190.8830  175.3190  147.7400 C   0  0  0  0  0  2  0  0  0  0  0  0
  196.0880  174.3410  143.5020 C   0  0  0  0  0  2  0  0  0  0  0  0
  195.5030  173.8520  144.8240 C   0  0  1  0  0  3  0  0  0  0  0  0
  197.0180  172.9720  146.4710 O   0  0  0  0  0  1  0  0  0  0  0  0
  195.3460  171.6100  145.7150 O   0  0  0  0  0  1  0  0  0  0  0  0
  196.2400  172.6250  145.3640 C   0  0  0  0  0  3  0  0  0  0  0  0
  195.5230  174.9690  145.8600 C   0  0  0  0  0  2  0  0  0  0  0  0
  194.1110  175.4110  146.2190 C   0  0  0  0  0  2  0  0  0  0  0  0
  192.6940  176.9870  145.1290 O   0  0  0  0  0  0  0  0  0  0  0  0
  193.8130  176.7590  145.6550 C   0  0  0  0  0  0  0  0  0  0  0  0
  194.8020  177.7830  145.6920 N   0  0  0  0  0  1  0  0  0  0  0  0
  3  9  1  0  0  0  0
  3  1  1  1  0  0  0
  4 10  1  0  0  0  0
  6  5  1  0  0  0  0
  7  6  1  6  0  0  0
  7  4  1  0  0  0  0
  7 11  1  0  0  0  0
  8  5  1  1  0  0  0
  8  2  1  0  0  0  0
  8  3  1  0  0  0  0
  8  9  1  0  0  0  0
  9  2  1  1  0  0  0
  9 13  1  0  0  0  0
 10 12  1  0  0  0  0
 11  1  1  1  0  0  0
 11 12  1  0  0  0  0
 12 30  1  6  0  0  0
 13 15  1  1  0  0  0
 13 17  1  0  0  0  0
 14 17  1  6  0  0  0
 16 15  1  6  0  0  0
 16 18  1  0  0  0  0
 16 14  1  0  0  0  0
 18 14  1  0  0  0  0
 18 20  1  1  0  0  0
 19 22  1  0  0  0  0
 19 27  1  6  0  0  0
 20 24  1  6  0  0  0
 20 19  1  0  0  0  0
 21 22  1  0  0  0  0
 21 26  1  1  0  0  0
 23 21  1  0  0  0  0
 24 23  1  0  0  0  0
 26 25  1  0  0  0  0
 27 29  1  0  0  0  0
 29 28  1  0  0  0  0
 31 30  1  6  0  0  0
 31 34  1  0  0  0  0
 31 35  1  0  0  0  0
 34 33  1  0  0  0  0
 34 32  1  0  0  0  0
 35 36  1  0  0  0  0
 37 38  2  0  0  0  0
 38 39  1  0  0  0  0
 38 36  1  0  0  0  0
M  END
>  <MODEL>
9

>  <REMARK>
 VINA RESULT:      -5.9      2.939      5.383
  Name = 
  11 active torsions:
  status: ('A' for Active; 'I' for Inactive)
    1  A    between atoms: C_2  and  C_28
    2  A    between atoms: C_7  and  C_8
    3  A    between atoms: C_7  and  C_27
    4  A    between atoms: C_9  and  C_21
    5  A    between atoms: C_10  and  C_11
    6  A    between atoms: C_10  and  C_12
    7  A    between atoms: C_11  and  C_34
    8  A    between atoms: C_12  and  C_36
    9  A    between atoms: C_12  and  C_37
   10  A    between atoms: C_24  and  C_30
   11  A    between atoms: C_36  and  C_38
                            x       y       z     vdW  Elec       q    Type
                         _______ _______ _______ _____ _____    ______ ____

>  <TORSDO>
F 11

$$$$
