=
 OpenBabel11062421583D

 35 35  0  0  1  0  0  0  0  0999 V2000
  186.3360  178.0200  145.5500 C   0  0  0  0  0  0  0  0  0  0  0  0
  185.6160  179.1060  145.5600 N   0  0  0  0  0  0  0  0  0  0  0  0
  185.0180  178.9400  143.2340 C   0  0  0  0  0  3  0  0  0  0  0  0
  184.8400  179.5220  144.4230 C   0  0  0  0  0  3  0  0  0  0  0  0
  186.2730  177.1020  144.3560 C   0  0  0  0  0  2  0  0  0  0  0  0
  187.0720  177.6670  146.7310 N   0  0  0  0  0  2  0  0  0  0  0  0
  186.0980  177.9110  143.0710 C   0  0  1  0  0  3  0  0  0  0  0  0
  187.9870  176.5750  146.9010 C   0  0  0  0  0  3  0  0  0  0  0  0
  189.2850  176.6600  146.6120 C   0  0  0  0  0  3  0  0  0  0  0  0
  189.5610  174.1630  146.5360 C   0  0  0  0  0  1  0  0  0  0  0  0
  190.2580  175.5150  146.7800 C   0  0  1  0  0  0  0  0  0  0  0  0
  191.3690  175.6870  145.7230 C   0  0  1  0  0  3  0  0  0  0  0  0
  192.2630  174.6140  145.7680 O   0  0  0  0  0  1  0  0  0  0  0  0
  190.8470  175.8500  144.2990 C   0  0  0  0  0  2  0  0  0  0  0  0
  191.8900  176.5480  143.4490 C   0  0  0  0  0  2  0  0  0  0  0  0
  192.3440  175.6500  142.3870 C   0  0  0  0  0  0  0  0  0  0  0  0
  192.7040  174.9380  141.5480 N   0  0  0  0  0  0  0  0  0  0  0  0
  191.4100  176.8520  148.3070 C   0  0  0  0  0  1  0  0  0  0  0  0
  190.8910  175.5680  148.0520 O   0  0  0  0  0  0  0  0  0  0  0  0
  185.7980  177.0570  142.0070 O   0  0  0  0  0  0  0  0  0  0  0  0
  186.7410  177.7770  139.6680 O   0  0  0  0  0  0  0  0  0  0  0  0
  188.7200  178.2120  141.8650 S   0  0  0  0  0  1  0  0  0  0  0  0
  187.1410  177.1140  140.9700 P   0  0  1  0  0  0  0  0  0  0  0  0
  187.6470  175.5230  140.6700 O   0  0  0  0  0  0  0  0  0  0  0  0
  188.4460  175.1650  141.7590 C   0  0  0  0  0  2  0  0  0  0  0  0
  188.3190  173.6750  142.0300 C   0  0  0  0  0  2  0  0  0  0  0  0
  189.6640  172.9770  141.8810 C   0  0  2  0  0  3  0  0  0  0  0  0
  189.7240  172.2660  140.5280 C   0  0  2  0  0  3  0  0  0  0  0  0
  190.3920  171.0420  140.6300 O   0  0  0  0  0  1  0  0  0  0  0  0
  190.3800  173.1460  139.4730 C   0  0  0  0  0  2  0  0  0  0  0  0
  188.1360  173.1410  138.3880 O   0  0  0  0  0  1  0  0  0  0  0  0
  189.5140  173.2550  138.2670 C   0  0  0  0  0  0  0  0  0  0  0  0
  190.0300  173.4820  137.1400 O   0  0  0  0  0  0  0  0  0  0  0  0
  191.1250  172.2850  143.6520 O   0  0  0  0  0  1  0  0  0  0  0  0
  189.8930  172.0250  143.0540 C   0  0  0  0  0  2  0  0  0  0  0  0
  1  2  2  0  0  0  0
  1  6  1  0  0  0  0
  3  4  2  0  0  0  0
  4  2  1  0  0  0  0
  5  1  1  0  0  0  0
  6  8  1  0  0  0  0
  7 20  1  6  0  0  0
  7  3  1  0  0  0  0
  7  5  1  0  0  0  0
  9 11  1  0  0  0  0
  9  8  2  0  0  0  0
 11 10  1  6  0  0  0
 11 19  1  0  0  0  0
 12 13  1  6  0  0  0
 12 11  1  0  0  0  0
 14 12  1  0  0  0  0
 15 14  1  0  0  0  0
 16 15  1  0  0  0  0
 17 16  3  0  0  0  0
 19 18  1  0  0  0  0
 23 21  2  6  0  0  0
 23 22  1  0  0  0  0
 23 20  1  0  0  0  0
 24 23  1  0  0  0  0
 24 25  1  0  0  0  0
 25 26  1  0  0  0  0
 27 26  1  1  0  0  0
 27 35  1  0  0  0  0
 28 29  1  1  0  0  0
 28 27  1  0  0  0  0
 30 28  1  0  0  0  0
 32 31  1  0  0  0  0
 32 30  1  0  0  0  0
 33 32  2  0  0  0  0
 35 34  1  0  0  0  0
M  END
>  <MODEL>
1

>  <REMARK>
 VINA RESULT:      -5.3      0.000      0.000
  Name = 
  17 active torsions:
  status: ('A' for Active; 'I' for Inactive)
    1  A    between atoms: C_3  and  C_4
    2  A    between atoms: C_3  and  C_21
    3  A    between atoms: C_3  and  C_31
    4  A    between atoms: C_4  and  C_27
    5  A    between atoms: C_5  and  N_30
    6  A    between atoms: C_7  and  C_10
    7  A    between atoms: C_8  and  C_15
    8  A    between atoms: C_10  and  C_19
    9  A    between atoms: C_12  and  C_15
   10  A    between atoms: C_12  and  C_19
   11  A    between atoms: C_15  and  O_33
   12  A    between atoms: O_16  and  P_22
   13  A    between atoms: O_16  and  C_35
   14  A    between atoms: C_18  and  C_21
   15  A    between atoms: C_18  and  C_26
   16  A    between atoms: P_22  and  O_32
   17  A    between atoms: C_27  and  O_32
                            x       y       z     vdW  Elec       q    Type
                         _______ _______ _______ _____ _____    ______ ____

>  <TORSDO>
F 17

$$$$
=
 OpenBabel11062421583D

 35 35  0  0  1  0  0  0  0  0999 V2000
  189.9330  176.8450  146.4100 C   0  0  0  0  0  0  0  0  0  0  0  0
  190.4140  176.8770  147.6200 N   0  0  0  0  0  0  0  0  0  0  0  0
  192.6570  176.3360  146.9330 C   0  0  0  0  0  3  0  0  0  0  0  0
  191.8190  176.7410  147.8910 C   0  0  0  0  0  3  0  0  0  0  0  0
  190.8810  176.7780  145.2390 C   0  0  0  0  0  2  0  0  0  0  0  0
  188.5190  177.0030  146.2230 N   0  0  0  0  0  2  0  0  0  0  0  0
  192.1070  175.9360  145.5940 C   0  0  1  0  0  3  0  0  0  0  0  0
  187.7810  176.9110  144.9960 C   0  0  0  0  0  3  0  0  0  0  0  0
  187.4330  177.9750  144.2730 C   0  0  0  0  0  3  0  0  0  0  0  0
  185.9490  176.5260  142.8520 C   0  0  0  0  0  1  0  0  0  0  0  0
  186.6510  177.8910  142.9810 C   0  0  1  0  0  0  0  0  0  0  0  0
  185.5710  178.9930  143.0180 C   0  0  1  0  0  3  0  0  0  0  0  0
  184.3340  178.4840  142.6140 O   0  0  0  0  0  1  0  0  0  0  0  0
  185.4200  179.6650  144.3790 C   0  0  0  0  0  2  0  0  0  0  0  0
  184.2160  179.0940  145.1000 C   0  0  0  0  0  2  0  0  0  0  0  0
  184.5940  178.6960  146.4560 C   0  0  0  0  0  0  0  0  0  0  0  0
  184.8970  178.3810  147.5280 N   0  0  0  0  0  0  0  0  0  0  0  0
  187.3610  177.1760  140.8760 C   0  0  0  0  0  1  0  0  0  0  0  0
  187.4840  178.1720  141.8630 O   0  0  0  0  0  0  0  0  0  0  0  0
  193.0840  176.0770  144.6070 O   0  0  0  0  0  0  0  0  0  0  0  0
  194.0110  174.2830  142.9320 O   0  0  0  0  0  0  0  0  0  0  0  0
  195.6080  174.4030  145.4560 S   0  0  0  0  0  1  0  0  0  0  0  0
  193.7700  174.5370  144.4060 P   0  0  1  0  0  0  0  0  0  0  0  0
  192.6780  173.3870  145.0120 O   0  0  0  0  0  0  0  0  0  0  0  0
  192.9530  172.2020  144.3250 C   0  0  0  0  0  2  0  0  0  0  0  0
  191.6650  171.4340  144.0780 C   0  0  0  0  0  2  0  0  0  0  0  0
  191.5330  171.0450  142.6120 C   0  0  2  0  0  3  0  0  0  0  0  0
  190.1130  171.3450  142.1290 C   0  0  2  0  0  3  0  0  0  0  0  0
  190.1300  172.0570  140.9250 O   0  0  0  0  0  1  0  0  0  0  0  0
  189.3210  172.1030  143.1850 C   0  0  0  0  0  2  0  0  0  0  0  0
  187.7750  173.6360  141.9730 O   0  0  0  0  0  0  0  0  0  0  0  0
  188.9490  173.4580  142.6910 C   0  0  0  0  0  0  0  0  0  0  0  0
  189.6830  174.4470  142.9530 O   0  0  0  0  0  1  0  0  0  0  0  0
  190.8910  168.8890  141.7820 O   0  0  0  0  0  1  0  0  0  0  0  0
  191.9200  169.5790  142.4220 C   0  0  0  0  0  2  0  0  0  0  0  0
  1  2  2  0  0  0  0
  2  4  1  0  0  0  0
  3  4  2  0  0  0  0
  5  7  1  0  0  0  0
  5  1  1  0  0  0  0
  6  1  1  0  0  0  0
  7 20  1  6  0  0  0
  7  3  1  0  0  0  0
  8  6  1  0  0  0  0
  9  8  2  0  0  0  0
 11 10  1  6  0  0  0
 11 12  1  0  0  0  0
 11  9  1  0  0  0  0
 12 13  1  1  0  0  0
 12 14  1  0  0  0  0
 14 15  1  0  0  0  0
 15 16  1  0  0  0  0
 16 17  3  0  0  0  0
 18 19  1  0  0  0  0
 19 11  1  0  0  0  0
 23 21  2  6  0  0  0
 23 20  1  0  0  0  0
 23 24  1  0  0  0  0
 23 22  1  0  0  0  0
 25 24  1  0  0  0  0
 26 25  1  0  0  0  0
 27 35  1  1  0  0  0
 27 26  1  0  0  0  0
 28 29  1  6  0  0  0
 28 27  1  0  0  0  0
 28 30  1  0  0  0  0
 31 32  2  0  0  0  0
 32 33  1  0  0  0  0
 32 30  1  0  0  0  0
 34 35  1  0  0  0  0
M  END
>  <MODEL>
2

>  <REMARK>
 VINA RESULT:      -5.2      3.088      6.372
  Name = 
  17 active torsions:
  status: ('A' for Active; 'I' for Inactive)
    1  A    between atoms: C_3  and  C_4
    2  A    between atoms: C_3  and  C_21
    3  A    between atoms: C_3  and  C_31
    4  A    between atoms: C_4  and  C_27
    5  A    between atoms: C_5  and  N_30
    6  A    between atoms: C_7  and  C_10
    7  A    between atoms: C_8  and  C_15
    8  A    between atoms: C_10  and  C_19
    9  A    between atoms: C_12  and  C_15
   10  A    between atoms: C_12  and  C_19
   11  A    between atoms: C_15  and  O_33
   12  A    between atoms: O_16  and  P_22
   13  A    between atoms: O_16  and  C_35
   14  A    between atoms: C_18  and  C_21
   15  A    between atoms: C_18  and  C_26
   16  A    between atoms: P_22  and  O_32
   17  A    between atoms: C_27  and  O_32
                            x       y       z     vdW  Elec       q    Type
                         _______ _______ _______ _____ _____    ______ ____

>  <TORSDO>
F 17

$$$$
=
 OpenBabel11062421583D

 35 35  0  0  1  0  0  0  0  0999 V2000
  190.0050  176.7310  146.3690 C   0  0  0  0  0  0  0  0  0  0  0  0
  190.4830  176.7280  147.5810 N   0  0  0  0  0  0  0  0  0  0  0  0
  192.7680  176.4720  146.8690 C   0  0  0  0  0  3  0  0  0  0  0  0
  191.8950  176.7190  147.8490 C   0  0  0  0  0  3  0  0  0  0  0  0
  190.9520  176.8450  145.2010 C   0  0  0  0  0  2  0  0  0  0  0  0
  188.5810  176.7530  146.1870 N   0  0  0  0  0  2  0  0  0  0  0  0
  192.2590  176.1120  145.5030 C   0  0  1  0  0  3  0  0  0  0  0  0
  187.8540  176.6710  144.9530 C   0  0  0  0  0  3  0  0  0  0  0  0
  187.7100  177.7030  144.1220 C   0  0  0  0  0  3  0  0  0  0  0  0
  185.9920  176.4180  142.8120 C   0  0  0  0  0  1  0  0  0  0  0  0
  186.9410  177.6310  142.8210 C   0  0  1  0  0  0  0  0  0  0  0  0
  186.0930  178.9150  142.7090 C   0  0  1  0  0  3  0  0  0  0  0  0
  184.9060  178.6620  142.0150 O   0  0  0  0  0  1  0  0  0  0  0  0
  185.7650  179.5580  144.0530 C   0  0  0  0  0  2  0  0  0  0  0  0
  184.3260  179.2600  144.4240 C   0  0  0  0  0  2  0  0  0  0  0  0
  184.2860  178.4910  145.6690 C   0  0  0  0  0  0  0  0  0  0  0  0
  184.2540  177.8860  146.6540 N   0  0  0  0  0  0  0  0  0  0  0  0
  189.0600  178.2200  142.0370 C   0  0  0  0  0  1  0  0  0  0  0  0
  187.8250  177.6270  141.7080 O   0  0  0  0  0  0  0  0  0  0  0  0
  193.2140  176.4230  144.5320 O   0  0  0  0  0  0  0  0  0  0  0  0
  194.3280  174.9840  142.6420 O   0  0  0  0  0  0  0  0  0  0  0  0
  195.6750  174.6130  145.2840 S   0  0  0  0  0  1  0  0  0  0  0  0
  193.9430  174.9490  144.1070 P   0  0  1  0  0  0  0  0  0  0  0  0
  192.8190  173.7050  144.3730 O   0  0  0  0  0  0  0  0  0  0  0  0
  192.5160  173.1890  143.1100 C   0  0  0  0  0  2  0  0  0  0  0  0
  191.0160  173.2520  142.8700 C   0  0  0  0  0  2  0  0  0  0  0  0
  190.6890  173.0320  141.3990 C   0  0  2  0  0  3  0  0  0  0  0  0
  189.5460  173.9620  140.9850 C   0  0  2  0  0  3  0  0  0  0  0  0
  188.9340  174.5370  142.1030 O   0  0  0  0  0  1  0  0  0  0  0  0
  188.5200  173.2270  140.1350 C   0  0  0  0  0  2  0  0  0  0  0  0
  189.3470  173.0790  137.7880 O   0  0  0  0  0  0  0  0  0  0  0  0
  188.5540  173.7190  138.7290 C   0  0  0  0  0  0  0  0  0  0  0  0
  187.8380  174.6980  138.3880 O   0  0  0  0  0  1  0  0  0  0  0  0
  190.0950  170.9140  142.3540 O   0  0  0  0  0  1  0  0  0  0  0  0
  190.3680  171.5600  141.1480 C   0  0  0  0  0  2  0  0  0  0  0  0
  1  2  2  0  0  0  0
  2  4  1  0  0  0  0
  3  4  2  0  0  0  0
  5  7  1  0  0  0  0
  5  1  1  0  0  0  0
  6  1  1  0  0  0  0
  7 20  1  6  0  0  0
  7  3  1  0  0  0  0
  8  6  1  0  0  0  0
  9  8  2  0  0  0  0
 11 10  1  6  0  0  0
 11  9  1  0  0  0  0
 12 13  1  1  0  0  0
 12 11  1  0  0  0  0
 12 14  1  0  0  0  0
 14 15  1  0  0  0  0
 15 16  1  0  0  0  0
 16 17  3  0  0  0  0
 19 18  1  0  0  0  0
 19 11  1  0  0  0  0
 23 21  2  6  0  0  0
 23 24  1  0  0  0  0
 23 20  1  0  0  0  0
 23 22  1  0  0  0  0
 25 24  1  0  0  0  0
 26 25  1  0  0  0  0
 27 35  1  1  0  0  0
 27 26  1  0  0  0  0
 28 27  1  0  0  0  0
 28 29  1  1  0  0  0
 30 28  1  0  0  0  0
 31 32  2  0  0  0  0
 32 30  1  0  0  0  0
 33 32  1  0  0  0  0
 35 34  1  0  0  0  0
M  END
>  <MODEL>
3

>  <REMARK>
 VINA RESULT:      -5.2      2.836      6.009
  Name = 
  17 active torsions:
  status: ('A' for Active; 'I' for Inactive)
    1  A    between atoms: C_3  and  C_4
    2  A    between atoms: C_3  and  C_21
    3  A    between atoms: C_3  and  C_31
    4  A    between atoms: C_4  and  C_27
    5  A    between atoms: C_5  and  N_30
    6  A    between atoms: C_7  and  C_10
    7  A    between atoms: C_8  and  C_15
    8  A    between atoms: C_10  and  C_19
    9  A    between atoms: C_12  and  C_15
   10  A    between atoms: C_12  and  C_19
   11  A    between atoms: C_15  and  O_33
   12  A    between atoms: O_16  and  P_22
   13  A    between atoms: O_16  and  C_35
   14  A    between atoms: C_18  and  C_21
   15  A    between atoms: C_18  and  C_26
   16  A    between atoms: P_22  and  O_32
   17  A    between atoms: C_27  and  O_32
                            x       y       z     vdW  Elec       q    Type
                         _______ _______ _______ _____ _____    ______ ____

>  <TORSDO>
F 17

$$$$
=
 OpenBabel11062421583D

 35 35  0  0  1  0  0  0  0  0999 V2000
  189.5490  176.1490  146.5930 C   0  0  0  0  0  0  0  0  0  0  0  0
  190.2030  175.6010  147.5780 N   0  0  0  0  0  0  0  0  0  0  0  0
  192.3580  175.9180  146.5550 C   0  0  0  0  0  3  0  0  0  0  0  0
  191.6390  175.5840  147.6290 C   0  0  0  0  0  3  0  0  0  0  0  0
  190.3090  176.8950  145.5250 C   0  0  0  0  0  2  0  0  0  0  0  0
  188.1130  176.1350  146.6230 N   0  0  0  0  0  2  0  0  0  0  0  0
  191.6560  176.2220  145.2630 C   0  0  1  0  0  3  0  0  0  0  0  0
  187.2110  176.5990  145.6080 C   0  0  0  0  0  3  0  0  0  0  0  0
  186.6910  177.8260  145.6010 C   0  0  0  0  0  3  0  0  0  0  0  0
  185.8740  179.8470  144.3500 C   0  0  0  0  0  1  0  0  0  0  0  0
  185.7350  178.3250  144.5400 C   0  0  1  0  0  0  0  0  0  0  0  0
  186.1070  177.6320  143.2130 C   0  0  1  0  0  3  0  0  0  0  0  0
  184.9590  177.3320  142.4750 O   0  0  0  0  0  1  0  0  0  0  0  0
  187.0690  178.4380  142.3440 C   0  0  0  0  0  2  0  0  0  0  0  0
  188.4010  177.7200  142.2560 C   0  0  0  0  0  2  0  0  0  0  0  0
  188.2050  176.3830  141.6950 C   0  0  0  0  0  0  0  0  0  0  0  0
  188.0510  175.3250  141.2530 N   0  0  0  0  0  0  0  0  0  0  0  0
  183.8780  178.7080  145.9010 C   0  0  0  0  0  1  0  0  0  0  0  0
  184.3990  177.9430  144.8400 O   0  0  0  0  0  0  0  0  0  0  0  0
  192.4510  177.0440  144.4610 O   0  0  0  0  0  0  0  0  0  0  0  0
  193.5550  176.4460  142.1580 O   0  0  0  0  0  0  0  0  0  0  0  0
  195.4290  176.0300  144.4490 S   0  0  0  0  0  1  0  0  0  0  0  0
  193.4830  176.0020  143.6050 P   0  0  1  0  0  0  0  0  0  0  0  0
  192.8430  174.4330  143.6910 O   0  0  0  0  0  0  0  0  0  0  0  0
  192.6320  174.0350  142.3680 C   0  0  0  0  0  2  0  0  0  0  0  0
  191.1660  173.6950  142.1560 C   0  0  0  0  0  2  0  0  0  0  0  0
  190.8380  172.3180  142.7190 C   0  0  2  0  0  3  0  0  0  0  0  0
  190.1680  171.4700  141.6360 C   0  0  2  0  0  3  0  0  0  0  0  0
  190.4110  170.1080  141.8410 O   0  0  0  0  0  1  0  0  0  0  0  0
  190.6250  171.8900  140.2470 C   0  0  0  0  0  2  0  0  0  0  0  0
  189.5250  170.6370  138.3940 O   0  0  0  0  0  0  0  0  0  0  0  0
  189.5230  171.7230  139.2580 C   0  0  0  0  0  0  0  0  0  0  0  0
  188.5740  172.5500  139.2280 O   0  0  0  0  0  1  0  0  0  0  0  0
  189.4670  173.7500  144.0670 O   0  0  0  0  0  1  0  0  0  0  0  0
  189.9770  172.4560  143.9730 C   0  0  0  0  0  2  0  0  0  0  0  0
  1  6  1  0  0  0  0
  1  2  2  0  0  0  0
  2  4  1  0  0  0  0
  3  4  2  0  0  0  0
  5  1  1  0  0  0  0
  7 20  1  6  0  0  0
  7  5  1  0  0  0  0
  7  3  1  0  0  0  0
  8  6  1  0  0  0  0
  9  8  2  0  0  0  0
 11 10  1  6  0  0  0
 11 19  1  0  0  0  0
 11  9  1  0  0  0  0
 12 13  1  6  0  0  0
 12 11  1  0  0  0  0
 14 12  1  0  0  0  0
 15 14  1  0  0  0  0
 16 15  1  0  0  0  0
 17 16  3  0  0  0  0
 19 18  1  0  0  0  0
 23 21  2  6  0  0  0
 23 24  1  0  0  0  0
 23 22  1  0  0  0  0
 23 20  1  0  0  0  0
 25 24  1  0  0  0  0
 26 25  1  0  0  0  0
 27 26  1  6  0  0  0
 27 35  1  0  0  0  0
 28 29  1  1  0  0  0
 28 27  1  0  0  0  0
 30 28  1  0  0  0  0
 31 32  2  0  0  0  0
 32 30  1  0  0  0  0
 33 32  1  0  0  0  0
 35 34  1  0  0  0  0
M  END
>  <MODEL>
4

>  <REMARK>
 VINA RESULT:      -5.2      2.680      5.278
  Name = 
  17 active torsions:
  status: ('A' for Active; 'I' for Inactive)
    1  A    between atoms: C_3  and  C_4
    2  A    between atoms: C_3  and  C_21
    3  A    between atoms: C_3  and  C_31
    4  A    between atoms: C_4  and  C_27
    5  A    between atoms: C_5  and  N_30
    6  A    between atoms: C_7  and  C_10
    7  A    between atoms: C_8  and  C_15
    8  A    between atoms: C_10  and  C_19
    9  A    between atoms: C_12  and  C_15
   10  A    between atoms: C_12  and  C_19
   11  A    between atoms: C_15  and  O_33
   12  A    between atoms: O_16  and  P_22
   13  A    between atoms: O_16  and  C_35
   14  A    between atoms: C_18  and  C_21
   15  A    between atoms: C_18  and  C_26
   16  A    between atoms: P_22  and  O_32
   17  A    between atoms: C_27  and  O_32
                            x       y       z     vdW  Elec       q    Type
                         _______ _______ _______ _____ _____    ______ ____

>  <TORSDO>
F 17

$$$$
=
 OpenBabel11062421583D

 35 35  0  0  1  0  0  0  0  0999 V2000
  191.1900  176.5640  146.0520 C   0  0  0  0  0  0  0  0  0  0  0  0
  192.0050  176.4780  147.0640 N   0  0  0  0  0  0  0  0  0  0  0  0
  193.9580  176.1710  145.6910 C   0  0  0  0  0  3  0  0  0  0  0  0
  193.4310  176.4000  146.8960 C   0  0  0  0  0  3  0  0  0  0  0  0
  191.7510  176.7020  144.6600 C   0  0  0  0  0  2  0  0  0  0  0  0
  189.7790  176.6520  146.3060 N   0  0  0  0  0  2  0  0  0  0  0  0
  193.0480  175.9040  144.5270 C   0  0  1  0  0  3  0  0  0  0  0  0
  188.7150  176.6640  145.3430 C   0  0  0  0  0  3  0  0  0  0  0  0
  188.2110  177.7840  144.8270 C   0  0  0  0  0  3  0  0  0  0  0  0
  186.4760  176.4080  143.6400 C   0  0  0  0  0  1  0  0  0  0  0  0
  187.0860  177.8110  143.8170 C   0  0  1  0  0  0  0  0  0  0  0  0
  185.9920  178.7530  144.3610 C   0  0  1  0  0  3  0  0  0  0  0  0
  185.6970  179.7540  143.4320 O   0  0  0  0  0  1  0  0  0  0  0  0
  184.7040  178.0380  144.7600 C   0  0  0  0  0  2  0  0  0  0  0  0
  184.2930  178.4660  146.1550 C   0  0  0  0  0  2  0  0  0  0  0  0
  185.3120  178.0510  147.1190 C   0  0  0  0  0  0  0  0  0  0  0  0
  186.1170  177.7190  147.8820 N   0  0  0  0  0  0  0  0  0  0  0  0
  187.6370  177.3680  141.5920 C   0  0  0  0  0  1  0  0  0  0  0  0
  187.5240  178.3630  142.5820 O   0  0  0  0  0  0  0  0  0  0  0  0
  193.6860  176.2270  143.3280 O   0  0  0  0  0  0  0  0  0  0  0  0
  195.9190  174.9120  142.9170 O   0  0  0  0  0  0  0  0  0  0  0  0
  193.7360  173.1400  143.9300 S   0  0  0  0  0  1  0  0  0  0  0  0
  194.4150  174.7920  142.7860 P   0  0  1  0  0  0  0  0  0  0  0  0
  193.9980  174.5690  141.1560 O   0  0  0  0  0  0  0  0  0  0  0  0
  193.0100  173.5810  141.1470 C   0  0  0  0  0  2  0  0  0  0  0  0
  191.6330  174.2240  141.1380 C   0  0  0  0  0  2  0  0  0  0  0  0
  190.5710  173.2350  140.6760 C   0  0  2  0  0  3  0  0  0  0  0  0
  189.3250  173.3760  141.5520 C   0  0  2  0  0  3  0  0  0  0  0  0
  188.3060  174.0520  140.8740 O   0  0  0  0  0  1  0  0  0  0  0  0
  189.6510  174.0770  142.8630 C   0  0  0  0  0  2  0  0  0  0  0  0
  189.1440  171.8390  143.8360 O   0  0  0  0  0  0  0  0  0  0  0  0
  189.7140  173.0960  143.9820 C   0  0  0  0  0  0  0  0  0  0  0  0
  190.3120  173.3960  145.0490 O   0  0  0  0  0  1  0  0  0  0  0  0
  190.3040  170.9610  139.9640 O   0  0  0  0  0  1  0  0  0  0  0  0
  191.1380  171.8160  140.6840 C   0  0  0  0  0  2  0  0  0  0  0  0
  1  6  1  0  0  0  0
  1  2  2  0  0  0  0
  3  4  2  0  0  0  0
  4  2  1  0  0  0  0
  5  1  1  0  0  0  0
  7 20  1  6  0  0  0
  7  5  1  0  0  0  0
  7  3  1  0  0  0  0
  8  6  1  0  0  0  0
  9  8  2  0  0  0  0
 11 10  1  6  0  0  0
 11 12  1  0  0  0  0
 11  9  1  0  0  0  0
 12 13  1  6  0  0  0
 12 14  1  0  0  0  0
 14 15  1  0  0  0  0
 15 16  1  0  0  0  0
 16 17  3  0  0  0  0
 18 19  1  0  0  0  0
 19 11  1  0  0  0  0
 23 21  2  1  0  0  0
 23 20  1  0  0  0  0
 23 22  1  0  0  0  0
 24 23  1  0  0  0  0
 25 24  1  0  0  0  0
 26 25  1  0  0  0  0
 27 35  1  1  0  0  0
 27 26  1  0  0  0  0
 27 28  1  0  0  0  0
 28 29  1  6  0  0  0
 28 30  1  0  0  0  0
 30 32  1  0  0  0  0
 31 32  2  0  0  0  0
 32 33  1  0  0  0  0
 34 35  1  0  0  0  0
M  END
>  <MODEL>
5

>  <REMARK>
 VINA RESULT:      -5.2      2.895      6.450
  Name = 
  17 active torsions:
  status: ('A' for Active; 'I' for Inactive)
    1  A    between atoms: C_3  and  C_4
    2  A    between atoms: C_3  and  C_21
    3  A    between atoms: C_3  and  C_31
    4  A    between atoms: C_4  and  C_27
    5  A    between atoms: C_5  and  N_30
    6  A    between atoms: C_7  and  C_10
    7  A    between atoms: C_8  and  C_15
    8  A    between atoms: C_10  and  C_19
    9  A    between atoms: C_12  and  C_15
   10  A    between atoms: C_12  and  C_19
   11  A    between atoms: C_15  and  O_33
   12  A    between atoms: O_16  and  P_22
   13  A    between atoms: O_16  and  C_35
   14  A    between atoms: C_18  and  C_21
   15  A    between atoms: C_18  and  C_26
   16  A    between atoms: P_22  and  O_32
   17  A    between atoms: C_27  and  O_32
                            x       y       z     vdW  Elec       q    Type
                         _______ _______ _______ _____ _____    ______ ____

>  <TORSDO>
F 17

$$$$
=
 OpenBabel11062421583D

 35 35  0  0  1  0  0  0  0  0999 V2000
  186.3910  178.1810  145.5770 C   0  0  0  0  0  0  0  0  0  0  0  0
  185.6520  179.2520  145.5070 N   0  0  0  0  0  0  0  0  0  0  0  0
  185.0960  178.9280  143.1870 C   0  0  0  0  0  3  0  0  0  0  0  0
  184.8890  179.5810  144.3340 C   0  0  0  0  0  3  0  0  0  0  0  0
  186.3640  177.1870  144.4430 C   0  0  0  0  0  2  0  0  0  0  0  0
  187.1130  177.9170  146.7900 N   0  0  0  0  0  2  0  0  0  0  0  0
  186.1960  177.9100  143.1070 C   0  0  1  0  0  3  0  0  0  0  0  0
  188.0430  176.8540  147.0430 C   0  0  0  0  0  3  0  0  0  0  0  0
  189.3590  176.9840  146.8810 C   0  0  0  0  0  3  0  0  0  0  0  0
  189.6230  174.5270  147.3390 C   0  0  0  0  0  1  0  0  0  0  0  0
  190.3490  175.8700  147.1380 C   0  0  1  0  0  0  0  0  0  0  0  0
  191.2550  175.7530  145.8940 C   0  0  1  0  0  3  0  0  0  0  0  0
  191.2080  176.9270  145.1380 O   0  0  0  0  0  1  0  0  0  0  0  0
  192.7080  175.4180  146.2170 C   0  0  0  0  0  2  0  0  0  0  0  0
  193.6000  176.5760  145.8170 C   0  0  0  0  0  2  0  0  0  0  0  0
  194.7000  176.0880  144.9840 C   0  0  0  0  0  0  0  0  0  0  0  0
  195.5690  175.7000  144.3270 N   0  0  0  0  0  0  0  0  0  0  0  0
  191.0820  177.5450  148.5890 C   0  0  0  0  0  1  0  0  0  0  0  0
  191.1990  176.1880  148.2330 O   0  0  0  0  0  0  0  0  0  0  0  0
  185.9280  176.9850  142.0960 O   0  0  0  0  0  0  0  0  0  0  0  0
  186.8290  177.7210  139.7440 O   0  0  0  0  0  0  0  0  0  0  0  0
  188.8420  178.1570  141.9110 S   0  0  0  0  0  1  0  0  0  0  0  0
  187.2540  177.0540  141.0370 P   0  0  1  0  0  0  0  0  0  0  0  0
  187.7650  175.4670  140.7210 O   0  0  0  0  0  0  0  0  0  0  0  0
  188.2030  174.9580  141.9460 C   0  0  0  0  0  2  0  0  0  0  0  0
  187.9060  173.4690  142.0260 C   0  0  0  0  0  2  0  0  0  0  0  0
  189.1920  172.6600  142.1280 C   0  0  2  0  0  3  0  0  0  0  0  0
  190.1360  173.3260  143.1310 C   0  0  2  0  0  3  0  0  0  0  0  0
  191.3390  173.6950  142.5220 O   0  0  0  0  0  1  0  0  0  0  0  0
  190.3990  172.4190  144.3240 C   0  0  0  0  0  2  0  0  0  0  0  0
  191.8700  170.6350  143.3940 O   0  0  0  0  0  0  0  0  0  0  0  0
  191.7270  171.7560  144.1990 C   0  0  0  0  0  0  0  0  0  0  0  0
  192.7270  172.2330  144.7980 O   0  0  0  0  0  1  0  0  0  0  0  0
  190.3030  171.2010  140.5830 O   0  0  0  0  0  1  0  0  0  0  0  0
  189.8220  172.5000  140.7450 C   0  0  0  0  0  2  0  0  0  0  0  0
  1  6  1  0  0  0  0
  2  1  2  0  0  0  0
  3  4  2  0  0  0  0
  4  2  1  0  0  0  0
  5  1  1  0  0  0  0
  6  8  1  0  0  0  0
  7 20  1  6  0  0  0
  7  3  1  0  0  0  0
  7  5  1  0  0  0  0
  9  8  2  0  0  0  0
  9 11  1  0  0  0  0
 11 10  1  1  0  0  0
 11 19  1  0  0  0  0
 12 13  1  1  0  0  0
 12 14  1  0  0  0  0
 12 11  1  0  0  0  0
 15 14  1  0  0  0  0
 16 15  1  0  0  0  0
 17 16  3  0  0  0  0
 19 18  1  0  0  0  0
 23 21  2  6  0  0  0
 23 22  1  0  0  0  0
 23 20  1  0  0  0  0
 24 23  1  0  0  0  0
 24 25  1  0  0  0  0
 25 26  1  0  0  0  0
 26 27  1  0  0  0  0
 27 35  1  6  0  0  0
 27 28  1  0  0  0  0
 28 29  1  6  0  0  0
 28 30  1  0  0  0  0
 31 32  2  0  0  0  0
 32 30  1  0  0  0  0
 32 33  1  0  0  0  0
 34 35  1  0  0  0  0
M  END
>  <MODEL>
6

>  <REMARK>
 VINA RESULT:      -5.1      1.603      2.782
  Name = 
  17 active torsions:
  status: ('A' for Active; 'I' for Inactive)
    1  A    between atoms: C_3  and  C_4
    2  A    between atoms: C_3  and  C_21
    3  A    between atoms: C_3  and  C_31
    4  A    between atoms: C_4  and  C_27
    5  A    between atoms: C_5  and  N_30
    6  A    between atoms: C_7  and  C_10
    7  A    between atoms: C_8  and  C_15
    8  A    between atoms: C_10  and  C_19
    9  A    between atoms: C_12  and  C_15
   10  A    between atoms: C_12  and  C_19
   11  A    between atoms: C_15  and  O_33
   12  A    between atoms: O_16  and  P_22
   13  A    between atoms: O_16  and  C_35
   14  A    between atoms: C_18  and  C_21
   15  A    between atoms: C_18  and  C_26
   16  A    between atoms: P_22  and  O_32
   17  A    between atoms: C_27  and  O_32
                            x       y       z     vdW  Elec       q    Type
                         _______ _______ _______ _____ _____    ______ ____

>  <TORSDO>
F 17

$$$$
=
 OpenBabel11062421583D

 35 35  0  0  1  0  0  0  0  0999 V2000
  193.9780  175.2490  143.5590 C   0  0  0  0  0  0  0  0  0  0  0  0
  194.9360  176.1290  143.6290 N   0  0  0  0  0  0  0  0  0  0  0  0
  194.5230  176.6560  145.9410 C   0  0  0  0  0  3  0  0  0  0  0  0
  195.3050  176.7650  144.8640 C   0  0  0  0  0  3  0  0  0  0  0  0
  193.3040  174.7880  144.8270 C   0  0  0  0  0  2  0  0  0  0  0  0
  193.6800  174.6500  142.2890 N   0  0  0  0  0  2  0  0  0  0  0  0
  193.2080  175.9400  145.8280 C   0  0  1  0  0  3  0  0  0  0  0  0
  192.6180  173.7350  141.9790 C   0  0  0  0  0  3  0  0  0  0  0  0
  191.3290  174.0670  142.0440 C   0  0  0  0  0  3  0  0  0  0  0  0
  189.7540  172.3500  142.9880 C   0  0  0  0  0  1  0  0  0  0  0  0
  190.2010  173.1110  141.7250 C   0  0  1  0  0  0  0  0  0  0  0  0
  189.0100  173.9490  141.2150 C   0  0  1  0  0  3  0  0  0  0  0  0
  187.8040  173.2770  141.4350 O   0  0  0  0  0  1  0  0  0  0  0  0
  188.9290  175.3450  141.8260 C   0  0  0  0  0  2  0  0  0  0  0  0
  187.4770  175.7480  141.9900 C   0  0  0  0  0  2  0  0  0  0  0  0
  187.1010  176.6800  140.9260 C   0  0  0  0  0  0  0  0  0  0  0  0
  186.8050  177.4190  140.0870 N   0  0  0  0  0  0  0  0  0  0  0  0
  190.5200  170.8870  141.0920 C   0  0  0  0  0  1  0  0  0  0  0  0
  190.5630  172.2300  140.6700 O   0  0  0  0  0  0  0  0  0  0  0  0
  192.8110  175.4550  147.0760 O   0  0  0  0  0  0  0  0  0  0  0  0
  190.3070  175.0870  147.7670 O   0  0  0  0  0  0  0  0  0  0  0  0
  191.4630  177.5600  148.9850 S   0  0  0  0  0  1  0  0  0  0  0  0
  191.3020  176.1660  147.3940 P   0  0  1  0  0  0  0  0  0  0  0  0
  190.7830  176.9610  145.9870 O   0  0  0  0  0  0  0  0  0  0  0  0
  189.5830  176.3430  145.6220 C   0  0  0  0  0  2  0  0  0  0  0  0
  188.6400  177.3640  145.0080 C   0  0  0  0  0  2  0  0  0  0  0  0
  187.2620  177.2900  145.6510 C   0  0  2  0  0  3  0  0  0  0  0  0
  186.3510  178.3530  145.0320 C   0  0  2  0  0  3  0  0  0  0  0  0
  185.9020  179.2570  145.9990 O   0  0  0  0  0  1  0  0  0  0  0  0
  185.1730  177.7140  144.3100 C   0  0  0  0  0  2  0  0  0  0  0  0
  183.6960  178.1750  142.3560 O   0  0  0  0  0  0  0  0  0  0  0  0
  184.8590  178.4570  143.0580 C   0  0  0  0  0  0  0  0  0  0  0  0
  185.6340  179.3630  142.6530 O   0  0  0  0  0  1  0  0  0  0  0  0
  186.3340  176.7640  147.7980 O   0  0  0  0  0  1  0  0  0  0  0  0
  187.3830  177.4320  147.1670 C   0  0  0  0  0  2  0  0  0  0  0  0
  1  2  2  0  0  0  0
  1  5  1  0  0  0  0
  2  4  1  0  0  0  0
  4  3  2  0  0  0  0
  5  7  1  0  0  0  0
  6  1  1  0  0  0  0
  7  3  1  0  0  0  0
  7 20  1  1  0  0  0
  8  9  2  0  0  0  0
  8  6  1  0  0  0  0
 11  9  1  0  0  0  0
 11 10  1  1  0  0  0
 12 13  1  1  0  0  0
 12 11  1  0  0  0  0
 12 14  1  0  0  0  0
 14 15  1  0  0  0  0
 16 15  1  0  0  0  0
 17 16  3  0  0  0  0
 19 18  1  0  0  0  0
 19 11  1  0  0  0  0
 20 23  1  0  0  0  0
 23 21  2  1  0  0  0
 23 22  1  0  0  0  0
 24 23  1  0  0  0  0
 25 24  1  0  0  0  0
 26 25  1  0  0  0  0
 27 26  1  6  0  0  0
 27 35  1  0  0  0  0
 28 27  1  0  0  0  0
 28 29  1  1  0  0  0
 30 28  1  0  0  0  0
 31 32  2  0  0  0  0
 32 30  1  0  0  0  0
 33 32  1  0  0  0  0
 35 34  1  0  0  0  0
M  END
>  <MODEL>
7

>  <REMARK>
 VINA RESULT:      -5.0      3.039      7.611
  Name = 
  17 active torsions:
  status: ('A' for Active; 'I' for Inactive)
    1  A    between atoms: C_3  and  C_4
    2  A    between atoms: C_3  and  C_21
    3  A    between atoms: C_3  and  C_31
    4  A    between atoms: C_4  and  C_27
    5  A    between atoms: C_5  and  N_30
    6  A    between atoms: C_7  and  C_10
    7  A    between atoms: C_8  and  C_15
    8  A    between atoms: C_10  and  C_19
    9  A    between atoms: C_12  and  C_15
   10  A    between atoms: C_12  and  C_19
   11  A    between atoms: C_15  and  O_33
   12  A    between atoms: O_16  and  P_22
   13  A    between atoms: O_16  and  C_35
   14  A    between atoms: C_18  and  C_21
   15  A    between atoms: C_18  and  C_26
   16  A    between atoms: P_22  and  O_32
   17  A    between atoms: C_27  and  O_32
                            x       y       z     vdW  Elec       q    Type
                         _______ _______ _______ _____ _____    ______ ____

>  <TORSDO>
F 17

$$$$
=
 OpenBabel11062421583D

 35 35  0  0  1  0  0  0  0  0999 V2000
  189.7410  176.4710  146.6220 C   0  0  0  0  0  0  0  0  0  0  0  0
  190.2420  175.8550  147.6550 N   0  0  0  0  0  0  0  0  0  0  0  0
  192.2390  175.1700  146.5000 C   0  0  0  0  0  3  0  0  0  0  0  0
  191.5640  175.2920  147.6460 C   0  0  0  0  0  3  0  0  0  0  0  0
  190.6080  176.7100  145.4120 C   0  0  0  0  0  2  0  0  0  0  0  0
  188.4170  177.0180  146.7170 N   0  0  0  0  0  2  0  0  0  0  0  0
  191.5700  175.5400  145.2080 C   0  0  1  0  0  3  0  0  0  0  0  0
  187.6520  177.6490  145.6790 C   0  0  0  0  0  3  0  0  0  0  0  0
  186.5660  177.1000  145.1390 C   0  0  0  0  0  3  0  0  0  0  0  0
  186.3910  179.0850  143.6070 C   0  0  0  0  0  1  0  0  0  0  0  0
  185.7550  177.7510  144.0410 C   0  0  1  0  0  0  0  0  0  0  0  0
  185.7540  176.7950  142.8300 C   0  0  1  0  0  3  0  0  0  0  0  0
  185.6410  177.5120  141.6360 O   0  0  0  0  0  1  0  0  0  0  0  0
  186.9790  175.8870  142.7600 C   0  0  0  0  0  2  0  0  0  0  0  0
  187.8460  176.2890  141.5830 C   0  0  0  0  0  2  0  0  0  0  0  0
  188.9050  177.1920  142.0350 C   0  0  0  0  0  0  0  0  0  0  0  0
  189.7400  177.9090  142.3910 N   0  0  0  0  0  0  0  0  0  0  0  0
  184.0770  179.2690  144.6150 C   0  0  0  0  0  1  0  0  0  0  0  0
  184.3980  177.9100  144.4360 O   0  0  0  0  0  0  0  0  0  0  0  0
  192.5260  175.8710  144.2450 O   0  0  0  0  0  0  0  0  0  0  0  0
  193.4170  173.4590  143.7280 O   0  0  0  0  0  0  0  0  0  0  0  0
  190.5990  173.8410  142.8090 S   0  0  0  0  0  1  0  0  0  0  0  0
  192.5610  174.5690  143.1550 P   0  0  1  0  0  0  0  0  0  0  0  0
  193.2350  175.1150  141.6960 O   0  0  0  0  0  0  0  0  0  0  0  0
  193.8700  176.3230  141.9990 C   0  0  0  0  0  2  0  0  0  0  0  0
  195.1790  176.4270  141.2340 C   0  0  0  0  0  2  0  0  0  0  0  0
  196.2480  175.5380  141.8560 C   0  0  2  0  0  3  0  0  0  0  0  0
  196.4830  175.9610  143.3080 C   0  0  2  0  0  3  0  0  0  0  0  0
  197.1870  177.1670  143.3740 O   0  0  0  0  0  1  0  0  0  0  0  0
  197.2100  174.8740  144.0860 C   0  0  0  0  0  2  0  0  0  0  0  0
  196.7630  173.3480  146.0060 O   0  0  0  0  0  1  0  0  0  0  0  0
  196.4520  174.5110  145.3150 C   0  0  0  0  0  0  0  0  0  0  0  0
  195.5480  175.2750  145.7460 O   0  0  0  0  0  0  0  0  0  0  0  0
  197.2050  175.6440  139.6600 O   0  0  0  0  0  1  0  0  0  0  0  0
  197.5230  175.5870  141.0170 C   0  0  0  0  0  2  0  0  0  0  0  0
  1  6  1  0  0  0  0
  1  2  2  0  0  0  0
  3  4  2  0  0  0  0
  4  2  1  0  0  0  0
  5  1  1  0  0  0  0
  7 20  1  6  0  0  0
  7  5  1  0  0  0  0
  7  3  1  0  0  0  0
  8  6  1  0  0  0  0
  9  8  2  0  0  0  0
 11 10  1  6  0  0  0
 11 19  1  0  0  0  0
 11  9  1  0  0  0  0
 12 13  1  6  0  0  0
 12 11  1  0  0  0  0
 14 12  1  0  0  0  0
 15 16  1  0  0  0  0
 15 14  1  0  0  0  0
 16 17  3  0  0  0  0
 19 18  1  0  0  0  0
 23 22  1  6  0  0  0
 23 21  2  0  0  0  0
 23 20  1  0  0  0  0
 24 25  1  0  0  0  0
 24 23  1  0  0  0  0
 26 27  1  0  0  0  0
 26 25  1  0  0  0  0
 27 35  1  6  0  0  0
 27 28  1  0  0  0  0
 28 29  1  6  0  0  0
 28 30  1  0  0  0  0
 30 32  1  0  0  0  0
 32 33  2  0  0  0  0
 32 31  1  0  0  0  0
 34 35  1  0  0  0  0
M  END
>  <MODEL>
8

>  <REMARK>
 VINA RESULT:      -5.0      3.462      7.049
  Name = 
  17 active torsions:
  status: ('A' for Active; 'I' for Inactive)
    1  A    between atoms: C_3  and  C_4
    2  A    between atoms: C_3  and  C_21
    3  A    between atoms: C_3  and  C_31
    4  A    between atoms: C_4  and  C_27
    5  A    between atoms: C_5  and  N_30
    6  A    between atoms: C_7  and  C_10
    7  A    between atoms: C_8  and  C_15
    8  A    between atoms: C_10  and  C_19
    9  A    between atoms: C_12  and  C_15
   10  A    between atoms: C_12  and  C_19
   11  A    between atoms: C_15  and  O_33
   12  A    between atoms: O_16  and  P_22
   13  A    between atoms: O_16  and  C_35
   14  A    between atoms: C_18  and  C_21
   15  A    between atoms: C_18  and  C_26
   16  A    between atoms: P_22  and  O_32
   17  A    between atoms: C_27  and  O_32
                            x       y       z     vdW  Elec       q    Type
                         _______ _______ _______ _____ _____    ______ ____

>  <TORSDO>
F 17

$$$$
=
 OpenBabel11062421583D

 35 35  0  0  1  0  0  0  0  0999 V2000
  192.1080  175.4940  146.3210 C   0  0  0  0  0  0  0  0  0  0  0  0
  191.2900  176.2190  147.0290 N   0  0  0  0  0  0  0  0  0  0  0  0
  189.3170  175.3770  145.9380 C   0  0  0  0  0  3  0  0  0  0  0  0
  189.8630  176.0830  146.9310 C   0  0  0  0  0  3  0  0  0  0  0  0
  191.5550  174.3920  145.4510 C   0  0  0  0  0  2  0  0  0  0  0  0
  193.5210  175.6810  146.4870 N   0  0  0  0  0  2  0  0  0  0  0  0
  190.2020  174.8020  144.8710 C   0  0  1  0  0  3  0  0  0  0  0  0
  194.5820  175.0560  145.7500 C   0  0  0  0  0  3  0  0  0  0  0  0
  195.0230  175.5140  144.5790 C   0  0  0  0  0  3  0  0  0  0  0  0
  195.6410  173.5690  143.1120 C   0  0  0  0  0  1  0  0  0  0  0  0
  196.1350  174.8610  143.7890 C   0  0  1  0  0  0  0  0  0  0  0  0
  196.5700  175.8520  142.6880 C   0  0  1  0  0  3  0  0  0  0  0  0
  197.0790  177.0240  143.2530 O   0  0  0  0  0  1  0  0  0  0  0  0
  197.5910  175.2790  141.7100 C   0  0  0  0  0  2  0  0  0  0  0  0
  197.2040  175.6490  140.2920 C   0  0  0  0  0  2  0  0  0  0  0  0
  195.7480  175.6110  140.1510 C   0  0  0  0  0  0  0  0  0  0  0  0
  194.5960  175.5770  140.0400 N   0  0  0  0  0  0  0  0  0  0  0  0
  197.5690  173.2600  144.7000 C   0  0  0  0  0  1  0  0  0  0  0  0
  197.2750  174.6340  144.6070 O   0  0  0  0  0  0  0  0  0  0  0  0
  189.5870  173.7000  144.2730 O   0  0  0  0  0  0  0  0  0  0  0  0
  190.1970  175.3560  142.3320 O   0  0  0  0  0  0  0  0  0  0  0  0
  190.1020  172.5160  141.4040 S   0  0  0  0  0  1  0  0  0  0  0  0
  189.4060  174.1000  142.6320 P   0  0  1  0  0  0  0  0  0  0  0  0
  187.7580  174.3750  142.3320 O   0  0  0  0  0  0  0  0  0  0  0  0
  187.6270  175.7570  142.1690 C   0  0  0  0  0  2  0  0  0  0  0  0
  186.4350  176.2630  142.9630 C   0  0  0  0  0  2  0  0  0  0  0  0
  186.4510  177.7820  143.0650 C   0  0  2  0  0  3  0  0  0  0  0  0
  186.4800  178.1950  144.5380 C   0  0  2  0  0  3  0  0  0  0  0  0
  187.7880  178.2060  145.0330 O   0  0  0  0  0  1  0  0  0  0  0  0
  185.5980  177.2870  145.3820 C   0  0  0  0  0  2  0  0  0  0  0  0
  184.8830  178.2150  147.5820 O   0  0  0  0  0  1  0  0  0  0  0  0
  184.6630  178.0910  146.2180 C   0  0  0  0  0  0  0  0  0  0  0  0
  183.6910  178.6850  145.6810 O   0  0  0  0  0  0  0  0  0  0  0  0
  185.4500  178.2540  140.9380 O   0  0  0  0  0  1  0  0  0  0  0  0
  185.2580  178.3710  142.3140 C   0  0  0  0  0  2  0  0  0  0  0  0
  1  6  1  0  0  0  0
  1  2  2  0  0  0  0
  3  4  2  0  0  0  0
  4  2  1  0  0  0  0
  5  1  1  0  0  0  0
  7 20  1  1  0  0  0
  7  5  1  0  0  0  0
  7  3  1  0  0  0  0
  8  6  1  0  0  0  0
  9  8  2  0  0  0  0
 11 10  1  6  0  0  0
 11  9  1  0  0  0  0
 11 19  1  0  0  0  0
 12 13  1  1  0  0  0
 12 11  1  0  0  0  0
 14 12  1  0  0  0  0
 15 14  1  0  0  0  0
 16 15  1  0  0  0  0
 17 16  3  0  0  0  0
 19 18  1  0  0  0  0
 21 23  2  0  0  0  0
 23 22  1  6  0  0  0
 23 20  1  0  0  0  0
 24 23  1  0  0  0  0
 25 24  1  0  0  0  0
 25 26  1  0  0  0  0
 26 27  1  0  0  0  0
 27 35  1  1  0  0  0
 27 28  1  0  0  0  0
 28 29  1  1  0  0  0
 28 30  1  0  0  0  0
 30 32  1  0  0  0  0
 32 31  1  0  0  0  0
 33 32  2  0  0  0  0
 34 35  1  0  0  0  0
M  END
>  <MODEL>
9

>  <REMARK>
 VINA RESULT:      -4.9      3.610      6.844
  Name = 
  17 active torsions:
  status: ('A' for Active; 'I' for Inactive)
    1  A    between atoms: C_3  and  C_4
    2  A    between atoms: C_3  and  C_21
    3  A    between atoms: C_3  and  C_31
    4  A    between atoms: C_4  and  C_27
    5  A    between atoms: C_5  and  N_30
    6  A    between atoms: C_7  and  C_10
    7  A    between atoms: C_8  and  C_15
    8  A    between atoms: C_10  and  C_19
    9  A    between atoms: C_12  and  C_15
   10  A    between atoms: C_12  and  C_19
   11  A    between atoms: C_15  and  O_33
   12  A    between atoms: O_16  and  P_22
   13  A    between atoms: O_16  and  C_35
   14  A    between atoms: C_18  and  C_21
   15  A    between atoms: C_18  and  C_26
   16  A    between atoms: P_22  and  O_32
   17  A    between atoms: C_27  and  O_32
                            x       y       z     vdW  Elec       q    Type
                         _______ _______ _______ _____ _____    ______ ____

>  <TORSDO>
F 17

$$$$
