=
 OpenBabel11062421473D

 48 53  0  0  1  0  0  0  0  0999 V2000
  192.6040  170.8830  140.9830 C   0  0  2  0  0  3  0  0  0  0  0  0
  193.2640  174.4030  146.2270 C   0  0  0  0  0  2  0  0  0  0  0  0
  190.1320  171.0540  140.7050 C   0  0  0  0  0  3  0  0  0  0  0  0
  195.3870  172.5410  140.6360 C   0  0  0  0  0  2  0  0  0  0  0  0
  190.9680  172.8940  143.8430 C   0  0  1  0  0  3  0  0  0  0  0  0
  195.1960  169.3600  142.0700 O   0  0  0  0  0  0  0  0  0  0  0  0
  189.8130  173.8630  144.1210 C   0  0  1  0  0  3  0  0  0  0  0  0
  193.7300  173.8590  143.0670 C   0  0  2  0  0  3  0  0  0  0  0  0
  192.1330  175.1880  145.5810 C   0  0  0  0  0  2  0  0  0  0  0  0
  195.6930  171.2660  139.8580 C   0  0  0  0  0  2  0  0  0  0  0  0
  190.0190  171.7560  141.8330 C   0  0  0  0  0  3  0  0  0  0  0  0
  194.1630  169.0270  141.1920 C   0  0  0  0  0  0  0  0  0  0  0  0
  190.8080  171.7250  144.5920 O   0  0  0  0  0  1  0  0  0  0  0  0
  196.4670  169.6420  141.6450 O   0  0  0  0  0  0  0  0  0  0  0  0
  194.4620  173.3060  144.2990 C   0  0  0  0  0  2  0  0  0  0  0  0
  192.5800  171.8960  142.1530 C   0  0  1  0  0  3  0  0  0  0  0  0
  193.6560  172.8900  141.9540 N   0  0  2  0  0  0  0  0  0  0  0  0
  197.9410  170.5450  140.1360 O   0  0  0  0  0  0  0  0  0  0  0  0
  193.5310  173.0990  145.4870 C   0  0  0  0  0  2  0  0  0  0  0  0
  194.8420  172.2220  141.8850 O   0  0  0  0  0  0  0  0  0  0  0  0
  191.4460  171.0580  139.9880 C   0  0  2  0  0  3  0  0  0  0  0  0
  191.1830  172.5640  142.3650 C   0  0  2  0  0  3  0  0  0  0  0  0
  190.8140  174.8980  146.2270 C   0  0  0  0  0  0  0  0  0  0  0  0
  194.4110  168.4450  140.1040 O   0  0  0  0  0  0  0  0  0  0  0  0
  196.7510  170.4500  140.5360 C   0  0  0  0  0  0  0  0  0  0  0  0
  192.7740  169.4610  141.4990 C   0  0  0  0  0  2  0  0  0  0  0  0
  189.7990  174.3250  145.5600 C   0  0  0  0  0  3  0  0  0  0  0  0
  188.3070  175.0710  142.5450 C   0  0  0  0  0  0  0  0  0  0  0  0
  189.2780  178.2120  142.3820 C   0  0  0  0  0  1  0  0  0  0  0  0
  187.6790  174.1360  141.9810 O   0  0  0  0  0  0  0  0  0  0  0  0
  188.8250  177.1110  143.3220 C   0  0  0  0  0  0  0  0  0  0  0  0
  187.8230  176.3310  142.6970 O   0  0  0  0  0  0  0  0  0  0  0  0
  188.2740  177.7320  144.5900 C   0  0  0  0  0  1  0  0  0  0  0  0
  189.6660  174.9920  143.0840 C   0  0  1  0  0  3  0  0  0  0  0  0
  189.9310  176.2690  143.6390 O   0  0  0  0  0  0  0  0  0  0  0  0
  191.7240  168.3130  136.6870 C   0  0  0  0  0  3  0  0  0  0  0  0
  190.5820  169.0590  138.6870 C   0  0  0  0  0  3  0  0  0  0  0  0
  190.6920  168.1660  137.6180 C   0  0  0  0  0  3  0  0  0  0  0  0
  193.9410  169.5330  135.6640 Cl  0  0  0  0  0  0  0  0  0  0  0  0
  191.5030  170.1100  138.8260 C   0  0  0  0  0  0  0  0  0  0  0  0
  192.6480  169.3510  136.8270 C   0  0  0  0  0  0  0  0  0  0  0  0
  192.5400  170.2450  137.8960 C   0  0  0  0  0  3  0  0  0  0  0  0
  193.8650  175.5570  141.3180 C   0  0  2  0  0  3  0  0  0  0  0  0
  194.4320  175.1220  142.5900 C   0  0  1  0  0  3  0  0  0  0  0  0
  194.8020  176.3340  140.6370 O   0  0  0  0  0  1  0  0  0  0  0  0
  193.4780  176.2420  142.5600 N   0  0  0  0  0  2  0  0  0  0  0  0
  191.0500  176.4930  148.0480 O   0  0  0  0  0  1  0  0  0  0  0  0
  190.6300  175.2890  147.5900 N   0  0  0  0  0  2  0  0  0  0  0  0
  1 26  1  1  0  0  0
  1 16  1  0  0  0  0
  3 11  2  0  0  0  0
  4 20  1  0  0  0  0
  5  7  1  0  0  0  0
  5 13  1  1  0  0  0
  7 27  1  1  0  0  0
  8 15  1  1  0  0  0
  9  2  1  0  0  0  0
  9 23  1  0  0  0  0
 10 25  1  0  0  0  0
 10  4  1  0  0  0  0
 11 22  1  0  0  0  0
 12 26  1  0  0  0  0
 12  6  1  0  0  0  0
 14  6  1  0  0  0  0
 15 19  1  0  0  0  0
 16 22  1  0  0  0  0
 17 16  1  0  0  0  0
 17  8  1  0  0  0  0
 18 25  2  0  0  0  0
 19  2  1  0  0  0  0
 20 17  1  0  0  0  0
 21  3  1  0  0  0  0
 21  1  1  0  0  0  0
 22  5  1  0  0  0  0
 23 48  1  0  0  0  0
 24 12  2  0  0  0  0
 25 14  1  0  0  0  0
 27 23  2  0  0  0  0
 28 32  1  0  0  0  0
 28 34  1  0  0  0  0
 29 31  1  0  0  0  0
 30 28  2  0  0  0  0
 31 35  1  0  0  0  0
 31 33  1  0  0  0  0
 32 31  1  0  0  0  0
 34 35  1  0  0  0  0
 34  7  1  0  0  0  0
 36 41  2  0  0  0  0
 36 38  1  0  0  0  0
 37 40  1  0  0  0  0
 38 37  2  0  0  0  0
 39 41  1  0  0  0  0
 40 21  1  0  0  0  0
 41 42  1  0  0  0  0
 42 40  2  0  0  0  0
 43 46  1  0  0  0  0
 43 44  1  0  0  0  0
 44  8  1  0  0  0  0
 45 43  1  0  0  0  0
 46 44  1  0  0  0  0
 48 47  1  0  0  0  0
M  END
>  <MODEL>
1

>  <REMARK>
 VINA RESULT:      -7.2      0.000      0.000
  Name = 
  4 active torsions:
  status: ('A' for Active; 'I' for Inactive)
    1  A    between atoms: CA_16  and  C_19
    2  A    between atoms: C_18  and  C_34
    3  A    between atoms: N_27  and  C_40
    4  A    between atoms: C_30  and  C_37
                            x       y       z     vdW  Elec       q    Type
                         _______ _______ _______ _____ _____    ______ ____

>  <TORSDO>
F 4

$$$$
=
 OpenBabel11062421473D

 48 53  0  0  1  0  0  0  0  0999 V2000
  192.2640  171.9570  143.5750 C   0  0  2  0  0  3  0  0  0  0  0  0
  191.0780  176.8690  147.4210 C   0  0  0  0  0  2  0  0  0  0  0  0
  189.9810  171.6450  142.6220 C   0  0  0  0  0  3  0  0  0  0  0  0
  194.8970  173.8730  143.4610 C   0  0  0  0  0  2  0  0  0  0  0  0
  189.7100  174.4030  145.1230 C   0  0  1  0  0  3  0  0  0  0  0  0
  194.5190  171.2360  145.7240 O   0  0  0  0  0  0  0  0  0  0  0  0
  188.4580  175.2140  144.7690 C   0  0  1  0  0  3  0  0  0  0  0  0
  192.5000  175.5390  144.8310 C   0  0  2  0  0  3  0  0  0  0  0  0
  190.1360  177.2500  146.2880 C   0  0  0  0  0  2  0  0  0  0  0  0
  195.5110  172.4970  143.2340 C   0  0  0  0  0  2  0  0  0  0  0  0
  189.4870  172.6080  143.4010 C   0  0  0  0  0  3  0  0  0  0  0  0
  193.8200  170.5090  144.7580 C   0  0  0  0  0  0  0  0  0  0  0  0
  189.4200  173.4820  146.1340 O   0  0  0  0  0  1  0  0  0  0  0  0
  195.8350  171.5870  145.5790 O   0  0  0  0  0  0  0  0  0  0  0  0
  192.8710  175.4800  146.3210 C   0  0  0  0  0  2  0  0  0  0  0  0
  191.8190  173.2410  144.3170 C   0  0  1  0  0  3  0  0  0  0  0  0
  192.8310  174.2980  144.1010 N   0  0  2  0  0  0  0  0  0  0  0  0
  197.6210  172.2530  144.3010 O   0  0  0  0  0  0  0  0  0  0  0  0
  191.6470  175.4700  147.2270 C   0  0  0  0  0  2  0  0  0  0  0  0
  194.0290  173.8360  144.5600 O   0  0  0  0  0  0  0  0  0  0  0  0
  191.4440  171.6570  142.3100 C   0  0  2  0  0  3  0  0  0  0  0  0
  190.3790  173.7090  143.9340 C   0  0  2  0  0  3  0  0  0  0  0  0
  188.7090  176.9450  146.6260 C   0  0  0  0  0  0  0  0  0  0  0  0
  194.4220  169.6920  144.0140 O   0  0  0  0  0  0  0  0  0  0  0  0
  196.3770  172.0840  144.3860 C   0  0  0  0  0  0  0  0  0  0  0  0
  192.3750  170.7840  144.5390 C   0  0  0  0  0  2  0  0  0  0  0  0
  187.9830  176.0540  145.9330 C   0  0  0  0  0  3  0  0  0  0  0  0
  187.4890  175.5590  142.4990 C   0  0  0  0  0  0  0  0  0  0  0  0
  187.9790  178.6950  141.6270 C   0  0  0  0  0  1  0  0  0  0  0  0
  187.2600  174.3840  142.1070 O   0  0  0  0  0  0  0  0  0  0  0  0
  187.3750  177.7920  142.6860 C   0  0  0  0  0  0  0  0  0  0  0  0
  186.8040  176.6520  142.0720 O   0  0  0  0  0  0  0  0  0  0  0  0
  186.3060  178.5550  143.4420 C   0  0  0  0  0  1  0  0  0  0  0  0
  188.5440  175.9660  143.4290 C   0  0  1  0  0  3  0  0  0  0  0  0
  188.3930  177.3660  143.5880 O   0  0  0  0  0  0  0  0  0  0  0  0
  192.8840  168.1680  140.2440 C   0  0  0  0  0  3  0  0  0  0  0  0
  191.1100  169.2970  141.4420 C   0  0  0  0  0  3  0  0  0  0  0  0
  191.5940  168.1660  140.7810 C   0  0  0  0  0  3  0  0  0  0  0  0
  195.3070  169.3050  139.7020 Cl  0  0  0  0  0  0  0  0  0  0  0  0
  191.9130  170.4420  141.5640 C   0  0  0  0  0  0  0  0  0  0  0  0
  193.6920  169.3020  140.3710 C   0  0  0  0  0  0  0  0  0  0  0  0
  193.2080  170.4350  141.0330 C   0  0  0  0  0  3  0  0  0  0  0  0
  193.0190  176.6800  142.7360 C   0  0  2  0  0  3  0  0  0  0  0  0
  193.2190  176.7130  144.1800 C   0  0  1  0  0  3  0  0  0  0  0  0
  194.0560  177.3720  142.1110 O   0  0  0  0  0  1  0  0  0  0  0  0
  192.2380  177.6150  143.5580 N   0  0  0  0  0  2  0  0  0  0  0  0
  186.8470  178.1730  147.5950 O   0  0  0  0  0  1  0  0  0  0  0  0
  188.1010  177.6700  147.6980 N   0  0  0  0  0  2  0  0  0  0  0  0
  1 16  1  0  0  0  0
  1 26  1  1  0  0  0
  3 11  2  0  0  0  0
  4 20  1  0  0  0  0
  5 13  1  1  0  0  0
  7  5  1  0  0  0  0
  7 27  1  1  0  0  0
  8 15  1  1  0  0  0
  9 23  1  0  0  0  0
  9  2  1  0  0  0  0
 10  4  1  0  0  0  0
 10 25  1  0  0  0  0
 11 22  1  0  0  0  0
 12  6  1  0  0  0  0
 14  6  1  0  0  0  0
 15 19  1  0  0  0  0
 17 16  1  0  0  0  0
 17 20  1  0  0  0  0
 17  8  1  0  0  0  0
 18 25  2  0  0  0  0
 19  2  1  0  0  0  0
 21  3  1  0  0  0  0
 21  1  1  0  0  0  0
 22 16  1  0  0  0  0
 22  5  1  0  0  0  0
 23 48  1  0  0  0  0
 24 12  2  0  0  0  0
 25 14  1  0  0  0  0
 26 12  1  0  0  0  0
 27 23  2  0  0  0  0
 28 34  1  0  0  0  0
 29 31  1  0  0  0  0
 30 28  2  0  0  0  0
 31 33  1  0  0  0  0
 31 35  1  0  0  0  0
 32 28  1  0  0  0  0
 32 31  1  0  0  0  0
 34 35  1  0  0  0  0
 34  7  1  0  0  0  0
 36 41  2  0  0  0  0
 36 38  1  0  0  0  0
 37 40  1  0  0  0  0
 38 37  2  0  0  0  0
 39 41  1  0  0  0  0
 40 21  1  0  0  0  0
 41 42  1  0  0  0  0
 42 40  2  0  0  0  0
 43 46  1  0  0  0  0
 43 44  1  0  0  0  0
 44  8  1  0  0  0  0
 45 43  1  0  0  0  0
 46 44  1  0  0  0  0
 47 48  1  0  0  0  0
M  END
>  <MODEL>
2

>  <REMARK>
 VINA RESULT:      -7.0      2.351      2.992
  Name = 
  4 active torsions:
  status: ('A' for Active; 'I' for Inactive)
    1  A    between atoms: CA_16  and  C_19
    2  A    between atoms: C_18  and  C_34
    3  A    between atoms: N_27  and  C_40
    4  A    between atoms: C_30  and  C_37
                            x       y       z     vdW  Elec       q    Type
                         _______ _______ _______ _____ _____    ______ ____

>  <TORSDO>
F 4

$$$$
=
 OpenBabel11062421473D

 48 53  0  0  1  0  0  0  0  0999 V2000
  192.2660  174.5100  142.9340 C   0  0  2  0  0  3  0  0  0  0  0  0
  195.9050  172.6210  138.0850 C   0  0  0  0  0  2  0  0  0  0  0  0
  190.0450  174.4520  141.8020 C   0  0  0  0  0  3  0  0  0  0  0  0
  194.5920  172.6180  144.2100 C   0  0  0  0  0  2  0  0  0  0  0  0
  192.5710  173.5430  139.2090 C   0  0  1  0  0  3  0  0  0  0  0  0
  194.8880  176.0830  143.8660 O   0  0  0  0  0  0  0  0  0  0  0  0
  191.8300  172.7850  138.1020 C   0  0  1  0  0  3  0  0  0  0  0  0
  194.5890  172.1900  141.0140 C   0  0  2  0  0  3  0  0  0  0  0  0
  194.6820  171.7690  137.7810 C   0  0  0  0  0  2  0  0  0  0  0  0
  194.3240  173.5860  145.3560 C   0  0  0  0  0  2  0  0  0  0  0  0
  190.6070  174.1190  140.6400 C   0  0  0  0  0  3  0  0  0  0  0  0
  193.5230  176.2240  144.1180 C   0  0  0  0  0  0  0  0  0  0  0  0
  192.7210  174.8880  138.8580 O   0  0  0  0  0  1  0  0  0  0  0  0
  195.7670  175.5950  144.7970 O   0  0  0  0  0  0  0  0  0  0  0  0
  195.8050  173.0190  140.5720 C   0  0  0  0  0  2  0  0  0  0  0  0
  192.9540  173.8840  141.6970 C   0  0  1  0  0  3  0  0  0  0  0  0
  193.8520  172.7970  142.1410 N   0  0  2  0  0  0  0  0  0  0  0  0
  196.3050  174.1850  146.5260 O   0  0  0  0  0  0  0  0  0  0  0  0
  195.6220  173.6300  139.1890 C   0  0  0  0  0  2  0  0  0  0  0  0
  194.7580  173.3250  143.0130 O   0  0  0  0  0  0  0  0  0  0  0  0
  190.7800  174.1420  143.0680 C   0  0  2  0  0  3  0  0  0  0  0  0
  191.9460  173.4130  140.6000 C   0  0  2  0  0  3  0  0  0  0  0  0
  193.8790  172.3330  136.6500 C   0  0  0  0  0  0  0  0  0  0  0  0
  193.1070  176.4460  145.2850 O   0  0  0  0  0  0  0  0  0  0  0  0
  195.4990  174.4820  145.6050 C   0  0  0  0  0  0  0  0  0  0  0  0
  192.5490  176.0040  143.0150 C   0  0  0  0  0  2  0  0  0  0  0  0
  192.6170  172.7620  136.8110 C   0  0  0  0  0  3  0  0  0  0  0  0
  189.8460  171.2800  138.2000 C   0  0  0  0  0  0  0  0  0  0  0  0
  190.8950  168.1660  137.9900 C   0  0  0  0  0  1  0  0  0  0  0  0
  188.9210  172.0540  138.5630 O   0  0  0  0  0  0  0  0  0  0  0  0
  190.9080  169.5190  137.3020 C   0  0  0  0  0  0  0  0  0  0  0  0
  189.6530  170.1510  137.4680 O   0  0  0  0  0  0  0  0  0  0  0  0
  191.1920  169.3250  135.8260 C   0  0  0  0  0  1  0  0  0  0  0  0
  191.2660  171.4190  138.5320 C   0  0  1  0  0  3  0  0  0  0  0  0
  191.9170  170.3410  137.8840 O   0  0  0  0  0  0  0  0  0  0  0  0
  188.8090  175.7380  146.5440 C   0  0  0  0  0  3  0  0  0  0  0  0
  190.3650  174.1600  145.5710 C   0  0  0  0  0  3  0  0  0  0  0  0
  189.7090  174.6780  146.6900 C   0  0  0  0  0  3  0  0  0  0  0  0
  187.4380  177.6030  145.0960 Cl  0  0  0  0  0  0  0  0  0  0  0  0
  190.1300  174.7060  144.2990 C   0  0  0  0  0  0  0  0  0  0  0  0
  188.5650  176.2780  145.2790 C   0  0  0  0  0  0  0  0  0  0  0  0
  189.2210  175.7600  144.1580 C   0  0  0  0  0  3  0  0  0  0  0  0
  193.9180  170.0150  141.9000 C   0  0  2  0  0  3  0  0  0  0  0  0
  195.0490  170.7930  141.4070 C   0  0  1  0  0  3  0  0  0  0  0  0
  194.3840  168.9970  142.7300 O   0  0  0  0  0  1  0  0  0  0  0  0
  194.4140  169.7940  140.5340 N   0  0  0  0  0  2  0  0  0  0  0  0
  194.9170  173.5260  134.8030 O   0  0  0  0  0  1  0  0  0  0  0  0
  194.4750  172.3690  135.3510 N   0  0  0  0  0  2  0  0  0  0  0  0
  1 26  1  6  0  0  0
  1 21  1  0  0  0  0
  2 19  1  0  0  0  0
  3 21  1  0  0  0  0
  4 10  1  0  0  0  0
  5 13  1  6  0  0  0
  5 22  1  0  0  0  0
  6 12  1  0  0  0  0
  6 14  1  0  0  0  0
  7 27  1  6  0  0  0
  7 34  1  0  0  0  0
  7  5  1  0  0  0  0
  8 15  1  1  0  0  0
  8 44  1  0  0  0  0
  8 17  1  0  0  0  0
  9  2  1  0  0  0  0
 10 25  1  0  0  0  0
 11  3  2  0  0  0  0
 12 24  2  0  0  0  0
 14 25  1  0  0  0  0
 16 17  1  0  0  0  0
 16  1  1  0  0  0  0
 17 20  1  0  0  0  0
 19 15  1  0  0  0  0
 20  4  1  0  0  0  0
 21 40  1  0  0  0  0
 22 11  1  0  0  0  0
 22 16  1  0  0  0  0
 23 27  2  0  0  0  0
 23  9  1  0  0  0  0
 25 18  2  0  0  0  0
 26 12  1  0  0  0  0
 28 34  1  0  0  0  0
 28 30  2  0  0  0  0
 31 32  1  0  0  0  0
 31 35  1  0  0  0  0
 31 29  1  0  0  0  0
 32 28  1  0  0  0  0
 33 31  1  0  0  0  0
 35 34  1  0  0  0  0
 36 38  1  0  0  0  0
 37 38  2  0  0  0  0
 39 41  1  0  0  0  0
 40 37  1  0  0  0  0
 41 36  2  0  0  0  0
 42 40  2  0  0  0  0
 42 41  1  0  0  0  0
 43 45  1  0  0  0  0
 44 43  1  0  0  0  0
 46 44  1  0  0  0  0
 46 43  1  0  0  0  0
 47 48  1  0  0  0  0
 48 23  1  0  0  0  0
M  END
>  <MODEL>
3

>  <REMARK>
 VINA RESULT:      -6.6      3.376      7.912
  Name = 
  4 active torsions:
  status: ('A' for Active; 'I' for Inactive)
    1  A    between atoms: CA_16  and  C_19
    2  A    between atoms: C_18  and  C_34
    3  A    between atoms: N_27  and  C_40
    4  A    between atoms: C_30  and  C_37
                            x       y       z     vdW  Elec       q    Type
                         _______ _______ _______ _____ _____    ______ ____

>  <TORSDO>
F 4

$$$$
=
 OpenBabel11062421473D

 48 53  0  0  1  0  0  0  0  0999 V2000
  190.2860  175.4390  142.8760 C   0  0  2  0  0  3  0  0  0  0  0  0
  195.1150  172.4700  140.0140 C   0  0  0  0  0  2  0  0  0  0  0  0
  188.4520  174.8050  141.3100 C   0  0  0  0  0  3  0  0  0  0  0  0
  192.2000  174.2930  145.2510 C   0  0  0  0  0  2  0  0  0  0  0  0
  191.5920  173.3690  139.8910 C   0  0  1  0  0  3  0  0  0  0  0  0
  192.5450  177.4790  143.8560 O   0  0  0  0  0  0  0  0  0  0  0  0
  191.1840  172.2290  138.9520 C   0  0  1  0  0  3  0  0  0  0  0  0
  193.0620  172.8690  142.4890 C   0  0  2  0  0  3  0  0  0  0  0  0
  194.0260  171.4500  139.7150 C   0  0  0  0  0  2  0  0  0  0  0  0
  191.6240  175.5450  145.9020 C   0  0  0  0  0  2  0  0  0  0  0  0
  189.3100  174.1750  140.5070 C   0  0  0  0  0  3  0  0  0  0  0  0
  191.1610  177.5570  143.6950 C   0  0  0  0  0  0  0  0  0  0  0  0
  191.8180  174.5400  139.1610 O   0  0  0  0  0  1  0  0  0  0  0  0
  193.1450  177.4030  145.0850 O   0  0  0  0  0  0  0  0  0  0  0  0
  194.3440  173.6290  142.1160 C   0  0  0  0  0  2  0  0  0  0  0  0
  191.2880  174.5230  142.1340 C   0  0  1  0  0  3  0  0  0  0  0  0
  192.0430  173.7280  143.1260 N   0  0  2  0  0  0  0  0  0  0  0  0
  193.2110  176.6780  147.2620 O   0  0  0  0  0  0  0  0  0  0  0  0
  194.5350  173.7470  140.6090 C   0  0  0  0  0  2  0  0  0  0  0  0
  192.6750  174.5940  143.9680 O   0  0  0  0  0  0  0  0  0  0  0  0
  188.8220  174.9890  142.7490 C   0  0  2  0  0  3  0  0  0  0  0  0
  190.6170  173.6290  141.0410 C   0  0  2  0  0  3  0  0  0  0  0  0
  193.5520  171.5420  138.2980 C   0  0  0  0  0  0  0  0  0  0  0  0
  190.4440  178.0970  144.5770 O   0  0  0  0  0  0  0  0  0  0  0  0
  192.6800  176.5840  146.1240 C   0  0  0  0  0  0  0  0  0  0  0  0
  190.5230  176.9010  142.5230 C   0  0  0  0  0  2  0  0  0  0  0  0
  192.2900  171.8730  137.9840 C   0  0  0  0  0  3  0  0  0  0  0  0
  190.0700  170.0130  138.7050 C   0  0  0  0  0  0  0  0  0  0  0  0
  190.8440  168.1660  141.3180 C   0  0  0  0  0  1  0  0  0  0  0  0
  189.2620  170.2070  137.7590 O   0  0  0  0  0  0  0  0  0  0  0  0
  191.4170  168.9680  140.1640 C   0  0  0  0  0  0  0  0  0  0  0  0
  190.6030  168.8030  139.0180 O   0  0  0  0  0  0  0  0  0  0  0  0
  192.8220  168.4820  139.8680 C   0  0  0  0  0  1  0  0  0  0  0  0
  190.5380  171.0230  139.6580 C   0  0  1  0  0  3  0  0  0  0  0  0
  191.4470  170.3500  140.5110 O   0  0  0  0  0  0  0  0  0  0  0  0
  185.9720  177.3840  144.9070 C   0  0  0  0  0  3  0  0  0  0  0  0
  187.9830  176.0360  144.9020 C   0  0  0  0  0  3  0  0  0  0  0  0
  187.0430  176.8040  145.5930 C   0  0  0  0  0  3  0  0  0  0  0  0
  184.4990  177.9150  142.6700 Cl  0  0  0  0  0  0  0  0  0  0  0  0
  187.8600  175.8490  143.5150 C   0  0  0  0  0  0  0  0  0  0  0  0
  185.8400  177.1920  143.5290 C   0  0  0  0  0  0  0  0  0  0  0  0
  186.7790  176.4230  142.8360 C   0  0  0  0  0  3  0  0  0  0  0  0
  192.3270  170.7500  143.4550 C   0  0  2  0  0  3  0  0  0  0  0  0
  193.4130  171.7230  143.4280 C   0  0  1  0  0  3  0  0  0  0  0  0
  192.3810  170.0310  144.6480 O   0  0  0  0  0  1  0  0  0  0  0  0
  193.5340  170.4720  142.6650 N   0  0  0  0  0  2  0  0  0  0  0  0
  195.0690  172.1820  136.5080 O   0  0  0  0  0  1  0  0  0  0  0  0
  194.4760  171.2200  137.2550 N   0  0  0  0  0  2  0  0  0  0  0  0
  1 26  1  6  0  0  0
  2 19  1  0  0  0  0
  3 21  1  0  0  0  0
  4 10  1  0  0  0  0
  5 13  1  6  0  0  0
  5 22  1  0  0  0  0
  6 14  1  0  0  0  0
  7 27  1  1  0  0  0
  7 34  1  0  0  0  0
  7  5  1  0  0  0  0
  8 15  1  1  0  0  0
  8 17  1  0  0  0  0
  8 44  1  0  0  0  0
  9  2  1  0  0  0  0
 10 25  1  0  0  0  0
 11 22  1  0  0  0  0
 11  3  2  0  0  0  0
 12  6  1  0  0  0  0
 12 24  2  0  0  0  0
 14 25  1  0  0  0  0
 16  1  1  0  0  0  0
 16 17  1  0  0  0  0
 17 20  1  0  0  0  0
 19 15  1  0  0  0  0
 20  4  1  0  0  0  0
 21  1  1  0  0  0  0
 21 40  1  0  0  0  0
 22 16  1  0  0  0  0
 23  9  1  0  0  0  0
 25 18  2  0  0  0  0
 26 12  1  0  0  0  0
 27 23  2  0  0  0  0
 28 32  1  0  0  0  0
 28 34  1  0  0  0  0
 30 28  2  0  0  0  0
 31 35  1  0  0  0  0
 31 29  1  0  0  0  0
 32 31  1  0  0  0  0
 33 31  1  0  0  0  0
 34 35  1  0  0  0  0
 36 38  1  0  0  0  0
 37 38  2  0  0  0  0
 39 41  1  0  0  0  0
 40 37  1  0  0  0  0
 41 36  2  0  0  0  0
 42 40  2  0  0  0  0
 42 41  1  0  0  0  0
 43 45  1  0  0  0  0
 44 43  1  0  0  0  0
 46 44  1  0  0  0  0
 46 43  1  0  0  0  0
 47 48  1  0  0  0  0
 48 23  1  0  0  0  0
M  END
>  <MODEL>
4

>  <REMARK>
 VINA RESULT:      -6.4      3.262      8.126
  Name = 
  4 active torsions:
  status: ('A' for Active; 'I' for Inactive)
    1  A    between atoms: CA_16  and  C_19
    2  A    between atoms: C_18  and  C_34
    3  A    between atoms: N_27  and  C_40
    4  A    between atoms: C_30  and  C_37
                            x       y       z     vdW  Elec       q    Type
                         _______ _______ _______ _____ _____    ______ ____

>  <TORSDO>
F 4

$$$$
=
 OpenBabel11062421473D

 48 53  0  0  1  0  0  0  0  0999 V2000
  192.7170  173.7390  142.2890 C   0  0  2  0  0  3  0  0  0  0  0  0
  194.0180  170.3060  137.1080 C   0  0  0  0  0  2  0  0  0  0  0  0
  194.9390  174.8250  142.6080 C   0  0  0  0  0  3  0  0  0  0  0  0
  190.0290  173.7930  140.4490 C   0  0  0  0  0  2  0  0  0  0  0  0
  195.2980  172.5310  139.6860 C   0  0  1  0  0  3  0  0  0  0  0  0
  190.6330  171.3980  142.9220 O   0  0  0  0  0  0  0  0  0  0  0  0
  196.5000  173.0210  138.8710 C   0  0  1  0  0  3  0  0  0  0  0  0
  192.4630  172.7010  138.6390 C   0  0  2  0  0  3  0  0  0  0  0  0
  194.8700  171.5230  136.7800 C   0  0  0  0  0  2  0  0  0  0  0  0
  189.4400  173.8890  141.8520 C   0  0  0  0  0  2  0  0  0  0  0  0
  195.4560  174.1450  141.5840 C   0  0  0  0  0  3  0  0  0  0  0  0
  191.2860  172.3610  143.6940 C   0  0  0  0  0  0  0  0  0  0  0  0
  195.6820  171.4850  140.5310 O   0  0  0  0  0  1  0  0  0  0  0  0
  189.3000  171.4740  142.6130 O   0  0  0  0  0  0  0  0  0  0  0  0
  192.1950  171.1890  138.6090 C   0  0  0  0  0  2  0  0  0  0  0  0
  193.1730  173.1140  140.9490 C   0  0  1  0  0  3  0  0  0  0  0  0
  192.1200  173.3250  139.9340 N   0  0  2  0  0  0  0  0  0  0  0  0
  187.4140  172.6650  142.0760 O   0  0  0  0  0  0  0  0  0  0  0  0
  193.4770  170.3700  138.5300 C   0  0  0  0  0  2  0  0  0  0  0  0
  190.9690  172.7570  140.3930 O   0  0  0  0  0  0  0  0  0  0  0  0
  193.4580  175.0360  142.6520 C   0  0  2  0  0  3  0  0  0  0  0  0
  194.5710  173.6230  140.4730 C   0  0  2  0  0  3  0  0  0  0  0  0
  196.3240  171.2660  137.0270 C   0  0  0  0  0  0  0  0  0  0  0  0
  190.6590  173.0080  144.5730 O   0  0  0  0  0  0  0  0  0  0  0  0
  188.6660  172.6560  142.2080 C   0  0  0  0  0  0  0  0  0  0  0  0
  192.7040  172.6960  143.3990 C   0  0  0  0  0  2  0  0  0  0  0  0
  197.0280  171.9490  137.9440 C   0  0  0  0  0  3  0  0  0  0  0  0
  197.4520  175.2800  138.4210 C   0  0  0  0  0  0  0  0  0  0  0  0
  196.3370  176.3130  135.5000 C   0  0  0  0  0  1  0  0  0  0  0  0
  197.9380  175.6090  139.5350 O   0  0  0  0  0  0  0  0  0  0  0  0
  197.0820  175.1970  136.2090 C   0  0  0  0  0  0  0  0  0  0  0  0
  197.9030  175.7420  137.2250 O   0  0  0  0  0  0  0  0  0  0  0  0
  197.9390  174.4520  135.2040 C   0  0  0  0  0  1  0  0  0  0  0  0
  196.3020  174.3970  138.2100 C   0  0  1  0  0  3  0  0  0  0  0  0
  196.1470  174.3020  136.8050 O   0  0  0  0  0  0  0  0  0  0  0  0
  191.9740  176.7810  146.2940 C   0  0  0  0  0  3  0  0  0  0  0  0
  193.7410  175.6350  145.1010 C   0  0  0  0  0  3  0  0  0  0  0  0
  193.2420  176.1920  146.2800 C   0  0  0  0  0  3  0  0  0  0  0  0
  189.6160  177.5410  145.1460 Cl  0  0  0  0  0  0  0  0  0  0  0  0
  192.9750  175.6690  143.9240 C   0  0  0  0  0  0  0  0  0  0  0  0
  191.2040  176.8080  145.1290 C   0  0  0  0  0  0  0  0  0  0  0  0
  191.7020  176.2500  143.9480 C   0  0  0  0  0  3  0  0  0  0  0  0
  192.4300  174.4910  136.9790 C   0  0  2  0  0  3  0  0  0  0  0  0
  191.6690  173.3750  137.5290 C   0  0  1  0  0  3  0  0  0  0  0  0
  191.5540  175.4010  136.3890 O   0  0  0  0  0  1  0  0  0  0  0  0
  192.3720  173.2180  136.2470 N   0  0  0  0  0  2  0  0  0  0  0  0
  197.1660  170.4680  134.8890 O   0  0  0  0  0  1  0  0  0  0  0  0
  196.9830  170.2870  136.2190 N   0  0  0  0  0  2  0  0  0  0  0  0
  1 21  1  0  0  0  0
  1 26  1  1  0  0  0
  2 19  1  0  0  0  0
  3 21  1  0  0  0  0
  4 10  1  0  0  0  0
  5 22  1  0  0  0  0
  5 13  1  1  0  0  0
  6 12  1  0  0  0  0
  7 27  1  6  0  0  0
  7  5  1  0  0  0  0
  8 15  1  1  0  0  0
  8 17  1  0  0  0  0
  9 23  1  0  0  0  0
  9  2  1  0  0  0  0
 10 25  1  0  0  0  0
 11  3  2  0  0  0  0
 12 24  2  0  0  0  0
 14  6  1  0  0  0  0
 16  1  1  0  0  0  0
 17 20  1  0  0  0  0
 17 16  1  0  0  0  0
 18 25  2  0  0  0  0
 19 15  1  0  0  0  0
 20  4  1  0  0  0  0
 21 40  1  0  0  0  0
 22 16  1  0  0  0  0
 22 11  1  0  0  0  0
 23 27  2  0  0  0  0
 25 14  1  0  0  0  0
 26 12  1  0  0  0  0
 28 30  2  0  0  0  0
 29 31  1  0  0  0  0
 31 35  1  0  0  0  0
 31 32  1  0  0  0  0
 32 28  1  0  0  0  0
 33 31  1  0  0  0  0
 34 28  1  0  0  0  0
 34  7  1  0  0  0  0
 35 34  1  0  0  0  0
 37 38  2  0  0  0  0
 38 36  1  0  0  0  0
 40 42  2  0  0  0  0
 40 37  1  0  0  0  0
 41 39  1  0  0  0  0
 41 36  2  0  0  0  0
 42 41  1  0  0  0  0
 43 44  1  0  0  0  0
 44  8  1  0  0  0  0
 45 43  1  0  0  0  0
 46 43  1  0  0  0  0
 46 44  1  0  0  0  0
 47 48  1  0  0  0  0
 48 23  1  0  0  0  0
M  END
>  <MODEL>
5

>  <REMARK>
 VINA RESULT:      -6.2      3.695      8.723
  Name = 
  4 active torsions:
  status: ('A' for Active; 'I' for Inactive)
    1  A    between atoms: CA_16  and  C_19
    2  A    between atoms: C_18  and  C_34
    3  A    between atoms: N_27  and  C_40
    4  A    between atoms: C_30  and  C_37
                            x       y       z     vdW  Elec       q    Type
                         _______ _______ _______ _____ _____    ______ ____

>  <TORSDO>
F 4

$$$$
=
 OpenBabel11062421473D

 48 53  0  0  1  0  0  0  0  0999 V2000
  189.6400  175.2090  142.6560 C   0  0  2  0  0  3  0  0  0  0  0  0
  194.7710  171.5860  143.5890 C   0  0  0  0  0  2  0  0  0  0  0  0
  190.2200  177.1070  144.1660 C   0  0  0  0  0  3  0  0  0  0  0  0
  190.3480  173.8570  139.7780 C   0  0  0  0  0  2  0  0  0  0  0  0
  192.9580  174.5970  144.5300 C   0  0  1  0  0  3  0  0  0  0  0  0
  188.1710  172.4230  142.1060 O   0  0  0  0  0  0  0  0  0  0  0  0
  194.1830  175.3400  145.0750 C   0  0  1  0  0  3  0  0  0  0  0  0
  192.8820  173.4500  141.7300 C   0  0  2  0  0  3  0  0  0  0  0  0
  195.4470  172.9460  143.6800 C   0  0  0  0  0  2  0  0  0  0  0  0
  188.8330  173.9950  139.6850 C   0  0  0  0  0  2  0  0  0  0  0  0
  191.3310  176.4900  144.5700 C   0  0  0  0  0  3  0  0  0  0  0  0
  187.7430  173.6950  142.4870 C   0  0  0  0  0  0  0  0  0  0  0  0
  192.2700  173.9710  145.5730 O   0  0  0  0  0  1  0  0  0  0  0  0
  187.9650  171.9160  140.8500 O   0  0  0  0  0  0  0  0  0  0  0  0
  192.7410  171.9780  142.1460 C   0  0  0  0  0  2  0  0  0  0  0  0
  191.0230  174.5550  142.8860 C   0  0  1  0  0  3  0  0  0  0  0  0
  191.5830  174.1380  141.5820 N   0  0  2  0  0  0  0  0  0  0  0  0
  187.8160  172.1560  138.5730 O   0  0  0  0  0  0  0  0  0  0  0  0
  193.2540  171.7190  143.5570 C   0  0  0  0  0  2  0  0  0  0  0  0
  190.7030  173.2740  141.0010 O   0  0  0  0  0  0  0  0  0  0  0  0
  189.6380  176.7350  142.8380 C   0  0  2  0  0  3  0  0  0  0  0  0
  192.0080  175.4580  143.6950 C   0  0  2  0  0  3  0  0  0  0  0  0
  195.7470  173.3240  145.0980 C   0  0  0  0  0  0  0  0  0  0  0  0
  186.7240  174.2120  141.9580 O   0  0  0  0  0  0  0  0  0  0  0  0
  188.1590  172.6570  139.6760 C   0  0  0  0  0  0  0  0  0  0  0  0
  188.5590  174.4850  143.4470 C   0  0  0  0  0  2  0  0  0  0  0  0
  195.1900  174.3920  145.6890 C   0  0  0  0  0  3  0  0  0  0  0  0
  195.6810  177.3110  144.7850 C   0  0  0  0  0  0  0  0  0  0  0  0
  197.0150  177.1680  141.7790 C   0  0  0  0  0  1  0  0  0  0  0  0
  195.3810  178.0410  145.7660 O   0  0  0  0  0  0  0  0  0  0  0  0
  196.8370  176.4140  143.0830 C   0  0  0  0  0  0  0  0  0  0  0  0
  196.8920  177.3200  144.1700 O   0  0  0  0  0  0  0  0  0  0  0  0
  197.9410  175.3850  143.2200 C   0  0  0  0  0  1  0  0  0  0  0  0
  194.7850  176.3720  144.1050 C   0  0  1  0  0  3  0  0  0  0  0  0
  195.5680  175.7650  143.0910 O   0  0  0  0  0  0  0  0  0  0  0  0
  185.8660  178.6650  142.0900 C   0  0  0  0  0  3  0  0  0  0  0  0
  187.7640  177.4090  141.2670 C   0  0  0  0  0  3  0  0  0  0  0  0
  186.5460  178.0510  141.0340 C   0  0  0  0  0  3  0  0  0  0  0  0
  185.5600  179.4100  144.6990 Cl  0  0  0  0  0  0  0  0  0  0  0  0
  188.3080  177.3730  142.5610 C   0  0  0  0  0  0  0  0  0  0  0  0
  186.4080  178.6400  143.3780 C   0  0  0  0  0  0  0  0  0  0  0  0
  187.6270  177.9980  143.6120 C   0  0  0  0  0  3  0  0  0  0  0  0
  193.9000  174.9250  140.0710 C   0  0  2  0  0  3  0  0  0  0  0  0
  193.6470  173.5310  140.4170 C   0  0  1  0  0  3  0  0  0  0  0  0
  194.0910  175.0330  138.6940 O   0  0  0  0  0  1  0  0  0  0  0  0
  194.9780  174.1110  140.6490 N   0  0  0  0  0  2  0  0  0  0  0  0
  197.7340  171.9250  145.1980 O   0  0  0  0  0  1  0  0  0  0  0  0
  196.6960  172.5350  145.8200 N   0  0  0  0  0  2  0  0  0  0  0  0
  1 21  1  0  0  0  0
  1 16  1  0  0  0  0
  1 26  1  1  0  0  0
  2  9  1  0  0  0  0
  3 11  2  0  0  0  0
  4 20  1  0  0  0  0
  5  7  1  0  0  0  0
  5 13  1  1  0  0  0
  6 12  1  0  0  0  0
  7 27  1  6  0  0  0
  8 15  1  6  0  0  0
  9 23  1  0  0  0  0
 10  4  1  0  0  0  0
 12 26  1  0  0  0  0
 14  6  1  0  0  0  0
 15 19  1  0  0  0  0
 16 22  1  0  0  0  0
 17  8  1  0  0  0  0
 17 16  1  0  0  0  0
 18 25  2  0  0  0  0
 19  2  1  0  0  0  0
 20 17  1  0  0  0  0
 21  3  1  0  0  0  0
 22  5  1  0  0  0  0
 22 11  1  0  0  0  0
 23 27  2  0  0  0  0
 23 48  1  0  0  0  0
 24 12  2  0  0  0  0
 25 10  1  0  0  0  0
 25 14  1  0  0  0  0
 28 30  2  0  0  0  0
 29 31  1  0  0  0  0
 31 35  1  0  0  0  0
 31 33  1  0  0  0  0
 31 32  1  0  0  0  0
 32 28  1  0  0  0  0
 34 28  1  0  0  0  0
 34  7  1  0  0  0  0
 35 34  1  0  0  0  0
 36 41  1  0  0  0  0
 37 40  2  0  0  0  0
 38 37  1  0  0  0  0
 38 36  2  0  0  0  0
 40 21  1  0  0  0  0
 40 42  1  0  0  0  0
 41 42  2  0  0  0  0
 41 39  1  0  0  0  0
 43 44  1  0  0  0  0
 43 46  1  0  0  0  0
 44 46  1  0  0  0  0
 44  8  1  0  0  0  0
 45 43  1  0  0  0  0
 47 48  1  0  0  0  0
M  END
>  <MODEL>
6

>  <REMARK>
 VINA RESULT:      -6.2      3.944      7.403
  Name = 
  4 active torsions:
  status: ('A' for Active; 'I' for Inactive)
    1  A    between atoms: CA_16  and  C_19
    2  A    between atoms: C_18  and  C_34
    3  A    between atoms: N_27  and  C_40
    4  A    between atoms: C_30  and  C_37
                            x       y       z     vdW  Elec       q    Type
                         _______ _______ _______ _____ _____    ______ ____

>  <TORSDO>
F 4

$$$$
=
 OpenBabel11062421473D

 48 53  0  0  1  0  0  0  0  0999 V2000
  190.1110  174.0240  142.8760 C   0  0  2  0  0  3  0  0  0  0  0  0
  194.6000  169.6940  141.6830 C   0  0  0  0  0  2  0  0  0  0  0  0
  190.9660  174.8860  145.0540 C   0  0  0  0  0  3  0  0  0  0  0  0
  190.6280  174.0950  139.6600 C   0  0  0  0  0  2  0  0  0  0  0  0
  193.2720  172.1350  144.0310 C   0  0  1  0  0  3  0  0  0  0  0  0
  188.2290  172.0650  141.1900 O   0  0  0  0  0  0  0  0  0  0  0  0
  194.5930  172.3510  144.7780 C   0  0  1  0  0  3  0  0  0  0  0  0
  193.0460  172.4620  141.0300 C   0  0  2  0  0  3  0  0  0  0  0  0
  195.4800  170.7390  142.3520 C   0  0  0  0  0  2  0  0  0  0  0  0
  189.1540  174.4770  139.7410 C   0  0  0  0  0  2  0  0  0  0  0  0
  191.9620  173.9990  145.0530 C   0  0  0  0  0  3  0  0  0  0  0  0
  188.0010  173.0560  142.1460 C   0  0  0  0  0  0  0  0  0  0  0  0
  192.4830  171.1990  144.7060 O   0  0  0  0  0  1  0  0  0  0  0  0
  187.9590  172.2430  139.8590 O   0  0  0  0  0  0  0  0  0  0  0  0
  192.6720  171.0040  140.7220 C   0  0  0  0  0  2  0  0  0  0  0  0
  191.3720  173.1480  142.6850 C   0  0  1  0  0  3  0  0  0  0  0  0
  191.8720  173.3170  141.3040 N   0  0  2  0  0  0  0  0  0  0  0  0
  187.8730  173.5430  137.9690 O   0  0  0  0  0  0  0  0  0  0  0  0
  193.1230  170.0420  141.8140 C   0  0  0  0  0  2  0  0  0  0  0  0
  190.8740  172.9630  140.4460 O   0  0  0  0  0  0  0  0  0  0  0  0
  190.3470  175.2690  143.7470 C   0  0  2  0  0  3  0  0  0  0  0  0
  192.4780  173.4130  143.7560 C   0  0  2  0  0  3  0  0  0  0  0  0
  195.8210  170.3600  143.7600 C   0  0  0  0  0  0  0  0  0  0  0  0
  187.0820  173.9010  141.9850 O   0  0  0  0  0  0  0  0  0  0  0  0
  188.2780  173.4120  139.1540 C   0  0  0  0  0  0  0  0  0  0  0  0
  188.9210  173.1770  143.3080 C   0  0  0  0  0  2  0  0  0  0  0  0
  195.4320  171.0930  144.8140 C   0  0  0  0  0  3  0  0  0  0  0  0
  196.5710  173.8180  145.1620 C   0  0  0  0  0  0  0  0  0  0  0  0
  197.4330  175.1720  142.2880 C   0  0  0  0  0  1  0  0  0  0  0  0
  196.6240  173.8980  146.4180 O   0  0  0  0  0  0  0  0  0  0  0  0
  197.1920  173.8570  143.0060 C   0  0  0  0  0  0  0  0  0  0  0  0
  197.6470  173.9530  144.3430 O   0  0  0  0  0  0  0  0  0  0  0  0
  197.9410  172.7520  142.2890 C   0  0  0  0  0  1  0  0  0  0  0  0
  195.3600  173.6190  144.3630 C   0  0  1  0  0  3  0  0  0  0  0  0
  195.7960  173.5670  143.0160 O   0  0  0  0  0  0  0  0  0  0  0  0
  186.9270  177.8340  144.2370 C   0  0  0  0  0  3  0  0  0  0  0  0
  188.6900  176.9560  142.8290 C   0  0  0  0  0  3  0  0  0  0  0  0
  187.5870  177.7950  143.0050 C   0  0  0  0  0  3  0  0  0  0  0  0
  186.5500  177.0850  146.8360 Cl  0  0  0  0  0  0  0  0  0  0  0  0
  189.1360  176.1440  143.8850 C   0  0  0  0  0  0  0  0  0  0  0  0
  187.3730  177.0350  145.2940 C   0  0  0  0  0  0  0  0  0  0  0  0
  188.4770  176.1960  145.1190 C   0  0  0  0  0  3  0  0  0  0  0  0
  194.1460  174.4390  140.1130 C   0  0  2  0  0  3  0  0  0  0  0  0
  193.8280  173.0390  139.8590 C   0  0  1  0  0  3  0  0  0  0  0  0
  194.3560  175.0930  138.9000 O   0  0  0  0  0  1  0  0  0  0  0  0
  195.1810  173.4120  140.2970 N   0  0  0  0  0  2  0  0  0  0  0  0
  197.1570  168.9070  145.1810 O   0  0  0  0  0  1  0  0  0  0  0  0
  196.6270  169.1970  143.9680 N   0  0  0  0  0  2  0  0  0  0  0  0
  1 26  1  1  0  0  0
  1 21  1  0  0  0  0
  2 19  1  0  0  0  0
  2  9  1  0  0  0  0
  4 10  1  0  0  0  0
  4 20  1  0  0  0  0
  5 13  1  1  0  0  0
  5  7  1  0  0  0  0
  6 12  1  0  0  0  0
  7 27  1  6  0  0  0
  8 15  1  6  0  0  0
  8 17  1  0  0  0  0
  9 23  1  0  0  0  0
 11  3  2  0  0  0  0
 12 26  1  0  0  0  0
 14  6  1  0  0  0  0
 15 19  1  0  0  0  0
 16  1  1  0  0  0  0
 16 22  1  0  0  0  0
 17 16  1  0  0  0  0
 18 25  2  0  0  0  0
 20 17  1  0  0  0  0
 21 40  1  0  0  0  0
 21  3  1  0  0  0  0
 22  5  1  0  0  0  0
 22 11  1  0  0  0  0
 23 48  1  0  0  0  0
 23 27  2  0  0  0  0
 24 12  2  0  0  0  0
 25 10  1  0  0  0  0
 25 14  1  0  0  0  0
 28 30  2  0  0  0  0
 29 31  1  0  0  0  0
 31 35  1  0  0  0  0
 31 32  1  0  0  0  0
 32 28  1  0  0  0  0
 33 31  1  0  0  0  0
 34  7  1  0  0  0  0
 34 28  1  0  0  0  0
 35 34  1  0  0  0  0
 36 41  1  0  0  0  0
 37 38  1  0  0  0  0
 37 40  2  0  0  0  0
 38 36  2  0  0  0  0
 40 42  1  0  0  0  0
 41 39  1  0  0  0  0
 42 41  2  0  0  0  0
 43 46  1  0  0  0  0
 44 43  1  0  0  0  0
 44 46  1  0  0  0  0
 44  8  1  0  0  0  0
 45 43  1  0  0  0  0
 48 47  1  0  0  0  0
M  END
>  <MODEL>
7

>  <REMARK>
 VINA RESULT:      -5.8      3.573      7.648
  Name = 
  4 active torsions:
  status: ('A' for Active; 'I' for Inactive)
    1  A    between atoms: CA_16  and  C_19
    2  A    between atoms: C_18  and  C_34
    3  A    between atoms: N_27  and  C_40
    4  A    between atoms: C_30  and  C_37
                            x       y       z     vdW  Elec       q    Type
                         _______ _______ _______ _____ _____    ______ ____

>  <TORSDO>
F 4

$$$$
=
 OpenBabel11062421473D

 48 53  0  0  1  0  0  0  0  0999 V2000
  194.7590  172.8480  143.3350 C   0  0  2  0  0  3  0  0  0  0  0  0
  195.8940  168.7770  138.5960 C   0  0  0  0  0  2  0  0  0  0  0  0
  193.7440  174.7080  142.0190 C   0  0  0  0  0  3  0  0  0  0  0  0
  194.1730  169.8700  144.5190 C   0  0  0  0  0  2  0  0  0  0  0  0
  194.7380  172.0920  139.5500 C   0  0  1  0  0  3  0  0  0  0  0  0
  197.2850  171.4500  144.7090 O   0  0  0  0  0  0  0  0  0  0  0  0
  193.9050  172.3240  138.2840 C   0  0  1  0  0  3  0  0  0  0  0  0
  194.3530  169.6570  141.3070 C   0  0  2  0  0  3  0  0  0  0  0  0
  194.5950  169.3670  138.0670 C   0  0  0  0  0  2  0  0  0  0  0  0
  194.6500  170.6060  145.7660 C   0  0  0  0  0  2  0  0  0  0  0  0
  193.9540  174.0580  140.8740 C   0  0  0  0  0  3  0  0  0  0  0  0
  196.6490  172.6840  144.8590 C   0  0  0  0  0  0  0  0  0  0  0  0
  196.0000  172.6760  139.4120 O   0  0  0  0  0  1  0  0  0  0  0  0
  197.1770  170.4440  145.6320 O   0  0  0  0  0  0  0  0  0  0  0  0
  195.7550  169.0650  141.0970 C   0  0  0  0  0  2  0  0  0  0  0  0
  194.8030  171.9380  142.0840 C   0  0  1  0  0  3  0  0  0  0  0  0
  194.2860  170.6000  142.4420 N   0  0  2  0  0  0  0  0  0  0  0  0
  195.9860  169.2360  147.1770 O   0  0  0  0  0  0  0  0  0  0  0  0
  196.4050  169.5470  139.8060 C   0  0  0  0  0  2  0  0  0  0  0  0
  195.0530  170.1070  143.4560 O   0  0  0  0  0  0  0  0  0  0  0  0
  193.6540  173.9160  143.2860 C   0  0  2  0  0  3  0  0  0  0  0  0
  194.0690  172.5490  140.8480 C   0  0  2  0  0  3  0  0  0  0  0  0
  194.8390  170.3510  136.9650 C   0  0  0  0  0  0  0  0  0  0  0  0
  196.4200  173.1500  146.0060 O   0  0  0  0  0  0  0  0  0  0  0  0
  195.9700  170.0800  146.2430 C   0  0  0  0  0  0  0  0  0  0  0  0
  196.1430  173.3970  143.6560 C   0  0  0  0  0  2  0  0  0  0  0  0
  194.5140  171.6480  137.0770 C   0  0  0  0  0  3  0  0  0  0  0  0
  191.5920  172.9300  137.5790 C   0  0  0  0  0  0  0  0  0  0  0  0
  189.6910  170.2560  137.8510 C   0  0  0  0  0  1  0  0  0  0  0  0
  191.6330  174.1880  137.5250 O   0  0  0  0  0  0  0  0  0  0  0  0
  190.9510  170.8110  137.2140 C   0  0  0  0  0  0  0  0  0  0  0  0
  190.7450  172.1620  136.8450 O   0  0  0  0  0  0  0  0  0  0  0  0
  191.2910  169.9920  135.9850 C   0  0  0  0  0  1  0  0  0  0  0  0
  192.3950  172.0800  138.4620 C   0  0  1  0  0  3  0  0  0  0  0  0
  192.0260  170.7490  138.1480 O   0  0  0  0  0  0  0  0  0  0  0  0
  193.4050  176.4320  146.7670 C   0  0  0  0  0  3  0  0  0  0  0  0
  192.7630  174.4060  145.6090 C   0  0  0  0  0  3  0  0  0  0  0  0
  192.6790  175.2380  146.7280 C   0  0  0  0  0  3  0  0  0  0  0  0
  195.1180  178.2900  145.7310 Cl  0  0  0  0  0  0  0  0  0  0  0  0
  193.5790  174.7610  144.5240 C   0  0  0  0  0  0  0  0  0  0  0  0
  194.2120  176.7950  145.6850 C   0  0  0  0  0  0  0  0  0  0  0  0
  194.2950  175.9630  144.5650 C   0  0  0  0  0  3  0  0  0  0  0  0
  192.0130  169.0700  141.6830 C   0  0  2  0  0  3  0  0  0  0  0  0
  193.3580  168.5270  141.5310 C   0  0  1  0  0  3  0  0  0  0  0  0
  191.2270  168.1660  142.3960 O   0  0  0  0  0  1  0  0  0  0  0  0
  192.4130  168.4630  140.4060 N   0  0  0  0  0  2  0  0  0  0  0  0
  196.7340  169.8970  135.5090 O   0  0  0  0  0  1  0  0  0  0  0  0
  195.3990  169.8670  135.7410 N   0  0  0  0  0  2  0  0  0  0  0  0
  1 26  1  6  0  0  0
  2 19  1  0  0  0  0
  3 21  1  0  0  0  0
  4 10  1  0  0  0  0
  5 13  1  6  0  0  0
  5 22  1  0  0  0  0
  6 12  1  0  0  0  0
  6 14  1  0  0  0  0
  7 27  1  6  0  0  0
  7 34  1  0  0  0  0
  7  5  1  0  0  0  0
  8 15  1  1  0  0  0
  8 44  1  0  0  0  0
  8 17  1  0  0  0  0
  9  2  1  0  0  0  0
 10 25  1  0  0  0  0
 11  3  2  0  0  0  0
 12 24  2  0  0  0  0
 14 25  1  0  0  0  0
 16 17  1  0  0  0  0
 16  1  1  0  0  0  0
 17 20  1  0  0  0  0
 19 15  1  0  0  0  0
 20  4  1  0  0  0  0
 21  1  1  0  0  0  0
 21 40  1  0  0  0  0
 22 11  1  0  0  0  0
 22 16  1  0  0  0  0
 23 27  2  0  0  0  0
 23  9  1  0  0  0  0
 25 18  2  0  0  0  0
 26 12  1  0  0  0  0
 28 34  1  0  0  0  0
 30 28  2  0  0  0  0
 31 29  1  0  0  0  0
 31 35  1  0  0  0  0
 32 31  1  0  0  0  0
 32 28  1  0  0  0  0
 33 31  1  0  0  0  0
 35 34  1  0  0  0  0
 37 38  2  0  0  0  0
 38 36  1  0  0  0  0
 40 42  2  0  0  0  0
 40 37  1  0  0  0  0
 41 39  1  0  0  0  0
 41 36  2  0  0  0  0
 42 41  1  0  0  0  0
 43 45  1  0  0  0  0
 44 43  1  0  0  0  0
 46 44  1  0  0  0  0
 46 43  1  0  0  0  0
 47 48  1  0  0  0  0
 48 23  1  0  0  0  0
M  END
>  <MODEL>
8

>  <REMARK>
 VINA RESULT:      -5.6      3.998      8.089
  Name = 
  4 active torsions:
  status: ('A' for Active; 'I' for Inactive)
    1  A    between atoms: CA_16  and  C_19
    2  A    between atoms: C_18  and  C_34
    3  A    between atoms: N_27  and  C_40
    4  A    between atoms: C_30  and  C_37
                            x       y       z     vdW  Elec       q    Type
                         _______ _______ _______ _____ _____    ______ ____

>  <TORSDO>
F 4

$$$$
=
 OpenBabel11062421473D

 48 53  0  0  1  0  0  0  0  0999 V2000
  191.3120  171.7040  138.8710 C   0  0  2  0  0  3  0  0  0  0  0  0
  194.6390  168.6250  143.3180 C   0  0  0  0  0  2  0  0  0  0  0  0
  190.7020  173.7390  140.1770 C   0  0  0  0  0  3  0  0  0  0  0  0
  193.7800  170.2400  137.3280 C   0  0  0  0  0  2  0  0  0  0  0  0
  192.5790  171.5140  142.5120 C   0  0  1  0  0  3  0  0  0  0  0  0
  190.6460  168.7680  137.7970 O   0  0  0  0  0  0  0  0  0  0  0  0
  193.1200  172.3970  143.6430 C   0  0  1  0  0  3  0  0  0  0  0  0
  194.4020  170.1890  140.4910 C   0  0  2  0  0  3  0  0  0  0  0  0
  195.0510  170.0430  143.6840 C   0  0  0  0  0  2  0  0  0  0  0  0
  192.7010  170.2360  136.2510 C   0  0  0  0  0  2  0  0  0  0  0  0
  191.2830  173.2510  141.2730 C   0  0  0  0  0  3  0  0  0  0  0  0
  190.0390  170.0180  137.6650 C   0  0  0  0  0  0  0  0  0  0  0  0
  191.3900  170.8960  142.9090 O   0  0  0  0  0  1  0  0  0  0  0  0
  191.3340  168.1660  136.7770 O   0  0  0  0  0  0  0  0  0  0  0  0
  194.0590  168.7400  140.8680 C   0  0  0  0  0  2  0  0  0  0  0  0
  192.2150  171.1930  140.0190 C   0  0  1  0  0  3  0  0  0  0  0  0
  193.5070  170.7460  139.4560 N   0  0  2  0  0  0  0  0  0  0  0  0
  192.7200  168.2460  134.9500 O   0  0  0  0  0  0  0  0  0  0  0  0
  193.5190  168.6180  142.2870 C   0  0  0  0  0  2  0  0  0  0  0  0
  193.2530  169.7710  138.5370 O   0  0  0  0  0  0  0  0  0  0  0  0
  191.1520  173.2320  138.8430 C   0  0  2  0  0  3  0  0  0  0  0  0
  192.3960  172.2310  141.1730 C   0  0  2  0  0  3  0  0  0  0  0  0
  194.3300  170.5360  144.9000 C   0  0  0  0  0  0  0  0  0  0  0  0
  189.6120  170.4060  136.5460 O   0  0  0  0  0  0  0  0  0  0  0  0
  192.2360  168.8440  135.9460 C   0  0  0  0  0  0  0  0  0  0  0  0
  189.9970  170.9370  138.8330 C   0  0  0  0  0  2  0  0  0  0  0  0
  193.4940  171.5850  144.8620 C   0  0  0  0  0  3  0  0  0  0  0  0
  193.8680  174.7740  143.6460 C   0  0  0  0  0  0  0  0  0  0  0  0
  197.1590  174.8270  143.6240 C   0  0  0  0  0  1  0  0  0  0  0  0
  192.8060  175.4050  143.3980 O   0  0  0  0  0  0  0  0  0  0  0  0
  195.9420  174.3130  144.3690 C   0  0  0  0  0  0  0  0  0  0  0  0
  194.9170  175.2890  144.3390 O   0  0  0  0  0  0  0  0  0  0  0  0
  196.3230  174.0160  145.8050 C   0  0  0  0  0  1  0  0  0  0  0  0
  194.1860  173.4150  143.2000 C   0  0  1  0  0  3  0  0  0  0  0  0
  195.4630  173.1260  143.7410 O   0  0  0  0  0  0  0  0  0  0  0  0
  188.7620  174.7620  135.6080 C   0  0  0  0  0  3  0  0  0  0  0  0
  190.7840  173.6730  136.3720 C   0  0  0  0  0  3  0  0  0  0  0  0
  190.0050  174.1850  135.3320 C   0  0  0  0  0  3  0  0  0  0  0  0
  186.7470  175.5520  137.2720 Cl  0  0  0  0  0  0  0  0  0  0  0  0
  190.3200  173.7280  137.6960 C   0  0  0  0  0  0  0  0  0  0  0  0
  188.3000  174.8290  136.9250 C   0  0  0  0  0  0  0  0  0  0  0  0
  189.0790  174.3160  137.9670 C   0  0  0  0  0  3  0  0  0  0  0  0
  196.1640  171.6140  139.5820 C   0  0  2  0  0  3  0  0  0  0  0  0
  195.8420  170.2550  140.0010 C   0  0  1  0  0  3  0  0  0  0  0  0
  197.2200  171.5780  138.6720 O   0  0  0  0  0  1  0  0  0  0  0  0
  196.6310  171.1230  140.8870 N   0  0  0  0  0  2  0  0  0  0  0  0
  195.8450  169.5890  146.5500 O   0  0  0  0  0  1  0  0  0  0  0  0
  194.5850  169.8830  146.1460 N   0  0  0  0  0  2  0  0  0  0  0  0
  1 26  1  1  0  0  0
  1 16  1  0  0  0  0
  2  9  1  0  0  0  0
  3 11  2  0  0  0  0
  4 20  1  0  0  0  0
  5 13  1  1  0  0  0
  5  7  1  0  0  0  0
  7 27  1  1  0  0  0
  8 15  1  6  0  0  0
  9 23  1  0  0  0  0
 10  4  1  0  0  0  0
 12  6  1  0  0  0  0
 12 26  1  0  0  0  0
 14  6  1  0  0  0  0
 15 19  1  0  0  0  0
 16 22  1  0  0  0  0
 17 16  1  0  0  0  0
 17  8  1  0  0  0  0
 18 25  2  0  0  0  0
 19  2  1  0  0  0  0
 20 17  1  0  0  0  0
 21  1  1  0  0  0  0
 21  3  1  0  0  0  0
 22 11  1  0  0  0  0
 22  5  1  0  0  0  0
 23 48  1  0  0  0  0
 24 12  2  0  0  0  0
 25 10  1  0  0  0  0
 25 14  1  0  0  0  0
 27 23  2  0  0  0  0
 28 32  1  0  0  0  0
 29 31  1  0  0  0  0
 30 28  2  0  0  0  0
 31 33  1  0  0  0  0
 32 31  1  0  0  0  0
 34  7  1  0  0  0  0
 34 28  1  0  0  0  0
 34 35  1  0  0  0  0
 35 31  1  0  0  0  0
 36 41  1  0  0  0  0
 37 40  2  0  0  0  0
 38 36  2  0  0  0  0
 38 37  1  0  0  0  0
 40 42  1  0  0  0  0
 40 21  1  0  0  0  0
 41 39  1  0  0  0  0
 41 42  2  0  0  0  0
 43 44  1  0  0  0  0
 43 46  1  0  0  0  0
 44  8  1  0  0  0  0
 44 46  1  0  0  0  0
 45 43  1  0  0  0  0
 48 47  1  0  0  0  0
M  END
>  <MODEL>
9

>  <REMARK>
 VINA RESULT:      -5.5      3.397      5.733
  Name = 
  4 active torsions:
  status: ('A' for Active; 'I' for Inactive)
    1  A    between atoms: CA_16  and  C_19
    2  A    between atoms: C_18  and  C_34
    3  A    between atoms: N_27  and  C_40
    4  A    between atoms: C_30  and  C_37
                            x       y       z     vdW  Elec       q    Type
                         _______ _______ _______ _____ _____    ______ ____

>  <TORSDO>
F 4

$$$$
