=
 OpenBabel11072408263D

 34 37  0  0  1  0  0  0  0  0999 V2000
  188.9410  177.2840  146.1300 N   0  0  0  0  0  0  0  0  0  0  0  0
  189.1060  177.2940  143.7400 C   0  0  0  0  0  0  0  0  0  0  0  0
  190.2550  176.9670  146.2680 C   0  0  0  0  0  0  0  0  0  0  0  0
  190.4540  176.9450  143.8680 C   0  0  0  0  0  3  0  0  0  0  0  0
  191.0510  176.7860  145.1170 C   0  0  0  0  0  0  0  0  0  0  0  0
  190.7760  176.7350  147.6440 C   0  0  0  0  0  1  0  0  0  0  0  0
  188.3390  177.4500  144.9210 C   0  0  0  0  0  0  0  0  0  0  0  0
  185.1170  176.9150  146.4660 C   0  0  0  0  0  3  0  0  0  0  0  0
  186.8840  177.6990  144.9080 C   0  0  0  0  0  0  0  0  0  0  0  0
  185.9380  176.5910  145.2630 C   0  0  0  0  0  2  0  0  0  0  0  0
  185.0350  179.3600  144.5900 C   0  0  0  0  0  3  0  0  0  0  0  0
  186.4410  178.9120  144.5610 C   0  0  0  0  0  3  0  0  0  0  0  0
  184.2660  177.9390  146.5090 C   0  0  0  0  0  3  0  0  0  0  0  0
  184.0890  178.9380  145.4380 C   0  0  0  0  0  3  0  0  0  0  0  0
  188.9810  178.5700  141.7460 O   0  0  0  0  0  0  0  0  0  0  0  0
  187.5900  176.6990  141.8090 N   0  0  0  0  0  2  0  0  0  0  0  0
  188.5860  177.5530  142.3800 C   0  0  0  0  0  0  0  0  0  0  0  0
  187.0610  176.9200  140.5290 C   0  0  0  0  0  0  0  0  0  0  0  0
  186.6240  177.1020  139.4730 N   0  0  0  0  0  0  0  0  0  0  0  0
  192.4130  176.4510  145.1500 O   0  0  0  0  0  0  0  0  0  0  0  0
  193.6600  173.3320  145.5170 C   0  0  0  0  0  2  0  0  0  0  0  0
  194.4630  175.2710  144.7610 C   0  0  0  0  0  2  0  0  0  0  0  0
  194.6740  174.2760  145.7290 O   0  0  0  0  0  0  0  0  0  0  0  0
  192.9840  175.3500  144.4540 C   0  0  1  0  0  3  0  0  0  0  0  0
  192.4380  174.0650  145.0130 C   0  0  1  0  0  3  0  0  0  0  0  0
  191.7970  171.6580  142.0610 C   0  0  0  0  0  2  0  0  0  0  0  0
  192.4150  172.4940  143.1530 C   0  0  0  0  0  3  0  0  0  0  0  0
  190.3360  171.3320  142.3510 C   0  0  0  0  0  2  0  0  0  0  0  0
  191.6930  173.2720  143.9790 C   0  0  0  0  0  0  0  0  0  0  0  0
  189.7320  172.4880  145.0900 O   0  0  0  0  0  1  0  0  0  0  0  0
  190.1740  173.2220  143.9860 C   0  0  2  0  0  3  0  0  0  0  0  0
  189.6050  172.6250  142.6910 C   0  0  2  0  0  3  0  0  0  0  0  0
  188.2350  172.3850  142.8170 O   0  0  0  0  0  0  0  0  0  0  0  0
  187.6630  172.9830  141.6930 C   0  0  0  0  0  1  0  0  0  0  0  0
  1  3  1  0  0  0  0
  2  4  2  0  0  0  0
  2  7  1  0  0  0  0
  3  6  1  0  0  0  0
  4  5  1  0  0  0  0
  5 20  1  0  0  0  0
  5  3  2  0  0  0  0
  7  1  2  0  0  0  0
  8 13  2  0  0  0  0
  9  7  1  0  0  0  0
  9 10  1  0  0  0  0
 10  8  1  0  0  0  0
 11 14  2  0  0  0  0
 12 11  1  0  0  0  0
 12  9  2  0  0  0  0
 14 13  1  0  0  0  0
 15 17  2  0  0  0  0
 16 17  1  0  0  0  0
 17  2  1  0  0  0  0
 18 16  1  0  0  0  0
 19 18  3  0  0  0  0
 21 23  1  0  0  0  0
 22 23  1  0  0  0  0
 24 22  1  0  0  0  0
 24 25  1  0  0  0  0
 24 20  1  1  0  0  0
 25 29  1  6  0  0  0
 25 21  1  0  0  0  0
 26 28  1  0  0  0  0
 26 27  1  0  0  0  0
 27 29  2  0  0  0  0
 28 32  1  0  0  0  0
 29 31  1  0  0  0  0
 31 30  1  1  0  0  0
 32 33  1  1  0  0  0
 32 31  1  0  0  0  0
 34 33  1  0  0  0  0
M  END
>  <MODEL>
1

>  <REMARK>
 VINA RESULT:      -8.1      0.000      0.000
  Name = 
  7 active torsions:
  status: ('A' for Active; 'I' for Inactive)
    1  A    between atoms: O_1  and  C_21
    2  A    between atoms: O_1  and  C_31
    3  A    between atoms: C_2  and  N_13
    4  A    between atoms: O_5  and  C_34
    5  A    between atoms: C_12  and  C_16
    6  A    between atoms: C_17  and  C_23
    7  A    between atoms: C_19  and  C_33
                            x       y       z     vdW  Elec       q    Type
                         _______ _______ _______ _____ _____    ______ ____

>  <TORSDO>
F 7

$$$$
=
 OpenBabel11072408263D

 34 37  0  0  1  0  0  0  0  0999 V2000
  188.9380  177.3270  146.0490 N   0  0  0  0  0  0  0  0  0  0  0  0
  189.0580  177.3630  143.6560 C   0  0  0  0  0  0  0  0  0  0  0  0
  190.2570  177.0180  146.1580 C   0  0  0  0  0  0  0  0  0  0  0  0
  190.4100  177.0220  143.7540 C   0  0  0  0  0  3  0  0  0  0  0  0
  191.0320  176.8540  144.9900 C   0  0  0  0  0  0  0  0  0  0  0  0
  190.8060  176.7750  147.5210 C   0  0  0  0  0  1  0  0  0  0  0  0
  188.3130  177.5020  144.8530 C   0  0  0  0  0  0  0  0  0  0  0  0
  185.1320  176.9750  146.4830 C   0  0  0  0  0  3  0  0  0  0  0  0
  186.8570  177.7430  144.8710 C   0  0  0  0  0  0  0  0  0  0  0  0
  185.9260  176.6350  145.2670 C   0  0  0  0  0  2  0  0  0  0  0  0
  184.9900  179.3860  144.5690 C   0  0  0  0  0  3  0  0  0  0  0  0
  186.3980  178.9470  144.5140 C   0  0  0  0  0  3  0  0  0  0  0  0
  184.2760  177.9940  146.5300 C   0  0  0  0  0  3  0  0  0  0  0  0
  184.0660  178.9740  145.4470 C   0  0  0  0  0  3  0  0  0  0  0  0
  188.8740  178.6680  141.6850 O   0  0  0  0  0  0  0  0  0  0  0  0
  187.5220  176.7680  141.7410 N   0  0  0  0  0  2  0  0  0  0  0  0
  188.5100  177.6330  142.3090 C   0  0  0  0  0  0  0  0  0  0  0  0
  186.9670  176.9980  140.4730 C   0  0  0  0  0  0  0  0  0  0  0  0
  186.5100  177.1880  139.4270 N   0  0  0  0  0  0  0  0  0  0  0  0
  192.3960  176.5270  144.9940 O   0  0  0  0  0  0  0  0  0  0  0  0
  193.9850  173.6270  145.6890 C   0  0  0  0  0  2  0  0  0  0  0  0
  194.4490  175.4180  144.4420 C   0  0  0  0  0  2  0  0  0  0  0  0
  194.9240  174.6530  145.5200 O   0  0  0  0  0  0  0  0  0  0  0  0
  192.9380  175.3450  144.4180 C   0  0  1  0  0  3  0  0  0  0  0  0
  192.6280  174.1690  145.3030 C   0  0  1  0  0  3  0  0  0  0  0  0
  189.4990  172.2490  144.1040 C   0  0  0  0  0  2  0  0  0  0  0  0
  190.4550  173.2240  144.7400 C   0  0  0  0  0  3  0  0  0  0  0  0
  190.1060  171.5700  142.8820 C   0  0  0  0  0  2  0  0  0  0  0  0
  191.7900  173.1390  144.6000 C   0  0  0  0  0  0  0  0  0  0  0  0
  192.8390  172.8250  142.4790 O   0  0  0  0  0  1  0  0  0  0  0  0
  192.4230  172.1530  143.6320 C   0  0  2  0  0  3  0  0  0  0  0  0
  191.4700  171.0070  143.2630 C   0  0  2  0  0  3  0  0  0  0  0  0
  191.9910  170.2510  142.2110 O   0  0  0  0  0  0  0  0  0  0  0  0
  190.8760  169.6740  141.6000 C   0  0  0  0  0  1  0  0  0  0  0  0
  1  3  1  0  0  0  0
  2  4  2  0  0  0  0
  2  7  1  0  0  0  0
  3  6  1  0  0  0  0
  4  5  1  0  0  0  0
  5 20  1  0  0  0  0
  5  3  2  0  0  0  0
  7  9  1  0  0  0  0
  7  1  2  0  0  0  0
  8 13  2  0  0  0  0
  9 10  1  0  0  0  0
 10  8  1  0  0  0  0
 11 14  2  0  0  0  0
 12 11  1  0  0  0  0
 12  9  2  0  0  0  0
 14 13  1  0  0  0  0
 15 17  2  0  0  0  0
 16 17  1  0  0  0  0
 17  2  1  0  0  0  0
 18 16  1  0  0  0  0
 19 18  3  0  0  0  0
 22 23  1  0  0  0  0
 23 21  1  0  0  0  0
 24 22  1  0  0  0  0
 24 20  1  1  0  0  0
 24 25  1  0  0  0  0
 25 29  1  6  0  0  0
 25 21  1  0  0  0  0
 26 27  1  0  0  0  0
 28 32  1  0  0  0  0
 28 26  1  0  0  0  0
 29 27  2  0  0  0  0
 31 30  1  6  0  0  0
 31 29  1  0  0  0  0
 32 33  1  6  0  0  0
 32 31  1  0  0  0  0
 34 33  1  0  0  0  0
M  END
>  <MODEL>
2

>  <REMARK>
 VINA RESULT:      -8.0      1.227      1.610
  Name = 
  7 active torsions:
  status: ('A' for Active; 'I' for Inactive)
    1  A    between atoms: O_1  and  C_21
    2  A    between atoms: O_1  and  C_31
    3  A    between atoms: C_2  and  N_13
    4  A    between atoms: O_5  and  C_34
    5  A    between atoms: C_12  and  C_16
    6  A    between atoms: C_17  and  C_23
    7  A    between atoms: C_19  and  C_33
                            x       y       z     vdW  Elec       q    Type
                         _______ _______ _______ _____ _____    ______ ____

>  <TORSDO>
F 7

$$$$
=
 OpenBabel11072408263D

 34 37  0  0  1  0  0  0  0  0999 V2000
  188.8400  176.8260  146.4220 N   0  0  0  0  0  0  0  0  0  0  0  0
  188.2340  176.2290  144.1830 C   0  0  0  0  0  0  0  0  0  0  0  0
  189.9550  176.0500  146.3790 C   0  0  0  0  0  0  0  0  0  0  0  0
  189.3660  175.4100  144.1330 C   0  0  0  0  0  3  0  0  0  0  0  0
  190.2430  175.3120  145.2120 C   0  0  0  0  0  0  0  0  0  0  0  0
  190.7820  175.9470  147.6140 C   0  0  0  0  0  1  0  0  0  0  0  0
  187.9730  176.9410  145.3790 C   0  0  0  0  0  0  0  0  0  0  0  0
  185.4710  179.1500  143.9960 C   0  0  0  0  0  3  0  0  0  0  0  0
  186.7510  177.7410  145.5900 C   0  0  0  0  0  0  0  0  0  0  0  0
  186.6230  179.0860  144.9410 C   0  0  0  0  0  2  0  0  0  0  0  0
  184.4670  177.8670  146.6130 C   0  0  0  0  0  3  0  0  0  0  0  0
  185.7870  177.2490  146.3750 C   0  0  0  0  0  3  0  0  0  0  0  0
  184.2060  178.9820  144.3810 C   0  0  0  0  0  3  0  0  0  0  0  0
  183.7780  178.6190  145.7460 C   0  0  0  0  0  3  0  0  0  0  0  0
  186.3920  175.6460  142.8090 O   0  0  0  0  0  0  0  0  0  0  0  0
  187.8330  177.2410  141.9030 N   0  0  0  0  0  2  0  0  0  0  0  0
  187.4220  176.3610  142.9540 C   0  0  0  0  0  0  0  0  0  0  0  0
  187.0980  177.3830  140.7170 C   0  0  0  0  0  0  0  0  0  0  0  0
  186.4920  177.5000  139.7380 N   0  0  0  0  0  0  0  0  0  0  0  0
  191.3620  174.4780  145.0670 O   0  0  0  0  0  0  0  0  0  0  0  0
  194.0400  176.4750  145.5760 C   0  0  0  0  0  2  0  0  0  0  0  0
  192.4780  176.3070  143.9920 C   0  0  0  0  0  2  0  0  0  0  0  0
  193.0270  177.1960  144.9300 O   0  0  0  0  0  0  0  0  0  0  0  0
  192.6070  174.8960  144.5210 C   0  0  1  0  0  3  0  0  0  0  0  0
  193.6210  175.0240  145.6240 C   0  0  1  0  0  3  0  0  0  0  0  0
  197.2220  173.6420  145.8150 C   0  0  0  0  0  2  0  0  0  0  0  0
  195.9700  174.4700  145.9480 C   0  0  0  0  0  3  0  0  0  0  0  0
  196.9090  172.1680  145.5850 C   0  0  0  0  0  2  0  0  0  0  0  0
  194.7850  174.0960  145.4320 C   0  0  0  0  0  0  0  0  0  0  0  0
  193.8910  171.9040  145.7330 O   0  0  0  0  0  1  0  0  0  0  0  0
  194.5850  172.7140  144.8310 C   0  0  2  0  0  3  0  0  0  0  0  0
  195.9140  172.0530  144.4370 C   0  0  2  0  0  3  0  0  0  0  0  0
  195.7170  170.7110  144.1020 O   0  0  0  0  0  0  0  0  0  0  0  0
  196.8490  170.0530  144.5870 C   0  0  0  0  0  1  0  0  0  0  0  0
  2  7  1  0  0  0  0
  3  1  1  0  0  0  0
  3  6  1  0  0  0  0
  4  2  2  0  0  0  0
  4  5  1  0  0  0  0
  5  3  2  0  0  0  0
  7  9  1  0  0  0  0
  7  1  2  0  0  0  0
  8 13  2  0  0  0  0
  8 10  1  0  0  0  0
  9 12  2  0  0  0  0
 10  9  1  0  0  0  0
 12 11  1  0  0  0  0
 13 14  1  0  0  0  0
 14 11  2  0  0  0  0
 15 17  2  0  0  0  0
 16 17  1  0  0  0  0
 17  2  1  0  0  0  0
 18 16  1  0  0  0  0
 19 18  3  0  0  0  0
 20  5  1  0  0  0  0
 21 25  1  0  0  0  0
 22 24  1  0  0  0  0
 22 23  1  0  0  0  0
 23 21  1  0  0  0  0
 24 20  1  1  0  0  0
 24 25  1  0  0  0  0
 25 29  1  6  0  0  0
 26 27  1  0  0  0  0
 28 26  1  0  0  0  0
 29 27  2  0  0  0  0
 31 29  1  0  0  0  0
 31 30  1  1  0  0  0
 32 33  1  1  0  0  0
 32 31  1  0  0  0  0
 32 28  1  0  0  0  0
 33 34  1  0  0  0  0
M  END
>  <MODEL>
3

>  <REMARK>
 VINA RESULT:      -7.8      2.063      3.782
  Name = 
  7 active torsions:
  status: ('A' for Active; 'I' for Inactive)
    1  A    between atoms: O_1  and  C_21
    2  A    between atoms: O_1  and  C_31
    3  A    between atoms: C_2  and  N_13
    4  A    between atoms: O_5  and  C_34
    5  A    between atoms: C_12  and  C_16
    6  A    between atoms: C_17  and  C_23
    7  A    between atoms: C_19  and  C_33
                            x       y       z     vdW  Elec       q    Type
                         _______ _______ _______ _____ _____    ______ ____

>  <TORSDO>
F 7

$$$$
=
 OpenBabel11072408263D

 34 37  0  0  1  0  0  0  0  0999 V2000
  188.9160  177.3260  146.0480 N   0  0  0  0  0  0  0  0  0  0  0  0
  189.0220  177.3990  143.6560 C   0  0  0  0  0  0  0  0  0  0  0  0
  190.2370  177.0190  146.1440 C   0  0  0  0  0  0  0  0  0  0  0  0
  190.3760  177.0610  143.7410 C   0  0  0  0  0  3  0  0  0  0  0  0
  191.0060  176.8770  144.9700 C   0  0  0  0  0  0  0  0  0  0  0  0
  190.7950  176.7580  147.5010 C   0  0  0  0  0  1  0  0  0  0  0  0
  188.2830  177.5170  144.8580 C   0  0  0  0  0  0  0  0  0  0  0  0
  185.1130  176.9500  146.4960 C   0  0  0  0  0  3  0  0  0  0  0  0
  186.8270  177.7520  144.8880 C   0  0  0  0  0  0  0  0  0  0  0  0
  185.9030  176.6340  145.2700 C   0  0  0  0  0  2  0  0  0  0  0  0
  184.9520  179.3930  144.6240 C   0  0  0  0  0  3  0  0  0  0  0  0
  186.3610  178.9600  144.5540 C   0  0  0  0  0  3  0  0  0  0  0  0
  184.2540  177.9660  146.5650 C   0  0  0  0  0  3  0  0  0  0  0  0
  184.0350  178.9630  145.4990 C   0  0  0  0  0  3  0  0  0  0  0  0
  188.7820  178.7590  141.7280 O   0  0  0  0  0  0  0  0  0  0  0  0
  187.5210  176.7970  141.7150 N   0  0  0  0  0  2  0  0  0  0  0  0
  188.4650  177.6880  142.3160 C   0  0  0  0  0  0  0  0  0  0  0  0
  186.9590  177.0420  140.4530 C   0  0  0  0  0  0  0  0  0  0  0  0
  186.4960  177.2450  139.4120 N   0  0  0  0  0  0  0  0  0  0  0  0
  192.3710  176.5550  144.9610 O   0  0  0  0  0  0  0  0  0  0  0  0
  194.0380  173.8320  143.8520 C   0  0  0  0  0  2  0  0  0  0  0  0
  194.5430  175.9890  144.1190 C   0  0  0  0  0  2  0  0  0  0  0  0
  194.9240  174.6950  144.5110 O   0  0  0  0  0  0  0  0  0  0  0  0
  193.0550  175.9990  143.8450 C   0  0  1  0  0  3  0  0  0  0  0  0
  192.7100  174.5410  143.7190 C   0  0  1  0  0  3  0  0  0  0  0  0
  192.2710  173.8000  139.9540 C   0  0  0  0  0  2  0  0  0  0  0  0
  192.8160  174.0950  141.3280 C   0  0  0  0  0  3  0  0  0  0  0  0
  190.9080  173.1210  140.0160 C   0  0  0  0  0  2  0  0  0  0  0  0
  192.0350  174.2320  142.4130 C   0  0  0  0  0  0  0  0  0  0  0  0
  190.3120  172.6730  142.9570 O   0  0  0  0  0  1  0  0  0  0  0  0
  190.5490  173.9160  142.3640 C   0  0  2  0  0  3  0  0  0  0  0  0
  189.9980  173.9330  140.9310 C   0  0  2  0  0  3  0  0  0  0  0  0
  188.6990  173.4230  140.8950 O   0  0  0  0  0  0  0  0  0  0  0  0
  188.6480  172.6580  139.7280 C   0  0  0  0  0  1  0  0  0  0  0  0
  1  3  1  0  0  0  0
  2  4  2  0  0  0  0
  2  7  1  0  0  0  0
  3  6  1  0  0  0  0
  4  5  1  0  0  0  0
  5  3  2  0  0  0  0
  7  9  1  0  0  0  0
  7  1  2  0  0  0  0
  8 13  2  0  0  0  0
  9 10  1  0  0  0  0
 10  8  1  0  0  0  0
 11 14  2  0  0  0  0
 12 11  1  0  0  0  0
 12  9  2  0  0  0  0
 14 13  1  0  0  0  0
 15 17  2  0  0  0  0
 16 17  1  0  0  0  0
 17  2  1  0  0  0  0
 18 16  1  0  0  0  0
 19 18  3  0  0  0  0
 20  5  1  0  0  0  0
 21 23  1  0  0  0  0
 22 23  1  0  0  0  0
 24 22  1  0  0  0  0
 24 20  1  1  0  0  0
 25 29  1  6  0  0  0
 25 24  1  0  0  0  0
 25 21  1  0  0  0  0
 26 28  1  0  0  0  0
 26 27  1  0  0  0  0
 27 29  2  0  0  0  0
 28 32  1  0  0  0  0
 31 29  1  0  0  0  0
 31 30  1  6  0  0  0
 32 33  1  1  0  0  0
 32 31  1  0  0  0  0
 34 33  1  0  0  0  0
M  END
>  <MODEL>
4

>  <REMARK>
 VINA RESULT:      -7.7      1.285      1.327
  Name = 
  7 active torsions:
  status: ('A' for Active; 'I' for Inactive)
    1  A    between atoms: O_1  and  C_21
    2  A    between atoms: O_1  and  C_31
    3  A    between atoms: C_2  and  N_13
    4  A    between atoms: O_5  and  C_34
    5  A    between atoms: C_12  and  C_16
    6  A    between atoms: C_17  and  C_23
    7  A    between atoms: C_19  and  C_33
                            x       y       z     vdW  Elec       q    Type
                         _______ _______ _______ _____ _____    ______ ____

>  <TORSDO>
F 7

$$$$
=
 OpenBabel11072408263D

 34 37  0  0  1  0  0  0  0  0999 V2000
  191.7430  176.0490  146.7250 N   0  0  0  0  0  0  0  0  0  0  0  0
  190.6860  175.4540  144.6600 C   0  0  0  0  0  0  0  0  0  0  0  0
  190.6730  176.7930  147.1140 C   0  0  0  0  0  0  0  0  0  0  0  0
  189.5890  176.2340  145.0370 C   0  0  0  0  0  3  0  0  0  0  0  0
  189.5560  176.9030  146.2600 C   0  0  0  0  0  0  0  0  0  0  0  0
  190.7720  177.5380  148.4000 C   0  0  0  0  0  1  0  0  0  0  0  0
  191.7930  175.3830  145.5400 C   0  0  0  0  0  0  0  0  0  0  0  0
  195.3900  175.5200  145.2230 C   0  0  0  0  0  3  0  0  0  0  0  0
  193.0500  174.6890  145.1970 C   0  0  0  0  0  0  0  0  0  0  0  0
  194.1210  175.4210  144.4450 C   0  0  0  0  0  2  0  0  0  0  0  0
  194.4190  172.5990  145.3810 C   0  0  0  0  0  3  0  0  0  0  0  0
  193.1980  173.4090  145.5550 C   0  0  0  0  0  3  0  0  0  0  0  0
  196.0930  174.4540  145.6030 C   0  0  0  0  0  3  0  0  0  0  0  0
  195.6790  173.0520  145.4040 C   0  0  0  0  0  3  0  0  0  0  0  0
  191.0800  175.1660  142.3400 O   0  0  0  0  0  0  0  0  0  0  0  0
  189.8790  173.4450  143.3560 N   0  0  0  0  0  2  0  0  0  0  0  0
  190.5870  174.6880  143.3980 C   0  0  0  0  0  0  0  0  0  0  0  0
  189.7510  172.6970  142.1770 C   0  0  0  0  0  0  0  0  0  0  0  0
  189.6460  172.0790  141.2040 N   0  0  0  0  0  0  0  0  0  0  0  0
  188.4080  177.6500  146.5620 O   0  0  0  0  0  0  0  0  0  0  0  0
  185.1560  178.5550  146.7250 C   0  0  0  0  0  2  0  0  0  0  0  0
  186.3720  176.8860  147.5710 C   0  0  0  0  0  2  0  0  0  0  0  0
  185.5440  177.9620  147.9340 O   0  0  0  0  0  0  0  0  0  0  0  0
  187.0800  177.2280  146.2790 C   0  0  1  0  0  3  0  0  0  0  0  0
  186.2890  178.3870  145.7390 C   0  0  1  0  0  3  0  0  0  0  0  0
  183.9010  178.3020  142.7040 C   0  0  0  0  0  2  0  0  0  0  0  0
  184.5330  178.5130  144.0560 C   0  0  0  0  0  3  0  0  0  0  0  0
  184.9440  178.1720  141.6010 C   0  0  0  0  0  2  0  0  0  0  0  0
  185.7890  178.1290  144.3460 C   0  0  0  0  0  0  0  0  0  0  0  0
  187.6400  178.6160  142.9210 O   0  0  0  0  0  1  0  0  0  0  0  0
  186.7280  177.6160  143.2680 C   0  0  2  0  0  3  0  0  0  0  0  0
  185.9730  177.1310  142.0210 C   0  0  2  0  0  3  0  0  0  0  0  0
  186.8610  176.8790  140.9730 O   0  0  0  0  0  0  0  0  0  0  0  0
  186.3120  177.5420  139.8740 C   0  0  0  0  0  1  0  0  0  0  0  0
  1  3  1  0  0  0  0
  2  4  2  0  0  0  0
  2  7  1  0  0  0  0
  3  6  1  0  0  0  0
  4  5  1  0  0  0  0
  5 20  1  0  0  0  0
  5  3  2  0  0  0  0
  7  1  2  0  0  0  0
  8 13  2  0  0  0  0
  9  7  1  0  0  0  0
  9 12  2  0  0  0  0
 10  9  1  0  0  0  0
 10  8  1  0  0  0  0
 11 14  2  0  0  0  0
 11 12  1  0  0  0  0
 14 13  1  0  0  0  0
 15 17  2  0  0  0  0
 16 17  1  0  0  0  0
 17  2  1  0  0  0  0
 18 16  1  0  0  0  0
 19 18  3  0  0  0  0
 21 23  1  0  0  0  0
 22 23  1  0  0  0  0
 24 20  1  1  0  0  0
 24 22  1  0  0  0  0
 25 29  1  6  0  0  0
 25 24  1  0  0  0  0
 25 21  1  0  0  0  0
 26 27  1  0  0  0  0
 27 29  2  0  0  0  0
 28 32  1  0  0  0  0
 28 26  1  0  0  0  0
 31 30  1  6  0  0  0
 31 29  1  0  0  0  0
 32 33  1  6  0  0  0
 32 31  1  0  0  0  0
 34 33  1  0  0  0  0
M  END
>  <MODEL>
5

>  <REMARK>
 VINA RESULT:      -7.6      2.430      7.305
  Name = 
  7 active torsions:
  status: ('A' for Active; 'I' for Inactive)
    1  A    between atoms: O_1  and  C_21
    2  A    between atoms: O_1  and  C_31
    3  A    between atoms: C_2  and  N_13
    4  A    between atoms: O_5  and  C_34
    5  A    between atoms: C_12  and  C_16
    6  A    between atoms: C_17  and  C_23
    7  A    between atoms: C_19  and  C_33
                            x       y       z     vdW  Elec       q    Type
                         _______ _______ _______ _____ _____    ______ ____

>  <TORSDO>
F 7

$$$$
=
 OpenBabel11072408263D

 34 37  0  0  1  0  0  0  0  0999 V2000
  188.9970  176.9640  146.1980 N   0  0  0  0  0  0  0  0  0  0  0  0
  188.7960  176.1790  143.9440 C   0  0  0  0  0  0  0  0  0  0  0  0
  190.2610  176.4760  146.3060 C   0  0  0  0  0  0  0  0  0  0  0  0
  190.0870  175.6520  144.0500 C   0  0  0  0  0  3  0  0  0  0  0  0
  190.8390  175.7960  145.2140 C   0  0  0  0  0  0  0  0  0  0  0  0
  190.9490  176.6060  147.6210 C   0  0  0  0  0  1  0  0  0  0  0  0
  188.2470  176.8400  145.0700 C   0  0  0  0  0  0  0  0  0  0  0  0
  185.0700  176.9140  146.7890 C   0  0  0  0  0  3  0  0  0  0  0  0
  186.8560  177.3310  145.1150 C   0  0  0  0  0  0  0  0  0  0  0  0
  185.7590  176.4130  145.5650 C   0  0  0  0  0  2  0  0  0  0  0  0
  185.2960  179.2680  144.8110 C   0  0  0  0  0  3  0  0  0  0  0  0
  186.6030  178.5880  144.7360 C   0  0  0  0  0  3  0  0  0  0  0  0
  184.4060  178.0690  146.8270 C   0  0  0  0  0  3  0  0  0  0  0  0
  184.3400  179.0440  145.7220 C   0  0  0  0  0  3  0  0  0  0  0  0
  187.8280  174.9430  142.1680 O   0  0  0  0  0  0  0  0  0  0  0  0
  187.8420  177.2560  141.8670 N   0  0  0  0  0  2  0  0  0  0  0  0
  188.1150  176.0790  142.6350 C   0  0  0  0  0  0  0  0  0  0  0  0
  187.2110  177.2020  140.6160 C   0  0  0  0  0  0  0  0  0  0  0  0
  186.6900  177.1580  139.5840 N   0  0  0  0  0  0  0  0  0  0  0  0
  192.1310  175.2490  145.2260 O   0  0  0  0  0  0  0  0  0  0  0  0
  195.5090  175.1300  145.2000 C   0  0  0  0  0  2  0  0  0  0  0  0
  193.9860  176.4920  146.0970 C   0  0  0  0  0  2  0  0  0  0  0  0
  195.0620  175.6500  146.4230 O   0  0  0  0  0  0  0  0  0  0  0  0
  193.3060  175.9600  144.8550 C   0  0  1  0  0  3  0  0  0  0  0  0
  194.3140  175.0020  144.2840 C   0  0  1  0  0  3  0  0  0  0  0  0
  195.9930  176.7410  141.2710 C   0  0  0  0  0  2  0  0  0  0  0  0
  195.5650  176.3010  142.6480 C   0  0  0  0  0  3  0  0  0  0  0  0
  195.7720  175.6500  140.2300 C   0  0  0  0  0  2  0  0  0  0  0  0
  194.6600  175.3290  142.8590 C   0  0  0  0  0  0  0  0  0  0  0  0
  194.7540  173.2240  141.7410 O   0  0  0  0  0  1  0  0  0  0  0  0
  194.1340  174.4760  141.7170 C   0  0  2  0  0  3  0  0  0  0  0  0
  194.3400  175.1430  140.3500 C   0  0  2  0  0  3  0  0  0  0  0  0
  194.0570  174.2480  139.3160 O   0  0  0  0  0  0  0  0  0  0  0  0
  193.9160  175.0480  138.1800 C   0  0  0  0  0  1  0  0  0  0  0  0
  1  3  1  0  0  0  0
  2  4  2  0  0  0  0
  2  7  1  0  0  0  0
  3  6  1  0  0  0  0
  4  5  1  0  0  0  0
  5 20  1  0  0  0  0
  5  3  2  0  0  0  0
  7  9  1  0  0  0  0
  7  1  2  0  0  0  0
  8 13  2  0  0  0  0
  9 10  1  0  0  0  0
 10  8  1  0  0  0  0
 11 14  2  0  0  0  0
 12 11  1  0  0  0  0
 12  9  2  0  0  0  0
 14 13  1  0  0  0  0
 15 17  2  0  0  0  0
 16 17  1  0  0  0  0
 17  2  1  0  0  0  0
 18 16  1  0  0  0  0
 19 18  3  0  0  0  0
 21 23  1  0  0  0  0
 22 23  1  0  0  0  0
 24 20  1  1  0  0  0
 24 22  1  0  0  0  0
 25 29  1  6  0  0  0
 25 24  1  0  0  0  0
 25 21  1  0  0  0  0
 26 27  1  0  0  0  0
 27 29  2  0  0  0  0
 28 32  1  0  0  0  0
 28 26  1  0  0  0  0
 31 30  1  6  0  0  0
 31 29  1  0  0  0  0
 32 33  1  6  0  0  0
 32 31  1  0  0  0  0
 34 33  1  0  0  0  0
M  END
>  <MODEL>
6

>  <REMARK>
 VINA RESULT:      -7.3      2.380      3.335
  Name = 
  7 active torsions:
  status: ('A' for Active; 'I' for Inactive)
    1  A    between atoms: O_1  and  C_21
    2  A    between atoms: O_1  and  C_31
    3  A    between atoms: C_2  and  N_13
    4  A    between atoms: O_5  and  C_34
    5  A    between atoms: C_12  and  C_16
    6  A    between atoms: C_17  and  C_23
    7  A    between atoms: C_19  and  C_33
                            x       y       z     vdW  Elec       q    Type
                         _______ _______ _______ _____ _____    ______ ____

>  <TORSDO>
F 7

$$$$
=
 OpenBabel11072408263D

 34 37  0  0  1  0  0  0  0  0999 V2000
  191.6280  174.6180  143.3140 N   0  0  0  0  0  0  0  0  0  0  0  0
  190.7140  175.4350  145.3720 C   0  0  0  0  0  0  0  0  0  0  0  0
  190.4740  174.8780  142.6430 C   0  0  0  0  0  0  0  0  0  0  0  0
  189.5140  175.6850  144.6980 C   0  0  0  0  0  3  0  0  0  0  0  0
  189.3750  175.4250  143.3360 C   0  0  0  0  0  0  0  0  0  0  0  0
  190.3980  174.4840  141.2080 C   0  0  0  0  0  1  0  0  0  0  0  0
  191.7880  174.8700  144.6410 C   0  0  0  0  0  0  0  0  0  0  0  0
  194.3160  172.3240  145.0630 C   0  0  0  0  0  3  0  0  0  0  0  0
  193.0570  174.4540  145.2690 C   0  0  0  0  0  0  0  0  0  0  0  0
  193.2140  173.0470  145.7630 C   0  0  0  0  0  2  0  0  0  0  0  0
  195.3960  175.0840  145.9080 C   0  0  0  0  0  3  0  0  0  0  0  0
  194.0370  175.3530  145.3980 C   0  0  0  0  0  3  0  0  0  0  0  0
  195.5900  172.7100  145.1220 C   0  0  0  0  0  3  0  0  0  0  0  0
  196.0730  173.9350  145.7870 C   0  0  0  0  0  3  0  0  0  0  0  0
  190.3200  175.1080  147.6870 O   0  0  0  0  0  0  0  0  0  0  0  0
  191.3900  177.1070  147.1410 N   0  0  0  0  0  2  0  0  0  0  0  0
  190.8090  175.8470  146.7890 C   0  0  0  0  0  0  0  0  0  0  0  0
  191.4870  177.5400  148.4710 C   0  0  0  0  0  0  0  0  0  0  0  0
  191.5660  177.8980  149.5690 N   0  0  0  0  0  0  0  0  0  0  0  0
  188.1400  175.7230  142.7400 O   0  0  0  0  0  0  0  0  0  0  0  0
  185.6090  177.5410  141.4330 C   0  0  0  0  0  2  0  0  0  0  0  0
  187.8340  177.5880  141.2660 C   0  0  0  0  0  2  0  0  0  0  0  0
  186.6590  177.4560  140.5080 O   0  0  0  0  0  0  0  0  0  0  0  0
  187.5890  177.0300  142.6510 C   0  0  1  0  0  3  0  0  0  0  0  0
  186.0900  176.9500  142.7390 C   0  0  1  0  0  3  0  0  0  0  0  0
  183.6910  179.0600  144.9100 C   0  0  0  0  0  2  0  0  0  0  0  0
  184.3420  178.2690  143.8040 C   0  0  0  0  0  3  0  0  0  0  0  0
  184.2270  178.6690  146.2810 C   0  0  0  0  0  2  0  0  0  0  0  0
  185.5530  177.6970  143.9260 C   0  0  0  0  0  0  0  0  0  0  0  0
  186.1640  176.3800  145.8190 O   0  0  0  0  0  1  0  0  0  0  0  0
  186.2770  177.6560  145.2610 C   0  0  2  0  0  3  0  0  0  0  0  0
  185.7500  178.7120  146.2420 C   0  0  2  0  0  3  0  0  0  0  0  0
  186.2710  178.5040  147.5200 O   0  0  0  0  0  0  0  0  0  0  0  0
  186.3160  179.7730  148.0990 C   0  0  0  0  0  1  0  0  0  0  0  0
  1  7  1  0  0  0  0
  2 17  1  0  0  0  0
  3  1  2  0  0  0  0
  3  5  1  0  0  0  0
  4  2  1  0  0  0  0
  5  4  2  0  0  0  0
  6  3  1  0  0  0  0
  7  9  1  0  0  0  0
  7  2  2  0  0  0  0
  8 13  2  0  0  0  0
  8 10  1  0  0  0  0
  9 12  2  0  0  0  0
  9 10  1  0  0  0  0
 12 11  1  0  0  0  0
 13 14  1  0  0  0  0
 14 11  2  0  0  0  0
 16 18  1  0  0  0  0
 17 16  1  0  0  0  0
 17 15  2  0  0  0  0
 18 19  3  0  0  0  0
 20  5  1  0  0  0  0
 21 25  1  0  0  0  0
 22 24  1  0  0  0  0
 23 22  1  0  0  0  0
 23 21  1  0  0  0  0
 24 25  1  0  0  0  0
 24 20  1  6  0  0  0
 25 29  1  1  0  0  0
 26 28  1  0  0  0  0
 27 29  2  0  0  0  0
 27 26  1  0  0  0  0
 29 31  1  0  0  0  0
 31 30  1  1  0  0  0
 31 32  1  0  0  0  0
 32 28  1  0  0  0  0
 32 33  1  1  0  0  0
 33 34  1  0  0  0  0
M  END
>  <MODEL>
7

>  <REMARK>
 VINA RESULT:      -7.2      2.604      8.135
  Name = 
  7 active torsions:
  status: ('A' for Active; 'I' for Inactive)
    1  A    between atoms: O_1  and  C_21
    2  A    between atoms: O_1  and  C_31
    3  A    between atoms: C_2  and  N_13
    4  A    between atoms: O_5  and  C_34
    5  A    between atoms: C_12  and  C_16
    6  A    between atoms: C_17  and  C_23
    7  A    between atoms: C_19  and  C_33
                            x       y       z     vdW  Elec       q    Type
                         _______ _______ _______ _____ _____    ______ ____

>  <TORSDO>
F 7

$$$$
=
 OpenBabel11072408263D

 34 37  0  0  1  0  0  0  0  0999 V2000
  192.1440  172.2790  144.5350 N   0  0  0  0  0  0  0  0  0  0  0  0
  193.4010  174.3150  144.6540 C   0  0  0  0  0  0  0  0  0  0  0  0
  190.9630  172.9500  144.5580 C   0  0  0  0  0  0  0  0  0  0  0  0
  192.1920  175.0160  144.7010 C   0  0  0  0  0  3  0  0  0  0  0  0
  190.9650  174.3580  144.6450 C   0  0  0  0  0  0  0  0  0  0  0  0
  189.7060  172.1500  144.5790 C   0  0  0  0  0  1  0  0  0  0  0  0
  193.3540  172.9010  144.5830 C   0  0  0  0  0  0  0  0  0  0  0  0
  196.7780  172.3450  143.5740 C   0  0  0  0  0  3  0  0  0  0  0  0
  194.5590  172.0510  144.6470 C   0  0  0  0  0  0  0  0  0  0  0  0
  195.3840  171.8390  143.4140 C   0  0  0  0  0  2  0  0  0  0  0  0
  196.0930  170.6780  146.0750 C   0  0  0  0  0  3  0  0  0  0  0  0
  194.8780  171.4730  145.8100 C   0  0  0  0  0  3  0  0  0  0  0  0
  197.6270  171.8600  144.4800 C   0  0  0  0  0  3  0  0  0  0  0  0
  197.2900  170.8470  145.4990 C   0  0  0  0  0  3  0  0  0  0  0  0
  195.2820  175.3370  145.6720 O   0  0  0  0  0  0  0  0  0  0  0  0
  195.1180  175.6470  143.3670 N   0  0  0  0  0  2  0  0  0  0  0  0
  194.6530  175.1000  144.6040 C   0  0  0  0  0  0  0  0  0  0  0  0
  196.2930  176.4080  143.2800 C   0  0  0  0  0  0  0  0  0  0  0  0
  197.2620  177.0360  143.2090 N   0  0  0  0  0  0  0  0  0  0  0  0
  189.8030  175.1430  144.6820 O   0  0  0  0  0  0  0  0  0  0  0  0
  189.6520  177.3530  147.2350 C   0  0  0  0  0  2  0  0  0  0  0  0
  189.9590  175.1480  147.0740 C   0  0  0  0  0  2  0  0  0  0  0  0
  190.5570  176.3280  147.5470 O   0  0  0  0  0  0  0  0  0  0  0  0
  189.1020  175.4810  145.8720 C   0  0  1  0  0  3  0  0  0  0  0  0
  188.9430  176.9740  145.9550 C   0  0  1  0  0  3  0  0  0  0  0  0
  185.5620  178.2830  147.2850 C   0  0  0  0  0  2  0  0  0  0  0  0
  186.9960  177.8490  147.1270 C   0  0  0  0  0  3  0  0  0  0  0  0
  184.9400  178.6920  145.9560 C   0  0  0  0  0  2  0  0  0  0  0  0
  187.4990  177.3880  145.9690 C   0  0  0  0  0  0  0  0  0  0  0  0
  187.1510  178.5000  143.8870 O   0  0  0  0  0  1  0  0  0  0  0  0
  186.6960  177.4430  144.6800 C   0  0  2  0  0  3  0  0  0  0  0  0
  185.1890  177.5850  144.9390 C   0  0  2  0  0  3  0  0  0  0  0  0
  184.5070  177.8580  143.7510 O   0  0  0  0  0  0  0  0  0  0  0  0
  183.8100  179.0410  144.0040 C   0  0  0  0  0  1  0  0  0  0  0  0
  1  3  2  0  0  0  0
  1  7  1  0  0  0  0
  2  4  1  0  0  0  0
  3  6  1  0  0  0  0
  3  5  1  0  0  0  0
  5 20  1  0  0  0  0
  5  4  2  0  0  0  0
  7  9  1  0  0  0  0
  7  2  2  0  0  0  0
  8 13  2  0  0  0  0
  9 12  2  0  0  0  0
 10  8  1  0  0  0  0
 10  9  1  0  0  0  0
 12 11  1  0  0  0  0
 13 14  1  0  0  0  0
 14 11  2  0  0  0  0
 16 17  1  0  0  0  0
 17  2  1  0  0  0  0
 17 15  2  0  0  0  0
 18 16  1  0  0  0  0
 19 18  3  0  0  0  0
 21 23  1  0  0  0  0
 22 23  1  0  0  0  0
 24 20  1  6  0  0  0
 24 25  1  0  0  0  0
 24 22  1  0  0  0  0
 25 29  1  1  0  0  0
 25 21  1  0  0  0  0
 27 26  1  0  0  0  0
 28 26  1  0  0  0  0
 29 27  2  0  0  0  0
 31 30  1  6  0  0  0
 31 32  1  0  0  0  0
 31 29  1  0  0  0  0
 32 33  1  6  0  0  0
 32 28  1  0  0  0  0
 33 34  1  0  0  0  0
M  END
>  <MODEL>
8

>  <REMARK>
 VINA RESULT:      -7.2      3.148      8.412
  Name = 
  7 active torsions:
  status: ('A' for Active; 'I' for Inactive)
    1  A    between atoms: O_1  and  C_21
    2  A    between atoms: O_1  and  C_31
    3  A    between atoms: C_2  and  N_13
    4  A    between atoms: O_5  and  C_34
    5  A    between atoms: C_12  and  C_16
    6  A    between atoms: C_17  and  C_23
    7  A    between atoms: C_19  and  C_33
                            x       y       z     vdW  Elec       q    Type
                         _______ _______ _______ _____ _____    ______ ____

>  <TORSDO>
F 7

$$$$
=
 OpenBabel11072408263D

 34 37  0  0  1  0  0  0  0  0999 V2000
  190.8050  174.1970  142.1570 N   0  0  0  0  0  0  0  0  0  0  0  0
  190.5480  175.7080  143.9990 C   0  0  0  0  0  0  0  0  0  0  0  0
  189.5930  174.5390  141.6460 C   0  0  0  0  0  0  0  0  0  0  0  0
  189.2900  176.0520  143.4950 C   0  0  0  0  0  3  0  0  0  0  0  0
  188.7970  175.4900  142.3190 C   0  0  0  0  0  0  0  0  0  0  0  0
  189.1200  173.8180  140.4310 C   0  0  0  0  0  1  0  0  0  0  0  0
  191.3080  174.7380  143.3000 C   0  0  0  0  0  0  0  0  0  0  0  0
  194.6300  175.4170  144.5500 C   0  0  0  0  0  3  0  0  0  0  0  0
  192.5930  174.2110  143.7990 C   0  0  0  0  0  0  0  0  0  0  0  0
  193.8760  174.8680  143.3850 C   0  0  0  0  0  2  0  0  0  0  0  0
  193.7600  172.5470  145.2640 C   0  0  0  0  0  3  0  0  0  0  0  0
  192.5830  173.1410  144.6000 C   0  0  0  0  0  3  0  0  0  0  0  0
  195.0950  174.6530  145.5380 C   0  0  0  0  0  3  0  0  0  0  0  0
  194.8520  173.2040  145.6740 C   0  0  0  0  0  3  0  0  0  0  0  0
  191.7850  177.4440  145.0370 O   0  0  0  0  0  0  0  0  0  0  0  0
  190.7300  175.9700  146.5050 N   0  0  0  0  0  2  0  0  0  0  0  0
  191.0390  176.4380  145.1880 C   0  0  0  0  0  0  0  0  0  0  0  0
  191.1880  176.6250  147.6570 C   0  0  0  0  0  0  0  0  0  0  0  0
  191.5660  177.1660  148.6080 N   0  0  0  0  0  0  0  0  0  0  0  0
  187.5310  175.9050  141.8790 O   0  0  0  0  0  0  0  0  0  0  0  0
  184.8990  177.9170  141.2160 C   0  0  0  0  0  2  0  0  0  0  0  0
  187.0580  177.9120  140.6570 C   0  0  0  0  0  2  0  0  0  0  0  0
  185.7630  177.8890  140.1130 O   0  0  0  0  0  0  0  0  0  0  0  0
  187.0350  177.2320  142.0080 C   0  0  1  0  0  3  0  0  0  0  0  0
  185.5730  177.1890  142.3560 C   0  0  1  0  0  3  0  0  0  0  0  0
  183.6910  179.1420  145.1060 C   0  0  0  0  0  2  0  0  0  0  0  0
  184.0990  178.4420  143.8350 C   0  0  0  0  0  3  0  0  0  0  0  0
  184.4520  178.6140  146.3160 C   0  0  0  0  0  2  0  0  0  0  0  0
  185.2890  177.8350  143.6820 C   0  0  0  0  0  0  0  0  0  0  0  0
  186.1820  176.3350  145.3090 O   0  0  0  0  0  1  0  0  0  0  0  0
  186.2420  177.6550  144.8520 C   0  0  2  0  0  3  0  0  0  0  0  0
  185.9420  178.6280  146.0020 C   0  0  2  0  0  3  0  0  0  0  0  0
  186.6780  178.2900  147.1390 O   0  0  0  0  0  0  0  0  0  0  0  0
  186.3550  179.2720  148.0780 C   0  0  0  0  0  1  0  0  0  0  0  0
  1  7  1  0  0  0  0
  2 17  1  0  0  0  0
  3  1  2  0  0  0  0
  3  5  1  0  0  0  0
  4  2  1  0  0  0  0
  5  4  2  0  0  0  0
  6  3  1  0  0  0  0
  7  9  1  0  0  0  0
  7  2  2  0  0  0  0
  8 13  2  0  0  0  0
  9 12  2  0  0  0  0
 10  9  1  0  0  0  0
 10  8  1  0  0  0  0
 11 14  2  0  0  0  0
 12 11  1  0  0  0  0
 13 14  1  0  0  0  0
 15 17  2  0  0  0  0
 16 18  1  0  0  0  0
 17 16  1  0  0  0  0
 18 19  3  0  0  0  0
 20  5  1  0  0  0  0
 21 25  1  0  0  0  0
 22 24  1  0  0  0  0
 23 22  1  0  0  0  0
 23 21  1  0  0  0  0
 24 20  1  6  0  0  0
 24 25  1  0  0  0  0
 25 29  1  1  0  0  0
 26 28  1  0  0  0  0
 27 26  1  0  0  0  0
 29 27  2  0  0  0  0
 29 31  1  0  0  0  0
 31 30  1  1  0  0  0
 31 32  1  0  0  0  0
 32 28  1  0  0  0  0
 32 33  1  1  0  0  0
 33 34  1  0  0  0  0
M  END
>  <MODEL>
9

>  <REMARK>
 VINA RESULT:      -7.2      2.362      8.067
  Name = 
  7 active torsions:
  status: ('A' for Active; 'I' for Inactive)
    1  A    between atoms: O_1  and  C_21
    2  A    between atoms: O_1  and  C_31
    3  A    between atoms: C_2  and  N_13
    4  A    between atoms: O_5  and  C_34
    5  A    between atoms: C_12  and  C_16
    6  A    between atoms: C_17  and  C_23
    7  A    between atoms: C_19  and  C_33
                            x       y       z     vdW  Elec       q    Type
                         _______ _______ _______ _____ _____    ______ ____

>  <TORSDO>
F 7

$$$$
