=
 OpenBabel11062420583D

 31 34  0  0  1  0  0  0  0  0999 V2000
  195.2160  173.0170  144.6880 C   0  0  0  0  0  0  0  0  0  0  0  0
  192.0820  174.8370  144.6150 C   0  0  0  0  0  2  0  0  0  0  0  0
  189.1670  174.3610  141.5100 C   0  0  0  0  0  3  0  0  0  0  0  0
  193.4560  175.2170  144.0680 C   0  0  1  0  0  3  0  0  0  0  0  0
  192.8360  173.9880  141.9510 C   0  0  0  0  0  0  0  0  0  0  0  0
  194.4470  175.3210  145.2480 C   0  0  1  0  0  3  0  0  0  0  0  0
  195.8460  171.6440  145.3030 S   0  0  0  0  0  0  0  0  0  0  0  0
  191.4200  174.2740  142.2550 C   0  0  0  0  0  0  0  0  0  0  0  0
  193.1570  173.5250  140.8240 O   0  0  0  0  0  0  0  0  0  0  0  0
  189.6810  175.0470  143.7790 C   0  0  0  0  0  0  0  0  0  0  0  0
  188.7510  174.8390  142.7500 C   0  0  0  0  0  3  0  0  0  0  0  0
  195.6390  174.3500  145.2140 C   0  0  0  0  0  2  0  0  0  0  0  0
  190.4790  174.0950  141.2900 N   0  0  0  0  0  0  0  0  0  0  0  0
  194.3360  172.9690  143.5680 N   0  0  0  0  0  2  0  0  0  0  0  0
  193.9070  174.2280  142.9730 C   0  0  2  0  0  3  0  0  0  0  0  0
  191.0450  174.7590  143.5270 C   0  0  0  0  0  0  0  0  0  0  0  0
  188.5830  175.6190  147.2590 C   0  0  0  0  0  3  0  0  0  0  0  0
  188.4080  177.0010  146.7120 C   0  0  1  0  0  3  0  0  0  0  0  0
  188.8350  176.8300  145.2930 C   0  0  0  0  0  3  0  0  0  0  0  0
  189.0320  174.8070  146.3150 C   0  0  0  0  0  3  0  0  0  0  0  0
  189.1820  175.5670  145.0810 C   0  0  0  0  0  0  0  0  0  0  0  0
  186.6320  178.7540  148.0180 Cl  0  0  0  0  0  0  0  0  0  0  0  0
  186.9590  177.4990  146.7750 C   0  0  1  0  0  3  0  0  0  0  0  0
  185.5780  176.7130  145.0050 O   0  0  0  0  0  1  0  0  0  0  0  0
  186.3420  177.8110  145.4060 C   0  0  1  0  0  3  0  0  0  0  0  0
  184.0400  178.8240  145.7020 C   0  0  0  0  0  1  0  0  0  0  0  0
  185.5790  179.7700  144.0420 C   0  0  0  0  0  1  0  0  0  0  0  0
  185.5040  179.1000  145.4010 C   0  0  0  0  0  3  0  0  0  0  0  0
  194.5520  177.4640  146.5300 O   0  0  0  0  0  1  0  0  0  0  0  0
  194.9210  176.7240  145.4130 C   0  0  0  0  0  0  0  0  0  0  0  0
  195.6640  177.2390  144.5380 O   0  0  0  0  0  0  0  0  0  0  0  0
  1 12  1  0  0  0  0
  1  7  2  0  0  0  0
  3 11  1  0  0  0  0
  4  2  1  1  0  0  0
  4  6  1  0  0  0  0
  5  8  1  0  0  0  0
  6 30  1  6  0  0  0
  8 16  2  0  0  0  0
  9  5  2  0  0  0  0
 10 21  1  0  0  0  0
 11 10  2  0  0  0  0
 12  6  1  0  0  0  0
 13  3  2  0  0  0  0
 13  8  1  0  0  0  0
 14  1  1  0  0  0  0
 15  5  1  6  0  0  0
 15 14  1  0  0  0  0
 15  4  1  0  0  0  0
 16 10  1  0  0  0  0
 16  2  1  0  0  0  0
 18 23  1  6  0  0  0
 18 17  1  0  0  0  0
 19 18  1  0  0  0  0
 20 17  2  0  0  0  0
 21 19  2  0  0  0  0
 21 20  1  0  0  0  0
 23 22  1  1  0  0  0
 25 24  1  1  0  0  0
 25 23  1  0  0  0  0
 27 28  1  0  0  0  0
 28 25  1  0  0  0  0
 28 26  1  0  0  0  0
 30 29  1  0  0  0  0
 31 30  2  0  0  0  0
M  END
>  <MODEL>
1

>  <REMARK>
 VINA RESULT:      -7.7      0.000      0.000
  Name = 
  5 active torsions:
  status: ('A' for Active; 'I' for Inactive)
    1  A    between atoms: C_8  and  C_31
    2  A    between atoms: C_9  and  C_19
    3  A    between atoms: C_17  and  C_30
    4  A    between atoms: C_24  and  C_25
    5  A    between atoms: C_25  and  C_31
                            x       y       z     vdW  Elec       q    Type
                         _______ _______ _______ _____ _____    ______ ____

>  <TORSDO>
F 5

$$$$
=
 OpenBabel11062420583D

 31 34  0  0  1  0  0  0  0  0999 V2000
  192.5300  174.4840  142.5900 C   0  0  0  0  0  0  0  0  0  0  0  0
  190.0250  175.5490  144.9850 C   0  0  0  0  0  2  0  0  0  0  0  0
  190.9570  177.8210  148.4970 C   0  0  0  0  0  3  0  0  0  0  0  0
  190.8240  174.2500  144.9060 C   0  0  1  0  0  3  0  0  0  0  0  0
  192.6370  175.4070  146.2280 C   0  0  0  0  0  0  0  0  0  0  0  0
  190.4590  173.5240  143.5920 C   0  0  1  0  0  3  0  0  0  0  0  0
  193.2190  174.9880  141.2010 S   0  0  0  0  0  0  0  0  0  0  0  0
  191.5930  176.2720  146.8140 C   0  0  0  0  0  0  0  0  0  0  0  0
  193.8030  175.4160  146.7060 O   0  0  0  0  0  0  0  0  0  0  0  0
  189.3070  177.1180  146.8640 C   0  0  0  0  0  0  0  0  0  0  0  0
  189.6630  177.8790  147.9870 C   0  0  0  0  0  3  0  0  0  0  0  0
  191.6130  173.3040  142.6000 C   0  0  0  0  0  2  0  0  0  0  0  0
  191.8840  177.0250  147.9080 N   0  0  0  0  0  0  0  0  0  0  0  0
  192.8760  175.0940  143.8300 N   0  0  0  0  0  2  0  0  0  0  0  0
  192.3360  174.5210  145.0570 C   0  0  2  0  0  3  0  0  0  0  0  0
  190.2930  176.2960  146.2640 C   0  0  0  0  0  0  0  0  0  0  0  0
  185.6670  176.9430  146.2670 C   0  0  0  0  0  3  0  0  0  0  0  0
  186.0700  177.7900  145.1010 C   0  0  1  0  0  3  0  0  0  0  0  0
  187.5470  177.8920  145.2870 C   0  0  0  0  0  3  0  0  0  0  0  0
  186.7290  176.6220  146.9880 C   0  0  0  0  0  3  0  0  0  0  0  0
  187.9070  177.2120  146.3670 C   0  0  0  0  0  0  0  0  0  0  0  0
  184.4860  177.9880  142.7810 Cl  0  0  0  0  0  0  0  0  0  0  0  0
  185.7480  177.1500  143.7450 C   0  0  1  0  0  3  0  0  0  0  0  0
  186.8070  175.4450  142.4690 O   0  0  0  0  0  1  0  0  0  0  0  0
  186.9840  176.7520  142.9300 C   0  0  1  0  0  3  0  0  0  0  0  0
  187.0410  177.0560  140.4160 C   0  0  0  0  0  1  0  0  0  0  0  0
  188.7220  178.1700  141.8130 C   0  0  0  0  0  1  0  0  0  0  0  0
  187.2760  177.7130  141.7670 C   0  0  0  0  0  3  0  0  0  0  0  0
  189.4390  171.8900  145.1850 O   0  0  0  0  0  1  0  0  0  0  0  0
  189.7650  172.2370  143.8790 C   0  0  0  0  0  0  0  0  0  0  0  0
  189.4690  171.4630  142.9330 O   0  0  0  0  0  0  0  0  0  0  0  0
  1 12  1  0  0  0  0
  1 14  1  0  0  0  0
  2 16  1  0  0  0  0
  4  2  1  6  0  0  0
  4 15  1  0  0  0  0
  5  9  2  0  0  0  0
  5  8  1  0  0  0  0
  6 30  1  1  0  0  0
  6  4  1  0  0  0  0
  7  1  2  0  0  0  0
  8 13  1  0  0  0  0
 10 11  2  0  0  0  0
 11  3  1  0  0  0  0
 12  6  1  0  0  0  0
 13  3  2  0  0  0  0
 15 14  1  6  0  0  0
 15  5  1  0  0  0  0
 16  8  2  0  0  0  0
 16 10  1  0  0  0  0
 17 20  2  0  0  0  0
 18 23  1  6  0  0  0
 18 19  1  0  0  0  0
 18 17  1  0  0  0  0
 19 21  2  0  0  0  0
 21 10  1  0  0  0  0
 21 20  1  0  0  0  0
 23 22  1  6  0  0  0
 25 24  1  6  0  0  0
 25 23  1  0  0  0  0
 26 28  1  0  0  0  0
 28 27  1  0  0  0  0
 28 25  1  0  0  0  0
 30 29  1  0  0  0  0
 31 30  2  0  0  0  0
M  END
>  <MODEL>
2

>  <REMARK>
 VINA RESULT:      -7.6      3.020      4.893
  Name = 
  5 active torsions:
  status: ('A' for Active; 'I' for Inactive)
    1  A    between atoms: C_8  and  C_31
    2  A    between atoms: C_9  and  C_19
    3  A    between atoms: C_17  and  C_30
    4  A    between atoms: C_24  and  C_25
    5  A    between atoms: C_25  and  C_31
                            x       y       z     vdW  Elec       q    Type
                         _______ _______ _______ _____ _____    ______ ____

>  <TORSDO>
F 5

$$$$
=
 OpenBabel11062420583D

 31 34  0  0  1  0  0  0  0  0999 V2000
  195.2520  175.5520  141.9360 C   0  0  0  0  0  0  0  0  0  0  0  0
  191.8400  175.9540  143.0940 C   0  0  0  0  0  2  0  0  0  0  0  0
  190.8390  176.8980  147.1530 C   0  0  0  0  0  3  0  0  0  0  0  0
  192.7030  174.6990  142.9870 C   0  0  1  0  0  3  0  0  0  0  0  0
  193.5900  175.2390  145.2890 C   0  0  0  0  0  0  0  0  0  0  0  0
  193.0510  174.4650  141.5010 C   0  0  1  0  0  3  0  0  0  0  0  0
  196.4520  176.4300  141.2670 S   0  0  0  0  0  0  0  0  0  0  0  0
  192.3180  175.9370  145.5640 C   0  0  0  0  0  0  0  0  0  0  0  0
  194.4000  175.0120  146.2270 O   0  0  0  0  0  0  0  0  0  0  0  0
  190.1960  176.8770  144.8140 C   0  0  0  0  0  0  0  0  0  0  0  0
  189.9240  177.2070  146.1500 C   0  0  0  0  0  3  0  0  0  0  0  0
  194.5470  174.4990  141.1450 C   0  0  0  0  0  2  0  0  0  0  0  0
  192.0020  176.2730  146.8430 N   0  0  0  0  0  0  0  0  0  0  0  0
  194.9310  175.7030  143.3170 N   0  0  0  0  0  2  0  0  0  0  0  0
  193.9440  174.8030  143.8990 C   0  0  2  0  0  3  0  0  0  0  0  0
  191.4200  176.2270  144.5140 C   0  0  0  0  0  0  0  0  0  0  0  0
  188.2730  178.0570  141.8910 C   0  0  0  0  0  3  0  0  0  0  0  0
  187.1850  177.3470  142.6360 C   0  0  1  0  0  3  0  0  0  0  0  0
  187.9080  176.8480  143.8410 C   0  0  0  0  0  3  0  0  0  0  0  0
  189.4120  177.9740  142.5590 C   0  0  0  0  0  3  0  0  0  0  0  0
  189.1800  177.2220  143.7840 C   0  0  0  0  0  0  0  0  0  0  0  0
  184.4410  177.8890  142.3090 Cl  0  0  0  0  0  0  0  0  0  0  0  0
  186.0320  178.2690  143.0500 C   0  0  1  0  0  3  0  0  0  0  0  0
  185.8590  179.9260  144.7480 O   0  0  0  0  0  1  0  0  0  0  0  0
  185.9600  178.5450  144.5570 C   0  0  1  0  0  3  0  0  0  0  0  0
  183.8130  178.7680  145.8810 C   0  0  0  0  0  1  0  0  0  0  0  0
  185.3460  176.9120  146.3550 C   0  0  0  0  0  1  0  0  0  0  0  0
  184.8070  177.8040  145.2530 C   0  0  0  0  0  3  0  0  0  0  0  0
  193.0780  171.9880  141.1660 O   0  0  0  0  0  1  0  0  0  0  0  0
  192.4260  173.2050  141.0080 C   0  0  0  0  0  0  0  0  0  0  0  0
  191.3000  173.2440  140.4480 O   0  0  0  0  0  0  0  0  0  0  0  0
  1 14  1  0  0  0  0
  2 16  1  0  0  0  0
  4  2  1  6  0  0  0
  4 15  1  0  0  0  0
  5  8  1  0  0  0  0
  5  9  2  0  0  0  0
  6 30  1  1  0  0  0
  6  4  1  0  0  0  0
  7  1  2  0  0  0  0
  8 13  2  0  0  0  0
 10 11  1  0  0  0  0
 11  3  2  0  0  0  0
 12  6  1  0  0  0  0
 12  1  1  0  0  0  0
 13  3  1  0  0  0  0
 15 14  1  6  0  0  0
 15  5  1  0  0  0  0
 16 10  2  0  0  0  0
 16  8  1  0  0  0  0
 17 20  2  0  0  0  0
 17 18  1  0  0  0  0
 18 23  1  1  0  0  0
 18 19  1  0  0  0  0
 20 21  1  0  0  0  0
 21 19  2  0  0  0  0
 21 10  1  0  0  0  0
 23 22  1  1  0  0  0
 23 25  1  0  0  0  0
 25 24  1  6  0  0  0
 25 28  1  0  0  0  0
 28 26  1  0  0  0  0
 28 27  1  0  0  0  0
 30 29  1  0  0  0  0
 31 30  2  0  0  0  0
M  END
>  <MODEL>
3

>  <REMARK>
 VINA RESULT:      -7.4      2.632      4.346
  Name = 
  5 active torsions:
  status: ('A' for Active; 'I' for Inactive)
    1  A    between atoms: C_8  and  C_31
    2  A    between atoms: C_9  and  C_19
    3  A    between atoms: C_17  and  C_30
    4  A    between atoms: C_24  and  C_25
    5  A    between atoms: C_25  and  C_31
                            x       y       z     vdW  Elec       q    Type
                         _______ _______ _______ _____ _____    ______ ____

>  <TORSDO>
F 5

$$$$
=
 OpenBabel11062420583D

 31 34  0  0  1  0  0  0  0  0999 V2000
  192.6800  173.5250  140.4530 C   0  0  0  0  0  0  0  0  0  0  0  0
  191.3150  174.6280  143.6250 C   0  0  0  0  0  2  0  0  0  0  0  0
  193.7270  176.2300  146.7850 C   0  0  0  0  0  3  0  0  0  0  0  0
  191.7840  173.2450  143.1820 C   0  0  1  0  0  3  0  0  0  0  0  0
  194.1090  173.9170  143.9040 C   0  0  0  0  0  0  0  0  0  0  0  0
  190.8910  172.7700  142.0150 C   0  0  1  0  0  3  0  0  0  0  0  0
  192.9770  174.1020  138.9570 S   0  0  0  0  0  0  0  0  0  0  0  0
  193.4890  174.8450  144.8710 C   0  0  0  0  0  0  0  0  0  0  0  0
  195.3450  173.6810  143.9610 O   0  0  0  0  0  0  0  0  0  0  0  0
  191.5420  176.0190  145.7520 C   0  0  0  0  0  0  0  0  0  0  0  0
  192.3740  176.5560  146.7450 C   0  0  0  0  0  3  0  0  0  0  0  0
  191.6070  172.5110  140.6790 C   0  0  0  0  0  2  0  0  0  0  0  0
  194.2500  175.3880  145.8590 N   0  0  0  0  0  0  0  0  0  0  0  0
  193.5120  173.9010  141.5480 N   0  0  0  0  0  2  0  0  0  0  0  0
  193.2890  173.2570  142.8360 C   0  0  2  0  0  3  0  0  0  0  0  0
  192.1120  175.1440  144.7940 C   0  0  0  0  0  0  0  0  0  0  0  0
  187.8850  176.2970  146.1850 C   0  0  0  0  0  3  0  0  0  0  0  0
  188.1490  177.5790  145.4600 C   0  0  1  0  0  3  0  0  0  0  0  0
  189.6240  177.5200  145.2500 C   0  0  0  0  0  3  0  0  0  0  0  0
  189.0150  175.6290  146.3570 C   0  0  0  0  0  3  0  0  0  0  0  0
  190.1020  176.3940  145.7630 C   0  0  0  0  0  0  0  0  0  0  0  0
  187.0030  176.1010  143.3540 Cl  0  0  0  0  0  0  0  0  0  0  0  0
  187.4230  177.6740  144.1120 C   0  0  1  0  0  3  0  0  0  0  0  0
  186.2300  179.2680  142.8110 O   0  0  0  0  0  1  0  0  0  0  0  0
  186.2810  178.6960  144.0850 C   0  0  1  0  0  3  0  0  0  0  0  0
  183.8110  178.5510  143.5430 C   0  0  0  0  0  1  0  0  0  0  0  0
  184.5450  178.5150  145.8830 C   0  0  0  0  0  1  0  0  0  0  0  0
  184.9210  178.0940  144.4750 C   0  0  0  0  0  3  0  0  0  0  0  0
  190.4990  170.3010  142.0510 O   0  0  0  0  0  0  0  0  0  0  0  0
  190.0920  171.5780  142.4180 C   0  0  0  0  0  0  0  0  0  0  0  0
  189.0440  171.7300  143.0980 O   0  0  0  0  0  1  0  0  0  0  0  0
  1 12  1  0  0  0  0
  1 14  1  0  0  0  0
  2 16  1  0  0  0  0
  4  2  1  6  0  0  0
  5  9  2  0  0  0  0
  5  8  1  0  0  0  0
  6 30  1  1  0  0  0
  6  4  1  0  0  0  0
  7  1  2  0  0  0  0
  8 13  1  0  0  0  0
 10 21  1  0  0  0  0
 10 11  2  0  0  0  0
 11  3  1  0  0  0  0
 12  6  1  0  0  0  0
 13  3  2  0  0  0  0
 15 14  1  6  0  0  0
 15  4  1  0  0  0  0
 15  5  1  0  0  0  0
 16  8  2  0  0  0  0
 16 10  1  0  0  0  0
 17 20  2  0  0  0  0
 18 23  1  6  0  0  0
 18 17  1  0  0  0  0
 19 18  1  0  0  0  0
 19 21  2  0  0  0  0
 21 20  1  0  0  0  0
 23 22  1  1  0  0  0
 25 24  1  6  0  0  0
 25 23  1  0  0  0  0
 25 28  1  0  0  0  0
 26 28  1  0  0  0  0
 28 27  1  0  0  0  0
 29 30  2  0  0  0  0
 30 31  1  0  0  0  0
M  END
>  <MODEL>
4

>  <REMARK>
 VINA RESULT:      -7.3      2.701      4.483
  Name = 
  5 active torsions:
  status: ('A' for Active; 'I' for Inactive)
    1  A    between atoms: C_8  and  C_31
    2  A    between atoms: C_9  and  C_19
    3  A    between atoms: C_17  and  C_30
    4  A    between atoms: C_24  and  C_25
    5  A    between atoms: C_25  and  C_31
                            x       y       z     vdW  Elec       q    Type
                         _______ _______ _______ _____ _____    ______ ____

>  <TORSDO>
F 5

$$$$
=
 OpenBabel11062420583D

 31 34  0  0  1  0  0  0  0  0999 V2000
  193.7930  174.3980  139.7790 C   0  0  0  0  0  0  0  0  0  0  0  0
  192.1810  174.9940  142.9710 C   0  0  0  0  0  2  0  0  0  0  0  0
  194.3290  176.0930  146.5130 C   0  0  0  0  0  3  0  0  0  0  0  0
  192.7000  173.6970  142.3560 C   0  0  1  0  0  3  0  0  0  0  0  0
  194.9560  174.2540  143.3470 C   0  0  0  0  0  0  0  0  0  0  0  0
  191.9030  173.4060  141.0660 C   0  0  1  0  0  3  0  0  0  0  0  0
  194.1920  175.1990  138.4160 S   0  0  0  0  0  0  0  0  0  0  0  0
  194.2530  175.0190  144.3960 C   0  0  0  0  0  0  0  0  0  0  0  0
  196.1880  174.0140  143.4600 O   0  0  0  0  0  0  0  0  0  0  0  0
  192.2300  176.0400  145.2980 C   0  0  0  0  0  0  0  0  0  0  0  0
  192.9780  176.4180  146.4220 C   0  0  0  0  0  3  0  0  0  0  0  0
  192.7190  173.3590  139.7640 C   0  0  0  0  0  2  0  0  0  0  0  0
  194.9310  175.4050  145.5100 N   0  0  0  0  0  0  0  0  0  0  0  0
  194.5350  174.6010  140.9780 N   0  0  0  0  0  2  0  0  0  0  0  0
  194.2260  173.7650  142.1320 C   0  0  2  0  0  3  0  0  0  0  0  0
  192.8820  175.3250  144.2620 C   0  0  0  0  0  0  0  0  0  0  0  0
  188.5700  176.3450  145.6750 C   0  0  0  0  0  3  0  0  0  0  0  0
  188.8320  177.5390  144.8100 C   0  0  1  0  0  3  0  0  0  0  0  0
  190.3090  177.4650  144.6180 C   0  0  0  0  0  3  0  0  0  0  0  0
  189.7010  175.7070  145.9280 C   0  0  0  0  0  3  0  0  0  0  0  0
  190.7890  176.4070  145.2580 C   0  0  0  0  0  0  0  0  0  0  0  0
  188.9650  178.2880  142.0980 Cl  0  0  0  0  0  0  0  0  0  0  0  0
  188.1150  177.4760  143.4560 C   0  0  1  0  0  3  0  0  0  0  0  0
  186.3780  176.2520  142.3850 O   0  0  0  0  0  1  0  0  0  0  0  0
  187.5680  176.0890  143.1000 C   0  0  1  0  0  3  0  0  0  0  0  0
  188.1920  175.1170  140.8460 C   0  0  0  0  0  1  0  0  0  0  0  0
  188.6180  173.8230  142.8860 C   0  0  0  0  0  1  0  0  0  0  0  0
  188.5700  175.2270  142.3140 C   0  0  0  0  0  3  0  0  0  0  0  0
  190.0380  171.9030  140.3520 O   0  0  0  0  0  0  0  0  0  0  0  0
  191.0920  172.1650  141.2190 C   0  0  0  0  0  0  0  0  0  0  0  0
  191.3670  171.3490  142.1360 O   0  0  0  0  0  1  0  0  0  0  0  0
  1 14  1  0  0  0  0
  2 16  1  0  0  0  0
  4  2  1  6  0  0  0
  5  9  2  0  0  0  0
  5  8  1  0  0  0  0
  6 30  1  1  0  0  0
  6  4  1  0  0  0  0
  7  1  2  0  0  0  0
  8 13  1  0  0  0  0
 10 11  2  0  0  0  0
 11  3  1  0  0  0  0
 12  1  1  0  0  0  0
 12  6  1  0  0  0  0
 13  3  2  0  0  0  0
 15 14  1  6  0  0  0
 15  4  1  0  0  0  0
 15  5  1  0  0  0  0
 16  8  2  0  0  0  0
 16 10  1  0  0  0  0
 17 20  2  0  0  0  0
 18 23  1  6  0  0  0
 18 17  1  0  0  0  0
 19 18  1  0  0  0  0
 19 21  2  0  0  0  0
 21 10  1  0  0  0  0
 21 20  1  0  0  0  0
 23 22  1  6  0  0  0
 25 24  1  6  0  0  0
 25 23  1  0  0  0  0
 26 28  1  0  0  0  0
 28 27  1  0  0  0  0
 28 25  1  0  0  0  0
 29 30  2  0  0  0  0
 30 31  1  0  0  0  0
M  END
>  <MODEL>
5

>  <REMARK>
 VINA RESULT:      -7.1      2.960      5.003
  Name = 
  5 active torsions:
  status: ('A' for Active; 'I' for Inactive)
    1  A    between atoms: C_8  and  C_31
    2  A    between atoms: C_9  and  C_19
    3  A    between atoms: C_17  and  C_30
    4  A    between atoms: C_24  and  C_25
    5  A    between atoms: C_25  and  C_31
                            x       y       z     vdW  Elec       q    Type
                         _______ _______ _______ _____ _____    ______ ____

>  <TORSDO>
F 5

$$$$
=
 OpenBabel11062420583D

 31 34  0  0  1  0  0  0  0  0999 V2000
  193.3140  171.0130  143.3640 C   0  0  0  0  0  0  0  0  0  0  0  0
  191.2960  174.0090  143.0540 C   0  0  0  0  0  2  0  0  0  0  0  0
  188.3070  174.5190  140.0260 C   0  0  0  0  0  3  0  0  0  0  0  0
  192.6660  173.6790  142.4670 C   0  0  1  0  0  3  0  0  0  0  0  0
  191.4590  172.6170  140.5200 C   0  0  0  0  0  0  0  0  0  0  0  0
  193.6630  173.4670  143.6270 C   0  0  1  0  0  3  0  0  0  0  0  0
  193.3090  169.5840  144.1480 S   0  0  0  0  0  0  0  0  0  0  0  0
  190.3300  173.5320  140.7820 C   0  0  0  0  0  0  0  0  0  0  0  0
  191.4840  171.9350  139.4610 O   0  0  0  0  0  0  0  0  0  0  0  0
  189.1890  175.1620  142.1920 C   0  0  0  0  0  0  0  0  0  0  0  0
  188.2090  175.2690  141.1950 C   0  0  0  0  0  3  0  0  0  0  0  0
  194.3050  172.0730  143.7190 C   0  0  0  0  0  2  0  0  0  0  0  0
  189.3560  173.6780  139.8440 N   0  0  0  0  0  0  0  0  0  0  0  0
  192.4440  171.2320  142.2570 N   0  0  0  0  0  2  0  0  0  0  0  0
  192.5790  172.4740  141.5070 C   0  0  2  0  0  3  0  0  0  0  0  0
  190.2740  174.2740  141.9810 C   0  0  0  0  0  0  0  0  0  0  0  0
  189.0840  177.7930  144.7800 C   0  0  0  0  0  3  0  0  0  0  0  0
  188.5050  176.6530  145.5600 C   0  0  1  0  0  3  0  0  0  0  0  0
  188.5280  175.5490  144.5580 C   0  0  0  0  0  3  0  0  0  0  0  0
  189.3810  177.4030  143.5520 C   0  0  0  0  0  3  0  0  0  0  0  0
  189.0390  175.9930  143.4170 C   0  0  0  0  0  0  0  0  0  0  0  0
  189.2450  174.5490  147.2800 Cl  0  0  0  0  0  0  0  0  0  0  0  0
  189.3400  176.2740  146.7890 C   0  0  1  0  0  3  0  0  0  0  0  0
  191.1950  176.9900  148.0950 O   0  0  0  0  0  1  0  0  0  0  0  0
  190.7680  176.8330  146.7740 C   0  0  1  0  0  3  0  0  0  0  0  0
  192.6810  175.1780  146.8860 C   0  0  0  0  0  1  0  0  0  0  0  0
  192.6070  176.8280  145.0720 C   0  0  0  0  0  1  0  0  0  0  0  0
  191.7500  175.9610  145.9750 C   0  0  0  0  0  3  0  0  0  0  0  0
  194.8450  175.3740  142.5240 O   0  0  0  0  0  0  0  0  0  0  0  0
  194.7130  174.5250  143.6160 C   0  0  0  0  0  0  0  0  0  0  0  0
  195.4810  174.6530  144.6050 O   0  0  0  0  0  1  0  0  0  0  0  0
  1 12  1  0  0  0  0
  1  7  2  0  0  0  0
  3 11  1  0  0  0  0
  4  2  1  1  0  0  0
  4  6  1  0  0  0  0
  5  8  1  0  0  0  0
  6 30  1  6  0  0  0
  6 12  1  0  0  0  0
  8 16  2  0  0  0  0
  9  5  2  0  0  0  0
 10 21  1  0  0  0  0
 11 10  2  0  0  0  0
 13  3  2  0  0  0  0
 13  8  1  0  0  0  0
 14  1  1  0  0  0  0
 15  5  1  6  0  0  0
 15 14  1  0  0  0  0
 15  4  1  0  0  0  0
 16 10  1  0  0  0  0
 16  2  1  0  0  0  0
 17 18  1  0  0  0  0
 18 23  1  1  0  0  0
 19 18  1  0  0  0  0
 20 17  2  0  0  0  0
 21 20  1  0  0  0  0
 21 19  2  0  0  0  0
 23 22  1  6  0  0  0
 25 23  1  0  0  0  0
 25 24  1  1  0  0  0
 27 28  1  0  0  0  0
 28 25  1  0  0  0  0
 28 26  1  0  0  0  0
 29 30  2  0  0  0  0
 30 31  1  0  0  0  0
M  END
>  <MODEL>
6

>  <REMARK>
 VINA RESULT:      -7.1      2.640      3.832
  Name = 
  5 active torsions:
  status: ('A' for Active; 'I' for Inactive)
    1  A    between atoms: C_8  and  C_31
    2  A    between atoms: C_9  and  C_19
    3  A    between atoms: C_17  and  C_30
    4  A    between atoms: C_24  and  C_25
    5  A    between atoms: C_25  and  C_31
                            x       y       z     vdW  Elec       q    Type
                         _______ _______ _______ _____ _____    ______ ____

>  <TORSDO>
F 5

$$$$
=
 OpenBabel11062420583D

 31 34  0  0  1  0  0  0  0  0999 V2000
  196.1410  175.6230  144.0400 C   0  0  0  0  0  0  0  0  0  0  0  0
  192.8100  174.3620  144.7150 C   0  0  0  0  0  2  0  0  0  0  0  0
  189.8330  176.6140  146.8210 C   0  0  0  0  0  3  0  0  0  0  0  0
  194.1010  174.2150  145.5170 C   0  0  1  0  0  3  0  0  0  0  0  0
  193.5370  176.4120  146.6290 C   0  0  0  0  0  0  0  0  0  0  0  0
  195.1260  173.4350  144.6660 C   0  0  1  0  0  3  0  0  0  0  0  0
  196.9590  176.4200  142.8770 S   0  0  0  0  0  0  0  0  0  0  0  0
  192.1130  176.1220  146.3710 C   0  0  0  0  0  0  0  0  0  0  0  0
  193.8590  177.3660  147.3850 O   0  0  0  0  0  0  0  0  0  0  0  0
  190.3650  174.8080  145.2910 C   0  0  0  0  0  0  0  0  0  0  0  0
  189.4210  175.5950  145.9660 C   0  0  0  0  0  3  0  0  0  0  0  0
  196.4240  174.1830  144.3180 C   0  0  0  0  0  2  0  0  0  0  0  0
  191.1560  176.8510  147.0060 N   0  0  0  0  0  0  0  0  0  0  0  0
  195.2220  176.3170  144.8800 N   0  0  0  0  0  2  0  0  0  0  0  0
  194.6170  175.5910  145.9900 C   0  0  2  0  0  3  0  0  0  0  0  0
  191.7410  175.0770  145.4980 C   0  0  0  0  0  0  0  0  0  0  0  0
  189.2680  171.6710  143.6810 C   0  0  0  0  0  3  0  0  0  0  0  0
  188.9660  172.6370  142.5780 C   0  0  1  0  0  3  0  0  0  0  0  0
  189.3970  173.9340  143.1730 C   0  0  0  0  0  3  0  0  0  0  0  0
  189.7810  172.3110  144.7200 C   0  0  0  0  0  3  0  0  0  0  0  0
  189.8680  173.7280  144.3960 C   0  0  0  0  0  0  0  0  0  0  0  0
  190.4210  173.8020  140.4660 Cl  0  0  0  0  0  0  0  0  0  0  0  0
  189.7520  172.3540  141.2920 C   0  0  1  0  0  3  0  0  0  0  0  0
  190.5830  170.3560  140.3040 O   0  0  0  0  0  1  0  0  0  0  0  0
  190.7490  171.1950  141.4080 C   0  0  1  0  0  3  0  0  0  0  0  0
  193.0530  171.1960  140.3580 C   0  0  0  0  0  1  0  0  0  0  0  0
  192.8310  171.1100  142.7990 C   0  0  0  0  0  1  0  0  0  0  0  0
  192.2080  171.6630  141.5320 C   0  0  0  0  0  3  0  0  0  0  0  0
  196.7270  171.6080  145.2570 O   0  0  0  0  0  0  0  0  0  0  0  0
  195.4350  172.1180  145.2930 C   0  0  0  0  0  0  0  0  0  0  0  0
  194.5200  171.4670  145.8610 O   0  0  0  0  0  1  0  0  0  0  0  0
  1 12  1  0  0  0  0
  1 14  1  0  0  0  0
  2 16  1  0  0  0  0
  3 13  1  0  0  0  0
  4  2  1  6  0  0  0
  4 15  1  0  0  0  0
  5  9  2  0  0  0  0
  6 30  1  1  0  0  0
  6  4  1  0  0  0  0
  7  1  2  0  0  0  0
  8  5  1  0  0  0  0
  8 13  2  0  0  0  0
 10 16  2  0  0  0  0
 10 11  1  0  0  0  0
 11  3  2  0  0  0  0
 12  6  1  0  0  0  0
 15 14  1  6  0  0  0
 15  5  1  0  0  0  0
 16  8  1  0  0  0  0
 17 20  2  0  0  0  0
 18 23  1  6  0  0  0
 18 19  1  0  0  0  0
 18 17  1  0  0  0  0
 19 21  2  0  0  0  0
 21 20  1  0  0  0  0
 21 10  1  0  0  0  0
 23 22  1  1  0  0  0
 23 25  1  0  0  0  0
 25 24  1  6  0  0  0
 25 28  1  0  0  0  0
 26 28  1  0  0  0  0
 28 27  1  0  0  0  0
 29 30  2  0  0  0  0
 30 31  1  0  0  0  0
M  END
>  <MODEL>
7

>  <REMARK>
 VINA RESULT:      -7.1      3.808      6.232
  Name = 
  5 active torsions:
  status: ('A' for Active; 'I' for Inactive)
    1  A    between atoms: C_8  and  C_31
    2  A    between atoms: C_9  and  C_19
    3  A    between atoms: C_17  and  C_30
    4  A    between atoms: C_24  and  C_25
    5  A    between atoms: C_25  and  C_31
                            x       y       z     vdW  Elec       q    Type
                         _______ _______ _______ _____ _____    ______ ____

>  <TORSDO>
F 5

$$$$
=
 OpenBabel11062420583D

 31 34  0  0  1  0  0  0  0  0999 V2000
  194.5720  172.3550  144.7000 C   0  0  0  0  0  0  0  0  0  0  0  0
  191.9200  174.4910  143.4570 C   0  0  0  0  0  2  0  0  0  0  0  0
  189.5990  173.5610  139.9770 C   0  0  0  0  0  3  0  0  0  0  0  0
  193.4180  174.5100  143.1670 C   0  0  1  0  0  3  0  0  0  0  0  0
  192.9780  172.8300  141.3330 C   0  0  0  0  0  0  0  0  0  0  0  0
  194.1730  174.8060  144.4810 C   0  0  1  0  0  3  0  0  0  0  0  0
  194.7980  171.1390  145.7630 S   0  0  0  0  0  0  0  0  0  0  0  0
  191.6130  173.3810  141.2210 C   0  0  0  0  0  0  0  0  0  0  0  0
  193.4080  172.0290  140.4610 O   0  0  0  0  0  0  0  0  0  0  0  0
  189.8030  174.7820  142.0620 C   0  0  0  0  0  0  0  0  0  0  0  0
  189.0590  174.4200  140.9300 C   0  0  0  0  0  3  0  0  0  0  0  0
  195.1390  173.7120  144.9650 C   0  0  0  0  0  2  0  0  0  0  0  0
  190.8520  173.0670  140.1390 N   0  0  0  0  0  0  0  0  0  0  0  0
  193.9240  172.1140  143.4540 N   0  0  0  0  0  2  0  0  0  0  0  0
  193.8650  173.2000  142.4840 C   0  0  2  0  0  3  0  0  0  0  0  0
  191.1090  174.2510  142.2120 C   0  0  0  0  0  0  0  0  0  0  0  0
  188.3940  176.5160  145.0020 C   0  0  0  0  0  3  0  0  0  0  0  0
  188.2340  177.5950  143.9760 C   0  0  1  0  0  3  0  0  0  0  0  0
  188.7870  176.9440  142.7530 C   0  0  0  0  0  3  0  0  0  0  0  0
  188.9420  175.4430  144.4560 C   0  0  0  0  0  3  0  0  0  0  0  0
  189.1800  175.7110  143.0440 C   0  0  0  0  0  0  0  0  0  0  0  0
  185.7610  176.7910  142.8940 Cl  0  0  0  0  0  0  0  0  0  0  0  0
  186.7740  178.0030  143.7480 C   0  0  1  0  0  3  0  0  0  0  0  0
  185.7060  179.9220  144.6630 O   0  0  0  0  0  1  0  0  0  0  0  0
  186.0950  178.6180  144.9780 C   0  0  1  0  0  3  0  0  0  0  0  0
  183.8360  178.6690  146.1220 C   0  0  0  0  0  1  0  0  0  0  0  0
  185.3600  176.7910  146.5280 C   0  0  0  0  0  1  0  0  0  0  0  0
  184.9010  177.7920  145.4850 C   0  0  0  0  0  3  0  0  0  0  0  0
  196.0320  176.2550  143.6500 O   0  0  0  0  0  0  0  0  0  0  0  0
  194.8710  176.1200  144.4010 C   0  0  0  0  0  0  0  0  0  0  0  0
  194.4020  177.1140  145.0140 O   0  0  0  0  0  1  0  0  0  0  0  0
  1 12  1  0  0  0  0
  1  7  2  0  0  0  0
  3 13  2  0  0  0  0
  3 11  1  0  0  0  0
  4  2  1  1  0  0  0
  4  6  1  0  0  0  0
  6 30  1  6  0  0  0
  6 12  1  0  0  0  0
  8  5  1  0  0  0  0
  8 16  2  0  0  0  0
  9  5  2  0  0  0  0
 10 16  1  0  0  0  0
 10 21  1  0  0  0  0
 11 10  2  0  0  0  0
 13  8  1  0  0  0  0
 14  1  1  0  0  0  0
 15  5  1  6  0  0  0
 15  4  1  0  0  0  0
 15 14  1  0  0  0  0
 16  2  1  0  0  0  0
 18 23  1  6  0  0  0
 18 17  1  0  0  0  0
 19 21  2  0  0  0  0
 19 18  1  0  0  0  0
 20 17  2  0  0  0  0
 21 20  1  0  0  0  0
 23 22  1  1  0  0  0
 23 25  1  0  0  0  0
 25 24  1  6  0  0  0
 25 28  1  0  0  0  0
 28 26  1  0  0  0  0
 28 27  1  0  0  0  0
 29 30  2  0  0  0  0
 30 31  1  0  0  0  0
M  END
>  <MODEL>
8

>  <REMARK>
 VINA RESULT:      -7.0      1.664      2.140
  Name = 
  5 active torsions:
  status: ('A' for Active; 'I' for Inactive)
    1  A    between atoms: C_8  and  C_31
    2  A    between atoms: C_9  and  C_19
    3  A    between atoms: C_17  and  C_30
    4  A    between atoms: C_24  and  C_25
    5  A    between atoms: C_25  and  C_31
                            x       y       z     vdW  Elec       q    Type
                         _______ _______ _______ _____ _____    ______ ____

>  <TORSDO>
F 5

$$$$
=
 OpenBabel11062420583D

 31 34  0  0  1  0  0  0  0  0999 V2000
  186.3230  177.0870  145.8340 C   0  0  0  0  0  0  0  0  0  0  0  0
  189.4350  175.7690  144.5200 C   0  0  0  0  0  2  0  0  0  0  0  0
  192.9800  175.3290  146.8880 C   0  0  0  0  0  3  0  0  0  0  0  0
  188.8990  177.1990  144.5380 C   0  0  1  0  0  3  0  0  0  0  0  0
  189.9260  177.4430  146.8320 C   0  0  0  0  0  0  0  0  0  0  0  0
  187.6030  177.2520  143.7010 C   0  0  1  0  0  3  0  0  0  0  0  0
  184.9350  176.5620  146.5100 S   0  0  0  0  0  0  0  0  0  0  0  0
  190.9160  176.4180  146.4460 C   0  0  0  0  0  0  0  0  0  0  0  0
  190.0870  178.1070  147.8910 O   0  0  0  0  0  0  0  0  0  0  0  0
  191.7080  174.6840  144.9250 C   0  0  0  0  0  0  0  0  0  0  0  0
  192.8340  174.5410  145.7490 C   0  0  0  0  0  3  0  0  0  0  0  0
  186.3280  177.6650  144.4560 C   0  0  0  0  0  2  0  0  0  0  0  0
  192.0290  176.2430  147.2070 N   0  0  0  0  0  0  0  0  0  0  0  0
  187.5330  177.1000  146.5880 N   0  0  0  0  0  2  0  0  0  0  0  0
  188.7160  177.7010  145.9850 C   0  0  2  0  0  3  0  0  0  0  0  0
  190.7280  175.6440  145.2810 C   0  0  0  0  0  0  0  0  0  0  0  0
  191.9610  173.0540  141.6210 C   0  0  0  0  0  3  0  0  0  0  0  0
  191.0540  172.0830  142.3100 C   0  0  1  0  0  3  0  0  0  0  0  0
  190.9100  172.6970  143.6610 C   0  0  0  0  0  3  0  0  0  0  0  0
  192.2750  174.0450  142.4400 C   0  0  0  0  0  3  0  0  0  0  0  0
  191.6090  173.8230  143.7160 C   0  0  0  0  0  0  0  0  0  0  0  0
  188.2720  172.2910  142.6930 Cl  0  0  0  0  0  0  0  0  0  0  0  0
  189.6830  171.9500  141.6370 C   0  0  1  0  0  3  0  0  0  0  0  0
  189.4590  171.6120  139.2920 O   0  0  0  0  0  1  0  0  0  0  0  0
  189.5950  172.6130  140.2570 C   0  0  1  0  0  3  0  0  0  0  0  0
  188.1920  174.0460  138.7110 C   0  0  0  0  0  1  0  0  0  0  0  0
  188.8080  174.8960  140.9280 C   0  0  0  0  0  1  0  0  0  0  0  0
  188.4570  173.6410  140.1520 C   0  0  0  0  0  3  0  0  0  0  0  0
  189.0600  178.2910  141.9570 O   0  0  0  0  0  1  0  0  0  0  0  0
  187.7920  178.1030  142.4930 C   0  0  0  0  0  0  0  0  0  0  0  0
  186.7960  178.6520  141.9530 O   0  0  0  0  0  0  0  0  0  0  0  0
  1  7  2  0  0  0  0
  1 14  1  0  0  0  0
  2 16  1  0  0  0  0
  3 13  1  0  0  0  0
  4  2  1  1  0  0  0
  4 15  1  0  0  0  0
  5  9  2  0  0  0  0
  6 30  1  6  0  0  0
  6 12  1  0  0  0  0
  6  4  1  0  0  0  0
  8  5  1  0  0  0  0
  8 13  2  0  0  0  0
 10 16  2  0  0  0  0
 10 11  1  0  0  0  0
 11  3  2  0  0  0  0
 12  1  1  0  0  0  0
 15 14  1  1  0  0  0
 15  5  1  0  0  0  0
 16  8  1  0  0  0  0
 17 18  1  0  0  0  0
 17 20  2  0  0  0  0
 18 23  1  6  0  0  0
 18 19  1  0  0  0  0
 19 21  2  0  0  0  0
 20 21  1  0  0  0  0
 21 10  1  0  0  0  0
 23 22  1  1  0  0  0
 25 24  1  6  0  0  0
 25 23  1  0  0  0  0
 26 28  1  0  0  0  0
 28 25  1  0  0  0  0
 28 27  1  0  0  0  0
 29 30  1  0  0  0  0
 31 30  2  0  0  0  0
M  END
>  <MODEL>
9

>  <REMARK>
 VINA RESULT:      -6.9      3.863      7.297
  Name = 
  5 active torsions:
  status: ('A' for Active; 'I' for Inactive)
    1  A    between atoms: C_8  and  C_31
    2  A    between atoms: C_9  and  C_19
    3  A    between atoms: C_17  and  C_30
    4  A    between atoms: C_24  and  C_25
    5  A    between atoms: C_25  and  C_31
                            x       y       z     vdW  Elec       q    Type
                         _______ _______ _______ _____ _____    ______ ____

>  <TORSDO>
F 5

$$$$
