=
 OpenBabel11062423043D

 57 61  0  0  1  0  0  0  0  0999 V2000
  197.5780  173.8310  137.5800 C   0  0  0  0  0  3  0  0  0  0  0  0
  192.3030  172.1110  141.1750 C   0  0  0  0  0  1  0  0  0  0  0  0
  195.3860  174.7400  143.9580 C   0  0  0  0  0  2  0  0  0  0  0  0
  196.0760  176.6610  142.6430 C   0  0  0  0  0  0  0  0  0  0  0  0
  196.5640  175.2420  139.2440 C   0  0  2  0  0  0  0  0  0  0  0  0
  194.3830  174.0630  144.9060 C   0  0  1  0  0  0  0  0  0  0  0  0
  190.5320  173.1680  142.9780 O   0  0  0  0  0  0  0  0  0  0  0  0
  193.1300  174.0560  144.2450 O   0  0  0  0  0  0  0  0  0  0  0  0
  197.5290  175.2630  138.0970 C   0  0  0  0  0  3  0  0  0  0  0  0
  192.2730  173.0560  144.7730 C   0  0  2  0  0  3  0  0  0  0  0  0
  195.0440  176.1870  143.6110 C   0  0  0  0  0  2  0  0  0  0  0  0
  196.3050  173.2430  140.9070 C   0  0  0  0  0  1  0  0  0  0  0  0
  196.0490  172.5310  145.7110 O   0  0  0  0  0  0  0  0  0  0  0  0
  191.9230  173.5850  141.0260 C   0  0  1  0  0  3  0  0  0  0  0  0
  196.3100  173.7750  139.4650 C   0  0  1  0  0  0  0  0  0  0  0  0
  195.1670  174.6600  138.9300 C   0  0  1  0  0  3  0  0  0  0  0  0
  197.1650  177.1520  143.0710 O   0  0  0  0  0  0  0  0  0  0  0  0
  191.2540  174.1720  142.2890 C   0  0  1  0  0  3  0  0  0  0  0  0
  194.9270  172.6740  145.1590 C   0  0  0  0  0  0  0  0  0  0  0  0
  196.9410  172.9610  138.4940 O   0  0  0  0  0  0  0  0  0  0  0  0
  193.1040  174.3100  140.5380 C   0  0  0  0  0  0  0  0  0  0  0  0
  192.7580  171.6600  144.3920 C   0  0  0  0  0  2  0  0  0  0  0  0
  196.9580  176.0890  140.4650 C   0  0  0  0  0  2  0  0  0  0  0  0
  194.0720  174.6430  139.9060 C   0  0  0  0  0  0  0  0  0  0  0  0
  195.8700  176.4880  141.2770 O   0  0  0  0  0  0  0  0  0  0  0  0
  190.8030  173.2870  144.3650 C   0  0  0  0  0  2  0  0  0  0  0  0
  194.2540  174.8070  146.2410 C   0  0  0  0  0  1  0  0  0  0  0  0
  194.8100  170.2300  144.5620 C   0  0  0  0  0  1  0  0  0  0  0  0
  194.1730  171.5280  144.7120 N   0  0  0  0  0  0  0  0  0  0  0  0
  190.3320  175.3480  141.9360 C   0  0  0  0  0  2  0  0  0  0  0  0
  188.9670  174.8170  141.4530 C   0  0  1  0  0  3  0  0  0  0  0  0
  187.7840  175.4710  142.1100 C   0  0  0  0  0  0  0  0  0  0  0  0
  186.9100  174.7180  142.7920 C   0  0  0  0  0  2  0  0  0  0  0  0
  187.5100  177.4740  140.8540 O   0  0  0  0  0  0  0  0  0  0  0  0
  187.5820  176.9380  141.9930 C   0  0  0  0  0  0  0  0  0  0  0  0
  187.5330  177.8070  143.2170 C   0  0  2  0  0  3  0  0  0  0  0  0
  188.3990  177.3360  144.3490 C   0  0  0  0  0  0  0  0  0  0  0  0
  188.7070  176.1680  146.4680 C   0  0  0  0  0  3  0  0  0  0  0  0
  190.0300  176.6440  146.5660 C   0  0  0  0  0  0  0  0  0  0  0  0
  190.4920  177.5200  145.5760 C   0  0  0  0  0  3  0  0  0  0  0  0
  189.6840  177.8600  144.4900 C   0  0  0  0  0  3  0  0  0  0  0  0
  187.9040  176.4980  145.3630 C   0  0  0  0  0  3  0  0  0  0  0  0
  190.9210  176.2070  147.6640 C   0  0  0  0  0  0  0  0  0  0  0  0
  191.1370  174.9760  147.8260 O   0  0  0  0  0  0  0  0  0  0  0  0
  191.6260  177.1850  148.5500 C   0  0  0  0  0  2  0  0  0  0  0  0
  190.6950  178.2400  148.9270 N   0  0  0  0  0  1  0  0  0  0  0  0
  186.1240  178.3120  143.6310 C   0  0  0  0  0  0  0  0  0  0  0  0
  185.1810  177.3150  143.3680 O   0  0  0  0  0  1  0  0  0  0  0  0
  185.7930  179.4410  142.8740 O   0  0  0  0  0  1  0  0  0  0  0  0
  186.0980  178.6290  145.1260 C   0  0  0  0  0  2  0  0  0  0  0  0
  184.8180  178.2490  145.7840 C   0  0  0  0  0  0  0  0  0  0  0  0
  184.7450  177.0690  146.5190 O   0  0  0  0  0  1  0  0  0  0  0  0
  183.8180  179.0120  145.6980 O   0  0  0  0  0  0  0  0  0  0  0  0
  188.7580  174.6510  140.0490 O   0  0  0  0  0  0  0  0  0  0  0  0
  188.5060  173.2890  139.7190 C   0  0  0  0  0  2  0  0  0  0  0  0
  189.3880  172.0660  137.7810 C   0  0  0  0  0  2  0  0  0  0  0  0
  188.6570  173.0710  138.2480 C   0  0  0  0  0  3  0  0  0  0  0  0
  1  9  2  0  0  0  0
  1 20  1  0  0  0  0
  3  6  1  0  0  0  0
  4 17  2  0  0  0  0
  4 11  1  0  0  0  0
  5  9  1  6  0  0  0
  5 15  1  0  0  0  0
  5 23  1  0  0  0  0
  6 19  1  0  0  0  0
  6 27  1  1  0  0  0
  7 26  1  0  0  0  0
  8 10  1  0  0  0  0
  8  6  1  0  0  0  0
 10 26  1  6  0  0  0
 11  3  1  0  0  0  0
 14  2  1  1  0  0  0
 14 18  1  0  0  0  0
 15 12  1  1  0  0  0
 16  5  1  0  0  0  0
 16 15  1  0  0  0  0
 16 24  1  1  0  0  0
 18 30  1  6  0  0  0
 18  7  1  0  0  0  0
 19 13  2  0  0  0  0
 20 15  1  0  0  0  0
 21 14  1  0  0  0  0
 22 29  1  0  0  0  0
 22 10  1  0  0  0  0
 23 25  1  0  0  0  0
 24 21  3  0  0  0  0
 25  4  1  0  0  0  0
 28 29  1  0  0  0  0
 29 19  1  0  0  0  0
 31 30  1  6  0  0  0
 31 32  1  0  0  0  0
 32 33  2  0  0  0  0
 34 35  2  0  0  0  0
 35 32  1  0  0  0  0
 36 35  1  6  0  0  0
 36 47  1  0  0  0  0
 36 37  1  0  0  0  0
 37 41  2  0  0  0  0
 37 42  1  0  0  0  0
 38 39  1  0  0  0  0
 39 43  1  0  0  0  0
 40 39  2  0  0  0  0
 41 40  1  0  0  0  0
 42 38  2  0  0  0  0
 43 44  2  0  0  0  0
 43 45  1  0  0  0  0
 45 46  1  0  0  0  0
 47 50  1  0  0  0  0
 48 47  1  0  0  0  0
 49 47  1  0  0  0  0
 50 51  1  0  0  0  0
 51 52  1  0  0  0  0
 53 51  2  0  0  0  0
 54 31  1  0  0  0  0
 55 54  1  0  0  0  0
 56 57  2  0  0  0  0
 57 55  1  0  0  0  0
M  END
>  <MODEL>
1

>  <REMARK>
 VINA RESULT:      -8.0      0.000      0.000
  Name = 
  14 active torsions:
  status: ('A' for Active; 'I' for Inactive)
    1  A    between atoms: C_7  and  C_9
    2  A    between atoms: C_7  and  C_22
    3  A    between atoms: C_9  and  C_57
    4  A    between atoms: C_12  and  C_57
    5  A    between atoms: C_17  and  C_36
    6  A    between atoms: C_17  and  C_51
    7  A    between atoms: C_21  and  C_31
    8  A    between atoms: C_23  and  C_25
    9  A    between atoms: C_25  and  C_27
   10  A    between atoms: C_31  and  O_54
   11  A    between atoms: C_33  and  C_45
   12  A    between atoms: C_36  and  C_45
   13  A    between atoms: C_36  and  O_54
   14  A    between atoms: C_51  and  C_57
                            x       y       z     vdW  Elec       q    Type
                         _______ _______ _______ _____ _____    ______ ____

>  <TORSDO>
F 14

$$$$
=
 OpenBabel11062423043D

 57 61  0  0  1  0  0  0  0  0999 V2000
  190.5920  169.0040  137.9360 C   0  0  0  0  0  3  0  0  0  0  0  0
  193.4410  170.0360  143.8130 C   0  0  0  0  0  1  0  0  0  0  0  0
  195.1190  173.3400  140.5850 C   0  0  0  0  0  2  0  0  0  0  0  0
  193.1950  174.2040  139.3790 C   0  0  0  0  0  0  0  0  0  0  0  0
  191.1080  171.1820  138.8190 C   0  0  2  0  0  0  0  0  0  0  0  0
  196.0570  173.3770  141.8020 C   0  0  1  0  0  0  0  0  0  0  0  0
  194.0990  172.0740  145.5190 O   0  0  0  0  0  0  0  0  0  0  0  0
  195.2510  173.1770  142.9510 O   0  0  0  0  0  0  0  0  0  0  0  0
  190.3170  170.4910  137.7500 C   0  0  0  0  0  3  0  0  0  0  0  0
  196.0210  172.7050  144.0450 C   0  0  2  0  0  3  0  0  0  0  0  0
  194.0450  174.4270  140.5860 C   0  0  0  0  0  2  0  0  0  0  0  0
  193.4500  170.3820  139.6590 C   0  0  0  0  0  1  0  0  0  0  0  0
  197.8220  172.3010  140.5810 O   0  0  0  0  0  0  0  0  0  0  0  0
  192.5140  171.2510  143.8670 C   0  0  1  0  0  3  0  0  0  0  0  0
  191.9670  170.0840  139.3880 C   0  0  1  0  0  0  0  0  0  0  0  0
  190.8520  170.6910  140.2620 C   0  0  1  0  0  3  0  0  0  0  0  0
  193.5330  174.7130  138.2670 O   0  0  0  0  0  0  0  0  0  0  0  0
  193.1640  172.4820  144.5370 C   0  0  1  0  0  3  0  0  0  0  0  0
  197.0620  172.2680  141.5830 C   0  0  0  0  0  0  0  0  0  0  0  0
  191.6690  168.8170  138.8330 O   0  0  0  0  0  0  0  0  0  0  0  0
  191.9780  171.4720  142.5170 C   0  0  0  0  0  0  0  0  0  0  0  0
  196.4800  171.2680  143.8140 C   0  0  0  0  0  2  0  0  0  0  0  0
  191.8050  172.4860  138.3980 C   0  0  0  0  0  2  0  0  0  0  0  0
  191.4710  171.3120  141.4380 C   0  0  0  0  0  0  0  0  0  0  0  0
  192.0820  173.3730  139.4640 O   0  0  0  0  0  0  0  0  0  0  0  0
  195.2700  172.8630  145.3830 C   0  0  0  0  0  2  0  0  0  0  0  0
  196.7970  174.7150  141.9230 C   0  0  0  0  0  1  0  0  0  0  0  0
  197.7340  169.9030  142.1260 C   0  0  0  0  0  1  0  0  0  0  0  0
  197.0960  171.1550  142.5000 N   0  0  0  0  0  0  0  0  0  0  0  0
  192.1030  173.4040  145.1570 C   0  0  0  0  0  2  0  0  0  0  0  0
  192.3740  174.8650  144.7480 C   0  0  1  0  0  3  0  0  0  0  0  0
  191.4580  175.3850  143.6750 C   0  0  0  0  0  0  0  0  0  0  0  0
  191.9190  176.2810  142.7930 C   0  0  0  0  0  2  0  0  0  0  0  0
  189.7530  173.7560  144.0040 O   0  0  0  0  0  0  0  0  0  0  0  0
  190.0510  174.9140  143.6040 C   0  0  0  0  0  0  0  0  0  0  0  0
  188.9830  175.7770  142.9940 C   0  0  2  0  0  3  0  0  0  0  0  0
  188.1120  176.4860  143.9900 C   0  0  0  0  0  0  0  0  0  0  0  0
  186.9020  178.4610  144.7540 C   0  0  0  0  0  3  0  0  0  0  0  0
  186.6410  177.8510  145.9970 C   0  0  0  0  0  0  0  0  0  0  0  0
  187.1840  176.5820  146.2380 C   0  0  0  0  0  3  0  0  0  0  0  0
  187.9110  175.9180  145.2490 C   0  0  0  0  0  3  0  0  0  0  0  0
  187.6180  177.7810  143.7540 C   0  0  0  0  0  3  0  0  0  0  0  0
  185.7880  178.5120  147.0110 C   0  0  0  0  0  0  0  0  0  0  0  0
  186.3340  179.1800  147.9290 O   0  0  0  0  0  0  0  0  0  0  0  0
  184.2950  178.4640  146.9440 C   0  0  0  0  0  2  0  0  0  0  0  0
  183.8710  178.7840  145.5880 N   0  0  0  0  0  1  0  0  0  0  0  0
  188.2320  175.1660  141.7800 C   0  0  0  0  0  0  0  0  0  0  0  0
  187.7500  176.1970  140.9690 O   0  0  0  0  0  1  0  0  0  0  0  0
  187.1410  174.4180  142.2350 O   0  0  0  0  0  1  0  0  0  0  0  0
  189.1830  174.2990  140.9560 C   0  0  0  0  0  2  0  0  0  0  0  0
  188.5450  173.7160  139.7440 C   0  0  0  0  0  0  0  0  0  0  0  0
  187.8480  172.5150  139.8410 O   0  0  0  0  0  1  0  0  0  0  0  0
  188.6140  174.3290  138.6440 O   0  0  0  0  0  0  0  0  0  0  0  0
  192.5740  175.8350  145.7780 O   0  0  0  0  0  0  0  0  0  0  0  0
  192.3150  175.2860  147.0660 C   0  0  0  0  0  2  0  0  0  0  0  0
  190.6290  177.0390  147.4040 C   0  0  0  0  0  2  0  0  0  0  0  0
  191.0050  175.7800  147.5910 C   0  0  0  0  0  3  0  0  0  0  0  0
  1 20  1  0  0  0  0
  3 11  1  0  0  0  0
  3  6  1  0  0  0  0
  4 25  1  0  0  0  0
  4 11  1  0  0  0  0
  5  9  1  6  0  0  0
  5 15  1  0  0  0  0
  5 16  1  0  0  0  0
  6 27  1  1  0  0  0
  6  8  1  0  0  0  0
  8 10  1  0  0  0  0
  9  1  2  0  0  0  0
 10 22  1  6  0  0  0
 10 26  1  0  0  0  0
 13 19  2  0  0  0  0
 14  2  1  6  0  0  0
 14 18  1  0  0  0  0
 15 12  1  1  0  0  0
 15 16  1  0  0  0  0
 16 24  1  1  0  0  0
 17  4  2  0  0  0  0
 18 30  1  1  0  0  0
 18  7  1  0  0  0  0
 19  6  1  0  0  0  0
 19 29  1  0  0  0  0
 20 15  1  0  0  0  0
 21 14  1  0  0  0  0
 23  5  1  0  0  0  0
 23 25  1  0  0  0  0
 24 21  3  0  0  0  0
 26  7  1  0  0  0  0
 28 29  1  0  0  0  0
 29 22  1  0  0  0  0
 31 30  1  1  0  0  0
 31 54  1  0  0  0  0
 32 31  1  0  0  0  0
 33 32  2  0  0  0  0
 35 32  1  0  0  0  0
 35 34  2  0  0  0  0
 36 35  1  1  0  0  0
 36 37  1  0  0  0  0
 37 41  1  0  0  0  0
 38 39  2  0  0  0  0
 39 40  1  0  0  0  0
 39 43  1  0  0  0  0
 41 40  2  0  0  0  0
 42 37  2  0  0  0  0
 42 38  1  0  0  0  0
 43 44  2  0  0  0  0
 45 43  1  0  0  0  0
 46 45  1  0  0  0  0
 47 49  1  0  0  0  0
 47 36  1  0  0  0  0
 48 47  1  0  0  0  0
 50 47  1  0  0  0  0
 51 52  1  0  0  0  0
 51 50  1  0  0  0  0
 53 51  2  0  0  0  0
 54 55  1  0  0  0  0
 55 57  1  0  0  0  0
 56 57  2  0  0  0  0
M  END
>  <MODEL>
2

>  <REMARK>
 VINA RESULT:      -7.6      2.346      5.631
  Name = 
  14 active torsions:
  status: ('A' for Active; 'I' for Inactive)
    1  A    between atoms: C_7  and  C_9
    2  A    between atoms: C_7  and  C_22
    3  A    between atoms: C_9  and  C_57
    4  A    between atoms: C_12  and  C_57
    5  A    between atoms: C_17  and  C_36
    6  A    between atoms: C_17  and  C_51
    7  A    between atoms: C_21  and  C_31
    8  A    between atoms: C_23  and  C_25
    9  A    between atoms: C_25  and  C_27
   10  A    between atoms: C_31  and  O_54
   11  A    between atoms: C_33  and  C_45
   12  A    between atoms: C_36  and  C_45
   13  A    between atoms: C_36  and  O_54
   14  A    between atoms: C_51  and  C_57
                            x       y       z     vdW  Elec       q    Type
                         _______ _______ _______ _____ _____    ______ ____

>  <TORSDO>
F 14

$$$$
=
 OpenBabel11062423043D

 57 61  0  0  1  0  0  0  0  0999 V2000
  189.3960  170.9960  138.1750 C   0  0  0  0  0  3  0  0  0  0  0  0
  192.4620  170.4750  144.0100 C   0  0  0  0  0  1  0  0  0  0  0  0
  195.5050  172.5370  140.7460 C   0  0  0  0  0  2  0  0  0  0  0  0
  194.2400  174.2380  139.5620 C   0  0  0  0  0  0  0  0  0  0  0  0
  190.9280  172.6360  139.0430 C   0  0  2  0  0  0  0  0  0  0  0  0
  196.3570  172.1040  141.9510 C   0  0  1  0  0  0  0  0  0  0  0  0
  194.0610  171.9220  145.6990 O   0  0  0  0  0  0  0  0  0  0  0  0
  195.5710  172.3220  143.1110 O   0  0  0  0  0  0  0  0  0  0  0  0
  189.8850  172.4260  137.9870 C   0  0  0  0  0  3  0  0  0  0  0  0
  196.0240  171.5290  144.1970 C   0  0  2  0  0  3  0  0  0  0  0  0
  195.1050  174.0110  140.7570 C   0  0  0  0  0  2  0  0  0  0  0  0
  192.5840  170.7840  139.8550 C   0  0  0  0  0  1  0  0  0  0  0  0
  197.3480  170.3020  140.7110 O   0  0  0  0  0  0  0  0  0  0  0  0
  192.2540  171.9890  144.0710 C   0  0  1  0  0  3  0  0  0  0  0  0
  191.1440  171.2560  139.6050 C   0  0  1  0  0  0  0  0  0  0  0  0
  190.4830  172.3310  140.4900 C   0  0  1  0  0  3  0  0  0  0  0  0
  194.7690  174.5180  138.4440 O   0  0  0  0  0  0  0  0  0  0  0  0
  193.4350  172.7400  144.7280 C   0  0  1  0  0  3  0  0  0  0  0  0
  196.6830  170.6440  141.7230 C   0  0  0  0  0  0  0  0  0  0  0  0
  190.2530  170.3010  139.0580 O   0  0  0  0  0  0  0  0  0  0  0  0
  191.8780  172.4490  142.7270 C   0  0  0  0  0  0  0  0  0  0  0  0
  195.7140  170.0530  143.9660 C   0  0  0  0  0  2  0  0  0  0  0  0
  192.1710  173.4300  138.6070 C   0  0  0  0  0  2  0  0  0  0  0  0
  191.3430  172.5630  141.6560 C   0  0  0  0  0  0  0  0  0  0  0  0
  192.8630  174.0620  139.6660 O   0  0  0  0  0  0  0  0  0  0  0  0
  195.4660  172.0320  145.5450 C   0  0  0  0  0  2  0  0  0  0  0  0
  197.6610  172.9040  142.0570 C   0  0  0  0  0  1  0  0  0  0  0  0
  196.1120  168.2520  142.2670 C   0  0  0  0  0  1  0  0  0  0  0  0
  196.1780  169.6550  142.6440 N   0  0  0  0  0  0  0  0  0  0  0  0
  192.9730  174.0620  145.3580 C   0  0  0  0  0  2  0  0  0  0  0  0
  193.5010  175.2500  144.5300 C   0  0  1  0  0  3  0  0  0  0  0  0
  192.4320  176.0200  143.8060 C   0  0  0  0  0  0  0  0  0  0  0  0
  192.4520  176.0750  142.4670 C   0  0  0  0  0  2  0  0  0  0  0  0
  191.6290  177.8150  145.1480 O   0  0  0  0  0  0  0  0  0  0  0  0
  191.3710  176.7230  144.5720 C   0  0  0  0  0  0  0  0  0  0  0  0
  190.0070  176.1130  144.7310 C   0  0  2  0  0  3  0  0  0  0  0  0
  189.0470  176.4420  143.6250 C   0  0  0  0  0  0  0  0  0  0  0  0
  187.3460  175.7920  142.0030 C   0  0  0  0  0  3  0  0  0  0  0  0
  187.3990  177.0650  141.4000 C   0  0  0  0  0  0  0  0  0  0  0  0
  188.3340  177.9880  141.8860 C   0  0  0  0  0  3  0  0  0  0  0  0
  189.1450  177.6740  142.9780 C   0  0  0  0  0  3  0  0  0  0  0  0
  188.1500  175.4880  143.1140 C   0  0  0  0  0  3  0  0  0  0  0  0
  186.4720  177.4350  140.3070 C   0  0  0  0  0  0  0  0  0  0  0  0
  186.6730  176.9740  139.1510 O   0  0  0  0  0  0  0  0  0  0  0  0
  185.2670  178.2880  140.5430 C   0  0  0  0  0  2  0  0  0  0  0  0
  184.6710  177.9220  141.8200 N   0  0  0  0  0  1  0  0  0  0  0  0
  189.4060  176.1650  146.1630 C   0  0  0  0  0  0  0  0  0  0  0  0
  190.4450  176.2220  147.0960 O   0  0  0  0  0  1  0  0  0  0  0  0
  188.6660  175.0010  146.3990 O   0  0  0  0  0  1  0  0  0  0  0  0
  188.5340  177.4100  146.3220 C   0  0  0  0  0  2  0  0  0  0  0  0
  187.0880  177.0960  146.4840 C   0  0  0  0  0  0  0  0  0  0  0  0
  186.2130  177.3170  145.4240 O   0  0  0  0  0  0  0  0  0  0  0  0
  186.6700  176.6030  147.5660 O   0  0  0  0  0  1  0  0  0  0  0  0
  194.4600  176.1250  145.1280 O   0  0  0  0  0  0  0  0  0  0  0  0
  195.7890  175.7690  144.7580 C   0  0  0  0  0  2  0  0  0  0  0  0
  197.4210  176.5110  143.0800 C   0  0  0  0  0  2  0  0  0  0  0  0
  196.1520  176.3920  143.4490 C   0  0  0  0  0  3  0  0  0  0  0  0
  1 20  1  0  0  0  0
  3 11  1  0  0  0  0
  3  6  1  0  0  0  0
  4 25  1  0  0  0  0
  4 11  1  0  0  0  0
  5  9  1  6  0  0  0
  5 15  1  0  0  0  0
  5 16  1  0  0  0  0
  6 27  1  1  0  0  0
  6  8  1  0  0  0  0
  8 10  1  0  0  0  0
  9  1  2  0  0  0  0
 10 22  1  6  0  0  0
 10 26  1  0  0  0  0
 13 19  2  0  0  0  0
 14  2  1  6  0  0  0
 14 18  1  0  0  0  0
 15 12  1  1  0  0  0
 15 16  1  0  0  0  0
 16 24  1  1  0  0  0
 17  4  2  0  0  0  0
 18 30  1  1  0  0  0
 18  7  1  0  0  0  0
 19  6  1  0  0  0  0
 19 29  1  0  0  0  0
 20 15  1  0  0  0  0
 21 14  1  0  0  0  0
 23  5  1  0  0  0  0
 23 25  1  0  0  0  0
 24 21  3  0  0  0  0
 26  7  1  0  0  0  0
 28 29  1  0  0  0  0
 29 22  1  0  0  0  0
 31 54  1  0  0  0  0
 31 30  1  1  0  0  0
 32 31  1  0  0  0  0
 32 35  1  0  0  0  0
 33 32  2  0  0  0  0
 35 34  2  0  0  0  0
 36 35  1  1  0  0  0
 36 47  1  0  0  0  0
 37 36  1  0  0  0  0
 38 42  2  0  0  0  0
 39 40  2  0  0  0  0
 39 38  1  0  0  0  0
 40 41  1  0  0  0  0
 41 37  2  0  0  0  0
 42 37  1  0  0  0  0
 43 45  1  0  0  0  0
 43 39  1  0  0  0  0
 44 43  2  0  0  0  0
 45 46  1  0  0  0  0
 47 50  1  0  0  0  0
 47 49  1  0  0  0  0
 47 48  1  0  0  0  0
 50 51  1  0  0  0  0
 51 53  1  0  0  0  0
 52 51  2  0  0  0  0
 55 54  1  0  0  0  0
 56 57  2  0  0  0  0
 57 55  1  0  0  0  0
M  END
>  <MODEL>
3

>  <REMARK>
 VINA RESULT:      -7.6      2.471      5.676
  Name = 
  14 active torsions:
  status: ('A' for Active; 'I' for Inactive)
    1  A    between atoms: C_7  and  C_9
    2  A    between atoms: C_7  and  C_22
    3  A    between atoms: C_9  and  C_57
    4  A    between atoms: C_12  and  C_57
    5  A    between atoms: C_17  and  C_36
    6  A    between atoms: C_17  and  C_51
    7  A    between atoms: C_21  and  C_31
    8  A    between atoms: C_23  and  C_25
    9  A    between atoms: C_25  and  C_27
   10  A    between atoms: C_31  and  O_54
   11  A    between atoms: C_33  and  C_45
   12  A    between atoms: C_36  and  C_45
   13  A    between atoms: C_36  and  O_54
   14  A    between atoms: C_51  and  C_57
                            x       y       z     vdW  Elec       q    Type
                         _______ _______ _______ _____ _____    ______ ____

>  <TORSDO>
F 14

$$$$
=
 OpenBabel11062423043D

 57 61  0  0  1  0  0  0  0  0999 V2000
  192.1390  173.1640  136.1770 C   0  0  0  0  0  3  0  0  0  0  0  0
  191.9610  171.2000  142.4880 C   0  0  0  0  0  1  0  0  0  0  0  0
  196.1970  173.5390  141.6270 C   0  0  0  0  0  2  0  0  0  0  0  0
  195.6600  175.5600  140.3910 C   0  0  0  0  0  0  0  0  0  0  0  0
  193.0380  174.4370  138.0100 C   0  0  2  0  0  0  0  0  0  0  0  0
  196.3520  172.7940  142.9630 C   0  0  1  0  0  0  0  0  0  0  0  0
  192.5180  172.1160  145.0080 O   0  0  0  0  0  0  0  0  0  0  0  0
  195.0980  172.8600  143.6210 O   0  0  0  0  0  0  0  0  0  0  0  0
  192.6470  174.5460  136.5670 C   0  0  0  0  0  3  0  0  0  0  0  0
  194.9680  171.8280  144.5850 C   0  0  2  0  0  3  0  0  0  0  0  0
  195.8320  175.0160  141.7700 C   0  0  0  0  0  2  0  0  0  0  0  0
  194.0990  172.3030  139.0840 C   0  0  0  0  0  1  0  0  0  0  0  0
  197.8370  171.1790  141.9860 O   0  0  0  0  0  0  0  0  0  0  0  0
  191.7380  172.6850  142.7750 C   0  0  1  0  0  3  0  0  0  0  0  0
  192.9610  172.9590  138.2860 C   0  0  1  0  0  0  0  0  0  0  0  0
  191.9440  173.9010  138.9600 C   0  0  1  0  0  3  0  0  0  0  0  0
  196.6670  175.9990  139.7560 O   0  0  0  0  0  0  0  0  0  0  0  0
  192.4410  173.1680  144.0640 C   0  0  1  0  0  3  0  0  0  0  0  0
  196.7590  171.3820  142.6030 C   0  0  0  0  0  0  0  0  0  0  0  0
  192.4590  172.2250  137.1850 O   0  0  0  0  0  0  0  0  0  0  0  0
  192.0650  173.4360  141.5550 C   0  0  0  0  0  0  0  0  0  0  0  0
  194.8210  170.4640  143.9140 C   0  0  0  0  0  2  0  0  0  0  0  0
  194.3300  175.1700  138.4100 C   0  0  0  0  0  2  0  0  0  0  0  0
  192.1220  173.8110  140.4130 C   0  0  0  0  0  0  0  0  0  0  0  0
  194.4100  175.5090  139.7810 O   0  0  0  0  0  0  0  0  0  0  0  0
  193.8180  172.1110  145.5740 C   0  0  0  0  0  2  0  0  0  0  0  0
  197.4320  173.4210  143.8540 C   0  0  0  0  0  1  0  0  0  0  0  0
  196.0120  169.0010  142.2640 C   0  0  0  0  0  1  0  0  0  0  0  0
  195.8750  170.2890  142.9250 N   0  0  0  0  0  0  0  0  0  0  0  0
  191.7200  174.3810  144.6700 C   0  0  0  0  0  2  0  0  0  0  0  0
  191.9320  175.6180  143.7750 C   0  0  1  0  0  3  0  0  0  0  0  0
  190.7650  176.5650  143.7460 C   0  0  0  0  0  0  0  0  0  0  0  0
  190.7160  177.5210  142.8080 C   0  0  0  0  0  2  0  0  0  0  0  0
  189.9110  176.7440  145.9610 O   0  0  0  0  0  0  0  0  0  0  0  0
  189.6830  176.4470  144.7570 C   0  0  0  0  0  0  0  0  0  0  0  0
  188.3330  175.9070  144.3770 C   0  0  2  0  0  3  0  0  0  0  0  0
  188.2690  175.3000  143.0060 C   0  0  0  0  0  0  0  0  0  0  0  0
  188.5160  173.4070  141.4890 C   0  0  0  0  0  3  0  0  0  0  0  0
  188.3360  174.2470  140.3710 C   0  0  0  0  0  0  0  0  0  0  0  0
  188.1920  175.6220  140.5950 C   0  0  0  0  0  3  0  0  0  0  0  0
  188.1640  176.1350  141.8930 C   0  0  0  0  0  3  0  0  0  0  0  0
  188.4680  173.9240  142.7940 C   0  0  0  0  0  3  0  0  0  0  0  0
  188.2670  173.6940  139.0000 C   0  0  0  0  0  0  0  0  0  0  0  0
  188.5430  172.4780  138.8140 O   0  0  0  0  0  0  0  0  0  0  0  0
  187.8180  174.5170  137.8350 C   0  0  0  0  0  2  0  0  0  0  0  0
  188.8760  174.5380  136.8340 N   0  0  0  0  0  1  0  0  0  0  0  0
  187.1180  176.7940  144.7630 C   0  0  0  0  0  0  0  0  0  0  0  0
  186.9690  176.7920  146.1520 O   0  0  0  0  0  1  0  0  0  0  0  0
  185.9550  176.2630  144.1940 O   0  0  0  0  0  1  0  0  0  0  0  0
  187.3480  178.2310  144.2960 C   0  0  0  0  0  2  0  0  0  0  0  0
  186.0960  178.9190  143.8750 C   0  0  0  0  0  0  0  0  0  0  0  0
  185.2280  179.4190  144.8410 O   0  0  0  0  0  1  0  0  0  0  0  0
  185.8460  179.0710  142.6490 O   0  0  0  0  0  0  0  0  0  0  0  0
  193.1720  176.3220  143.8670 O   0  0  0  0  0  0  0  0  0  0  0  0
  193.3930  176.8140  145.1860 C   0  0  0  0  0  2  0  0  0  0  0  0
  195.1280  175.3160  146.0660 C   0  0  0  0  0  2  0  0  0  0  0  0
  194.7920  176.5210  145.6250 C   0  0  0  0  0  3  0  0  0  0  0  0
  1  9  2  0  0  0  0
  1 20  1  0  0  0  0
  3 11  1  0  0  0  0
  3  6  1  0  0  0  0
  4 11  1  0  0  0  0
  5  9  1  6  0  0  0
  5 15  1  0  0  0  0
  5 23  1  0  0  0  0
  5 16  1  0  0  0  0
  6  8  1  0  0  0  0
  6 27  1  1  0  0  0
  7 26  1  0  0  0  0
  8 10  1  0  0  0  0
 10 22  1  6  0  0  0
 10 26  1  0  0  0  0
 13 19  2  0  0  0  0
 14  2  1  6  0  0  0
 14 18  1  0  0  0  0
 15 16  1  0  0  0  0
 15 12  1  1  0  0  0
 16 24  1  1  0  0  0
 17  4  2  0  0  0  0
 18 30  1  1  0  0  0
 18  7  1  0  0  0  0
 19 29  1  0  0  0  0
 19  6  1  0  0  0  0
 20 15  1  0  0  0  0
 21 14  1  0  0  0  0
 23 25  1  0  0  0  0
 24 21  3  0  0  0  0
 25  4  1  0  0  0  0
 28 29  1  0  0  0  0
 29 22  1  0  0  0  0
 31 54  1  0  0  0  0
 31 30  1  1  0  0  0
 32 31  1  0  0  0  0
 32 35  1  0  0  0  0
 33 32  2  0  0  0  0
 35 34  2  0  0  0  0
 36 35  1  6  0  0  0
 36 47  1  0  0  0  0
 37 36  1  0  0  0  0
 38 42  2  0  0  0  0
 39 40  2  0  0  0  0
 39 38  1  0  0  0  0
 40 41  1  0  0  0  0
 41 37  2  0  0  0  0
 42 37  1  0  0  0  0
 43 39  1  0  0  0  0
 44 43  2  0  0  0  0
 45 43  1  0  0  0  0
 46 45  1  0  0  0  0
 47 48  1  0  0  0  0
 49 47  1  0  0  0  0
 50 47  1  0  0  0  0
 51 50  1  0  0  0  0
 51 52  1  0  0  0  0
 53 51  2  0  0  0  0
 54 55  1  0  0  0  0
 55 57  1  0  0  0  0
 57 56  2  0  0  0  0
M  END
>  <MODEL>
4

>  <REMARK>
 VINA RESULT:      -7.1      2.456      5.004
  Name = 
  14 active torsions:
  status: ('A' for Active; 'I' for Inactive)
    1  A    between atoms: C_7  and  C_9
    2  A    between atoms: C_7  and  C_22
    3  A    between atoms: C_9  and  C_57
    4  A    between atoms: C_12  and  C_57
    5  A    between atoms: C_17  and  C_36
    6  A    between atoms: C_17  and  C_51
    7  A    between atoms: C_21  and  C_31
    8  A    between atoms: C_23  and  C_25
    9  A    between atoms: C_25  and  C_27
   10  A    between atoms: C_31  and  O_54
   11  A    between atoms: C_33  and  C_45
   12  A    between atoms: C_36  and  C_45
   13  A    between atoms: C_36  and  O_54
   14  A    between atoms: C_51  and  C_57
                            x       y       z     vdW  Elec       q    Type
                         _______ _______ _______ _____ _____    ______ ____

>  <TORSDO>
F 14

$$$$
=
 OpenBabel11062423043D

 57 61  0  0  1  0  0  0  0  0999 V2000
  197.2580  176.6370  142.6760 C   0  0  0  0  0  3  0  0  0  0  0  0
  192.3250  174.0800  139.0930 C   0  0  0  0  0  1  0  0  0  0  0  0
  195.7740  170.6500  139.8020 C   0  0  0  0  0  2  0  0  0  0  0  0
  196.3930  170.7320  142.1490 C   0  0  0  0  0  0  0  0  0  0  0  0
  196.4740  174.3720  142.8870 C   0  0  2  0  0  0  0  0  0  0  0  0
  194.8510  170.1410  138.6820 C   0  0  1  0  0  0  0  0  0  0  0  0
  190.7910  171.8190  138.9110 O   0  0  0  0  0  0  0  0  0  0  0  0
  193.5360  170.5560  139.0120 O   0  0  0  0  0  0  0  0  0  0  0  0
  197.3150  175.4070  143.5720 C   0  0  0  0  0  3  0  0  0  0  0  0
  192.7030  170.5890  137.8630 C   0  0  2  0  0  3  0  0  0  0  0  0
  195.4500  170.0910  141.1860 C   0  0  0  0  0  2  0  0  0  0  0  0
  196.3170  174.0940  140.2930 C   0  0  0  0  0  1  0  0  0  0  0  0
  196.5340  170.5120  137.0100 O   0  0  0  0  0  0  0  0  0  0  0  0
  191.9860  173.3390  140.3870 C   0  0  1  0  0  3  0  0  0  0  0  0
  196.1910  174.9830  141.5400 C   0  0  1  0  0  0  0  0  0  0  0  0
  195.0320  174.8070  142.5400 C   0  0  1  0  0  3  0  0  0  0  0  0
  197.5370  170.2210  142.3460 O   0  0  0  0  0  0  0  0  0  0  0  0
  191.4730  171.9010  140.1490 C   0  0  1  0  0  3  0  0  0  0  0  0
  195.3670  170.7670  137.4050 C   0  0  0  0  0  0  0  0  0  0  0  0
  196.6880  176.3030  141.4260 O   0  0  0  0  0  0  0  0  0  0  0  0
  193.1360  173.4610  141.2930 C   0  0  0  0  0  0  0  0  0  0  0  0
  193.0950  171.7340  136.9330 C   0  0  0  0  0  2  0  0  0  0  0  0
  197.0230  172.9360  142.9170 C   0  0  0  0  0  2  0  0  0  0  0  0
  194.0440  173.8980  141.9490 C   0  0  0  0  0  0  0  0  0  0  0  0
  196.0410  171.9310  142.7630 O   0  0  0  0  0  0  0  0  0  0  0  0
  191.2080  170.6400  138.2420 C   0  0  0  0  0  2  0  0  0  0  0  0
  194.8880  168.6140  138.5500 C   0  0  0  0  0  1  0  0  0  0  0  0
  195.1010  172.6110  135.7110 C   0  0  0  0  0  1  0  0  0  0  0  0
  194.5290  171.6950  136.6850 N   0  0  0  0  0  0  0  0  0  0  0  0
  190.5620  171.4370  141.2950 C   0  0  0  0  0  2  0  0  0  0  0  0
  190.1810  172.6400  142.1800 C   0  0  1  0  0  3  0  0  0  0  0  0
  188.8470  173.2490  141.8510 C   0  0  0  0  0  0  0  0  0  0  0  0
  187.7260  172.6530  142.2800 C   0  0  0  0  0  2  0  0  0  0  0  0
  188.7260  174.4310  139.7880 O   0  0  0  0  0  0  0  0  0  0  0  0
  188.7750  174.4960  141.0460 C   0  0  0  0  0  0  0  0  0  0  0  0
  188.8310  175.8430  141.7100 C   0  0  2  0  0  3  0  0  0  0  0  0
  189.7040  175.8990  142.9300 C   0  0  0  0  0  0  0  0  0  0  0  0
  191.8920  176.0810  143.9920 C   0  0  0  0  0  3  0  0  0  0  0  0
  191.3320  175.7920  145.2520 C   0  0  0  0  0  0  0  0  0  0  0  0
  189.9650  175.4920  145.3150 C   0  0  0  0  0  3  0  0  0  0  0  0
  189.1700  175.5420  144.1690 C   0  0  0  0  0  3  0  0  0  0  0  0
  191.0840  176.1490  142.8440 C   0  0  0  0  0  3  0  0  0  0  0  0
  192.1530  175.8340  146.4830 C   0  0  0  0  0  0  0  0  0  0  0  0
  191.7460  175.2320  147.5130 O   0  0  0  0  0  0  0  0  0  0  0  0
  193.4830  176.5170  146.5260 C   0  0  0  0  0  2  0  0  0  0  0  0
  194.5300  175.5270  146.3140 N   0  0  0  0  0  1  0  0  0  0  0  0
  187.4770  176.5930  141.8330 C   0  0  0  0  0  0  0  0  0  0  0  0
  186.5890  175.8200  142.5860 O   0  0  0  0  0  1  0  0  0  0  0  0
  186.9290  176.7770  140.5590 O   0  0  0  0  0  1  0  0  0  0  0  0
  187.6810  177.9320  142.5400 C   0  0  0  0  0  2  0  0  0  0  0  0
  186.4780  178.3900  143.2880 C   0  0  0  0  0  0  0  0  0  0  0  0
  186.4570  178.3050  144.6770 O   0  0  0  0  0  1  0  0  0  0  0  0
  185.4990  178.8800  142.6620 O   0  0  0  0  0  0  0  0  0  0  0  0
  190.3710  172.5330  143.5930 O   0  0  0  0  0  0  0  0  0  0  0  0
  191.4960  171.7170  143.9060 C   0  0  0  0  0  2  0  0  0  0  0  0
  193.6360  171.9350  145.0880 C   0  0  0  0  0  2  0  0  0  0  0  0
  192.4740  172.4740  144.7450 C   0  0  0  0  0  3  0  0  0  0  0  0
  1  9  2  0  0  0  0
  3 11  1  0  0  0  0
  4 17  2  0  0  0  0
  4 25  1  0  0  0  0
  5 23  1  1  0  0  0
  5  9  1  0  0  0  0
  6 27  1  6  0  0  0
  6  8  1  0  0  0  0
  6  3  1  0  0  0  0
  7 18  1  0  0  0  0
 10 22  1  1  0  0  0
 10 26  1  0  0  0  0
 10  8  1  0  0  0  0
 11  4  1  0  0  0  0
 13 19  2  0  0  0  0
 14  2  1  6  0  0  0
 14 21  1  0  0  0  0
 15 12  1  6  0  0  0
 15 16  1  0  0  0  0
 15  5  1  0  0  0  0
 16 24  1  6  0  0  0
 16  5  1  0  0  0  0
 18 14  1  0  0  0  0
 18 30  1  1  0  0  0
 19  6  1  0  0  0  0
 20 15  1  0  0  0  0
 20  1  1  0  0  0  0
 21 24  3  0  0  0  0
 25 23  1  0  0  0  0
 26  7  1  0  0  0  0
 28 29  1  0  0  0  0
 29 22  1  0  0  0  0
 29 19  1  0  0  0  0
 31 30  1  6  0  0  0
 31 54  1  0  0  0  0
 32 31  1  0  0  0  0
 32 33  2  0  0  0  0
 34 35  2  0  0  0  0
 35 32  1  0  0  0  0
 36 35  1  1  0  0  0
 36 47  1  0  0  0  0
 36 37  1  0  0  0  0
 37 41  1  0  0  0  0
 38 39  2  0  0  0  0
 39 40  1  0  0  0  0
 39 43  1  0  0  0  0
 41 40  2  0  0  0  0
 42 37  2  0  0  0  0
 42 38  1  0  0  0  0
 43 45  1  0  0  0  0
 43 44  2  0  0  0  0
 46 45  1  0  0  0  0
 47 50  1  0  0  0  0
 47 48  1  0  0  0  0
 49 47  1  0  0  0  0
 50 51  1  0  0  0  0
 51 52  1  0  0  0  0
 53 51  2  0  0  0  0
 54 55  1  0  0  0  0
 55 57  1  0  0  0  0
 57 56  2  0  0  0  0
M  END
>  <MODEL>
5

>  <REMARK>
 VINA RESULT:      -7.1      2.535      4.952
  Name = 
  14 active torsions:
  status: ('A' for Active; 'I' for Inactive)
    1  A    between atoms: C_7  and  C_9
    2  A    between atoms: C_7  and  C_22
    3  A    between atoms: C_9  and  C_57
    4  A    between atoms: C_12  and  C_57
    5  A    between atoms: C_17  and  C_36
    6  A    between atoms: C_17  and  C_51
    7  A    between atoms: C_21  and  C_31
    8  A    between atoms: C_23  and  C_25
    9  A    between atoms: C_25  and  C_27
   10  A    between atoms: C_31  and  O_54
   11  A    between atoms: C_33  and  C_45
   12  A    between atoms: C_36  and  C_45
   13  A    between atoms: C_36  and  O_54
   14  A    between atoms: C_51  and  C_57
                            x       y       z     vdW  Elec       q    Type
                         _______ _______ _______ _____ _____    ______ ____

>  <TORSDO>
F 14

$$$$
=
 OpenBabel11062423043D

 57 61  0  0  1  0  0  0  0  0999 V2000
  190.4070  168.4170  138.3780 C   0  0  0  0  0  3  0  0  0  0  0  0
  192.7790  172.0390  143.3740 C   0  0  0  0  0  1  0  0  0  0  0  0
  194.8990  173.4660  139.1760 C   0  0  0  0  0  2  0  0  0  0  0  0
  193.1350  173.6820  137.5200 C   0  0  0  0  0  0  0  0  0  0  0  0
  190.9530  170.7540  138.2070 C   0  0  2  0  0  0  0  0  0  0  0  0
  195.7270  174.0590  140.3280 C   0  0  1  0  0  0  0  0  0  0  0  0
  193.3870  174.6330  144.0080 O   0  0  0  0  0  0  0  0  0  0  0  0
  194.8140  174.4160  141.3510 O   0  0  0  0  0  0  0  0  0  0  0  0
  190.2250  169.6500  137.5020 C   0  0  0  0  0  3  0  0  0  0  0  0
  195.4610  174.5010  142.6120 C   0  0  2  0  0  3  0  0  0  0  0  0
  193.8850  174.4350  138.5690 C   0  0  0  0  0  2  0  0  0  0  0  0
  193.1690  170.4230  139.5520 C   0  0  0  0  0  1  0  0  0  0  0  0
  197.5360  172.5310  139.9240 O   0  0  0  0  0  0  0  0  0  0  0  0
  191.9140  173.1450  142.7700 C   0  0  1  0  0  3  0  0  0  0  0  0
  191.7030  170.0400  139.3010 C   0  0  1  0  0  0  0  0  0  0  0  0
  190.5470  170.9880  139.6790 C   0  0  1  0  0  3  0  0  0  0  0  0
  193.5940  173.6170  136.3400 O   0  0  0  0  0  0  0  0  0  0  0  0
  192.5640  174.5440  142.8600 C   0  0  1  0  0  3  0  0  0  0  0  0
  196.6900  172.9690  140.7460 C   0  0  0  0  0  0  0  0  0  0  0  0
  191.3900  168.6610  139.3630 O   0  0  0  0  0  0  0  0  0  0  0  0
  191.5100  172.7190  141.4230 C   0  0  0  0  0  0  0  0  0  0  0  0
  195.8650  173.1180  143.1160 C   0  0  0  0  0  2  0  0  0  0  0  0
  191.7500  171.7120  137.3060 C   0  0  0  0  0  2  0  0  0  0  0  0
  191.0920  172.0800  140.4940 C   0  0  0  0  0  0  0  0  0  0  0  0
  191.9770  172.9900  137.8660 O   0  0  0  0  0  0  0  0  0  0  0  0
  194.6040  175.2640  143.6440 C   0  0  0  0  0  2  0  0  0  0  0  0
  196.5210  175.2970  139.8940 C   0  0  0  0  0  1  0  0  0  0  0  0
  197.1910  171.1210  142.3820 C   0  0  0  0  0  1  0  0  0  0  0  0
  196.5880  172.4070  142.0710 N   0  0  0  0  0  0  0  0  0  0  0  0
  191.5010  175.6530  142.8750 C   0  0  0  0  0  2  0  0  0  0  0  0
  191.1890  176.0590  144.3300 C   0  0  1  0  0  3  0  0  0  0  0  0
  190.3710  177.3130  144.4570 C   0  0  0  0  0  0  0  0  0  0  0  0
  190.7980  178.4410  143.8740 C   0  0  0  0  0  2  0  0  0  0  0  0
  189.0370  177.9080  146.3370 O   0  0  0  0  0  0  0  0  0  0  0  0
  189.1050  177.3010  145.2340 C   0  0  0  0  0  0  0  0  0  0  0  0
  187.9170  176.5130  144.7570 C   0  0  2  0  0  3  0  0  0  0  0  0
  187.9340  176.1920  143.2910 C   0  0  0  0  0  0  0  0  0  0  0  0
  187.5020  176.7820  140.9640 C   0  0  0  0  0  3  0  0  0  0  0  0
  187.7900  175.4650  140.5510 C   0  0  0  0  0  0  0  0  0  0  0  0
  188.0810  174.5120  141.5350 C   0  0  0  0  0  3  0  0  0  0  0  0
  188.1470  174.8750  142.8820 C   0  0  0  0  0  3  0  0  0  0  0  0
  187.5880  177.1460  142.3180 C   0  0  0  0  0  3  0  0  0  0  0  0
  187.8180  175.1010  139.1160 C   0  0  0  0  0  0  0  0  0  0  0  0
  187.2170  175.8340  138.2860 O   0  0  0  0  0  0  0  0  0  0  0  0
  188.5910  173.9250  138.6120 C   0  0  0  0  0  2  0  0  0  0  0  0
  188.8230  174.0870  137.1830 N   0  0  0  0  0  1  0  0  0  0  0  0
  186.5400  176.9580  145.3190 C   0  0  0  0  0  0  0  0  0  0  0  0
  186.3940  176.4690  146.6190 O   0  0  0  0  0  1  0  0  0  0  0  0
  185.5180  176.4210  144.5280 O   0  0  0  0  0  1  0  0  0  0  0  0
  186.4570  178.4840  145.3570 C   0  0  0  0  0  2  0  0  0  0  0  0
  185.3230  178.9890  146.1790 C   0  0  0  0  0  0  0  0  0  0  0  0
  185.5580  179.4310  147.4780 O   0  0  0  0  0  1  0  0  0  0  0  0
  184.1650  179.0430  145.6850 O   0  0  0  0  0  0  0  0  0  0  0  0
  190.7420  175.0500  145.2380 O   0  0  0  0  0  0  0  0  0  0  0  0
  191.4700  175.0940  146.4620 C   0  0  0  0  0  2  0  0  0  0  0  0
  189.3260  174.6060  147.5540 C   0  0  0  0  0  2  0  0  0  0  0  0
  190.5330  175.1520  147.6250 C   0  0  0  0  0  3  0  0  0  0  0  0
  1 20  1  0  0  0  0
  3  6  1  0  0  0  0
  4 25  1  0  0  0  0
  4 11  1  0  0  0  0
  5 23  1  6  0  0  0
  5 15  1  0  0  0  0
  5 16  1  0  0  0  0
  6 27  1  6  0  0  0
  6 19  1  0  0  0  0
  6  8  1  0  0  0  0
  8 10  1  0  0  0  0
  9  5  1  0  0  0  0
  9  1  2  0  0  0  0
 10 22  1  1  0  0  0
 10 26  1  0  0  0  0
 11  3  1  0  0  0  0
 13 19  2  0  0  0  0
 14 18  1  0  0  0  0
 14  2  1  6  0  0  0
 15 20  1  0  0  0  0
 15 12  1  1  0  0  0
 15 16  1  0  0  0  0
 16 24  1  1  0  0  0
 17  4  2  0  0  0  0
 18 30  1  1  0  0  0
 18  7  1  0  0  0  0
 19 29  1  0  0  0  0
 21 14  1  0  0  0  0
 23 25  1  0  0  0  0
 24 21  3  0  0  0  0
 26  7  1  0  0  0  0
 29 28  1  0  0  0  0
 29 22  1  0  0  0  0
 31 30  1  6  0  0  0
 31 32  1  0  0  0  0
 31 54  1  0  0  0  0
 32 35  1  0  0  0  0
 33 32  2  0  0  0  0
 35 34  2  0  0  0  0
 36 35  1  6  0  0  0
 36 47  1  0  0  0  0
 37 36  1  0  0  0  0
 38 42  1  0  0  0  0
 39 38  2  0  0  0  0
 39 40  1  0  0  0  0
 40 41  2  0  0  0  0
 41 37  1  0  0  0  0
 42 37  2  0  0  0  0
 43 39  1  0  0  0  0
 44 43  2  0  0  0  0
 45 43  1  0  0  0  0
 46 45  1  0  0  0  0
 47 50  1  0  0  0  0
 47 48  1  0  0  0  0
 49 47  1  0  0  0  0
 50 51  1  0  0  0  0
 51 52  1  0  0  0  0
 53 51  2  0  0  0  0
 54 55  1  0  0  0  0
 55 57  1  0  0  0  0
 56 57  2  0  0  0  0
M  END
>  <MODEL>
6

>  <REMARK>
 VINA RESULT:      -7.0      2.457      5.799
  Name = 
  14 active torsions:
  status: ('A' for Active; 'I' for Inactive)
    1  A    between atoms: C_7  and  C_9
    2  A    between atoms: C_7  and  C_22
    3  A    between atoms: C_9  and  C_57
    4  A    between atoms: C_12  and  C_57
    5  A    between atoms: C_17  and  C_36
    6  A    between atoms: C_17  and  C_51
    7  A    between atoms: C_21  and  C_31
    8  A    between atoms: C_23  and  C_25
    9  A    between atoms: C_25  and  C_27
   10  A    between atoms: C_31  and  O_54
   11  A    between atoms: C_33  and  C_45
   12  A    between atoms: C_36  and  C_45
   13  A    between atoms: C_36  and  O_54
   14  A    between atoms: C_51  and  C_57
                            x       y       z     vdW  Elec       q    Type
                         _______ _______ _______ _____ _____    ______ ____

>  <TORSDO>
F 14

$$$$
=
 OpenBabel11062423043D

 57 61  0  0  1  0  0  0  0  0999 V2000
  190.6590  170.3800  139.2040 C   0  0  0  0  0  3  0  0  0  0  0  0
  192.4710  173.1610  144.9220 C   0  0  0  0  0  1  0  0  0  0  0  0
  195.6530  174.4460  141.4030 C   0  0  0  0  0  2  0  0  0  0  0  0
  194.3490  175.0940  139.4600 C   0  0  0  0  0  0  0  0  0  0  0  0
  191.6120  172.5820  139.3890 C   0  0  2  0  0  0  0  0  0  0  0  0
  196.3020  174.7970  142.7530 C   0  0  1  0  0  0  0  0  0  0  0  0
  193.3540  175.5500  145.9290 O   0  0  0  0  0  0  0  0  0  0  0  0
  195.2620  175.2490  143.6040 O   0  0  0  0  0  0  0  0  0  0  0  0
  190.8790  171.6810  138.4420 C   0  0  0  0  0  3  0  0  0  0  0  0
  195.6270  175.1290  144.9710 C   0  0  2  0  0  3  0  0  0  0  0  0
  194.9710  175.6230  140.7090 C   0  0  0  0  0  2  0  0  0  0  0  0
  193.3990  171.7580  141.1090 C   0  0  0  0  0  1  0  0  0  0  0  0
  197.8730  172.9910  142.5630 O   0  0  0  0  0  0  0  0  0  0  0  0
  191.9540  174.4470  144.2740 C   0  0  1  0  0  3  0  0  0  0  0  0
  191.9780  171.6710  140.5300 C   0  0  1  0  0  0  0  0  0  0  0  0
  190.9440  172.7890  140.7660 C   0  0  1  0  0  3  0  0  0  0  0  0
  195.0340  175.0230  138.3950 O   0  0  0  0  0  0  0  0  0  0  0  0
  192.7940  175.6920  144.6370 C   0  0  1  0  0  3  0  0  0  0  0  0
  196.9550  173.5230  143.2400 C   0  0  0  0  0  0  0  0  0  0  0  0
  191.4340  170.3730  140.3860 O   0  0  0  0  0  0  0  0  0  0  0  0
  191.7840  174.1920  142.8370 C   0  0  0  0  0  0  0  0  0  0  0  0
  195.6760  173.6650  145.4000 C   0  0  0  0  0  2  0  0  0  0  0  0
  192.7330  173.4330  138.7690 C   0  0  0  0  0  2  0  0  0  0  0  0
  191.4750  173.7050  141.7820 C   0  0  0  0  0  0  0  0  0  0  0  0
  193.0450  174.6070  139.4930 O   0  0  0  0  0  0  0  0  0  0  0  0
  194.7080  175.9670  145.8840 C   0  0  0  0  0  2  0  0  0  0  0  0
  197.3660  175.8930  142.6170 C   0  0  0  0  0  1  0  0  0  0  0  0
  196.7760  171.5100  144.7430 C   0  0  0  0  0  1  0  0  0  0  0  0
  196.4780  172.9030  144.4520 N   0  0  0  0  0  0  0  0  0  0  0  0
  191.9540  176.9750  144.5540 C   0  0  0  0  0  2  0  0  0  0  0  0
  190.7480  176.8730  145.5100 C   0  0  1  0  0  3  0  0  0  0  0  0
  189.4790  176.4080  144.8530 C   0  0  0  0  0  0  0  0  0  0  0  0
  188.8830  175.2900  145.2900 C   0  0  0  0  0  2  0  0  0  0  0  0
  189.5360  178.1450  143.2270 O   0  0  0  0  0  0  0  0  0  0  0  0
  188.8980  177.1770  143.7230 C   0  0  0  0  0  0  0  0  0  0  0  0
  187.5240  176.8620  143.2040 C   0  0  2  0  0  3  0  0  0  0  0  0
  187.4920  176.3720  141.7860 C   0  0  0  0  0  0  0  0  0  0  0  0
  188.1530  174.7910  140.0510 C   0  0  0  0  0  3  0  0  0  0  0  0
  187.5700  175.6010  139.0560 C   0  0  0  0  0  0  0  0  0  0  0  0
  187.0120  176.8260  139.4440 C   0  0  0  0  0  3  0  0  0  0  0  0
  186.9800  177.2020  140.7870 C   0  0  0  0  0  3  0  0  0  0  0  0
  188.1020  175.1640  141.4040 C   0  0  0  0  0  3  0  0  0  0  0  0
  187.5140  175.1600  137.6440 C   0  0  0  0  0  0  0  0  0  0  0  0
  188.1930  174.1600  137.2860 O   0  0  0  0  0  0  0  0  0  0  0  0
  186.6280  175.8260  136.6390 C   0  0  0  0  0  2  0  0  0  0  0  0
  187.3710  176.8950  135.9870 N   0  0  0  0  0  1  0  0  0  0  0  0
  186.4110  177.8800  143.5760 C   0  0  0  0  0  0  0  0  0  0  0  0
  185.1610  177.2950  143.3590 O   0  0  0  0  0  1  0  0  0  0  0  0
  186.5180  179.0070  142.7540 O   0  0  0  0  0  1  0  0  0  0  0  0
  186.5240  178.2660  145.0500 C   0  0  0  0  0  2  0  0  0  0  0  0
  185.2760  178.8680  145.5960 C   0  0  0  0  0  0  0  0  0  0  0  0
  184.9270  178.6430  146.9240 O   0  0  0  0  0  1  0  0  0  0  0  0
  184.5610  179.6020  144.8610 O   0  0  0  0  0  0  0  0  0  0  0  0
  190.9370  176.2480  146.7810 O   0  0  0  0  0  0  0  0  0  0  0  0
  190.5150  177.0970  147.8450 C   0  0  0  0  0  2  0  0  0  0  0  0
  191.5000  178.1740  149.8200 C   0  0  0  0  0  2  0  0  0  0  0  0
  191.6740  177.4520  148.7200 C   0  0  0  0  0  3  0  0  0  0  0  0
  1 20  1  0  0  0  0
  3  6  1  0  0  0  0
  4 25  1  0  0  0  0
  4 11  1  0  0  0  0
  5  9  1  6  0  0  0
  5 15  1  0  0  0  0
  5 16  1  0  0  0  0
  6 27  1  6  0  0  0
  6 19  1  0  0  0  0
  6  8  1  0  0  0  0
  8 10  1  0  0  0  0
  9  1  2  0  0  0  0
 10 22  1  1  0  0  0
 10 26  1  0  0  0  0
 11  3  1  0  0  0  0
 13 19  2  0  0  0  0
 14 18  1  0  0  0  0
 14  2  1  1  0  0  0
 15 16  1  0  0  0  0
 15 12  1  1  0  0  0
 16 24  1  1  0  0  0
 17  4  2  0  0  0  0
 18 30  1  1  0  0  0
 18  7  1  0  0  0  0
 19 29  1  0  0  0  0
 20 15  1  0  0  0  0
 21 14  1  0  0  0  0
 23  5  1  0  0  0  0
 23 25  1  0  0  0  0
 24 21  3  0  0  0  0
 26  7  1  0  0  0  0
 29 28  1  0  0  0  0
 29 22  1  0  0  0  0
 31 30  1  6  0  0  0
 31 54  1  0  0  0  0
 32 33  2  0  0  0  0
 32 31  1  0  0  0  0
 34 35  2  0  0  0  0
 35 32  1  0  0  0  0
 36 47  1  0  0  0  0
 36 35  1  6  0  0  0
 37 36  1  0  0  0  0
 38 42  2  0  0  0  0
 39 40  2  0  0  0  0
 39 38  1  0  0  0  0
 40 41  1  0  0  0  0
 41 37  2  0  0  0  0
 42 37  1  0  0  0  0
 43 39  1  0  0  0  0
 44 43  2  0  0  0  0
 45 43  1  0  0  0  0
 46 45  1  0  0  0  0
 47 50  1  0  0  0  0
 48 47  1  0  0  0  0
 49 47  1  0  0  0  0
 50 51  1  0  0  0  0
 51 52  1  0  0  0  0
 53 51  2  0  0  0  0
 54 55  1  0  0  0  0
 55 57  1  0  0  0  0
 57 56  2  0  0  0  0
M  END
>  <MODEL>
7

>  <REMARK>
 VINA RESULT:      -6.9      2.495      5.758
  Name = 
  14 active torsions:
  status: ('A' for Active; 'I' for Inactive)
    1  A    between atoms: C_7  and  C_9
    2  A    between atoms: C_7  and  C_22
    3  A    between atoms: C_9  and  C_57
    4  A    between atoms: C_12  and  C_57
    5  A    between atoms: C_17  and  C_36
    6  A    between atoms: C_17  and  C_51
    7  A    between atoms: C_21  and  C_31
    8  A    between atoms: C_23  and  C_25
    9  A    between atoms: C_25  and  C_27
   10  A    between atoms: C_31  and  O_54
   11  A    between atoms: C_33  and  C_45
   12  A    between atoms: C_36  and  C_45
   13  A    between atoms: C_36  and  O_54
   14  A    between atoms: C_51  and  C_57
                            x       y       z     vdW  Elec       q    Type
                         _______ _______ _______ _____ _____    ______ ____

>  <TORSDO>
F 14

$$$$
=
 OpenBabel11062423043D

 57 61  0  0  1  0  0  0  0  0999 V2000
  192.5980  168.1760  137.9390 C   0  0  0  0  0  3  0  0  0  0  0  0
  191.1400  171.6160  143.3930 C   0  0  0  0  0  1  0  0  0  0  0  0
  195.5030  173.0740  141.6630 C   0  0  0  0  0  2  0  0  0  0  0  0
  195.2580  173.3780  139.2660 C   0  0  0  0  0  0  0  0  0  0  0  0
  193.1390  170.5000  138.2510 C   0  0  2  0  0  0  0  0  0  0  0  0
  195.3790  173.6170  143.0970 C   0  0  1  0  0  0  0  0  0  0  0  0
  191.2040  174.1770  144.3630 O   0  0  0  0  0  0  0  0  0  0  0  0
  194.0210  173.9780  143.2840 O   0  0  0  0  0  0  0  0  0  0  0  0
  193.0430  169.4330  137.2020 C   0  0  0  0  0  3  0  0  0  0  0  0
  193.6830  174.0160  144.6620 C   0  0  2  0  0  3  0  0  0  0  0  0
  195.1440  174.0850  140.5760 C   0  0  0  0  0  2  0  0  0  0  0  0
  193.9280  170.0750  140.7060 C   0  0  0  0  0  1  0  0  0  0  0  0
  196.9980  172.0470  143.9220 O   0  0  0  0  0  0  0  0  0  0  0  0
  190.8920  172.7600  142.4100 C   0  0  1  0  0  3  0  0  0  0  0  0
  192.9830  169.7410  139.5420 C   0  0  1  0  0  0  0  0  0  0  0  0
  191.8690  170.7120  139.1040 C   0  0  1  0  0  3  0  0  0  0  0  0
  196.3780  173.3260  138.6730 O   0  0  0  0  0  0  0  0  0  0  0  0
  191.3340  174.1380  142.9540 C   0  0  1  0  0  3  0  0  0  0  0  0
  195.8230  172.4900  144.0040 C   0  0  0  0  0  0  0  0  0  0  0  0
  192.6960  168.3700  139.3350 O   0  0  0  0  0  0  0  0  0  0  0  0
  191.4660  172.3750  141.1140 C   0  0  0  0  0  0  0  0  0  0  0  0
  193.6480  172.6110  145.2580 C   0  0  0  0  0  2  0  0  0  0  0  0
  194.3390  171.4540  138.1270 C   0  0  0  0  0  2  0  0  0  0  0  0
  191.7540  171.7700  140.1150 C   0  0  0  0  0  0  0  0  0  0  0  0
  194.1520  172.7120  138.7440 O   0  0  0  0  0  0  0  0  0  0  0  0
  192.3660  174.7800  144.9080 C   0  0  0  0  0  2  0  0  0  0  0  0
  196.2720  174.8410  143.3330 C   0  0  0  0  0  1  0  0  0  0  0  0
  195.1160  170.5930  145.5010 C   0  0  0  0  0  1  0  0  0  0  0  0
  194.8740  171.9030  144.9170 N   0  0  0  0  0  0  0  0  0  0  0  0
  190.5290  175.2760  142.3090 C   0  0  0  0  0  2  0  0  0  0  0  0
  189.2510  174.7100  141.6580 C   0  0  1  0  0  3  0  0  0  0  0  0
  187.9760  175.3040  142.1850 C   0  0  0  0  0  0  0  0  0  0  0  0
  187.0670  174.5060  142.7630 C   0  0  0  0  0  2  0  0  0  0  0  0
  187.8160  177.3190  140.9280 O   0  0  0  0  0  0  0  0  0  0  0  0
  187.7220  176.7620  142.0550 C   0  0  0  0  0  0  0  0  0  0  0  0
  187.4220  177.6010  143.2650 C   0  0  2  0  0  3  0  0  0  0  0  0
  188.3370  177.3590  144.4310 C   0  0  0  0  0  0  0  0  0  0  0  0
  190.5000  177.5750  145.5360 C   0  0  0  0  0  3  0  0  0  0  0  0
  190.0900  176.7030  146.5640 C   0  0  0  0  0  0  0  0  0  0  0  0
  188.8210  176.1170  146.4670 C   0  0  0  0  0  3  0  0  0  0  0  0
  187.9640  176.4410  145.4140 C   0  0  0  0  0  3  0  0  0  0  0  0
  189.6280  177.9130  144.4870 C   0  0  0  0  0  3  0  0  0  0  0  0
  190.9570  176.4340  147.7330 C   0  0  0  0  0  0  0  0  0  0  0  0
  190.9400  175.2900  148.2600 O   0  0  0  0  0  0  0  0  0  0  0  0
  191.9030  177.4610  148.2710 C   0  0  0  0  0  2  0  0  0  0  0  0
  191.3780  177.9770  149.5270 N   0  0  0  0  0  1  0  0  0  0  0  0
  185.9190  177.7530  143.6270 C   0  0  0  0  0  0  0  0  0  0  0  0
  185.5660  176.7660  144.5510 O   0  0  0  0  0  1  0  0  0  0  0  0
  185.1440  177.5760  142.4760 O   0  0  0  0  0  1  0  0  0  0  0  0
  185.6660  179.1240  144.2520 C   0  0  0  0  0  2  0  0  0  0  0  0
  185.0740  179.0460  145.6160 C   0  0  0  0  0  0  0  0  0  0  0  0
  183.6910  178.9830  145.7640 O   0  0  0  0  0  0  0  0  0  0  0  0
  185.8280  179.0070  146.6260 O   0  0  0  0  0  1  0  0  0  0  0  0
  189.2150  174.5750  140.2350 O   0  0  0  0  0  0  0  0  0  0  0  0
  188.3820  173.4880  139.8380 C   0  0  0  0  0  2  0  0  0  0  0  0
  189.5820  173.6660  137.7040 C   0  0  0  0  0  2  0  0  0  0  0  0
  188.5210  173.2330  138.3720 C   0  0  0  0  0  3  0  0  0  0  0  0
  1 20  1  0  0  0  0
  3  6  1  0  0  0  0
  4 11  1  0  0  0  0
  5  9  1  6  0  0  0
  5 16  1  0  0  0  0
  5 15  1  0  0  0  0
  6  8  1  0  0  0  0
  6 27  1  1  0  0  0
  6 19  1  0  0  0  0
  7 26  1  0  0  0  0
  8 10  1  0  0  0  0
  9  1  2  0  0  0  0
 10 26  1  6  0  0  0
 10 22  1  0  0  0  0
 11  3  1  0  0  0  0
 13 19  2  0  0  0  0
 14 18  1  0  0  0  0
 14  2  1  1  0  0  0
 15 12  1  1  0  0  0
 16 15  1  0  0  0  0
 16 24  1  1  0  0  0
 17  4  2  0  0  0  0
 18 30  1  6  0  0  0
 18  7  1  0  0  0  0
 19 29  1  0  0  0  0
 20 15  1  0  0  0  0
 21 14  1  0  0  0  0
 23  5  1  0  0  0  0
 23 25  1  0  0  0  0
 24 21  3  0  0  0  0
 25  4  1  0  0  0  0
 29 22  1  0  0  0  0
 29 28  1  0  0  0  0
 31 32  1  0  0  0  0
 31 30  1  6  0  0  0
 32 33  2  0  0  0  0
 34 35  2  0  0  0  0
 35 32  1  0  0  0  0
 36 35  1  6  0  0  0
 36 47  1  0  0  0  0
 36 37  1  0  0  0  0
 37 42  2  0  0  0  0
 37 41  1  0  0  0  0
 38 39  2  0  0  0  0
 39 43  1  0  0  0  0
 40 39  1  0  0  0  0
 41 40  2  0  0  0  0
 42 38  1  0  0  0  0
 43 44  2  0  0  0  0
 43 45  1  0  0  0  0
 45 46  1  0  0  0  0
 47 50  1  0  0  0  0
 47 48  1  0  0  0  0
 49 47  1  0  0  0  0
 50 51  1  0  0  0  0
 51 52  2  0  0  0  0
 51 53  1  0  0  0  0
 54 31  1  0  0  0  0
 55 54  1  0  0  0  0
 56 57  2  0  0  0  0
 57 55  1  0  0  0  0
M  END
>  <MODEL>
8

>  <REMARK>
 VINA RESULT:      -6.8      1.817      2.996
  Name = 
  14 active torsions:
  status: ('A' for Active; 'I' for Inactive)
    1  A    between atoms: C_7  and  C_9
    2  A    between atoms: C_7  and  C_22
    3  A    between atoms: C_9  and  C_57
    4  A    between atoms: C_12  and  C_57
    5  A    between atoms: C_17  and  C_36
    6  A    between atoms: C_17  and  C_51
    7  A    between atoms: C_21  and  C_31
    8  A    between atoms: C_23  and  C_25
    9  A    between atoms: C_25  and  C_27
   10  A    between atoms: C_31  and  O_54
   11  A    between atoms: C_33  and  C_45
   12  A    between atoms: C_36  and  C_45
   13  A    between atoms: C_36  and  O_54
   14  A    between atoms: C_51  and  C_57
                            x       y       z     vdW  Elec       q    Type
                         _______ _______ _______ _____ _____    ______ ____

>  <TORSDO>
F 14

$$$$
=
 OpenBabel11062423043D

 57 61  0  0  1  0  0  0  0  0999 V2000
  189.6850  170.2180  137.7790 C   0  0  0  0  0  3  0  0  0  0  0  0
  193.0340  172.6630  142.9280 C   0  0  0  0  0  1  0  0  0  0  0  0
  195.2120  174.0670  138.7520 C   0  0  0  0  0  2  0  0  0  0  0  0
  193.4610  174.8400  137.2560 C   0  0  0  0  0  0  0  0  0  0  0  0
  190.7240  172.3880  137.8020 C   0  0  2  0  0  0  0  0  0  0  0  0
  196.2050  174.3350  139.8950 C   0  0  1  0  0  0  0  0  0  0  0  0
  194.2290  174.9790  143.7710 O   0  0  0  0  0  0  0  0  0  0  0  0
  195.4430  174.7620  141.0110 O   0  0  0  0  0  0  0  0  0  0  0  0
  189.7370  171.5510  137.0450 C   0  0  0  0  0  3  0  0  0  0  0  0
  196.1520  174.5650  142.2250 C   0  0  2  0  0  3  0  0  0  0  0  0
  194.4090  175.2910  138.3170 C   0  0  0  0  0  2  0  0  0  0  0  0
  192.8740  171.4410  138.9470 C   0  0  0  0  0  1  0  0  0  0  0  0
  197.6110  172.5120  139.2130 O   0  0  0  0  0  0  0  0  0  0  0  0
  192.4060  173.9900  142.5000 C   0  0  1  0  0  3  0  0  0  0  0  0
  191.3490  171.4120  138.7640 C   0  0  1  0  0  0  0  0  0  0  0  0
  190.4500  172.5360  139.3160 C   0  0  1  0  0  3  0  0  0  0  0  0
  193.8370  174.8110  136.0450 O   0  0  0  0  0  0  0  0  0  0  0  0
  193.3520  175.1990  142.6810 C   0  0  1  0  0  3  0  0  0  0  0  0
  196.9230  173.0250  140.1330 C   0  0  0  0  0  0  0  0  0  0  0  0
  190.7440  170.1340  138.7120 O   0  0  0  0  0  0  0  0  0  0  0  0
  191.8540  173.8140  141.1490 C   0  0  0  0  0  0  0  0  0  0  0  0
  196.2660  173.0790  142.5590 C   0  0  0  0  0  2  0  0  0  0  0  0
  191.6680  173.2480  136.9460 C   0  0  0  0  0  2  0  0  0  0  0  0
  191.2600  173.3880  140.1940 C   0  0  0  0  0  0  0  0  0  0  0  0
  192.1980  174.3770  137.6130 O   0  0  0  0  0  0  0  0  0  0  0  0
  195.5360  175.3720  143.3860 C   0  0  0  0  0  2  0  0  0  0  0  0
  197.2300  175.4160  139.5300 C   0  0  0  0  0  1  0  0  0  0  0  0
  197.0830  170.9410  141.5380 C   0  0  0  0  0  1  0  0  0  0  0  0
  196.7630  172.3530  141.3990 N   0  0  0  0  0  0  0  0  0  0  0  0
  192.5610  176.5000  142.8830 C   0  0  0  0  0  2  0  0  0  0  0  0
  191.6690  176.3820  144.1350 C   0  0  1  0  0  3  0  0  0  0  0  0
  190.2230  176.1020  143.8370 C   0  0  0  0  0  0  0  0  0  0  0  0
  189.6640  174.9710  144.2900 C   0  0  0  0  0  2  0  0  0  0  0  0
  189.9450  178.1510  142.6580 O   0  0  0  0  0  0  0  0  0  0  0  0
  189.4260  177.0660  143.0370 C   0  0  0  0  0  0  0  0  0  0  0  0
  187.9790  176.8000  142.7310 C   0  0  2  0  0  3  0  0  0  0  0  0
  187.6720  176.6340  141.2710 C   0  0  0  0  0  0  0  0  0  0  0  0
  186.4920  177.2940  139.2420 C   0  0  0  0  0  3  0  0  0  0  0  0
  186.9680  176.1540  138.5640 C   0  0  0  0  0  0  0  0  0  0  0  0
  187.7410  175.2320  139.2830 C   0  0  0  0  0  3  0  0  0  0  0  0
  188.0810  175.4720  140.6150 C   0  0  0  0  0  3  0  0  0  0  0  0
  186.8520  177.5400  140.5780 C   0  0  0  0  0  3  0  0  0  0  0  0
  186.6920  175.9470  137.1250 C   0  0  0  0  0  0  0  0  0  0  0  0
  185.4980  175.8200  136.7410 O   0  0  0  0  0  0  0  0  0  0  0  0
  187.7810  175.9470  136.1000 C   0  0  0  0  0  2  0  0  0  0  0  0
  187.8950  177.2820  135.5300 N   0  0  0  0  0  1  0  0  0  0  0  0
  186.9520  177.6500  143.5280 C   0  0  0  0  0  0  0  0  0  0  0  0
  186.8320  178.9070  142.9300 O   0  0  0  0  0  1  0  0  0  0  0  0
  187.4110  177.8280  144.8380 O   0  0  0  0  0  1  0  0  0  0  0  0
  185.5840  176.9690  143.5160 C   0  0  0  0  0  2  0  0  0  0  0  0
  184.4490  177.9320  143.4640 C   0  0  0  0  0  0  0  0  0  0  0  0
  184.1320  178.6830  144.5920 O   0  0  0  0  0  1  0  0  0  0  0  0
  183.8040  178.0830  142.3920 O   0  0  0  0  0  0  0  0  0  0  0  0
  192.1370  175.5970  145.2330 O   0  0  0  0  0  0  0  0  0  0  0  0
  192.5370  176.4190  146.3260 C   0  0  0  0  0  2  0  0  0  0  0  0
  191.1480  175.2910  148.0070 C   0  0  0  0  0  2  0  0  0  0  0  0
  191.4910  176.4160  147.3930 C   0  0  0  0  0  3  0  0  0  0  0  0
  1 20  1  0  0  0  0
  3  6  1  0  0  0  0
  4 25  1  0  0  0  0
  4 11  1  0  0  0  0
  5 23  1  6  0  0  0
  5 15  1  0  0  0  0
  5 16  1  0  0  0  0
  6 27  1  6  0  0  0
  6 19  1  0  0  0  0
  6  8  1  0  0  0  0
  8 10  1  0  0  0  0
  9  1  2  0  0  0  0
  9  5  1  0  0  0  0
 10 22  1  1  0  0  0
 10 26  1  0  0  0  0
 11  3  1  0  0  0  0
 13 19  2  0  0  0  0
 14 18  1  0  0  0  0
 14  2  1  6  0  0  0
 15 12  1  1  0  0  0
 15 16  1  0  0  0  0
 16 24  1  1  0  0  0
 17  4  2  0  0  0  0
 18 30  1  1  0  0  0
 18  7  1  0  0  0  0
 19 29  1  0  0  0  0
 20 15  1  0  0  0  0
 21 14  1  0  0  0  0
 23 25  1  0  0  0  0
 24 21  3  0  0  0  0
 26  7  1  0  0  0  0
 29 28  1  0  0  0  0
 29 22  1  0  0  0  0
 31 30  1  6  0  0  0
 31 54  1  0  0  0  0
 32 31  1  0  0  0  0
 32 33  2  0  0  0  0
 34 35  2  0  0  0  0
 35 32  1  0  0  0  0
 36 35  1  6  0  0  0
 36 47  1  0  0  0  0
 37 36  1  0  0  0  0
 38 42  1  0  0  0  0
 39 38  2  0  0  0  0
 39 40  1  0  0  0  0
 40 41  2  0  0  0  0
 41 37  1  0  0  0  0
 42 37  2  0  0  0  0
 43 39  1  0  0  0  0
 44 43  2  0  0  0  0
 45 43  1  0  0  0  0
 46 45  1  0  0  0  0
 47 49  1  0  0  0  0
 48 47  1  0  0  0  0
 50 47  1  0  0  0  0
 51 50  1  0  0  0  0
 51 52  1  0  0  0  0
 53 51  2  0  0  0  0
 54 55  1  0  0  0  0
 55 57  1  0  0  0  0
 57 56  2  0  0  0  0
M  END
>  <MODEL>
9

>  <REMARK>
 VINA RESULT:      -6.7      2.808      6.210
  Name = 
  14 active torsions:
  status: ('A' for Active; 'I' for Inactive)
    1  A    between atoms: C_7  and  C_9
    2  A    between atoms: C_7  and  C_22
    3  A    between atoms: C_9  and  C_57
    4  A    between atoms: C_12  and  C_57
    5  A    between atoms: C_17  and  C_36
    6  A    between atoms: C_17  and  C_51
    7  A    between atoms: C_21  and  C_31
    8  A    between atoms: C_23  and  C_25
    9  A    between atoms: C_25  and  C_27
   10  A    between atoms: C_31  and  O_54
   11  A    between atoms: C_33  and  C_45
   12  A    between atoms: C_36  and  C_45
   13  A    between atoms: C_36  and  O_54
   14  A    between atoms: C_51  and  C_57
                            x       y       z     vdW  Elec       q    Type
                         _______ _______ _______ _____ _____    ______ ____

>  <TORSDO>
F 14

$$$$
