=
 OpenBabel11072409203D

 64 70  0  0  1  0  0  0  0  0999 V2000
  193.5400  171.8050  142.0680 C   0  0  2  0  0  0  0  0  0  0  0  0
  194.6380  173.8120  143.2860 C   0  0  1  0  0  3  0  0  0  0  0  0
  191.4030  172.0190  141.5740 C   0  0  1  0  0  3  0  0  0  0  0  0
  194.9560  174.1900  141.8300 C   0  0  2  0  0  3  0  0  0  0  0  0
  191.4620  170.7350  142.1500 O   0  0  0  0  0  0  0  0  0  0  0  0
  194.9500  171.6390  141.4440 C   0  0  1  0  0  3  0  0  0  0  0  0
  192.6830  172.4360  141.1670 O   0  0  0  0  0  0  0  0  0  0  0  0
  195.5820  172.9960  141.0710 C   0  0  1  0  0  3  0  0  0  0  0  0
  193.6350  172.6540  143.3590 C   0  0  0  0  0  2  0  0  0  0  0  0
  192.8220  170.5040  142.3940 C   0  0  1  0  0  3  0  0  0  0  0  0
  192.2430  168.7590  140.6320 C   0  0  0  0  0  1  0  0  0  0  0  0
  193.2970  169.2740  141.6030 C   0  0  0  0  0  3  0  0  0  0  0  0
  193.7080  168.1660  142.5520 C   0  0  0  0  0  1  0  0  0  0  0  0
  195.8400  175.3980  141.7730 C   0  0  0  0  0  3  0  0  0  0  0  0
  195.6670  176.4080  142.6260 C   0  0  0  0  0  2  0  0  0  0  0  0
  195.8030  170.9780  142.3370 O   0  0  0  0  0  0  0  0  0  0  0  0
  197.0230  171.2500  141.9180 O   0  0  0  0  0  0  0  0  0  0  0  0
  197.6700  170.0130  141.8700 C   0  0  0  0  0  1  0  0  0  0  0  0
  195.8260  173.4420  143.9760 O   0  0  0  0  0  0  0  0  0  0  0  0
  196.8300  172.0100  145.7520 C   0  0  0  0  0  1  0  0  0  0  0  0
  194.9120  173.3740  146.0970 O   0  0  0  0  0  0  0  0  0  0  0  0
  195.8010  172.9830  145.2930 C   0  0  0  0  0  0  0  0  0  0  0  0
  190.4420  172.0300  140.4000 C   0  0  0  0  0  2  0  0  0  0  0  0
  190.2280  173.4660  139.9470 C   0  0  1  0  0  3  0  0  0  0  0  0
  189.3910  173.5130  138.7610 N   0  0  0  0  0  0  0  0  0  0  0  0
  189.8790  173.8460  137.6080 C   0  0  0  0  0  3  0  0  0  0  0  0
  189.0770  175.0410  135.6050 C   0  0  0  0  0  1  0  0  0  0  0  0
  189.0770  173.9070  136.4670 O   0  0  0  0  0  0  0  0  0  0  0  0
  189.6400  174.3240  141.0670 C   0  0  0  0  0  2  0  0  0  0  0  0
  188.1370  174.5450  140.9280 C   0  0  0  0  0  2  0  0  0  0  0  0
  187.0040  176.1450  142.1870 C   0  0  2  0  0  3  0  0  0  0  0  0
  188.4400  176.4900  142.2060 C   0  0  1  0  0  3  0  0  0  0  0  0
  187.8250  175.9600  140.9810 N   0  0  0  0  0  0  0  0  0  0  0  0
  188.7710  177.9640  142.0040 C   0  0  0  0  0  1  0  0  0  0  0  0
  186.0430  177.3150  141.9780 C   0  0  0  0  0  2  0  0  0  0  0  0
  185.0550  177.4670  143.1450 C   0  0  2  0  0  3  0  0  0  0  0  0
  183.8650  178.0530  142.7380 F   0  0  0  0  0  0  0  0  0  0  0  0
  185.5810  177.2740  145.6360 C   0  0  1  0  0  3  0  0  0  0  0  0
  184.6270  179.1660  144.9620 C   0  0  0  0  0  2  0  0  0  0  0  0
  184.3710  178.2870  146.5360 S   0  0  0  0  0  0  0  0  0  0  0  0
  185.6150  178.1620  144.3980 C   0  0  2  0  0  3  0  0  0  0  0  0
  186.9200  177.7540  147.5420 O   0  0  0  0  0  0  0  0  0  0  0  0
  188.0890  176.8400  145.7430 N   0  0  0  0  0  2  0  0  0  0  0  0
  186.8810  177.2630  146.3840 C   0  0  0  0  0  0  0  0  0  0  0  0
  189.6830  177.2600  146.3860 S   0  0  0  0  0  0  0  0  0  0  0  0
  189.8540  175.6730  147.2650 C   0  0  1  0  0  3  0  0  0  0  0  0
  189.7050  172.5280  144.5780 C   0  0  0  0  0  1  0  0  0  0  0  0
  189.8020  174.5700  146.2970 C   0  0  0  0  0  0  0  0  0  0  0  0
  189.7550  173.6530  145.5110 C   0  0  0  0  0  0  0  0  0  0  0  0
  191.1860  175.6360  147.9990 C   0  0  0  0  0  2  0  0  0  0  0  0
  192.3220  175.5200  147.0070 C   0  0  0  0  0  1  0  0  0  0  0  0
  195.5200  173.1840  139.6820 O   0  0  0  0  0  0  0  0  0  0  0  0
  197.8930  169.5420  138.3880 N   0  0  0  0  0  2  0  0  0  0  0  0
  194.2300  171.7580  138.2200 C   0  0  0  0  0  2  0  0  0  0  0  0
  196.5600  169.7870  136.8250 C   0  0  2  0  0  0  0  0  0  0  0  0
  197.8370  169.1290  137.0440 N   0  0  0  0  0  2  0  0  0  0  0  0
  196.6070  170.2060  138.2980 C   0  0  2  0  0  0  0  0  0  0  0  0
  196.6060  171.6060  138.4290 O   0  0  0  0  0  0  0  0  0  0  0  0
  194.1580  170.3540  137.5870 C   0  0  0  0  0  2  0  0  0  0  0  0
  195.4380  171.8960  139.1420 C   0  0  1  0  0  3  0  0  0  0  0  0
  195.4010  169.4480  137.7570 C   0  0  1  0  0  3  0  0  0  0  0  0
  197.6040  171.6250  135.6790 O   0  0  0  0  0  1  0  0  0  0  0  0
  195.4320  171.2000  135.0780 O   0  0  0  0  0  0  0  0  0  0  0  0
  196.5620  170.9350  135.8470 C   0  0  0  0  0  0  0  0  0  0  0  0
  1 10  1  0  0  0  0
  1  9  1  1  0  0  0
  2  9  1  0  0  0  0
  2 19  1  6  0  0  0
  3 23  1  6  0  0  0
  3  5  1  0  0  0  0
  4 14  1  1  0  0  0
  4  2  1  0  0  0  0
  5 10  1  0  0  0  0
  6  1  1  0  0  0  0
  6 16  1  1  0  0  0
  7  3  1  0  0  0  0
  7  1  1  0  0  0  0
  8 52  1  6  0  0  0
  8  6  1  0  0  0  0
  8  4  1  0  0  0  0
 10 12  1  6  0  0  0
 11 12  1  0  0  0  0
 12 13  1  0  0  0  0
 14 15  2  0  0  0  0
 17 16  1  0  0  0  0
 18 17  1  0  0  0  0
 19 22  1  0  0  0  0
 22 20  1  0  0  0  0
 22 21  2  0  0  0  0
 24 23  1  1  0  0  0
 24 29  1  0  0  0  0
 25 24  1  0  0  0  0
 26 25  2  0  0  0  0
 27 28  1  0  0  0  0
 28 26  1  0  0  0  0
 30 33  1  0  0  0  0
 30 29  1  0  0  0  0
 31 35  1  6  0  0  0
 31 32  1  0  0  0  0
 32 34  1  6  0  0  0
 33 31  1  0  0  0  0
 33 32  1  0  0  0  0
 35 36  1  0  0  0  0
 36 37  1  6  0  0  0
 38 44  1  1  0  0  0
 38 40  1  0  0  0  0
 39 40  1  0  0  0  0
 41 36  1  6  0  0  0
 41 39  1  0  0  0  0
 41 38  1  0  0  0  0
 43 44  1  0  0  0  0
 43 45  1  0  0  0  0
 44 42  2  0  0  0  0
 45 46  1  0  0  0  0
 46 48  1  6  0  0  0
 46 50  1  0  0  0  0
 47 49  1  0  0  0  0
 49 48  3  0  0  0  0
 51 50  1  0  0  0  0
 54 60  1  0  0  0  0
 55 64  1  6  0  0  0
 55 56  1  0  0  0  0
 55 61  1  0  0  0  0
 55 57  1  0  0  0  0
 56 53  1  0  0  0  0
 57 53  1  1  0  0  0
 57 58  1  0  0  0  0
 58 60  1  0  0  0  0
 59 54  1  0  0  0  0
 60 52  1  6  0  0  0
 61 59  1  6  0  0  0
 61 57  1  0  0  0  0
 62 64  1  0  0  0  0
 63 64  2  0  0  0  0
M  END
>  <MODEL>
1

>  <REMARK>
 VINA RESULT:      -5.7      0.000      0.000
  Name = 
  24 active torsions:
  status: ('A' for Active; 'I' for Inactive)
    1  A    between atoms: C_1  and  C_42
    2  A    between atoms: N_2  and  C_43
    3  A    between atoms: C_5  and  C_18
    4  A    between atoms: C_5  and  C_43
    5  A    between atoms: S_7  and  N_25
    6  A    between atoms: S_7  and  C_51
    7  A    between atoms: C_8  and  C_19
    8  A    between atoms: C_8  and  C_60
    9  A    between atoms: O_9  and  O_26
   10  A    between atoms: O_9  and  C_31
   11  A    between atoms: C_14  and  C_19
   12  A    between atoms: C_15  and  C_20
   13  A    between atoms: C_17  and  O_41
   14  A    between atoms: C_21  and  C_51
   15  A    between atoms: C_24  and  C_45
   16  A    between atoms: N_32  and  C_37
   17  A    between atoms: C_36  and  C_51
   18  A    between atoms: C_37  and  C_38
   19  A    between atoms: C_38  and  C_43
   20  A    between atoms: C_39  and  O_54
   21  A    between atoms: C_40  and  O_61
   22  A    between atoms: O_41  and  C_56
   23  A    between atoms: C_46  and  C_64
   24  A    between atoms: C_59  and  O_61
                            x       y       z     vdW  Elec       q    Type
                         _______ _______ _______ _____ _____    ______ ____

>  <TORSDO>
F 24

$$$$
=
 OpenBabel11072409203D

 64 70  0  0  1  0  0  0  0  0999 V2000
  193.0180  171.8740  142.7720 C   0  0  2  0  0  0  0  0  0  0  0  0
  194.5520  173.7440  143.7020 C   0  0  1  0  0  3  0  0  0  0  0  0
  190.8500  172.2480  142.8860 C   0  0  1  0  0  3  0  0  0  0  0  0
  194.4920  174.1710  142.2260 C   0  0  2  0  0  3  0  0  0  0  0  0
  190.9650  170.9370  143.3870 O   0  0  0  0  0  0  0  0  0  0  0  0
  194.1910  171.6470  141.7820 C   0  0  1  0  0  3  0  0  0  0  0  0
  192.0000  172.6020  142.1580 O   0  0  0  0  0  0  0  0  0  0  0  0
  194.7980  172.9770  141.2900 C   0  0  1  0  0  3  0  0  0  0  0  0
  193.5220  172.6500  144.0120 C   0  0  0  0  0  2  0  0  0  0  0  0
  192.3200  170.6070  143.2430 C   0  0  1  0  0  3  0  0  0  0  0  0
  191.1570  168.9930  141.6530 C   0  0  0  0  0  1  0  0  0  0  0  0
  192.4690  169.3890  142.3170 C   0  0  0  0  0  3  0  0  0  0  0  0
  193.0330  168.2110  143.0860 C   0  0  0  0  0  1  0  0  0  0  0  0
  195.4170  175.3210  141.9650 C   0  0  0  0  0  3  0  0  0  0  0  0
  195.4310  176.3790  142.7760 C   0  0  0  0  0  2  0  0  0  0  0  0
  195.2010  170.8900  142.3890 O   0  0  0  0  0  0  0  0  0  0  0  0
  195.6720  170.1120  141.4340 O   0  0  0  0  0  0  0  0  0  0  0  0
  197.0600  170.1480  141.5950 C   0  0  0  0  0  1  0  0  0  0  0  0
  195.8510  173.2650  144.0300 O   0  0  0  0  0  0  0  0  0  0  0  0
  196.5070  171.7530  145.9000 C   0  0  0  0  0  1  0  0  0  0  0  0
  196.4400  174.1230  146.0940 O   0  0  0  0  0  0  0  0  0  0  0  0
  196.2700  173.1170  145.3530 C   0  0  0  0  0  0  0  0  0  0  0  0
  189.6120  172.3780  142.0200 C   0  0  0  0  0  2  0  0  0  0  0  0
  189.6730  173.6940  141.2590 C   0  0  1  0  0  3  0  0  0  0  0  0
  189.6900  173.4600  139.8250 N   0  0  0  0  0  0  0  0  0  0  0  0
  190.0020  172.3010  139.3380 C   0  0  0  0  0  3  0  0  0  0  0  0
  191.2010  171.5900  137.3040 C   0  0  0  0  0  1  0  0  0  0  0  0
  190.0340  172.0740  137.9610 O   0  0  0  0  0  0  0  0  0  0  0  0
  188.5220  174.6210  141.6500 C   0  0  0  0  0  2  0  0  0  0  0  0
  187.7930  175.2130  140.4480 C   0  0  0  0  0  2  0  0  0  0  0  0
  186.9010  176.6000  142.0950 C   0  0  2  0  0  3  0  0  0  0  0  0
  188.2700  177.0720  141.8010 C   0  0  1  0  0  3  0  0  0  0  0  0
  187.4080  176.5850  140.7150 N   0  0  0  0  0  0  0  0  0  0  0  0
  188.4380  178.5800  141.6710 C   0  0  0  0  0  1  0  0  0  0  0  0
  185.8410  177.6900  142.2410 C   0  0  0  0  0  2  0  0  0  0  0  0
  185.3110  177.7920  143.6790 C   0  0  2  0  0  3  0  0  0  0  0  0
  184.2900  178.7270  143.7860 F   0  0  0  0  0  0  0  0  0  0  0  0
  186.5900  176.7940  145.6500 C   0  0  1  0  0  3  0  0  0  0  0  0
  185.8510  178.8770  145.8940 C   0  0  0  0  0  2  0  0  0  0  0  0
  185.9700  177.5790  147.1660 S   0  0  0  0  0  0  0  0  0  0  0  0
  186.3800  178.0150  144.7630 C   0  0  2  0  0  3  0  0  0  0  0  0
  188.8550  176.7630  144.9240 O   0  0  0  0  0  0  0  0  0  0  0  0
  188.4620  175.6180  146.9180 N   0  0  0  0  0  2  0  0  0  0  0  0
  188.0370  176.4390  145.8240 C   0  0  0  0  0  0  0  0  0  0  0  0
  190.0190  174.7780  146.9050 S   0  0  0  0  0  0  0  0  0  0  0  0
  190.9570  176.3190  146.6430 C   0  0  1  0  0  3  0  0  0  0  0  0
  191.5590  178.1580  150.3020 C   0  0  0  0  0  1  0  0  0  0  0  0
  191.1890  176.9760  147.9350 C   0  0  0  0  0  0  0  0  0  0  0  0
  191.3670  177.5100  149.0050 C   0  0  0  0  0  0  0  0  0  0  0  0
  192.2950  175.9980  145.9950 C   0  0  0  0  0  2  0  0  0  0  0  0
  192.3930  176.6720  144.6440 C   0  0  0  0  0  1  0  0  0  0  0  0
  194.3780  173.2360  139.9770 O   0  0  0  0  0  0  0  0  0  0  0  0
  197.8130  175.3870  137.9390 N   0  0  0  0  0  2  0  0  0  0  0  0
  195.4020  171.8600  138.2760 C   0  0  0  0  0  2  0  0  0  0  0  0
  197.1800  174.0660  136.4770 C   0  0  2  0  0  0  0  0  0  0  0  0
  197.9410  175.3020  136.5400 N   0  0  0  0  0  2  0  0  0  0  0  0
  197.0720  174.1420  138.0030 C   0  0  2  0  0  0  0  0  0  0  0  0
  195.7290  174.2240  138.4150 O   0  0  0  0  0  0  0  0  0  0  0  0
  196.6430  171.7030  137.3740 C   0  0  0  0  0  2  0  0  0  0  0  0
  195.5230  173.0770  139.1890 C   0  0  1  0  0  3  0  0  0  0  0  0
  197.6340  172.8920  137.3380 C   0  0  1  0  0  3  0  0  0  0  0  0
  195.1780  175.1930  135.7690 O   0  0  0  0  0  1  0  0  0  0  0  0
  195.4160  173.0440  135.0060 O   0  0  0  0  0  0  0  0  0  0  0  0
  195.8590  174.1320  135.7520 C   0  0  0  0  0  0  0  0  0  0  0  0
  1 10  1  0  0  0  0
  1  9  1  1  0  0  0
  2  9  1  0  0  0  0
  2 19  1  6  0  0  0
  3 23  1  6  0  0  0
  3  5  1  0  0  0  0
  4 14  1  1  0  0  0
  4  2  1  0  0  0  0
  6 16  1  1  0  0  0
  6  1  1  0  0  0  0
  7  1  1  0  0  0  0
  7  3  1  0  0  0  0
  8 52  1  6  0  0  0
  8  6  1  0  0  0  0
  8  4  1  0  0  0  0
 10 12  1  6  0  0  0
 10  5  1  0  0  0  0
 11 12  1  0  0  0  0
 12 13  1  0  0  0  0
 14 15  2  0  0  0  0
 17 18  1  0  0  0  0
 17 16  1  0  0  0  0
 19 22  1  0  0  0  0
 22 20  1  0  0  0  0
 22 21  2  0  0  0  0
 24 29  1  6  0  0  0
 24 23  1  0  0  0  0
 25 24  1  0  0  0  0
 26 25  2  0  0  0  0
 27 28  1  0  0  0  0
 28 26  1  0  0  0  0
 30 33  1  0  0  0  0
 30 29  1  0  0  0  0
 31 35  1  6  0  0  0
 32 34  1  6  0  0  0
 32 31  1  0  0  0  0
 33 32  1  0  0  0  0
 33 31  1  0  0  0  0
 35 36  1  0  0  0  0
 36 37  1  6  0  0  0
 38 44  1  1  0  0  0
 38 40  1  0  0  0  0
 39 40  1  0  0  0  0
 41 36  1  6  0  0  0
 41 38  1  0  0  0  0
 41 39  1  0  0  0  0
 42 44  2  0  0  0  0
 44 43  1  0  0  0  0
 45 43  1  0  0  0  0
 46 50  1  1  0  0  0
 46 45  1  0  0  0  0
 46 48  1  0  0  0  0
 48 49  3  0  0  0  0
 49 47  1  0  0  0  0
 51 50  1  0  0  0  0
 54 60  1  0  0  0  0
 55 64  1  6  0  0  0
 55 56  1  0  0  0  0
 55 61  1  0  0  0  0
 55 57  1  0  0  0  0
 56 53  1  0  0  0  0
 57 53  1  1  0  0  0
 57 58  1  0  0  0  0
 58 60  1  0  0  0  0
 59 54  1  0  0  0  0
 60 52  1  6  0  0  0
 61 59  1  6  0  0  0
 61 57  1  0  0  0  0
 63 64  2  0  0  0  0
 64 62  1  0  0  0  0
M  END
>  <MODEL>
2

>  <REMARK>
 VINA RESULT:      -5.5      1.946      2.491
  Name = 
  24 active torsions:
  status: ('A' for Active; 'I' for Inactive)
    1  A    between atoms: C_1  and  C_42
    2  A    between atoms: N_2  and  C_43
    3  A    between atoms: C_5  and  C_18
    4  A    between atoms: C_5  and  C_43
    5  A    between atoms: S_7  and  N_25
    6  A    between atoms: S_7  and  C_51
    7  A    between atoms: C_8  and  C_19
    8  A    between atoms: C_8  and  C_60
    9  A    between atoms: O_9  and  O_26
   10  A    between atoms: O_9  and  C_31
   11  A    between atoms: C_14  and  C_19
   12  A    between atoms: C_15  and  C_20
   13  A    between atoms: C_17  and  O_41
   14  A    between atoms: C_21  and  C_51
   15  A    between atoms: C_24  and  C_45
   16  A    between atoms: N_32  and  C_37
   17  A    between atoms: C_36  and  C_51
   18  A    between atoms: C_37  and  C_38
   19  A    between atoms: C_38  and  C_43
   20  A    between atoms: C_39  and  O_54
   21  A    between atoms: C_40  and  O_61
   22  A    between atoms: O_41  and  C_56
   23  A    between atoms: C_46  and  C_64
   24  A    between atoms: C_59  and  O_61
                            x       y       z     vdW  Elec       q    Type
                         _______ _______ _______ _____ _____    ______ ____

>  <TORSDO>
F 24

$$$$
=
 OpenBabel11072409203D

 64 70  0  0  1  0  0  0  0  0999 V2000
  192.8120  175.1880  143.9840 C   0  0  2  0  0  0  0  0  0  0  0  0
  193.8320  174.3670  141.7470 C   0  0  1  0  0  3  0  0  0  0  0  0
  190.7850  176.0440  143.8710 C   0  0  1  0  0  3  0  0  0  0  0  0
  193.1930  173.0570  142.2340 C   0  0  2  0  0  3  0  0  0  0  0  0
  191.4790  176.9900  144.6500 O   0  0  0  0  0  0  0  0  0  0  0  0
  193.6380  174.0200  144.5850 C   0  0  1  0  0  3  0  0  0  0  0  0
  191.4750  174.8170  143.8540 O   0  0  0  0  0  0  0  0  0  0  0  0
  193.5860  172.7580  143.7000 C   0  0  1  0  0  3  0  0  0  0  0  0
  193.3730  175.5630  142.5910 C   0  0  0  0  0  2  0  0  0  0  0  0
  192.7560  176.4440  144.8400 C   0  0  1  0  0  3  0  0  0  0  0  0
  191.8080  176.5620  147.2000 C   0  0  0  0  0  1  0  0  0  0  0  0
  193.0210  176.2320  146.3390 C   0  0  0  0  0  3  0  0  0  0  0  0
  194.2090  177.0600  146.7850 C   0  0  0  0  0  1  0  0  0  0  0  0
  193.5540  171.9190  141.3280 C   0  0  0  0  0  3  0  0  0  0  0  0
  193.5100  172.0640  140.0040 C   0  0  0  0  0  2  0  0  0  0  0  0
  194.9770  174.4020  144.7440 O   0  0  0  0  0  0  0  0  0  0  0  0
  195.3910  173.7720  145.8260 O   0  0  0  0  0  0  0  0  0  0  0  0
  196.7720  173.9810  145.8550 C   0  0  0  0  0  1  0  0  0  0  0  0
  195.2520  174.2780  141.8000 O   0  0  0  0  0  0  0  0  0  0  0  0
  197.1000  175.9090  142.1690 C   0  0  0  0  0  1  0  0  0  0  0  0
  195.9480  175.6830  140.1010 O   0  0  0  0  0  0  0  0  0  0  0  0
  196.0730  175.2860  141.2920 C   0  0  0  0  0  0  0  0  0  0  0  0
  189.3760  175.8530  144.4000 C   0  0  0  0  0  2  0  0  0  0  0  0
  188.3820  176.1970  143.2990 C   0  0  1  0  0  3  0  0  0  0  0  0
  187.8880  177.5540  143.4570 N   0  0  0  0  0  0  0  0  0  0  0  0
  186.6520  177.8500  143.2110 C   0  0  0  0  0  3  0  0  0  0  0  0
  185.3950  179.5610  144.4660 C   0  0  0  0  0  1  0  0  0  0  0  0
  186.1750  179.1550  143.3460 O   0  0  0  0  0  0  0  0  0  0  0  0
  188.9900  175.9910  141.9130 C   0  0  0  0  0  2  0  0  0  0  0  0
  188.0120  175.3830  140.9130 C   0  0  0  0  0  2  0  0  0  0  0  0
  189.1720  173.7490  139.7240 C   0  0  2  0  0  3  0  0  0  0  0  0
  189.6220  173.6880  141.1290 C   0  0  1  0  0  3  0  0  0  0  0  0
  188.2100  173.9500  140.8170 N   0  0  0  0  0  0  0  0  0  0  0  0
  189.7540  172.2910  141.7230 C   0  0  0  0  0  1  0  0  0  0  0  0
  188.9120  172.4010  139.0510 C   0  0  0  0  0  2  0  0  0  0  0  0
  189.7640  172.2120  137.7870 C   0  0  2  0  0  3  0  0  0  0  0  0
  188.9770  171.9960  136.6640 F   0  0  0  0  0  0  0  0  0  0  0  0
  190.8810  170.1750  136.7280 C   0  0  1  0  0  3  0  0  0  0  0  0
  190.5380  170.0950  138.9240 C   0  0  0  0  0  2  0  0  0  0  0  0
  190.4460  168.7230  137.7290 S   0  0  0  0  0  0  0  0  0  0  0  0
  190.8780  171.1560  137.8950 C   0  0  2  0  0  3  0  0  0  0  0  0
  192.4600  168.9590  135.4300 O   0  0  0  0  0  0  0  0  0  0  0  0
  193.3220  170.8620  136.4680 N   0  0  0  0  0  2  0  0  0  0  0  0
  192.2430  169.9820  136.1310 C   0  0  0  0  0  0  0  0  0  0  0  0
  195.0120  170.4120  136.2010 S   0  0  0  0  0  0  0  0  0  0  0  0
  195.4450  172.0530  135.5390 C   0  0  1  0  0  3  0  0  0  0  0  0
  193.3850  174.9440  137.6680 C   0  0  0  0  0  1  0  0  0  0  0  0
  194.7100  173.0880  136.2770 C   0  0  0  0  0  0  0  0  0  0  0  0
  194.1120  173.9350  136.8980 C   0  0  0  0  0  0  0  0  0  0  0  0
  196.9400  172.2890  135.6970 C   0  0  0  0  0  2  0  0  0  0  0  0
  197.5490  171.2020  136.5550 C   0  0  0  0  0  1  0  0  0  0  0  0
  192.7290  171.8070  144.2750 O   0  0  0  0  0  0  0  0  0  0  0  0
  196.9370  170.6720  145.5340 N   0  0  0  0  0  2  0  0  0  0  0  0
  193.1120  169.4330  144.0520 C   0  0  0  0  0  2  0  0  0  0  0  0
  196.4560  169.1830  144.1810 C   0  0  2  0  0  0  0  0  0  0  0  0
  197.6630  169.7570  144.7500 N   0  0  0  0  0  2  0  0  0  0  0  0
  195.6660  170.1560  145.0610 C   0  0  2  0  0  0  0  0  0  0  0  0
  194.8810  171.0240  144.2820 O   0  0  0  0  0  0  0  0  0  0  0  0
  194.0520  168.2750  144.4440 C   0  0  0  0  0  2  0  0  0  0  0  0
  193.5630  170.7540  144.6670 C   0  0  1  0  0  3  0  0  0  0  0  0
  195.3840  168.6610  145.1320 C   0  0  1  0  0  3  0  0  0  0  0  0
  196.7230  170.4030  142.1270 O   0  0  0  0  0  1  0  0  0  0  0  0
  195.6230  168.3990  141.9420 O   0  0  0  0  0  0  0  0  0  0  0  0
  196.2600  169.3790  142.6980 C   0  0  0  0  0  0  0  0  0  0  0  0
  1  9  1  6  0  0  0
  1  6  1  0  0  0  0
  1 10  1  0  0  0  0
  2 19  1  1  0  0  0
  2  4  1  0  0  0  0
  2  9  1  0  0  0  0
  3 23  1  1  0  0  0
  3  5  1  0  0  0  0
  4 14  1  6  0  0  0
  4  8  1  0  0  0  0
  5 10  1  0  0  0  0
  6 16  1  6  0  0  0
  7  3  1  0  0  0  0
  7  1  1  0  0  0  0
  8 52  1  1  0  0  0
  8  6  1  0  0  0  0
 10 12  1  1  0  0  0
 12 13  1  0  0  0  0
 12 11  1  0  0  0  0
 15 14  2  0  0  0  0
 16 17  1  0  0  0  0
 17 18  1  0  0  0  0
 21 22  2  0  0  0  0
 22 19  1  0  0  0  0
 22 20  1  0  0  0  0
 24 29  1  6  0  0  0
 24 25  1  0  0  0  0
 24 23  1  0  0  0  0
 26 28  1  0  0  0  0
 26 25  2  0  0  0  0
 28 27  1  0  0  0  0
 30 29  1  0  0  0  0
 31 35  1  1  0  0  0
 31 33  1  0  0  0  0
 31 32  1  0  0  0  0
 32 34  1  1  0  0  0
 33 30  1  0  0  0  0
 33 32  1  0  0  0  0
 36 37  1  6  0  0  0
 36 35  1  0  0  0  0
 38 44  1  1  0  0  0
 38 40  1  0  0  0  0
 38 41  1  0  0  0  0
 40 39  1  0  0  0  0
 41 36  1  6  0  0  0
 41 39  1  0  0  0  0
 42 44  2  0  0  0  0
 44 43  1  0  0  0  0
 45 43  1  0  0  0  0
 46 50  1  1  0  0  0
 46 45  1  0  0  0  0
 46 48  1  0  0  0  0
 48 49  3  0  0  0  0
 49 47  1  0  0  0  0
 50 51  1  0  0  0  0
 54 59  1  0  0  0  0
 54 60  1  0  0  0  0
 55 64  1  6  0  0  0
 55 56  1  0  0  0  0
 55 57  1  0  0  0  0
 55 61  1  0  0  0  0
 56 53  1  0  0  0  0
 57 58  1  6  0  0  0
 57 61  1  0  0  0  0
 57 53  1  0  0  0  0
 58 60  1  0  0  0  0
 60 52  1  6  0  0  0
 61 59  1  6  0  0  0
 62 64  1  0  0  0  0
 63 64  2  0  0  0  0
M  END
>  <MODEL>
3

>  <REMARK>
 VINA RESULT:      -5.4      3.609      8.055
  Name = 
  24 active torsions:
  status: ('A' for Active; 'I' for Inactive)
    1  A    between atoms: C_1  and  C_42
    2  A    between atoms: N_2  and  C_43
    3  A    between atoms: C_5  and  C_18
    4  A    between atoms: C_5  and  C_43
    5  A    between atoms: S_7  and  N_25
    6  A    between atoms: S_7  and  C_51
    7  A    between atoms: C_8  and  C_19
    8  A    between atoms: C_8  and  C_60
    9  A    between atoms: O_9  and  O_26
   10  A    between atoms: O_9  and  C_31
   11  A    between atoms: C_14  and  C_19
   12  A    between atoms: C_15  and  C_20
   13  A    between atoms: C_17  and  O_41
   14  A    between atoms: C_21  and  C_51
   15  A    between atoms: C_24  and  C_45
   16  A    between atoms: N_32  and  C_37
   17  A    between atoms: C_36  and  C_51
   18  A    between atoms: C_37  and  C_38
   19  A    between atoms: C_38  and  C_43
   20  A    between atoms: C_39  and  O_54
   21  A    between atoms: C_40  and  O_61
   22  A    between atoms: O_41  and  C_56
   23  A    between atoms: C_46  and  C_64
   24  A    between atoms: C_59  and  O_61
                            x       y       z     vdW  Elec       q    Type
                         _______ _______ _______ _____ _____    ______ ____

>  <TORSDO>
F 24

$$$$
=
 OpenBabel11072409203D

 64 70  0  0  1  0  0  0  0  0999 V2000
  194.8830  171.8430  142.0590 C   0  0  2  0  0  0  0  0  0  0  0  0
  196.0680  172.9770  140.0530 C   0  0  1  0  0  3  0  0  0  0  0  0
  195.4680  172.5520  144.0610 C   0  0  1  0  0  3  0  0  0  0  0  0
  194.8250  173.8750  140.1580 C   0  0  2  0  0  3  0  0  0  0  0  0
  195.5170  171.1520  144.2010 O   0  0  0  0  0  0  0  0  0  0  0  0
  193.6890  171.7460  141.0720 C   0  0  1  0  0  3  0  0  0  0  0  0
  194.7000  172.9090  142.9370 O   0  0  0  0  0  0  0  0  0  0  0  0
  193.5320  173.0270  140.2270 C   0  0  1  0  0  3  0  0  0  0  0  0
  196.1980  172.0530  141.2710 C   0  0  0  0  0  2  0  0  0  0  0  0
  195.0550  170.6440  142.9800 C   0  0  1  0  0  3  0  0  0  0  0  0
  192.7860  170.4830  144.1240 C   0  0  0  0  0  1  0  0  0  0  0  0
  193.7900  169.8000  143.2050 C   0  0  0  0  0  3  0  0  0  0  0  0
  194.1590  168.4410  143.7670 C   0  0  0  0  0  1  0  0  0  0  0  0
  194.7760  174.8530  139.0230 C   0  0  0  0  0  3  0  0  0  0  0  0
  193.8700  174.7260  138.0550 C   0  0  0  0  0  2  0  0  0  0  0  0
  193.8580  170.6560  140.2080 O   0  0  0  0  0  0  0  0  0  0  0  0
  192.7570  169.9430  140.3320 O   0  0  0  0  0  0  0  0  0  0  0  0
  193.0060  168.7730  139.6090 C   0  0  0  0  0  1  0  0  0  0  0  0
  196.0120  172.1840  138.8720 O   0  0  0  0  0  0  0  0  0  0  0  0
  197.5050  170.1890  138.8070 C   0  0  0  0  0  1  0  0  0  0  0  0
  197.8740  172.1440  137.5020 O   0  0  0  0  0  0  0  0  0  0  0  0
  197.1450  171.5590  138.3500 C   0  0  0  0  0  0  0  0  0  0  0  0
  194.9020  173.1910  145.3160 C   0  0  0  0  0  2  0  0  0  0  0  0
  195.7480  174.4010  145.6820 C   0  0  1  0  0  3  0  0  0  0  0  0
  196.7340  174.6720  144.6500 N   0  0  0  0  0  0  0  0  0  0  0  0
  196.5070  175.5420  143.7180 C   0  0  0  0  0  3  0  0  0  0  0  0
  197.1020  176.4970  141.5230 C   0  0  0  0  0  1  0  0  0  0  0  0
  197.4440  175.7960  142.7150 O   0  0  0  0  0  0  0  0  0  0  0  0
  194.8800  175.6310  145.9480 C   0  0  0  0  0  2  0  0  0  0  0  0
  193.5170  175.2860  146.5390 C   0  0  0  0  0  2  0  0  0  0  0  0
  191.4350  176.1870  146.0070 C   0  0  2  0  0  3  0  0  0  0  0  0
  191.5310  176.1120  147.4790 C   0  0  1  0  0  3  0  0  0  0  0  0
  192.7080  176.4810  146.6810 N   0  0  0  0  0  0  0  0  0  0  0  0
  191.0370  177.3370  148.2390 C   0  0  0  0  0  1  0  0  0  0  0  0
  190.8410  177.4780  145.4450 C   0  0  0  0  0  2  0  0  0  0  0  0
  189.9060  177.2140  144.2550 C   0  0  2  0  0  3  0  0  0  0  0  0
  189.9500  178.2480  143.3290 F   0  0  0  0  0  0  0  0  0  0  0  0
  187.9750  177.5570  145.8880 C   0  0  1  0  0  3  0  0  0  0  0  0
  188.3600  175.4700  145.2240 C   0  0  0  0  0  2  0  0  0  0  0  0
  187.7970  176.0340  146.8620 S   0  0  0  0  0  0  0  0  0  0  0  0
  188.4550  176.8590  144.6210 C   0  0  2  0  0  3  0  0  0  0  0  0
  185.7930  178.1100  146.6580 O   0  0  0  0  0  0  0  0  0  0  0  0
  186.2540  178.7980  144.4770 N   0  0  0  0  0  2  0  0  0  0  0  0
  186.6330  178.2070  145.7250 C   0  0  0  0  0  0  0  0  0  0  0  0
  184.5620  179.1260  144.0750 S   0  0  0  0  0  0  0  0  0  0  0  0
  184.5980  178.0350  142.6150 C   0  0  1  0  0  3  0  0  0  0  0  0
  181.0370  178.3950  140.5360 C   0  0  0  0  0  1  0  0  0  0  0  0
  183.3270  178.1480  141.8890 C   0  0  0  0  0  0  0  0  0  0  0  0
  182.2880  178.2500  141.2790 C   0  0  0  0  0  0  0  0  0  0  0  0
  185.7400  178.4460  141.6980 C   0  0  0  0  0  2  0  0  0  0  0  0
  185.5910  177.7730  140.3510 C   0  0  0  0  0  1  0  0  0  0  0  0
  192.4510  173.7830  140.7040 O   0  0  0  0  0  0  0  0  0  0  0  0
  190.7450  170.9700  137.5800 N   0  0  0  0  0  2  0  0  0  0  0  0
  190.0350  173.8240  140.6970 C   0  0  0  0  0  2  0  0  0  0  0  0
  189.2560  172.3940  137.7630 C   0  0  2  0  0  0  0  0  0  0  0  0
  189.6680  171.4010  136.7850 N   0  0  0  0  0  2  0  0  0  0  0  0
  190.4080  171.8990  138.6410 C   0  0  2  0  0  0  0  0  0  0  0  0
  191.3310  172.9300  138.8980 O   0  0  0  0  0  0  0  0  0  0  0  0
  188.7730  173.0870  140.2040 C   0  0  0  0  0  2  0  0  0  0  0  0
  191.3090  173.0890  140.2880 C   0  0  1  0  0  3  0  0  0  0  0  0
  188.9890  171.9350  139.1920 C   0  0  1  0  0  3  0  0  0  0  0  0
  190.2880  174.1970  136.5520 O   0  0  0  0  0  0  0  0  0  0  0  0
  188.4190  174.7650  137.7530 O   0  0  0  0  0  1  0  0  0  0  0  0
  189.3680  173.8360  137.3360 C   0  0  0  0  0  0  0  0  0  0  0  0
  1  9  1  6  0  0  0
  1  7  1  0  0  0  0
  1 10  1  0  0  0  0
  2 19  1  6  0  0  0
  2  4  1  0  0  0  0
  2  9  1  0  0  0  0
  3  5  1  0  0  0  0
  3 23  1  1  0  0  0
  4 14  1  6  0  0  0
  4  8  1  0  0  0  0
  6 16  1  6  0  0  0
  6  1  1  0  0  0  0
  7  3  1  0  0  0  0
  8 52  1  1  0  0  0
  8  6  1  0  0  0  0
 10 12  1  1  0  0  0
 10  5  1  0  0  0  0
 12 13  1  0  0  0  0
 12 11  1  0  0  0  0
 15 14  2  0  0  0  0
 16 17  1  0  0  0  0
 18 17  1  0  0  0  0
 21 22  2  0  0  0  0
 22 20  1  0  0  0  0
 22 19  1  0  0  0  0
 24 23  1  6  0  0  0
 24 29  1  0  0  0  0
 25 24  1  0  0  0  0
 26 25  2  0  0  0  0
 27 28  1  0  0  0  0
 28 26  1  0  0  0  0
 29 30  1  0  0  0  0
 30 33  1  0  0  0  0
 31 35  1  1  0  0  0
 31 33  1  0  0  0  0
 31 32  1  0  0  0  0
 32 34  1  1  0  0  0
 33 32  1  0  0  0  0
 36 37  1  6  0  0  0
 36 35  1  0  0  0  0
 38 44  1  6  0  0  0
 38 40  1  0  0  0  0
 39 40  1  0  0  0  0
 41 36  1  1  0  0  0
 41 39  1  0  0  0  0
 41 38  1  0  0  0  0
 43 44  1  0  0  0  0
 44 42  2  0  0  0  0
 45 43  1  0  0  0  0
 46 50  1  6  0  0  0
 46 45  1  0  0  0  0
 47 49  1  0  0  0  0
 48 46  1  0  0  0  0
 49 48  3  0  0  0  0
 51 50  1  0  0  0  0
 55 64  1  6  0  0  0
 55 57  1  0  0  0  0
 55 61  1  0  0  0  0
 56 53  1  0  0  0  0
 56 55  1  0  0  0  0
 57 53  1  6  0  0  0
 57 58  1  0  0  0  0
 57 61  1  0  0  0  0
 58 60  1  0  0  0  0
 59 54  1  0  0  0  0
 60 54  1  0  0  0  0
 60 52  1  6  0  0  0
 61 59  1  1  0  0  0
 62 64  2  0  0  0  0
 64 63  1  0  0  0  0
M  END
>  <MODEL>
4

>  <REMARK>
 VINA RESULT:      -4.9      2.494      6.296
  Name = 
  24 active torsions:
  status: ('A' for Active; 'I' for Inactive)
    1  A    between atoms: C_1  and  C_42
    2  A    between atoms: N_2  and  C_43
    3  A    between atoms: C_5  and  C_18
    4  A    between atoms: C_5  and  C_43
    5  A    between atoms: S_7  and  N_25
    6  A    between atoms: S_7  and  C_51
    7  A    between atoms: C_8  and  C_19
    8  A    between atoms: C_8  and  C_60
    9  A    between atoms: O_9  and  O_26
   10  A    between atoms: O_9  and  C_31
   11  A    between atoms: C_14  and  C_19
   12  A    between atoms: C_15  and  C_20
   13  A    between atoms: C_17  and  O_41
   14  A    between atoms: C_21  and  C_51
   15  A    between atoms: C_24  and  C_45
   16  A    between atoms: N_32  and  C_37
   17  A    between atoms: C_36  and  C_51
   18  A    between atoms: C_37  and  C_38
   19  A    between atoms: C_38  and  C_43
   20  A    between atoms: C_39  and  O_54
   21  A    between atoms: C_40  and  O_61
   22  A    between atoms: O_41  and  C_56
   23  A    between atoms: C_46  and  C_64
   24  A    between atoms: C_59  and  O_61
                            x       y       z     vdW  Elec       q    Type
                         _______ _______ _______ _____ _____    ______ ____

>  <TORSDO>
F 24

$$$$
=
 OpenBabel11072409203D

 64 70  0  0  1  0  0  0  0  0999 V2000
  193.9300  171.2240  143.7390 C   0  0  2  0  0  0  0  0  0  0  0  0
  196.1290  171.5330  145.0740 C   0  0  1  0  0  3  0  0  0  0  0  0
  192.2200  172.4560  144.3830 C   0  0  1  0  0  3  0  0  0  0  0  0
  196.3680  172.5510  143.9470 C   0  0  2  0  0  3  0  0  0  0  0  0
  191.6510  171.1730  144.2620 O   0  0  0  0  0  0  0  0  0  0  0  0
  194.8940  170.9570  142.5530 C   0  0  1  0  0  3  0  0  0  0  0  0
  193.4350  172.5260  143.6760 O   0  0  0  0  0  0  0  0  0  0  0  0
  196.1010  171.9170  142.5610 C   0  0  1  0  0  3  0  0  0  0  0  0
  194.6800  171.0300  145.0780 C   0  0  0  0  0  2  0  0  0  0  0  0
  192.6760  170.3630  143.7550 C   0  0  1  0  0  3  0  0  0  0  0  0
  190.9160  170.3090  141.9150 C   0  0  0  0  0  1  0  0  0  0  0  0
  192.2610  169.7780  142.3950 C   0  0  0  0  0  3  0  0  0  0  0  0
  192.2220  168.2640  142.4640 C   0  0  0  0  0  1  0  0  0  0  0  0
  197.7500  173.1240  144.0290 C   0  0  0  0  0  3  0  0  0  0  0  0
  197.9400  174.4440  144.0270 C   0  0  0  0  0  2  0  0  0  0  0  0
  195.3690  169.6400  142.5980 O   0  0  0  0  0  0  0  0  0  0  0  0
  196.4950  169.6530  141.9130 O   0  0  0  0  0  0  0  0  0  0  0  0
  196.4430  168.5060  141.1170 C   0  0  0  0  0  1  0  0  0  0  0  0
  197.0080  170.4220  144.9350 O   0  0  0  0  0  0  0  0  0  0  0  0
  196.7060  169.5870  147.2640 C   0  0  0  0  0  1  0  0  0  0  0  0
  197.1860  168.1680  145.4170 O   0  0  0  0  0  0  0  0  0  0  0  0
  196.9770  169.3440  145.8220 C   0  0  0  0  0  0  0  0  0  0  0  0
  191.2540  173.5140  143.8840 C   0  0  0  0  0  2  0  0  0  0  0  0
  191.6940  174.8740  144.4070 C   0  0  1  0  0  3  0  0  0  0  0  0
  192.8050  175.3910  143.6280 N   0  0  0  0  0  0  0  0  0  0  0  0
  192.6070  176.0130  142.5100 C   0  0  0  0  0  3  0  0  0  0  0  0
  195.0270  176.2110  142.0760 C   0  0  0  0  0  1  0  0  0  0  0  0
  193.6720  176.5000  141.7490 O   0  0  0  0  0  0  0  0  0  0  0  0
  190.5310  175.8660  144.4320 C   0  0  0  0  0  2  0  0  0  0  0  0
  190.6480  176.9000  145.5460 C   0  0  0  0  0  2  0  0  0  0  0  0
  188.4450  176.6100  146.2470 C   0  0  2  0  0  3  0  0  0  0  0  0
  189.1130  175.2930  146.3030 C   0  0  1  0  0  3  0  0  0  0  0  0
  189.8440  176.5090  146.6880 N   0  0  0  0  0  0  0  0  0  0  0  0
  188.8350  174.4610  147.5490 C   0  0  0  0  0  1  0  0  0  0  0  0
  187.5540  176.9540  147.4410 C   0  0  0  0  0  2  0  0  0  0  0  0
  186.4570  177.9630  147.0700 C   0  0  2  0  0  3  0  0  0  0  0  0
  185.7270  178.3590  148.1830 F   0  0  0  0  0  0  0  0  0  0  0  0
  185.7230  178.3660  144.6590 C   0  0  1  0  0  3  0  0  0  0  0  0
  184.1080  178.0220  146.1490 C   0  0  0  0  0  2  0  0  0  0  0  0
  184.0750  179.1300  144.7030 S   0  0  0  0  0  0  0  0  0  0  0  0
  185.5270  177.5360  145.9220 C   0  0  2  0  0  3  0  0  0  0  0  0
  185.8500  176.2740  143.5350 O   0  0  0  0  0  0  0  0  0  0  0  0
  186.1270  178.1330  142.1540 N   0  0  0  0  0  2  0  0  0  0  0  0
  185.8530  177.5270  143.4220 C   0  0  0  0  0  0  0  0  0  0  0  0
  186.7670  177.2010  140.7930 S   0  0  0  0  0  0  0  0  0  0  0  0
  187.9630  176.3100  141.8410 C   0  0  1  0  0  3  0  0  0  0  0  0
  189.0030  172.7640  139.9770 C   0  0  0  0  0  1  0  0  0  0  0  0
  188.3510  175.0560  141.1820 C   0  0  0  0  0  0  0  0  0  0  0  0
  188.6560  174.0230  140.6340 C   0  0  0  0  0  0  0  0  0  0  0  0
  189.1990  177.1710  142.0500 C   0  0  0  0  0  2  0  0  0  0  0  0
  188.9230  178.5910  141.6080 C   0  0  0  0  0  1  0  0  0  0  0  0
  195.9350  172.9000  141.5730 O   0  0  0  0  0  0  0  0  0  0  0  0
  195.9080  170.2120  137.9200 N   0  0  0  0  0  2  0  0  0  0  0  0
  193.8950  173.1490  140.3030 C   0  0  0  0  0  2  0  0  0  0  0  0
  194.6630  171.7610  137.3460 C   0  0  2  0  0  0  0  0  0  0  0  0
  195.4470  170.7250  136.6940 N   0  0  0  0  0  2  0  0  0  0  0  0
  195.1390  171.1780  138.6800 C   0  0  2  0  0  0  0  0  0  0  0  0
  195.8670  172.1270  139.4190 O   0  0  0  0  0  0  0  0  0  0  0  0
  193.0270  172.5190  139.1960 C   0  0  0  0  0  2  0  0  0  0  0  0
  195.1310  172.3030  140.5960 C   0  0  1  0  0  3  0  0  0  0  0  0
  193.6490  171.3420  138.4060 C   0  0  1  0  0  3  0  0  0  0  0  0
  196.3130  173.4510  136.8960 O   0  0  0  0  0  0  0  0  0  0  0  0
  194.1480  174.1990  137.0130 O   0  0  0  0  0  1  0  0  0  0  0  0
  195.0960  173.1830  137.0940 C   0  0  0  0  0  0  0  0  0  0  0  0
  1 10  1  0  0  0  0
  1  9  1  1  0  0  0
  2 19  1  6  0  0  0
  2  9  1  0  0  0  0
  3 23  1  6  0  0  0
  4 14  1  6  0  0  0
  4  2  1  0  0  0  0
  5  3  1  0  0  0  0
  6  8  1  0  0  0  0
  6 16  1  1  0  0  0
  6  1  1  0  0  0  0
  7  1  1  0  0  0  0
  7  3  1  0  0  0  0
  8 52  1  6  0  0  0
  8  4  1  0  0  0  0
 10 12  1  6  0  0  0
 10  5  1  0  0  0  0
 11 12  1  0  0  0  0
 12 13  1  0  0  0  0
 15 14  2  0  0  0  0
 17 16  1  0  0  0  0
 18 17  1  0  0  0  0
 19 22  1  0  0  0  0
 21 22  2  0  0  0  0
 22 20  1  0  0  0  0
 24 23  1  6  0  0  0
 24 29  1  0  0  0  0
 25 24  1  0  0  0  0
 26 25  2  0  0  0  0
 28 27  1  0  0  0  0
 28 26  1  0  0  0  0
 29 30  1  0  0  0  0
 30 33  1  0  0  0  0
 31 32  1  0  0  0  0
 31 33  1  0  0  0  0
 31 35  1  1  0  0  0
 32 33  1  0  0  0  0
 32 34  1  1  0  0  0
 36 35  1  0  0  0  0
 36 37  1  1  0  0  0
 38 44  1  6  0  0  0
 38 40  1  0  0  0  0
 38 41  1  0  0  0  0
 40 39  1  0  0  0  0
 41 39  1  0  0  0  0
 41 36  1  1  0  0  0
 43 44  1  0  0  0  0
 44 42  2  0  0  0  0
 45 46  1  0  0  0  0
 45 43  1  0  0  0  0
 46 48  1  6  0  0  0
 46 50  1  0  0  0  0
 47 49  1  0  0  0  0
 49 48  3  0  0  0  0
 51 50  1  0  0  0  0
 54 60  1  0  0  0  0
 55 64  1  6  0  0  0
 55 61  1  0  0  0  0
 55 57  1  0  0  0  0
 56 55  1  0  0  0  0
 56 53  1  0  0  0  0
 57 53  1  6  0  0  0
 57 58  1  0  0  0  0
 58 60  1  0  0  0  0
 59 54  1  0  0  0  0
 60 52  1  1  0  0  0
 61 57  1  0  0  0  0
 61 59  1  1  0  0  0
 62 64  2  0  0  0  0
 63 64  1  0  0  0  0
M  END
>  <MODEL>
5

>  <REMARK>
 VINA RESULT:      -4.7      2.392      4.049
  Name = 
  24 active torsions:
  status: ('A' for Active; 'I' for Inactive)
    1  A    between atoms: C_1  and  C_42
    2  A    between atoms: N_2  and  C_43
    3  A    between atoms: C_5  and  C_18
    4  A    between atoms: C_5  and  C_43
    5  A    between atoms: S_7  and  N_25
    6  A    between atoms: S_7  and  C_51
    7  A    between atoms: C_8  and  C_19
    8  A    between atoms: C_8  and  C_60
    9  A    between atoms: O_9  and  O_26
   10  A    between atoms: O_9  and  C_31
   11  A    between atoms: C_14  and  C_19
   12  A    between atoms: C_15  and  C_20
   13  A    between atoms: C_17  and  O_41
   14  A    between atoms: C_21  and  C_51
   15  A    between atoms: C_24  and  C_45
   16  A    between atoms: N_32  and  C_37
   17  A    between atoms: C_36  and  C_51
   18  A    between atoms: C_37  and  C_38
   19  A    between atoms: C_38  and  C_43
   20  A    between atoms: C_39  and  O_54
   21  A    between atoms: C_40  and  O_61
   22  A    between atoms: O_41  and  C_56
   23  A    between atoms: C_46  and  C_64
   24  A    between atoms: C_59  and  O_61
                            x       y       z     vdW  Elec       q    Type
                         _______ _______ _______ _____ _____    ______ ____

>  <TORSDO>
F 24

$$$$
=
 OpenBabel11072409203D

 64 70  0  0  1  0  0  0  0  0999 V2000
  191.6740  175.5980  144.4330 C   0  0  2  0  0  0  0  0  0  0  0  0
  194.0040  175.9520  143.3570 C   0  0  1  0  0  3  0  0  0  0  0  0
  190.4100  177.3920  144.6300 C   0  0  1  0  0  3  0  0  0  0  0  0
  193.1940  175.5870  142.1020 C   0  0  2  0  0  3  0  0  0  0  0  0
  190.3120  176.8020  145.9050 O   0  0  0  0  0  0  0  0  0  0  0  0
  191.7640  174.2080  143.7490 C   0  0  1  0  0  3  0  0  0  0  0  0
  190.8670  176.4540  143.6860 O   0  0  0  0  0  0  0  0  0  0  0  0
  192.3660  174.3000  142.3320 C   0  0  1  0  0  3  0  0  0  0  0  0
  193.0880  176.2120  144.5600 C   0  0  0  0  0  2  0  0  0  0  0  0
  191.0200  175.5960  145.8070 C   0  0  1  0  0  3  0  0  0  0  0  0
  189.3300  173.9510  144.8480 C   0  0  0  0  0  1  0  0  0  0  0  0
  190.0820  174.4110  146.0900 C   0  0  0  0  0  3  0  0  0  0  0  0
  189.0970  174.7710  147.1840 C   0  0  0  0  0  1  0  0  0  0  0  0
  194.0910  175.4540  140.9090 C   0  0  0  0  0  3  0  0  0  0  0  0
  195.2850  176.0470  140.8870 C   0  0  0  0  0  2  0  0  0  0  0  0
  192.5500  173.3380  144.5150 O   0  0  0  0  0  0  0  0  0  0  0  0
  192.1140  172.1290  144.2200 O   0  0  0  0  0  0  0  0  0  0  0  0
  193.2700  171.3810  143.9780 C   0  0  0  0  0  1  0  0  0  0  0  0
  194.9160  174.9090  143.6830 O   0  0  0  0  0  0  0  0  0  0  0  0
  196.7120  174.6130  145.3850 C   0  0  0  0  0  1  0  0  0  0  0  0
  196.9880  175.8920  143.3980 O   0  0  0  0  0  0  0  0  0  0  0  0
  196.2220  175.1750  144.0970 C   0  0  0  0  0  0  0  0  0  0  0  0
  189.0700  177.9630  144.2060 C   0  0  0  0  0  2  0  0  0  0  0  0
  187.9590  177.0670  144.7330 C   0  0  1  0  0  3  0  0  0  0  0  0
  187.2180  177.7330  145.7890 N   0  0  0  0  0  0  0  0  0  0  0  0
  186.7000  177.0640  146.7700 C   0  0  0  0  0  3  0  0  0  0  0  0
  185.2470  178.8990  147.5480 C   0  0  0  0  0  1  0  0  0  0  0  0
  185.9740  177.6970  147.7800 O   0  0  0  0  0  0  0  0  0  0  0  0
  187.0270  176.6130  143.6090 C   0  0  0  0  0  2  0  0  0  0  0  0
  186.1410  177.7350  143.0750 C   0  0  0  0  0  2  0  0  0  0  0  0
  184.3970  178.3270  141.6490 C   0  0  2  0  0  3  0  0  0  0  0  0
  185.6360  178.2720  140.8470 C   0  0  1  0  0  3  0  0  0  0  0  0
  185.4020  177.2860  141.9120 N   0  0  0  0  0  0  0  0  0  0  0  0
  185.5190  177.5830  139.4930 C   0  0  0  0  0  1  0  0  0  0  0  0
  183.1610  177.6980  141.0060 C   0  0  0  0  0  2  0  0  0  0  0  0
  181.9000  178.5470  141.2250 C   0  0  2  0  0  3  0  0  0  0  0  0
  181.8760  179.1140  142.4920 F   0  0  0  0  0  0  0  0  0  0  0  0
  179.6850  178.6470  139.9600 C   0  0  1  0  0  3  0  0  0  0  0  0
  179.5980  177.9480  142.0700 C   0  0  0  0  0  2  0  0  0  0  0  0
  178.3680  178.9510  141.1750 S   0  0  0  0  0  0  0  0  0  0  0  0
  180.5680  177.8450  140.9080 C   0  0  2  0  0  3  0  0  0  0  0  0
  177.9380  177.9700  138.4950 O   0  0  0  0  0  0  0  0  0  0  0  0
  179.9330  176.7890  138.2350 N   0  0  0  0  0  2  0  0  0  0  0  0
  179.1430  177.8250  138.8290 C   0  0  0  0  0  0  0  0  0  0  0  0
  179.2040  175.4970  137.2700 S   0  0  0  0  0  0  0  0  0  0  0  0
  180.6750  174.4310  137.4100 C   0  0  1  0  0  3  0  0  0  0  0  0
  179.5490  170.6070  138.5250 C   0  0  0  0  0  1  0  0  0  0  0  0
  180.2640  173.0820  137.8190 C   0  0  0  0  0  0  0  0  0  0  0  0
  179.9380  171.9660  138.1490 C   0  0  0  0  0  0  0  0  0  0  0  0
  181.3800  174.3540  136.0640 C   0  0  0  0  0  2  0  0  0  0  0  0
  180.3690  174.4490  134.9420 C   0  0  0  0  0  1  0  0  0  0  0  0
  191.3510  174.1680  141.3720 O   0  0  0  0  0  0  0  0  0  0  0  0
  193.2540  173.9640  137.2600 N   0  0  0  0  0  2  0  0  0  0  0  0
  191.2200  171.9420  140.4430 C   0  0  0  0  0  2  0  0  0  0  0  0
  191.8630  172.4350  137.1870 C   0  0  2  0  0  0  0  0  0  0  0  0
  192.6030  173.2490  136.2380 N   0  0  0  0  0  2  0  0  0  0  0  0
  192.5990  173.1900  138.2970 C   0  0  2  0  0  0  0  0  0  0  0  0
  191.6970  173.8800  139.1280 O   0  0  0  0  0  0  0  0  0  0  0  0
  191.7670  171.0120  139.3410 C   0  0  0  0  0  2  0  0  0  0  0  0
  191.8800  173.3170  140.3960 C   0  0  1  0  0  3  0  0  0  0  0  0
  192.6450  171.6690  138.2480 C   0  0  1  0  0  3  0  0  0  0  0  0
  189.8630  173.7620  137.0460 O   0  0  0  0  0  0  0  0  0  0  0  0
  189.5290  171.5070  137.2980 O   0  0  0  0  0  1  0  0  0  0  0  0
  190.3650  172.6140  137.1940 C   0  0  0  0  0  0  0  0  0  0  0  0
  1  9  1  1  0  0  0
  1 10  1  0  0  0  0
  2 19  1  1  0  0  0
  2  9  1  0  0  0  0
  3 23  1  6  0  0  0
  3  5  1  0  0  0  0
  4 14  1  6  0  0  0
  4  8  1  0  0  0  0
  4  2  1  0  0  0  0
  6  1  1  0  0  0  0
  6 16  1  1  0  0  0
  7  1  1  0  0  0  0
  7  3  1  0  0  0  0
  8 52  1  6  0  0  0
  8  6  1  0  0  0  0
 10  5  1  0  0  0  0
 10 12  1  6  0  0  0
 11 12  1  0  0  0  0
 12 13  1  0  0  0  0
 15 14  2  0  0  0  0
 17 16  1  0  0  0  0
 18 17  1  0  0  0  0
 19 22  1  0  0  0  0
 21 22  2  0  0  0  0
 22 20  1  0  0  0  0
 23 24  1  0  0  0  0
 24 29  1  6  0  0  0
 24 25  1  0  0  0  0
 25 26  2  0  0  0  0
 26 28  1  0  0  0  0
 27 28  1  0  0  0  0
 30 29  1  0  0  0  0
 31 35  1  6  0  0  0
 31 33  1  0  0  0  0
 32 34  1  6  0  0  0
 32 31  1  0  0  0  0
 32 33  1  0  0  0  0
 33 30  1  0  0  0  0
 35 36  1  0  0  0  0
 36 37  1  1  0  0  0
 38 44  1  6  0  0  0
 38 41  1  0  0  0  0
 38 40  1  0  0  0  0
 40 39  1  0  0  0  0
 41 36  1  1  0  0  0
 41 39  1  0  0  0  0
 42 44  2  0  0  0  0
 43 44  1  0  0  0  0
 45 46  1  0  0  0  0
 45 43  1  0  0  0  0
 46 50  1  6  0  0  0
 46 48  1  0  0  0  0
 48 49  3  0  0  0  0
 49 47  1  0  0  0  0
 51 50  1  0  0  0  0
 55 64  1  6  0  0  0
 55 61  1  0  0  0  0
 55 57  1  0  0  0  0
 56 55  1  0  0  0  0
 56 53  1  0  0  0  0
 57 53  1  6  0  0  0
 57 58  1  0  0  0  0
 58 60  1  0  0  0  0
 59 54  1  0  0  0  0
 60 54  1  0  0  0  0
 60 52  1  1  0  0  0
 61 57  1  0  0  0  0
 61 59  1  1  0  0  0
 62 64  2  0  0  0  0
 64 63  1  0  0  0  0
M  END
>  <MODEL>
6

>  <REMARK>
 VINA RESULT:      -4.6      4.449      7.542
  Name = 
  24 active torsions:
  status: ('A' for Active; 'I' for Inactive)
    1  A    between atoms: C_1  and  C_42
    2  A    between atoms: N_2  and  C_43
    3  A    between atoms: C_5  and  C_18
    4  A    between atoms: C_5  and  C_43
    5  A    between atoms: S_7  and  N_25
    6  A    between atoms: S_7  and  C_51
    7  A    between atoms: C_8  and  C_19
    8  A    between atoms: C_8  and  C_60
    9  A    between atoms: O_9  and  O_26
   10  A    between atoms: O_9  and  C_31
   11  A    between atoms: C_14  and  C_19
   12  A    between atoms: C_15  and  C_20
   13  A    between atoms: C_17  and  O_41
   14  A    between atoms: C_21  and  C_51
   15  A    between atoms: C_24  and  C_45
   16  A    between atoms: N_32  and  C_37
   17  A    between atoms: C_36  and  C_51
   18  A    between atoms: C_37  and  C_38
   19  A    between atoms: C_38  and  C_43
   20  A    between atoms: C_39  and  O_54
   21  A    between atoms: C_40  and  O_61
   22  A    between atoms: O_41  and  C_56
   23  A    between atoms: C_46  and  C_64
   24  A    between atoms: C_59  and  O_61
                            x       y       z     vdW  Elec       q    Type
                         _______ _______ _______ _____ _____    ______ ____

>  <TORSDO>
F 24

$$$$
=
 OpenBabel11072409203D

 64 70  0  0  1  0  0  0  0  0999 V2000
  193.7960  172.4260  142.5730 C   0  0  2  0  0  0  0  0  0  0  0  0
  196.3700  172.6800  142.7400 C   0  0  1  0  0  3  0  0  0  0  0  0
  192.6050  173.6650  143.9510 C   0  0  1  0  0  3  0  0  0  0  0  0
  196.0800  173.7180  141.6440 C   0  0  2  0  0  3  0  0  0  0  0  0
  192.0180  172.3930  144.0920 O   0  0  0  0  0  0  0  0  0  0  0  0
  194.0960  172.1720  141.0720 C   0  0  1  0  0  3  0  0  0  0  0  0
  193.3550  173.7340  142.7630 O   0  0  0  0  0  0  0  0  0  0  0  0
  195.1890  173.1170  140.5320 C   0  0  1  0  0  3  0  0  0  0  0  0
  195.0770  172.1940  143.4090 C   0  0  0  0  0  2  0  0  0  0  0  0
  192.6750  171.5800  143.1570 C   0  0  1  0  0  3  0  0  0  0  0  0
  190.2330  171.4420  142.4490 C   0  0  0  0  0  1  0  0  0  0  0  0
  191.6650  171.0290  142.1370 C   0  0  0  0  0  3  0  0  0  0  0  0
  191.7610  169.5180  142.0670 C   0  0  0  0  0  1  0  0  0  0  0  0
  197.3550  174.2720  141.0840 C   0  0  0  0  0  3  0  0  0  0  0  0
  197.9410  173.6980  140.0330 C   0  0  0  0  0  2  0  0  0  0  0  0
  194.5100  170.8480  140.8750 O   0  0  0  0  0  0  0  0  0  0  0  0
  194.0910  170.5300  139.6660 O   0  0  0  0  0  0  0  0  0  0  0  0
  195.1210  169.7580  139.1220 C   0  0  0  0  0  1  0  0  0  0  0  0
  197.0610  171.5610  142.1960 O   0  0  0  0  0  0  0  0  0  0  0  0
  197.9400  170.8930  144.4300 C   0  0  0  0  0  1  0  0  0  0  0  0
  197.8920  169.4330  142.5530 O   0  0  0  0  0  0  0  0  0  0  0  0
  197.6300  170.5790  143.0090 C   0  0  0  0  0  0  0  0  0  0  0  0
  191.5410  174.7450  143.9720 C   0  0  0  0  0  2  0  0  0  0  0  0
  191.9730  175.8510  144.9230 C   0  0  1  0  0  3  0  0  0  0  0  0
  193.1950  176.4830  144.4580 N   0  0  0  0  0  0  0  0  0  0  0  0
  194.2290  176.5940  145.2300 C   0  0  0  0  0  3  0  0  0  0  0  0
  196.0900  176.7840  143.6230 C   0  0  0  0  0  1  0  0  0  0  0  0
  195.4020  177.2120  144.7930 O   0  0  0  0  0  0  0  0  0  0  0  0
  190.8630  176.8830  145.1220 C   0  0  0  0  0  2  0  0  0  0  0  0
  190.7160  177.3340  146.5720 C   0  0  0  0  0  2  0  0  0  0  0  0
  188.5400  176.5140  146.4140 C   0  0  2  0  0  3  0  0  0  0  0  0
  189.4600  175.3580  146.3960 C   0  0  1  0  0  3  0  0  0  0  0  0
  189.7410  176.5120  147.2620 N   0  0  0  0  0  0  0  0  0  0  0  0
  189.0510  174.1710  147.2590 C   0  0  0  0  0  1  0  0  0  0  0  0
  187.2950  176.3580  147.2860 C   0  0  0  0  0  2  0  0  0  0  0  0
  186.3780  177.5880  147.2080 C   0  0  2  0  0  3  0  0  0  0  0  0
  185.6460  177.7560  148.3760 F   0  0  0  0  0  0  0  0  0  0  0  0
  186.0890  178.4410  144.8200 C   0  0  1  0  0  3  0  0  0  0  0  0
  184.3340  178.6440  146.1700 C   0  0  0  0  0  2  0  0  0  0  0  0
  184.8700  179.7870  144.8570 S   0  0  0  0  0  0  0  0  0  0  0  0
  185.4680  177.6570  145.9700 C   0  0  2  0  0  3  0  0  0  0  0  0
  185.5840  176.5330  143.4910 O   0  0  0  0  0  0  0  0  0  0  0  0
  186.5200  178.3150  142.3110 N   0  0  0  0  0  2  0  0  0  0  0  0
  186.0010  177.7210  143.5070 C   0  0  0  0  0  0  0  0  0  0  0  0
  186.8880  177.3520  140.8740 S   0  0  0  0  0  0  0  0  0  0  0  0
  187.9830  176.2220  141.7940 C   0  0  1  0  0  3  0  0  0  0  0  0
  188.2840  172.5970  139.8180 C   0  0  0  0  0  1  0  0  0  0  0  0
  188.0790  174.9430  141.0780 C   0  0  0  0  0  0  0  0  0  0  0  0
  188.1630  173.8840  140.5020 C   0  0  0  0  0  0  0  0  0  0  0  0
  189.3690  176.8370  141.9120 C   0  0  0  0  0  2  0  0  0  0  0  0
  189.2640  178.3460  141.9630 C   0  0  0  0  0  1  0  0  0  0  0  0
  194.6040  174.1220  139.7460 O   0  0  0  0  0  0  0  0  0  0  0  0
  197.4990  173.1100  136.4040 N   0  0  0  0  0  2  0  0  0  0  0  0
  193.4940  174.0520  137.6020 C   0  0  0  0  0  2  0  0  0  0  0  0
  196.0390  174.1970  135.4190 C   0  0  2  0  0  0  0  0  0  0  0  0
  197.4260  173.8240  135.1940 N   0  0  0  0  0  2  0  0  0  0  0  0
  196.1110  173.3890  136.7190 C   0  0  2  0  0  0  0  0  0  0  0  0
  195.8680  174.2050  137.8390 O   0  0  0  0  0  0  0  0  0  0  0  0
  193.6320  173.5930  136.1360 C   0  0  0  0  0  2  0  0  0  0  0  0
  194.7180  173.6670  138.4280 C   0  0  1  0  0  3  0  0  0  0  0  0
  195.0270  173.0890  135.6920 C   0  0  1  0  0  3  0  0  0  0  0  0
  196.6590  176.4220  136.0860 O   0  0  0  0  0  1  0  0  0  0  0  0
  194.5530  176.2130  135.2020 O   0  0  0  0  0  0  0  0  0  0  0  0
  195.7670  175.6680  135.6100 C   0  0  0  0  0  0  0  0  0  0  0  0
  1  7  1  0  0  0  0
  1 10  1  0  0  0  0
  1  9  1  1  0  0  0
  2 19  1  6  0  0  0
  2  9  1  0  0  0  0
  3 23  1  6  0  0  0
  3  5  1  0  0  0  0
  4 14  1  6  0  0  0
  4  2  1  0  0  0  0
  6 16  1  1  0  0  0
  6  1  1  0  0  0  0
  7  3  1  0  0  0  0
  8 52  1  1  0  0  0
  8  6  1  0  0  0  0
  8  4  1  0  0  0  0
 10 12  1  6  0  0  0
 10  5  1  0  0  0  0
 12 11  1  0  0  0  0
 13 12  1  0  0  0  0
 15 14  2  0  0  0  0
 17 16  1  0  0  0  0
 18 17  1  0  0  0  0
 19 22  1  0  0  0  0
 21 22  2  0  0  0  0
 22 20  1  0  0  0  0
 24 23  1  6  0  0  0
 24 29  1  0  0  0  0
 25 24  1  0  0  0  0
 25 26  2  0  0  0  0
 27 28  1  0  0  0  0
 28 26  1  0  0  0  0
 29 30  1  0  0  0  0
 30 33  1  0  0  0  0
 31 33  1  0  0  0  0
 31 35  1  1  0  0  0
 32 31  1  0  0  0  0
 32 34  1  1  0  0  0
 32 33  1  0  0  0  0
 36 35  1  0  0  0  0
 36 37  1  1  0  0  0
 38 44  1  6  0  0  0
 38 40  1  0  0  0  0
 38 41  1  0  0  0  0
 40 39  1  0  0  0  0
 41 39  1  0  0  0  0
 41 36  1  1  0  0  0
 42 44  2  0  0  0  0
 43 44  1  0  0  0  0
 45 46  1  0  0  0  0
 45 43  1  0  0  0  0
 46 48  1  6  0  0  0
 46 50  1  0  0  0  0
 47 49  1  0  0  0  0
 49 48  3  0  0  0  0
 50 51  1  0  0  0  0
 54 60  1  0  0  0  0
 55 64  1  1  0  0  0
 55 61  1  0  0  0  0
 55 57  1  0  0  0  0
 56 55  1  0  0  0  0
 56 53  1  0  0  0  0
 57 53  1  1  0  0  0
 57 58  1  0  0  0  0
 58 60  1  0  0  0  0
 59 54  1  0  0  0  0
 60 52  1  1  0  0  0
 61 59  1  1  0  0  0
 61 57  1  0  0  0  0
 63 64  2  0  0  0  0
 64 62  1  0  0  0  0
M  END
>  <MODEL>
7

>  <REMARK>
 VINA RESULT:      -4.2      2.614      4.658
  Name = 
  24 active torsions:
  status: ('A' for Active; 'I' for Inactive)
    1  A    between atoms: C_1  and  C_42
    2  A    between atoms: N_2  and  C_43
    3  A    between atoms: C_5  and  C_18
    4  A    between atoms: C_5  and  C_43
    5  A    between atoms: S_7  and  N_25
    6  A    between atoms: S_7  and  C_51
    7  A    between atoms: C_8  and  C_19
    8  A    between atoms: C_8  and  C_60
    9  A    between atoms: O_9  and  O_26
   10  A    between atoms: O_9  and  C_31
   11  A    between atoms: C_14  and  C_19
   12  A    between atoms: C_15  and  C_20
   13  A    between atoms: C_17  and  O_41
   14  A    between atoms: C_21  and  C_51
   15  A    between atoms: C_24  and  C_45
   16  A    between atoms: N_32  and  C_37
   17  A    between atoms: C_36  and  C_51
   18  A    between atoms: C_37  and  C_38
   19  A    between atoms: C_38  and  C_43
   20  A    between atoms: C_39  and  O_54
   21  A    between atoms: C_40  and  O_61
   22  A    between atoms: O_41  and  C_56
   23  A    between atoms: C_46  and  C_64
   24  A    between atoms: C_59  and  O_61
                            x       y       z     vdW  Elec       q    Type
                         _______ _______ _______ _____ _____    ______ ____

>  <TORSDO>
F 24

$$$$
=
 OpenBabel11072409203D

 64 70  0  0  1  0  0  0  0  0999 V2000
  195.8830  171.2900  141.3240 C   0  0  2  0  0  0  0  0  0  0  0  0
  195.9500  171.7870  138.7810 C   0  0  1  0  0  3  0  0  0  0  0  0
  197.3170  172.4050  142.5700 C   0  0  1  0  0  3  0  0  0  0  0  0
  194.8750  172.7970  139.2120 C   0  0  2  0  0  3  0  0  0  0  0  0
  197.4710  171.0820  143.0280 O   0  0  0  0  0  0  0  0  0  0  0  0
  194.3700  171.0720  141.0620 C   0  0  1  0  0  3  0  0  0  0  0  0
  196.1010  172.5500  141.8790 O   0  0  0  0  0  0  0  0  0  0  0  0
  193.7940  172.1180  140.0860 C   0  0  1  0  0  3  0  0  0  0  0  0
  196.6660  171.1780  139.9940 C   0  0  0  0  0  2  0  0  0  0  0  0
  196.5050  170.3390  142.3360 C   0  0  1  0  0  3  0  0  0  0  0  0
  195.0940  170.6590  144.4310 C   0  0  0  0  0  1  0  0  0  0  0  0
  195.5220  169.6990  143.3290 C   0  0  0  0  0  3  0  0  0  0  0  0
  196.1310  168.4520  143.9400 C   0  0  0  0  0  1  0  0  0  0  0  0
  194.2680  173.4720  138.0190 C   0  0  0  0  0  3  0  0  0  0  0  0
  193.7550  174.6980  138.1200 C   0  0  0  0  0  2  0  0  0  0  0  0
  194.1460  169.7940  140.5320 O   0  0  0  0  0  0  0  0  0  0  0  0
  193.3890  169.1790  141.4190 O   0  0  0  0  0  0  0  0  0  0  0  0
  192.2440  168.8030  140.7120 C   0  0  0  0  0  1  0  0  0  0  0  0
  195.3710  170.7410  138.0100 O   0  0  0  0  0  0  0  0  0  0  0  0
  195.2310  169.2770  135.9970 C   0  0  0  0  0  1  0  0  0  0  0  0
  196.8790  170.9710  136.2730 O   0  0  0  0  0  0  0  0  0  0  0  0
  195.8760  170.3800  136.7600 C   0  0  0  0  0  0  0  0  0  0  0  0
  197.3880  173.3790  143.7310 C   0  0  0  0  0  2  0  0  0  0  0  0
  197.0700  174.7790  143.2260 C   0  0  1  0  0  3  0  0  0  0  0  0
  197.8210  175.0730  142.0180 N   0  0  0  0  0  0  0  0  0  0  0  0
  197.2270  175.4870  140.9430 C   0  0  0  0  0  3  0  0  0  0  0  0
  197.4100  175.4740  138.4840 C   0  0  0  0  0  1  0  0  0  0  0  0
  197.9410  175.7570  139.7740 O   0  0  0  0  0  0  0  0  0  0  0  0
  195.5700  174.9640  142.9990 C   0  0  0  0  0  2  0  0  0  0  0  0
  195.1060  176.4030  143.1950 C   0  0  0  0  0  2  0  0  0  0  0  0
  193.5510  175.2980  144.5320 C   0  0  2  0  0  3  0  0  0  0  0  0
  194.7930  175.4500  145.3170 C   0  0  1  0  0  3  0  0  0  0  0  0
  194.3470  176.5290  144.4240 N   0  0  0  0  0  0  0  0  0  0  0  0
  194.6120  175.8920  146.7640 C   0  0  0  0  0  1  0  0  0  0  0  0
  192.2510  175.5910  145.2810 C   0  0  0  0  0  2  0  0  0  0  0  0
  191.1270  176.0370  144.3350 C   0  0  2  0  0  3  0  0  0  0  0  0
  191.2600  177.3710  143.9730 F   0  0  0  0  0  0  0  0  0  0  0  0
  189.3490  176.4420  146.1220 C   0  0  1  0  0  3  0  0  0  0  0  0
  189.6000  174.3460  145.4220 C   0  0  0  0  0  2  0  0  0  0  0  0
  189.1940  174.9210  147.1020 S   0  0  0  0  0  0  0  0  0  0  0  0
  189.6980  175.7350  144.8180 C   0  0  2  0  0  3  0  0  0  0  0  0
  187.3910  177.3230  147.1430 O   0  0  0  0  0  0  0  0  0  0  0  0
  187.4170  177.4680  144.8150 N   0  0  0  0  0  2  0  0  0  0  0  0
  188.0240  177.1430  146.0710 C   0  0  0  0  0  0  0  0  0  0  0  0
  185.6910  177.8300  144.6790 S   0  0  0  0  0  0  0  0  0  0  0  0
  185.6970  177.6510  142.8660 C   0  0  1  0  0  3  0  0  0  0  0  0
  181.9170  178.3970  141.3560 C   0  0  0  0  0  1  0  0  0  0  0  0
  184.3550  177.9320  142.3420 C   0  0  0  0  0  0  0  0  0  0  0  0
  183.2490  178.1480  141.9040 C   0  0  0  0  0  0  0  0  0  0  0  0
  186.6890  178.6330  142.2600 C   0  0  0  0  0  2  0  0  0  0  0  0
  187.8220  177.8820  141.5940 C   0  0  0  0  0  1  0  0  0  0  0  0
  193.0400  173.0660  140.7950 O   0  0  0  0  0  0  0  0  0  0  0  0
  189.2740  171.6450  138.7030 N   0  0  0  0  0  2  0  0  0  0  0  0
  191.2080  172.8010  142.3480 C   0  0  0  0  0  2  0  0  0  0  0  0
  188.5210  172.6590  140.3430 C   0  0  2  0  0  0  0  0  0  0  0  0
  188.0400  172.2320  139.0400 N   0  0  0  0  0  2  0  0  0  0  0  0
  189.8520  171.9890  139.9880 C   0  0  2  0  0  0  0  0  0  0  0  0
  190.9050  172.9210  139.9800 O   0  0  0  0  0  0  0  0  0  0  0  0
  189.8050  172.1890  142.5340 C   0  0  0  0  0  2  0  0  0  0  0  0
  191.7840  172.4750  140.9720 C   0  0  1  0  0  3  0  0  0  0  0  0
  189.1240  171.6090  141.2710 C   0  0  1  0  0  3  0  0  0  0  0  0
  188.7610  174.9280  139.5870 O   0  0  0  0  0  0  0  0  0  0  0  0
  188.4600  174.6730  141.8460 O   0  0  0  0  0  1  0  0  0  0  0  0
  188.6090  174.1480  140.5660 C   0  0  0  0  0  0  0  0  0  0  0  0
  1  9  1  6  0  0  0
  1  7  1  0  0  0  0
  1 10  1  0  0  0  0
  2 19  1  1  0  0  0
  2  4  1  0  0  0  0
  2  9  1  0  0  0  0
  3  5  1  0  0  0  0
  3 23  1  1  0  0  0
  4 14  1  6  0  0  0
  4  8  1  0  0  0  0
  6 16  1  6  0  0  0
  6  1  1  0  0  0  0
  7  3  1  0  0  0  0
  8 52  1  1  0  0  0
  8  6  1  0  0  0  0
 10  5  1  0  0  0  0
 10 12  1  1  0  0  0
 12 13  1  0  0  0  0
 12 11  1  0  0  0  0
 14 15  2  0  0  0  0
 16 17  1  0  0  0  0
 18 17  1  0  0  0  0
 20 22  1  0  0  0  0
 21 22  2  0  0  0  0
 22 19  1  0  0  0  0
 24 29  1  6  0  0  0
 24 23  1  0  0  0  0
 25 24  1  0  0  0  0
 26 25  2  0  0  0  0
 27 28  1  0  0  0  0
 28 26  1  0  0  0  0
 29 30  1  0  0  0  0
 30 33  1  0  0  0  0
 31 35  1  1  0  0  0
 31 32  1  0  0  0  0
 32 34  1  1  0  0  0
 33 31  1  0  0  0  0
 33 32  1  0  0  0  0
 36 37  1  1  0  0  0
 36 35  1  0  0  0  0
 38 44  1  6  0  0  0
 38 40  1  0  0  0  0
 39 40  1  0  0  0  0
 41 36  1  1  0  0  0
 41 39  1  0  0  0  0
 41 38  1  0  0  0  0
 43 44  1  0  0  0  0
 44 42  2  0  0  0  0
 45 43  1  0  0  0  0
 46 50  1  6  0  0  0
 46 45  1  0  0  0  0
 47 49  1  0  0  0  0
 48 46  1  0  0  0  0
 49 48  3  0  0  0  0
 51 50  1  0  0  0  0
 53 56  1  0  0  0  0
 54 59  1  0  0  0  0
 55 64  1  1  0  0  0
 55 61  1  0  0  0  0
 56 55  1  0  0  0  0
 57 53  1  6  0  0  0
 57 55  1  0  0  0  0
 57 61  1  0  0  0  0
 58 57  1  0  0  0  0
 58 60  1  0  0  0  0
 60 52  1  6  0  0  0
 60 54  1  0  0  0  0
 61 59  1  1  0  0  0
 62 64  2  0  0  0  0
 64 63  1  0  0  0  0
M  END
>  <MODEL>
8

>  <REMARK>
 VINA RESULT:      -4.2      2.503      6.752
  Name = 
  24 active torsions:
  status: ('A' for Active; 'I' for Inactive)
    1  A    between atoms: C_1  and  C_42
    2  A    between atoms: N_2  and  C_43
    3  A    between atoms: C_5  and  C_18
    4  A    between atoms: C_5  and  C_43
    5  A    between atoms: S_7  and  N_25
    6  A    between atoms: S_7  and  C_51
    7  A    between atoms: C_8  and  C_19
    8  A    between atoms: C_8  and  C_60
    9  A    between atoms: O_9  and  O_26
   10  A    between atoms: O_9  and  C_31
   11  A    between atoms: C_14  and  C_19
   12  A    between atoms: C_15  and  C_20
   13  A    between atoms: C_17  and  O_41
   14  A    between atoms: C_21  and  C_51
   15  A    between atoms: C_24  and  C_45
   16  A    between atoms: N_32  and  C_37
   17  A    between atoms: C_36  and  C_51
   18  A    between atoms: C_37  and  C_38
   19  A    between atoms: C_38  and  C_43
   20  A    between atoms: C_39  and  O_54
   21  A    between atoms: C_40  and  O_61
   22  A    between atoms: O_41  and  C_56
   23  A    between atoms: C_46  and  C_64
   24  A    between atoms: C_59  and  O_61
                            x       y       z     vdW  Elec       q    Type
                         _______ _______ _______ _____ _____    ______ ____

>  <TORSDO>
F 24

$$$$
=
 OpenBabel11072409203D

 64 70  0  0  1  0  0  0  0  0999 V2000
  189.6460  176.8190  143.7420 C   0  0  2  0  0  0  0  0  0  0  0  0
  192.2270  176.8620  143.9680 C   0  0  1  0  0  3  0  0  0  0  0  0
  188.7850  178.1110  142.1780 C   0  0  1  0  0  3  0  0  0  0  0  0
  192.0740  175.6800  142.9980 C   0  0  2  0  0  3  0  0  0  0  0  0
  187.9810  178.4010  143.2980 O   0  0  0  0  0  0  0  0  0  0  0  0
  189.8080  175.3410  144.1840 C   0  0  1  0  0  3  0  0  0  0  0  0
  189.4670  176.8940  142.3610 O   0  0  0  0  0  0  0  0  0  0  0  0
  191.0250  174.6680  143.5180 C   0  0  1  0  0  3  0  0  0  0  0  0
  190.9070  177.6250  144.1360 C   0  0  0  0  0  2  0  0  0  0  0  0
  188.4220  177.5280  144.3020 C   0  0  1  0  0  3  0  0  0  0  0  0
  186.1160  176.5990  143.7490 C   0  0  0  0  0  1  0  0  0  0  0  0
  187.2710  176.6080  144.7410 C   0  0  0  0  0  3  0  0  0  0  0  0
  186.7690  177.0140  146.1130 C   0  0  0  0  0  1  0  0  0  0  0  0
  193.3960  175.0180  142.7500 C   0  0  0  0  0  3  0  0  0  0  0  0
  194.1580  175.3870  141.7210 C   0  0  0  0  0  2  0  0  0  0  0  0
  189.9580  175.2620  145.5750 O   0  0  0  0  0  0  0  0  0  0  0  0
  189.1410  174.3010  145.9570 O   0  0  0  0  0  0  0  0  0  0  0  0
  188.9670  174.5040  147.3290 C   0  0  0  0  0  1  0  0  0  0  0  0
  192.6670  176.4070  145.2430 O   0  0  0  0  0  0  0  0  0  0  0  0
  194.7260  175.4190  146.2400 C   0  0  0  0  0  1  0  0  0  0  0  0
  194.5490  177.7020  145.5930 O   0  0  0  0  0  0  0  0  0  0  0  0
  193.9840  176.5770  145.6720 C   0  0  0  0  0  0  0  0  0  0  0  0
  187.9420  178.0640  140.9180 C   0  0  0  0  0  2  0  0  0  0  0  0
  187.0180  176.8560  140.9840 C   0  0  1  0  0  3  0  0  0  0  0  0
  185.7150  177.1740  140.4260 N   0  0  0  0  0  0  0  0  0  0  0  0
  185.0050  178.1500  140.8940 C   0  0  0  0  0  3  0  0  0  0  0  0
  182.5510  177.9020  140.9200 C   0  0  0  0  0  1  0  0  0  0  0  0
  183.7460  178.4510  140.3730 O   0  0  0  0  0  0  0  0  0  0  0  0
  187.6330  175.6430  140.2870 C   0  0  0  0  0  2  0  0  0  0  0  0
  187.5000  175.6930  138.7680 C   0  0  0  0  0  2  0  0  0  0  0  0
  189.3370  174.3210  138.3510 C   0  0  2  0  0  3  0  0  0  0  0  0
  188.4330  173.5970  139.2680 C   0  0  1  0  0  3  0  0  0  0  0  0
  187.8790  174.4210  138.1830 N   0  0  0  0  0  0  0  0  0  0  0  0
  188.2010  172.1260  138.9460 C   0  0  0  0  0  1  0  0  0  0  0  0
  189.9290  173.4920  137.2110 C   0  0  0  0  0  2  0  0  0  0  0  0
  190.2890  174.3580  135.9940 C   0  0  2  0  0  3  0  0  0  0  0  0
  189.4590  174.0960  134.9130 F   0  0  0  0  0  0  0  0  0  0  0  0
  192.5480  173.1930  136.2340 C   0  0  1  0  0  3  0  0  0  0  0  0
  192.5640  175.4160  136.2710 C   0  0  0  0  0  2  0  0  0  0  0  0
  193.6280  174.2770  137.2130 S   0  0  0  0  0  0  0  0  0  0  0  0
  191.7700  174.3260  135.5770 C   0  0  2  0  0  3  0  0  0  0  0  0
  192.8050  171.5690  134.5160 O   0  0  0  0  0  0  0  0  0  0  0  0
  194.8050  172.5040  135.2710 N   0  0  0  0  0  2  0  0  0  0  0  0
  193.3750  172.4100  135.2590 C   0  0  0  0  0  0  0  0  0  0  0  0
  195.8270  171.2750  134.5130 S   0  0  0  0  0  0  0  0  0  0  0  0
  197.2840  171.7360  135.5070 C   0  0  1  0  0  3  0  0  0  0  0  0
  197.0580  175.7220  136.5960 C   0  0  0  0  0  1  0  0  0  0  0  0
  197.1840  173.1480  135.8950 C   0  0  0  0  0  0  0  0  0  0  0  0
  197.1160  174.3130  136.2100 C   0  0  0  0  0  0  0  0  0  0  0  0
  197.3420  170.8730  136.7590 C   0  0  0  0  0  2  0  0  0  0  0  0
  196.0590  171.0170  137.5480 C   0  0  0  0  0  1  0  0  0  0  0  0
  190.5940  173.8080  142.4960 O   0  0  0  0  0  0  0  0  0  0  0  0
  193.2470  171.5260  139.6100 N   0  0  0  0  0  2  0  0  0  0  0  0
  191.5200  171.8260  143.5200 C   0  0  0  0  0  2  0  0  0  0  0  0
  192.5930  170.0380  140.8900 C   0  0  2  0  0  0  0  0  0  0  0  0
  193.1480  170.1240  139.5500 N   0  0  0  0  0  2  0  0  0  0  0  0
  192.7350  171.5610  140.9660 C   0  0  2  0  0  0  0  0  0  0  0  0
  191.4860  172.1800  141.1560 O   0  0  0  0  0  0  0  0  0  0  0  0
  192.5980  170.7320  143.3790 C   0  0  0  0  0  2  0  0  0  0  0  0
  191.6000  172.8420  142.3840 C   0  0  1  0  0  3  0  0  0  0  0  0
  193.3680  170.6810  142.0370 C   0  0  1  0  0  3  0  0  0  0  0  0
  190.4310  169.5200  139.9760 O   0  0  0  0  0  0  0  0  0  0  0  0
  190.7010  169.0250  142.2000 O   0  0  0  0  0  1  0  0  0  0  0  0
  191.1750  169.5350  140.9950 C   0  0  0  0  0  0  0  0  0  0  0  0
  1  9  1  1  0  0  0
  1  6  1  0  0  0  0
  1 10  1  0  0  0  0
  2  9  1  0  0  0  0
  2 19  1  1  0  0  0
  3 23  1  6  0  0  0
  3  7  1  0  0  0  0
  3  5  1  0  0  0  0
  4 14  1  1  0  0  0
  4  8  1  0  0  0  0
  4  2  1  0  0  0  0
  5 10  1  0  0  0  0
  6 16  1  1  0  0  0
  7  1  1  0  0  0  0
  8 52  1  6  0  0  0
  8  6  1  0  0  0  0
 10 12  1  6  0  0  0
 11 12  1  0  0  0  0
 12 13  1  0  0  0  0
 15 14  2  0  0  0  0
 16 17  1  0  0  0  0
 17 18  1  0  0  0  0
 19 22  1  0  0  0  0
 21 22  2  0  0  0  0
 22 20  1  0  0  0  0
 23 24  1  0  0  0  0
 24 29  1  6  0  0  0
 25 26  2  0  0  0  0
 25 24  1  0  0  0  0
 28 26  1  0  0  0  0
 28 27  1  0  0  0  0
 30 29  1  0  0  0  0
 31 35  1  6  0  0  0
 31 32  1  0  0  0  0
 32 34  1  6  0  0  0
 33 31  1  0  0  0  0
 33 30  1  0  0  0  0
 33 32  1  0  0  0  0
 36 37  1  6  0  0  0
 36 35  1  0  0  0  0
 38 44  1  6  0  0  0
 38 40  1  0  0  0  0
 39 40  1  0  0  0  0
 41 36  1  1  0  0  0
 41 38  1  0  0  0  0
 41 39  1  0  0  0  0
 42 44  2  0  0  0  0
 44 43  1  0  0  0  0
 45 43  1  0  0  0  0
 45 46  1  0  0  0  0
 46 48  1  1  0  0  0
 46 50  1  0  0  0  0
 48 49  3  0  0  0  0
 49 47  1  0  0  0  0
 50 51  1  0  0  0  0
 55 57  1  0  0  0  0
 55 64  1  1  0  0  0
 55 61  1  0  0  0  0
 56 53  1  0  0  0  0
 56 55  1  0  0  0  0
 57 53  1  6  0  0  0
 57 58  1  0  0  0  0
 57 61  1  0  0  0  0
 58 60  1  0  0  0  0
 59 54  1  0  0  0  0
 60 52  1  1  0  0  0
 60 54  1  0  0  0  0
 61 59  1  1  0  0  0
 62 64  2  0  0  0  0
 64 63  1  0  0  0  0
M  END
>  <MODEL>
9

>  <REMARK>
 VINA RESULT:      -4.2      3.819      8.538
  Name = 
  24 active torsions:
  status: ('A' for Active; 'I' for Inactive)
    1  A    between atoms: C_1  and  C_42
    2  A    between atoms: N_2  and  C_43
    3  A    between atoms: C_5  and  C_18
    4  A    between atoms: C_5  and  C_43
    5  A    between atoms: S_7  and  N_25
    6  A    between atoms: S_7  and  C_51
    7  A    between atoms: C_8  and  C_19
    8  A    between atoms: C_8  and  C_60
    9  A    between atoms: O_9  and  O_26
   10  A    between atoms: O_9  and  C_31
   11  A    between atoms: C_14  and  C_19
   12  A    between atoms: C_15  and  C_20
   13  A    between atoms: C_17  and  O_41
   14  A    between atoms: C_21  and  C_51
   15  A    between atoms: C_24  and  C_45
   16  A    between atoms: N_32  and  C_37
   17  A    between atoms: C_36  and  C_51
   18  A    between atoms: C_37  and  C_38
   19  A    between atoms: C_38  and  C_43
   20  A    between atoms: C_39  and  O_54
   21  A    between atoms: C_40  and  O_61
   22  A    between atoms: O_41  and  C_56
   23  A    between atoms: C_46  and  C_64
   24  A    between atoms: C_59  and  O_61
                            x       y       z     vdW  Elec       q    Type
                         _______ _______ _______ _____ _____    ______ ____

>  <TORSDO>
F 24

$$$$
