=
 OpenBabel11062422283D

 36 41  0  0  1  0  0  0  0  0999 V2000
  195.9500  174.5500  143.5460 C   0  0  0  0  0  2  0  0  0  0  0  0
  192.0520  173.0200  139.8540 C   0  0  0  0  0  2  0  0  0  0  0  0
  189.2490  176.0210  145.4350 C   0  0  1  0  0  3  0  0  0  0  0  0
  190.1820  173.5850  142.5280 C   0  0  2  0  0  3  0  0  0  0  0  0
  188.1630  174.9080  141.7870 C   0  0  2  0  0  3  0  0  0  0  0  0
  193.1380  175.0840  144.1980 C   0  0  2  0  0  3  0  0  0  0  0  0
  193.5430  174.5610  142.8380 C   0  0  0  0  0  0  0  0  0  0  0  0
  187.9650  175.3620  143.2440 C   0  0  0  0  0  2  0  0  0  0  0  0
  193.8190  175.7420  146.5130 C   0  0  0  0  0  2  0  0  0  0  0  0
  190.0660  178.2120  144.8030 O   0  0  0  0  0  1  0  0  0  0  0  0
  189.2940  175.4610  144.0000 C   0  0  2  0  0  3  0  0  0  0  0  0
  192.5300  174.1550  141.9000 N   0  0  0  0  0  0  0  0  0  0  0  0
  191.6610  172.1400  141.0250 C   0  0  1  0  0  3  0  0  0  0  0  0
  191.6080  173.0730  142.2340 C   0  0  2  0  0  3  0  0  0  0  0  0
  195.4580  174.5580  144.9900 C   0  0  0  0  0  2  0  0  0  0  0  0
  189.6120  174.5240  141.4540 C   0  0  0  0  0  2  0  0  0  0  0  0
  192.4610  176.4160  146.5750 C   0  0  0  0  0  3  0  0  0  0  0  0
  191.6940  176.6210  145.4850 C   0  0  0  0  0  0  0  0  0  0  0  0
  192.2030  176.2750  144.1030 C   0  0  0  0  0  2  0  0  0  0  0  0
  192.8160  174.1800  140.4700 C   0  0  0  0  0  2  0  0  0  0  0  0
  190.0390  174.1250  143.9580 C   0  0  0  0  0  2  0  0  0  0  0  0
  194.3060  175.5420  145.0750 C   0  0  1  0  0  3  0  0  0  0  0  0
  190.4460  171.4940  140.7790 O   0  0  0  0  0  1  0  0  0  0  0  0
  194.8290  174.2550  142.5880 C   0  0  0  0  0  3  0  0  0  0  0  0
  190.2920  177.1290  145.6570 C   0  0  2  0  0  3  0  0  0  0  0  0
  187.8920  176.4540  145.9030 C   0  0  0  0  0  0  0  0  0  0  0  0
  187.4970  176.1110  147.0510 O   0  0  0  0  0  0  0  0  0  0  0  0
  187.0750  177.2200  145.0660 O   0  0  0  0  0  0  0  0  0  0  0  0
  186.2180  178.2380  145.5650 C   0  0  2  0  0  3  0  0  0  0  0  0
  184.4510  179.4160  144.6130 C   0  0  0  0  0  2  0  0  0  0  0  0
  184.9930  177.6790  145.9640 O   0  0  0  0  0  0  0  0  0  0  0  0
  184.0680  178.6650  145.7970 N   0  0  0  0  0  2  0  0  0  0  0  0
  185.9260  179.2250  144.4740 C   0  0  0  0  0  2  0  0  0  0  0  0
  187.7150  175.9580  140.8860 N   0  0  0  0  0  2  0  0  0  0  0  0
  186.2510  177.8900  140.7220 C   0  0  0  0  0  1  0  0  0  0  0  0
  186.7760  176.7890  141.6210 C   0  0  0  0  0  2  0  0  0  0  0  0
  1 15  1  0  0  0  0
  2 20  1  0  0  0  0
  2 13  1  0  0  0  0
  3 25  1  0  0  0  0
  3 26  1  6  0  0  0
  4 16  1  6  0  0  0
  4 21  1  0  0  0  0
  5 34  1  6  0  0  0
  5  8  1  0  0  0  0
  6 19  1  6  0  0  0
  6 22  1  0  0  0  0
  7  6  1  0  0  0  0
  9 17  1  0  0  0  0
 11  8  1  1  0  0  0
 11  3  1  0  0  0  0
 12  7  1  0  0  0  0
 13 23  1  6  0  0  0
 13 14  1  0  0  0  0
 14 12  1  6  0  0  0
 14  4  1  0  0  0  0
 16  5  1  0  0  0  0
 18 25  1  0  0  0  0
 18 17  2  0  0  0  0
 19 18  1  0  0  0  0
 20 12  1  0  0  0  0
 21 11  1  0  0  0  0
 22 15  1  1  0  0  0
 22  9  1  0  0  0  0
 24  7  2  0  0  0  0
 24  1  1  0  0  0  0
 25 10  1  6  0  0  0
 26 27  2  0  0  0  0
 28 26  1  0  0  0  0
 29 28  1  6  0  0  0
 29 31  1  0  0  0  0
 30 32  1  0  0  0  0
 32 31  1  0  0  0  0
 33 30  1  0  0  0  0
 33 29  1  0  0  0  0
 34 36  1  0  0  0  0
 35 36  1  0  0  0  0
M  END
>  <MODEL>
1

>  <REMARK>
 VINA RESULT:      -8.2      0.000      0.000
  Name = 
  5 active torsions:
  status: ('A' for Active; 'I' for Inactive)
    1  A    between atoms: C_3  and  C_5
    2  A    between atoms: C_3  and  O_29
    3  A    between atoms: C_7  and  N_23
    4  A    between atoms: C_16  and  O_29
    5  A    between atoms: C_19  and  N_23
                            x       y       z     vdW  Elec       q    Type
                         _______ _______ _______ _____ _____    ______ ____

>  <TORSDO>
F 5

$$$$
=
 OpenBabel11062422283D

 36 41  0  0  1  0  0  0  0  0999 V2000
  192.4950  171.5510  140.6130 C   0  0  0  0  0  2  0  0  0  0  0  0
  194.0200  174.3880  145.1730 C   0  0  0  0  0  2  0  0  0  0  0  0
  188.2450  176.9860  142.3590 C   0  0  1  0  0  3  0  0  0  0  0  0
  191.8190  176.4800  143.8510 C   0  0  2  0  0  3  0  0  0  0  0  0
  190.3310  177.3080  145.7160 C   0  0  2  0  0  3  0  0  0  0  0  0
  190.8400  173.8280  141.4460 C   0  0  2  0  0  3  0  0  0  0  0  0
  191.9780  173.3280  142.3080 C   0  0  0  0  0  0  0  0  0  0  0  0
  189.2810  177.6990  144.6610 C   0  0  0  0  0  2  0  0  0  0  0  0
  189.5550  173.6530  139.3080 C   0  0  0  0  0  2  0  0  0  0  0  0
  186.9170  175.0870  143.0630 O   0  0  0  0  0  1  0  0  0  0  0  0
  189.3270  176.7780  143.4370 C   0  0  2  0  0  3  0  0  0  0  0  0
  192.3730  174.0750  143.4730 N   0  0  0  0  0  0  0  0  0  0  0  0
  194.1550  175.4800  144.1290 C   0  0  1  0  0  3  0  0  0  0  0  0
  192.8480  175.4500  143.3390 C   0  0  2  0  0  3  0  0  0  0  0  0
  191.7310  172.3910  139.5950 C   0  0  0  0  0  2  0  0  0  0  0  0
  191.2750  176.1860  145.2580 C   0  0  0  0  0  2  0  0  0  0  0  0
  188.5070  174.4810  140.0280 C   0  0  0  0  0  3  0  0  0  0  0  0
  188.5280  174.6910  141.3600 C   0  0  0  0  0  0  0  0  0  0  0  0
  189.5590  174.0150  142.2350 C   0  0  0  0  0  2  0  0  0  0  0  0
  193.0350  173.3940  144.5790 C   0  0  0  0  0  2  0  0  0  0  0  0
  190.7250  176.7770  142.8160 C   0  0  0  0  0  2  0  0  0  0  0  0
  190.4780  172.9090  140.2770 C   0  0  1  0  0  3  0  0  0  0  0  0
  194.4020  176.7170  144.7330 O   0  0  0  0  0  1  0  0  0  0  0  0
  192.7680  172.3300  141.8700 C   0  0  0  0  0  3  0  0  0  0  0  0
  187.5600  175.6660  141.9660 C   0  0  2  0  0  3  0  0  0  0  0  0
  187.2360  178.0480  142.6710 C   0  0  0  0  0  0  0  0  0  0  0  0
  186.7820  178.7620  141.7350 O   0  0  0  0  0  0  0  0  0  0  0  0
  186.8140  178.2460  143.9890 O   0  0  0  0  0  0  0  0  0  0  0  0
  185.4910  177.9510  144.4160 C   0  0  2  0  0  3  0  0  0  0  0  0
  184.5140  177.7890  146.5220 C   0  0  0  0  0  2  0  0  0  0  0  0
  184.8120  179.1390  144.7270 O   0  0  0  0  0  0  0  0  0  0  0  0
  183.9000  178.8030  145.6810 N   0  0  0  0  0  2  0  0  0  0  0  0
  185.5420  177.1230  145.6670 C   0  0  0  0  0  2  0  0  0  0  0  0
  189.6630  176.9130  146.9450 N   0  0  0  0  0  2  0  0  0  0  0  0
  188.9820  174.6280  147.4140 C   0  0  0  0  0  1  0  0  0  0  0  0
  190.1490  175.5890  147.2970 C   0  0  0  0  0  2  0  0  0  0  0  0
  1 24  1  0  0  0  0
  3 26  1  1  0  0  0
  3 11  1  0  0  0  0
  4 21  1  6  0  0  0
  4 16  1  0  0  0  0
  5 34  1  1  0  0  0
  6 19  1  1  0  0  0
  6  7  1  0  0  0  0
  7 12  1  0  0  0  0
  8  5  1  0  0  0  0
  9 17  1  0  0  0  0
 11 21  1  6  0  0  0
 11  8  1  0  0  0  0
 12 20  1  0  0  0  0
 13 23  1  1  0  0  0
 13  2  1  0  0  0  0
 14 12  1  1  0  0  0
 14  4  1  0  0  0  0
 14 13  1  0  0  0  0
 15 22  1  0  0  0  0
 15  1  1  0  0  0  0
 16  5  1  0  0  0  0
 17 18  2  0  0  0  0
 18 25  1  0  0  0  0
 18 19  1  0  0  0  0
 20  2  1  0  0  0  0
 22  9  1  6  0  0  0
 22  6  1  0  0  0  0
 24  7  2  0  0  0  0
 25  3  1  0  0  0  0
 25 10  1  1  0  0  0
 26 28  1  0  0  0  0
 27 26  2  0  0  0  0
 29 28  1  1  0  0  0
 29 31  1  0  0  0  0
 29 33  1  0  0  0  0
 31 32  1  0  0  0  0
 32 30  1  0  0  0  0
 33 30  1  0  0  0  0
 34 36  1  0  0  0  0
 36 35  1  0  0  0  0
M  END
>  <MODEL>
2

>  <REMARK>
 VINA RESULT:      -8.1      2.081      4.816
  Name = 
  5 active torsions:
  status: ('A' for Active; 'I' for Inactive)
    1  A    between atoms: C_3  and  C_5
    2  A    between atoms: C_3  and  O_29
    3  A    between atoms: C_7  and  N_23
    4  A    between atoms: C_16  and  O_29
    5  A    between atoms: C_19  and  N_23
                            x       y       z     vdW  Elec       q    Type
                         _______ _______ _______ _____ _____    ______ ____

>  <TORSDO>
F 5

$$$$
=
 OpenBabel11062422283D

 36 41  0  0  1  0  0  0  0  0999 V2000
  193.7950  174.8740  146.1650 C   0  0  0  0  0  2  0  0  0  0  0  0
  192.5430  171.4950  141.9010 C   0  0  0  0  0  2  0  0  0  0  0  0
  187.7570  176.4360  142.7380 C   0  0  1  0  0  3  0  0  0  0  0  0
  189.6470  173.0410  142.3340 C   0  0  2  0  0  3  0  0  0  0  0  0
  188.7790  173.6990  140.0560 C   0  0  2  0  0  3  0  0  0  0  0  0
  191.3260  175.3920  144.6650 C   0  0  2  0  0  3  0  0  0  0  0  0
  192.3180  174.3480  144.2060 C   0  0  0  0  0  0  0  0  0  0  0  0
  187.8760  174.7440  140.7370 C   0  0  0  0  0  2  0  0  0  0  0  0
  190.6610  177.0850  146.3820 C   0  0  0  0  0  2  0  0  0  0  0  0
  189.2410  178.1660  141.9170 O   0  0  0  0  0  1  0  0  0  0  0  0
  188.5030  175.2930  142.0230 C   0  0  2  0  0  3  0  0  0  0  0  0
  191.9790  173.4720  143.1150 N   0  0  0  0  0  0  0  0  0  0  0  0
  191.3660  171.2110  142.8130 C   0  0  1  0  0  3  0  0  0  0  0  0
  190.8260  172.5810  143.2180 C   0  0  2  0  0  3  0  0  0  0  0  0
  192.5740  175.4910  146.8370 C   0  0  0  0  0  2  0  0  0  0  0  0
  190.0260  173.3360  140.8750 C   0  0  0  0  0  2  0  0  0  0  0  0
  189.7040  177.5900  145.3170 C   0  0  0  0  0  3  0  0  0  0  0  0
  189.7790  177.2090  144.0260 C   0  0  0  0  0  0  0  0  0  0  0  0
  190.9050  176.3210  143.5430 C   0  0  0  0  0  2  0  0  0  0  0  0
  193.0380  172.8720  142.3120 C   0  0  0  0  0  2  0  0  0  0  0  0
  188.8230  174.1550  142.9950 C   0  0  0  0  0  2  0  0  0  0  0  0
  191.8340  176.3000  145.7880 C   0  0  1  0  0  3  0  0  0  0  0  0
  190.4150  170.4180  142.1640 O   0  0  0  0  0  1  0  0  0  0  0  0
  193.4070  174.0770  144.9490 C   0  0  0  0  0  3  0  0  0  0  0  0
  188.6890  177.6120  143.0750 C   0  0  2  0  0  3  0  0  0  0  0  0
  186.5150  176.9110  142.0470 C   0  0  0  0  0  0  0  0  0  0  0  0
  186.5900  177.3270  140.8590 O   0  0  0  0  0  0  0  0  0  0  0  0
  185.2910  176.8990  142.7230 O   0  0  0  0  0  0  0  0  0  0  0  0
  184.8310  178.0090  143.4810 C   0  0  2  0  0  3  0  0  0  0  0  0
  185.7210  179.1490  145.3040 C   0  0  0  0  0  2  0  0  0  0  0  0
  185.4740  179.1810  143.0520 O   0  0  0  0  0  0  0  0  0  0  0  0
  185.5150  179.9970  144.1420 N   0  0  0  0  0  2  0  0  0  0  0  0
  185.1830  177.8080  144.9270 C   0  0  0  0  0  2  0  0  0  0  0  0
  189.1770  174.1810  138.7440 N   0  0  0  0  0  2  0  0  0  0  0  0
  189.4880  172.1270  137.4830 C   0  0  0  0  0  1  0  0  0  0  0  0
  188.5710  173.3030  137.7570 C   0  0  0  0  0  2  0  0  0  0  0  0
  1 15  1  0  0  0  0
  2 20  1  0  0  0  0
  2 13  1  0  0  0  0
  3 26  1  6  0  0  0
  3 25  1  0  0  0  0
  4 16  1  6  0  0  0
  4 21  1  0  0  0  0
  4 14  1  0  0  0  0
  5 34  1  6  0  0  0
  5  8  1  0  0  0  0
  5 16  1  0  0  0  0
  6 19  1  6  0  0  0
  6 22  1  0  0  0  0
  7  6  1  0  0  0  0
  7 24  2  0  0  0  0
 11  8  1  6  0  0  0
 11  3  1  0  0  0  0
 11 21  1  0  0  0  0
 12  7  1  0  0  0  0
 13 23  1  6  0  0  0
 13 14  1  0  0  0  0
 14 12  1  6  0  0  0
 17  9  1  0  0  0  0
 18 17  2  0  0  0  0
 19 18  1  0  0  0  0
 20 12  1  0  0  0  0
 22  9  1  1  0  0  0
 22 15  1  0  0  0  0
 24  1  1  0  0  0  0
 25 10  1  6  0  0  0
 25 18  1  0  0  0  0
 26 28  1  0  0  0  0
 27 26  2  0  0  0  0
 29 28  1  6  0  0  0
 29 33  1  0  0  0  0
 31 29  1  0  0  0  0
 31 32  1  0  0  0  0
 32 30  1  0  0  0  0
 33 30  1  0  0  0  0
 35 36  1  0  0  0  0
 36 34  1  0  0  0  0
M  END
>  <MODEL>
3

>  <REMARK>
 VINA RESULT:      -8.0      1.992      3.066
  Name = 
  5 active torsions:
  status: ('A' for Active; 'I' for Inactive)
    1  A    between atoms: C_3  and  C_5
    2  A    between atoms: C_3  and  O_29
    3  A    between atoms: C_7  and  N_23
    4  A    between atoms: C_16  and  O_29
    5  A    between atoms: C_19  and  N_23
                            x       y       z     vdW  Elec       q    Type
                         _______ _______ _______ _____ _____    ______ ____

>  <TORSDO>
F 5

$$$$
=
 OpenBabel11062422283D

 36 41  0  0  1  0  0  0  0  0999 V2000
  185.4150  178.7040  147.2250 C   0  0  0  0  0  2  0  0  0  0  0  0
  185.9410  176.7910  142.0070 C   0  0  0  0  0  2  0  0  0  0  0  0
  191.9430  176.4900  145.4580 C   0  0  1  0  0  3  0  0  0  0  0  0
  189.1220  177.1800  142.8460 C   0  0  2  0  0  3  0  0  0  0  0  0
  190.3740  175.1250  142.0810 C   0  0  2  0  0  3  0  0  0  0  0  0
  188.0560  177.7670  146.3530 C   0  0  2  0  0  3  0  0  0  0  0  0
  186.8340  177.5900  145.4810 C   0  0  0  0  0  0  0  0  0  0  0  0
  191.4900  175.4710  143.0830 C   0  0  0  0  0  2  0  0  0  0  0  0
  189.0530  178.6690  148.4620 C   0  0  0  0  0  2  0  0  0  0  0  0
  191.1750  174.6660  146.8540 O   0  0  0  0  0  1  0  0  0  0  0  0
  190.9470  176.1940  144.3200 C   0  0  2  0  0  3  0  0  0  0  0  0
  186.9830  177.1100  144.1320 N   0  0  0  0  0  0  0  0  0  0  0  0
  186.8710  177.9870  141.9410 C   0  0  1  0  0  3  0  0  0  0  0  0
  187.7760  177.8650  143.1660 C   0  0  2  0  0  3  0  0  0  0  0  0
  186.6970  179.3070  147.7900 C   0  0  0  0  0  2  0  0  0  0  0  0
  189.0020  175.6950  142.4680 C   0  0  0  0  0  2  0  0  0  0  0  0
  190.2200  177.7540  148.1420 C   0  0  0  0  0  3  0  0  0  0  0  0
  190.1560  176.7840  147.2070 C   0  0  0  0  0  0  0  0  0  0  0  0
  188.8590  176.4870  146.4860 C   0  0  0  0  0  2  0  0  0  0  0  0
  185.8720  176.4260  143.4800 C   0  0  0  0  0  2  0  0  0  0  0  0
  190.1880  177.4600  143.9140 C   0  0  0  0  0  2  0  0  0  0  0  0
  187.7560  178.2200  147.7840 C   0  0  1  0  0  3  0  0  0  0  0  0
  187.5800  178.0000  140.7360 O   0  0  0  0  0  1  0  0  0  0  0  0
  185.6480  178.0930  145.8710 C   0  0  0  0  0  3  0  0  0  0  0  0
  191.4050  176.0440  146.8280 C   0  0  2  0  0  3  0  0  0  0  0  0
  193.3340  175.9800  145.2300 C   0  0  0  0  0  0  0  0  0  0  0  0
  193.6670  174.8630  145.7100 O   0  0  0  0  0  0  0  0  0  0  0  0
  194.2480  176.7450  144.5000 O   0  0  0  0  0  0  0  0  0  0  0  0
  195.3790  176.1710  143.8590 C   0  0  2  0  0  3  0  0  0  0  0  0
  196.2750  176.4180  141.7250 C   0  0  0  0  0  2  0  0  0  0  0  0
  196.4550  177.0730  143.8870 O   0  0  0  0  0  0  0  0  0  0  0  0
  197.2000  176.7900  142.7820 N   0  0  0  0  0  2  0  0  0  0  0  0
  195.0560  175.9040  142.4180 C   0  0  0  0  0  2  0  0  0  0  0  0
  190.2810  173.6810  141.9370 N   0  0  0  0  0  2  0  0  0  0  0  0
  189.6970  172.3190  143.8630 C   0  0  0  0  0  1  0  0  0  0  0  0
  189.1770  173.2320  142.7700 C   0  0  0  0  0  2  0  0  0  0  0  0
  1 15  1  0  0  0  0
  2 20  1  0  0  0  0
  3 26  1  6  0  0  0
  3 25  1  0  0  0  0
  4 16  1  1  0  0  0
  4 14  1  0  0  0  0
  4 21  1  0  0  0  0
  5 34  1  1  0  0  0
  5 16  1  0  0  0  0
  5  8  1  0  0  0  0
  6 19  1  1  0  0  0
  6 22  1  0  0  0  0
  7 24  2  0  0  0  0
  7  6  1  0  0  0  0
 11  8  1  6  0  0  0
 11  3  1  0  0  0  0
 12  7  1  0  0  0  0
 13 23  1  6  0  0  0
 13  2  1  0  0  0  0
 13 14  1  0  0  0  0
 14 12  1  1  0  0  0
 17  9  1  0  0  0  0
 18 17  2  0  0  0  0
 19 18  1  0  0  0  0
 20 12  1  0  0  0  0
 21 11  1  0  0  0  0
 22 15  1  6  0  0  0
 22  9  1  0  0  0  0
 24  1  1  0  0  0  0
 25 10  1  6  0  0  0
 25 18  1  0  0  0  0
 26 27  2  0  0  0  0
 28 26  1  0  0  0  0
 29 31  1  0  0  0  0
 29 28  1  1  0  0  0
 30 33  1  0  0  0  0
 30 32  1  0  0  0  0
 32 31  1  0  0  0  0
 33 29  1  0  0  0  0
 34 36  1  0  0  0  0
 36 35  1  0  0  0  0
M  END
>  <MODEL>
4

>  <REMARK>
 VINA RESULT:      -7.8      2.676      7.162
  Name = 
  5 active torsions:
  status: ('A' for Active; 'I' for Inactive)
    1  A    between atoms: C_3  and  C_5
    2  A    between atoms: C_3  and  O_29
    3  A    between atoms: C_7  and  N_23
    4  A    between atoms: C_16  and  O_29
    5  A    between atoms: C_19  and  N_23
                            x       y       z     vdW  Elec       q    Type
                         _______ _______ _______ _____ _____    ______ ____

>  <TORSDO>
F 5

$$$$
=
 OpenBabel11062422283D

 36 41  0  0  1  0  0  0  0  0999 V2000
  184.9380  178.6220  146.8700 C   0  0  0  0  0  2  0  0  0  0  0  0
  186.1400  176.6930  141.7710 C   0  0  0  0  0  2  0  0  0  0  0  0
  191.7570  176.8800  145.8240 C   0  0  1  0  0  3  0  0  0  0  0  0
  189.1790  177.3280  142.9240 C   0  0  2  0  0  3  0  0  0  0  0  0
  190.6500  175.3630  142.3310 C   0  0  2  0  0  3  0  0  0  0  0  0
  187.7160  177.8740  146.2910 C   0  0  2  0  0  3  0  0  0  0  0  0
  186.6060  177.5970  145.3020 C   0  0  0  0  0  0  0  0  0  0  0  0
  191.6280  175.8030  143.4350 C   0  0  0  0  0  2  0  0  0  0  0  0
  188.4200  178.8730  148.4740 C   0  0  0  0  0  2  0  0  0  0  0  0
  190.9840  175.0200  147.1690 O   0  0  0  0  0  1  0  0  0  0  0  0
  190.9090  176.4980  144.5960 C   0  0  2  0  0  3  0  0  0  0  0  0
  186.9290  177.1140  143.9850 N   0  0  0  0  0  0  0  0  0  0  0  0
  186.9820  177.9550  141.7780 C   0  0  1  0  0  3  0  0  0  0  0  0
  187.7610  177.9150  143.0910 C   0  0  2  0  0  3  0  0  0  0  0  0
  186.1070  179.3250  147.5520 C   0  0  0  0  0  2  0  0  0  0  0  0
  189.2070  175.8340  142.5640 C   0  0  0  0  0  2  0  0  0  0  0  0
  189.6780  178.0430  148.2930 C   0  0  0  0  0  3  0  0  0  0  0  0
  189.7820  177.0610  147.3750 C   0  0  0  0  0  0  0  0  0  0  0  0
  188.5920  176.6590  146.5310 C   0  0  0  0  0  2  0  0  0  0  0  0
  185.9450  176.3410  143.2360 C   0  0  0  0  0  2  0  0  0  0  0  0
  190.1060  177.6990  144.0910 C   0  0  0  0  0  2  0  0  0  0  0  0
  187.2360  178.3200  147.6750 C   0  0  1  0  0  3  0  0  0  0  0  0
  187.8090  178.0070  140.6520 O   0  0  0  0  0  1  0  0  0  0  0  0
  185.3530  178.0140  145.5590 C   0  0  0  0  0  3  0  0  0  0  0  0
  191.1140  176.4110  147.1400 C   0  0  2  0  0  3  0  0  0  0  0  0
  193.1980  176.4720  145.7500 C   0  0  0  0  0  0  0  0  0  0  0  0
  194.0380  177.2660  145.2460 O   0  0  0  0  0  0  0  0  0  0  0  0
  193.5950  175.2200  146.2270 O   0  0  0  0  0  0  0  0  0  0  0  0
  194.2780  174.2780  145.4110 C   0  0  2  0  0  3  0  0  0  0  0  0
  196.1100  172.8950  145.7980 C   0  0  0  0  0  2  0  0  0  0  0  0
  193.8470  172.9780  145.7180 O   0  0  0  0  0  0  0  0  0  0  0  0
  194.9050  172.1650  145.4430 N   0  0  0  0  0  2  0  0  0  0  0  0
  195.7500  174.3410  145.6990 C   0  0  0  0  0  2  0  0  0  0  0  0
  190.6780  173.9150  142.2060 N   0  0  0  0  0  2  0  0  0  0  0  0
  189.9490  172.5170  144.0550 C   0  0  0  0  0  1  0  0  0  0  0  0
  189.5110  173.3960  142.9010 C   0  0  0  0  0  2  0  0  0  0  0  0
  1 15  1  0  0  0  0
  2 13  1  0  0  0  0
  2 20  1  0  0  0  0
  3 26  1  6  0  0  0
  3 25  1  0  0  0  0
  4 16  1  1  0  0  0
  4 14  1  0  0  0  0
  4 21  1  0  0  0  0
  5 34  1  1  0  0  0
  5 16  1  0  0  0  0
  5  8  1  0  0  0  0
  6 19  1  1  0  0  0
  6 22  1  0  0  0  0
  7 24  2  0  0  0  0
  7  6  1  0  0  0  0
 11  8  1  6  0  0  0
 11  3  1  0  0  0  0
 12  7  1  0  0  0  0
 13 23  1  6  0  0  0
 13 14  1  0  0  0  0
 14 12  1  1  0  0  0
 17  9  1  0  0  0  0
 18 17  2  0  0  0  0
 19 18  1  0  0  0  0
 20 12  1  0  0  0  0
 21 11  1  0  0  0  0
 22 15  1  6  0  0  0
 22  9  1  0  0  0  0
 24  1  1  0  0  0  0
 25 10  1  6  0  0  0
 25 18  1  0  0  0  0
 26 28  1  0  0  0  0
 27 26  2  0  0  0  0
 29 33  1  0  0  0  0
 29 31  1  0  0  0  0
 29 28  1  1  0  0  0
 32 31  1  0  0  0  0
 32 30  1  0  0  0  0
 33 30  1  0  0  0  0
 34 36  1  0  0  0  0
 36 35  1  0  0  0  0
M  END
>  <MODEL>
5

>  <REMARK>
 VINA RESULT:      -7.8      2.616      7.205
  Name = 
  5 active torsions:
  status: ('A' for Active; 'I' for Inactive)
    1  A    between atoms: C_3  and  C_5
    2  A    between atoms: C_3  and  O_29
    3  A    between atoms: C_7  and  N_23
    4  A    between atoms: C_16  and  O_29
    5  A    between atoms: C_19  and  N_23
                            x       y       z     vdW  Elec       q    Type
                         _______ _______ _______ _____ _____    ______ ____

>  <TORSDO>
F 5

$$$$
=
 OpenBabel11062422283D

 36 41  0  0  1  0  0  0  0  0999 V2000
  187.3200  178.2560  147.6060 C   0  0  0  0  0  2  0  0  0  0  0  0
  185.5430  177.3440  142.3930 C   0  0  0  0  0  2  0  0  0  0  0  0
  191.7330  174.4440  143.5270 C   0  0  1  0  0  3  0  0  0  0  0  0
  188.7360  176.5100  142.1120 C   0  0  2  0  0  3  0  0  0  0  0  0
  188.8530  174.3540  140.8030 C   0  0  2  0  0  3  0  0  0  0  0  0
  189.0440  176.7060  145.8050 C   0  0  2  0  0  3  0  0  0  0  0  0
  187.6450  177.1100  145.3970 C   0  0  0  0  0  0  0  0  0  0  0  0
  190.2590  174.1150  141.3820 C   0  0  0  0  0  2  0  0  0  0  0  0
  190.8760  176.8030  147.5060 C   0  0  0  0  0  2  0  0  0  0  0  0
  190.7900  172.7290  144.9550 O   0  0  0  0  0  1  0  0  0  0  0  0
  190.4120  174.7170  142.7830 C   0  0  2  0  0  3  0  0  0  0  0  0
  187.2030  176.8840  144.0460 N   0  0  0  0  0  0  0  0  0  0  0  0
  186.7870  178.1640  142.1050 C   0  0  1  0  0  3  0  0  0  0  0  0
  187.8980  177.5170  142.9290 C   0  0  2  0  0  3  0  0  0  0  0  0
  188.8390  178.2880  147.7390 C   0  0  0  0  0  2  0  0  0  0  0  0
  187.9690  175.2500  141.6820 C   0  0  0  0  0  2  0  0  0  0  0  0
  191.4710  175.6410  146.7320 C   0  0  0  0  0  3  0  0  0  0  0  0
  190.7810  174.9490  145.8030 C   0  0  0  0  0  0  0  0  0  0  0  0
  189.3170  175.2360  145.5530 C   0  0  0  0  0  2  0  0  0  0  0  0
  185.7790  176.7380  143.7660 C   0  0  0  0  0  2  0  0  0  0  0  0
  190.0930  176.2130  142.7650 C   0  0  0  0  0  2  0  0  0  0  0  0
  189.3670  176.9410  147.2830 C   0  0  1  0  0  3  0  0  0  0  0  0
  187.0620  178.1840  140.7340 O   0  0  0  0  0  1  0  0  0  0  0  0
  186.9010  177.8820  146.2100 C   0  0  0  0  0  3  0  0  0  0  0  0
  191.4960  173.9350  144.9600 C   0  0  2  0  0  3  0  0  0  0  0  0
  192.7030  173.5670  142.7950 C   0  0  0  0  0  0  0  0  0  0  0  0
  192.6750  172.3210  142.9880 O   0  0  0  0  0  0  0  0  0  0  0  0
  193.6320  174.1320  141.9170 O   0  0  0  0  0  0  0  0  0  0  0  0
  194.1120  175.4610  142.0710 C   0  0  2  0  0  3  0  0  0  0  0  0
  196.2230  176.3290  142.5270 C   0  0  0  0  0  2  0  0  0  0  0  0
  194.7260  175.8890  140.8830 O   0  0  0  0  0  0  0  0  0  0  0  0
  195.6730  176.7910  141.2640 N   0  0  0  0  0  2  0  0  0  0  0  0
  195.1550  175.4930  143.1510 C   0  0  0  0  0  2  0  0  0  0  0  0
  188.1940  173.0760  140.5860 N   0  0  0  0  0  2  0  0  0  0  0  0
  188.1990  173.8740  138.2900 C   0  0  0  0  0  1  0  0  0  0  0  0
  188.4390  172.6910  139.2050 C   0  0  0  0  0  2  0  0  0  0  0  0
  1 15  1  0  0  0  0
  2 20  1  0  0  0  0
  3 26  1  6  0  0  0
  3 25  1  0  0  0  0
  4 16  1  1  0  0  0
  4 21  1  0  0  0  0
  4 14  1  0  0  0  0
  5 34  1  1  0  0  0
  5  8  1  0  0  0  0
  5 16  1  0  0  0  0
  6 19  1  1  0  0  0
  6 22  1  0  0  0  0
  7  6  1  0  0  0  0
  7 24  2  0  0  0  0
 11  8  1  6  0  0  0
 11  3  1  0  0  0  0
 12  7  1  0  0  0  0
 13 23  1  6  0  0  0
 13  2  1  0  0  0  0
 13 14  1  0  0  0  0
 14 12  1  1  0  0  0
 17  9  1  0  0  0  0
 18 17  2  0  0  0  0
 19 18  1  0  0  0  0
 20 12  1  0  0  0  0
 21 11  1  0  0  0  0
 22  9  1  6  0  0  0
 22 15  1  0  0  0  0
 24  1  1  0  0  0  0
 25 10  1  6  0  0  0
 25 18  1  0  0  0  0
 26 27  2  0  0  0  0
 28 26  1  0  0  0  0
 29 28  1  6  0  0  0
 29 33  1  0  0  0  0
 30 33  1  0  0  0  0
 31 32  1  0  0  0  0
 31 29  1  0  0  0  0
 32 30  1  0  0  0  0
 35 36  1  0  0  0  0
 36 34  1  0  0  0  0
M  END
>  <MODEL>
6

>  <REMARK>
 VINA RESULT:      -7.7      2.582      6.757
  Name = 
  5 active torsions:
  status: ('A' for Active; 'I' for Inactive)
    1  A    between atoms: C_3  and  C_5
    2  A    between atoms: C_3  and  O_29
    3  A    between atoms: C_7  and  N_23
    4  A    between atoms: C_16  and  O_29
    5  A    between atoms: C_19  and  N_23
                            x       y       z     vdW  Elec       q    Type
                         _______ _______ _______ _____ _____    ______ ____

>  <TORSDO>
F 5

$$$$
=
 OpenBabel11062422283D

 36 41  0  0  1  0  0  0  0  0999 V2000
  186.8800  178.3740  147.4950 C   0  0  0  0  0  2  0  0  0  0  0  0
  185.3740  177.3760  142.2130 C   0  0  0  0  0  2  0  0  0  0  0  0
  191.5670  174.6290  143.6680 C   0  0  1  0  0  3  0  0  0  0  0  0
  188.5950  176.6130  142.0920 C   0  0  2  0  0  3  0  0  0  0  0  0
  188.8220  174.4490  140.8110 C   0  0  2  0  0  3  0  0  0  0  0  0
  188.7220  176.8490  145.7940 C   0  0  2  0  0  3  0  0  0  0  0  0
  187.3350  177.2170  145.3160 C   0  0  0  0  0  0  0  0  0  0  0  0
  190.2040  174.2480  141.4590 C   0  0  0  0  0  2  0  0  0  0  0  0
  190.4680  177.0030  147.5780 C   0  0  0  0  0  2  0  0  0  0  0  0
  190.5960  172.9050  145.0660 O   0  0  0  0  0  1  0  0  0  0  0  0
  190.2760  174.8650  142.8600 C   0  0  2  0  0  3  0  0  0  0  0  0
  186.9630  176.9690  143.9480 N   0  0  0  0  0  0  0  0  0  0  0  0
  186.6110  178.2210  141.9760 C   0  0  1  0  0  3  0  0  0  0  0  0
  187.6960  177.6080  142.8580 C   0  0  2  0  0  3  0  0  0  0  0  0
  188.3900  178.4420  147.7000 C   0  0  0  0  0  2  0  0  0  0  0  0
  187.8770  175.3320  141.6390 C   0  0  0  0  0  2  0  0  0  0  0  0
  191.1260  175.8480  146.8450 C   0  0  0  0  0  3  0  0  0  0  0  0
  190.4960  175.1330  145.8910 C   0  0  0  0  0  0  0  0  0  0  0  0
  189.0390  175.3830  145.5690 C   0  0  0  0  0  2  0  0  0  0  0  0
  185.5580  176.7880  143.6020 C   0  0  0  0  0  2  0  0  0  0  0  0
  189.9250  176.3540  142.8120 C   0  0  0  0  0  2  0  0  0  0  0  0
  188.9690  177.1040  147.2830 C   0  0  1  0  0  3  0  0  0  0  0  0
  186.9510  178.2360  140.6200 O   0  0  0  0  0  1  0  0  0  0  0  0
  186.5360  177.9790  146.0850 C   0  0  0  0  0  3  0  0  0  0  0  0
  191.2730  174.1270  145.0920 C   0  0  2  0  0  3  0  0  0  0  0  0
  192.5890  173.7680  142.9910 C   0  0  0  0  0  0  0  0  0  0  0  0
  193.4420  174.3040  142.2310 O   0  0  0  0  0  0  0  0  0  0  0  0
  192.5850  172.3850  143.1960 O   0  0  0  0  0  0  0  0  0  0  0  0
  193.7560  171.6680  143.5630 C   0  0  2  0  0  3  0  0  0  0  0  0
  194.5450  170.8790  145.6050 C   0  0  0  0  0  2  0  0  0  0  0  0
  193.4570  170.3030  143.7020 O   0  0  0  0  0  0  0  0  0  0  0  0
  194.3400  169.8270  144.6240 N   0  0  0  0  0  2  0  0  0  0  0  0
  194.2460  172.1580  144.8940 C   0  0  0  0  0  2  0  0  0  0  0  0
  188.2030  173.1550  140.5760 N   0  0  0  0  0  2  0  0  0  0  0  0
  188.2020  173.9020  138.2630 C   0  0  0  0  0  1  0  0  0  0  0  0
  188.5200  172.7630  139.2120 C   0  0  0  0  0  2  0  0  0  0  0  0
  1 15  1  0  0  0  0
  2 20  1  0  0  0  0
  3 26  1  6  0  0  0
  3 25  1  0  0  0  0
  4 16  1  1  0  0  0
  4 21  1  0  0  0  0
  4 14  1  0  0  0  0
  5 34  1  1  0  0  0
  5  8  1  0  0  0  0
  5 16  1  0  0  0  0
  6 19  1  1  0  0  0
  6 22  1  0  0  0  0
  7  6  1  0  0  0  0
  7 24  2  0  0  0  0
 11  8  1  6  0  0  0
 11  3  1  0  0  0  0
 12  7  1  0  0  0  0
 13 23  1  6  0  0  0
 13  2  1  0  0  0  0
 13 14  1  0  0  0  0
 14 12  1  1  0  0  0
 17  9  1  0  0  0  0
 18 17  2  0  0  0  0
 19 18  1  0  0  0  0
 20 12  1  0  0  0  0
 21 11  1  0  0  0  0
 22  9  1  6  0  0  0
 22 15  1  0  0  0  0
 24  1  1  0  0  0  0
 25 10  1  6  0  0  0
 25 18  1  0  0  0  0
 26 28  1  0  0  0  0
 27 26  2  0  0  0  0
 29 28  1  1  0  0  0
 29 31  1  0  0  0  0
 29 33  1  0  0  0  0
 31 32  1  0  0  0  0
 32 30  1  0  0  0  0
 33 30  1  0  0  0  0
 35 36  1  0  0  0  0
 36 34  1  0  0  0  0
M  END
>  <MODEL>
7

>  <REMARK>
 VINA RESULT:      -7.3      2.724      7.032
  Name = 
  5 active torsions:
  status: ('A' for Active; 'I' for Inactive)
    1  A    between atoms: C_3  and  C_5
    2  A    between atoms: C_3  and  O_29
    3  A    between atoms: C_7  and  N_23
    4  A    between atoms: C_16  and  O_29
    5  A    between atoms: C_19  and  N_23
                            x       y       z     vdW  Elec       q    Type
                         _______ _______ _______ _____ _____    ______ ____

>  <TORSDO>
F 5

$$$$
=
 OpenBabel11062422283D

 36 41  0  0  1  0  0  0  0  0999 V2000
  196.3560  173.4610  144.6740 C   0  0  0  0  0  2  0  0  0  0  0  0
  192.7000  170.9660  141.2720 C   0  0  0  0  0  2  0  0  0  0  0  0
  189.8550  176.3540  144.5720 C   0  0  1  0  0  3  0  0  0  0  0  0
  190.6650  172.8240  143.1090 C   0  0  2  0  0  3  0  0  0  0  0  0
  189.0160  173.9280  141.5490 C   0  0  2  0  0  3  0  0  0  0  0  0
  193.6290  174.5400  144.5380 C   0  0  2  0  0  3  0  0  0  0  0  0
  194.0880  173.4460  143.6000 C   0  0  0  0  0  0  0  0  0  0  0  0
  188.7350  174.9780  142.6390 C   0  0  0  0  0  2  0  0  0  0  0  0
  194.1450  176.0370  146.4750 C   0  0  0  0  0  2  0  0  0  0  0  0
  191.1190  177.9590  143.2710 O   0  0  0  0  0  1  0  0  0  0  0  0
  189.9640  175.2350  143.5180 C   0  0  2  0  0  3  0  0  0  0  0  0
  193.1340  172.7990  142.7380 N   0  0  0  0  0  0  0  0  0  0  0  0
  192.0250  170.7180  142.6070 C   0  0  1  0  0  3  0  0  0  0  0  0
  192.0010  172.0750  143.3080 C   0  0  2  0  0  3  0  0  0  0  0  0
  195.7100  174.1390  145.8780 C   0  0  0  0  0  2  0  0  0  0  0  0
  190.4010  173.2760  141.6650 C   0  0  0  0  0  2  0  0  0  0  0  0
  192.9320  176.8240  146.0150 C   0  0  0  0  0  3  0  0  0  0  0  0
  192.3460  176.6320  144.8160 C   0  0  0  0  0  0  0  0  0  0  0  0
  192.9410  175.6760  143.8060 C   0  0  0  0  0  2  0  0  0  0  0  0
  193.5830  172.1810  141.4960 C   0  0  0  0  0  2  0  0  0  0  0  0
  190.4570  173.9330  144.1510 C   0  0  0  0  0  2  0  0  0  0  0  0
  194.7520  175.1910  145.3520 C   0  0  1  0  0  3  0  0  0  0  0  0
  190.7500  170.1730  142.4270 O   0  0  0  0  0  1  0  0  0  0  0  0
  195.3190  172.9170  143.7300 C   0  0  0  0  0  3  0  0  0  0  0  0
  191.0480  177.3230  144.5130 C   0  0  2  0  0  3  0  0  0  0  0  0
  188.5530  177.0970  144.5740 C   0  0  0  0  0  0  0  0  0  0  0  0
  188.3100  177.9170  143.6480 O   0  0  0  0  0  0  0  0  0  0  0  0
  187.6290  176.8840  145.6010 O   0  0  0  0  0  0  0  0  0  0  0  0
  186.7040  177.8830  146.0090 C   0  0  2  0  0  3  0  0  0  0  0  0
  184.4410  177.8080  146.5500 C   0  0  0  0  0  2  0  0  0  0  0  0
  186.5410  177.8430  147.4030 O   0  0  0  0  0  0  0  0  0  0  0  0
  185.2750  178.2910  147.6380 N   0  0  0  0  0  2  0  0  0  0  0  0
  185.3630  177.6050  145.3930 C   0  0  0  0  0  2  0  0  0  0  0  0
  188.8710  174.5390  140.2380 N   0  0  0  0  0  2  0  0  0  0  0  0
  188.1930  172.6880  138.8170 C   0  0  0  0  0  1  0  0  0  0  0  0
  189.3400  173.5750  139.2560 C   0  0  0  0  0  2  0  0  0  0  0  0
  1 15  1  0  0  0  0
  2 20  1  0  0  0  0
  2 13  1  0  0  0  0
  3 26  1  6  0  0  0
  4 16  1  6  0  0  0
  4 14  1  0  0  0  0
  4 21  1  0  0  0  0
  5 34  1  6  0  0  0
  5 16  1  0  0  0  0
  5  8  1  0  0  0  0
  6 19  1  6  0  0  0
  6 22  1  0  0  0  0
  7 24  2  0  0  0  0
  7  6  1  0  0  0  0
 11  8  1  1  0  0  0
 11 21  1  0  0  0  0
 11  3  1  0  0  0  0
 12  7  1  0  0  0  0
 13 23  1  6  0  0  0
 13 14  1  0  0  0  0
 14 12  1  6  0  0  0
 17  9  1  0  0  0  0
 18 17  2  0  0  0  0
 19 18  1  0  0  0  0
 20 12  1  0  0  0  0
 22 15  1  1  0  0  0
 22  9  1  0  0  0  0
 24  1  1  0  0  0  0
 25 10  1  6  0  0  0
 25  3  1  0  0  0  0
 25 18  1  0  0  0  0
 26 28  1  0  0  0  0
 27 26  2  0  0  0  0
 29 28  1  6  0  0  0
 29 31  1  0  0  0  0
 30 32  1  0  0  0  0
 31 32  1  0  0  0  0
 33 29  1  0  0  0  0
 33 30  1  0  0  0  0
 35 36  1  0  0  0  0
 36 34  1  0  0  0  0
M  END
>  <MODEL>
8

>  <REMARK>
 VINA RESULT:      -7.3      1.672      2.063
  Name = 
  5 active torsions:
  status: ('A' for Active; 'I' for Inactive)
    1  A    between atoms: C_3  and  C_5
    2  A    between atoms: C_3  and  O_29
    3  A    between atoms: C_7  and  N_23
    4  A    between atoms: C_16  and  O_29
    5  A    between atoms: C_19  and  N_23
                            x       y       z     vdW  Elec       q    Type
                         _______ _______ _______ _____ _____    ______ ____

>  <TORSDO>
F 5

$$$$
=
 OpenBabel11062422283D

 36 41  0  0  1  0  0  0  0  0999 V2000
  185.5900  179.1170  147.4790 C   0  0  0  0  0  2  0  0  0  0  0  0
  190.4250  176.3300  147.6060 C   0  0  0  0  0  2  0  0  0  0  0  0
  187.4710  176.0420  141.3440 C   0  0  1  0  0  3  0  0  0  0  0  0
  189.1310  175.1940  144.7760 C   0  0  2  0  0  3  0  0  0  0  0  0
  190.9600  175.2090  143.0360 C   0  0  2  0  0  3  0  0  0  0  0  0
  186.4870  177.7870  145.0210 C   0  0  2  0  0  3  0  0  0  0  0  0
  187.3750  177.8610  146.2430 C   0  0  0  0  0  0  0  0  0  0  0  0
  189.8760  175.1820  141.9430 C   0  0  0  0  0  2  0  0  0  0  0  0
  184.2690  178.2730  143.9710 C   0  0  0  0  0  2  0  0  0  0  0  0
  187.9560  178.3710  140.8870 O   0  0  0  0  0  1  0  0  0  0  0  0
  188.5930  175.8910  142.3890 C   0  0  2  0  0  3  0  0  0  0  0  0
  188.6120  177.1260  146.2710 N   0  0  0  0  0  0  0  0  0  0  0  0
  189.4730  175.1870  147.3100 C   0  0  1  0  0  3  0  0  0  0  0  0
  188.6070  175.6710  146.1480 C   0  0  2  0  0  3  0  0  0  0  0  0
  184.5920  178.5690  146.4640 C   0  0  0  0  0  2  0  0  0  0  0  0
  190.4780  175.8080  144.3650 C   0  0  0  0  0  2  0  0  0  0  0  0
  184.9840  178.0070  142.6590 C   0  0  0  0  0  3  0  0  0  0  0  0
  186.3270  177.9270  142.5600 C   0  0  0  0  0  0  0  0  0  0  0  0
  187.2110  178.2060  143.7560 C   0  0  0  0  0  2  0  0  0  0  0  0
  189.7040  177.5780  147.1250 C   0  0  0  0  0  2  0  0  0  0  0  0
  188.0570  175.2720  143.6820 C   0  0  0  0  0  2  0  0  0  0  0  0
  185.2340  178.6650  145.0930 C   0  0  1  0  0  3  0  0  0  0  0  0
  190.1780  174.0160  147.0170 O   0  0  0  0  0  1  0  0  0  0  0  0
  186.9140  178.4120  147.3810 C   0  0  0  0  0  3  0  0  0  0  0  0
  186.9440  177.4850  141.2650 C   0  0  2  0  0  3  0  0  0  0  0  0
  187.7990  175.5100  139.9820 C   0  0  0  0  0  0  0  0  0  0  0  0
  187.2720  176.0440  138.9680 O   0  0  0  0  0  0  0  0  0  0  0  0
  188.6730  174.4280  139.8460 O   0  0  0  0  0  0  0  0  0  0  0  0
  188.5490  173.4790  138.7950 C   0  0  2  0  0  3  0  0  0  0  0  0
  190.1140  172.4200  137.4360 C   0  0  0  0  0  2  0  0  0  0  0  0
  188.8190  172.1890  139.2800 O   0  0  0  0  0  0  0  0  0  0  0  0
  189.3150  171.4940  138.2200 N   0  0  0  0  0  2  0  0  0  0  0  0
  189.5630  173.7770  137.7290 C   0  0  0  0  0  2  0  0  0  0  0  0
  192.1160  175.9490  142.5560 N   0  0  0  0  0  2  0  0  0  0  0  0
  194.1140  176.0320  143.9360 C   0  0  0  0  0  1  0  0  0  0  0  0
  192.7260  176.5950  143.7070 C   0  0  0  0  0  2  0  0  0  0  0  0
  3 26  1  6  0  0  0
  3 11  1  0  0  0  0
  4 21  1  6  0  0  0
  4 14  1  0  0  0  0
  5 34  1  6  0  0  0
  5 16  1  0  0  0  0
  6 19  1  6  0  0  0
  6 22  1  0  0  0  0
  6  7  1  0  0  0  0
  7 12  1  0  0  0  0
  7 24  2  0  0  0  0
  8  5  1  0  0  0  0
 11  8  1  6  0  0  0
 11 21  1  0  0  0  0
 12 20  1  0  0  0  0
 13 23  1  6  0  0  0
 13  2  1  0  0  0  0
 14 12  1  6  0  0  0
 14 13  1  0  0  0  0
 15  1  1  0  0  0  0
 16  4  1  0  0  0  0
 17  9  1  0  0  0  0
 18 17  2  0  0  0  0
 18 19  1  0  0  0  0
 20  2  1  0  0  0  0
 22  9  1  6  0  0  0
 22 15  1  0  0  0  0
 24  1  1  0  0  0  0
 25 10  1  1  0  0  0
 25  3  1  0  0  0  0
 25 18  1  0  0  0  0
 27 26  2  0  0  0  0
 28 26  1  0  0  0  0
 29 31  1  0  0  0  0
 29 28  1  1  0  0  0
 30 33  1  0  0  0  0
 30 32  1  0  0  0  0
 32 31  1  0  0  0  0
 33 29  1  0  0  0  0
 34 36  1  0  0  0  0
 36 35  1  0  0  0  0
M  END
>  <MODEL>
9

>  <REMARK>
 VINA RESULT:      -7.2      2.573      7.558
  Name = 
  5 active torsions:
  status: ('A' for Active; 'I' for Inactive)
    1  A    between atoms: C_3  and  C_5
    2  A    between atoms: C_3  and  O_29
    3  A    between atoms: C_7  and  N_23
    4  A    between atoms: C_16  and  O_29
    5  A    between atoms: C_19  and  N_23
                            x       y       z     vdW  Elec       q    Type
                         _______ _______ _______ _____ _____    ______ ____

>  <TORSDO>
F 5

$$$$
