=
 OpenBabel11072409303D

 40 43  0  0  1  0  0  0  0  0999 V2000
  185.4360  178.6790  142.6380 C   0  0  0  0  0  0  0  0  0  0  0  0
  191.9830  174.3330  145.4270 C   0  0  2  0  0  3  0  0  0  0  0  0
  187.9690  174.5110  141.5320 C   0  0  0  0  0  0  0  0  0  0  0  0
  184.3270  179.1730  142.9790 O   0  0  0  0  0  0  0  0  0  0  0  0
  190.8950  175.0880  146.1950 C   0  0  1  0  0  3  0  0  0  0  0  0
  190.1950  172.8570  139.7910 C   0  0  2  0  0  3  0  0  0  0  0  0
  192.7290  173.5240  141.7060 C   0  0  1  0  0  0  0  0  0  0  0  0
  187.1300  175.5610  141.8930 O   0  0  0  0  0  0  0  0  0  0  0  0
  192.4330  172.0230  141.4720 C   0  0  0  0  0  2  0  0  0  0  0  0
  192.0860  171.5950  140.0290 C   0  0  0  0  0  2  0  0  0  0  0  0
  186.9520  177.7580  140.9040 C   0  0  0  0  0  2  0  0  0  0  0  0
  194.0200  173.8980  140.9890 C   0  0  0  0  0  1  0  0  0  0  0  0
  194.9790  172.7510  143.3910 O   0  0  0  0  0  0  0  0  0  0  0  0
  186.6190  178.7000  143.5690 C   0  0  1  0  0  3  0  0  0  0  0  0
  189.2580  174.7790  141.0650 O   0  0  0  0  0  0  0  0  0  0  0  0
  190.4550  176.4120  145.5480 C   0  0  0  0  0  2  0  0  0  0  0  0
  189.3740  176.2260  144.4900 C   0  0  0  0  0  2  0  0  0  0  0  0
  189.3600  173.4360  138.7500 N   0  0  0  0  0  1  0  0  0  0  0  0
  194.0740  173.4740  143.8900 C   0  0  0  0  0  0  0  0  0  0  0  0
  190.2770  173.7900  141.0240 C   0  0  2  0  0  3  0  0  0  0  0  0
  187.6190  176.8920  141.9730 C   0  0  1  0  0  3  0  0  0  0  0  0
  194.2020  173.9810  145.3070 C   0  0  2  0  0  3  0  0  0  0  0  0
  185.6120  178.1350  141.3260 N   0  0  0  0  0  0  0  0  0  0  0  0
  193.2270  174.9630  145.5770 O   0  0  0  0  0  0  0  0  0  0  0  0
  191.6450  174.4600  141.1280 C   0  0  0  0  0  2  0  0  0  0  0  0
  191.4760  172.6060  139.2620 O   0  0  0  0  0  0  0  0  0  0  0  0
  187.5620  173.3240  141.6490 O   0  0  0  0  0  0  0  0  0  0  0  0
  192.8560  173.7490  143.1640 N   0  0  0  0  0  0  0  0  0  0  0  0
  191.6630  174.1440  143.9370 C   0  0  0  0  0  2  0  0  0  0  0  0
  184.4870  177.9160  140.4340 C   0  0  0  0  0  1  0  0  0  0  0  0
  186.1820  178.8650  145.0180 C   0  0  0  0  0  1  0  0  0  0  0  0
  187.4550  177.4150  143.4180 C   0  0  1  0  0  3  0  0  0  0  0  0
  188.8140  177.5790  144.0870 C   0  0  0  0  0  2  0  0  0  0  0  0
  189.7400  174.1650  146.5760 C   0  0  0  0  0  2  0  0  0  0  0  0
  188.9430  174.7350  147.7380 C   0  0  0  0  0  2  0  0  0  0  0  0
  187.8710  175.4930  147.2640 O   0  0  0  0  0  1  0  0  0  0  0  0
  195.6010  174.5240  145.6050 C   0  0  0  0  0  2  0  0  0  0  0  0
  197.0070  175.3950  143.8820 O   0  0  0  0  0  0  0  0  0  0  0  0
  196.0200  175.5860  144.6390 C   0  0  0  0  0  0  0  0  0  0  0  0
  195.3380  176.7940  144.5930 O   0  0  0  0  0  1  0  0  0  0  0  0
  1  4  2  0  0  0  0
  1 14  1  0  0  0  0
  2 29  1  6  0  0  0
  2 24  1  0  0  0  0
  2  5  1  0  0  0  0
  3 27  2  0  0  0  0
  3  8  1  0  0  0  0
  5 34  1  6  0  0  0
  6 18  1  6  0  0  0
  6 20  1  0  0  0  0
  7 12  1  6  0  0  0
  7 28  1  0  0  0  0
  8 21  1  0  0  0  0
  9  7  1  0  0  0  0
 10  9  1  0  0  0  0
 11 23  1  0  0  0  0
 13 19  2  0  0  0  0
 14 31  1  1  0  0  0
 15  3  1  0  0  0  0
 16  5  1  0  0  0  0
 17 16  1  0  0  0  0
 19 22  1  0  0  0  0
 20 15  1  0  0  0  0
 20 25  1  6  0  0  0
 21 11  1  6  0  0  0
 21 32  1  0  0  0  0
 22 24  1  0  0  0  0
 22 37  1  6  0  0  0
 23  1  1  0  0  0  0
 25  7  1  0  0  0  0
 26  6  1  0  0  0  0
 26 10  1  0  0  0  0
 28 19  1  0  0  0  0
 28 29  1  0  0  0  0
 30 23  1  0  0  0  0
 32 14  1  0  0  0  0
 32 33  1  6  0  0  0
 33 17  1  0  0  0  0
 34 35  1  0  0  0  0
 36 35  1  0  0  0  0
 38 39  2  0  0  0  0
 39 37  1  0  0  0  0
 40 39  1  0  0  0  0
M  END
>  <MODEL>
1

>  <REMARK>
 VINA RESULT:      -8.3      0.000      0.000
  Name = 
  4 active torsions:
  status: ('A' for Active; 'I' for Inactive)
    1  A    between atoms: C_3  and  C_18
    2  A    between atoms: C_7  and  C_18
    3  A    between atoms: C_21  and  C_38
    4  A    between atoms: C_26  and  C_38
                            x       y       z     vdW  Elec       q    Type
                         _______ _______ _______ _____ _____    ______ ____

>  <TORSDO>
F 4

$$$$
=
 OpenBabel11072409303D

 40 43  0  0  1  0  0  0  0  0999 V2000
  196.7230  170.4050  144.4180 C   0  0  0  0  0  0  0  0  0  0  0  0
  190.6080  176.0740  144.4860 C   0  0  2  0  0  3  0  0  0  0  0  0
  193.4190  172.4550  141.2740 C   0  0  0  0  0  0  0  0  0  0  0  0
  197.9410  170.2250  144.6880 O   0  0  0  0  0  0  0  0  0  0  0  0
  191.9580  176.0630  145.2090 C   0  0  1  0  0  3  0  0  0  0  0  0
  190.5960  172.4120  139.6140 C   0  0  2  0  0  3  0  0  0  0  0  0
  188.7880  173.7920  141.9300 C   0  0  1  0  0  0  0  0  0  0  0  0
  194.4650  171.9780  142.0580 O   0  0  0  0  0  0  0  0  0  0  0  0
  188.7940  174.5070  140.5580 C   0  0  0  0  0  2  0  0  0  0  0  0
  188.6780  173.6150  139.3020 C   0  0  0  0  0  2  0  0  0  0  0  0
  194.6840  169.8240  143.1310 C   0  0  0  0  0  2  0  0  0  0  0  0
  187.4190  173.1640  142.1620 C   0  0  0  0  0  1  0  0  0  0  0  0
  186.9830  175.8530  142.9250 O   0  0  0  0  0  0  0  0  0  0  0  0
  195.8470  171.2580  145.2970 C   0  0  1  0  0  3  0  0  0  0  0  0
  192.1030  172.0860  141.5680 O   0  0  0  0  0  0  0  0  0  0  0  0
  192.3940  174.6850  145.7340 C   0  0  0  0  0  2  0  0  0  0  0  0
  193.1150  173.8490  144.6840 C   0  0  0  0  0  2  0  0  0  0  0  0
  191.1970  171.1440  139.2310 N   0  0  0  0  0  1  0  0  0  0  0  0
  188.0820  175.6770  143.5190 C   0  0  0  0  0  0  0  0  0  0  0  0
  190.9800  172.7960  141.0650 C   0  0  2  0  0  3  0  0  0  0  0  0
  194.2100  171.2720  143.2640 C   0  0  1  0  0  3  0  0  0  0  0  0
  188.4110  176.4730  144.7600 C   0  0  2  0  0  3  0  0  0  0  0  0
  196.1270  169.7510  143.2940 N   0  0  0  0  0  0  0  0  0  0  0  0
  189.5520  175.9510  145.4020 O   0  0  0  0  0  0  0  0  0  0  0  0
  189.8000  172.6290  142.0180 C   0  0  0  0  0  2  0  0  0  0  0  0
  189.1980  172.3170  139.4700 O   0  0  0  0  0  0  0  0  0  0  0  0
  193.6680  173.2330  140.3140 O   0  0  0  0  0  0  0  0  0  0  0  0
  189.0890  174.7940  142.9760 N   0  0  0  0  0  0  0  0  0  0  0  0
  190.4880  174.9990  143.3950 C   0  0  0  0  0  2  0  0  0  0  0  0
  196.9300  169.0580  142.3010 C   0  0  0  0  0  1  0  0  0  0  0  0
  196.6740  172.2220  146.1370 C   0  0  0  0  0  1  0  0  0  0  0  0
  194.8270  172.0440  144.4520 C   0  0  1  0  0  3  0  0  0  0  0  0
  193.7340  172.6270  145.3390 C   0  0  0  0  0  2  0  0  0  0  0  0
  193.0290  176.7890  144.3980 C   0  0  0  0  0  2  0  0  0  0  0  0
  194.2050  177.1870  145.2750 C   0  0  0  0  0  2  0  0  0  0  0  0
  195.3770  176.5860  144.8130 O   0  0  0  0  0  1  0  0  0  0  0  0
  187.2350  176.5390  145.7360 C   0  0  0  0  0  2  0  0  0  0  0  0
  186.3600  178.3630  147.0040 O   0  0  0  0  0  1  0  0  0  0  0  0
  186.6810  177.9210  145.8710 C   0  0  0  0  0  0  0  0  0  0  0  0
  186.4930  178.7090  144.7430 O   0  0  0  0  0  0  0  0  0  0  0  0
  1  4  2  0  0  0  0
  1 14  1  0  0  0  0
  2 29  1  6  0  0  0
  2  5  1  0  0  0  0
  2 24  1  0  0  0  0
  3 15  1  0  0  0  0
  3  8  1  0  0  0  0
  5 34  1  6  0  0  0
  5 16  1  0  0  0  0
  6 18  1  1  0  0  0
  6 20  1  0  0  0  0
  7 25  1  0  0  0  0
  7 12  1  1  0  0  0
  7 28  1  0  0  0  0
  8 21  1  0  0  0  0
  9  7  1  0  0  0  0
 10 26  1  0  0  0  0
 10  9  1  0  0  0  0
 11 23  1  0  0  0  0
 13 19  2  0  0  0  0
 14 31  1  6  0  0  0
 17 33  1  0  0  0  0
 17 16  1  0  0  0  0
 19 22  1  0  0  0  0
 20 15  1  0  0  0  0
 20 25  1  1  0  0  0
 21 11  1  6  0  0  0
 21 32  1  0  0  0  0
 22 24  1  0  0  0  0
 22 37  1  1  0  0  0
 23  1  1  0  0  0  0
 26  6  1  0  0  0  0
 27  3  2  0  0  0  0
 28 29  1  0  0  0  0
 28 19  1  0  0  0  0
 30 23  1  0  0  0  0
 32 14  1  0  0  0  0
 32 33  1  1  0  0  0
 34 35  1  0  0  0  0
 36 35  1  0  0  0  0
 37 39  1  0  0  0  0
 39 38  1  0  0  0  0
 40 39  2  0  0  0  0
M  END
>  <MODEL>
2

>  <REMARK>
 VINA RESULT:      -7.6      2.496      7.958
  Name = 
  4 active torsions:
  status: ('A' for Active; 'I' for Inactive)
    1  A    between atoms: C_3  and  C_18
    2  A    between atoms: C_7  and  C_18
    3  A    between atoms: C_21  and  C_38
    4  A    between atoms: C_26  and  C_38
                            x       y       z     vdW  Elec       q    Type
                         _______ _______ _______ _____ _____    ______ ____

>  <TORSDO>
F 4

$$$$
=
 OpenBabel11072409303D

 40 43  0  0  1  0  0  0  0  0999 V2000
  187.7010  177.4950  145.0800 C   0  0  0  0  0  0  0  0  0  0  0  0
  194.6520  173.3130  143.1500 C   0  0  2  0  0  3  0  0  0  0  0  0
  189.1270  173.5820  142.3120 C   0  0  0  0  0  0  0  0  0  0  0  0
  186.9930  177.8950  146.0440 O   0  0  0  0  0  0  0  0  0  0  0  0
  194.2090  173.9400  144.4740 C   0  0  1  0  0  3  0  0  0  0  0  0
  189.9360  172.2050  139.4530 C   0  0  2  0  0  3  0  0  0  0  0  0
  193.1120  172.8550  139.6180 C   0  0  1  0  0  0  0  0  0  0  0  0
  188.6510  174.5490  143.1920 O   0  0  0  0  0  0  0  0  0  0  0  0
  192.7330  171.3640  139.4500 C   0  0  0  0  0  2  0  0  0  0  0  0
  191.6160  171.0360  138.4340 C   0  0  0  0  0  2  0  0  0  0  0  0
  187.9360  176.8060  142.7090 C   0  0  0  0  0  2  0  0  0  0  0  0
  193.7520  173.3590  138.3310 C   0  0  0  0  0  1  0  0  0  0  0  0
  195.9210  172.0760  139.6160 O   0  0  0  0  0  0  0  0  0  0  0  0
  189.2040  177.5060  145.1590 C   0  0  1  0  0  3  0  0  0  0  0  0
  189.9090  173.9600  141.2180 O   0  0  0  0  0  0  0  0  0  0  0  0
  193.4760  175.2850  144.3340 C   0  0  0  0  0  2  0  0  0  0  0  0
  191.9830  175.1260  144.0770 C   0  0  0  0  0  2  0  0  0  0  0  0
  188.6530  172.8180  139.1460 N   0  0  0  0  0  1  0  0  0  0  0  0
  195.4710  172.7030  140.6140 C   0  0  0  0  0  0  0  0  0  0  0  0
  190.7160  173.0370  140.5000 C   0  0  2  0  0  3  0  0  0  0  0  0
  189.0980  175.8950  143.1070 C   0  0  1  0  0  3  0  0  0  0  0  0
  196.3940  173.0990  141.7420 C   0  0  2  0  0  3  0  0  0  0  0  0
  187.0870  177.0710  143.8600 N   0  0  0  0  0  0  0  0  0  0  0  0
  195.7550  173.9990  142.6200 O   0  0  0  0  0  0  0  0  0  0  0  0
  191.8940  173.7720  139.8650 C   0  0  0  0  0  2  0  0  0  0  0  0
  190.6760  172.0710  138.2620 O   0  0  0  0  0  0  0  0  0  0  0  0
  188.8600  172.3680  142.5220 O   0  0  0  0  0  0  0  0  0  0  0  0
  194.0570  172.9670  140.7520 N   0  0  0  0  0  0  0  0  0  0  0  0
  193.5300  173.2290  142.1050 C   0  0  0  0  0  2  0  0  0  0  0  0
  185.6520  176.8620  143.7600 C   0  0  0  0  0  1  0  0  0  0  0  0
  189.6850  177.5280  146.6040 C   0  0  0  0  0  1  0  0  0  0  0  0
  189.7980  176.2880  144.4280 C   0  0  1  0  0  3  0  0  0  0  0  0
  191.2950  176.4730  144.2060 C   0  0  0  0  0  2  0  0  0  0  0  0
  193.4850  172.9250  145.3560 C   0  0  0  0  0  2  0  0  0  0  0  0
  194.2750  171.6320  145.4660 C   0  0  0  0  0  2  0  0  0  0  0  0
  193.5310  170.5660  144.9580 O   0  0  0  0  0  1  0  0  0  0  0  0
  197.7090  173.6940  141.2340 C   0  0  0  0  0  2  0  0  0  0  0  0
  197.3750  175.7220  140.0180 O   0  0  0  0  0  0  0  0  0  0  0  0
  197.6550  175.1840  141.1200 C   0  0  0  0  0  0  0  0  0  0  0  0
  197.9410  175.9770  142.2230 O   0  0  0  0  0  1  0  0  0  0  0  0
  1 14  1  0  0  0  0
  1  4  2  0  0  0  0
  2 29  1  6  0  0  0
  2  5  1  0  0  0  0
  3 27  2  0  0  0  0
  3  8  1  0  0  0  0
  5 34  1  6  0  0  0
  6 18  1  6  0  0  0
  6 20  1  0  0  0  0
  7 12  1  6  0  0  0
  7 25  1  0  0  0  0
  7 28  1  0  0  0  0
  9  7  1  0  0  0  0
 10  9  1  0  0  0  0
 11 23  1  0  0  0  0
 13 19  2  0  0  0  0
 14 31  1  1  0  0  0
 15  3  1  0  0  0  0
 16  5  1  0  0  0  0
 17 33  1  0  0  0  0
 17 16  1  0  0  0  0
 19 28  1  0  0  0  0
 19 22  1  0  0  0  0
 20 25  1  6  0  0  0
 20 15  1  0  0  0  0
 21 11  1  1  0  0  0
 21  8  1  0  0  0  0
 21 32  1  0  0  0  0
 22 37  1  6  0  0  0
 22 24  1  0  0  0  0
 23  1  1  0  0  0  0
 24  2  1  0  0  0  0
 26 10  1  0  0  0  0
 26  6  1  0  0  0  0
 28 29  1  0  0  0  0
 30 23  1  0  0  0  0
 32 33  1  6  0  0  0
 32 14  1  0  0  0  0
 34 35  1  0  0  0  0
 36 35  1  0  0  0  0
 38 39  2  0  0  0  0
 39 37  1  0  0  0  0
 39 40  1  0  0  0  0
M  END
>  <MODEL>
3

>  <REMARK>
 VINA RESULT:      -7.1      2.120      3.399
  Name = 
  4 active torsions:
  status: ('A' for Active; 'I' for Inactive)
    1  A    between atoms: C_3  and  C_18
    2  A    between atoms: C_7  and  C_18
    3  A    between atoms: C_21  and  C_38
    4  A    between atoms: C_26  and  C_38
                            x       y       z     vdW  Elec       q    Type
                         _______ _______ _______ _____ _____    ______ ____

>  <TORSDO>
F 4

$$$$
=
 OpenBabel11072409303D

 40 43  0  0  1  0  0  0  0  0999 V2000
  195.6900  173.2410  136.8180 C   0  0  0  0  0  0  0  0  0  0  0  0
  189.1870  174.0640  141.9720 C   0  0  2  0  0  3  0  0  0  0  0  0
  194.7740  174.0700  141.6640 C   0  0  0  0  0  0  0  0  0  0  0  0
  196.2190  172.4750  135.9670 O   0  0  0  0  0  0  0  0  0  0  0  0
  189.3920  173.1290  140.7770 C   0  0  1  0  0  3  0  0  0  0  0  0
  194.4760  176.0550  144.2510 C   0  0  2  0  0  3  0  0  0  0  0  0
  191.3200  176.7000  143.8580 C   0  0  1  0  0  0  0  0  0  0  0  0
  195.0870  173.6750  140.3670 O   0  0  0  0  0  0  0  0  0  0  0  0
  191.7240  176.1000  145.2260 C   0  0  0  0  0  2  0  0  0  0  0  0
  193.0010  176.6640  145.8880 C   0  0  0  0  0  2  0  0  0  0  0  0
  195.8730  175.0290  138.5260 C   0  0  0  0  0  2  0  0  0  0  0  0
  190.9130  178.1560  144.0490 C   0  0  0  0  0  1  0  0  0  0  0  0
  188.5550  176.7740  144.7790 O   0  0  0  0  0  0  0  0  0  0  0  0
  194.1960  173.4080  136.8950 C   0  0  1  0  0  3  0  0  0  0  0  0
  194.1930  175.3210  141.8900 O   0  0  0  0  0  0  0  0  0  0  0  0
  190.1360  173.7610  139.5880 C   0  0  0  0  0  2  0  0  0  0  0  0
  191.6510  173.6810  139.7240 C   0  0  0  0  0  2  0  0  0  0  0  0
  195.7920  176.4100  143.7420 N   0  0  0  0  0  1  0  0  0  0  0  0
  188.8230  176.1230  143.7330 C   0  0  0  0  0  0  0  0  0  0  0  0
  193.5240  175.6450  143.1000 C   0  0  2  0  0  3  0  0  0  0  0  0
  194.6610  174.4390  139.2480 C   0  0  1  0  0  3  0  0  0  0  0  0
  187.7180  175.4630  142.9440 C   0  0  2  0  0  3  0  0  0  0  0  0
  196.5080  174.0160  137.6990 N   0  0  0  0  0  0  0  0  0  0  0  0
  188.1920  175.0140  141.6940 O   0  0  0  0  0  0  0  0  0  0  0  0
  192.4750  176.7200  142.8330 C   0  0  0  0  0  2  0  0  0  0  0  0
  193.9550  177.1480  144.9720 O   0  0  0  0  0  0  0  0  0  0  0  0
  195.0010  173.2850  142.6230 O   0  0  0  0  0  0  0  0  0  0  0  0
  190.1910  175.9070  143.3200 N   0  0  0  0  0  0  0  0  0  0  0  0
  190.4740  174.7650  142.4300 C   0  0  0  0  0  2  0  0  0  0  0  0
  197.9380  173.7860  137.8120 C   0  0  0  0  0  1  0  0  0  0  0  0
  193.4710  172.2300  136.2580 C   0  0  0  0  0  1  0  0  0  0  0  0
  193.7400  173.5750  138.3560 C   0  0  1  0  0  3  0  0  0  0  0  0
  192.3050  174.0850  138.4150 C   0  0  0  0  0  2  0  0  0  0  0  0
  189.9530  171.7780  141.2170 C   0  0  0  0  0  2  0  0  0  0  0  0
  189.7080  171.5390  142.6970 C   0  0  0  0  0  2  0  0  0  0  0  0
  190.9200  171.3380  143.3610 O   0  0  0  0  0  1  0  0  0  0  0  0
  186.5100  176.3840  142.7540 C   0  0  0  0  0  2  0  0  0  0  0  0
  187.3370  178.5110  142.0490 O   0  0  0  0  0  1  0  0  0  0  0  0
  186.7550  177.4420  141.7270 C   0  0  0  0  0  0  0  0  0  0  0  0
  186.3170  177.2610  140.4220 O   0  0  0  0  0  0  0  0  0  0  0  0
  1 14  1  0  0  0  0
  1 23  1  0  0  0  0
  2 29  1  6  0  0  0
  3 15  1  0  0  0  0
  3 27  2  0  0  0  0
  4  1  2  0  0  0  0
  5 34  1  1  0  0  0
  5  2  1  0  0  0  0
  6 18  1  6  0  0  0
  6 26  1  0  0  0  0
  7 12  1  1  0  0  0
  7  9  1  0  0  0  0
  8  3  1  0  0  0  0
  9 10  1  0  0  0  0
 14 31  1  1  0  0  0
 14 32  1  0  0  0  0
 15 20  1  0  0  0  0
 16 17  1  0  0  0  0
 16  5  1  0  0  0  0
 19 13  2  0  0  0  0
 20 25  1  6  0  0  0
 20  6  1  0  0  0  0
 21 11  1  6  0  0  0
 21  8  1  0  0  0  0
 22 37  1  6  0  0  0
 22 19  1  0  0  0  0
 23 30  1  0  0  0  0
 23 11  1  0  0  0  0
 24  2  1  0  0  0  0
 24 22  1  0  0  0  0
 25  7  1  0  0  0  0
 26 10  1  0  0  0  0
 28 19  1  0  0  0  0
 28  7  1  0  0  0  0
 29 28  1  0  0  0  0
 32 33  1  6  0  0  0
 32 21  1  0  0  0  0
 33 17  1  0  0  0  0
 34 35  1  0  0  0  0
 35 36  1  0  0  0  0
 39 38  1  0  0  0  0
 39 37  1  0  0  0  0
 40 39  2  0  0  0  0
M  END
>  <MODEL>
4

>  <REMARK>
 VINA RESULT:      -7.0      2.920      8.291
  Name = 
  4 active torsions:
  status: ('A' for Active; 'I' for Inactive)
    1  A    between atoms: C_3  and  C_18
    2  A    between atoms: C_7  and  C_18
    3  A    between atoms: C_21  and  C_38
    4  A    between atoms: C_26  and  C_38
                            x       y       z     vdW  Elec       q    Type
                         _______ _______ _______ _____ _____    ______ ____

>  <TORSDO>
F 4

$$$$
=
 OpenBabel11072409303D

 40 43  0  0  1  0  0  0  0  0999 V2000
  194.7160  169.4230  143.2220 C   0  0  0  0  0  0  0  0  0  0  0  0
  190.9370  176.6090  145.1190 C   0  0  2  0  0  3  0  0  0  0  0  0
  191.9550  172.9560  141.0060 C   0  0  0  0  0  0  0  0  0  0  0  0
  195.8240  168.8220  143.2500 O   0  0  0  0  0  0  0  0  0  0  0  0
  192.2780  176.0410  145.5900 C   0  0  1  0  0  3  0  0  0  0  0  0
  189.1100  174.1110  139.8690 C   0  0  2  0  0  3  0  0  0  0  0  0
  188.1620  175.5330  142.6290 C   0  0  1  0  0  0  0  0  0  0  0  0
  192.8620  172.0360  141.5250 O   0  0  0  0  0  0  0  0  0  0  0  0
  188.2490  176.4530  141.3870 C   0  0  0  0  0  2  0  0  0  0  0  0
  187.6900  175.8930  140.0610 C   0  0  0  0  0  2  0  0  0  0  0  0
  192.4640  169.7630  142.2390 C   0  0  0  0  0  2  0  0  0  0  0  0
  186.7000  175.3360  143.0060 C   0  0  0  0  0  1  0  0  0  0  0  0
  187.2940  177.8340  144.1940 O   0  0  0  0  0  0  0  0  0  0  0  0
  194.2920  170.3290  144.3470 C   0  0  1  0  0  3  0  0  0  0  0  0
  190.6370  172.9710  141.4700 O   0  0  0  0  0  0  0  0  0  0  0  0
  192.2800  174.5230  145.8380 C   0  0  0  0  0  2  0  0  0  0  0  0
  192.5460  173.7140  144.5750 C   0  0  0  0  0  2  0  0  0  0  0  0
  189.1970  172.8140  139.2180 N   0  0  0  0  0  1  0  0  0  0  0  0
  188.3300  177.2140  144.5590 C   0  0  0  0  0  0  0  0  0  0  0  0
  189.7700  174.0780  141.2700 C   0  0  2  0  0  3  0  0  0  0  0  0
  192.5270  171.2350  142.6490 C   0  0  1  0  0  3  0  0  0  0  0  0
  189.0530  177.6210  145.8210 C   0  0  2  0  0  3  0  0  0  0  0  0
  193.8060  169.2110  142.1390 N   0  0  0  0  0  0  0  0  0  0  0  0
  190.0170  176.6570  146.1790 O   0  0  0  0  0  0  0  0  0  0  0  0
  188.7240  174.1160  142.3810 C   0  0  0  0  0  2  0  0  0  0  0  0
  187.7560  174.4900  139.9580 O   0  0  0  0  0  0  0  0  0  0  0  0
  192.3390  173.7800  140.1330 O   0  0  0  0  0  0  0  0  0  0  0  0
  188.9070  176.1770  143.7350 N   0  0  0  0  0  0  0  0  0  0  0  0
  190.3320  175.8500  143.9290 C   0  0  0  0  0  2  0  0  0  0  0  0
  194.2040  168.4980  140.9360 C   0  0  0  0  0  1  0  0  0  0  0  0
  195.4890  170.8100  145.1550 C   0  0  0  0  0  1  0  0  0  0  0  0
  193.5050  171.5380  143.8060 C   0  0  1  0  0  3  0  0  0  0  0  0
  192.7870  172.2600  144.9400 C   0  0  0  0  0  2  0  0  0  0  0  0
  193.4280  176.5310  144.7130 C   0  0  0  0  0  2  0  0  0  0  0  0
  194.6060  176.9870  145.5580 C   0  0  0  0  0  2  0  0  0  0  0  0
  194.1910  177.2480  146.8660 O   0  0  0  0  0  1  0  0  0  0  0  0
  188.0920  177.8700  146.9860 C   0  0  0  0  0  2  0  0  0  0  0  0
  185.9610  176.8140  147.1950 O   0  0  0  0  0  0  0  0  0  0  0  0
  187.2120  176.6940  147.2610 C   0  0  0  0  0  0  0  0  0  0  0  0
  187.7700  175.4740  147.6170 O   0  0  0  0  0  1  0  0  0  0  0  0
  1  4  2  0  0  0  0
  1 14  1  0  0  0  0
  2 29  1  6  0  0  0
  2  5  1  0  0  0  0
  2 24  1  0  0  0  0
  3 15  1  0  0  0  0
  3  8  1  0  0  0  0
  5 34  1  6  0  0  0
  5 16  1  0  0  0  0
  6 18  1  1  0  0  0
  6 26  1  0  0  0  0
  6 20  1  0  0  0  0
  7 12  1  1  0  0  0
  7 28  1  0  0  0  0
  8 21  1  0  0  0  0
  9  7  1  0  0  0  0
 10  9  1  0  0  0  0
 13 19  2  0  0  0  0
 14 31  1  6  0  0  0
 17 33  1  0  0  0  0
 17 16  1  0  0  0  0
 19 22  1  0  0  0  0
 20 15  1  0  0  0  0
 20 25  1  1  0  0  0
 21 11  1  6  0  0  0
 21 32  1  0  0  0  0
 22 24  1  0  0  0  0
 22 37  1  1  0  0  0
 23 11  1  0  0  0  0
 23  1  1  0  0  0  0
 25  7  1  0  0  0  0
 26 10  1  0  0  0  0
 27  3  2  0  0  0  0
 28 29  1  0  0  0  0
 28 19  1  0  0  0  0
 30 23  1  0  0  0  0
 32 14  1  0  0  0  0
 32 33  1  1  0  0  0
 34 35  1  0  0  0  0
 35 36  1  0  0  0  0
 37 39  1  0  0  0  0
 38 39  2  0  0  0  0
 39 40  1  0  0  0  0
M  END
>  <MODEL>
5

>  <REMARK>
 VINA RESULT:      -6.6      2.404      7.568
  Name = 
  4 active torsions:
  status: ('A' for Active; 'I' for Inactive)
    1  A    between atoms: C_3  and  C_18
    2  A    between atoms: C_7  and  C_18
    3  A    between atoms: C_21  and  C_38
    4  A    between atoms: C_26  and  C_38
                            x       y       z     vdW  Elec       q    Type
                         _______ _______ _______ _____ _____    ______ ____

>  <TORSDO>
F 4

$$$$
=
 OpenBabel11072409303D

 40 43  0  0  1  0  0  0  0  0999 V2000
  192.1510  171.5850  136.0490 C   0  0  0  0  0  0  0  0  0  0  0  0
  188.6480  174.8040  142.8960 C   0  0  2  0  0  3  0  0  0  0  0  0
  193.3550  172.6370  140.7880 C   0  0  0  0  0  0  0  0  0  0  0  0
  192.0270  170.6860  135.1740 O   0  0  0  0  0  0  0  0  0  0  0  0
  188.0630  173.8810  141.8250 C   0  0  1  0  0  3  0  0  0  0  0  0
  194.7340  174.5430  143.0650 C   0  0  2  0  0  3  0  0  0  0  0  0
  192.1170  176.3730  143.6450 C   0  0  1  0  0  0  0  0  0  0  0  0
  193.0280  172.1690  139.5180 O   0  0  0  0  0  0  0  0  0  0  0  0
  192.7190  175.6440  144.8700 C   0  0  0  0  0  2  0  0  0  0  0  0
  194.2570  175.6550  145.0050 C   0  0  0  0  0  2  0  0  0  0  0  0
  193.5650  173.1360  137.3700 C   0  0  0  0  0  2  0  0  0  0  0  0
  192.3710  177.8690  143.7770 C   0  0  0  0  0  1  0  0  0  0  0  0
  190.0830  177.5060  145.4000 O   0  0  0  0  0  0  0  0  0  0  0  0
  190.9530  172.3210  136.5870 C   0  0  1  0  0  3  0  0  0  0  0  0
  193.3970  174.0110  141.0350 O   0  0  0  0  0  0  0  0  0  0  0  0
  188.5230  174.1890  140.3900 C   0  0  0  0  0  2  0  0  0  0  0  0
  189.8470  173.5230  140.0340 C   0  0  0  0  0  2  0  0  0  0  0  0
  195.8210  174.3640  142.1160 N   0  0  0  0  0  1  0  0  0  0  0  0
  189.7090  176.8170  144.4120 C   0  0  0  0  0  0  0  0  0  0  0  0
  193.3610  174.5530  142.3480 C   0  0  2  0  0  3  0  0  0  0  0  0
  192.5540  173.0550  138.5140 C   0  0  1  0  0  3  0  0  0  0  0  0
  188.2380  176.6520  144.1140 C   0  0  2  0  0  3  0  0  0  0  0  0
  193.4490  171.9680  136.5130 N   0  0  0  0  0  0  0  0  0  0  0  0
  188.0460  176.0710  142.8440 O   0  0  0  0  0  0  0  0  0  0  0  0
  192.7630  175.9560  142.3060 C   0  0  0  0  0  2  0  0  0  0  0  0
  194.9400  175.7420  143.7760 O   0  0  0  0  0  0  0  0  0  0  0  0
  193.5940  171.8110  141.7100 O   0  0  0  0  0  0  0  0  0  0  0  0
  190.6640  176.0910  143.6060 N   0  0  0  0  0  0  0  0  0  0  0  0
  190.1750  174.9420  142.8200 C   0  0  0  0  0  2  0  0  0  0  0  0
  194.6360  171.1960  136.1820 C   0  0  0  0  0  1  0  0  0  0  0  0
  189.6710  171.5280  136.3710 C   0  0  0  0  0  1  0  0  0  0  0  0
  191.1310  172.6310  138.0850 C   0  0  1  0  0  3  0  0  0  0  0  0
  190.1040  173.6590  138.5440 C   0  0  0  0  0  2  0  0  0  0  0  0
  188.1980  172.4120  142.2220 C   0  0  0  0  0  2  0  0  0  0  0  0
  189.0940  172.2530  143.4390 C   0  0  0  0  0  2  0  0  0  0  0  0
  190.0230  171.2330  143.2260 O   0  0  0  0  0  1  0  0  0  0  0  0
  187.4730  177.9730  144.2160 C   0  0  0  0  0  2  0  0  0  0  0  0
  186.3830  177.0210  146.1150 O   0  0  0  0  0  1  0  0  0  0  0  0
  186.3860  177.9270  145.2410 C   0  0  0  0  0  0  0  0  0  0  0  0
  185.3630  178.8640  145.2140 O   0  0  0  0  0  0  0  0  0  0  0  0
  1 23  1  0  0  0  0
  1 14  1  0  0  0  0
  2 29  1  6  0  0  0
  3 15  1  0  0  0  0
  3 27  2  0  0  0  0
  4  1  2  0  0  0  0
  5 34  1  1  0  0  0
  5  2  1  0  0  0  0
  6 18  1  6  0  0  0
  6 26  1  0  0  0  0
  7 12  1  1  0  0  0
  7  9  1  0  0  0  0
  8  3  1  0  0  0  0
  9 10  1  0  0  0  0
 14 31  1  1  0  0  0
 14 32  1  0  0  0  0
 15 20  1  0  0  0  0
 16  5  1  0  0  0  0
 17 16  1  0  0  0  0
 19 13  2  0  0  0  0
 20 25  1  6  0  0  0
 20  6  1  0  0  0  0
 21 11  1  6  0  0  0
 21  8  1  0  0  0  0
 22 37  1  6  0  0  0
 22 19  1  0  0  0  0
 23 11  1  0  0  0  0
 24  2  1  0  0  0  0
 24 22  1  0  0  0  0
 25  7  1  0  0  0  0
 26 10  1  0  0  0  0
 28  7  1  0  0  0  0
 28 19  1  0  0  0  0
 29 28  1  0  0  0  0
 30 23  1  0  0  0  0
 32 21  1  0  0  0  0
 32 33  1  6  0  0  0
 33 17  1  0  0  0  0
 34 35  1  0  0  0  0
 36 35  1  0  0  0  0
 37 39  1  0  0  0  0
 39 38  1  0  0  0  0
 40 39  2  0  0  0  0
M  END
>  <MODEL>
6

>  <REMARK>
 VINA RESULT:      -6.2      2.579      7.556
  Name = 
  4 active torsions:
  status: ('A' for Active; 'I' for Inactive)
    1  A    between atoms: C_3  and  C_18
    2  A    between atoms: C_7  and  C_18
    3  A    between atoms: C_21  and  C_38
    4  A    between atoms: C_26  and  C_38
                            x       y       z     vdW  Elec       q    Type
                         _______ _______ _______ _____ _____    ______ ____

>  <TORSDO>
F 4

$$$$
=
 OpenBabel11072409303D

 40 43  0  0  1  0  0  0  0  0999 V2000
  185.8860  178.4470  147.1760 C   0  0  0  0  0  0  0  0  0  0  0  0
  189.0120  174.5410  140.5050 C   0  0  2  0  0  3  0  0  0  0  0  0
  190.2890  177.7480  144.9080 C   0  0  0  0  0  0  0  0  0  0  0  0
  185.0190  179.2840  147.5470 O   0  0  0  0  0  0  0  0  0  0  0  0
  187.6890  175.2900  140.6850 C   0  0  1  0  0  3  0  0  0  0  0  0
  193.1810  176.2410  144.6120 C   0  0  2  0  0  3  0  0  0  0  0  0
  192.1500  173.8460  142.6780 C   0  0  1  0  0  0  0  0  0  0  0  0
  189.0750  178.1140  145.4820 O   0  0  0  0  0  0  0  0  0  0  0  0
  193.3130  174.7080  142.1300 C   0  0  0  0  0  2  0  0  0  0  0  0
  194.4470  175.0630  143.1170 C   0  0  0  0  0  2  0  0  0  0  0  0
  188.0530  177.2860  147.5080 C   0  0  0  0  0  2  0  0  0  0  0  0
  192.6710  172.4550  143.0140 C   0  0  0  0  0  1  0  0  0  0  0  0
  192.2400  172.2770  140.2230 O   0  0  0  0  0  0  0  0  0  0  0  0
  185.5940  177.4520  146.0850 C   0  0  1  0  0  3  0  0  0  0  0  0
  190.7280  176.4250  144.9940 O   0  0  0  0  0  0  0  0  0  0  0  0
  187.0180  175.0890  142.0540 C   0  0  0  0  0  2  0  0  0  0  0  0
  187.5380  176.0480  143.1180 C   0  0  0  0  0  2  0  0  0  0  0  0
  193.1970  176.6660  146.0030 N   0  0  0  0  0  1  0  0  0  0  0  0
  191.1600  172.8490  140.5330 C   0  0  0  0  0  0  0  0  0  0  0  0
  191.7430  175.9000  144.1490 C   0  0  2  0  0  3  0  0  0  0  0  0
  188.1830  177.1340  145.9930 C   0  0  1  0  0  3  0  0  0  0  0  0
  189.9270  172.6580  139.6800 C   0  0  2  0  0  3  0  0  0  0  0  0
  187.1580  178.3870  147.8280 N   0  0  0  0  0  0  0  0  0  0  0  0
  188.7840  173.1670  140.3300 O   0  0  0  0  0  0  0  0  0  0  0  0
  191.5490  174.3940  143.9910 C   0  0  0  0  0  2  0  0  0  0  0  0
  194.0360  175.1320  144.4630 O   0  0  0  0  0  0  0  0  0  0  0  0
  190.9730  178.6140  144.2990 O   0  0  0  0  0  0  0  0  0  0  0  0
  191.0970  173.7750  141.6400 N   0  0  0  0  0  0  0  0  0  0  0  0
  190.0070  174.7690  141.6520 C   0  0  0  0  0  2  0  0  0  0  0  0
  187.5860  179.4160  148.7610 C   0  0  0  0  0  1  0  0  0  0  0  0
  184.4410  177.9160  145.2040 C   0  0  0  0  0  1  0  0  0  0  0  0
  186.8450  177.2040  145.2220 C   0  0  1  0  0  3  0  0  0  0  0  0
  186.6600  175.9650  144.3540 C   0  0  0  0  0  2  0  0  0  0  0  0
  187.8160  176.7520  140.2610 C   0  0  0  0  0  2  0  0  0  0  0  0
  186.4920  177.2910  139.7450 C   0  0  0  0  0  2  0  0  0  0  0  0
  185.9600  178.2120  140.6490 O   0  0  0  0  0  1  0  0  0  0  0  0
  189.7110  171.1940  139.2930 C   0  0  0  0  0  2  0  0  0  0  0  0
  189.7040  169.8190  137.3400 O   0  0  0  0  0  1  0  0  0  0  0  0
  189.9680  170.9430  137.8410 C   0  0  0  0  0  0  0  0  0  0  0  0
  190.5220  171.9400  137.0500 O   0  0  0  0  0  0  0  0  0  0  0  0
  1  4  2  0  0  0  0
  1 23  1  0  0  0  0
  2  5  1  0  0  0  0
  2 29  1  1  0  0  0
  3 15  1  0  0  0  0
  3  8  1  0  0  0  0
  5 34  1  1  0  0  0
  5 16  1  0  0  0  0
  6 18  1  1  0  0  0
  7 12  1  1  0  0  0
  7 25  1  0  0  0  0
  8 21  1  0  0  0  0
  9  7  1  0  0  0  0
  9 10  1  0  0  0  0
 10 26  1  0  0  0  0
 11 23  1  0  0  0  0
 13 19  2  0  0  0  0
 14 31  1  6  0  0  0
 14  1  1  0  0  0  0
 16 17  1  0  0  0  0
 17 33  1  0  0  0  0
 19 28  1  0  0  0  0
 20 25  1  1  0  0  0
 20  6  1  0  0  0  0
 20 15  1  0  0  0  0
 21 11  1  1  0  0  0
 22 37  1  1  0  0  0
 22 24  1  0  0  0  0
 22 19  1  0  0  0  0
 23 30  1  0  0  0  0
 24  2  1  0  0  0  0
 26  6  1  0  0  0  0
 27  3  2  0  0  0  0
 28 29  1  0  0  0  0
 28  7  1  0  0  0  0
 32 33  1  1  0  0  0
 32 21  1  0  0  0  0
 32 14  1  0  0  0  0
 35 34  1  0  0  0  0
 35 36  1  0  0  0  0
 38 39  1  0  0  0  0
 39 37  1  0  0  0  0
 40 39  2  0  0  0  0
M  END
>  <MODEL>
7

>  <REMARK>
 VINA RESULT:      -6.2      2.536      6.048
  Name = 
  4 active torsions:
  status: ('A' for Active; 'I' for Inactive)
    1  A    between atoms: C_3  and  C_18
    2  A    between atoms: C_7  and  C_18
    3  A    between atoms: C_21  and  C_38
    4  A    between atoms: C_26  and  C_38
                            x       y       z     vdW  Elec       q    Type
                         _______ _______ _______ _____ _____    ______ ____

>  <TORSDO>
F 4

$$$$
=
 OpenBabel11072409303D

 40 43  0  0  1  0  0  0  0  0999 V2000
  190.6360  176.5400  146.4950 C   0  0  0  0  0  0  0  0  0  0  0  0
  195.4230  172.8020  140.7810 C   0  0  2  0  0  3  0  0  0  0  0  0
  190.2430  173.1130  142.8740 C   0  0  0  0  0  0  0  0  0  0  0  0
  190.5290  176.7790  147.7280 O   0  0  0  0  0  0  0  0  0  0  0  0
  195.7380  173.2160  142.2210 C   0  0  1  0  0  3  0  0  0  0  0  0
  189.4330  172.1960  139.8370 C   0  0  2  0  0  3  0  0  0  0  0  0
  192.3030  172.8610  138.4750 C   0  0  1  0  0  0  0  0  0  0  0  0
  190.3310  173.9290  143.9980 O   0  0  0  0  0  0  0  0  0  0  0  0
  191.7970  171.4080  138.3150 C   0  0  0  0  0  2  0  0  0  0  0  0
  190.3050  171.2200  137.9620 C   0  0  0  0  0  2  0  0  0  0  0  0
  189.6150  176.2210  144.2570 C   0  0  0  0  0  2  0  0  0  0  0  0
  192.2480  173.5630  137.1240 C   0  0  0  0  0  1  0  0  0  0  0  0
  194.6830  172.1330  136.9560 O   0  0  0  0  0  0  0  0  0  0  0  0
  191.9760  176.5620  145.8090 C   0  0  1  0  0  3  0  0  0  0  0  0
  190.3990  173.6630  141.6000 O   0  0  0  0  0  0  0  0  0  0  0  0
  195.1200  174.5550  142.6540 C   0  0  0  0  0  2  0  0  0  0  0  0
  193.6900  174.4140  143.1630 C   0  0  0  0  0  2  0  0  0  0  0  0
  188.2100  172.8300  140.3020 N   0  0  0  0  0  1  0  0  0  0  0  0
  194.8300  172.5950  138.1200 C   0  0  0  0  0  0  0  0  0  0  0  0
  190.6820  172.8710  140.4550 C   0  0  2  0  0  3  0  0  0  0  0  0
  190.7600  175.2780  143.8880 C   0  0  1  0  0  3  0  0  0  0  0  0
  196.2150  172.8300  138.6760 C   0  0  2  0  0  3  0  0  0  0  0  0
  189.4700  176.2970  145.7020 N   0  0  0  0  0  0  0  0  0  0  0  0
  196.1560  173.5770  139.8700 O   0  0  0  0  0  0  0  0  0  0  0  0
  191.4310  173.7120  139.4240 C   0  0  0  0  0  2  0  0  0  0  0  0
  189.4710  172.2550  138.4300 O   0  0  0  0  0  0  0  0  0  0  0  0
  190.0410  171.8770  143.0190 O   0  0  0  0  0  0  0  0  0  0  0  0
  193.6920  172.8150  138.9840 N   0  0  0  0  0  0  0  0  0  0  0  0
  193.9270  172.8610  140.4400 C   0  0  0  0  0  2  0  0  0  0  0  0
  188.1670  176.0840  146.3070 C   0  0  0  0  0  1  0  0  0  0  0  0
  193.1130  176.3720  146.8050 C   0  0  0  0  0  1  0  0  0  0  0  0
  192.0490  175.4770  144.7180 C   0  0  1  0  0  3  0  0  0  0  0  0
  193.2450  175.7160  143.8040 C   0  0  0  0  0  2  0  0  0  0  0  0
  195.4870  172.0680  143.1970 C   0  0  0  0  0  2  0  0  0  0  0  0
  196.3900  172.1760  144.4140 C   0  0  0  0  0  2  0  0  0  0  0  0
  195.6840  171.8410  145.5720 O   0  0  0  0  0  1  0  0  0  0  0  0
  197.1370  173.5150  137.6640 C   0  0  0  0  0  2  0  0  0  0  0  0
  197.9410  175.6700  138.3030 O   0  0  0  0  0  1  0  0  0  0  0  0
  197.0430  175.0050  137.7240 C   0  0  0  0  0  0  0  0  0  0  0  0
  195.9520  175.6580  137.1670 O   0  0  0  0  0  0  0  0  0  0  0  0
  1  4  2  0  0  0  0
  2 29  1  6  0  0  0
  2  5  1  0  0  0  0
  3 27  2  0  0  0  0
  3  8  1  0  0  0  0
  5 16  1  0  0  0  0
  5 34  1  1  0  0  0
  6 18  1  1  0  0  0
  6 20  1  0  0  0  0
  7 12  1  6  0  0  0
  7 28  1  0  0  0  0
  7 25  1  0  0  0  0
  9  7  1  0  0  0  0
 10  9  1  0  0  0  0
 10 26  1  0  0  0  0
 11 23  1  0  0  0  0
 13 19  2  0  0  0  0
 14  1  1  0  0  0  0
 14 31  1  1  0  0  0
 15  3  1  0  0  0  0
 16 17  1  0  0  0  0
 17 33  1  0  0  0  0
 19 22  1  0  0  0  0
 19 28  1  0  0  0  0
 20 25  1  6  0  0  0
 20 15  1  0  0  0  0
 21  8  1  0  0  0  0
 21 11  1  1  0  0  0
 21 32  1  0  0  0  0
 22 37  1  6  0  0  0
 22 24  1  0  0  0  0
 23 30  1  0  0  0  0
 23  1  1  0  0  0  0
 24  2  1  0  0  0  0
 26  6  1  0  0  0  0
 28 29  1  0  0  0  0
 32 33  1  6  0  0  0
 32 14  1  0  0  0  0
 34 35  1  0  0  0  0
 35 36  1  0  0  0  0
 37 39  1  0  0  0  0
 39 38  1  0  0  0  0
 40 39  2  0  0  0  0
M  END
>  <MODEL>
8

>  <REMARK>
 VINA RESULT:      -6.2      3.265      5.551
  Name = 
  4 active torsions:
  status: ('A' for Active; 'I' for Inactive)
    1  A    between atoms: C_3  and  C_18
    2  A    between atoms: C_7  and  C_18
    3  A    between atoms: C_21  and  C_38
    4  A    between atoms: C_26  and  C_38
                            x       y       z     vdW  Elec       q    Type
                         _______ _______ _______ _____ _____    ______ ____

>  <TORSDO>
F 4

$$$$
=
 OpenBabel11072409303D

 40 43  0  0  1  0  0  0  0  0999 V2000
  189.8170  176.4270  145.4360 C   0  0  0  0  0  0  0  0  0  0  0  0
  196.5540  175.0940  140.7080 C   0  0  2  0  0  3  0  0  0  0  0  0
  193.5120  173.0920  144.9560 C   0  0  0  0  0  0  0  0  0  0  0  0
  189.2570  177.2700  146.1880 O   0  0  0  0  0  0  0  0  0  0  0  0
  195.9760  176.3980  141.2630 C   0  0  1  0  0  3  0  0  0  0  0  0
  194.7080  170.2360  143.8900 C   0  0  2  0  0  3  0  0  0  0  0  0
  195.7190  171.3160  141.0020 C   0  0  1  0  0  0  0  0  0  0  0  0
  192.5650  174.0700  145.2440 O   0  0  0  0  0  0  0  0  0  0  0  0
  196.7970  170.6540  141.8930 C   0  0  0  0  0  2  0  0  0  0  0  0
  196.3980  169.3550  142.6270 C   0  0  0  0  0  2  0  0  0  0  0  0
  190.2050  174.0820  144.7280 C   0  0  0  0  0  2  0  0  0  0  0  0
  195.4230  170.4080  139.8150 C   0  0  0  0  0  1  0  0  0  0  0  0
  197.7620  171.7550  138.9690 O   0  0  0  0  0  0  0  0  0  0  0  0
  190.5510  176.8560  144.1940 C   0  0  1  0  0  3  0  0  0  0  0  0
  193.4200  172.3620  143.7680 O   0  0  0  0  0  0  0  0  0  0  0  0
  194.4400  176.4700  141.2620 C   0  0  0  0  0  2  0  0  0  0  0  0
  193.8130  175.8370  142.4990 C   0  0  0  0  0  2  0  0  0  0  0  0
  193.5110  169.8200  144.6050 N   0  0  0  0  0  1  0  0  0  0  0  0
  197.1370  172.7540  139.4190 C   0  0  0  0  0  0  0  0  0  0  0  0
  194.5130  171.6260  143.2370 C   0  0  2  0  0  3  0  0  0  0  0  0
  191.6110  174.4710  144.2710 C   0  0  1  0  0  3  0  0  0  0  0  0
  197.3980  174.1310  138.8580 C   0  0  2  0  0  3  0  0  0  0  0  0
  189.7180  175.0280  145.7190 N   0  0  0  0  0  0  0  0  0  0  0  0
  196.4290  175.0500  139.3110 O   0  0  0  0  0  0  0  0  0  0  0  0
  194.3680  171.5160  141.7210 C   0  0  0  0  0  2  0  0  0  0  0  0
  195.0230  169.2620  142.9220 O   0  0  0  0  0  0  0  0  0  0  0  0
  194.4570  172.8870  145.7640 O   0  0  0  0  0  0  0  0  0  0  0  0
  196.2370  172.6240  140.5430 N   0  0  0  0  0  0  0  0  0  0  0  0
  195.9380  173.8340  141.3330 C   0  0  0  0  0  2  0  0  0  0  0  0
  189.1840  174.5410  146.9790 C   0  0  0  0  0  1  0  0  0  0  0  0
  190.9630  178.3210  144.2700 C   0  0  0  0  0  1  0  0  0  0  0  0
  191.7930  175.9750  143.9630 C   0  0  1  0  0  3  0  0  0  0  0  0
  192.3340  176.1710  142.5510 C   0  0  0  0  0  2  0  0  0  0  0  0
  196.6170  176.7660  142.5990 C   0  0  0  0  0  2  0  0  0  0  0  0
  197.9390  176.0420  142.7920 C   0  0  0  0  0  2  0  0  0  0  0  0
  197.8630  175.1790  143.8870 O   0  0  0  0  0  1  0  0  0  0  0  0
  197.4580  174.1320  137.3290 C   0  0  0  0  0  2  0  0  0  0  0  0
  195.1880  173.8710  136.6350 O   0  0  0  0  0  1  0  0  0  0  0  0
  196.1910  174.6270  136.7080 C   0  0  0  0  0  0  0  0  0  0  0  0
  196.1270  175.9110  136.1850 O   0  0  0  0  0  0  0  0  0  0  0  0
  1 23  1  0  0  0  0
  1  4  2  0  0  0  0
  2  5  1  0  0  0  0
  2 29  1  1  0  0  0
  3  8  1  0  0  0  0
  3 27  2  0  0  0  0
  5 34  1  1  0  0  0
  6 18  1  6  0  0  0
  7 12  1  6  0  0  0
  7 25  1  0  0  0  0
  7  9  1  0  0  0  0
  9 10  1  0  0  0  0
 10 26  1  0  0  0  0
 11 23  1  0  0  0  0
 13 19  2  0  0  0  0
 14 31  1  1  0  0  0
 14  1  1  0  0  0  0
 15  3  1  0  0  0  0
 16  5  1  0  0  0  0
 16 17  1  0  0  0  0
 17 33  1  0  0  0  0
 19 28  1  0  0  0  0
 20 25  1  6  0  0  0
 20 15  1  0  0  0  0
 20  6  1  0  0  0  0
 21 11  1  1  0  0  0
 21  8  1  0  0  0  0
 22 37  1  6  0  0  0
 22 24  1  0  0  0  0
 22 19  1  0  0  0  0
 23 30  1  0  0  0  0
 24  2  1  0  0  0  0
 26  6  1  0  0  0  0
 28  7  1  0  0  0  0
 28 29  1  0  0  0  0
 32 33  1  6  0  0  0
 32 14  1  0  0  0  0
 32 21  1  0  0  0  0
 34 35  1  0  0  0  0
 35 36  1  0  0  0  0
 38 39  1  0  0  0  0
 39 37  1  0  0  0  0
 40 39  2  0  0  0  0
M  END
>  <MODEL>
9

>  <REMARK>
 VINA RESULT:      -6.1      3.762      6.529
  Name = 
  4 active torsions:
  status: ('A' for Active; 'I' for Inactive)
    1  A    between atoms: C_3  and  C_18
    2  A    between atoms: C_7  and  C_18
    3  A    between atoms: C_21  and  C_38
    4  A    between atoms: C_26  and  C_38
                            x       y       z     vdW  Elec       q    Type
                         _______ _______ _______ _____ _____    ______ ____

>  <TORSDO>
F 4

$$$$
