=
 OpenBabel11062420523D

 50 56  0  0  1  0  0  0  0  0999 V2000
  184.9710  177.5620  144.1020 N   0  0  0  0  0  0  0  0  0  0  0  0
  184.8320  177.7730  145.5170 C   0  0  0  0  0  0  0  0  0  0  0  0
  185.9540  176.5980  143.5970 C   0  0  0  0  0  2  0  0  0  0  0  0
  186.1940  178.2470  140.3410 O   0  0  0  0  0  0  0  0  0  0  0  0
  186.7180  177.1830  142.4090 C   0  0  2  0  0  3  0  0  0  0  0  0
  184.0390  178.6540  145.9530 O   0  0  0  0  0  0  0  0  0  0  0  0
  184.0890  178.2910  143.1800 C   0  0  0  0  0  2  0  0  0  0  0  0
  185.7670  177.8020  141.4000 C   0  0  0  0  0  0  0  0  0  0  0  0
  184.2880  177.8620  141.7210 C   0  0  2  0  0  3  0  0  0  0  0  0
  183.6000  178.7890  140.8420 N   0  0  0  0  0  2  0  0  0  0  0  0
  182.3300  178.1930  140.4650 C   0  0  0  0  0  2  0  0  0  0  0  0
  178.2040  177.3230  139.9090 C   0  0  0  0  0  3  0  0  0  0  0  0
  181.3540  178.3130  141.6250 C   0  0  1  0  0  3  0  0  0  0  0  0
  180.3830  179.4640  141.3700 C   0  0  0  0  0  2  0  0  0  0  0  0
  178.8330  177.6700  142.1000 C   0  0  0  0  0  3  0  0  0  0  0  0
  179.4430  177.7880  139.7890 C   0  0  0  0  0  3  0  0  0  0  0  0
  179.9240  178.0340  141.1730 C   0  0  2  0  0  0  0  0  0  0  0  0
  177.8300  177.2510  141.3330 C   0  0  0  0  0  3  0  0  0  0  0  0
  185.6170  176.9580  146.5000 C   0  0  0  0  0  2  0  0  0  0  0  0
  187.0200  177.5230  146.6630 C   0  0  0  0  0  2  0  0  0  0  0  0
  187.9310  176.5600  147.4220 C   0  0  0  0  0  2  0  0  0  0  0  0
  191.3790  172.8450  145.0460 C   0  0  1  0  0  3  0  0  0  0  0  0
  193.4090  173.6830  144.0270 O   0  0  0  0  0  0  0  0  0  0  0  0
  192.8610  172.6170  144.7510 C   0  0  0  0  0  2  0  0  0  0  0  0
  189.6230  174.4640  145.8850 C   0  0  1  0  0  3  0  0  0  0  0  0
  189.8350  175.1720  147.2050 C   0  0  1  0  0  3  0  0  0  0  0  0
  191.3300  175.3770  147.3920 C   0  0  0  0  0  2  0  0  0  0  0  0
  191.9630  175.2090  146.0290 C   0  0  2  0  0  3  0  0  0  0  0  0
  188.9430  175.7510  145.4650 C   0  0  0  0  0  2  0  0  0  0  0  0
  193.8640  174.6950  144.9100 C   0  0  1  0  0  3  0  0  0  0  0  0
  190.9880  174.3360  145.2080 C   0  0  1  0  0  3  0  0  0  0  0  0
  189.2100  176.4070  146.7380 N   0  0  0  0  0  0  0  0  0  0  0  0
  193.2470  174.6610  146.1780 O   0  0  0  0  0  0  0  0  0  0  0  0
  196.0940  175.4280  144.1810 C   0  0  0  0  0  0  0  0  0  0  0  0
  196.4890  176.5360  143.7470 O   0  0  0  0  0  0  0  0  0  0  0  0
  196.0410  173.9300  144.1160 O   0  0  0  0  0  0  0  0  0  0  0  0
  195.9370  174.5420  146.3230 O   0  0  0  0  0  1  0  0  0  0  0  0
  195.3770  174.6550  145.0570 C   0  0  2  0  0  0  0  0  0  0  0  0
  191.3320  171.2120  143.2840 O   0  0  0  0  0  1  0  0  0  0  0  0
  190.5760  172.1950  143.9270 C   0  0  0  0  0  2  0  0  0  0  0  0
  187.6930  176.1360  141.8440 C   0  0  1  0  0  3  0  0  0  0  0  0
  189.1770  176.5560  141.8010 C   0  0  1  0  0  3  0  0  0  0  0  0
  189.4150  177.9110  142.4590 C   0  0  0  0  0  1  0  0  0  0  0  0
  190.0280  175.5620  142.3810 O   0  0  0  0  0  0  0  0  0  0  0  0
  191.6150  174.1660  141.1850 O   0  0  0  0  0  0  0  0  0  0  0  0
  192.2520  176.1090  142.2130 O   0  0  0  0  0  1  0  0  0  0  0  0
  191.3310  175.2970  141.9390 C   0  0  0  0  0  0  0  0  0  0  0  0
  187.4450  174.7480  142.4450 C   0  0  0  0  0  2  0  0  0  0  0  0
  188.3130  172.7530  140.8820 C   0  0  0  0  0  3  0  0  0  0  0  0
  187.9240  173.6550  141.5840 C   0  0  0  0  0  0  0  0  0  0  0  0
  1  2  1  0  0  0  0
  2  6  2  0  0  0  0
  2 19  1  0  0  0  0
  3  1  1  0  0  0  0
  4  8  2  0  0  0  0
  5 41  1  6  0  0  0
  5  3  1  0  0  0  0
  7  1  1  0  0  0  0
  8  9  1  0  0  0  0
  8  5  1  0  0  0  0
  9 10  1  6  0  0  0
  9  7  1  0  0  0  0
 11 10  1  0  0  0  0
 12 18  1  0  0  0  0
 13 11  1  6  0  0  0
 14 13  1  0  0  0  0
 16 12  2  0  0  0  0
 16 17  1  0  0  0  0
 17 14  1  0  0  0  0
 17 13  1  0  0  0  0
 17 15  1  0  0  0  0
 18 15  2  0  0  0  0
 19 20  1  0  0  0  0
 20 21  1  0  0  0  0
 22 40  1  6  0  0  0
 22 31  1  0  0  0  0
 23 24  1  0  0  0  0
 24 22  1  0  0  0  0
 25 29  1  6  0  0  0
 25 26  1  0  0  0  0
 26 27  1  6  0  0  0
 28 33  1  0  0  0  0
 28 27  1  1  0  0  0
 29 32  1  0  0  0  0
 30 23  1  6  0  0  0
 30 38  1  0  0  0  0
 30 33  1  0  0  0  0
 31 25  1  0  0  0  0
 31 28  1  0  0  0  0
 32 26  1  0  0  0  0
 32 21  1  0  0  0  0
 34 38  1  0  0  0  0
 35 34  2  0  0  0  0
 36 34  1  0  0  0  0
 36 38  1  0  0  0  0
 38 37  1  0  0  0  0
 39 40  1  0  0  0  0
 41 48  1  0  0  0  0
 42 41  1  0  0  0  0
 42 44  1  0  0  0  0
 42 43  1  0  0  0  0
 45 47  2  0  0  0  0
 47 46  1  0  0  0  0
 47 44  1  0  0  0  0
 49 50  3  0  0  0  0
 50 48  1  0  0  0  0
M  END
>  <MODEL>
1

>  <REMARK>
 VINA RESULT:      -7.8      0.000      0.000
  Name = 
  15 active torsions:
  status: ('A' for Active; 'I' for Inactive)
    1  A    between atoms: O_3  and  C_20
    2  A    between atoms: O_3  and  C_39
    3  A    between atoms: C_4  and  C_38
    4  A    between atoms: C_4  and  N_40
    5  A    between atoms: C_6  and  C_36
    6  A    between atoms: C_10  and  C_29
    7  A    between atoms: N_12  and  C_18
    8  A    between atoms: N_12  and  C_50
    9  A    between atoms: C_14  and  C_46
   10  A    between atoms: C_15  and  C_44
   11  A    between atoms: C_15  and  C_46
   12  A    between atoms: C_18  and  C_22
   13  A    between atoms: C_33  and  C_43
   14  A    between atoms: C_36  and  C_38
   15  A    between atoms: C_39  and  C_46
                            x       y       z     vdW  Elec       q    Type
                         _______ _______ _______ _____ _____    ______ ____

>  <TORSDO>
F 15

$$$$
=
 OpenBabel11062420523D

 50 56  0  0  1  0  0  0  0  0999 V2000
  186.6720  177.2820  144.7380 N   0  0  0  0  0  0  0  0  0  0  0  0
  186.7180  177.7640  146.0910 C   0  0  0  0  0  0  0  0  0  0  0  0
  187.5010  176.1410  144.3370 C   0  0  0  0  0  2  0  0  0  0  0  0
  187.5040  177.1260  140.8140 O   0  0  0  0  0  0  0  0  0  0  0  0
  188.1700  176.4110  142.9890 C   0  0  2  0  0  3  0  0  0  0  0  0
  186.0610  178.7910  146.4220 O   0  0  0  0  0  0  0  0  0  0  0  0
  185.7550  177.9200  143.7820 C   0  0  0  0  0  2  0  0  0  0  0  0
  187.1650  176.9330  141.9760 C   0  0  0  0  0  0  0  0  0  0  0  0
  185.7450  177.2100  142.4220 C   0  0  2  0  0  3  0  0  0  0  0  0
  185.0430  178.0280  141.4510 N   0  0  0  0  0  2  0  0  0  0  0  0
  183.6460  178.0910  141.8420 C   0  0  0  0  0  2  0  0  0  0  0  0
  179.4820  178.8080  142.3240 C   0  0  0  0  0  3  0  0  0  0  0  0
  182.8340  178.7080  140.7140 C   0  0  1  0  0  3  0  0  0  0  0  0
  181.8390  177.6850  140.1700 C   0  0  0  0  0  2  0  0  0  0  0  0
  180.3990  179.6910  140.4020 C   0  0  0  0  0  3  0  0  0  0  0  0
  180.6930  178.2650  142.3010 C   0  0  0  0  0  3  0  0  0  0  0  0
  181.3560  178.7940  141.0810 C   0  0  2  0  0  0  0  0  0  0  0  0
  179.3010  179.6860  141.1540 C   0  0  0  0  0  3  0  0  0  0  0  0
  187.5370  177.0650  147.1330 C   0  0  0  0  0  2  0  0  0  0  0  0
  188.9910  177.5090  147.0570 C   0  0  0  0  0  2  0  0  0  0  0  0
  189.9490  176.3480  147.3140 C   0  0  0  0  0  2  0  0  0  0  0  0
  194.3310  173.3960  145.4650 C   0  0  1  0  0  3  0  0  0  0  0  0
  195.3880  174.1150  143.4080 O   0  0  0  0  0  0  0  0  0  0  0  0
  195.6270  173.5610  144.6720 C   0  0  0  0  0  2  0  0  0  0  0  0
  192.1750  174.4820  146.2260 C   0  0  1  0  0  3  0  0  0  0  0  0
  192.2200  175.8440  146.8820 C   0  0  1  0  0  3  0  0  0  0  0  0
  193.3880  176.6130  146.2850 C   0  0  0  0  0  2  0  0  0  0  0  0
  193.7510  175.9130  144.9950 C   0  0  2  0  0  3  0  0  0  0  0  0
  190.8560  174.9580  145.6540 C   0  0  0  0  0  2  0  0  0  0  0  0
  195.3950  175.5320  143.4840 C   0  0  1  0  0  3  0  0  0  0  0  0
  193.2510  174.4590  145.1400 C   0  0  1  0  0  3  0  0  0  0  0  0
  190.9660  176.2730  146.2710 N   0  0  0  0  0  0  0  0  0  0  0  0
  195.1330  176.0330  144.7760 O   0  0  0  0  0  0  0  0  0  0  0  0
  196.9910  175.8270  141.6390 C   0  0  0  0  0  0  0  0  0  0  0  0
  196.8000  175.9650  140.4070 O   0  0  0  0  0  0  0  0  0  0  0  0
  197.7150  175.2110  142.7990 O   0  0  0  0  0  0  0  0  0  0  0  0
  197.1300  177.3480  143.3900 O   0  0  0  0  0  1  0  0  0  0  0  0
  196.6980  176.1030  142.9480 C   0  0  2  0  0  0  0  0  0  0  0  0
  194.5060  171.0510  145.9590 O   0  0  0  0  0  1  0  0  0  0  0  0
  193.8020  171.9920  145.2040 C   0  0  0  0  0  2  0  0  0  0  0  0
  188.9770  175.1780  142.5470 C   0  0  1  0  0  3  0  0  0  0  0  0
  188.2440  174.2000  141.6050 C   0  0  1  0  0  3  0  0  0  0  0  0
  188.9600  174.0350  140.2690 C   0  0  0  0  0  1  0  0  0  0  0  0
  188.0340  172.9260  142.2210 O   0  0  0  0  0  0  0  0  0  0  0  0
  189.2330  172.0980  144.1640 O   0  0  0  0  0  1  0  0  0  0  0  0
  189.8180  171.4920  142.0360 O   0  0  0  0  0  0  0  0  0  0  0  0
  189.0590  172.1560  142.7870 C   0  0  0  0  0  0  0  0  0  0  0  0
  190.3890  175.5590  142.0900 C   0  0  0  0  0  2  0  0  0  0  0  0
  191.2550  177.8450  143.1860 C   0  0  0  0  0  3  0  0  0  0  0  0
  190.8680  176.8140  142.6900 C   0  0  0  0  0  0  0  0  0  0  0  0
  1  2  1  0  0  0  0
  2  6  2  0  0  0  0
  2 19  1  0  0  0  0
  3  1  1  0  0  0  0
  4  8  2  0  0  0  0
  5 41  1  6  0  0  0
  5  3  1  0  0  0  0
  7  1  1  0  0  0  0
  8  9  1  0  0  0  0
  8  5  1  0  0  0  0
  9 10  1  6  0  0  0
  9  7  1  0  0  0  0
 10 11  1  0  0  0  0
 13 17  1  0  0  0  0
 13 11  1  1  0  0  0
 14 13  1  0  0  0  0
 14 17  1  0  0  0  0
 15 17  1  0  0  0  0
 15 18  2  0  0  0  0
 16 12  2  0  0  0  0
 17 16  1  0  0  0  0
 18 12  1  0  0  0  0
 20 19  1  0  0  0  0
 20 21  1  0  0  0  0
 22 40  1  6  0  0  0
 23 24  1  0  0  0  0
 24 22  1  0  0  0  0
 25 29  1  6  0  0  0
 25 26  1  0  0  0  0
 26 27  1  6  0  0  0
 28 31  1  0  0  0  0
 28 27  1  1  0  0  0
 29 32  1  0  0  0  0
 30 23  1  1  0  0  0
 30 33  1  0  0  0  0
 31 22  1  0  0  0  0
 31 25  1  0  0  0  0
 32 26  1  0  0  0  0
 32 21  1  0  0  0  0
 33 28  1  0  0  0  0
 34 36  1  0  0  0  0
 34 38  1  0  0  0  0
 35 34  2  0  0  0  0
 36 38  1  0  0  0  0
 38 37  1  0  0  0  0
 38 30  1  0  0  0  0
 40 39  1  0  0  0  0
 42 44  1  0  0  0  0
 42 41  1  0  0  0  0
 43 42  1  0  0  0  0
 44 47  1  0  0  0  0
 46 47  2  0  0  0  0
 47 45  1  0  0  0  0
 48 41  1  0  0  0  0
 48 50  1  0  0  0  0
 50 49  3  0  0  0  0
M  END
>  <MODEL>
2

>  <REMARK>
 VINA RESULT:      -7.5      1.730      2.903
  Name = 
  15 active torsions:
  status: ('A' for Active; 'I' for Inactive)
    1  A    between atoms: O_3  and  C_20
    2  A    between atoms: O_3  and  C_39
    3  A    between atoms: C_4  and  C_38
    4  A    between atoms: C_4  and  N_40
    5  A    between atoms: C_6  and  C_36
    6  A    between atoms: C_10  and  C_29
    7  A    between atoms: N_12  and  C_18
    8  A    between atoms: N_12  and  C_50
    9  A    between atoms: C_14  and  C_46
   10  A    between atoms: C_15  and  C_44
   11  A    between atoms: C_15  and  C_46
   12  A    between atoms: C_18  and  C_22
   13  A    between atoms: C_33  and  C_43
   14  A    between atoms: C_36  and  C_38
   15  A    between atoms: C_39  and  C_46
                            x       y       z     vdW  Elec       q    Type
                         _______ _______ _______ _____ _____    ______ ____

>  <TORSDO>
F 15

$$$$
=
 OpenBabel11062420523D

 50 56  0  0  1  0  0  0  0  0999 V2000
  190.0180  173.9000  145.0150 N   0  0  0  0  0  0  0  0  0  0  0  0
  190.1030  172.5050  144.6800 C   0  0  0  0  0  0  0  0  0  0  0  0
  190.9000  174.8680  144.3570 C   0  0  0  0  0  2  0  0  0  0  0  0
  190.6460  177.2680  147.1060 O   0  0  0  0  0  0  0  0  0  0  0  0
  191.4750  175.8500  145.3770 C   0  0  2  0  0  3  0  0  0  0  0  0
  189.3980  171.6580  145.2970 O   0  0  0  0  0  0  0  0  0  0  0  0
  189.0100  174.3400  145.9910 C   0  0  0  0  0  2  0  0  0  0  0  0
  190.3840  176.4010  146.2790 C   0  0  0  0  0  0  0  0  0  0  0  0
  188.9740  175.8660  146.1430 C   0  0  2  0  0  3  0  0  0  0  0  0
  188.1670  176.2220  147.2950 N   0  0  0  0  0  2  0  0  0  0  0  0
  187.2590  177.2830  146.8980 C   0  0  0  0  0  2  0  0  0  0  0  0
  185.5050  179.8380  143.9860 C   0  0  0  0  0  3  0  0  0  0  0  0
  186.2510  176.7360  145.8990 C   0  0  1  0  0  3  0  0  0  0  0  0
  184.8720  177.3320  146.1720 C   0  0  0  0  0  2  0  0  0  0  0  0
  185.0400  177.5970  143.7120 C   0  0  0  0  0  3  0  0  0  0  0  0
  185.9590  179.3040  145.1140 C   0  0  0  0  0  3  0  0  0  0  0  0
  185.6980  177.8450  145.0110 C   0  0  2  0  0  0  0  0  0  0  0  0
  184.9390  178.7860  143.1230 C   0  0  0  0  0  3  0  0  0  0  0  0
  191.0230  172.0250  143.5980 C   0  0  0  0  0  2  0  0  0  0  0  0
  190.2310  171.3830  142.4680 C   0  0  0  0  0  2  0  0  0  0  0  0
  189.3750  172.4080  141.7270 C   0  0  0  0  0  2  0  0  0  0  0  0
  190.9870  173.0540  136.4060 C   0  0  1  0  0  3  0  0  0  0  0  0
  192.4330  174.9250  135.8850 O   0  0  0  0  0  0  0  0  0  0  0  0
  192.1510  173.5890  135.5710 C   0  0  0  0  0  2  0  0  0  0  0  0
  189.9730  172.8430  138.7150 C   0  0  1  0  0  3  0  0  0  0  0  0
  190.8230  172.3320  139.8570 C   0  0  1  0  0  3  0  0  0  0  0  0
  192.2580  172.7640  139.6020 C   0  0  0  0  0  2  0  0  0  0  0  0
  192.1990  173.8800  138.5840 C   0  0  2  0  0  3  0  0  0  0  0  0
  189.3200  173.7080  139.7730 C   0  0  0  0  0  2  0  0  0  0  0  0
  193.3390  174.9940  136.9740 C   0  0  1  0  0  3  0  0  0  0  0  0
  190.8730  173.6890  137.8140 C   0  0  1  0  0  3  0  0  0  0  0  0
  190.1930  173.2180  140.8320 N   0  0  0  0  0  0  0  0  0  0  0  0
  193.3490  173.8350  137.7790 O   0  0  0  0  0  0  0  0  0  0  0  0
  195.6250  174.2690  136.4390 C   0  0  0  0  0  0  0  0  0  0  0  0
  196.0470  173.2020  135.9310 O   0  0  0  0  0  0  0  0  0  0  0  0
  195.7010  175.3600  137.4660 O   0  0  0  0  0  0  0  0  0  0  0  0
  194.9280  176.2830  135.5150 O   0  0  0  0  0  1  0  0  0  0  0  0
  194.7460  175.3180  136.4970 C   0  0  2  0  0  0  0  0  0  0  0  0
  189.4830  172.2020  134.7370 O   0  0  0  0  0  1  0  0  0  0  0  0
  189.7070  173.2690  135.6100 C   0  0  0  0  0  2  0  0  0  0  0  0
  192.3390  176.9040  144.6630 C   0  0  1  0  0  3  0  0  0  0  0  0
  193.8520  176.8440  144.9610 C   0  0  1  0  0  3  0  0  0  0  0  0
  194.1430  176.6680  146.4470 C   0  0  0  0  0  1  0  0  0  0  0  0
  194.5030  175.8230  144.1980 O   0  0  0  0  0  0  0  0  0  0  0  0
  196.5330  176.9720  143.5210 O   0  0  0  0  0  1  0  0  0  0  0  0
  195.4850  175.4670  142.1520 O   0  0  0  0  0  0  0  0  0  0  0  0
  195.5050  176.0770  143.2520 C   0  0  0  0  0  0  0  0  0  0  0  0
  191.9900  177.0090  143.1750 C   0  0  0  0  0  2  0  0  0  0  0  0
  189.5740  178.0780  142.7370 C   0  0  0  0  0  3  0  0  0  0  0  0
  190.6640  177.6000  142.9350 C   0  0  0  0  0  0  0  0  0  0  0  0
  1  7  1  0  0  0  0
  2  1  1  0  0  0  0
  2  6  2  0  0  0  0
  3  1  1  0  0  0  0
  3  5  1  0  0  0  0
  5 41  1  6  0  0  0
  5  8  1  0  0  0  0
  7  9  1  0  0  0  0
  8  4  2  0  0  0  0
  9  8  1  0  0  0  0
  9 10  1  1  0  0  0
 11 10  1  0  0  0  0
 12 16  2  0  0  0  0
 13 14  1  0  0  0  0
 13 11  1  1  0  0  0
 15 17  1  0  0  0  0
 17 16  1  0  0  0  0
 17 13  1  0  0  0  0
 17 14  1  0  0  0  0
 18 15  2  0  0  0  0
 18 12  1  0  0  0  0
 19  2  1  0  0  0  0
 20 19  1  0  0  0  0
 21 20  1  0  0  0  0
 22 40  1  6  0  0  0
 22 31  1  0  0  0  0
 24 23  1  0  0  0  0
 24 22  1  0  0  0  0
 25 29  1  1  0  0  0
 25 26  1  0  0  0  0
 26 27  1  6  0  0  0
 26 32  1  0  0  0  0
 28 27  1  1  0  0  0
 29 32  1  0  0  0  0
 30 23  1  6  0  0  0
 30 33  1  0  0  0  0
 31 28  1  0  0  0  0
 31 25  1  0  0  0  0
 32 21  1  0  0  0  0
 33 28  1  0  0  0  0
 34 38  1  0  0  0  0
 34 36  1  0  0  0  0
 35 34  2  0  0  0  0
 37 38  1  0  0  0  0
 38 30  1  0  0  0  0
 38 36  1  0  0  0  0
 39 40  1  0  0  0  0
 41 42  1  0  0  0  0
 42 43  1  0  0  0  0
 44 42  1  0  0  0  0
 46 47  2  0  0  0  0
 47 45  1  0  0  0  0
 47 44  1  0  0  0  0
 48 41  1  0  0  0  0
 49 50  3  0  0  0  0
 50 48  1  0  0  0  0
M  END
>  <MODEL>
3

>  <REMARK>
 VINA RESULT:      -7.2      3.591      7.336
  Name = 
  15 active torsions:
  status: ('A' for Active; 'I' for Inactive)
    1  A    between atoms: O_3  and  C_20
    2  A    between atoms: O_3  and  C_39
    3  A    between atoms: C_4  and  C_38
    4  A    between atoms: C_4  and  N_40
    5  A    between atoms: C_6  and  C_36
    6  A    between atoms: C_10  and  C_29
    7  A    between atoms: N_12  and  C_18
    8  A    between atoms: N_12  and  C_50
    9  A    between atoms: C_14  and  C_46
   10  A    between atoms: C_15  and  C_44
   11  A    between atoms: C_15  and  C_46
   12  A    between atoms: C_18  and  C_22
   13  A    between atoms: C_33  and  C_43
   14  A    between atoms: C_36  and  C_38
   15  A    between atoms: C_39  and  C_46
                            x       y       z     vdW  Elec       q    Type
                         _______ _______ _______ _____ _____    ______ ____

>  <TORSDO>
F 15

$$$$
=
 OpenBabel11062420523D

 50 56  0  0  1  0  0  0  0  0999 V2000
  193.2230  172.7820  141.4880 N   0  0  0  0  0  0  0  0  0  0  0  0
  192.0880  172.0880  142.0340 C   0  0  0  0  0  0  0  0  0  0  0  0
  194.4250  172.9770  142.3030 C   0  0  0  0  0  2  0  0  0  0  0  0
  195.4970  175.8970  140.3780 O   0  0  0  0  0  0  0  0  0  0  0  0
  194.9460  174.4070  142.1560 C   0  0  2  0  0  3  0  0  0  0  0  0
  191.0240  171.9820  141.3610 O   0  0  0  0  0  0  0  0  0  0  0  0
  193.1720  173.2500  140.0950 C   0  0  0  0  0  2  0  0  0  0  0  0
  195.0220  174.8120  140.6940 C   0  0  0  0  0  0  0  0  0  0  0  0
  194.5030  173.8600  139.6370 C   0  0  2  0  0  3  0  0  0  0  0  0
  194.3160  174.5400  138.3680 N   0  0  0  0  0  2  0  0  0  0  0  0
  193.0960  174.0360  137.7630 C   0  0  0  0  0  2  0  0  0  0  0  0
  189.1130  174.4110  136.3210 C   0  0  0  0  0  3  0  0  0  0  0  0
  192.8090  174.8110  136.4870 C   0  0  1  0  0  3  0  0  0  0  0  0
  192.3230  173.8580  135.3980 C   0  0  0  0  0  2  0  0  0  0  0  0
  190.6710  175.6980  135.2090 C   0  0  0  0  0  3  0  0  0  0  0  0
  190.2660  173.9520  136.7940 C   0  0  0  0  0  3  0  0  0  0  0  0
  191.3300  174.7420  136.1220 C   0  0  2  0  0  0  0  0  0  0  0  0
  189.3640  175.4870  135.3440 C   0  0  0  0  0  3  0  0  0  0  0  0
  192.1400  171.4780  143.4020 C   0  0  0  0  0  2  0  0  0  0  0  0
  190.9880  171.9850  144.2570 C   0  0  0  0  0  2  0  0  0  0  0  0
  191.2460  173.4010  144.7680 C   0  0  0  0  0  2  0  0  0  0  0  0
  187.9420  176.9870  142.0190 C   0  0  1  0  0  3  0  0  0  0  0  0
  185.8620  177.6410  143.0740 O   0  0  0  0  0  0  0  0  0  0  0  0
  186.9160  178.0930  142.2700 C   0  0  0  0  0  2  0  0  0  0  0  0
  189.3600  175.1570  143.0420 C   0  0  1  0  0  3  0  0  0  0  0  0
  190.2230  175.4700  144.2440 C   0  0  1  0  0  3  0  0  0  0  0  0
  189.5230  176.5480  145.0560 C   0  0  0  0  0  2  0  0  0  0  0  0
  188.0790  176.5590  144.6060 C   0  0  2  0  0  3  0  0  0  0  0  0
  189.1990  173.7960  143.6870 C   0  0  0  0  0  2  0  0  0  0  0  0
  186.1890  177.7960  144.4470 C   0  0  1  0  0  3  0  0  0  0  0  0
  188.0700  175.9670  143.1790 C   0  0  1  0  0  3  0  0  0  0  0  0
  190.0020  174.1590  144.8490 N   0  0  0  0  0  0  0  0  0  0  0  0
  187.5750  177.8660  144.6960 O   0  0  0  0  0  0  0  0  0  0  0  0
  185.4560  179.0750  146.4130 C   0  0  0  0  0  0  0  0  0  0  0  0
  186.0080  179.2530  147.5240 O   0  0  0  0  0  0  0  0  0  0  0  0
  184.2520  178.7600  145.5750 O   0  0  0  0  0  0  0  0  0  0  0  0
  185.5620  180.2290  144.3990 O   0  0  0  0  0  1  0  0  0  0  0  0
  185.4810  179.0020  145.0450 C   0  0  2  0  0  0  0  0  0  0  0  0
  186.8200  177.1380  139.9000 O   0  0  0  0  0  1  0  0  0  0  0  0
  187.5610  176.2860  140.7230 C   0  0  0  0  0  2  0  0  0  0  0  0
  196.2490  174.5770  142.9580 C   0  0  1  0  0  3  0  0  0  0  0  0
  196.3260  175.8330  143.8510 C   0  0  1  0  0  3  0  0  0  0  0  0
  197.1750  176.9350  143.2280 C   0  0  0  0  0  1  0  0  0  0  0  0
  195.0250  176.3290  144.1830 O   0  0  0  0  0  0  0  0  0  0  0  0
  193.9860  175.5090  146.2190 O   0  0  0  0  0  1  0  0  0  0  0  0
  194.7460  177.6590  146.0350 O   0  0  0  0  0  0  0  0  0  0  0  0
  194.5820  176.5340  145.4970 C   0  0  0  0  0  0  0  0  0  0  0  0
  196.6560  173.2760  143.6580 C   0  0  0  0  0  2  0  0  0  0  0  0
  196.9890  173.5610  146.3010 C   0  0  0  0  0  3  0  0  0  0  0  0
  196.8380  173.4360  145.1090 C   0  0  0  0  0  0  0  0  0  0  0  0
  1  2  1  0  0  0  0
  1  3  1  0  0  0  0
  2 19  1  0  0  0  0
  4  8  2  0  0  0  0
  5  3  1  0  0  0  0
  5 41  1  6  0  0  0
  6  2  2  0  0  0  0
  7  1  1  0  0  0  0
  8  5  1  0  0  0  0
  9 10  1  6  0  0  0
  9  7  1  0  0  0  0
  9  8  1  0  0  0  0
 11 10  1  0  0  0  0
 12 16  2  0  0  0  0
 13 11  1  1  0  0  0
 14 17  1  0  0  0  0
 14 13  1  0  0  0  0
 15 18  2  0  0  0  0
 15 17  1  0  0  0  0
 17 13  1  0  0  0  0
 17 16  1  0  0  0  0
 18 12  1  0  0  0  0
 19 20  1  0  0  0  0
 20 21  1  0  0  0  0
 21 32  1  0  0  0  0
 22 40  1  6  0  0  0
 22 24  1  0  0  0  0
 22 31  1  0  0  0  0
 24 23  1  0  0  0  0
 25 31  1  0  0  0  0
 25 29  1  1  0  0  0
 25 26  1  0  0  0  0
 26 32  1  0  0  0  0
 26 27  1  1  0  0  0
 28 33  1  0  0  0  0
 28 27  1  6  0  0  0
 29 32  1  0  0  0  0
 30 23  1  6  0  0  0
 30 33  1  0  0  0  0
 30 38  1  0  0  0  0
 31 28  1  0  0  0  0
 34 35  2  0  0  0  0
 36 34  1  0  0  0  0
 37 38  1  0  0  0  0
 38 36  1  0  0  0  0
 38 34  1  0  0  0  0
 39 40  1  0  0  0  0
 41 48  1  0  0  0  0
 41 42  1  0  0  0  0
 42 44  1  0  0  0  0
 43 42  1  0  0  0  0
 44 47  1  0  0  0  0
 47 46  2  0  0  0  0
 47 45  1  0  0  0  0
 48 50  1  0  0  0  0
 50 49  3  0  0  0  0
M  END
>  <MODEL>
4

>  <REMARK>
 VINA RESULT:      -7.2      3.765      9.261
  Name = 
  15 active torsions:
  status: ('A' for Active; 'I' for Inactive)
    1  A    between atoms: O_3  and  C_20
    2  A    between atoms: O_3  and  C_39
    3  A    between atoms: C_4  and  C_38
    4  A    between atoms: C_4  and  N_40
    5  A    between atoms: C_6  and  C_36
    6  A    between atoms: C_10  and  C_29
    7  A    between atoms: N_12  and  C_18
    8  A    between atoms: N_12  and  C_50
    9  A    between atoms: C_14  and  C_46
   10  A    between atoms: C_15  and  C_44
   11  A    between atoms: C_15  and  C_46
   12  A    between atoms: C_18  and  C_22
   13  A    between atoms: C_33  and  C_43
   14  A    between atoms: C_36  and  C_38
   15  A    between atoms: C_39  and  C_46
                            x       y       z     vdW  Elec       q    Type
                         _______ _______ _______ _____ _____    ______ ____

>  <TORSDO>
F 15

$$$$
=
 OpenBabel11062420523D

 50 56  0  0  1  0  0  0  0  0999 V2000
  191.8120  173.1840  144.6020 N   0  0  0  0  0  0  0  0  0  0  0  0
  190.9570  172.0640  144.3170 C   0  0  0  0  0  0  0  0  0  0  0  0
  193.0670  173.3550  143.8640 C   0  0  0  0  0  2  0  0  0  0  0  0
  194.5930  175.3480  146.5260 O   0  0  0  0  0  0  0  0  0  0  0  0
  194.2030  173.7320  144.8160 C   0  0  2  0  0  3  0  0  0  0  0  0
  189.9120  171.8730  145.0010 O   0  0  0  0  0  0  0  0  0  0  0  0
  191.3890  174.1690  145.6070 C   0  0  0  0  0  2  0  0  0  0  0  0
  193.7830  174.8560  145.7480 C   0  0  0  0  0  0  0  0  0  0  0  0
  192.3550  175.3570  145.7020 C   0  0  2  0  0  3  0  0  0  0  0  0
  192.0410  176.1490  146.8770 N   0  0  0  0  0  2  0  0  0  0  0  0
  190.6790  175.8410  147.2760 C   0  0  0  0  0  2  0  0  0  0  0  0
  186.6830  176.3940  145.9310 C   0  0  0  0  0  3  0  0  0  0  0  0
  189.9370  177.1340  147.5750 C   0  0  1  0  0  3  0  0  0  0  0  0
  189.6930  177.9040  146.2800 C   0  0  0  0  0  2  0  0  0  0  0  0
  187.4610  178.0330  147.3540 C   0  0  0  0  0  3  0  0  0  0  0  0
  187.9790  176.1190  146.0140 C   0  0  0  0  0  3  0  0  0  0  0  0
  188.5570  177.1400  146.9270 C   0  0  2  0  0  0  0  0  0  0  0  0
  186.3640  177.5730  146.7560 C   0  0  0  0  0  3  0  0  0  0  0  0
  191.2820  171.1060  143.2120 C   0  0  0  0  0  2  0  0  0  0  0  0
  190.1110  170.9870  142.2470 C   0  0  0  0  0  2  0  0  0  0  0  0
  190.4280  171.6230  140.8950 C   0  0  0  0  0  2  0  0  0  0  0  0
  189.6200  176.8020  142.8630 C   0  0  1  0  0  3  0  0  0  0  0  0
  188.0400  178.2180  141.6950 O   0  0  0  0  0  0  0  0  0  0  0  0
  188.5440  177.8840  142.9590 C   0  0  0  0  0  2  0  0  0  0  0  0
  190.2690  174.5580  141.8870 C   0  0  1  0  0  3  0  0  0  0  0  0
  189.3220  173.3860  142.0220 C   0  0  1  0  0  3  0  0  0  0  0  0
  187.9020  173.9290  142.0190 C   0  0  0  0  0  2  0  0  0  0  0  0
  187.9750  175.3260  141.4450 C   0  0  2  0  0  3  0  0  0  0  0  0
  190.6220  173.9380  140.5510 C   0  0  0  0  0  2  0  0  0  0  0  0
  186.9690  177.3530  141.3490 C   0  0  1  0  0  3  0  0  0  0  0  0
  189.4210  175.8140  141.6850 C   0  0  1  0  0  3  0  0  0  0  0  0
  189.6630  172.8510  140.7070 N   0  0  0  0  0  0  0  0  0  0  0  0
  186.9860  176.1240  142.0410 O   0  0  0  0  0  0  0  0  0  0  0  0
  185.4480  178.7300  142.7010 C   0  0  0  0  0  0  0  0  0  0  0  0
  185.6820  179.6940  143.4690 O   0  0  0  0  0  0  0  0  0  0  0  0
  184.7610  177.4350  142.3840 O   0  0  0  0  0  0  0  0  0  0  0  0
  184.9960  178.6050  140.4260 O   0  0  0  0  0  1  0  0  0  0  0  0
  185.6270  178.0440  141.5290 C   0  0  2  0  0  0  0  0  0  0  0  0
  190.9380  178.7350  143.4070 O   0  0  0  0  0  1  0  0  0  0  0  0
  190.9710  177.4960  142.7620 C   0  0  0  0  0  2  0  0  0  0  0  0
  195.4960  173.9800  144.0190 C   0  0  1  0  0  3  0  0  0  0  0  0
  196.7280  173.1700  144.4740 C   0  0  1  0  0  3  0  0  0  0  0  0
  197.8440  174.0630  145.0050 C   0  0  0  0  0  1  0  0  0  0  0  0
  196.3810  172.1740  145.4410 O   0  0  0  0  0  0  0  0  0  0  0  0
  196.3600  170.1670  144.0730 O   0  0  0  0  0  0  0  0  0  0  0  0
  197.1400  170.1520  146.2240 O   0  0  0  0  0  1  0  0  0  0  0  0
  196.6350  170.8060  145.2750 C   0  0  0  0  0  0  0  0  0  0  0  0
  195.2440  173.9550  142.5080 C   0  0  0  0  0  2  0  0  0  0  0  0
  195.2010  176.4030  141.4210 C   0  0  0  0  0  3  0  0  0  0  0  0
  195.2200  175.2980  141.9070 C   0  0  0  0  0  0  0  0  0  0  0  0
  1  7  1  0  0  0  0
  2  1  1  0  0  0  0
  2  6  2  0  0  0  0
  3  1  1  0  0  0  0
  3  5  1  0  0  0  0
  5 41  1  6  0  0  0
  5  8  1  0  0  0  0
  7  9  1  0  0  0  0
  8  4  2  0  0  0  0
  9  8  1  0  0  0  0
  9 10  1  1  0  0  0
 10 11  1  0  0  0  0
 12 16  2  0  0  0  0
 12 18  1  0  0  0  0
 13 11  1  6  0  0  0
 14 17  1  0  0  0  0
 14 13  1  0  0  0  0
 16 17  1  0  0  0  0
 17 15  1  0  0  0  0
 17 13  1  0  0  0  0
 18 15  2  0  0  0  0
 19  2  1  0  0  0  0
 20 19  1  0  0  0  0
 21 20  1  0  0  0  0
 22 40  1  6  0  0  0
 22 24  1  0  0  0  0
 23 24  1  0  0  0  0
 25 29  1  6  0  0  0
 25 26  1  0  0  0  0
 26 27  1  6  0  0  0
 28 31  1  0  0  0  0
 28 27  1  1  0  0  0
 28 33  1  0  0  0  0
 29 32  1  0  0  0  0
 30 38  1  0  0  0  0
 30 23  1  1  0  0  0
 30 33  1  0  0  0  0
 31 25  1  0  0  0  0
 31 22  1  0  0  0  0
 32 21  1  0  0  0  0
 32 26  1  0  0  0  0
 34 35  2  0  0  0  0
 36 34  1  0  0  0  0
 37 38  1  0  0  0  0
 38 36  1  0  0  0  0
 38 34  1  0  0  0  0
 40 39  1  0  0  0  0
 41 42  1  0  0  0  0
 42 43  1  0  0  0  0
 42 44  1  0  0  0  0
 45 47  2  0  0  0  0
 47 44  1  0  0  0  0
 47 46  1  0  0  0  0
 48 41  1  0  0  0  0
 49 50  3  0  0  0  0
 50 48  1  0  0  0  0
M  END
>  <MODEL>
5

>  <REMARK>
 VINA RESULT:      -7.0      3.364      8.779
  Name = 
  15 active torsions:
  status: ('A' for Active; 'I' for Inactive)
    1  A    between atoms: O_3  and  C_20
    2  A    between atoms: O_3  and  C_39
    3  A    between atoms: C_4  and  C_38
    4  A    between atoms: C_4  and  N_40
    5  A    between atoms: C_6  and  C_36
    6  A    between atoms: C_10  and  C_29
    7  A    between atoms: N_12  and  C_18
    8  A    between atoms: N_12  and  C_50
    9  A    between atoms: C_14  and  C_46
   10  A    between atoms: C_15  and  C_44
   11  A    between atoms: C_15  and  C_46
   12  A    between atoms: C_18  and  C_22
   13  A    between atoms: C_33  and  C_43
   14  A    between atoms: C_36  and  C_38
   15  A    between atoms: C_39  and  C_46
                            x       y       z     vdW  Elec       q    Type
                         _______ _______ _______ _____ _____    ______ ____

>  <TORSDO>
F 15

$$$$
=
 OpenBabel11062420523D

 50 56  0  0  1  0  0  0  0  0999 V2000
  193.2920  175.0680  145.1520 N   0  0  0  0  0  0  0  0  0  0  0  0
  194.1260  176.2320  145.0210 C   0  0  0  0  0  0  0  0  0  0  0  0
  193.8980  173.7340  145.1980 C   0  0  0  0  0  2  0  0  0  0  0  0
  190.8530  172.0920  144.0100 O   0  0  0  0  0  0  0  0  0  0  0  0
  193.1220  172.7610  144.3110 C   0  0  2  0  0  3  0  0  0  0  0  0
  193.6040  177.3770  144.9070 O   0  0  0  0  0  0  0  0  0  0  0  0
  191.8380  175.2400  145.2800 C   0  0  0  0  0  2  0  0  0  0  0  0
  191.6280  172.8580  144.5710 C   0  0  0  0  0  0  0  0  0  0  0  0
  191.1140  173.9110  145.5300 C   0  0  2  0  0  3  0  0  0  0  0  0
  189.6830  174.1000  145.3790 N   0  0  0  0  0  2  0  0  0  0  0  0
  189.4150  175.5270  145.3810 C   0  0  0  0  0  2  0  0  0  0  0  0
  185.6750  177.5220  145.0350 C   0  0  0  0  0  3  0  0  0  0  0  0
  188.6160  175.8880  146.6240 C   0  0  1  0  0  3  0  0  0  0  0  0
  188.5690  177.4060  146.7880 C   0  0  0  0  0  2  0  0  0  0  0  0
  186.1930  176.7990  147.1620 C   0  0  0  0  0  3  0  0  0  0  0  0
  186.9460  177.1550  144.9190 C   0  0  0  0  0  3  0  0  0  0  0  0
  187.3560  176.6670  146.2620 C   0  0  2  0  0  0  0  0  0  0  0  0
  185.2120  177.3030  146.4170 C   0  0  0  0  0  3  0  0  0  0  0  0
  195.6200  176.1170  145.0190 C   0  0  0  0  0  2  0  0  0  0  0  0
  196.2110  176.8530  143.8250 C   0  0  0  0  0  2  0  0  0  0  0  0
  196.9830  175.9090  142.9060 C   0  0  0  0  0  2  0  0  0  0  0  0
  194.1960  175.2180  138.1000 C   0  0  1  0  0  3  0  0  0  0  0  0
  192.9020  173.1900  137.8290 O   0  0  0  0  0  0  0  0  0  0  0  0
  192.9360  174.5600  137.5400 C   0  0  0  0  0  2  0  0  0  0  0  0
  195.7170  175.4900  140.1050 C   0  0  1  0  0  3  0  0  0  0  0  0
  195.1200  175.8500  141.4480 C   0  0  1  0  0  3  0  0  0  0  0  0
  193.7290  175.2410  141.5200 C   0  0  0  0  0  2  0  0  0  0  0  0
  193.6680  174.1740  140.4510 C   0  0  2  0  0  3  0  0  0  0  0  0
  196.7090  174.6860  140.9200 C   0  0  0  0  0  2  0  0  0  0  0  0
  192.3080  172.9690  139.0990 C   0  0  1  0  0  3  0  0  0  0  0  0
  194.7300  174.5610  139.3980 C   0  0  1  0  0  3  0  0  0  0  0  0
  196.0720  175.0250  142.1870 N   0  0  0  0  0  0  0  0  0  0  0  0
  192.3580  174.0920  139.9510 O   0  0  0  0  0  0  0  0  0  0  0  0
  190.5450  171.3540  139.6660 C   0  0  0  0  0  0  0  0  0  0  0  0
  190.3020  170.7520  140.7390 O   0  0  0  0  0  0  0  0  0  0  0  0
  190.7070  171.3760  138.1750 O   0  0  0  0  0  0  0  0  0  0  0  0
  189.8480  173.4020  138.8190 O   0  0  0  0  0  1  0  0  0  0  0  0
  190.8760  172.4780  138.9550 C   0  0  2  0  0  0  0  0  0  0  0  0
  196.0310  174.0380  137.0950 O   0  0  0  0  0  1  0  0  0  0  0  0
  195.2570  175.1970  137.0080 C   0  0  0  0  0  2  0  0  0  0  0  0
  193.7240  171.3500  144.4260 C   0  0  1  0  0  3  0  0  0  0  0  0
  194.5240  170.8600  143.2010 C   0  0  1  0  0  3  0  0  0  0  0  0
  193.6540  170.7270  141.9560 C   0  0  0  0  0  1  0  0  0  0  0  0
  195.6530  171.6990  142.9350 O   0  0  0  0  0  0  0  0  0  0  0  0
  197.2770  170.1180  143.8090 O   0  0  0  0  0  1  0  0  0  0  0  0
  197.8890  172.2020  143.0880 O   0  0  0  0  0  0  0  0  0  0  0  0
  196.9700  171.3650  143.2800 C   0  0  0  0  0  0  0  0  0  0  0  0
  194.4330  171.1440  145.7690 C   0  0  0  0  0  2  0  0  0  0  0  0
  194.6720  168.5640  146.4470 C   0  0  0  0  0  3  0  0  0  0  0  0
  194.5650  169.7260  146.1380 C   0  0  0  0  0  0  0  0  0  0  0  0
  1  3  1  0  0  0  0
  1  7  1  0  0  0  0
  2  1  1  0  0  0  0
  4  8  2  0  0  0  0
  5 41  1  1  0  0  0
  5  8  1  0  0  0  0
  5  3  1  0  0  0  0
  6  2  2  0  0  0  0
  7  9  1  0  0  0  0
  8  9  1  0  0  0  0
  9 10  1  6  0  0  0
 10 11  1  0  0  0  0
 12 18  1  0  0  0  0
 13 11  1  6  0  0  0
 13 14  1  0  0  0  0
 16 12  2  0  0  0  0
 16 17  1  0  0  0  0
 17 13  1  0  0  0  0
 17 14  1  0  0  0  0
 17 15  1  0  0  0  0
 18 15  2  0  0  0  0
 19  2  1  0  0  0  0
 20 19  1  0  0  0  0
 21 20  1  0  0  0  0
 22 40  1  6  0  0  0
 22 31  1  0  0  0  0
 24 23  1  0  0  0  0
 24 22  1  0  0  0  0
 25 29  1  1  0  0  0
 25 26  1  0  0  0  0
 26 27  1  6  0  0  0
 26 32  1  0  0  0  0
 28 27  1  1  0  0  0
 29 32  1  0  0  0  0
 30 23  1  6  0  0  0
 30 33  1  0  0  0  0
 31 25  1  0  0  0  0
 31 28  1  0  0  0  0
 32 21  1  0  0  0  0
 33 28  1  0  0  0  0
 34 35  2  0  0  0  0
 36 38  1  0  0  0  0
 36 34  1  0  0  0  0
 37 38  1  0  0  0  0
 38 30  1  0  0  0  0
 38 34  1  0  0  0  0
 40 39  1  0  0  0  0
 41 48  1  0  0  0  0
 42 41  1  0  0  0  0
 43 42  1  0  0  0  0
 44 42  1  0  0  0  0
 44 47  1  0  0  0  0
 46 47  2  0  0  0  0
 47 45  1  0  0  0  0
 48 50  1  0  0  0  0
 50 49  3  0  0  0  0
M  END
>  <MODEL>
6

>  <REMARK>
 VINA RESULT:      -6.9      4.269      8.426
  Name = 
  15 active torsions:
  status: ('A' for Active; 'I' for Inactive)
    1  A    between atoms: O_3  and  C_20
    2  A    between atoms: O_3  and  C_39
    3  A    between atoms: C_4  and  C_38
    4  A    between atoms: C_4  and  N_40
    5  A    between atoms: C_6  and  C_36
    6  A    between atoms: C_10  and  C_29
    7  A    between atoms: N_12  and  C_18
    8  A    between atoms: N_12  and  C_50
    9  A    between atoms: C_14  and  C_46
   10  A    between atoms: C_15  and  C_44
   11  A    between atoms: C_15  and  C_46
   12  A    between atoms: C_18  and  C_22
   13  A    between atoms: C_33  and  C_43
   14  A    between atoms: C_36  and  C_38
   15  A    between atoms: C_39  and  C_46
                            x       y       z     vdW  Elec       q    Type
                         _______ _______ _______ _____ _____    ______ ____

>  <TORSDO>
F 15

$$$$
=
 OpenBabel11062420523D

 50 56  0  0  1  0  0  0  0  0999 V2000
  189.2320  175.2140  141.3660 N   0  0  0  0  0  0  0  0  0  0  0  0
  188.7320  174.4780  140.2370 C   0  0  0  0  0  0  0  0  0  0  0  0
  190.4970  174.8230  141.9950 C   0  0  0  0  0  2  0  0  0  0  0  0
  189.6060  176.3490  145.1980 O   0  0  0  0  0  0  0  0  0  0  0  0
  190.3660  174.8360  143.5180 C   0  0  2  0  0  3  0  0  0  0  0  0
  187.6080  174.7660  139.7380 O   0  0  0  0  0  0  0  0  0  0  0  0
  188.4810  176.3830  141.8470 C   0  0  0  0  0  2  0  0  0  0  0  0
  189.7170  176.1240  143.9980 C   0  0  0  0  0  0  0  0  0  0  0  0
  189.2120  177.1200  142.9760 C   0  0  2  0  0  3  0  0  0  0  0  0
  188.3170  178.0860  143.5860 N   0  0  0  0  0  2  0  0  0  0  0  0
  187.0370  178.0050  142.9070 C   0  0  0  0  0  2  0  0  0  0  0  0
  185.0660  176.8380  146.4900 C   0  0  0  0  0  3  0  0  0  0  0  0
  186.0470  178.9410  143.5820 C   0  0  1  0  0  3  0  0  0  0  0  0
  184.6380  178.3580  143.4960 C   0  0  0  0  0  2  0  0  0  0  0  0
  184.7410  179.0370  145.8790 C   0  0  0  0  0  3  0  0  0  0  0  0
  185.5750  176.8810  145.2650 C   0  0  0  0  0  3  0  0  0  0  0  0
  185.4060  178.2820  144.7990 C   0  0  2  0  0  0  0  0  0  0  0  0
  184.5520  178.1670  146.8680 C   0  0  0  0  0  3  0  0  0  0  0  0
  189.5260  173.3610  139.6290 C   0  0  0  0  0  2  0  0  0  0  0  0
  190.1340  173.7980  138.3040 C   0  0  0  0  0  2  0  0  0  0  0  0
  191.5890  173.3520  138.1770 C   0  0  0  0  0  2  0  0  0  0  0  0
  196.5340  172.7220  140.7250 C   0  0  1  0  0  3  0  0  0  0  0  0
  196.6880  173.3500  143.0580 O   0  0  0  0  0  0  0  0  0  0  0  0
  197.1360  172.4320  142.1000 C   0  0  0  0  0  2  0  0  0  0  0  0
  194.4320  173.2380  139.4120 C   0  0  1  0  0  3  0  0  0  0  0  0
  193.2100  172.3650  139.5900 C   0  0  1  0  0  3  0  0  0  0  0  0
  193.2070  171.8520  141.0210 C   0  0  0  0  0  2  0  0  0  0  0  0
  194.1400  172.7470  141.8040 C   0  0  2  0  0  3  0  0  0  0  0  0
  193.4310  174.3600  139.2300 C   0  0  0  0  0  2  0  0  0  0  0  0
  195.4680  172.9080  143.6320 C   0  0  1  0  0  3  0  0  0  0  0  0
  195.1190  173.3520  140.7730 C   0  0  1  0  0  3  0  0  0  0  0  0
  192.2850  173.4860  139.4520 N   0  0  0  0  0  0  0  0  0  0  0  0
  194.7560  172.0000  142.8200 O   0  0  0  0  0  0  0  0  0  0  0  0
  196.6710  172.9050  145.7750 C   0  0  0  0  0  0  0  0  0  0  0  0
  197.1210  173.8540  146.4610 O   0  0  0  0  0  0  0  0  0  0  0  0
  196.8100  171.5480  145.1500 O   0  0  0  0  0  0  0  0  0  0  0  0
  194.6110  171.8320  145.7350 O   0  0  0  0  0  1  0  0  0  0  0  0
  195.6950  172.3170  145.0140 C   0  0  2  0  0  0  0  0  0  0  0  0
  197.2840  174.9650  140.3050 O   0  0  0  0  0  1  0  0  0  0  0  0
  197.5020  173.6250  139.9740 C   0  0  0  0  0  2  0  0  0  0  0  0
  191.7190  174.4960  144.1660 C   0  0  1  0  0  3  0  0  0  0  0  0
  192.4210  175.6560  144.9020 C   0  0  1  0  0  3  0  0  0  0  0  0
  192.8320  175.2780  146.3200 C   0  0  0  0  0  1  0  0  0  0  0  0
  193.5470  176.1470  144.1670 O   0  0  0  0  0  0  0  0  0  0  0  0
  195.9640  176.3180  144.3480 O   0  0  0  0  0  0  0  0  0  0  0  0
  194.5640  177.5390  145.6850 O   0  0  0  0  0  1  0  0  0  0  0  0
  194.6920  176.6880  144.7670 C   0  0  0  0  0  0  0  0  0  0  0  0
  191.6530  173.1880  144.9620 C   0  0  0  0  0  2  0  0  0  0  0  0
  189.3550  171.8620  144.5980 C   0  0  0  0  0  3  0  0  0  0  0  0
  190.3930  172.4560  144.7610 C   0  0  0  0  0  0  0  0  0  0  0  0
  1  7  1  0  0  0  0
  1  3  1  0  0  0  0
  2  1  1  0  0  0  0
  3  5  1  0  0  0  0
  5  8  1  0  0  0  0
  5 41  1  1  0  0  0
  6  2  2  0  0  0  0
  7  9  1  0  0  0  0
  8  4  2  0  0  0  0
  9 10  1  1  0  0  0
  9  8  1  0  0  0  0
 11 10  1  0  0  0  0
 12 18  1  0  0  0  0
 13 11  1  6  0  0  0
 13 17  1  0  0  0  0
 14 13  1  0  0  0  0
 14 17  1  0  0  0  0
 15 18  2  0  0  0  0
 16 12  2  0  0  0  0
 17 16  1  0  0  0  0
 17 15  1  0  0  0  0
 19  2  1  0  0  0  0
 20 19  1  0  0  0  0
 21 20  1  0  0  0  0
 21 32  1  0  0  0  0
 22 40  1  1  0  0  0
 22 31  1  0  0  0  0
 22 24  1  0  0  0  0
 23 30  1  0  0  0  0
 24 23  1  0  0  0  0
 25 29  1  1  0  0  0
 25 26  1  0  0  0  0
 25 31  1  0  0  0  0
 26 27  1  1  0  0  0
 28 27  1  6  0  0  0
 28 33  1  0  0  0  0
 29 32  1  0  0  0  0
 30 33  1  6  0  0  0
 30 38  1  0  0  0  0
 31 28  1  0  0  0  0
 32 26  1  0  0  0  0
 34 35  2  0  0  0  0
 36 34  1  0  0  0  0
 38 36  1  0  0  0  0
 38 37  1  0  0  0  0
 38 34  1  0  0  0  0
 40 39  1  0  0  0  0
 41 42  1  0  0  0  0
 41 48  1  0  0  0  0
 42 43  1  0  0  0  0
 44 47  1  0  0  0  0
 44 42  1  0  0  0  0
 45 47  2  0  0  0  0
 47 46  1  0  0  0  0
 49 50  3  0  0  0  0
 50 48  1  0  0  0  0
M  END
>  <MODEL>
7

>  <REMARK>
 VINA RESULT:      -6.8      3.199      6.226
  Name = 
  15 active torsions:
  status: ('A' for Active; 'I' for Inactive)
    1  A    between atoms: O_3  and  C_20
    2  A    between atoms: O_3  and  C_39
    3  A    between atoms: C_4  and  C_38
    4  A    between atoms: C_4  and  N_40
    5  A    between atoms: C_6  and  C_36
    6  A    between atoms: C_10  and  C_29
    7  A    between atoms: N_12  and  C_18
    8  A    between atoms: N_12  and  C_50
    9  A    between atoms: C_14  and  C_46
   10  A    between atoms: C_15  and  C_44
   11  A    between atoms: C_15  and  C_46
   12  A    between atoms: C_18  and  C_22
   13  A    between atoms: C_33  and  C_43
   14  A    between atoms: C_36  and  C_38
   15  A    between atoms: C_39  and  C_46
                            x       y       z     vdW  Elec       q    Type
                         _______ _______ _______ _____ _____    ______ ____

>  <TORSDO>
F 15

$$$$
=
 OpenBabel11062420523D

 50 56  0  0  1  0  0  0  0  0999 V2000
  192.9150  172.7360  143.5430 N   0  0  0  0  0  0  0  0  0  0  0  0
  191.8890  171.7530  143.3240 C   0  0  0  0  0  0  0  0  0  0  0  0
  193.9760  172.9230  142.5480 C   0  0  0  0  0  2  0  0  0  0  0  0
  196.3060  174.3130  145.0020 O   0  0  0  0  0  0  0  0  0  0  0  0
  195.3380  173.0410  143.2320 C   0  0  2  0  0  3  0  0  0  0  0  0
  191.0160  171.5380  144.2120 O   0  0  0  0  0  0  0  0  0  0  0  0
  192.8590  173.5720  144.7500 C   0  0  0  0  0  2  0  0  0  0  0  0
  195.2850  174.0260  144.3880 C   0  0  0  0  0  0  0  0  0  0  0  0
  193.9560  174.6440  144.7680 C   0  0  2  0  0  3  0  0  0  0  0  0
  194.0210  175.2530  146.0840 N   0  0  0  0  0  2  0  0  0  0  0  0
  192.6980  175.1840  146.6780 C   0  0  0  0  0  2  0  0  0  0  0  0
  188.4750  175.6570  146.8520 C   0  0  0  0  0  3  0  0  0  0  0  0
  192.0770  176.5720  146.6880 C   0  0  1  0  0  3  0  0  0  0  0  0
  191.3050  176.8060  145.3920 C   0  0  0  0  0  2  0  0  0  0  0  0
  189.6780  177.6100  147.0830 C   0  0  0  0  0  3  0  0  0  0  0  0
  189.7090  175.2800  146.5400 C   0  0  0  0  0  3  0  0  0  0  0  0
  190.5540  176.4960  146.6700 C   0  0  2  0  0  0  0  0  0  0  0  0
  188.4560  177.0930  147.1860 C   0  0  0  0  0  3  0  0  0  0  0  0
  191.8300  170.9680  142.0490 C   0  0  0  0  0  2  0  0  0  0  0  0
  190.5640  171.3020  141.2740 C   0  0  0  0  0  2  0  0  0  0  0  0
  190.4860  172.7900  140.9360 C   0  0  0  0  0  2  0  0  0  0  0  0
  187.2870  177.3810  141.0920 C   0  0  1  0  0  3  0  0  0  0  0  0
  185.4360  177.4120  142.6530 O   0  0  0  0  0  0  0  0  0  0  0  0
  186.4280  178.2000  142.0550 C   0  0  0  0  0  2  0  0  0  0  0  0
  188.6090  175.2510  140.7400 C   0  0  1  0  0  3  0  0  0  0  0  0
  189.6400  174.8380  141.7670 C   0  0  1  0  0  3  0  0  0  0  0  0
  189.1670  175.3220  143.1280 C   0  0  0  0  0  2  0  0  0  0  0  0
  187.6890  175.6140  142.9930 C   0  0  2  0  0  3  0  0  0  0  0  0
  188.3800  173.7630  140.5790 C   0  0  0  0  0  2  0  0  0  0  0  0
  185.9410  176.7900  143.8240 C   0  0  1  0  0  3  0  0  0  0  0  0
  187.4420  175.8920  141.4930 C   0  0  1  0  0  3  0  0  0  0  0  0
  189.3520  173.4160  141.6070 N   0  0  0  0  0  0  0  0  0  0  0  0
  187.3470  176.6770  143.8440 O   0  0  0  0  0  0  0  0  0  0  0  0
  184.6700  178.6070  144.8820 C   0  0  0  0  0  0  0  0  0  0  0  0
  183.6010  179.1660  144.5370 O   0  0  0  0  0  0  0  0  0  0  0  0
  186.0830  178.6610  145.3830 O   0  0  0  0  0  0  0  0  0  0  0  0
  185.1190  176.7460  146.1980 O   0  0  0  0  0  1  0  0  0  0  0  0
  185.4480  177.4970  145.0770 C   0  0  2  0  0  0  0  0  0  0  0  0
  185.2840  177.5730  139.7800 O   0  0  0  0  0  1  0  0  0  0  0  0
  186.6770  177.5050  139.7030 C   0  0  0  0  0  2  0  0  0  0  0  0
  196.4310  173.3100  142.1830 C   0  0  1  0  0  3  0  0  0  0  0  0
  196.5590  174.7730  141.7090 C   0  0  1  0  0  3  0  0  0  0  0  0
  197.9410  175.3530  141.9850 C   0  0  0  0  0  1  0  0  0  0  0  0
  196.2250  174.9130  140.3240 O   0  0  0  0  0  0  0  0  0  0  0  0
  195.2580  173.0510  139.1000 O   0  0  0  0  0  1  0  0  0  0  0  0
  197.4270  173.7070  138.7820 O   0  0  0  0  0  0  0  0  0  0  0  0
  196.3370  173.8770  139.3870 C   0  0  0  0  0  0  0  0  0  0  0  0
  197.7600  172.6500  142.5670 C   0  0  0  0  0  2  0  0  0  0  0  0
  197.5390  170.0090  142.9530 C   0  0  0  0  0  3  0  0  0  0  0  0
  197.6400  171.2000  142.7830 C   0  0  0  0  0  0  0  0  0  0  0  0
  1  7  1  0  0  0  0
  2  1  1  0  0  0  0
  2  6  2  0  0  0  0
  3  5  1  0  0  0  0
  3  1  1  0  0  0  0
  5 41  1  6  0  0  0
  5  8  1  0  0  0  0
  7  9  1  0  0  0  0
  8  9  1  0  0  0  0
  8  4  2  0  0  0  0
  9 10  1  1  0  0  0
 10 11  1  0  0  0  0
 12 18  1  0  0  0  0
 13 11  1  6  0  0  0
 14 17  1  0  0  0  0
 14 13  1  0  0  0  0
 15 18  2  0  0  0  0
 16 17  1  0  0  0  0
 16 12  2  0  0  0  0
 17 13  1  0  0  0  0
 17 15  1  0  0  0  0
 19  2  1  0  0  0  0
 20 19  1  0  0  0  0
 21 20  1  0  0  0  0
 21 32  1  0  0  0  0
 22 40  1  6  0  0  0
 22 31  1  0  0  0  0
 22 24  1  0  0  0  0
 24 23  1  0  0  0  0
 25 29  1  1  0  0  0
 25 31  1  0  0  0  0
 25 26  1  0  0  0  0
 26 27  1  1  0  0  0
 28 27  1  6  0  0  0
 28 33  1  0  0  0  0
 29 32  1  0  0  0  0
 30 23  1  6  0  0  0
 30 33  1  0  0  0  0
 30 38  1  0  0  0  0
 31 28  1  0  0  0  0
 32 26  1  0  0  0  0
 34 38  1  0  0  0  0
 34 36  1  0  0  0  0
 35 34  2  0  0  0  0
 38 36  1  0  0  0  0
 38 37  1  0  0  0  0
 40 39  1  0  0  0  0
 41 48  1  0  0  0  0
 42 43  1  0  0  0  0
 42 41  1  0  0  0  0
 44 42  1  0  0  0  0
 45 47  1  0  0  0  0
 46 47  2  0  0  0  0
 47 44  1  0  0  0  0
 48 50  1  0  0  0  0
 50 49  3  0  0  0  0
M  END
>  <MODEL>
8

>  <REMARK>
 VINA RESULT:      -6.8      3.466      9.496
  Name = 
  15 active torsions:
  status: ('A' for Active; 'I' for Inactive)
    1  A    between atoms: O_3  and  C_20
    2  A    between atoms: O_3  and  C_39
    3  A    between atoms: C_4  and  C_38
    4  A    between atoms: C_4  and  N_40
    5  A    between atoms: C_6  and  C_36
    6  A    between atoms: C_10  and  C_29
    7  A    between atoms: N_12  and  C_18
    8  A    between atoms: N_12  and  C_50
    9  A    between atoms: C_14  and  C_46
   10  A    between atoms: C_15  and  C_44
   11  A    between atoms: C_15  and  C_46
   12  A    between atoms: C_18  and  C_22
   13  A    between atoms: C_33  and  C_43
   14  A    between atoms: C_36  and  C_38
   15  A    between atoms: C_39  and  C_46
                            x       y       z     vdW  Elec       q    Type
                         _______ _______ _______ _____ _____    ______ ____

>  <TORSDO>
F 15

$$$$
=
 OpenBabel11062420523D

 50 56  0  0  1  0  0  0  0  0999 V2000
  194.9110  174.6370  143.8600 N   0  0  0  0  0  0  0  0  0  0  0  0
  194.9160  175.6970  144.8300 C   0  0  0  0  0  0  0  0  0  0  0  0
  194.4910  173.2870  144.2500 C   0  0  0  0  0  2  0  0  0  0  0  0
  196.3800  171.7030  141.5470 O   0  0  0  0  0  0  0  0  0  0  0  0
  195.4450  172.2410  143.6740 C   0  0  2  0  0  3  0  0  0  0  0  0
  195.3460  176.8430  144.5170 O   0  0  0  0  0  0  0  0  0  0  0  0
  195.2900  174.9360  142.4710 C   0  0  0  0  0  2  0  0  0  0  0  0
  195.7040  172.4920  142.1980 C   0  0  0  0  0  0  0  0  0  0  0  0
  195.1160  173.7250  141.5460 C   0  0  2  0  0  3  0  0  0  0  0  0
  195.7510  173.9930  140.2690 N   0  0  0  0  0  2  0  0  0  0  0  0
  194.7670  173.7780  139.2230 C   0  0  0  0  0  2  0  0  0  0  0  0
  191.6010  174.5940  136.5030 C   0  0  0  0  0  3  0  0  0  0  0  0
  194.9260  174.8460  138.1530 C   0  0  1  0  0  3  0  0  0  0  0  0
  194.9520  174.1970  136.7710 C   0  0  0  0  0  2  0  0  0  0  0  0
  193.3690  176.0700  136.4010 C   0  0  0  0  0  3  0  0  0  0  0  0
  192.5200  174.0040  137.2590 C   0  0  0  0  0  3  0  0  0  0  0  0
  193.7010  174.9060  137.2460 C   0  0  2  0  0  0  0  0  0  0  0  0
  192.1240  175.8660  135.9750 C   0  0  0  0  0  3  0  0  0  0  0  0
  194.4130  175.4710  146.2240 C   0  0  0  0  0  2  0  0  0  0  0  0
  193.0970  176.2020  146.4430 C   0  0  0  0  0  2  0  0  0  0  0  0
  192.0650  175.3110  147.1310 C   0  0  0  0  0  2  0  0  0  0  0  0
  188.6910  175.5490  142.6700 C   0  0  1  0  0  3  0  0  0  0  0  0
  186.3900  176.2100  143.0310 O   0  0  0  0  0  0  0  0  0  0  0  0
  187.4690  176.2980  142.1410 C   0  0  0  0  0  2  0  0  0  0  0  0
  190.2130  175.1310  144.6490 C   0  0  1  0  0  3  0  0  0  0  0  0
  190.8070  176.3080  145.3920 C   0  0  1  0  0  3  0  0  0  0  0  0
  189.8150  177.4570  145.3170 C   0  0  0  0  0  2  0  0  0  0  0  0
  188.4810  176.8540  144.9380 C   0  0  2  0  0  3  0  0  0  0  0  0
  190.1820  174.4680  146.0110 C   0  0  0  0  0  2  0  0  0  0  0  0
  186.4610  177.2490  143.9950 C   0  0  1  0  0  3  0  0  0  0  0  0
  188.8010  175.5260  144.2160 C   0  0  1  0  0  3  0  0  0  0  0  0
  190.7150  175.6430  146.6890 N   0  0  0  0  0  0  0  0  0  0  0  0
  187.7580  177.7760  144.1660 O   0  0  0  0  0  0  0  0  0  0  0  0
  184.3890  178.4680  144.5040 C   0  0  0  0  0  0  0  0  0  0  0  0
  183.8580  178.7530  145.6030 O   0  0  0  0  0  0  0  0  0  0  0  0
  184.3100  177.9660  143.0920 O   0  0  0  0  0  0  0  0  0  0  0  0
  185.9480  179.5690  143.1780 O   0  0  0  0  0  1  0  0  0  0  0  0
  185.4750  178.3610  143.6750 C   0  0  2  0  0  0  0  0  0  0  0  0
  188.7230  174.1500  140.7170 O   0  0  0  0  0  1  0  0  0  0  0  0
  188.6470  174.1330  142.1120 C   0  0  0  0  0  2  0  0  0  0  0  0
  194.9520  170.8280  144.0290 C   0  0  1  0  0  3  0  0  0  0  0  0
  194.0480  170.1500  142.9770 C   0  0  1  0  0  3  0  0  0  0  0  0
  194.4180  168.6880  142.7520 C   0  0  0  0  0  1  0  0  0  0  0  0
  192.6620  170.2710  143.3120 O   0  0  0  0  0  0  0  0  0  0  0  0
  190.4730  170.4220  142.2710 O   0  0  0  0  0  1  0  0  0  0  0  0
  192.0260  172.0890  142.0620 O   0  0  0  0  0  0  0  0  0  0  0  0
  191.7280  170.9590  142.5250 C   0  0  0  0  0  0  0  0  0  0  0  0
  196.0900  169.9440  144.5500 C   0  0  0  0  0  2  0  0  0  0  0  0
  195.5730  168.8700  146.9490 C   0  0  0  0  0  3  0  0  0  0  0  0
  195.8030  169.3530  145.8660 C   0  0  0  0  0  0  0  0  0  0  0  0
  1  3  1  0  0  0  0
  1  2  1  0  0  0  0
  2 19  1  0  0  0  0
  4  8  2  0  0  0  0
  5 41  1  6  0  0  0
  5  3  1  0  0  0  0
  6  2  2  0  0  0  0
  7  1  1  0  0  0  0
  8  5  1  0  0  0  0
  9 10  1  6  0  0  0
  9  8  1  0  0  0  0
  9  7  1  0  0  0  0
 11 10  1  0  0  0  0
 12 16  2  0  0  0  0
 13 11  1  1  0  0  0
 14 17  1  0  0  0  0
 14 13  1  0  0  0  0
 15 17  1  0  0  0  0
 17 16  1  0  0  0  0
 17 13  1  0  0  0  0
 18 15  2  0  0  0  0
 18 12  1  0  0  0  0
 19 20  1  0  0  0  0
 20 21  1  0  0  0  0
 22 40  1  1  0  0  0
 22 31  1  0  0  0  0
 24 22  1  0  0  0  0
 24 23  1  0  0  0  0
 25 26  1  0  0  0  0
 25 29  1  1  0  0  0
 26 27  1  1  0  0  0
 26 32  1  0  0  0  0
 28 27  1  6  0  0  0
 29 32  1  0  0  0  0
 30 23  1  6  0  0  0
 30 33  1  0  0  0  0
 31 25  1  0  0  0  0
 31 28  1  0  0  0  0
 32 21  1  0  0  0  0
 33 28  1  0  0  0  0
 34 35  2  0  0  0  0
 36 38  1  0  0  0  0
 36 34  1  0  0  0  0
 37 38  1  0  0  0  0
 38 30  1  0  0  0  0
 38 34  1  0  0  0  0
 39 40  1  0  0  0  0
 41 48  1  0  0  0  0
 42 44  1  0  0  0  0
 42 41  1  0  0  0  0
 43 42  1  0  0  0  0
 45 47  1  0  0  0  0
 46 47  2  0  0  0  0
 47 44  1  0  0  0  0
 48 50  1  0  0  0  0
 50 49  3  0  0  0  0
M  END
>  <MODEL>
9

>  <REMARK>
 VINA RESULT:      -6.7      3.544      9.805
  Name = 
  15 active torsions:
  status: ('A' for Active; 'I' for Inactive)
    1  A    between atoms: O_3  and  C_20
    2  A    between atoms: O_3  and  C_39
    3  A    between atoms: C_4  and  C_38
    4  A    between atoms: C_4  and  N_40
    5  A    between atoms: C_6  and  C_36
    6  A    between atoms: C_10  and  C_29
    7  A    between atoms: N_12  and  C_18
    8  A    between atoms: N_12  and  C_50
    9  A    between atoms: C_14  and  C_46
   10  A    between atoms: C_15  and  C_44
   11  A    between atoms: C_15  and  C_46
   12  A    between atoms: C_18  and  C_22
   13  A    between atoms: C_33  and  C_43
   14  A    between atoms: C_36  and  C_38
   15  A    between atoms: C_39  and  C_46
                            x       y       z     vdW  Elec       q    Type
                         _______ _______ _______ _____ _____    ______ ____

>  <TORSDO>
F 15

$$$$
