=
 OpenBabel11062420143D

 25 28  0  0  1  0  0  0  0  0999 V2000
  188.8290  174.6260  147.5500 O   0  0  0  0  0  0  0  0  0  0  0  0
  190.1800  177.0530  145.1500 C   0  0  0  0  0  0  0  0  0  0  0  0
  189.0860  176.4040  145.9680 C   0  0  1  0  0  3  0  0  0  0  0  0
  191.8960  175.9880  146.5300 C   0  0  0  0  0  3  0  0  0  0  0  0
  191.4740  176.8710  145.4330 C   0  0  0  0  0  3  0  0  0  0  0  0
  191.0270  175.3050  147.2110 N   0  0  0  0  0  0  0  0  0  0  0  0
  189.6240  175.3900  146.9440 C   0  0  0  0  0  0  0  0  0  0  0  0
  189.8070  177.9350  144.0010 C   0  0  0  0  0  2  0  0  0  0  0  0
  189.4770  177.1210  142.7570 C   0  0  0  0  0  2  0  0  0  0  0  0
  186.9830  176.7080  142.3750 C   0  0  1  0  0  0  0  0  0  0  0  0
  188.5200  173.4880  142.4190 O   0  0  0  0  0  1  0  0  0  0  0  0
  187.6790  176.6580  141.0270 C   0  0  2  0  0  0  0  0  0  0  0  0
  188.2230  175.2490  140.8370 C   0  0  0  0  0  2  0  0  0  0  0  0
  187.1440  175.3420  143.0220 C   0  0  0  0  0  2  0  0  0  0  0  0
  188.1880  177.6140  142.1040 C   0  0  2  0  0  3  0  0  0  0  0  0
  186.9410  177.2220  139.9840 O   0  0  0  0  0  1  0  0  0  0  0  0
  185.6150  177.3700  142.3900 C   0  0  0  0  0  1  0  0  0  0  0  0
  187.5880  174.3980  141.9200 C   0  0  2  0  0  3  0  0  0  0  0  0
  188.3420  177.4240  146.6930 N   0  0  0  0  0  2  0  0  0  0  0  0
  186.0300  176.8240  147.1620 C   0  0  0  0  0  2  0  0  0  0  0  0
  185.1180  178.9290  145.4250 C   0  0  0  0  0  2  0  0  0  0  0  0
  186.9950  177.4410  146.1510 C   0  0  1  0  0  3  0  0  0  0  0  0
  184.6670  176.8450  146.6310 N   0  0  0  0  0  2  0  0  0  0  0  0
  184.2490  178.2370  146.4730 C   0  0  0  0  0  2  0  0  0  0  0  0
  186.5780  178.8800  145.8610 C   0  0  0  0  0  2  0  0  0  0  0  0
  2  5  2  0  0  0  0
  2  3  1  0  0  0  0
  3 19  1  1  0  0  0
  3  7  1  0  0  0  0
  4  6  2  0  0  0  0
  5  4  1  0  0  0  0
  7  6  1  0  0  0  0
  7  1  2  0  0  0  0
  8  2  1  0  0  0  0
  9  8  1  0  0  0  0
 10 17  1  1  0  0  0
 10 14  1  0  0  0  0
 12 16  1  6  0  0  0
 12 15  1  0  0  0  0
 12 10  1  0  0  0  0
 13 12  1  0  0  0  0
 13 18  1  0  0  0  0
 15 10  1  0  0  0  0
 15  9  1  1  0  0  0
 18 11  1  1  0  0  0
 18 14  1  0  0  0  0
 21 25  1  0  0  0  0
 21 24  1  0  0  0  0
 22 19  1  1  0  0  0
 22 20  1  0  0  0  0
 23 20  1  0  0  0  0
 24 23  1  0  0  0  0
 25 22  1  0  0  0  0
M  END
>  <MODEL>
1

>  <REMARK>
 VINA RESULT:      -6.7      0.000      0.000
  Name = 
  5 active torsions:
  status: ('A' for Active; 'I' for Inactive)
    1  A    between atoms: C_3  and  C_6
    2  A    between atoms: C_6  and  C_14
    3  A    between atoms: C_7  and  N_21
    4  A    between atoms: C_14  and  C_19
    5  A    between atoms: C_15  and  N_21
                            x       y       z     vdW  Elec       q    Type
                         _______ _______ _______ _____ _____    ______ ____

>  <TORSDO>
F 5

$$$$
=
 OpenBabel11062420143D

 25 28  0  0  1  0  0  0  0  0999 V2000
  192.8240  175.4140  144.2200 O   0  0  0  0  0  0  0  0  0  0  0  0
  190.0570  176.0960  146.5340 C   0  0  0  0  0  0  0  0  0  0  0  0
  190.6910  175.4850  145.3060 C   0  0  1  0  0  3  0  0  0  0  0  0
  192.2620  176.5630  147.4860 C   0  0  0  0  0  3  0  0  0  0  0  0
  190.7930  176.5710  147.5450 C   0  0  0  0  0  3  0  0  0  0  0  0
  192.8870  176.1590  146.4220 N   0  0  0  0  0  0  0  0  0  0  0  0
  192.1840  175.6870  145.2680 C   0  0  0  0  0  0  0  0  0  0  0  0
  188.5660  176.1610  146.6320 C   0  0  0  0  0  2  0  0  0  0  0  0
  188.0380  177.5230  146.2030 C   0  0  0  0  0  2  0  0  0  0  0  0
  186.3770  178.4740  144.5080 C   0  0  1  0  0  0  0  0  0  0  0  0
  184.6700  178.4280  147.6400 O   0  0  0  0  0  1  0  0  0  0  0  0
  186.0680  176.9990  144.6910 C   0  0  2  0  0  0  0  0  0  0  0  0
  185.1670  176.8620  145.9100 C   0  0  0  0  0  2  0  0  0  0  0  0
  185.7010  179.2270  145.6420 C   0  0  0  0  0  2  0  0  0  0  0  0
  187.5150  177.4820  144.7680 C   0  0  2  0  0  3  0  0  0  0  0  0
  185.6860  176.3470  143.5160 O   0  0  0  0  0  1  0  0  0  0  0  0
  186.2430  179.0080  143.0910 C   0  0  0  0  0  1  0  0  0  0  0  0
  184.7010  178.2650  146.2550 C   0  0  2  0  0  3  0  0  0  0  0  0
  190.3960  174.0600  145.2560 N   0  0  0  0  0  2  0  0  0  0  0  0
  189.5660  172.2990  143.7940 C   0  0  0  0  0  2  0  0  0  0  0  0
  188.6090  174.2770  141.9350 C   0  0  0  0  0  2  0  0  0  0  0  0
  190.0950  173.7310  143.8740 C   0  0  1  0  0  3  0  0  0  0  0  0
  189.2500  171.9590  142.4070 N   0  0  0  0  0  2  0  0  0  0  0  0
  188.1570  172.8180  141.9530 C   0  0  0  0  0  2  0  0  0  0  0  0
  189.0400  174.6940  143.3370 C   0  0  0  0  0  2  0  0  0  0  0  0
  1  7  2  0  0  0  0
  2  8  1  0  0  0  0
  2  5  2  0  0  0  0
  3 19  1  1  0  0  0
  3  2  1  0  0  0  0
  4  5  1  0  0  0  0
  6  4  2  0  0  0  0
  7  3  1  0  0  0  0
  7  6  1  0  0  0  0
  9  8  1  0  0  0  0
 10 17  1  6  0  0  0
 10 12  1  0  0  0  0
 10 15  1  0  0  0  0
 10 14  1  0  0  0  0
 12 16  1  6  0  0  0
 12 15  1  0  0  0  0
 12 13  1  0  0  0  0
 13 18  1  0  0  0  0
 14 18  1  0  0  0  0
 15  9  1  1  0  0  0
 18 11  1  1  0  0  0
 20 22  1  0  0  0  0
 21 24  1  0  0  0  0
 21 25  1  0  0  0  0
 22 19  1  1  0  0  0
 23 20  1  0  0  0  0
 24 23  1  0  0  0  0
 25 22  1  0  0  0  0
M  END
>  <MODEL>
2

>  <REMARK>
 VINA RESULT:      -6.7      2.694      4.880
  Name = 
  5 active torsions:
  status: ('A' for Active; 'I' for Inactive)
    1  A    between atoms: C_3  and  C_6
    2  A    between atoms: C_6  and  C_14
    3  A    between atoms: C_7  and  N_21
    4  A    between atoms: C_14  and  C_19
    5  A    between atoms: C_15  and  N_21
                            x       y       z     vdW  Elec       q    Type
                         _______ _______ _______ _____ _____    ______ ____

>  <TORSDO>
F 5

$$$$
=
 OpenBabel11062420143D

 25 28  0  0  1  0  0  0  0  0999 V2000
  184.1890  178.3040  142.3500 O   0  0  0  0  0  0  0  0  0  0  0  0
  187.7420  177.5630  142.9020 C   0  0  0  0  0  0  0  0  0  0  0  0
  186.3110  177.7900  143.3320 C   0  0  1  0  0  3  0  0  0  0  0  0
  187.0360  177.2790  140.5770 C   0  0  0  0  0  3  0  0  0  0  0  0
  188.0630  177.3060  141.6290 C   0  0  0  0  0  3  0  0  0  0  0  0
  185.8000  177.5720  140.8400 N   0  0  0  0  0  0  0  0  0  0  0  0
  185.3710  177.9160  142.1620 C   0  0  0  0  0  0  0  0  0  0  0  0
  188.8310  177.6140  143.9260 C   0  0  0  0  0  2  0  0  0  0  0  0
  189.7160  176.3770  143.8600 C   0  0  0  0  0  2  0  0  0  0  0  0
  190.0210  175.1760  146.0970 C   0  0  1  0  0  0  0  0  0  0  0  0
  193.3060  175.9400  144.9330 O   0  0  0  0  0  1  0  0  0  0  0  0
  190.2210  174.1590  144.9870 C   0  0  2  0  0  0  0  0  0  0  0  0
  191.6680  174.2530  144.5270 C   0  0  0  0  0  2  0  0  0  0  0  0
  191.3350  175.9170  146.2780 C   0  0  0  0  0  2  0  0  0  0  0  0
  189.2080  175.2870  144.8030 C   0  0  2  0  0  3  0  0  0  0  0  0
  189.7050  172.8930  145.2740 O   0  0  0  0  0  1  0  0  0  0  0  0
  189.2850  174.6750  147.3290 C   0  0  0  0  0  1  0  0  0  0  0  0
  192.3900  175.0960  145.5610 C   0  0  2  0  0  3  0  0  0  0  0  0
  185.8740  176.6940  144.1860 N   0  0  0  0  0  2  0  0  0  0  0  0
  186.3510  176.6030  146.5720 C   0  0  0  0  0  2  0  0  0  0  0  0
  185.5690  179.3590  146.8470 C   0  0  0  0  0  2  0  0  0  0  0  0
  185.5210  177.2660  145.4740 C   0  0  1  0  0  3  0  0  0  0  0  0
  186.0110  177.1780  147.8730 N   0  0  0  0  0  2  0  0  0  0  0  0
  186.3960  178.5890  147.8740 C   0  0  0  0  0  2  0  0  0  0  0  0
  185.8000  178.7670  145.4610 C   0  0  0  0  0  2  0  0  0  0  0  0
  2  3  1  0  0  0  0
  2  8  1  0  0  0  0
  3 19  1  1  0  0  0
  4  6  2  0  0  0  0
  4  5  1  0  0  0  0
  5  2  2  0  0  0  0
  6  7  1  0  0  0  0
  7  1  2  0  0  0  0
  7  3  1  0  0  0  0
  9  8  1  0  0  0  0
 10 14  1  0  0  0  0
 10 17  1  1  0  0  0
 12 16  1  1  0  0  0
 12 10  1  0  0  0  0
 13 12  1  0  0  0  0
 13 18  1  0  0  0  0
 15  9  1  6  0  0  0
 15 12  1  0  0  0  0
 15 10  1  0  0  0  0
 18 11  1  6  0  0  0
 18 14  1  0  0  0  0
 20 23  1  0  0  0  0
 21 24  1  0  0  0  0
 22 19  1  6  0  0  0
 22 20  1  0  0  0  0
 23 24  1  0  0  0  0
 25 22  1  0  0  0  0
 25 21  1  0  0  0  0
M  END
>  <MODEL>
3

>  <REMARK>
 VINA RESULT:      -6.7      2.318      4.995
  Name = 
  5 active torsions:
  status: ('A' for Active; 'I' for Inactive)
    1  A    between atoms: C_3  and  C_6
    2  A    between atoms: C_6  and  C_14
    3  A    between atoms: C_7  and  N_21
    4  A    between atoms: C_14  and  C_19
    5  A    between atoms: C_15  and  N_21
                            x       y       z     vdW  Elec       q    Type
                         _______ _______ _______ _____ _____    ______ ____

>  <TORSDO>
F 5

$$$$
=
 OpenBabel11062420143D

 25 28  0  0  1  0  0  0  0  0999 V2000
  189.3900  172.4440  143.9690 O   0  0  0  0  0  0  0  0  0  0  0  0
  189.1540  175.9730  142.9850 C   0  0  0  0  0  0  0  0  0  0  0  0
  189.6460  174.8200  143.8310 C   0  0  1  0  0  3  0  0  0  0  0  0
  188.3910  174.4250  141.2520 C   0  0  0  0  0  3  0  0  0  0  0  0
  188.5960  175.7790  141.7860 C   0  0  0  0  0  3  0  0  0  0  0  0
  188.6820  173.3760  141.9590 N   0  0  0  0  0  0  0  0  0  0  0  0
  189.2310  173.4830  143.2770 C   0  0  0  0  0  0  0  0  0  0  0  0
  189.3070  177.3710  143.4950 C   0  0  0  0  0  2  0  0  0  0  0  0
  188.2270  177.7150  144.5110 C   0  0  0  0  0  2  0  0  0  0  0  0
  186.0020  178.9420  144.8050 C   0  0  1  0  0  0  0  0  0  0  0  0
  186.3050  176.7620  147.6140 O   0  0  0  0  0  1  0  0  0  0  0  0
  185.7110  177.5810  144.1980 C   0  0  2  0  0  0  0  0  0  0  0  0
  185.6220  176.5740  145.3350 C   0  0  0  0  0  2  0  0  0  0  0  0
  186.1350  178.7510  146.3070 C   0  0  0  0  0  2  0  0  0  0  0  0
  186.9990  178.3140  143.8260 C   0  0  2  0  0  3  0  0  0  0  0  0
  184.6880  177.5890  143.2470 O   0  0  0  0  0  1  0  0  0  0  0  0
  185.1600  180.0940  144.2830 C   0  0  0  0  0  1  0  0  0  0  0  0
  185.5540  177.3840  146.6170 C   0  0  2  0  0  3  0  0  0  0  0  0
  191.0980  174.8700  143.9340 N   0  0  0  0  0  2  0  0  0  0  0  0
  192.2080  176.2670  145.5900 C   0  0  0  0  0  2  0  0  0  0  0  0
  190.4590  175.2540  147.6370 C   0  0  0  0  0  2  0  0  0  0  0  0
  191.4250  174.9780  145.3450 C   0  0  1  0  0  3  0  0  0  0  0  0
  192.5350  176.3920  147.0100 N   0  0  0  0  0  2  0  0  0  0  0  0
  191.2910  176.5280  147.7650 C   0  0  0  0  0  2  0  0  0  0  0  0
  190.1410  175.0000  146.1680 C   0  0  0  0  0  2  0  0  0  0  0  0
  2  8  1  0  0  0  0
  2  3  1  0  0  0  0
  3 19  1  6  0  0  0
  4  5  1  0  0  0  0
  4  6  2  0  0  0  0
  5  2  2  0  0  0  0
  6  7  1  0  0  0  0
  7  3  1  0  0  0  0
  7  1  2  0  0  0  0
  8  9  1  0  0  0  0
 10 17  1  6  0  0  0
 10 14  1  0  0  0  0
 12 16  1  6  0  0  0
 12 10  1  0  0  0  0
 12 13  1  0  0  0  0
 13 18  1  0  0  0  0
 14 18  1  0  0  0  0
 15 12  1  0  0  0  0
 15  9  1  1  0  0  0
 15 10  1  0  0  0  0
 18 11  1  1  0  0  0
 20 23  1  0  0  0  0
 21 24  1  0  0  0  0
 22 19  1  6  0  0  0
 22 20  1  0  0  0  0
 22 25  1  0  0  0  0
 23 24  1  0  0  0  0
 25 21  1  0  0  0  0
M  END
>  <MODEL>
4

>  <REMARK>
 VINA RESULT:      -6.6      2.366      5.004
  Name = 
  5 active torsions:
  status: ('A' for Active; 'I' for Inactive)
    1  A    between atoms: C_3  and  C_6
    2  A    between atoms: C_6  and  C_14
    3  A    between atoms: C_7  and  N_21
    4  A    between atoms: C_14  and  C_19
    5  A    between atoms: C_15  and  N_21
                            x       y       z     vdW  Elec       q    Type
                         _______ _______ _______ _____ _____    ______ ____

>  <TORSDO>
F 5

$$$$
=
 OpenBabel11062420143D

 25 28  0  0  1  0  0  0  0  0999 V2000
  184.0670  177.5290  146.4770 O   0  0  0  0  0  0  0  0  0  0  0  0
  187.5980  177.5550  145.4710 C   0  0  0  0  0  0  0  0  0  0  0  0
  186.1060  177.5600  145.2230 C   0  0  1  0  0  3  0  0  0  0  0  0
  187.2470  178.1600  147.8160 C   0  0  0  0  0  3  0  0  0  0  0  0
  188.1140  177.8550  146.6680 C   0  0  0  0  0  3  0  0  0  0  0  0
  185.9560  178.0780  147.7190 N   0  0  0  0  0  0  0  0  0  0  0  0
  185.3120  177.7080  146.4950 C   0  0  0  0  0  0  0  0  0  0  0  0
  188.5250  177.2190  144.3470 C   0  0  0  0  0  2  0  0  0  0  0  0
  189.8990  176.8120  144.8600 C   0  0  0  0  0  2  0  0  0  0  0  0
  190.0740  174.4030  145.7000 C   0  0  1  0  0  0  0  0  0  0  0  0
  191.1920  176.4660  148.3870 O   0  0  0  0  0  1  0  0  0  0  0  0
  191.4510  174.8370  145.2300 C   0  0  2  0  0  0  0  0  0  0  0  0
  192.1220  175.5770  146.3780 C   0  0  0  0  0  2  0  0  0  0  0  0
  189.8930  174.9190  147.1180 C   0  0  0  0  0  2  0  0  0  0  0  0
  190.2080  175.3580  144.5100 C   0  0  2  0  0  3  0  0  0  0  0  0
  192.1750  173.8320  144.5850 O   0  0  0  0  0  1  0  0  0  0  0  0
  189.6900  172.9660  145.3880 C   0  0  0  0  0  1  0  0  0  0  0  0
  191.2730  175.3130  147.6080 C   0  0  2  0  0  3  0  0  0  0  0  0
  185.7630  178.6420  144.3120 N   0  0  0  0  0  2  0  0  0  0  0  0
  183.8010  178.5140  142.8750 C   0  0  0  0  0  2  0  0  0  0  0  0
  185.4790  177.9180  140.6150 C   0  0  0  0  0  2  0  0  0  0  0  0
  185.2330  178.0340  143.1030 C   0  0  1  0  0  3  0  0  0  0  0  0
  183.2610  177.9160  141.6540 N   0  0  0  0  0  2  0  0  0  0  0  0
  184.0350  178.4040  140.5140 C   0  0  0  0  0  2  0  0  0  0  0  0
  186.0990  178.4300  141.9100 C   0  0  0  0  0  2  0  0  0  0  0  0
  1  7  2  0  0  0  0
  2  5  2  0  0  0  0
  3 19  1  6  0  0  0
  3  2  1  0  0  0  0
  3  7  1  0  0  0  0
  5  4  1  0  0  0  0
  6  4  2  0  0  0  0
  7  6  1  0  0  0  0
  8  9  1  0  0  0  0
  8  2  1  0  0  0  0
 10 17  1  6  0  0  0
 10 14  1  0  0  0  0
 12 16  1  6  0  0  0
 12 10  1  0  0  0  0
 12 13  1  0  0  0  0
 13 18  1  0  0  0  0
 14 18  1  0  0  0  0
 15  9  1  1  0  0  0
 15 12  1  0  0  0  0
 15 10  1  0  0  0  0
 18 11  1  1  0  0  0
 20 22  1  0  0  0  0
 21 25  1  0  0  0  0
 22 19  1  1  0  0  0
 23 20  1  0  0  0  0
 24 21  1  0  0  0  0
 24 23  1  0  0  0  0
 25 22  1  0  0  0  0
M  END
>  <MODEL>
5

>  <REMARK>
 VINA RESULT:      -6.6      2.805      5.151
  Name = 
  5 active torsions:
  status: ('A' for Active; 'I' for Inactive)
    1  A    between atoms: C_3  and  C_6
    2  A    between atoms: C_6  and  C_14
    3  A    between atoms: C_7  and  N_21
    4  A    between atoms: C_14  and  C_19
    5  A    between atoms: C_15  and  N_21
                            x       y       z     vdW  Elec       q    Type
                         _______ _______ _______ _____ _____    ______ ____

>  <TORSDO>
F 5

$$$$
=
 OpenBabel11062420143D

 25 28  0  0  1  0  0  0  0  0999 V2000
  184.1510  178.3290  142.4570 O   0  0  0  0  0  0  0  0  0  0  0  0
  187.7490  177.7990  142.9560 C   0  0  0  0  0  0  0  0  0  0  0  0
  186.3120  177.9370  143.4080 C   0  0  1  0  0  3  0  0  0  0  0  0
  187.0300  177.4860  140.6390 C   0  0  0  0  0  3  0  0  0  0  0  0
  188.0670  177.5690  141.6780 C   0  0  0  0  0  3  0  0  0  0  0  0
  185.7820  177.7030  140.9210 N   0  0  0  0  0  0  0  0  0  0  0  0
  185.3510  178.0130  142.2500 C   0  0  0  0  0  0  0  0  0  0  0  0
  188.8470  177.9090  143.9660 C   0  0  0  0  0  2  0  0  0  0  0  0
  189.4490  176.5480  144.2850 C   0  0  0  0  0  2  0  0  0  0  0  0
  190.8690  175.6430  146.2090 C   0  0  1  0  0  0  0  0  0  0  0  0
  191.3710  173.4050  143.4760 O   0  0  0  0  0  1  0  0  0  0  0  0
  189.5660  174.8620  146.1800 C   0  0  2  0  0  0  0  0  0  0  0  0
  189.7230  173.7350  145.1700 C   0  0  0  0  0  2  0  0  0  0  0  0
  191.7990  175.0160  145.1840 C   0  0  0  0  0  2  0  0  0  0  0  0
  189.5700  176.3410  145.7940 C   0  0  2  0  0  3  0  0  0  0  0  0
  189.0640  174.5450  147.4440 O   0  0  0  0  0  1  0  0  0  0  0  0
  191.4130  175.9700  147.5900 C   0  0  0  0  0  1  0  0  0  0  0  0
  191.2020  173.6650  144.8360 C   0  0  2  0  0  3  0  0  0  0  0  0
  185.9540  176.8120  144.2590 N   0  0  0  0  0  2  0  0  0  0  0  0
  186.3400  176.6640  146.6590 C   0  0  0  0  0  2  0  0  0  0  0  0
  185.5620  179.4170  146.9680 C   0  0  0  0  0  2  0  0  0  0  0  0
  185.5550  177.3570  145.5460 C   0  0  1  0  0  3  0  0  0  0  0  0
  185.9540  177.2110  147.9590 N   0  0  0  0  0  2  0  0  0  0  0  0
  186.3460  178.6190  148.0070 C   0  0  0  0  0  2  0  0  0  0  0  0
  185.8420  178.8550  145.5780 C   0  0  0  0  0  2  0  0  0  0  0  0
  2  3  1  0  0  0  0
  2  8  1  0  0  0  0
  3 19  1  1  0  0  0
  4  6  2  0  0  0  0
  4  5  1  0  0  0  0
  5  2  2  0  0  0  0
  6  7  1  0  0  0  0
  7  1  2  0  0  0  0
  7  3  1  0  0  0  0
  8  9  1  0  0  0  0
 10 17  1  1  0  0  0
 12 10  1  0  0  0  0
 12 16  1  1  0  0  0
 13 12  1  0  0  0  0
 14 10  1  0  0  0  0
 15  9  1  6  0  0  0
 15 12  1  0  0  0  0
 15 10  1  0  0  0  0
 18 11  1  6  0  0  0
 18 13  1  0  0  0  0
 18 14  1  0  0  0  0
 20 23  1  0  0  0  0
 21 24  1  0  0  0  0
 22 19  1  6  0  0  0
 22 25  1  0  0  0  0
 22 20  1  0  0  0  0
 23 24  1  0  0  0  0
 25 21  1  0  0  0  0
M  END
>  <MODEL>
6

>  <REMARK>
 VINA RESULT:      -6.5      2.081      4.984
  Name = 
  5 active torsions:
  status: ('A' for Active; 'I' for Inactive)
    1  A    between atoms: C_3  and  C_6
    2  A    between atoms: C_6  and  C_14
    3  A    between atoms: C_7  and  N_21
    4  A    between atoms: C_14  and  C_19
    5  A    between atoms: C_15  and  N_21
                            x       y       z     vdW  Elec       q    Type
                         _______ _______ _______ _____ _____    ______ ____

>  <TORSDO>
F 5

$$$$
=
 OpenBabel11062420143D

 25 28  0  0  1  0  0  0  0  0999 V2000
  183.7100  178.7540  145.0870 O   0  0  0  0  0  0  0  0  0  0  0  0
  186.8060  177.0700  146.1150 C   0  0  0  0  0  0  0  0  0  0  0  0
  185.7920  177.5730  145.1120 C   0  0  1  0  0  3  0  0  0  0  0  0
  185.8490  178.4990  147.8550 C   0  0  0  0  0  3  0  0  0  0  0  0
  186.8360  177.5220  147.3730 C   0  0  0  0  0  3  0  0  0  0  0  0
  184.8780  178.9000  147.0930 N   0  0  0  0  0  0  0  0  0  0  0  0
  184.7280  178.4290  145.7500 C   0  0  0  0  0  0  0  0  0  0  0  0
  187.8120  176.0490  145.6880 C   0  0  0  0  0  2  0  0  0  0  0  0
  189.2350  176.5370  145.9230 C   0  0  0  0  0  2  0  0  0  0  0  0
  191.6140  175.6180  145.7400 C   0  0  1  0  0  0  0  0  0  0  0  0
  191.0690  177.5340  142.7800 O   0  0  0  0  0  1  0  0  0  0  0  0
  190.6990  174.7170  144.9300 C   0  0  2  0  0  0  0  0  0  0  0  0
  190.5380  175.3380  143.5500 C   0  0  0  0  0  2  0  0  0  0  0  0
  191.9720  176.8090  144.8660 C   0  0  0  0  0  2  0  0  0  0  0  0
  190.1770  175.3690  146.2090 C   0  0  2  0  0  3  0  0  0  0  0  0
  191.0230  173.3600  145.0040 O   0  0  0  0  0  1  0  0  0  0  0  0
  192.7190  174.9160  146.5130 C   0  0  0  0  0  1  0  0  0  0  0  0
  191.5910  176.4270  143.4480 C   0  0  2  0  0  3  0  0  0  0  0  0
  186.4660  178.3370  144.0720 N   0  0  0  0  0  2  0  0  0  0  0  0
  185.5950  178.5750  141.8110 C   0  0  0  0  0  2  0  0  0  0  0  0
  187.4110  176.5450  140.8840 C   0  0  0  0  0  2  0  0  0  0  0  0
  186.2550  177.6350  142.8180 C   0  0  1  0  0  3  0  0  0  0  0  0
  185.3870  177.8810  140.5400 N   0  0  0  0  0  2  0  0  0  0  0  0
  186.6920  177.5400  139.9760 C   0  0  0  0  0  2  0  0  0  0  0  0
  187.5970  177.1600  142.2660 C   0  0  0  0  0  2  0  0  0  0  0  0
  1  7  2  0  0  0  0
  2  5  2  0  0  0  0
  3 19  1  6  0  0  0
  3  7  1  0  0  0  0
  3  2  1  0  0  0  0
  5  4  1  0  0  0  0
  6  4  2  0  0  0  0
  7  6  1  0  0  0  0
  8  9  1  0  0  0  0
  8  2  1  0  0  0  0
 10 15  1  0  0  0  0
 10 17  1  1  0  0  0
 12 16  1  1  0  0  0
 12 10  1  0  0  0  0
 12 15  1  0  0  0  0
 13 12  1  0  0  0  0
 14 10  1  0  0  0  0
 15  9  1  6  0  0  0
 18 11  1  1  0  0  0
 18 13  1  0  0  0  0
 18 14  1  0  0  0  0
 20 22  1  0  0  0  0
 21 25  1  0  0  0  0
 22 19  1  1  0  0  0
 23 20  1  0  0  0  0
 24 23  1  0  0  0  0
 24 21  1  0  0  0  0
 25 22  1  0  0  0  0
M  END
>  <MODEL>
7

>  <REMARK>
 VINA RESULT:      -6.5      2.555      5.466
  Name = 
  5 active torsions:
  status: ('A' for Active; 'I' for Inactive)
    1  A    between atoms: C_3  and  C_6
    2  A    between atoms: C_6  and  C_14
    3  A    between atoms: C_7  and  N_21
    4  A    between atoms: C_14  and  C_19
    5  A    between atoms: C_15  and  N_21
                            x       y       z     vdW  Elec       q    Type
                         _______ _______ _______ _____ _____    ______ ____

>  <TORSDO>
F 5

$$$$
=
 OpenBabel11062420143D

 25 28  0  0  1  0  0  0  0  0999 V2000
  190.7720  172.4930  143.8840 O   0  0  0  0  0  0  0  0  0  0  0  0
  189.3130  175.8600  143.7700 C   0  0  0  0  0  0  0  0  0  0  0  0
  190.3780  174.8420  144.1140 C   0  0  1  0  0  3  0  0  0  0  0  0
  188.2610  174.2880  142.2180 C   0  0  0  0  0  3  0  0  0  0  0  0
  188.3530  175.5990  142.8760 C   0  0  0  0  0  3  0  0  0  0  0  0
  189.0660  173.3210  142.5370 N   0  0  0  0  0  0  0  0  0  0  0  0
  190.0900  173.4860  143.5240 C   0  0  0  0  0  0  0  0  0  0  0  0
  189.3390  177.1990  144.4350 C   0  0  0  0  0  2  0  0  0  0  0  0
  188.0210  177.9380  144.2510 C   0  0  0  0  0  2  0  0  0  0  0  0
  185.7660  177.4030  145.3300 C   0  0  1  0  0  0  0  0  0  0  0  0
  185.0270  178.6650  142.0760 O   0  0  0  0  0  1  0  0  0  0  0  0
  186.0210  178.8910  145.4890 C   0  0  2  0  0  0  0  0  0  0  0  0
  185.5580  179.5810  144.2140 C   0  0  0  0  0  2  0  0  0  0  0  0
  185.1900  177.1850  143.9400 C   0  0  0  0  0  2  0  0  0  0  0  0
  187.1940  177.9150  145.5360 C   0  0  2  0  0  3  0  0  0  0  0  0
  185.5910  179.4150  146.7110 O   0  0  0  0  0  1  0  0  0  0  0  0
  185.1060  176.7140  146.5130 C   0  0  0  0  0  1  0  0  0  0  0  0
  184.7570  178.5500  143.4390 C   0  0  2  0  0  3  0  0  0  0  0  0
  191.6740  175.3080  143.6410 N   0  0  0  0  0  2  0  0  0  0  0  0
  193.7370  174.3310  144.4880 C   0  0  0  0  0  2  0  0  0  0  0  0
  194.1850  176.6590  146.1190 C   0  0  0  0  0  2  0  0  0  0  0  0
  192.5800  175.2860  144.7770 C   0  0  1  0  0  3  0  0  0  0  0  0
  194.6610  174.3080  145.6210 N   0  0  0  0  0  2  0  0  0  0  0  0
  195.2600  175.6350  145.7630 C   0  0  0  0  0  2  0  0  0  0  0  0
  193.1270  176.6890  145.0220 C   0  0  0  0  0  2  0  0  0  0  0  0
  2  3  1  0  0  0  0
  2  8  1  0  0  0  0
  3 19  1  6  0  0  0
  4  6  2  0  0  0  0
  4  5  1  0  0  0  0
  5  2  2  0  0  0  0
  6  7  1  0  0  0  0
  7  1  2  0  0  0  0
  7  3  1  0  0  0  0
  9  8  1  0  0  0  0
 10 12  1  0  0  0  0
 10 15  1  0  0  0  0
 10 17  1  1  0  0  0
 12 15  1  0  0  0  0
 12 16  1  1  0  0  0
 13 12  1  0  0  0  0
 14 10  1  0  0  0  0
 15  9  1  6  0  0  0
 18 11  1  6  0  0  0
 18 14  1  0  0  0  0
 18 13  1  0  0  0  0
 20 22  1  0  0  0  0
 20 23  1  0  0  0  0
 22 19  1  6  0  0  0
 22 25  1  0  0  0  0
 23 24  1  0  0  0  0
 24 21  1  0  0  0  0
 25 21  1  0  0  0  0
M  END
>  <MODEL>
8

>  <REMARK>
 VINA RESULT:      -6.3      2.715      5.924
  Name = 
  5 active torsions:
  status: ('A' for Active; 'I' for Inactive)
    1  A    between atoms: C_3  and  C_6
    2  A    between atoms: C_6  and  C_14
    3  A    between atoms: C_7  and  N_21
    4  A    between atoms: C_14  and  C_19
    5  A    between atoms: C_15  and  N_21
                            x       y       z     vdW  Elec       q    Type
                         _______ _______ _______ _____ _____    ______ ____

>  <TORSDO>
F 5

$$$$
=
 OpenBabel11062420143D

 25 28  0  0  1  0  0  0  0  0999 V2000
  192.9200  174.2190  143.9300 O   0  0  0  0  0  0  0  0  0  0  0  0
  190.2950  176.7210  144.5050 C   0  0  0  0  0  0  0  0  0  0  0  0
  190.9390  175.5560  143.7870 C   0  0  1  0  0  3  0  0  0  0  0  0
  191.7830  176.4110  146.4210 C   0  0  0  0  0  3  0  0  0  0  0  0
  190.6790  177.0930  145.7310 C   0  0  0  0  0  3  0  0  0  0  0  0
  192.4630  175.4750  145.8340 N   0  0  0  0  0  0  0  0  0  0  0  0
  192.1640  175.0470  144.5010 C   0  0  0  0  0  0  0  0  0  0  0  0
  189.1890  177.4720  143.8340 C   0  0  0  0  0  2  0  0  0  0  0  0
  187.9930  177.6480  144.7600 C   0  0  0  0  0  2  0  0  0  0  0  0
  185.8610  179.0500  144.9140 C   0  0  1  0  0  0  0  0  0  0  0  0
  186.0410  177.1950  147.9560 O   0  0  0  0  0  1  0  0  0  0  0  0
  185.4720  177.6510  144.4690 C   0  0  2  0  0  0  0  0  0  0  0  0
  185.3250  176.7920  145.7160 C   0  0  0  0  0  2  0  0  0  0  0  0
  185.9940  179.0260  146.4280 C   0  0  0  0  0  2  0  0  0  0  0  0
  186.8030  178.2460  144.0130 C   0  0  2  0  0  3  0  0  0  0  0  0
  184.4420  177.6200  143.5250 O   0  0  0  0  0  1  0  0  0  0  0  0
  185.0940  180.1890  144.2630 C   0  0  0  0  0  1  0  0  0  0  0  0
  185.3250  177.7480  146.8950 C   0  0  2  0  0  3  0  0  0  0  0  0
  189.9770  174.4720  143.6470 N   0  0  0  0  0  2  0  0  0  0  0  0
  189.6990  172.6320  142.0770 C   0  0  0  0  0  2  0  0  0  0  0  0
  188.5680  174.4380  140.1430 C   0  0  0  0  0  2  0  0  0  0  0  0
  189.9080  174.1380  142.2350 C   0  0  1  0  0  3  0  0  0  0  0  0
  189.6180  172.2850  140.6580 N   0  0  0  0  0  2  0  0  0  0  0  0
  188.4280  172.9180  140.0910 C   0  0  0  0  0  2  0  0  0  0  0  0
  188.7430  174.8830  141.5900 C   0  0  0  0  0  2  0  0  0  0  0  0
  1  7  2  0  0  0  0
  2  5  2  0  0  0  0
  3 19  1  1  0  0  0
  3  7  1  0  0  0  0
  3  2  1  0  0  0  0
  5  4  1  0  0  0  0
  6  4  2  0  0  0  0
  7  6  1  0  0  0  0
  8  2  1  0  0  0  0
  8  9  1  0  0  0  0
 10 17  1  6  0  0  0
 10 14  1  0  0  0  0
 12 16  1  6  0  0  0
 12 10  1  0  0  0  0
 12 13  1  0  0  0  0
 13 18  1  0  0  0  0
 14 18  1  0  0  0  0
 15 12  1  0  0  0  0
 15  9  1  1  0  0  0
 15 10  1  0  0  0  0
 18 11  1  1  0  0  0
 20 22  1  0  0  0  0
 21 25  1  0  0  0  0
 22 19  1  1  0  0  0
 23 20  1  0  0  0  0
 24 21  1  0  0  0  0
 24 23  1  0  0  0  0
 25 22  1  0  0  0  0
M  END
>  <MODEL>
9

>  <REMARK>
 VINA RESULT:      -6.2      2.675      5.149
  Name = 
  5 active torsions:
  status: ('A' for Active; 'I' for Inactive)
    1  A    between atoms: C_3  and  C_6
    2  A    between atoms: C_6  and  C_14
    3  A    between atoms: C_7  and  N_21
    4  A    between atoms: C_14  and  C_19
    5  A    between atoms: C_15  and  N_21
                            x       y       z     vdW  Elec       q    Type
                         _______ _______ _______ _____ _____    ______ ____

>  <TORSDO>
F 5

$$$$
