=
 OpenBabel11062418333D

 54 60  0  0  1  0  0  0  0  0999 V2000
  193.9980  173.0820  139.8580 C   0  0  2  0  0  3  0  0  0  0  0  0
  193.8780  175.4650  144.7040 C   0  0  2  0  0  3  0  0  0  0  0  0
  194.6230  174.4180  139.9080 N   0  0  2  0  0  0  0  0  0  0  0  0
  190.2460  176.9230  146.1840 C   0  0  0  0  0  2  0  0  0  0  0  0
  191.1930  173.3040  142.4110 N   0  0  0  0  0  2  0  0  0  0  0  0
  191.1400  173.5570  140.0040 C   0  0  0  0  0  3  0  0  0  0  0  0
  190.6610  173.1300  137.4090 Cl  0  0  0  0  0  0  0  0  0  0  0  0
  194.8670  174.9200  138.5690 C   0  0  0  0  0  2  0  0  0  0  0  0
  189.4610  173.7220  143.9070 O   0  0  0  0  0  0  0  0  0  0  0  0
  188.8000  176.2920  142.7610 C   0  0  1  0  0  3  0  0  0  0  0  0
  193.0770  172.9390  138.7230 N   0  0  0  0  0  2  0  0  0  0  0  0
  195.9720  174.2470  140.4580 C   0  0  1  0  0  3  0  0  0  0  0  0
  195.0780  175.3030  143.9770 O   0  0  0  0  0  0  0  0  0  0  0  0
  189.0930  176.6050  145.2390 C   0  0  2  0  0  3  0  0  0  0  0  0
  191.4700  174.9190  146.3170 C   0  0  0  0  0  2  0  0  0  0  0  0
  189.8200  175.3640  142.2800 N   0  0  0  0  0  2  0  0  0  0  0  0
  196.8900  175.0260  139.7280 O   0  0  0  0  0  0  0  0  0  0  0  0
  193.2340  172.7970  141.1610 C   0  0  0  0  0  2  0  0  0  0  0  0
  191.9790  173.6770  141.2470 C   0  0  2  0  0  3  0  0  0  0  0  0
  193.8270  176.8310  145.3860 C   0  0  0  0  0  2  0  0  0  0  0  0
  195.0130  175.0190  142.6160 C   0  0  0  0  0  3  0  0  0  0  0  0
  192.4100  174.0070  145.5260 C   0  0  0  0  0  2  0  0  0  0  0  0
  196.3460  175.1420  138.4470 C   0  0  1  0  0  3  0  0  0  0  0  0
  192.5940  176.9800  146.2820 C   0  0  0  0  0  2  0  0  0  0  0  0
  191.4570  176.2560  145.7300 N   0  0  2  0  0  0  0  0  0  0  0  0
  196.0710  174.5820  141.9310 C   0  0  0  0  0  0  0  0  0  0  0  0
  191.6820  173.2530  138.8250 C   0  0  0  0  0  0  0  0  0  0  0  0
  190.1230  174.1150  142.9100 C   0  0  0  0  0  0  0  0  0  0  0  0
  193.7400  174.4340  145.6400 O   0  0  0  0  0  0  0  0  0  0  0  0
  189.3780  177.1810  143.8540 C   0  0  0  0  0  2  0  0  0  0  0  0
  185.9630  176.9240  147.4000 C   0  0  0  0  0  3  0  0  0  0  0  0
  187.2010  176.4800  146.9250 C   0  0  0  0  0  3  0  0  0  0  0  0
  184.1050  178.4080  147.2210 F   0  0  0  0  0  0  0  0  0  0  0  0
  185.3070  177.9800  146.7640 C   0  0  0  0  0  0  0  0  0  0  0  0
  185.8940  178.6020  145.6590 C   0  0  0  0  0  3  0  0  0  0  0  0
  187.7970  177.1000  145.8210 C   0  0  0  0  0  0  0  0  0  0  0  0
  187.1330  178.1610  145.1880 C   0  0  0  0  0  3  0  0  0  0  0  0
  197.3440  174.3620  142.6360 C   0  0  0  0  0  3  0  0  0  0  0  0
  197.7880  173.2000  142.8340 O   0  0  0  0  0  0  0  0  0  0  0  0
  188.2930  177.1500  141.6030 C   0  0  0  0  0  2  0  0  0  0  0  0
  186.8100  176.9190  141.3440 C   0  0  2  0  0  3  0  0  0  0  0  0
  186.4220  177.5730  140.0320 C   0  0  0  0  0  2  0  0  0  0  0  0
  186.0760  178.2460  141.3470 C   0  0  1  0  0  3  0  0  0  0  0  0
  184.1670  178.9130  142.8160 C   0  0  0  0  0  2  0  0  0  0  0  0
  181.8920  178.9590  141.8950 N   0  0  0  0  0  2  0  0  0  0  0  0
  182.2740  178.0200  140.8360 C   0  0  0  0  0  2  0  0  0  0  0  0
  183.7400  178.2220  140.4530 C   0  0  0  0  0  2  0  0  0  0  0  0
  184.6180  177.9950  141.6840 C   0  0  0  0  0  3  0  0  0  0  0  0
  182.6840  178.6640  143.0910 C   0  0  0  0  0  2  0  0  0  0  0  0
  196.9480  174.0960  137.5170 C   0  0  0  0  0  2  0  0  0  0  0  0
  196.3580  174.1840  136.1160 C   0  0  0  0  0  2  0  0  0  0  0  0
  196.7570  175.4510  135.4340 C   0  0  0  0  0  0  0  0  0  0  0  0
  197.9410  175.6070  135.0410 O   0  0  0  0  0  0  0  0  0  0  0  0
  195.8100  176.4440  135.1920 O   0  0  0  0  0  1  0  0  0  0  0  0
  1  3  1  0  0  0  0
  1 18  1  1  0  0  0
  2 20  1  1  0  0  0
  2 29  1  0  0  0  0
  3  8  1  6  0  0  0
  3 12  1  0  0  0  0
  5 28  1  0  0  0  0
  7 27  1  0  0  0  0
 10 40  1  6  0  0  0
 10 30  1  0  0  0  0
 11 27  1  0  0  0  0
 11  1  1  0  0  0  0
 12 17  1  6  0  0  0
 12 26  1  0  0  0  0
 13  2  1  0  0  0  0
 14 36  1  1  0  0  0
 14  4  1  0  0  0  0
 16 10  1  0  0  0  0
 16 28  1  0  0  0  0
 18 19  1  0  0  0  0
 19  6  1  6  0  0  0
 19  5  1  0  0  0  0
 20 24  1  0  0  0  0
 21 13  1  0  0  0  0
 22 29  1  0  0  0  0
 22 15  1  0  0  0  0
 23 50  1  6  0  0  0
 23  8  1  0  0  0  0
 23 17  1  0  0  0  0
 25  4  1  1  0  0  0
 25 24  1  0  0  0  0
 25 15  1  0  0  0  0
 26 21  2  0  0  0  0
 26 38  1  0  0  0  0
 27  6  2  0  0  0  0
 28  9  2  0  0  0  0
 30 14  1  0  0  0  0
 32 31  1  0  0  0  0
 34 33  1  0  0  0  0
 34 31  2  0  0  0  0
 35 34  1  0  0  0  0
 36 32  2  0  0  0  0
 37 35  2  0  0  0  0
 37 36  1  0  0  0  0
 38 39  2  0  0  0  0
 41 43  1  0  0  0  0
 41 40  1  6  0  0  0
 42 41  1  0  0  0  0
 42 43  1  0  0  0  0
 43 48  1  1  0  0  0
 44 49  1  0  0  0  0
 45 49  1  0  0  0  0
 46 45  1  0  0  0  0
 47 46  1  0  0  0  0
 47 48  1  0  0  0  0
 48 44  1  0  0  0  0
 51 50  1  0  0  0  0
 52 51  1  0  0  0  0
 53 52  2  0  0  0  0
 54 52  1  0  0  0  0
M  END
>  <MODEL>
1

>  <REMARK>
 VINA RESULT:      -9.0      0.000      0.000
  Name = 
  8 active torsions:
  status: ('A' for Active; 'I' for Inactive)
    1  A    between atoms: C_14  and  C_32
    2  A    between atoms: C_17  and  C_24
    3  A    between atoms: C_18  and  C_46
    4  A    between atoms: C_22  and  C_45
    5  A    between atoms: C_24  and  C_26
    6  A    between atoms: C_27  and  C_48
    7  A    between atoms: C_32  and  C_39
    8  A    between atoms: C_39  and  C_40
                            x       y       z     vdW  Elec       q    Type
                         _______ _______ _______ _____ _____    ______ ____

>  <TORSDO>
F 8

$$$$
=
 OpenBabel11062418333D

 54 60  0  0  1  0  0  0  0  0999 V2000
  193.9910  170.1940  142.1580 C   0  0  2  0  0  3  0  0  0  0  0  0
  193.9150  175.1490  144.3090 C   0  0  2  0  0  3  0  0  0  0  0  0
  194.4120  171.2740  141.2440 N   0  0  2  0  0  0  0  0  0  0  0  0
  190.2390  176.9980  145.0700 C   0  0  0  0  0  2  0  0  0  0  0  0
  191.4020  171.8600  144.3850 N   0  0  0  0  0  2  0  0  0  0  0  0
  191.1160  170.4770  142.4180 C   0  0  0  0  0  3  0  0  0  0  0  0
  190.4950  168.4330  140.8110 Cl  0  0  0  0  0  0  0  0  0  0  0  0
  194.4690  170.7950  139.8760 C   0  0  0  0  0  2  0  0  0  0  0  0
  189.7560  173.0470  145.5210 O   0  0  0  0  0  0  0  0  0  0  0  0
  188.6290  174.2020  143.1230 C   0  0  1  0  0  3  0  0  0  0  0  0
  193.0110  169.2910  141.5390 N   0  0  0  0  0  2  0  0  0  0  0  0
  195.8120  171.5840  141.5530 C   0  0  1  0  0  3  0  0  0  0  0  0
  195.0620  174.6240  143.6740 O   0  0  0  0  0  0  0  0  0  0  0  0
  189.0720  176.0720  144.7440 C   0  0  2  0  0  3  0  0  0  0  0  0
  191.7540  175.6440  146.2540 C   0  0  0  0  0  2  0  0  0  0  0  0
  189.7310  173.2490  143.1900 N   0  0  0  0  0  2  0  0  0  0  0  0
  196.5410  171.7520  140.3610 O   0  0  0  0  0  0  0  0  0  0  0  0
  193.3870  170.7830  143.4430 C   0  0  0  0  0  2  0  0  0  0  0  0
  192.0260  171.4290  143.1460 C   0  0  2  0  0  3  0  0  0  0  0  0
  193.7160  176.6230  143.9590 C   0  0  0  0  0  2  0  0  0  0  0  0
  194.9290  173.5180  142.8390 C   0  0  0  0  0  3  0  0  0  0  0  0
  192.7520  174.4950  146.0910 C   0  0  0  0  0  2  0  0  0  0  0  0
  195.8830  170.9720  139.4070 C   0  0  1  0  0  3  0  0  0  0  0  0
  192.5520  177.2460  144.7350 C   0  0  0  0  0  2  0  0  0  0  0  0
  191.4950  176.2710  144.9620 N   0  0  2  0  0  0  0  0  0  0  0  0
  195.9800  172.8040  142.4350 C   0  0  0  0  0  0  0  0  0  0  0  0
  191.5980  169.5110  141.6380 C   0  0  0  0  0  0  0  0  0  0  0  0
  190.2680  172.7340  144.4140 C   0  0  0  0  0  0  0  0  0  0  0  0
  194.0080  174.9720  145.6930 O   0  0  0  0  0  0  0  0  0  0  0  0
  189.1540  175.6220  143.2870 C   0  0  0  0  0  2  0  0  0  0  0  0
  186.0880  178.4490  144.6670 C   0  0  0  0  0  3  0  0  0  0  0  0
  187.2680  177.7990  144.2960 C   0  0  0  0  0  3  0  0  0  0  0  0
  184.2690  178.6970  146.1900 F   0  0  0  0  0  0  0  0  0  0  0  0
  185.4110  178.0630  145.8260 C   0  0  0  0  0  0  0  0  0  0  0  0
  185.9070  177.0190  146.6100 C   0  0  0  0  0  3  0  0  0  0  0  0
  187.7700  176.7480  145.0720 C   0  0  0  0  0  0  0  0  0  0  0  0
  187.0840  176.3660  146.2350 C   0  0  0  0  0  3  0  0  0  0  0  0
  197.3250  173.1740  142.9030 C   0  0  0  0  0  3  0  0  0  0  0  0
  197.9410  174.1550  142.4090 O   0  0  0  0  0  0  0  0  0  0  0  0
  187.9070  174.0650  141.7840 C   0  0  0  0  0  2  0  0  0  0  0  0
  188.8020  174.4730  140.6210 C   0  0  2  0  0  3  0  0  0  0  0  0
  187.9400  174.8720  139.4390 C   0  0  0  0  0  2  0  0  0  0  0  0
  188.6110  173.5110  139.4640 C   0  0  1  0  0  3  0  0  0  0  0  0
  191.0970  173.2560  139.4400 C   0  0  0  0  0  2  0  0  0  0  0  0
  192.1850  172.1940  137.5120 N   0  0  0  0  0  2  0  0  0  0  0  0
  191.0380  172.5130  136.6560 C   0  0  0  0  0  2  0  0  0  0  0  0
  189.7470  172.5050  137.4760 C   0  0  0  0  0  2  0  0  0  0  0  0
  189.8560  173.5370  138.5980 C   0  0  0  0  0  3  0  0  0  0  0  0
  192.3210  173.2440  138.5240 C   0  0  0  0  0  2  0  0  0  0  0  0
  196.5560  169.6110  139.2790 C   0  0  0  0  0  2  0  0  0  0  0  0
  197.8180  169.6870  138.4290 C   0  0  0  0  0  2  0  0  0  0  0  0
  197.4910  169.8180  136.9780 C   0  0  0  0  0  0  0  0  0  0  0  0
  196.7750  168.9520  136.4140 O   0  0  0  0  0  1  0  0  0  0  0  0
  197.9410  170.9210  136.2550 O   0  0  0  0  0  0  0  0  0  0  0  0
  1 18  1  1  0  0  0
  2 20  1  1  0  0  0
  2 29  1  0  0  0  0
  3  8  1  6  0  0  0
  3 12  1  0  0  0  0
  3  1  1  0  0  0  0
  5 28  1  0  0  0  0
  7 27  1  0  0  0  0
 10 40  1  6  0  0  0
 10 16  1  0  0  0  0
 10 30  1  0  0  0  0
 11 27  1  0  0  0  0
 11  1  1  0  0  0  0
 12 17  1  6  0  0  0
 12 26  1  0  0  0  0
 13  2  1  0  0  0  0
 14  4  1  0  0  0  0
 14 36  1  6  0  0  0
 16 28  1  0  0  0  0
 19  6  1  1  0  0  0
 19 18  1  0  0  0  0
 19  5  1  0  0  0  0
 20 24  1  0  0  0  0
 21 13  1  0  0  0  0
 22 15  1  0  0  0  0
 23 50  1  1  0  0  0
 23  8  1  0  0  0  0
 23 17  1  0  0  0  0
 25 24  1  1  0  0  0
 25  4  1  0  0  0  0
 25 15  1  0  0  0  0
 26 21  2  0  0  0  0
 26 38  1  0  0  0  0
 27  6  2  0  0  0  0
 28  9  2  0  0  0  0
 29 22  1  0  0  0  0
 30 14  1  0  0  0  0
 31 34  1  0  0  0  0
 32 31  2  0  0  0  0
 32 36  1  0  0  0  0
 34 33  1  0  0  0  0
 34 35  2  0  0  0  0
 36 37  2  0  0  0  0
 37 35  1  0  0  0  0
 39 38  2  0  0  0  0
 41 40  1  1  0  0  0
 42 43  1  0  0  0  0
 42 41  1  0  0  0  0
 43 48  1  6  0  0  0
 43 41  1  0  0  0  0
 45 49  1  0  0  0  0
 46 47  1  0  0  0  0
 46 45  1  0  0  0  0
 47 48  1  0  0  0  0
 48 44  1  0  0  0  0
 49 44  1  0  0  0  0
 51 50  1  0  0  0  0
 52 51  1  0  0  0  0
 53 52  1  0  0  0  0
 54 52  2  0  0  0  0
M  END
>  <MODEL>
2

>  <REMARK>
 VINA RESULT:      -8.2      3.019      4.638
  Name = 
  8 active torsions:
  status: ('A' for Active; 'I' for Inactive)
    1  A    between atoms: C_14  and  C_32
    2  A    between atoms: C_17  and  C_24
    3  A    between atoms: C_18  and  C_46
    4  A    between atoms: C_22  and  C_45
    5  A    between atoms: C_24  and  C_26
    6  A    between atoms: C_27  and  C_48
    7  A    between atoms: C_32  and  C_39
    8  A    between atoms: C_39  and  C_40
                            x       y       z     vdW  Elec       q    Type
                         _______ _______ _______ _____ _____    ______ ____

>  <TORSDO>
F 8

$$$$
=
 OpenBabel11062418333D

 54 60  0  0  1  0  0  0  0  0999 V2000
  189.4320  177.3550  144.4510 C   0  0  2  0  0  3  0  0  0  0  0  0
  193.5270  173.9920  145.4980 C   0  0  2  0  0  3  0  0  0  0  0  0
  189.0990  176.2350  145.3540 N   0  0  2  0  0  0  0  0  0  0  0  0
  194.8710  171.4000  142.5010 C   0  0  0  0  0  2  0  0  0  0  0  0
  192.0560  175.8900  142.1260 N   0  0  0  0  0  2  0  0  0  0  0  0
  189.6720  176.1780  141.8110 C   0  0  0  0  0  3  0  0  0  0  0  0
  187.3100  177.0450  140.9100 Cl  0  0  0  0  0  0  0  0  0  0  0  0
  187.6630  176.1210  145.5220 C   0  0  0  0  0  2  0  0  0  0  0  0
  193.5280  174.7390  140.7420 O   0  0  0  0  0  0  0  0  0  0  0  0
  191.8330  172.4100  140.5110 C   0  0  1  0  0  3  0  0  0  0  0  0
  188.4410  177.5190  143.3790 N   0  0  0  0  0  2  0  0  0  0  0  0
  189.5700  176.6020  146.6940 C   0  0  1  0  0  3  0  0  0  0  0  0
  192.7740  174.6010  146.5260 O   0  0  0  0  0  0  0  0  0  0  0  0
  194.1250  171.6310  141.1910 C   0  0  2  0  0  3  0  0  0  0  0  0
  195.4040  173.5600  143.2650 C   0  0  0  0  0  2  0  0  0  0  0  0
  191.5210  173.6410  141.2310 N   0  0  0  0  0  2  0  0  0  0  0  0
  188.6020  176.2540  147.6540 O   0  0  0  0  0  0  0  0  0  0  0  0
  190.8190  177.1460  143.8230 C   0  0  0  0  0  2  0  0  0  0  0  0
  190.7790  175.9910  142.8130 C   0  0  2  0  0  3  0  0  0  0  0  0
  193.8500  172.5380  145.8370 C   0  0  0  0  0  2  0  0  0  0  0  0
  191.5350  175.1570  146.2210 C   0  0  0  0  0  3  0  0  0  0  0  0
  194.7960  174.8260  143.8700 C   0  0  0  0  0  2  0  0  0  0  0  0
  187.3770  176.2990  146.9840 C   0  0  1  0  0  3  0  0  0  0  0  0
  194.7720  171.8970  144.7960 C   0  0  0  0  0  2  0  0  0  0  0  0
  194.5060  172.4260  143.4660 N   0  0  2  0  0  0  0  0  0  0  0  0
  190.9020  175.9810  147.0580 C   0  0  0  0  0  0  0  0  0  0  0  0
  188.5680  176.8610  142.1120 C   0  0  0  0  0  0  0  0  0  0  0  0
  192.4170  174.7530  141.3350 C   0  0  0  0  0  0  0  0  0  0  0  0
  194.6980  174.7220  145.2640 O   0  0  0  0  0  0  0  0  0  0  0  0
  192.6230  171.4660  141.4090 C   0  0  0  0  0  2  0  0  0  0  0  0
  195.9620  170.3190  138.1130 C   0  0  0  0  0  3  0  0  0  0  0  0
  195.5330  171.1790  139.1290 C   0  0  0  0  0  3  0  0  0  0  0  0
  195.9220  168.1660  137.0900 F   0  0  0  0  0  0  0  0  0  0  0  0
  195.5110  168.9980  138.0770 C   0  0  0  0  0  0  0  0  0  0  0  0
  194.6390  168.5310  139.0640 C   0  0  0  0  0  3  0  0  0  0  0  0
  194.6630  170.7180  140.1240 C   0  0  0  0  0  0  0  0  0  0  0  0
  194.2150  169.3890  140.0810 C   0  0  0  0  0  3  0  0  0  0  0  0
  191.5400  176.3410  148.3340 C   0  0  0  0  0  3  0  0  0  0  0  0
  191.4920  177.5190  148.7780 O   0  0  0  0  0  0  0  0  0  0  0  0
  190.5410  171.7360  140.0550 C   0  0  0  0  0  2  0  0  0  0  0  0
  190.5290  171.5100  138.5480 C   0  0  2  0  0  3  0  0  0  0  0  0
  189.6230  170.3400  138.2220 C   0  0  0  0  0  2  0  0  0  0  0  0
  191.1280  170.1550  138.2280 C   0  0  1  0  0  3  0  0  0  0  0  0
  192.7580  171.2200  136.6600 C   0  0  0  0  0  2  0  0  0  0  0  0
  193.8440  169.8540  134.9340 N   0  0  0  0  0  2  0  0  0  0  0  0
  192.7610  168.8690  134.9950 C   0  0  0  0  0  2  0  0  0  0  0  0
  192.1860  168.8000  136.4100 C   0  0  0  0  0  2  0  0  0  0  0  0
  191.6530  170.1770  136.8050 C   0  0  0  0  0  3  0  0  0  0  0  0
  193.2910  171.1780  135.2280 C   0  0  0  0  0  2  0  0  0  0  0  0
  186.6940  177.6410  147.2150 C   0  0  0  0  0  2  0  0  0  0  0  0
  185.2200  177.5930  146.8360 C   0  0  0  0  0  2  0  0  0  0  0  0
  184.8820  178.6350  145.8220 C   0  0  0  0  0  0  0  0  0  0  0  0
  183.6850  178.9820  145.6520 O   0  0  0  0  0  1  0  0  0  0  0  0
  185.8930  179.2560  145.0920 O   0  0  0  0  0  0  0  0  0  0  0  0
  1 18  1  6  0  0  0
  1  3  1  0  0  0  0
  2 20  1  1  0  0  0
  2 13  1  0  0  0  0
  3  8  1  1  0  0  0
  3 12  1  0  0  0  0
  5 19  1  0  0  0  0
  6 27  2  0  0  0  0
  7 27  1  0  0  0  0
  8 23  1  0  0  0  0
  9 28  2  0  0  0  0
 10 40  1  1  0  0  0
 10 16  1  0  0  0  0
 10 30  1  0  0  0  0
 11  1  1  0  0  0  0
 12 26  1  1  0  0  0
 12 17  1  0  0  0  0
 14 36  1  6  0  0  0
 14 30  1  0  0  0  0
 14  4  1  0  0  0  0
 15 25  1  0  0  0  0
 15 22  1  0  0  0  0
 16 28  1  0  0  0  0
 19  6  1  6  0  0  0
 19 18  1  0  0  0  0
 21 13  1  0  0  0  0
 21 26  2  0  0  0  0
 22 29  1  0  0  0  0
 23 50  1  6  0  0  0
 23 17  1  0  0  0  0
 24 20  1  0  0  0  0
 25  4  1  6  0  0  0
 25 24  1  0  0  0  0
 26 38  1  0  0  0  0
 27 11  1  0  0  0  0
 28  5  1  0  0  0  0
 29  2  1  0  0  0  0
 31 32  1  0  0  0  0
 32 36  2  0  0  0  0
 33 34  1  0  0  0  0
 34 31  2  0  0  0  0
 34 35  1  0  0  0  0
 35 37  2  0  0  0  0
 37 36  1  0  0  0  0
 38 39  2  0  0  0  0
 41 40  1  1  0  0  0
 42 43  1  0  0  0  0
 42 41  1  0  0  0  0
 43 48  1  6  0  0  0
 43 41  1  0  0  0  0
 44 48  1  0  0  0  0
 45 46  1  0  0  0  0
 45 49  1  0  0  0  0
 46 47  1  0  0  0  0
 47 48  1  0  0  0  0
 49 44  1  0  0  0  0
 51 50  1  0  0  0  0
 52 51  1  0  0  0  0
 53 52  1  0  0  0  0
 54 52  2  0  0  0  0
M  END
>  <MODEL>
3

>  <REMARK>
 VINA RESULT:      -8.2      4.057     10.217
  Name = 
  8 active torsions:
  status: ('A' for Active; 'I' for Inactive)
    1  A    between atoms: C_14  and  C_32
    2  A    between atoms: C_17  and  C_24
    3  A    between atoms: C_18  and  C_46
    4  A    between atoms: C_22  and  C_45
    5  A    between atoms: C_24  and  C_26
    6  A    between atoms: C_27  and  C_48
    7  A    between atoms: C_32  and  C_39
    8  A    between atoms: C_39  and  C_40
                            x       y       z     vdW  Elec       q    Type
                         _______ _______ _______ _____ _____    ______ ____

>  <TORSDO>
F 8

$$$$
=
 OpenBabel11062418333D

 54 60  0  0  1  0  0  0  0  0999 V2000
  185.7010  178.5940  141.2730 C   0  0  2  0  0  3  0  0  0  0  0  0
  187.7470  176.9110  145.9800 C   0  0  2  0  0  3  0  0  0  0  0  0
  184.7840  177.7770  142.0920 N   0  0  2  0  0  0  0  0  0  0  0  0
  190.6830  173.9290  145.9920 C   0  0  0  0  0  2  0  0  0  0  0  0
  189.1330  177.1840  142.0890 N   0  0  0  0  0  2  0  0  0  0  0  0
  187.6620  176.7350  140.2190 C   0  0  0  0  0  3  0  0  0  0  0  0
  186.6410  176.6330  137.7510 Cl  0  0  0  0  0  0  0  0  0  0  0  0
  183.6340  177.3590  141.3110 C   0  0  0  0  0  2  0  0  0  0  0  0
  191.1010  176.0670  142.6300 O   0  0  0  0  0  0  0  0  0  0  0  0
  189.9450  173.4350  142.3290 C   0  0  1  0  0  3  0  0  0  0  0  0
  185.7490  178.1460  139.8750 N   0  0  0  0  0  2  0  0  0  0  0  0
  184.2010  178.6620  143.1070 C   0  0  1  0  0  3  0  0  0  0  0  0
  186.5190  177.6020  145.9010 O   0  0  0  0  0  0  0  0  0  0  0  0
  191.0740  173.5280  144.5730 C   0  0  2  0  0  3  0  0  0  0  0  0
  190.6280  176.2800  145.9470 C   0  0  0  0  0  2  0  0  0  0  0  0
  189.2760  174.7080  142.0850 N   0  0  0  0  0  2  0  0  0  0  0  0
  182.8240  178.4050  143.2340 O   0  0  0  0  0  0  0  0  0  0  0  0
  187.1220  178.5570  141.8590 C   0  0  0  0  0  2  0  0  0  0  0  0
  187.7460  177.1690  141.6570 C   0  0  2  0  0  3  0  0  0  0  0  0
  187.6760  175.7750  147.0000 C   0  0  0  0  0  2  0  0  0  0  0  0
  185.8710  177.6950  144.6720 C   0  0  0  0  0  3  0  0  0  0  0  0
  189.8280  177.4730  145.4230 C   0  0  0  0  0  2  0  0  0  0  0  0
  182.4180  177.9180  141.9890 C   0  0  1  0  0  3  0  0  0  0  0  0
  189.0330  175.0930  147.1950 C   0  0  0  0  0  2  0  0  0  0  0  0
  189.7950  175.0810  145.9550 N   0  0  2  0  0  0  0  0  0  0  0  0
  184.8720  178.5530  144.4600 C   0  0  0  0  0  0  0  0  0  0  0  0
  186.6940  177.1720  139.4140 C   0  0  0  0  0  0  0  0  0  0  0  0
  189.8930  175.9850  142.2810 C   0  0  0  0  0  0  0  0  0  0  0  0
  188.7800  177.8000  146.2940 O   0  0  0  0  0  0  0  0  0  0  0  0
  189.8410  173.0640  143.8020 C   0  0  0  0  0  2  0  0  0  0  0  0
  192.9880  170.2490  144.1910 C   0  0  0  0  0  3  0  0  0  0  0  0
  191.9790  171.2100  144.0790 C   0  0  0  0  0  3  0  0  0  0  0  0
  195.1560  169.6250  144.9630 F   0  0  0  0  0  0  0  0  0  0  0  0
  194.1800  170.5580  144.8500 C   0  0  0  0  0  0  0  0  0  0  0  0
  194.3690  171.8330  145.3890 C   0  0  0  0  0  3  0  0  0  0  0  0
  192.1630  172.4910  144.6120 C   0  0  0  0  0  0  0  0  0  0  0  0
  193.3620  172.7940  145.2720 C   0  0  0  0  0  3  0  0  0  0  0  0
  184.4530  179.4540  145.5460 C   0  0  0  0  0  3  0  0  0  0  0  0
  183.7360  179.0400  146.4960 O   0  0  0  0  0  0  0  0  0  0  0  0
  189.3090  172.3430  141.4700 C   0  0  0  0  0  2  0  0  0  0  0  0
  190.0510  172.1660  140.1510 C   0  0  2  0  0  3  0  0  0  0  0  0
  191.2920  171.3260  140.3820 C   0  0  0  0  0  2  0  0  0  0  0  0
  191.4120  172.8310  140.2350 C   0  0  1  0  0  3  0  0  0  0  0  0
  190.7310  173.7910  138.0300 C   0  0  0  0  0  2  0  0  0  0  0  0
  192.3350  175.1410  136.7530 N   0  0  0  0  0  2  0  0  0  0  0  0
  193.4600  174.5150  137.4530 C   0  0  0  0  0  2  0  0  0  0  0  0
  193.0550  174.1420  138.8800 C   0  0  0  0  0  2  0  0  0  0  0  0
  191.8730  173.1730  138.8310 C   0  0  0  0  0  3  0  0  0  0  0  0
  191.2500  174.1650  136.6410 C   0  0  0  0  0  2  0  0  0  0  0  0
  181.8290  179.0410  141.1450 C   0  0  0  0  0  2  0  0  0  0  0  0
  180.3820  179.3300  141.5260 C   0  0  0  0  0  2  0  0  0  0  0  0
  179.4800  178.2060  141.1350 C   0  0  0  0  0  0  0  0  0  0  0  0
  179.3270  177.9170  139.9210 O   0  0  0  0  0  0  0  0  0  0  0  0
  178.8420  177.4470  142.1140 O   0  0  0  0  0  1  0  0  0  0  0  0
  1 18  1  1  0  0  0
  1  3  1  0  0  0  0
  2 29  1  0  0  0  0
  2 20  1  1  0  0  0
  3  8  1  6  0  0  0
  3 12  1  0  0  0  0
  5 28  1  0  0  0  0
  7 27  1  0  0  0  0
  8 23  1  0  0  0  0
 10 40  1  6  0  0  0
 10 30  1  0  0  0  0
 11  1  1  0  0  0  0
 12 17  1  1  0  0  0
 12 26  1  0  0  0  0
 13  2  1  0  0  0  0
 14 36  1  1  0  0  0
 14  4  1  0  0  0  0
 16 28  1  0  0  0  0
 16 10  1  0  0  0  0
 19  6  1  6  0  0  0
 19 18  1  0  0  0  0
 19  5  1  0  0  0  0
 20 24  1  0  0  0  0
 21 13  1  0  0  0  0
 22 15  1  0  0  0  0
 22 29  1  0  0  0  0
 23 50  1  6  0  0  0
 23 17  1  0  0  0  0
 25 15  1  1  0  0  0
 25  4  1  0  0  0  0
 25 24  1  0  0  0  0
 26 21  2  0  0  0  0
 26 38  1  0  0  0  0
 27 11  1  0  0  0  0
 27  6  2  0  0  0  0
 28  9  2  0  0  0  0
 30 14  1  0  0  0  0
 31 34  1  0  0  0  0
 32 31  2  0  0  0  0
 32 36  1  0  0  0  0
 34 33  1  0  0  0  0
 34 35  2  0  0  0  0
 36 37  2  0  0  0  0
 37 35  1  0  0  0  0
 38 39  2  0  0  0  0
 41 43  1  0  0  0  0
 41 42  1  0  0  0  0
 41 40  1  1  0  0  0
 43 48  1  6  0  0  0
 43 42  1  0  0  0  0
 44 48  1  0  0  0  0
 45 46  1  0  0  0  0
 46 47  1  0  0  0  0
 48 47  1  0  0  0  0
 49 45  1  0  0  0  0
 49 44  1  0  0  0  0
 50 51  1  0  0  0  0
 52 51  1  0  0  0  0
 52 54  1  0  0  0  0
 53 52  2  0  0  0  0
M  END
>  <MODEL>
4

>  <REMARK>
 VINA RESULT:      -7.9      4.018     10.094
  Name = 
  8 active torsions:
  status: ('A' for Active; 'I' for Inactive)
    1  A    between atoms: C_14  and  C_32
    2  A    between atoms: C_17  and  C_24
    3  A    between atoms: C_18  and  C_46
    4  A    between atoms: C_22  and  C_45
    5  A    between atoms: C_24  and  C_26
    6  A    between atoms: C_27  and  C_48
    7  A    between atoms: C_32  and  C_39
    8  A    between atoms: C_39  and  C_40
                            x       y       z     vdW  Elec       q    Type
                         _______ _______ _______ _____ _____    ______ ____

>  <TORSDO>
F 8

$$$$
=
 OpenBabel11062418333D

 54 60  0  0  1  0  0  0  0  0999 V2000
  188.9130  177.6790  144.5240 C   0  0  2  0  0  3  0  0  0  0  0  0
  193.2080  174.6440  145.7550 C   0  0  2  0  0  3  0  0  0  0  0  0
  188.6680  176.6440  145.5470 N   0  0  2  0  0  0  0  0  0  0  0  0
  194.5870  171.8230  142.9890 C   0  0  0  0  0  2  0  0  0  0  0  0
  191.5330  176.1100  142.2640 N   0  0  0  0  0  2  0  0  0  0  0  0
  189.1290  176.2480  142.0100 C   0  0  0  0  0  3  0  0  0  0  0  0
  186.6980  176.9030  141.1140 Cl  0  0  0  0  0  0  0  0  0  0  0  0
  187.2460  176.4780  145.7800 C   0  0  0  0  0  2  0  0  0  0  0  0
  193.0190  174.8950  140.9500 O   0  0  0  0  0  0  0  0  0  0  0  0
  191.4390  172.4750  141.0210 C   0  0  1  0  0  3  0  0  0  0  0  0
  187.8810  177.6830  143.4780 N   0  0  0  0  0  2  0  0  0  0  0  0
  189.1620  177.1700  146.8250 C   0  0  1  0  0  3  0  0  0  0  0  0
  192.4580  175.3180  146.7430 O   0  0  0  0  0  0  0  0  0  0  0  0
  193.7890  171.8810  141.6900 C   0  0  2  0  0  3  0  0  0  0  0  0
  195.0320  174.0740  143.5090 C   0  0  0  0  0  2  0  0  0  0  0  0
  191.0880  173.7570  141.6220 N   0  0  0  0  0  2  0  0  0  0  0  0
  188.2440  176.8760  147.8510 O   0  0  0  0  0  0  0  0  0  0  0  0
  190.2880  177.4730  143.8700 C   0  0  0  0  0  2  0  0  0  0  0  0
  190.2760  176.2190  142.9840 C   0  0  2  0  0  3  0  0  0  0  0  0
  193.6160  173.2490  146.2270 C   0  0  0  0  0  2  0  0  0  0  0  0
  191.1820  175.7800  146.4290 C   0  0  0  0  0  3  0  0  0  0  0  0
  194.3790  175.3650  144.0040 C   0  0  0  0  0  2  0  0  0  0  0  0
  186.9980  176.7930  147.2250 C   0  0  1  0  0  3  0  0  0  0  0  0
  194.5370  172.5490  145.2230 C   0  0  0  0  0  2  0  0  0  0  0  0
  194.2010  172.9250  143.8580 N   0  0  2  0  0  0  0  0  0  0  0  0
  190.5350  176.6540  147.2010 C   0  0  0  0  0  0  0  0  0  0  0  0
  188.0020  176.9050  142.2810 C   0  0  0  0  0  0  0  0  0  0  0  0
  191.9280  174.9150  141.5800 C   0  0  0  0  0  0  0  0  0  0  0  0
  194.3310  175.4010  145.4040 O   0  0  0  0  0  0  0  0  0  0  0  0
  192.3050  171.6680  141.9790 C   0  0  0  0  0  2  0  0  0  0  0  0
  194.9670  168.6330  140.0690 C   0  0  0  0  0  3  0  0  0  0  0  0
  194.3880  169.5190  140.9830 C   0  0  0  0  0  3  0  0  0  0  0  0
  196.0790  168.2560  137.9940 F   0  0  0  0  0  0  0  0  0  0  0  0
  195.5140  169.1140  138.8770 C   0  0  0  0  0  0  0  0  0  0  0  0
  195.4730  170.4810  138.5920 C   0  0  0  0  0  3  0  0  0  0  0  0
  194.3390  170.8900  140.7020 C   0  0  0  0  0  0  0  0  0  0  0  0
  194.8900  171.3650  139.5030 C   0  0  0  0  0  3  0  0  0  0  0  0
  191.1930  177.1740  148.4090 C   0  0  0  0  0  3  0  0  0  0  0  0
  190.8650  178.2860  148.9040 O   0  0  0  0  0  0  0  0  0  0  0  0
  190.1700  171.6960  140.6830 C   0  0  0  0  0  2  0  0  0  0  0  0
  190.0660  171.4140  139.1900 C   0  0  2  0  0  3  0  0  0  0  0  0
  191.0830  170.3570  138.8070 C   0  0  0  0  0  2  0  0  0  0  0  0
  191.3560  171.8170  138.5020 C   0  0  1  0  0  3  0  0  0  0  0  0
  189.9240  173.1090  136.9120 C   0  0  0  0  0  2  0  0  0  0  0  0
  190.9010  173.9690  134.8300 N   0  0  0  0  0  2  0  0  0  0  0  0
  191.9670  172.9650  134.8850 C   0  0  0  0  0  2  0  0  0  0  0  0
  192.3100  172.6340  136.3380 C   0  0  0  0  0  2  0  0  0  0  0  0
  191.0620  172.1000  137.0400 C   0  0  0  0  0  3  0  0  0  0  0  0
  189.6920  173.4020  135.4300 C   0  0  0  0  0  2  0  0  0  0  0  0
  186.2540  178.1170  147.3440 C   0  0  0  0  0  2  0  0  0  0  0  0
  184.8940  178.0600  146.6600 C   0  0  0  0  0  2  0  0  0  0  0  0
  184.8230  179.0050  145.5070 C   0  0  0  0  0  0  0  0  0  0  0  0
  185.8040  179.7450  145.2390 O   0  0  0  0  0  1  0  0  0  0  0  0
  183.6900  179.0390  144.6970 O   0  0  0  0  0  0  0  0  0  0  0  0
  1 18  1  6  0  0  0
  1  3  1  0  0  0  0
  2 20  1  1  0  0  0
  2 13  1  0  0  0  0
  3  8  1  1  0  0  0
  3 12  1  0  0  0  0
  5 19  1  0  0  0  0
  6 27  2  0  0  0  0
  7 27  1  0  0  0  0
  8 23  1  0  0  0  0
  9 28  2  0  0  0  0
 10 40  1  1  0  0  0
 10 16  1  0  0  0  0
 10 30  1  0  0  0  0
 11  1  1  0  0  0  0
 12 26  1  1  0  0  0
 12 17  1  0  0  0  0
 14 36  1  6  0  0  0
 14 30  1  0  0  0  0
 14  4  1  0  0  0  0
 15 25  1  0  0  0  0
 15 22  1  0  0  0  0
 19  6  1  6  0  0  0
 19 18  1  0  0  0  0
 21 13  1  0  0  0  0
 21 26  2  0  0  0  0
 22 29  1  0  0  0  0
 23 50  1  6  0  0  0
 23 17  1  0  0  0  0
 24 20  1  0  0  0  0
 25  4  1  6  0  0  0
 25 24  1  0  0  0  0
 26 38  1  0  0  0  0
 27 11  1  0  0  0  0
 28 16  1  0  0  0  0
 28  5  1  0  0  0  0
 29  2  1  0  0  0  0
 31 32  1  0  0  0  0
 33 34  1  0  0  0  0
 34 31  2  0  0  0  0
 35 34  1  0  0  0  0
 35 37  2  0  0  0  0
 36 32  2  0  0  0  0
 37 36  1  0  0  0  0
 38 39  2  0  0  0  0
 41 40  1  1  0  0  0
 42 41  1  0  0  0  0
 43 48  1  6  0  0  0
 43 42  1  0  0  0  0
 43 41  1  0  0  0  0
 44 48  1  0  0  0  0
 45 46  1  0  0  0  0
 45 49  1  0  0  0  0
 46 47  1  0  0  0  0
 47 48  1  0  0  0  0
 49 44  1  0  0  0  0
 51 50  1  0  0  0  0
 52 51  1  0  0  0  0
 53 52  1  0  0  0  0
 54 52  2  0  0  0  0
M  END
>  <MODEL>
5

>  <REMARK>
 VINA RESULT:      -7.9      4.031      9.731
  Name = 
  8 active torsions:
  status: ('A' for Active; 'I' for Inactive)
    1  A    between atoms: C_14  and  C_32
    2  A    between atoms: C_17  and  C_24
    3  A    between atoms: C_18  and  C_46
    4  A    between atoms: C_22  and  C_45
    5  A    between atoms: C_24  and  C_26
    6  A    between atoms: C_27  and  C_48
    7  A    between atoms: C_32  and  C_39
    8  A    between atoms: C_39  and  C_40
                            x       y       z     vdW  Elec       q    Type
                         _______ _______ _______ _____ _____    ______ ____

>  <TORSDO>
F 8

$$$$
=
 OpenBabel11062418333D

 54 60  0  0  1  0  0  0  0  0999 V2000
  194.8640  172.5200  138.4240 C   0  0  2  0  0  3  0  0  0  0  0  0
  190.6720  171.7550  141.7430 C   0  0  2  0  0  3  0  0  0  0  0  0
  194.9330  171.2890  139.2360 N   0  0  2  0  0  0  0  0  0  0  0  0
  190.2720  174.1740  145.1340 C   0  0  0  0  0  2  0  0  0  0  0  0
  193.0350  174.9800  140.6680 N   0  0  0  0  0  2  0  0  0  0  0  0
  195.4060  174.6950  140.2650 C   0  0  0  0  0  3  0  0  0  0  0  0
  197.9190  175.1150  139.4600 Cl  0  0  0  0  0  0  0  0  0  0  0  0
  196.2610  170.7080  139.1770 C   0  0  0  0  0  2  0  0  0  0  0  0
  192.0340  176.3440  142.2650 O   0  0  0  0  0  0  0  0  0  0  0  0
  193.7450  175.4500  144.4160 C   0  0  1  0  0  3  0  0  0  0  0  0
  196.1200  173.2810  138.4590 N   0  0  0  0  0  2  0  0  0  0  0  0
  194.0930  170.2840  138.5750 C   0  0  1  0  0  3  0  0  0  0  0  0
  191.0910  170.7680  140.8240 O   0  0  0  0  0  0  0  0  0  0  0  0
  191.3620  175.2390  145.1890 C   0  0  2  0  0  3  0  0  0  0  0  0
  189.5220  174.2100  142.9050 C   0  0  0  0  0  2  0  0  0  0  0  0
  193.8250  175.0400  143.0180 N   0  0  0  0  0  2  0  0  0  0  0  0
  194.7460  169.0380  138.5750 O   0  0  0  0  0  0  0  0  0  0  0  0
  193.7190  173.4220  138.9100 C   0  0  0  0  0  2  0  0  0  0  0  0
  194.0590  174.0240  140.2810 C   0  0  2  0  0  3  0  0  0  0  0  0
  190.2780  171.1320  143.0810 C   0  0  0  0  0  2  0  0  0  0  0  0
  192.3610  170.8620  140.2600 C   0  0  0  0  0  3  0  0  0  0  0  0
  189.9190  173.8340  141.4770 C   0  0  0  0  0  2  0  0  0  0  0  0
  196.1110  169.3320  138.6000 C   0  0  1  0  0  3  0  0  0  0  0  0
  189.7010  172.1680  144.0500 C   0  0  0  0  0  2  0  0  0  0  0  0
  190.3340  173.4660  143.8640 N   0  0  2  0  0  0  0  0  0  0  0  0
  192.7180  170.1440  139.1940 C   0  0  0  0  0  0  0  0  0  0  0  0
  196.3700  174.3020  139.4340 C   0  0  0  0  0  0  0  0  0  0  0  0
  192.9270  175.4960  142.0000 C   0  0  0  0  0  0  0  0  0  0  0  0
  189.6120  172.4940  141.2050 O   0  0  0  0  0  0  0  0  0  0  0  0
  192.7390  174.5810  145.1590 C   0  0  0  0  0  2  0  0  0  0  0  0
  189.9810  177.8770  147.5770 C   0  0  0  0  0  3  0  0  0  0  0  0
  190.0990  177.0270  146.4730 C   0  0  0  0  0  3  0  0  0  0  0  0
  190.8220  178.6640  149.6650 F   0  0  0  0  0  0  0  0  0  0  0  0
  190.9340  177.8360  148.5970 C   0  0  0  0  0  0  0  0  0  0  0  0
  192.0000  176.9370  148.5210 C   0  0  0  0  0  3  0  0  0  0  0  0
  191.1620  176.1200  146.3910 C   0  0  0  0  0  0  0  0  0  0  0  0
  192.1140  176.0840  147.4210 C   0  0  0  0  0  3  0  0  0  0  0  0
  191.7360  169.2420  138.5710 C   0  0  0  0  0  3  0  0  0  0  0  0
  191.4690  169.3170  137.3420 O   0  0  0  0  0  0  0  0  0  0  0  0
  195.1200  175.3310  145.0700 C   0  0  0  0  0  2  0  0  0  0  0  0
  195.2820  174.0000  145.7940 C   0  0  2  0  0  3  0  0  0  0  0  0
  196.7440  173.7890  146.1360 C   0  0  0  0  0  2  0  0  0  0  0  0
  196.1280  173.0600  144.9570 C   0  0  1  0  0  3  0  0  0  0  0  0
  194.3600  171.2930  144.9850 C   0  0  0  0  0  2  0  0  0  0  0  0
  194.9870  168.9500  144.6080 N   0  0  0  0  0  2  0  0  0  0  0  0
  196.3660  169.2250  145.0230 C   0  0  0  0  0  2  0  0  0  0  0  0
  196.7540  170.6580  144.6550 C   0  0  0  0  0  2  0  0  0  0  0  0
  195.8030  171.6310  145.3500 C   0  0  0  0  0  3  0  0  0  0  0  0
  194.0890  169.8340  145.3520 C   0  0  0  0  0  2  0  0  0  0  0  0
  196.6870  169.3000  137.1890 C   0  0  0  0  0  2  0  0  0  0  0  0
  197.7970  170.3280  137.0130 C   0  0  0  0  0  2  0  0  0  0  0  0
  197.6720  171.0490  135.7120 C   0  0  0  0  0  0  0  0  0  0  0  0
  197.2840  170.4320  134.6860 O   0  0  0  0  0  0  0  0  0  0  0  0
  197.9410  172.4140  135.6380 O   0  0  0  0  0  1  0  0  0  0  0  0
  1 11  1  0  0  0  0
  1 18  1  1  0  0  0
  1  3  1  0  0  0  0
  2 20  1  1  0  0  0
  3  8  1  6  0  0  0
  4 14  1  0  0  0  0
  5 28  1  0  0  0  0
  6 19  1  0  0  0  0
 10 40  1  1  0  0  0
 10 30  1  0  0  0  0
 11 27  1  0  0  0  0
 12 17  1  1  0  0  0
 12 26  1  0  0  0  0
 12  3  1  0  0  0  0
 13  2  1  0  0  0  0
 14 36  1  1  0  0  0
 16 10  1  0  0  0  0
 17 23  1  0  0  0  0
 19 18  1  6  0  0  0
 19  5  1  0  0  0  0
 20 24  1  0  0  0  0
 21 13  1  0  0  0  0
 22 15  1  0  0  0  0
 23 50  1  6  0  0  0
 23  8  1  0  0  0  0
 25 15  1  6  0  0  0
 25 24  1  0  0  0  0
 25  4  1  0  0  0  0
 26 21  2  0  0  0  0
 27  7  1  0  0  0  0
 27  6  2  0  0  0  0
 28  9  2  0  0  0  0
 28 16  1  0  0  0  0
 29 22  1  0  0  0  0
 29  2  1  0  0  0  0
 30 14  1  0  0  0  0
 31 34  1  0  0  0  0
 32 31  2  0  0  0  0
 34 33  1  0  0  0  0
 35 34  2  0  0  0  0
 36 32  1  0  0  0  0
 36 37  2  0  0  0  0
 37 35  1  0  0  0  0
 38 26  1  0  0  0  0
 39 38  2  0  0  0  0
 41 40  1  6  0  0  0
 41 42  1  0  0  0  0
 43 48  1  1  0  0  0
 43 41  1  0  0  0  0
 43 42  1  0  0  0  0
 44 48  1  0  0  0  0
 44 49  1  0  0  0  0
 45 46  1  0  0  0  0
 45 49  1  0  0  0  0
 47 46  1  0  0  0  0
 47 48  1  0  0  0  0
 51 50  1  0  0  0  0
 52 51  1  0  0  0  0
 53 52  2  0  0  0  0
 54 52  1  0  0  0  0
M  END
>  <MODEL>
6

>  <REMARK>
 VINA RESULT:      -7.3      4.173      7.467
  Name = 
  8 active torsions:
  status: ('A' for Active; 'I' for Inactive)
    1  A    between atoms: C_14  and  C_32
    2  A    between atoms: C_17  and  C_24
    3  A    between atoms: C_18  and  C_46
    4  A    between atoms: C_22  and  C_45
    5  A    between atoms: C_24  and  C_26
    6  A    between atoms: C_27  and  C_48
    7  A    between atoms: C_32  and  C_39
    8  A    between atoms: C_39  and  C_40
                            x       y       z     vdW  Elec       q    Type
                         _______ _______ _______ _____ _____    ______ ____

>  <TORSDO>
F 8

$$$$
=
 OpenBabel11062418333D

 54 60  0  0  1  0  0  0  0  0999 V2000
  189.8370  174.3510  144.3650 C   0  0  2  0  0  3  0  0  0  0  0  0
  188.8980  173.6910  139.0870 C   0  0  2  0  0  3  0  0  0  0  0  0
  189.9800  175.5750  143.5520 N   0  0  2  0  0  0  0  0  0  0  0  0
  191.6790  171.6120  136.7530 C   0  0  0  0  0  2  0  0  0  0  0  0
  190.9230  171.5740  142.0120 N   0  0  0  0  0  2  0  0  0  0  0  0
  192.1610  172.7310  143.7420 C   0  0  0  0  0  3  0  0  0  0  0  0
  193.4800  173.2640  146.0050 Cl  0  0  0  0  0  0  0  0  0  0  0  0
  190.6340  176.6230  144.3130 C   0  0  0  0  0  2  0  0  0  0  0  0
  191.7630  170.0690  140.4490 O   0  0  0  0  0  0  0  0  0  0  0  0
  194.0020  171.7440  139.7180 C   0  0  1  0  0  3  0  0  0  0  0  0
  190.9740  174.1500  145.2740 N   0  0  0  0  0  2  0  0  0  0  0  0
  188.6320  176.1080  143.3280 C   0  0  1  0  0  3  0  0  0  0  0  0
  188.2380  174.6800  139.8490 O   0  0  0  0  0  0  0  0  0  0  0  0
  192.8230  171.0680  137.6030 C   0  0  2  0  0  3  0  0  0  0  0  0
  189.7370  171.0920  137.9750 C   0  0  0  0  0  2  0  0  0  0  0  0
  193.0040  172.0310  140.7430 N   0  0  0  0  0  2  0  0  0  0  0  0
  188.6360  177.5060  143.4920 O   0  0  0  0  0  0  0  0  0  0  0  0
  189.6960  173.1170  143.4600 C   0  0  0  0  0  2  0  0  0  0  0  0
  191.0270  172.8170  142.7560 C   0  0  2  0  0  3  0  0  0  0  0  0
  189.2840  174.2230  137.7080 C   0  0  0  0  0  2  0  0  0  0  0  0
  188.7610  175.0450  141.0870 C   0  0  0  0  0  3  0  0  0  0  0  0
  188.9450  171.4700  139.2270 C   0  0  0  0  0  2  0  0  0  0  0  0
  189.6760  177.7750  144.3850 C   0  0  1  0  0  3  0  0  0  0  0  0
  189.8870  173.1310  136.8190 C   0  0  0  0  0  2  0  0  0  0  0  0
  190.6480  172.1750  137.6110 N   0  0  2  0  0  0  0  0  0  0  0  0
  188.0570  175.7500  141.9740 C   0  0  0  0  0  0  0  0  0  0  0  0
  192.1330  173.3970  144.8960 C   0  0  0  0  0  0  0  0  0  0  0  0
  191.8960  171.1740  141.0400 C   0  0  0  0  0  0  0  0  0  0  0  0
  188.0920  172.5530  138.9770 O   0  0  0  0  0  0  0  0  0  0  0  0
  193.5020  172.2090  138.3570 C   0  0  0  0  0  2  0  0  0  0  0  0
  194.5300  168.2150  135.7290 C   0  0  0  0  0  3  0  0  0  0  0  0
  193.5880  168.9270  136.4780 C   0  0  0  0  0  3  0  0  0  0  0  0
  196.5940  168.1670  134.5340 F   0  0  0  0  0  0  0  0  0  0  0  0
  195.6770  168.8570  135.2560 C   0  0  0  0  0  0  0  0  0  0  0  0
  195.8770  170.2140  135.5200 C   0  0  0  0  0  3  0  0  0  0  0  0
  193.7780  170.2880  136.7430 C   0  0  0  0  0  0  0  0  0  0  0  0
  194.9320  170.9250  136.2630 C   0  0  0  0  0  3  0  0  0  0  0  0
  186.6750  176.1380  141.6530 C   0  0  0  0  0  3  0  0  0  0  0  0
  186.4180  177.2390  141.0970 O   0  0  0  0  0  0  0  0  0  0  0  0
  195.3130  172.4500  140.0600 C   0  0  0  0  0  2  0  0  0  0  0  0
  195.0800  173.9020  140.4580 C   0  0  2  0  0  3  0  0  0  0  0  0
  196.1990  174.7610  139.9010 C   0  0  0  0  0  2  0  0  0  0  0  0
  196.1990  174.3710  141.3680 C   0  0  1  0  0  3  0  0  0  0  0  0
  194.2570  175.2730  142.6570 C   0  0  0  0  0  2  0  0  0  0  0  0
  194.6600  176.5440  144.7180 N   0  0  0  0  0  2  0  0  0  0  0  0
  196.0210  176.8700  144.2820 C   0  0  0  0  0  2  0  0  0  0  0  0
  196.5890  175.7370  143.4260 C   0  0  0  0  0  2  0  0  0  0  0  0
  195.6920  175.5290  142.2060 C   0  0  0  0  0  3  0  0  0  0  0  0
  193.8020  176.4370  143.5370 C   0  0  0  0  0  2  0  0  0  0  0  0
  189.1360  177.9090  145.8030 C   0  0  0  0  0  2  0  0  0  0  0  0
  187.6330  178.1490  145.8120 C   0  0  0  0  0  2  0  0  0  0  0  0
  186.8960  176.9800  146.3780 C   0  0  0  0  0  0  0  0  0  0  0  0
  185.6950  176.7810  146.0610 O   0  0  0  0  0  0  0  0  0  0  0  0
  187.5470  176.0840  147.2230 O   0  0  0  0  0  1  0  0  0  0  0  0
  1 18  1  6  0  0  0
  1 11  1  0  0  0  0
  2 20  1  6  0  0  0
  2 13  1  0  0  0  0
  3  8  1  1  0  0  0
  3  1  1  0  0  0  0
  4 14  1  0  0  0  0
  5 19  1  0  0  0  0
  6 27  2  0  0  0  0
  8 23  1  0  0  0  0
  9 28  2  0  0  0  0
 10 40  1  1  0  0  0
 10 16  1  0  0  0  0
 12 26  1  6  0  0  0
 12 17  1  0  0  0  0
 12  3  1  0  0  0  0
 13 21  1  0  0  0  0
 14 36  1  6  0  0  0
 14 30  1  0  0  0  0
 15 22  1  0  0  0  0
 16 28  1  0  0  0  0
 17 23  1  0  0  0  0
 19 18  1  1  0  0  0
 19  6  1  0  0  0  0
 21 26  2  0  0  0  0
 23 50  1  1  0  0  0
 24 25  1  0  0  0  0
 24 20  1  0  0  0  0
 25  4  1  6  0  0  0
 25 15  1  0  0  0  0
 27 11  1  0  0  0  0
 27  7  1  0  0  0  0
 28  5  1  0  0  0  0
 29  2  1  0  0  0  0
 29 22  1  0  0  0  0
 30 10  1  0  0  0  0
 31 32  1  0  0  0  0
 32 36  2  0  0  0  0
 33 34  1  0  0  0  0
 34 35  1  0  0  0  0
 34 31  2  0  0  0  0
 35 37  2  0  0  0  0
 37 36  1  0  0  0  0
 38 26  1  0  0  0  0
 39 38  2  0  0  0  0
 41 40  1  6  0  0  0
 41 43  1  0  0  0  0
 42 41  1  0  0  0  0
 42 43  1  0  0  0  0
 43 48  1  1  0  0  0
 44 49  1  0  0  0  0
 46 45  1  0  0  0  0
 47 46  1  0  0  0  0
 48 44  1  0  0  0  0
 48 47  1  0  0  0  0
 49 45  1  0  0  0  0
 50 51  1  0  0  0  0
 51 52  1  0  0  0  0
 52 54  1  0  0  0  0
 53 52  2  0  0  0  0
M  END
>  <MODEL>
7

>  <REMARK>
 VINA RESULT:      -7.1      4.711     10.724
  Name = 
  8 active torsions:
  status: ('A' for Active; 'I' for Inactive)
    1  A    between atoms: C_14  and  C_32
    2  A    between atoms: C_17  and  C_24
    3  A    between atoms: C_18  and  C_46
    4  A    between atoms: C_22  and  C_45
    5  A    between atoms: C_24  and  C_26
    6  A    between atoms: C_27  and  C_48
    7  A    between atoms: C_32  and  C_39
    8  A    between atoms: C_39  and  C_40
                            x       y       z     vdW  Elec       q    Type
                         _______ _______ _______ _____ _____    ______ ____

>  <TORSDO>
F 8

$$$$
=
 OpenBabel11062418333D

 54 60  0  0  1  0  0  0  0  0999 V2000
  190.4730  174.8080  145.1970 C   0  0  2  0  0  3  0  0  0  0  0  0
  189.3600  173.6540  140.0390 C   0  0  2  0  0  3  0  0  0  0  0  0
  190.1290  175.9750  144.3610 N   0  0  2  0  0  0  0  0  0  0  0  0
  192.4650  172.5180  137.4750 C   0  0  0  0  0  2  0  0  0  0  0  0
  192.2180  172.4520  142.7810 N   0  0  0  0  0  2  0  0  0  0  0  0
  193.1410  174.0240  144.3740 C   0  0  0  0  0  3  0  0  0  0  0  0
  194.3950  175.0580  146.4960 Cl  0  0  0  0  0  0  0  0  0  0  0  0
  190.4580  177.2110  145.0450 C   0  0  0  0  0  2  0  0  0  0  0  0
  193.3750  171.2460  141.1630 O   0  0  0  0  0  0  0  0  0  0  0  0
  194.8550  173.5370  140.2050 C   0  0  1  0  0  3  0  0  0  0  0  0
  191.6840  175.0330  145.9960 N   0  0  0  0  0  2  0  0  0  0  0  0
  188.6660  176.0220  144.2590 C   0  0  1  0  0  3  0  0  0  0  0  0
  188.4750  174.4000  140.8480 O   0  0  0  0  0  0  0  0  0  0  0  0
  193.7930  172.4200  138.2180 C   0  0  2  0  0  3  0  0  0  0  0  0
  190.9200  171.4360  138.8800 C   0  0  0  0  0  2  0  0  0  0  0  0
  193.9100  173.5190  141.3170 N   0  0  0  0  0  2  0  0  0  0  0  0
  188.2170  177.3480  144.4060 O   0  0  0  0  0  0  0  0  0  0  0  0
  190.6740  173.5610  144.3220 C   0  0  0  0  0  2  0  0  0  0  0  0
  191.9640  173.6890  143.4990 C   0  0  2  0  0  3  0  0  0  0  0  0
  189.4270  174.2260  138.6230 C   0  0  0  0  0  2  0  0  0  0  0  0
  188.9500  174.9680  142.0270 C   0  0  0  0  0  3  0  0  0  0  0  0
  190.1570  171.5820  140.1970 C   0  0  0  0  0  2  0  0  0  0  0  0
  189.1800  177.9830  145.1940 C   0  0  1  0  0  3  0  0  0  0  0  0
  190.2810  173.3590  137.6940 C   0  0  0  0  0  2  0  0  0  0  0  0
  191.3820  172.7430  138.4200 N   0  0  2  0  0  0  0  0  0  0  0  0
  188.1300  175.4380  142.9690 C   0  0  0  0  0  0  0  0  0  0  0  0
  192.9920  174.6910  145.5180 C   0  0  0  0  0  0  0  0  0  0  0  0
  193.1820  172.3560  141.7270 C   0  0  0  0  0  0  0  0  0  0  0  0
  188.9730  172.3100  140.0170 O   0  0  0  0  0  0  0  0  0  0  0  0
  194.1140  173.7520  138.8930 C   0  0  0  0  0  2  0  0  0  0  0  0
  197.1940  171.9180  136.5610 C   0  0  0  0  0  3  0  0  0  0  0  0
  196.2200  172.3020  137.4870 C   0  0  0  0  0  3  0  0  0  0  0  0
  197.7720  170.8420  134.5130 F   0  0  0  0  0  0  0  0  0  0  0  0
  196.8290  171.2090  135.4140 C   0  0  0  0  0  0  0  0  0  0  0  0
  195.4900  170.8730  135.1980 C   0  0  0  0  0  3  0  0  0  0  0  0
  194.8770  171.9650  137.2810 C   0  0  0  0  0  0  0  0  0  0  0  0
  194.5180  171.2520  136.1280 C   0  0  0  0  0  3  0  0  0  0  0  0
  186.6760  175.3310  142.7760 C   0  0  0  0  0  3  0  0  0  0  0  0
  185.9850  176.3360  142.4580 O   0  0  0  0  0  0  0  0  0  0  0  0
  195.8800  174.6500  140.4140 C   0  0  0  0  0  2  0  0  0  0  0  0
  196.8990  174.2790  141.4840 C   0  0  2  0  0  3  0  0  0  0  0  0
  197.9290  173.3380  140.8900 C   0  0  0  0  0  2  0  0  0  0  0  0
  196.8220  172.7920  141.7710 C   0  0  1  0  0  3  0  0  0  0  0  0
  196.7310  173.5090  144.1640 C   0  0  0  0  0  2  0  0  0  0  0  0
  196.8940  171.8210  145.9390 N   0  0  0  0  0  2  0  0  0  0  0  0
  197.5640  170.8890  145.0270 C   0  0  0  0  0  2  0  0  0  0  0  0
  197.0660  171.0990  143.5960 C   0  0  0  0  0  2  0  0  0  0  0  0
  197.3570  172.5370  143.1680 C   0  0  0  0  0  3  0  0  0  0  0  0
  197.2580  173.1880  145.5630 C   0  0  0  0  0  2  0  0  0  0  0  0
  188.7500  177.9890  146.6560 C   0  0  0  0  0  2  0  0  0  0  0  0
  187.4000  177.3120  146.8470 C   0  0  0  0  0  2  0  0  0  0  0  0
  186.4070  178.2380  147.4680 C   0  0  0  0  0  0  0  0  0  0  0  0
  186.7720  179.0370  148.3690 O   0  0  0  0  0  1  0  0  0  0  0  0
  185.0870  178.2520  147.0220 O   0  0  0  0  0  0  0  0  0  0  0  0
  1 18  1  6  0  0  0
  1 11  1  0  0  0  0
  2 20  1  6  0  0  0
  2 13  1  0  0  0  0
  3  8  1  1  0  0  0
  3  1  1  0  0  0  0
  4 14  1  0  0  0  0
  5 19  1  0  0  0  0
  6 27  2  0  0  0  0
  8 23  1  0  0  0  0
  9 28  2  0  0  0  0
 10 40  1  1  0  0  0
 10 16  1  0  0  0  0
 12 26  1  6  0  0  0
 12  3  1  0  0  0  0
 12 17  1  0  0  0  0
 13 21  1  0  0  0  0
 14 36  1  6  0  0  0
 14 30  1  0  0  0  0
 15 22  1  0  0  0  0
 16 28  1  0  0  0  0
 17 23  1  0  0  0  0
 19 18  1  1  0  0  0
 19  6  1  0  0  0  0
 21 26  2  0  0  0  0
 23 50  1  1  0  0  0
 24 25  1  0  0  0  0
 24 20  1  0  0  0  0
 25  4  1  6  0  0  0
 25 15  1  0  0  0  0
 27 11  1  0  0  0  0
 27  7  1  0  0  0  0
 28  5  1  0  0  0  0
 29  2  1  0  0  0  0
 29 22  1  0  0  0  0
 30 10  1  0  0  0  0
 31 32  1  0  0  0  0
 33 34  1  0  0  0  0
 34 31  2  0  0  0  0
 35 34  1  0  0  0  0
 35 37  2  0  0  0  0
 36 32  2  0  0  0  0
 37 36  1  0  0  0  0
 38 26  1  0  0  0  0
 39 38  2  0  0  0  0
 41 40  1  6  0  0  0
 41 43  1  0  0  0  0
 42 41  1  0  0  0  0
 42 43  1  0  0  0  0
 43 48  1  1  0  0  0
 44 49  1  0  0  0  0
 46 45  1  0  0  0  0
 47 46  1  0  0  0  0
 48 47  1  0  0  0  0
 48 44  1  0  0  0  0
 49 45  1  0  0  0  0
 50 51  1  0  0  0  0
 51 52  1  0  0  0  0
 52 53  1  0  0  0  0
 54 52  2  0  0  0  0
M  END
>  <MODEL>
8

>  <REMARK>
 VINA RESULT:      -6.9      4.521     11.233
  Name = 
  8 active torsions:
  status: ('A' for Active; 'I' for Inactive)
    1  A    between atoms: C_14  and  C_32
    2  A    between atoms: C_17  and  C_24
    3  A    between atoms: C_18  and  C_46
    4  A    between atoms: C_22  and  C_45
    5  A    between atoms: C_24  and  C_26
    6  A    between atoms: C_27  and  C_48
    7  A    between atoms: C_32  and  C_39
    8  A    between atoms: C_39  and  C_40
                            x       y       z     vdW  Elec       q    Type
                         _______ _______ _______ _____ _____    ______ ____

>  <TORSDO>
F 8

$$$$
=
 OpenBabel11062418333D

 54 60  0  0  1  0  0  0  0  0999 V2000
  192.9680  172.2500  138.1980 C   0  0  2  0  0  3  0  0  0  0  0  0
  194.8110  174.6430  142.6760 C   0  0  2  0  0  3  0  0  0  0  0  0
  193.6720  173.5280  137.9740 N   0  0  2  0  0  0  0  0  0  0  0  0
  192.0950  176.4070  145.3250 C   0  0  0  0  0  2  0  0  0  0  0  0
  191.3140  172.7150  141.5860 N   0  0  0  0  0  2  0  0  0  0  0  0
  190.4070  172.9670  139.3550 C   0  0  0  0  0  3  0  0  0  0  0  0
  188.9830  172.5780  137.1270 Cl  0  0  0  0  0  0  0  0  0  0  0  0
  193.4500  174.0060  136.6220 C   0  0  0  0  0  2  0  0  0  0  0  0
  190.2850  173.2810  143.5940 O   0  0  0  0  0  0  0  0  0  0  0  0
  189.4560  175.8960  142.6830 C   0  0  1  0  0  3  0  0  0  0  0  0
  191.6890  172.1850  137.4800 N   0  0  0  0  0  2  0  0  0  0  0  0
  195.1110  173.2440  138.0020 C   0  0  1  0  0  3  0  0  0  0  0  0
  195.6460  174.3780  141.5690 O   0  0  0  0  0  0  0  0  0  0  0  0
  190.6550  176.1870  144.8740 C   0  0  2  0  0  3  0  0  0  0  0  0
  193.1210  174.3060  145.0700 C   0  0  0  0  0  2  0  0  0  0  0  0
  190.1540  174.8840  141.8960 N   0  0  0  0  0  2  0  0  0  0  0  0
  195.7570  173.9410  136.9640 O   0  0  0  0  0  0  0  0  0  0  0  0
  192.7120  172.0330  139.6980 C   0  0  0  0  0  2  0  0  0  0  0  0
  191.6480  173.0170  140.2050 C   0  0  2  0  0  3  0  0  0  0  0  0
  195.1190  176.0100  143.2860 C   0  0  0  0  0  2  0  0  0  0  0  0
  195.0680  174.0990  140.3340 C   0  0  0  0  0  3  0  0  0  0  0  0
  193.6330  173.3170  144.0230 C   0  0  0  0  0  2  0  0  0  0  0  0
  194.7950  174.1010  135.9640 C   0  0  1  0  0  3  0  0  0  0  0  0
  194.3130  176.2640  144.5630 C   0  0  0  0  0  2  0  0  0  0  0  0
  193.0010  175.6390  144.4850 N   0  0  2  0  0  0  0  0  0  0  0  0
  195.7660  173.5710  139.3270 C   0  0  0  0  0  0  0  0  0  0  0  0
  190.4560  172.6160  138.0710 C   0  0  0  0  0  0  0  0  0  0  0  0
  190.5670  173.6150  142.4130 C   0  0  0  0  0  0  0  0  0  0  0  0
  194.9420  173.6290  143.6320 O   0  0  0  0  0  0  0  0  0  0  0  0
  190.4600  176.7350  143.4620 C   0  0  0  0  0  2  0  0  0  0  0  0
  187.4650  177.1620  146.7280 C   0  0  0  0  0  3  0  0  0  0  0  0
  188.3290  176.5320  145.8280 C   0  0  0  0  0  3  0  0  0  0  0  0
  187.1300  178.6830  148.5350 F   0  0  0  0  0  0  0  0  0  0  0  0
  187.9680  178.0680  147.6650 C   0  0  0  0  0  0  0  0  0  0  0  0
  189.3380  178.3350  147.7110 C   0  0  0  0  0  3  0  0  0  0  0  0
  189.7040  176.7910  145.8700 C   0  0  0  0  0  0  0  0  0  0  0  0
  190.2020  177.7010  146.8150 C   0  0  0  0  0  3  0  0  0  0  0  0
  197.1860  173.2450  139.5280 C   0  0  0  0  0  3  0  0  0  0  0  0
  197.6190  172.0760  139.3470 O   0  0  0  0  0  0  0  0  0  0  0  0
  188.6310  176.7920  141.7610 C   0  0  0  0  0  2  0  0  0  0  0  0
  187.1420  176.6900  142.0680 C   0  0  2  0  0  3  0  0  0  0  0  0
  186.3500  177.2070  140.8840 C   0  0  0  0  0  2  0  0  0  0  0  0
  186.5320  178.0780  142.1120 C   0  0  1  0  0  3  0  0  0  0  0  0
  185.5400  178.6550  144.3330 C   0  0  0  0  0  2  0  0  0  0  0  0
  183.2070  179.4070  144.4550 N   0  0  0  0  0  2  0  0  0  0  0  0
  182.9020  178.7570  143.1770 C   0  0  0  0  0  2  0  0  0  0  0  0
  184.1340  178.7700  142.2700 C   0  0  0  0  0  2  0  0  0  0  0  0
  185.2780  178.0320  142.9650 C   0  0  0  0  0  3  0  0  0  0  0  0
  184.2420  178.6330  145.1400 C   0  0  0  0  0  2  0  0  0  0  0  0
  194.9330  173.0050  134.9140 C   0  0  0  0  0  2  0  0  0  0  0  0
  196.3920  172.7400  134.5680 C   0  0  0  0  0  2  0  0  0  0  0  0
  196.8270  171.3890  135.0320 C   0  0  0  0  0  0  0  0  0  0  0  0
  197.7830  171.2810  135.8430 O   0  0  0  0  0  1  0  0  0  0  0  0
  196.1480  170.2500  134.6050 O   0  0  0  0  0  0  0  0  0  0  0  0
  1 18  1  1  0  0  0
  2 20  1  1  0  0  0
  2 29  1  0  0  0  0
  3  8  1  6  0  0  0
  3 12  1  0  0  0  0
  3  1  1  0  0  0  0
  5 28  1  0  0  0  0
  7 27  1  0  0  0  0
 10 40  1  6  0  0  0
 10 30  1  0  0  0  0
 11 27  1  0  0  0  0
 11  1  1  0  0  0  0
 12 17  1  6  0  0  0
 12 26  1  0  0  0  0
 13  2  1  0  0  0  0
 14  4  1  0  0  0  0
 14 36  1  1  0  0  0
 16 28  1  0  0  0  0
 16 10  1  0  0  0  0
 18 19  1  0  0  0  0
 19  6  1  6  0  0  0
 19  5  1  0  0  0  0
 20 24  1  0  0  0  0
 21 13  1  0  0  0  0
 22 15  1  0  0  0  0
 23 50  1  6  0  0  0
 23  8  1  0  0  0  0
 23 17  1  0  0  0  0
 25 24  1  1  0  0  0
 25 15  1  0  0  0  0
 25  4  1  0  0  0  0
 26 38  1  0  0  0  0
 26 21  2  0  0  0  0
 27  6  2  0  0  0  0
 28  9  2  0  0  0  0
 29 22  1  0  0  0  0
 30 14  1  0  0  0  0
 31 34  1  0  0  0  0
 32 36  1  0  0  0  0
 32 31  2  0  0  0  0
 34 35  2  0  0  0  0
 34 33  1  0  0  0  0
 36 37  2  0  0  0  0
 37 35  1  0  0  0  0
 39 38  2  0  0  0  0
 41 40  1  6  0  0  0
 41 43  1  0  0  0  0
 42 41  1  0  0  0  0
 42 43  1  0  0  0  0
 43 48  1  1  0  0  0
 44 49  1  0  0  0  0
 45 49  1  0  0  0  0
 46 45  1  0  0  0  0
 47 48  1  0  0  0  0
 47 46  1  0  0  0  0
 48 44  1  0  0  0  0
 51 50  1  0  0  0  0
 51 52  1  0  0  0  0
 52 53  1  0  0  0  0
 54 52  2  0  0  0  0
M  END
>  <MODEL>
9

>  <REMARK>
 VINA RESULT:      -6.8      1.903      2.500
  Name = 
  8 active torsions:
  status: ('A' for Active; 'I' for Inactive)
    1  A    between atoms: C_14  and  C_32
    2  A    between atoms: C_17  and  C_24
    3  A    between atoms: C_18  and  C_46
    4  A    between atoms: C_22  and  C_45
    5  A    between atoms: C_24  and  C_26
    6  A    between atoms: C_27  and  C_48
    7  A    between atoms: C_32  and  C_39
    8  A    between atoms: C_39  and  C_40
                            x       y       z     vdW  Elec       q    Type
                         _______ _______ _______ _____ _____    ______ ____

>  <TORSDO>
F 8

$$$$
