=
 OpenBabel11072408273D

 34 38  0  0  1  0  0  0  0  0999 V2000
  189.3660  178.0600  143.0760 C   0  0  1  0  0  3  0  0  0  0  0  0
  190.0480  176.6390  147.1900 C   0  0  0  0  0  2  0  0  0  0  0  0
  185.4800  177.9450  146.3220 S   0  0  0  0  0  0  0  0  0  0  0  0
  187.5370  176.2860  146.9720 C   0  0  0  0  0  2  0  0  0  0  0  0
  187.2890  177.6590  146.3320 C   0  0  1  0  0  3  0  0  0  0  0  0
  191.2670  175.8270  144.9170 C   0  0  2  0  0  3  0  0  0  0  0  0
  188.3620  177.8950  140.9010 O   0  0  0  0  0  0  0  0  0  0  0  0
  190.4680  177.0520  142.7570 C   0  0  0  0  0  2  0  0  0  0  0  0
  191.8910  177.1990  143.8910 S   0  0  0  0  0  0  0  0  0  0  0  0
  187.7140  177.7340  144.9100 C   0  0  0  0  0  0  0  0  0  0  0  0
  188.1880  177.8550  142.1470 C   0  0  0  0  0  0  0  0  0  0  0  0
  185.2940  177.4930  144.5530 C   0  0  2  0  0  3  0  0  0  0  0  0
  188.9650  177.9740  144.5280 C   0  0  0  0  0  3  0  0  0  0  0  0
  186.6420  177.6210  143.9470 C   0  0  0  0  0  0  0  0  0  0  0  0
  189.0200  174.3860  147.5370 C   0  0  0  0  0  1  0  0  0  0  0  0
  184.3120  178.4510  143.9000 C   0  0  0  0  0  1  0  0  0  0  0  0
  188.9290  175.6890  146.7670 C   0  0  2  0  0  3  0  0  0  0  0  0
  186.8630  177.6590  142.6670 N   0  0  0  0  0  0  0  0  0  0  0  0
  191.6950  176.0160  146.6840 S   0  0  0  0  0  0  0  0  0  0  0  0
  193.2740  172.6310  144.2890 C   0  0  0  0  0  2  0  0  0  0  0  0
  191.0910  172.5220  143.0730 C   0  0  0  0  0  0  0  0  0  0  0  0
  189.3800  174.1710  143.5120 C   0  0  0  0  0  3  0  0  0  0  0  0
  191.6760  174.5200  144.3890 N   0  0  0  0  0  0  0  0  0  0  0  0
  188.4810  173.4070  142.7660 C   0  0  0  0  0  3  0  0  0  0  0  0
  192.4240  172.0420  143.2630 N   0  0  0  0  0  2  0  0  0  0  0  0
  193.1040  174.1510  144.3020 C   0  0  1  0  0  3  0  0  0  0  0  0
  190.1650  171.7970  142.3100 C   0  0  0  0  0  0  0  0  0  0  0  0
  190.7030  173.7350  143.6640 C   0  0  0  0  0  0  0  0  0  0  0  0
  190.5440  170.5720  141.6880 N   0  0  0  0  0  1  0  0  0  0  0  0
  188.8910  172.2510  142.1810 N   0  0  0  0  0  0  0  0  0  0  0  0
  193.8440  174.6970  145.3890 O   0  0  0  0  0  0  0  0  0  0  0  0
  196.3170  174.2960  145.6770 C   0  0  0  0  0  1  0  0  0  0  0  0
  195.3810  176.2780  144.7650 O   0  0  0  0  0  0  0  0  0  0  0  0
  195.1610  175.1420  145.2580 C   0  0  0  0  0  0  0  0  0  0  0  0
  1  8  1  6  0  0  0
  1 13  1  0  0  0  0
  3  5  1  0  0  0  0
  5  4  1  6  0  0  0
  6 23  1  6  0  0  0
  6 19  1  0  0  0  0
  7 11  2  0  0  0  0
  8  9  1  0  0  0  0
  9  6  1  0  0  0  0
 10  5  1  0  0  0  0
 11 18  1  0  0  0  0
 11  1  1  0  0  0  0
 12 16  1  6  0  0  0
 12  3  1  0  0  0  0
 13 10  2  0  0  0  0
 14 12  1  0  0  0  0
 14 10  1  0  0  0  0
 17  4  1  0  0  0  0
 17  2  1  0  0  0  0
 17 15  1  1  0  0  0
 18 14  2  0  0  0  0
 19  2  1  0  0  0  0
 20 26  1  0  0  0  0
 21 25  1  0  0  0  0
 21 28  1  0  0  0  0
 22 28  2  0  0  0  0
 24 22  1  0  0  0  0
 25 20  1  0  0  0  0
 26 23  1  0  0  0  0
 26 31  1  1  0  0  0
 27 21  2  0  0  0  0
 28 23  1  0  0  0  0
 29 27  1  0  0  0  0
 30 27  1  0  0  0  0
 30 24  2  0  0  0  0
 33 34  2  0  0  0  0
 34 31  1  0  0  0  0
 34 32  1  0  0  0  0
M  END
>  <MODEL>
1

>  <REMARK>
 VINA RESULT:      -8.4      0.000      0.000
  Name = 
  3 active torsions:
  status: ('A' for Active; 'I' for Inactive)
    1  A    between atoms: C_8  and  N_14
    2  A    between atoms: C_20  and  O_22
    3  A    between atoms: O_22  and  C_24
                            x       y       z     vdW  Elec       q    Type
                         _______ _______ _______ _____ _____    ______ ____

>  <TORSDO>
F 3

$$$$
=
 OpenBabel11072408273D

 34 38  0  0  1  0  0  0  0  0999 V2000
  189.2320  178.1200  143.0590 C   0  0  1  0  0  3  0  0  0  0  0  0
  190.0170  176.6610  147.1400 C   0  0  0  0  0  2  0  0  0  0  0  0
  185.4200  177.9360  146.3880 S   0  0  0  0  0  0  0  0  0  0  0  0
  187.5060  176.2880  146.9740 C   0  0  0  0  0  2  0  0  0  0  0  0
  187.2310  177.6660  146.3540 C   0  0  1  0  0  3  0  0  0  0  0  0
  191.1920  175.8840  144.8330 C   0  0  2  0  0  3  0  0  0  0  0  0
  188.1810  177.9700  140.9040 O   0  0  0  0  0  0  0  0  0  0  0  0
  190.3350  177.1250  142.7040 C   0  0  0  0  0  2  0  0  0  0  0  0
  191.7820  177.2720  143.8080 S   0  0  0  0  0  0  0  0  0  0  0  0
  187.6240  177.7600  144.9240 C   0  0  0  0  0  0  0  0  0  0  0  0
  188.0350  177.9150  142.1530 C   0  0  0  0  0  0  0  0  0  0  0  0
  185.1980  177.5020  144.6180 C   0  0  2  0  0  3  0  0  0  0  0  0
  188.8650  178.0150  144.5180 C   0  0  0  0  0  3  0  0  0  0  0  0
  186.5320  177.6490  143.9850 C   0  0  0  0  0  0  0  0  0  0  0  0
  189.0170  174.3950  147.4850 C   0  0  0  0  0  1  0  0  0  0  0  0
  184.1940  178.4580  143.9980 C   0  0  0  0  0  1  0  0  0  0  0  0
  188.8970  175.7060  146.7320 C   0  0  2  0  0  3  0  0  0  0  0  0
  186.7250  177.7020  142.7000 N   0  0  0  0  0  0  0  0  0  0  0  0
  191.6580  176.0580  146.5920 S   0  0  0  0  0  0  0  0  0  0  0  0
  191.1360  172.5710  142.9220 C   0  0  0  0  0  2  0  0  0  0  0  0
  193.4020  172.9470  143.9100 C   0  0  0  0  0  0  0  0  0  0  0  0
  193.9580  175.0950  144.8710 C   0  0  0  0  0  3  0  0  0  0  0  0
  191.6010  174.5860  144.2820 N   0  0  0  0  0  0  0  0  0  0  0  0
  195.2890  174.6860  144.9620 C   0  0  0  0  0  3  0  0  0  0  0  0
  192.4390  172.0650  143.3310 N   0  0  0  0  0  2  0  0  0  0  0  0
  190.5990  173.5460  143.9700 C   0  0  1  0  0  3  0  0  0  0  0  0
  194.7440  172.5650  144.0420 C   0  0  0  0  0  0  0  0  0  0  0  0
  192.9960  174.2180  144.3490 C   0  0  0  0  0  0  0  0  0  0  0  0
  195.1720  171.2750  143.6190 N   0  0  0  0  0  1  0  0  0  0  0  0
  195.6490  173.4400  144.5560 N   0  0  0  0  0  0  0  0  0  0  0  0
  189.3860  174.1240  143.4970 O   0  0  0  0  0  0  0  0  0  0  0  0
  188.5830  174.3700  141.1190 C   0  0  0  0  0  1  0  0  0  0  0  0
  188.1310  172.4900  142.4960 O   0  0  0  0  0  0  0  0  0  0  0  0
  188.6830  173.6160  142.4030 C   0  0  0  0  0  0  0  0  0  0  0  0
  1  8  1  6  0  0  0
  1 13  1  0  0  0  0
  5  3  1  0  0  0  0
  5  4  1  6  0  0  0
  6 23  1  6  0  0  0
  6 19  1  0  0  0  0
  7 11  2  0  0  0  0
  8  9  1  0  0  0  0
  9  6  1  0  0  0  0
 10  5  1  0  0  0  0
 11 18  1  0  0  0  0
 11  1  1  0  0  0  0
 12 16  1  6  0  0  0
 12  3  1  0  0  0  0
 13 10  2  0  0  0  0
 14 12  1  0  0  0  0
 14 10  1  0  0  0  0
 17  4  1  0  0  0  0
 17  2  1  0  0  0  0
 17 15  1  1  0  0  0
 18 14  2  0  0  0  0
 19  2  1  0  0  0  0
 20 25  1  0  0  0  0
 20 26  1  0  0  0  0
 21 27  2  0  0  0  0
 21 28  1  0  0  0  0
 22 24  1  0  0  0  0
 23 28  1  0  0  0  0
 25 21  1  0  0  0  0
 26 31  1  6  0  0  0
 26 23  1  0  0  0  0
 27 30  1  0  0  0  0
 28 22  2  0  0  0  0
 29 27  1  0  0  0  0
 30 24  2  0  0  0  0
 32 34  1  0  0  0  0
 34 33  2  0  0  0  0
 34 31  1  0  0  0  0
M  END
>  <MODEL>
2

>  <REMARK>
 VINA RESULT:      -7.7      1.675      3.573
  Name = 
  3 active torsions:
  status: ('A' for Active; 'I' for Inactive)
    1  A    between atoms: C_8  and  N_14
    2  A    between atoms: C_20  and  O_22
    3  A    between atoms: O_22  and  C_24
                            x       y       z     vdW  Elec       q    Type
                         _______ _______ _______ _____ _____    ______ ____

>  <TORSDO>
F 3

$$$$
=
 OpenBabel11072408273D

 34 38  0  0  1  0  0  0  0  0999 V2000
  192.9950  176.6820  143.9850 C   0  0  1  0  0  3  0  0  0  0  0  0
  190.1310  173.9890  141.9970 C   0  0  0  0  0  2  0  0  0  0  0  0
  193.9330  171.7050  143.9080 S   0  0  0  0  0  0  0  0  0  0  0  0
  191.3160  172.3620  143.5540 C   0  0  0  0  0  2  0  0  0  0  0  0
  192.7180  172.8870  143.2140 C   0  0  1  0  0  3  0  0  0  0  0  0
  189.6190  176.2870  143.3260 C   0  0  2  0  0  3  0  0  0  0  0  0
  194.1650  177.5040  145.9150 O   0  0  0  0  0  0  0  0  0  0  0  0
  191.7300  177.4840  144.2830 C   0  0  0  0  0  2  0  0  0  0  0  0
  190.6730  177.6820  142.8080 S   0  0  0  0  0  0  0  0  0  0  0  0
  193.0270  174.1970  143.8440 C   0  0  0  0  0  0  0  0  0  0  0  0
  193.8040  176.4960  145.2520 C   0  0  0  0  0  0  0  0  0  0  0  0
  194.2960  172.7490  145.3740 C   0  0  2  0  0  3  0  0  0  0  0  0
  192.6530  175.3660  143.3320 C   0  0  0  0  0  3  0  0  0  0  0  0
  193.8600  174.1230  145.0230 C   0  0  0  0  0  0  0  0  0  0  0  0
  188.8590  172.6420  143.6770 C   0  0  0  0  0  1  0  0  0  0  0  0
  195.7890  172.7080  145.6510 C   0  0  0  0  0  1  0  0  0  0  0  0
  190.1660  173.3550  143.3860 C   0  0  2  0  0  3  0  0  0  0  0  0
  194.2050  175.1870  145.6860 N   0  0  0  0  0  0  0  0  0  0  0  0
  188.9230  175.3640  141.9090 S   0  0  0  0  0  0  0  0  0  0  0  0
  187.7710  177.0650  146.5840 C   0  0  0  0  0  2  0  0  0  0  0  0
  186.3960  177.7970  144.6270 C   0  0  0  0  0  0  0  0  0  0  0  0
  187.3670  177.8280  142.4130 C   0  0  0  0  0  3  0  0  0  0  0  0
  188.5780  176.7100  144.2710 N   0  0  0  0  0  0  0  0  0  0  0  0
  186.2400  178.5090  141.9510 C   0  0  0  0  0  3  0  0  0  0  0  0
  186.4920  177.4680  146.0140 N   0  0  0  0  0  2  0  0  0  0  0  0
  188.4990  176.1230  145.6240 C   0  0  1  0  0  3  0  0  0  0  0  0
  185.2710  178.4590  144.1180 C   0  0  0  0  0  0  0  0  0  0  0  0
  187.4500  177.4570  143.7630 C   0  0  0  0  0  0  0  0  0  0  0  0
  184.1850  178.7990  144.9750 N   0  0  0  0  0  1  0  0  0  0  0  0
  185.2230  178.8020  142.8040 N   0  0  0  0  0  0  0  0  0  0  0  0
  189.7960  175.8380  146.1380 O   0  0  0  0  0  0  0  0  0  0  0  0
  191.2430  175.2880  148.1290 C   0  0  0  0  0  1  0  0  0  0  0  0
  189.1100  174.3300  147.7210 O   0  0  0  0  0  0  0  0  0  0  0  0
  190.0000  175.1230  147.3200 C   0  0  0  0  0  0  0  0  0  0  0  0
  1 13  1  1  0  0  0
  1  8  1  0  0  0  0
  1 11  1  0  0  0  0
  2 17  1  0  0  0  0
  3 12  1  0  0  0  0
  5  4  1  1  0  0  0
  5 10  1  0  0  0  0
  5  3  1  0  0  0  0
  6 23  1  6  0  0  0
  9  6  1  0  0  0  0
  9  8  1  0  0  0  0
 10 14  1  0  0  0  0
 11 18  1  0  0  0  0
 11  7  2  0  0  0  0
 12 16  1  6  0  0  0
 13 10  2  0  0  0  0
 14 12  1  0  0  0  0
 14 18  2  0  0  0  0
 17  4  1  0  0  0  0
 17 15  1  6  0  0  0
 19  2  1  0  0  0  0
 19  6  1  0  0  0  0
 21 25  1  0  0  0  0
 22 28  1  0  0  0  0
 23 26  1  0  0  0  0
 24 22  2  0  0  0  0
 24 30  1  0  0  0  0
 25 20  1  0  0  0  0
 26 31  1  1  0  0  0
 26 20  1  0  0  0  0
 27 21  1  0  0  0  0
 27 29  1  0  0  0  0
 28 23  1  0  0  0  0
 28 21  2  0  0  0  0
 30 27  2  0  0  0  0
 31 34  1  0  0  0  0
 34 33  2  0  0  0  0
 34 32  1  0  0  0  0
M  END
>  <MODEL>
3

>  <REMARK>
 VINA RESULT:      -7.6      2.698      6.856
  Name = 
  3 active torsions:
  status: ('A' for Active; 'I' for Inactive)
    1  A    between atoms: C_8  and  N_14
    2  A    between atoms: C_20  and  O_22
    3  A    between atoms: O_22  and  C_24
                            x       y       z     vdW  Elec       q    Type
                         _______ _______ _______ _____ _____    ______ ____

>  <TORSDO>
F 3

$$$$
=
 OpenBabel11072408273D

 34 38  0  0  1  0  0  0  0  0999 V2000
  188.7040  178.4040  143.4070 C   0  0  1  0  0  3  0  0  0  0  0  0
  190.9570  175.9050  146.2510 C   0  0  0  0  0  2  0  0  0  0  0  0
  186.4040  176.7670  147.6120 S   0  0  0  0  0  0  0  0  0  0  0  0
  188.5660  175.2910  146.8650 C   0  0  0  0  0  2  0  0  0  0  0  0
  188.0740  176.7450  146.8600 C   0  0  1  0  0  3  0  0  0  0  0  0
  191.1940  176.0020  143.5600 C   0  0  2  0  0  3  0  0  0  0  0  0
  186.9290  178.7720  141.8320 O   0  0  0  0  0  0  0  0  0  0  0  0
  189.6010  177.7040  142.3880 C   0  0  0  0  0  2  0  0  0  0  0  0
  191.3540  177.6940  142.8990 S   0  0  0  0  0  0  0  0  0  0  0  0
  187.9070  177.3080  145.4950 C   0  0  0  0  0  0  0  0  0  0  0  0
  187.2580  178.3300  142.9640 C   0  0  0  0  0  0  0  0  0  0  0  0
  185.5430  176.8540  145.9930 C   0  0  2  0  0  3  0  0  0  0  0  0
  188.9060  177.8240  144.7850 C   0  0  0  0  0  3  0  0  0  0  0  0
  186.5440  177.3470  145.0160 C   0  0  0  0  0  0  0  0  0  0  0  0
  190.1670  173.5340  146.1760 C   0  0  0  0  0  1  0  0  0  0  0  0
  184.3750  177.8190  146.1080 C   0  0  0  0  0  1  0  0  0  0  0  0
  189.7700  174.9840  145.9770 C   0  0  2  0  0  3  0  0  0  0  0  0
  186.2450  177.8030  143.8360 N   0  0  0  0  0  0  0  0  0  0  0  0
  192.2800  175.7010  144.9990 S   0  0  0  0  0  0  0  0  0  0  0  0
  192.8290  173.5050  141.1670 C   0  0  0  0  0  2  0  0  0  0  0  0
  190.3390  173.3770  140.9640 C   0  0  0  0  0  0  0  0  0  0  0  0
  188.9370  174.5180  142.5690 C   0  0  0  0  0  3  0  0  0  0  0  0
  191.3740  174.9870  142.5140 N   0  0  0  0  0  0  0  0  0  0  0  0
  187.8280  173.8570  142.0380 C   0  0  0  0  0  3  0  0  0  0  0  0
  191.6370  173.0970  140.4350 N   0  0  0  0  0  2  0  0  0  0  0  0
  192.6340  174.9060  141.7460 C   0  0  1  0  0  3  0  0  0  0  0  0
  189.1980  172.7520  140.4440 C   0  0  0  0  0  0  0  0  0  0  0  0
  190.2080  174.2880  142.0250 C   0  0  0  0  0  0  0  0  0  0  0  0
  189.3070  171.8380  139.3570 N   0  0  0  0  0  1  0  0  0  0  0  0
  187.9800  173.0020  140.9930 N   0  0  0  0  0  0  0  0  0  0  0  0
  193.7550  175.2390  142.5600 O   0  0  0  0  0  0  0  0  0  0  0  0
  195.9910  176.3320  142.9660 C   0  0  0  0  0  1  0  0  0  0  0  0
  194.7860  176.4700  140.9250 O   0  0  0  0  0  0  0  0  0  0  0  0
  194.8150  176.0230  142.1000 C   0  0  0  0  0  0  0  0  0  0  0  0
  1  8  1  6  0  0  0
  1 13  1  0  0  0  0
  5  4  1  6  0  0  0
  5  3  1  0  0  0  0
  6 23  1  6  0  0  0
  6 19  1  0  0  0  0
  7 11  2  0  0  0  0
  8  9  1  0  0  0  0
  9  6  1  0  0  0  0
 10  5  1  0  0  0  0
 11  1  1  0  0  0  0
 11 18  1  0  0  0  0
 12 16  1  1  0  0  0
 12  3  1  0  0  0  0
 13 10  2  0  0  0  0
 14 10  1  0  0  0  0
 14 12  1  0  0  0  0
 17 15  1  1  0  0  0
 17  2  1  0  0  0  0
 17  4  1  0  0  0  0
 18 14  2  0  0  0  0
 19  2  1  0  0  0  0
 20 26  1  0  0  0  0
 21 28  1  0  0  0  0
 24 22  1  0  0  0  0
 25 21  1  0  0  0  0
 25 20  1  0  0  0  0
 26 23  1  0  0  0  0
 26 31  1  1  0  0  0
 27 21  2  0  0  0  0
 27 30  1  0  0  0  0
 28 23  1  0  0  0  0
 28 22  2  0  0  0  0
 29 27  1  0  0  0  0
 30 24  2  0  0  0  0
 33 34  2  0  0  0  0
 34 31  1  0  0  0  0
 34 32  1  0  0  0  0
M  END
>  <MODEL>
4

>  <REMARK>
 VINA RESULT:      -7.5      1.963      2.078
  Name = 
  3 active torsions:
  status: ('A' for Active; 'I' for Inactive)
    1  A    between atoms: C_8  and  N_14
    2  A    between atoms: C_20  and  O_22
    3  A    between atoms: O_22  and  C_24
                            x       y       z     vdW  Elec       q    Type
                         _______ _______ _______ _____ _____    ______ ____

>  <TORSDO>
F 3

$$$$
=
 OpenBabel11072408273D

 34 38  0  0  1  0  0  0  0  0999 V2000
  189.4850  177.7160  142.9500 C   0  0  1  0  0  3  0  0  0  0  0  0
  191.3750  176.8910  146.8430 C   0  0  0  0  0  2  0  0  0  0  0  0
  186.6090  177.6170  147.1180 S   0  0  0  0  0  0  0  0  0  0  0  0
  188.9610  176.2650  147.3420 C   0  0  0  0  0  2  0  0  0  0  0  0
  188.3810  177.5160  146.6670 C   0  0  1  0  0  3  0  0  0  0  0  0
  192.0660  175.9290  144.4120 C   0  0  2  0  0  3  0  0  0  0  0  0
  187.9870  177.1830  141.1500 O   0  0  0  0  0  0  0  0  0  0  0  0
  190.5890  176.7910  142.4410 C   0  0  0  0  0  2  0  0  0  0  0  0
  192.2240  177.2190  143.1320 S   0  0  0  0  0  0  0  0  0  0  0  0
  188.4150  177.4560  145.1820 C   0  0  0  0  0  0  0  0  0  0  0  0
  188.1450  177.2800  142.3950 C   0  0  0  0  0  0  0  0  0  0  0  0
  186.0350  176.9320  145.5140 C   0  0  2  0  0  3  0  0  0  0  0  0
  189.4840  177.7700  144.4580 C   0  0  0  0  0  3  0  0  0  0  0  0
  187.1550  177.1190  144.5590 C   0  0  0  0  0  0  0  0  0  0  0  0
  190.7710  174.6070  147.6620 C   0  0  0  0  0  1  0  0  0  0  0  0
  184.8040  177.6990  145.0630 C   0  0  0  0  0  1  0  0  0  0  0  0
  190.3180  175.7890  146.8270 C   0  0  2  0  0  3  0  0  0  0  0  0
  187.0340  177.0190  143.2680 N   0  0  0  0  0  0  0  0  0  0  0  0
  192.9050  176.3780  145.9730 S   0  0  0  0  0  0  0  0  0  0  0  0
  194.2600  172.9420  143.4640 C   0  0  0  0  0  2  0  0  0  0  0  0
  191.8490  172.3750  143.1160 C   0  0  0  0  0  0  0  0  0  0  0  0
  190.1280  173.8530  143.9520 C   0  0  0  0  0  3  0  0  0  0  0  0
  192.4910  174.6140  143.9180 N   0  0  0  0  0  0  0  0  0  0  0  0
  189.1760  172.8760  143.6580 C   0  0  0  0  0  3  0  0  0  0  0  0
  193.2300  172.0980  142.8740 N   0  0  0  0  0  2  0  0  0  0  0  0
  193.8490  174.4120  143.3720 C   0  0  1  0  0  3  0  0  0  0  0  0
  190.8590  171.4300  142.8130 C   0  0  0  0  0  0  0  0  0  0  0  0
  191.4810  173.6110  143.6730 C   0  0  0  0  0  0  0  0  0  0  0  0
  191.2110  170.1770  142.2340 N   0  0  0  0  0  1  0  0  0  0  0  0
  189.5570  171.6990  143.0950 N   0  0  0  0  0  0  0  0  0  0  0  0
  194.8050  175.2120  144.0620 O   0  0  0  0  0  0  0  0  0  0  0  0
  197.2980  175.2290  143.6800 C   0  0  0  0  0  1  0  0  0  0  0  0
  195.7740  176.7170  142.6310 O   0  0  0  0  0  0  0  0  0  0  0  0
  195.9250  175.7600  143.4340 C   0  0  0  0  0  0  0  0  0  0  0  0
  1  8  1  1  0  0  0
  1 13  1  0  0  0  0
  5  3  1  0  0  0  0
  5  4  1  1  0  0  0
  6 23  1  6  0  0  0
  6 19  1  0  0  0  0
  7 11  2  0  0  0  0
  8  9  1  0  0  0  0
  9  6  1  0  0  0  0
 10  5  1  0  0  0  0
 11  1  1  0  0  0  0
 11 18  1  0  0  0  0
 12 16  1  6  0  0  0
 12  3  1  0  0  0  0
 13 10  2  0  0  0  0
 14 10  1  0  0  0  0
 14 12  1  0  0  0  0
 17  2  1  0  0  0  0
 17  4  1  0  0  0  0
 17 15  1  1  0  0  0
 18 14  2  0  0  0  0
 19  2  1  0  0  0  0
 21 28  1  0  0  0  0
 24 22  1  0  0  0  0
 25 21  1  0  0  0  0
 25 20  1  0  0  0  0
 26 20  1  0  0  0  0
 26 23  1  0  0  0  0
 26 31  1  1  0  0  0
 27 30  1  0  0  0  0
 27 21  2  0  0  0  0
 28 23  1  0  0  0  0
 28 22  2  0  0  0  0
 29 27  1  0  0  0  0
 30 24  2  0  0  0  0
 33 34  2  0  0  0  0
 34 32  1  0  0  0  0
 34 31  1  0  0  0  0
M  END
>  <MODEL>
5

>  <REMARK>
 VINA RESULT:      -6.8      1.194      1.262
  Name = 
  3 active torsions:
  status: ('A' for Active; 'I' for Inactive)
    1  A    between atoms: C_8  and  N_14
    2  A    between atoms: C_20  and  O_22
    3  A    between atoms: O_22  and  C_24
                            x       y       z     vdW  Elec       q    Type
                         _______ _______ _______ _____ _____    ______ ____

>  <TORSDO>
F 3

$$$$
=
 OpenBabel11072408273D

 34 38  0  0  1  0  0  0  0  0999 V2000
  190.9400  172.6310  144.5530 C   0  0  1  0  0  3  0  0  0  0  0  0
  191.9710  176.8110  145.4830 C   0  0  0  0  0  2  0  0  0  0  0  0
  195.1000  174.6610  142.4980 S   0  0  0  0  0  0  0  0  0  0  0  0
  193.2410  176.4790  143.3040 C   0  0  0  0  0  2  0  0  0  0  0  0
  193.8060  175.1110  143.7130 C   0  0  1  0  0  3  0  0  0  0  0  0
  189.5140  175.7050  145.2650 C   0  0  2  0  0  3  0  0  0  0  0  0
  190.2940  170.8780  143.0430 O   0  0  0  0  0  0  0  0  0  0  0  0
  189.5140  173.1550  144.7160 C   0  0  0  0  0  2  0  0  0  0  0  0
  189.3160  174.1660  146.2230 S   0  0  0  0  0  0  0  0  0  0  0  0
  192.8020  174.0170  143.6550 C   0  0  0  0  0  0  0  0  0  0  0  0
  191.0620  171.8520  143.2600 C   0  0  0  0  0  0  0  0  0  0  0  0
  194.0020  173.5210  141.5670 C   0  0  2  0  0  3  0  0  0  0  0  0
  191.9370  173.7600  144.6320 C   0  0  0  0  0  3  0  0  0  0  0  0
  192.8910  173.1710  142.4870 C   0  0  0  0  0  0  0  0  0  0  0  0
  191.5670  178.2910  143.5090 C   0  0  0  0  0  1  0  0  0  0  0  0
  194.7930  172.2850  141.1760 C   0  0  0  0  0  1  0  0  0  0  0  0
  191.9230  176.8870  143.9590 C   0  0  2  0  0  3  0  0  0  0  0  0
  192.0740  172.1790  142.2950 N   0  0  0  0  0  0  0  0  0  0  0  0
  190.3120  177.0380  146.2280 S   0  0  0  0  0  0  0  0  0  0  0  0
  186.6140  176.1280  142.8060 C   0  0  0  0  0  2  0  0  0  0  0  0
  186.0930  177.3040  144.9510 C   0  0  0  0  0  0  0  0  0  0  0  0
  187.4980  176.9620  146.8880 C   0  0  0  0  0  3  0  0  0  0  0  0
  188.2470  176.1430  144.6670 N   0  0  0  0  0  0  0  0  0  0  0  0
  186.5570  177.6390  147.6650 C   0  0  0  0  0  3  0  0  0  0  0  0
  185.8320  177.0980  143.5620 N   0  0  0  0  0  2  0  0  0  0  0  0
  188.0880  176.2220  143.2000 C   0  0  1  0  0  3  0  0  0  0  0  0
  185.1850  178.0000  145.7600 C   0  0  0  0  0  0  0  0  0  0  0  0
  187.2760  176.7970  145.5140 C   0  0  0  0  0  0  0  0  0  0  0  0
  183.9880  178.5370  145.2060 N   0  0  0  0  0  1  0  0  0  0  0  0
  185.4350  178.1450  147.0890 N   0  0  0  0  0  0  0  0  0  0  0  0
  188.8170  175.1880  142.5470 O   0  0  0  0  0  0  0  0  0  0  0  0
  187.8430  173.0470  141.6370 C   0  0  0  0  0  1  0  0  0  0  0  0
  188.1990  175.0090  140.3480 O   0  0  0  0  0  0  0  0  0  0  0  0
  188.2980  174.4590  141.4750 C   0  0  0  0  0  0  0  0  0  0  0  0
  1 13  1  6  0  0  0
  1  8  1  0  0  0  0
  2 19  1  0  0  0  0
  3  5  1  0  0  0  0
  4 17  1  0  0  0  0
  5  4  1  6  0  0  0
  6 23  1  1  0  0  0
  6  9  1  0  0  0  0
  6 19  1  0  0  0  0
  7 11  2  0  0  0  0
  8  9  1  0  0  0  0
 10  5  1  0  0  0  0
 10 13  2  0  0  0  0
 11  1  1  0  0  0  0
 12 16  1  1  0  0  0
 12 14  1  0  0  0  0
 12  3  1  0  0  0  0
 14 10  1  0  0  0  0
 17 15  1  1  0  0  0
 17  2  1  0  0  0  0
 18 14  2  0  0  0  0
 18 11  1  0  0  0  0
 20 26  1  0  0  0  0
 20 25  1  0  0  0  0
 21 28  2  0  0  0  0
 21 27  1  0  0  0  0
 22 24  2  0  0  0  0
 23 28  1  0  0  0  0
 25 21  1  0  0  0  0
 26 31  1  6  0  0  0
 26 23  1  0  0  0  0
 27 30  2  0  0  0  0
 28 22  1  0  0  0  0
 29 27  1  0  0  0  0
 30 24  1  0  0  0  0
 33 34  2  0  0  0  0
 34 32  1  0  0  0  0
 34 31  1  0  0  0  0
M  END
>  <MODEL>
6

>  <REMARK>
 VINA RESULT:      -6.6      2.569      7.173
  Name = 
  3 active torsions:
  status: ('A' for Active; 'I' for Inactive)
    1  A    between atoms: C_8  and  N_14
    2  A    between atoms: C_20  and  O_22
    3  A    between atoms: O_22  and  C_24
                            x       y       z     vdW  Elec       q    Type
                         _______ _______ _______ _____ _____    ______ ____

>  <TORSDO>
F 3

$$$$
=
 OpenBabel11072408273D

 34 38  0  0  1  0  0  0  0  0999 V2000
  192.8370  176.1340  142.4950 C   0  0  1  0  0  3  0  0  0  0  0  0
  189.0160  174.6200  140.9100 C   0  0  0  0  0  2  0  0  0  0  0  0
  192.7880  171.7670  139.9300 S   0  0  0  0  0  0  0  0  0  0  0  0
  190.3830  172.4760  140.9910 C   0  0  0  0  0  2  0  0  0  0  0  0
  191.6310  173.1180  140.3690 C   0  0  1  0  0  3  0  0  0  0  0  0
  189.4430  176.0400  143.1710 C   0  0  2  0  0  3  0  0  0  0  0  0
  194.7600  175.9900  143.9280 O   0  0  0  0  0  0  0  0  0  0  0  0
  191.9330  176.6910  143.5940 C   0  0  0  0  0  2  0  0  0  0  0  0
  190.4600  177.5320  142.9180 S   0  0  0  0  0  0  0  0  0  0  0  0
  192.3760  173.9950  141.3100 C   0  0  0  0  0  0  0  0  0  0  0  0
  194.0090  175.3970  143.1100 C   0  0  0  0  0  0  0  0  0  0  0  0
  193.8420  172.0230  141.4110 C   0  0  2  0  0  3  0  0  0  0  0  0
  192.0520  175.2620  141.5470 C   0  0  0  0  0  3  0  0  0  0  0  0
  193.5570  173.3980  141.8910 C   0  0  0  0  0  0  0  0  0  0  0  0
  188.2350  172.6330  142.2110 C   0  0  0  0  0  1  0  0  0  0  0  0
  195.3000  171.8790  141.0090 C   0  0  0  0  0  1  0  0  0  0  0  0
  189.4470  173.4180  141.7470 C   0  0  2  0  0  3  0  0  0  0  0  0
  194.3040  174.0410  142.7390 N   0  0  0  0  0  0  0  0  0  0  0  0
  188.1240  175.8640  141.9180 S   0  0  0  0  0  0  0  0  0  0  0  0
  189.0290  175.1080  146.8580 C   0  0  0  0  0  2  0  0  0  0  0  0
  187.3260  176.8230  146.2160 C   0  0  0  0  0  0  0  0  0  0  0  0
  187.4910  177.9480  144.0820 C   0  0  0  0  0  3  0  0  0  0  0  0
  188.9140  175.9650  144.5390 N   0  0  0  0  0  0  0  0  0  0  0  0
  186.4900  178.8280  144.4930 C   0  0  0  0  0  3  0  0  0  0  0  0
  187.7830  175.8160  147.1210 N   0  0  0  0  0  2  0  0  0  0  0  0
  189.1350  174.7650  145.3730 C   0  0  1  0  0  3  0  0  0  0  0  0
  186.3060  177.7110  146.5800 C   0  0  0  0  0  0  0  0  0  0  0  0
  187.9130  176.9250  144.9440 C   0  0  0  0  0  0  0  0  0  0  0  0
  185.6860  177.6140  147.8590 N   0  0  0  0  0  1  0  0  0  0  0  0
  185.9190  178.6890  145.7180 N   0  0  0  0  0  0  0  0  0  0  0  0
  190.4100  174.1860  145.1130 O   0  0  0  0  0  0  0  0  0  0  0  0
  191.9290  172.2370  144.6070 C   0  0  0  0  0  1  0  0  0  0  0  0
  189.6300  172.0320  145.1640 O   0  0  0  0  0  0  0  0  0  0  0  0
  190.5990  172.8100  144.9700 C   0  0  0  0  0  0  0  0  0  0  0  0
  1 13  1  6  0  0  0
  1 11  1  0  0  0  0
  1  8  1  0  0  0  0
  2 17  1  0  0  0  0
  2 19  1  0  0  0  0
  3  5  1  0  0  0  0
  3 12  1  0  0  0  0
  4 17  1  0  0  0  0
  5  4  1  1  0  0  0
  5 10  1  0  0  0  0
  6 23  1  1  0  0  0
  9  6  1  0  0  0  0
  9  8  1  0  0  0  0
 10 13  2  0  0  0  0
 10 14  1  0  0  0  0
 11  7  2  0  0  0  0
 12 16  1  6  0  0  0
 12 14  1  0  0  0  0
 14 18  2  0  0  0  0
 17 15  1  6  0  0  0
 18 11  1  0  0  0  0
 19  6  1  0  0  0  0
 20 25  1  0  0  0  0
 21 27  1  0  0  0  0
 21 25  1  0  0  0  0
 22 24  2  0  0  0  0
 22 28  1  0  0  0  0
 23 28  1  0  0  0  0
 23 26  1  0  0  0  0
 24 30  1  0  0  0  0
 26 31  1  1  0  0  0
 26 20  1  0  0  0  0
 27 29  1  0  0  0  0
 28 21  2  0  0  0  0
 30 27  2  0  0  0  0
 32 34  1  0  0  0  0
 34 31  1  0  0  0  0
 34 33  2  0  0  0  0
M  END
>  <MODEL>
7

>  <REMARK>
 VINA RESULT:      -6.6      2.868      6.884
  Name = 
  3 active torsions:
  status: ('A' for Active; 'I' for Inactive)
    1  A    between atoms: C_8  and  N_14
    2  A    between atoms: C_20  and  O_22
    3  A    between atoms: O_22  and  C_24
                            x       y       z     vdW  Elec       q    Type
                         _______ _______ _______ _____ _____    ______ ____

>  <TORSDO>
F 3

$$$$
=
 OpenBabel11072408273D

 34 38  0  0  1  0  0  0  0  0999 V2000
  190.2280  176.3190  142.4390 C   0  0  1  0  0  3  0  0  0  0  0  0
  191.8790  177.0200  146.4630 C   0  0  0  0  0  2  0  0  0  0  0  0
  187.1320  177.8500  146.1440 S   0  0  0  0  0  0  0  0  0  0  0  0
  189.4210  176.6590  147.0110 C   0  0  0  0  0  2  0  0  0  0  0  0
  188.9210  177.5650  145.8760 C   0  0  1  0  0  3  0  0  0  0  0  0
  192.6650  175.1960  144.6290 C   0  0  2  0  0  3  0  0  0  0  0  0
  188.8110  175.1560  140.8870 O   0  0  0  0  0  0  0  0  0  0  0  0
  191.3260  175.2580  142.3910 C   0  0  0  0  0  2  0  0  0  0  0  0
  192.9350  175.8980  142.9680 S   0  0  0  0  0  0  0  0  0  0  0  0
  189.0320  176.9430  144.5310 C   0  0  0  0  0  0  0  0  0  0  0  0
  188.9050  175.7200  142.0090 C   0  0  0  0  0  0  0  0  0  0  0  0
  186.6220  176.6120  144.8880 C   0  0  2  0  0  3  0  0  0  0  0  0
  190.1490  176.9450  143.8100 C   0  0  0  0  0  3  0  0  0  0  0  0
  187.7970  176.4070  144.0050 C   0  0  0  0  0  0  0  0  0  0  0  0
  191.1540  175.2290  148.0500 C   0  0  0  0  0  1  0  0  0  0  0  0
  185.4430  177.1620  144.1030 C   0  0  0  0  0  1  0  0  0  0  0  0
  190.7870  176.0080  146.8010 C   0  0  2  0  0  3  0  0  0  0  0  0
  187.7420  175.8240  142.8450 N   0  0  0  0  0  0  0  0  0  0  0  0
  193.4340  176.1970  145.9510 S   0  0  0  0  0  0  0  0  0  0  0  0
  192.6430  171.3890  144.2630 C   0  0  0  0  0  2  0  0  0  0  0  0
  194.8410  172.1450  145.1870 C   0  0  0  0  0  0  0  0  0  0  0  0
  195.3930  174.4980  145.2140 C   0  0  0  0  0  3  0  0  0  0  0  0
  193.0710  173.7870  144.6990 N   0  0  0  0  0  0  0  0  0  0  0  0
  196.7000  174.1660  145.5730 C   0  0  0  0  0  3  0  0  0  0  0  0
  193.8960  171.1000  144.9490 N   0  0  0  0  0  2  0  0  0  0  0  0
  192.0620  172.7100  144.7660 C   0  0  1  0  0  3  0  0  0  0  0  0
  196.1560  171.8540  145.5720 C   0  0  0  0  0  0  0  0  0  0  0  0
  194.4450  173.4830  145.0260 C   0  0  0  0  0  0  0  0  0  0  0  0
  196.5730  170.5050  145.7570 N   0  0  0  0  0  1  0  0  0  0  0  0
  197.0490  172.8640  145.7490 N   0  0  0  0  0  0  0  0  0  0  0  0
  190.9070  173.0380  144.0010 O   0  0  0  0  0  0  0  0  0  0  0  0
  188.8960  172.0080  142.8800 C   0  0  0  0  0  1  0  0  0  0  0  0
  189.3200  171.9160  145.2140 O   0  0  0  0  0  0  0  0  0  0  0  0
  189.7130  172.3200  144.0900 C   0  0  0  0  0  0  0  0  0  0  0  0
  1  8  1  1  0  0  0
  1 13  1  0  0  0  0
  2 17  1  0  0  0  0
  5  3  1  0  0  0  0
  5  4  1  1  0  0  0
  6 23  1  6  0  0  0
  6 19  1  0  0  0  0
  7 11  2  0  0  0  0
  8  9  1  0  0  0  0
  9  6  1  0  0  0  0
 10  5  1  0  0  0  0
 11  1  1  0  0  0  0
 11 18  1  0  0  0  0
 12 16  1  6  0  0  0
 12  3  1  0  0  0  0
 13 10  2  0  0  0  0
 14 10  1  0  0  0  0
 14 12  1  0  0  0  0
 17  4  1  0  0  0  0
 17 15  1  1  0  0  0
 18 14  2  0  0  0  0
 19  2  1  0  0  0  0
 20 26  1  0  0  0  0
 20 25  1  0  0  0  0
 21 27  1  0  0  0  0
 22 24  2  0  0  0  0
 23 26  1  0  0  0  0
 23 28  1  0  0  0  0
 24 30  1  0  0  0  0
 25 21  1  0  0  0  0
 26 31  1  6  0  0  0
 27 30  2  0  0  0  0
 27 29  1  0  0  0  0
 28 21  2  0  0  0  0
 28 22  1  0  0  0  0
 31 34  1  0  0  0  0
 32 34  1  0  0  0  0
 34 33  2  0  0  0  0
M  END
>  <MODEL>
8

>  <REMARK>
 VINA RESULT:      -6.5      2.281      4.167
  Name = 
  3 active torsions:
  status: ('A' for Active; 'I' for Inactive)
    1  A    between atoms: C_8  and  N_14
    2  A    between atoms: C_20  and  O_22
    3  A    between atoms: O_22  and  C_24
                            x       y       z     vdW  Elec       q    Type
                         _______ _______ _______ _____ _____    ______ ____

>  <TORSDO>
F 3

$$$$
=
 OpenBabel11072408273D

 34 38  0  0  1  0  0  0  0  0999 V2000
  191.3230  175.2460  142.4980 C   0  0  1  0  0  3  0  0  0  0  0  0
  195.0440  176.3590  144.5770 C   0  0  0  0  0  2  0  0  0  0  0  0
  191.1420  176.4190  147.4220 S   0  0  0  0  0  0  0  0  0  0  0  0
  193.5970  175.6390  146.5410 C   0  0  0  0  0  2  0  0  0  0  0  0
  192.3610  176.4080  146.0540 C   0  0  1  0  0  3  0  0  0  0  0  0
  194.7260  174.6090  142.5410 C   0  0  2  0  0  3  0  0  0  0  0  0
  189.4300  173.8150  142.1320 O   0  0  0  0  0  0  0  0  0  0  0  0
  192.2740  174.3690  141.6850 C   0  0  0  0  0  2  0  0  0  0  0  0
  193.7620  175.2770  141.1450 S   0  0  0  0  0  0  0  0  0  0  0  0
  191.6720  175.7580  144.9090 C   0  0  0  0  0  0  0  0  0  0  0  0
  190.1380  174.4300  142.9710 C   0  0  0  0  0  0  0  0  0  0  0  0
  190.1330  175.0670  146.6980 C   0  0  2  0  0  3  0  0  0  0  0  0
  192.0510  175.9060  143.6430 C   0  0  0  0  0  3  0  0  0  0  0  0
  190.4830  175.0140  145.2570 C   0  0  0  0  0  0  0  0  0  0  0  0
  195.7770  174.5410  146.1300 C   0  0  0  0  0  1  0  0  0  0  0  0
  188.6620  175.3940  146.8880 C   0  0  0  0  0  1  0  0  0  0  0  0
  194.5860  175.2020  145.4620 C   0  0  2  0  0  3  0  0  0  0  0  0
  189.7820  174.3840  144.3620 N   0  0  0  0  0  0  0  0  0  0  0  0
  196.0080  175.7700  143.1340 S   0  0  0  0  0  0  0  0  0  0  0  0
  196.9790  171.8510  141.1420 C   0  0  0  0  0  2  0  0  0  0  0  0
  195.2620  170.8600  142.6670 C   0  0  0  0  0  0  0  0  0  0  0  0
  193.8930  172.3010  144.0420 C   0  0  0  0  0  3  0  0  0  0  0  0
  195.2830  173.2850  142.2360 N   0  0  0  0  0  0  0  0  0  0  0  0
  193.4280  171.1750  144.7220 C   0  0  0  0  0  3  0  0  0  0  0  0
  196.2380  170.6980  141.6360 N   0  0  0  0  0  2  0  0  0  0  0  0
  196.0430  173.0500  140.9910 C   0  0  1  0  0  3  0  0  0  0  0  0
  194.7520  169.7520  143.3580 C   0  0  0  0  0  0  0  0  0  0  0  0
  194.8130  172.1490  142.9960 C   0  0  0  0  0  0  0  0  0  0  0  0
  195.1820  168.4350  143.0280 N   0  0  0  0  0  1  0  0  0  0  0  0
  193.8580  169.9360  144.3650 N   0  0  0  0  0  0  0  0  0  0  0  0
  196.8030  174.1980  140.6280 O   0  0  0  0  0  0  0  0  0  0  0  0
  197.9410  175.6660  138.9210 C   0  0  0  0  0  1  0  0  0  0  0  0
  196.2240  174.1080  138.4130 O   0  0  0  0  0  0  0  0  0  0  0  0
  196.9450  174.6230  139.3050 C   0  0  0  0  0  0  0  0  0  0  0  0
  1  8  1  1  0  0  0
  1 11  1  0  0  0  0
  1 13  1  0  0  0  0
  2 17  1  0  0  0  0
  5  4  1  1  0  0  0
  5  3  1  0  0  0  0
  6 23  1  6  0  0  0
  6 19  1  0  0  0  0
  7 11  2  0  0  0  0
  9  8  1  0  0  0  0
  9  6  1  0  0  0  0
 10 14  1  0  0  0  0
 10  5  1  0  0  0  0
 11 18  1  0  0  0  0
 12 16  1  6  0  0  0
 12  3  1  0  0  0  0
 13 10  2  0  0  0  0
 14 12  1  0  0  0  0
 17 15  1  1  0  0  0
 17  4  1  0  0  0  0
 18 14  2  0  0  0  0
 19  2  1  0  0  0  0
 20 25  1  0  0  0  0
 21 28  2  0  0  0  0
 21 27  1  0  0  0  0
 22 24  2  0  0  0  0
 23 28  1  0  0  0  0
 25 21  1  0  0  0  0
 26 31  1  1  0  0  0
 26 20  1  0  0  0  0
 26 23  1  0  0  0  0
 27 30  2  0  0  0  0
 28 22  1  0  0  0  0
 29 27  1  0  0  0  0
 30 24  1  0  0  0  0
 32 34  1  0  0  0  0
 33 34  2  0  0  0  0
 34 31  1  0  0  0  0
M  END
>  <MODEL>
9

>  <REMARK>
 VINA RESULT:      -6.3      3.332      5.216
  Name = 
  3 active torsions:
  status: ('A' for Active; 'I' for Inactive)
    1  A    between atoms: C_8  and  N_14
    2  A    between atoms: C_20  and  O_22
    3  A    between atoms: O_22  and  C_24
                            x       y       z     vdW  Elec       q    Type
                         _______ _______ _______ _____ _____    ______ ____

>  <TORSDO>
F 3

$$$$
