=
 OpenBabel11062420293D

 53 59  0  0  1  0  0  0  0  0999 V2000
  195.8590  175.1790  143.9490 C   0  0  1  0  0  3  0  0  0  0  0  0
  195.3590  172.9000  143.3660 O   0  0  0  0  0  1  0  0  0  0  0  0
  195.3690  174.2030  142.8510 C   0  0  2  0  0  0  0  0  0  0  0  0
  196.3130  174.2470  141.6450 C   0  0  0  0  0  1  0  0  0  0  0  0
  194.0340  174.5560  142.4580 O   0  0  0  0  0  0  0  0  0  0  0  0
  192.2740  173.2890  143.4790 C   0  0  0  0  0  3  0  0  0  0  0  0
  190.2920  172.6420  142.2010 N   0  0  1  0  0  0  0  0  0  0  0  0
  191.5390  169.9090  139.7120 C   0  0  0  0  0  2  0  0  0  0  0  0
  192.9940  171.6640  140.9490 C   0  0  1  0  0  3  0  0  0  0  0  0
  189.9200  170.4390  138.2460 C   0  0  1  0  0  3  0  0  0  0  0  0
  188.7800  173.6810  139.6900 C   0  0  0  0  0  2  0  0  0  0  0  0
  189.1580  171.7390  137.9500 C   0  0  2  0  0  3  0  0  0  0  0  0
  191.1680  172.2930  143.3290 C   0  0  2  0  0  3  0  0  0  0  0  0
  189.9530  172.6930  137.3090 O   0  0  0  0  0  1  0  0  0  0  0  0
  192.9530  173.6630  142.3880 C   0  0  0  0  0  0  0  0  0  0  0  0
  192.5410  173.1080  141.0480 C   0  0  2  0  0  3  0  0  0  0  0  0
  188.4240  172.2720  139.1890 C   0  0  0  0  0  2  0  0  0  0  0  0
  191.7280  170.7890  140.9620 C   0  0  1  0  0  3  0  0  0  0  0  0
  189.8630  169.6000  137.1350 O   0  0  0  0  0  1  0  0  0  0  0  0
  190.2710  173.9500  139.9610 C   0  0  0  0  0  2  0  0  0  0  0  0
  191.0090  173.0420  140.9570 C   0  0  2  0  0  0  0  0  0  0  0  0
  190.3890  172.2380  144.5480 N   0  0  0  0  0  1  0  0  0  0  0  0
  191.2620  170.6870  138.5720 O   0  0  0  0  0  0  0  0  0  0  0  0
  190.4880  171.6860  141.0660 C   0  0  2  0  0  3  0  0  0  0  0  0
  194.0160  171.4110  139.8280 C   0  0  2  0  0  3  0  0  0  0  0  0
  195.2950  170.8240  140.3930 C   0  0  0  0  0  1  0  0  0  0  0  0
  194.3070  172.5860  139.1270 O   0  0  0  0  0  1  0  0  0  0  0  0
  197.5760  176.7000  143.1440 O   0  0  0  0  0  1  0  0  0  0  0  0
  195.5130  176.7780  142.1650 F   0  0  0  0  0  0  0  0  0  0  0  0
  196.2010  176.5530  143.3430 C   0  0  1  0  0  3  0  0  0  0  0  0
  195.5900  174.9230  146.3530 O   0  0  0  0  0  1  0  0  0  0  0  0
  194.9110  175.2620  145.1810 C   0  0  1  0  0  3  0  0  0  0  0  0
  193.7510  176.7800  146.8290 C   0  0  0  0  0  1  0  0  0  0  0  0
  194.2160  176.6120  145.3970 C   0  0  2  0  0  3  0  0  0  0  0  0
  193.1080  176.8240  144.4730 N   0  0  0  0  0  2  0  0  0  0  0  0
  191.9670  176.8670  145.2030 O   0  0  0  0  0  0  0  0  0  0  0  0
  188.7060  175.2470  144.2370 C   0  0  0  0  0  2  0  0  0  0  0  0
  190.9980  176.2860  144.3800 C   0  0  2  0  0  3  0  0  0  0  0  0
  188.6730  175.7720  142.8210 C   0  0  0  0  0  3  0  0  0  0  0  0
  190.7370  177.1450  143.1470 C   0  0  0  0  0  2  0  0  0  0  0  0
  189.6090  176.5930  142.3180 C   0  0  0  0  0  3  0  0  0  0  0  0
  189.6970  175.9870  145.1460 C   0  0  1  0  0  3  0  0  0  0  0  0
  189.6840  177.5530  147.2050 C   0  0  0  0  0  1  0  0  0  0  0  0
  189.0240  177.1610  145.8890 C   0  0  2  0  0  3  0  0  0  0  0  0
  187.5000  177.0130  145.9960 C   0  0  1  0  0  3  0  0  0  0  0  0
  187.1200  176.3480  147.1650 O   0  0  0  0  0  1  0  0  0  0  0  0
  186.2740  178.5690  144.4650 C   0  0  0  0  0  0  0  0  0  0  0  0
  186.7840  178.3650  145.8330 C   0  0  1  0  0  3  0  0  0  0  0  0
  184.3930  177.6060  146.4460 C   0  0  0  0  0  2  0  0  0  0  0  0
  185.5360  178.5690  146.7310 C   0  0  2  0  0  3  0  0  0  0  0  0
  184.9300  178.8690  144.4570 O   0  0  0  0  0  0  0  0  0  0  0  0
  184.3980  178.9650  145.7740 C   0  0  1  0  0  3  0  0  0  0  0  0
  186.9710  178.4960  143.4160 O   0  0  0  0  0  0  0  0  0  0  0  0
  1 30  1  6  0  0  0
  1 32  1  0  0  0  0
  3  4  1  6  0  0  0
  3  2  1  0  0  0  0
  3  1  1  0  0  0  0
  5  3  1  0  0  0  0
  7 13  1  0  0  0  0
  8 18  1  0  0  0  0
  9 18  1  0  0  0  0
  9 16  1  0  0  0  0
 10 23  1  0  0  0  0
 11 20  1  0  0  0  0
 12 10  1  0  0  0  0
 12 17  1  0  0  0  0
 13  6  1  0  0  0  0
 13 22  1  0  0  0  0
 14 12  1  0  0  0  0
 15  5  1  0  0  0  0
 15  6  2  0  0  0  0
 16 15  1  0  0  0  0
 17 11  1  0  0  0  0
 18 24  1  0  0  0  0
 19 10  1  0  0  0  0
 20 21  1  0  0  0  0
 21 16  1  0  0  0  0
 21 24  1  0  0  0  0
 21  7  1  0  0  0  0
 23  8  1  0  0  0  0
 24  7  1  0  0  0  0
 25 26  1  0  0  0  0
 25  9  1  0  0  0  0
 27 25  1  0  0  0  0
 28 30  1  0  0  0  0
 29 30  1  0  0  0  0
 32 34  1  0  0  0  0
 32 31  1  0  0  0  0
 34 33  1  0  0  0  0
 35 36  1  0  0  0  0
 35 34  1  0  0  0  0
 37 42  1  0  0  0  0
 38 42  1  0  0  0  0
 38 36  1  0  0  0  0
 39 37  1  0  0  0  0
 40 38  1  0  0  0  0
 41 39  2  0  0  0  0
 41 40  1  0  0  0  0
 42 44  1  0  0  0  0
 44 45  1  0  0  0  0
 44 43  1  0  0  0  0
 45 46  1  0  0  0  0
 47 48  1  0  0  0  0
 48 45  1  0  0  0  0
 48 50  1  0  0  0  0
 49 50  1  0  0  0  0
 51 47  1  0  0  0  0
 51 52  1  0  0  0  0
 52 49  1  0  0  0  0
 52 50  1  0  0  0  0
 53 47  2  0  0  0  0
M  END
>  <MODEL>
1

>  <REMARK>
 VINA RESULT:      -7.4      0.000      0.000
  Name = 
  13 active torsions:
  status: ('A' for Active; 'I' for Inactive)
    1  A    between atoms: C_3  and  C_5
    2  A    between atoms: C_8  and  C_12
    3  A    between atoms: C_8  and  C_46
    4  A    between atoms: N_11  and  O_18
    5  A    between atoms: N_11  and  C_37
    6  A    between atoms: O_17  and  C_19
    7  A    between atoms: O_17  and  C_28
    8  A    between atoms: O_18  and  C_23
    9  A    between atoms: C_19  and  C_39
   10  A    between atoms: C_31  and  C_39
   11  A    between atoms: C_37  and  C_45
   12  A    between atoms: C_39  and  C_45
   13  A    between atoms: C_44  and  C_46
                            x       y       z     vdW  Elec       q    Type
                         _______ _______ _______ _____ _____    ______ ____

>  <TORSDO>
F 13

$$$$
=
 OpenBabel11062420293D

 53 59  0  0  1  0  0  0  0  0999 V2000
  193.4590  175.0830  145.1360 C   0  0  1  0  0  3  0  0  0  0  0  0
  194.0210  172.9170  146.0190 O   0  0  0  0  0  1  0  0  0  0  0  0
  194.3080  173.7980  144.9670 C   0  0  2  0  0  0  0  0  0  0  0  0
  195.8000  174.1390  145.0060 C   0  0  0  0  0  1  0  0  0  0  0  0
  193.9690  173.1620  143.7260 O   0  0  0  0  0  0  0  0  0  0  0  0
  191.7470  172.4920  144.3270 C   0  0  0  0  0  3  0  0  0  0  0  0
  189.9440  172.5060  142.6750 N   0  0  1  0  0  0  0  0  0  0  0  0
  190.7560  169.5500  140.2630 C   0  0  0  0  0  2  0  0  0  0  0  0
  192.4110  170.7530  141.8570 C   0  0  1  0  0  3  0  0  0  0  0  0
  189.6840  170.5730  138.5730 C   0  0  1  0  0  3  0  0  0  0  0  0
  189.3250  173.9920  140.0140 C   0  0  0  0  0  2  0  0  0  0  0  0
  189.4230  172.0480  138.2370 C   0  0  2  0  0  3  0  0  0  0  0  0
  190.4420  171.8900  143.9140 C   0  0  2  0  0  3  0  0  0  0  0  0
  190.5760  172.7160  137.8160 O   0  0  0  0  0  1  0  0  0  0  0  0
  192.7030  172.6500  143.4020 C   0  0  0  0  0  0  0  0  0  0  0  0
  192.4050  172.2650  141.9750 C   0  0  2  0  0  3  0  0  0  0  0  0
  188.6620  172.7680  139.3610 C   0  0  0  0  0  2  0  0  0  0  0  0
  190.9610  170.3130  141.5840 C   0  0  1  0  0  3  0  0  0  0  0  0
  189.5900  169.8060  137.4130 O   0  0  0  0  0  1  0  0  0  0  0  0
  190.7470  173.7820  140.5630 C   0  0  0  0  0  2  0  0  0  0  0  0
  190.9720  172.6780  141.6090 C   0  0  2  0  0  0  0  0  0  0  0  0
  189.4650  172.0650  144.9680 N   0  0  0  0  0  1  0  0  0  0  0  0
  190.9510  170.3880  139.1480 O   0  0  0  0  0  0  0  0  0  0  0  0
  190.0540  171.5490  141.5280 C   0  0  2  0  0  3  0  0  0  0  0  0
  193.5030  170.2080  140.9220 C   0  0  2  0  0  3  0  0  0  0  0  0
  194.5920  169.5150  141.7160 C   0  0  0  0  0  1  0  0  0  0  0  0
  194.0630  171.2260  140.1440 O   0  0  0  0  0  1  0  0  0  0  0  0
  193.7640  176.9370  146.6790 O   0  0  0  0  0  1  0  0  0  0  0  0
  192.3200  175.2650  147.2640 F   0  0  0  0  0  0  0  0  0  0  0  0
  193.4930  175.5690  146.5970 C   0  0  1  0  0  3  0  0  0  0  0  0
  195.1500  176.1620  143.7600 O   0  0  0  0  0  1  0  0  0  0  0  0
  193.7970  176.1970  144.1020 C   0  0  1  0  0  3  0  0  0  0  0  0
  193.8260  175.8590  141.6020 C   0  0  0  0  0  1  0  0  0  0  0  0
  192.9700  176.1790  142.8110 C   0  0  2  0  0  3  0  0  0  0  0  0
  192.2360  177.4210  142.6010 N   0  0  0  0  0  2  0  0  0  0  0  0
  191.3130  177.5250  143.5880 O   0  0  0  0  0  0  0  0  0  0  0  0
  188.1500  175.4790  143.6190 C   0  0  0  0  0  2  0  0  0  0  0  0
  190.1850  176.8700  143.0890 C   0  0  2  0  0  3  0  0  0  0  0  0
  187.5250  176.1230  142.4040 C   0  0  0  0  0  3  0  0  0  0  0  0
  189.3780  177.7850  142.1740 C   0  0  0  0  0  2  0  0  0  0  0  0
  188.0960  177.1330  141.7290 C   0  0  0  0  0  3  0  0  0  0  0  0
  189.3120  176.2860  144.2140 C   0  0  1  0  0  3  0  0  0  0  0  0
  189.8080  177.4560  146.4680 C   0  0  0  0  0  1  0  0  0  0  0  0
  188.8310  177.2540  145.3160 C   0  0  2  0  0  3  0  0  0  0  0  0
  187.3950  176.9730  145.7810 C   0  0  1  0  0  3  0  0  0  0  0  0
  187.3590  176.0800  146.8550 O   0  0  0  0  0  1  0  0  0  0  0  0
  185.9490  178.8080  144.8820 C   0  0  0  0  0  0  0  0  0  0  0  0
  186.6280  178.2730  146.0760 C   0  0  1  0  0  3  0  0  0  0  0  0
  184.3520  177.2360  146.7180 C   0  0  0  0  0  2  0  0  0  0  0  0
  185.4950  178.1530  147.1280 C   0  0  2  0  0  3  0  0  0  0  0  0
  184.6060  179.0170  145.1060 O   0  0  0  0  0  0  0  0  0  0  0  0
  184.2380  178.7240  146.4490 C   0  0  1  0  0  3  0  0  0  0  0  0
  186.5130  179.0620  143.7830 O   0  0  0  0  0  0  0  0  0  0  0  0
  1 32  1  6  0  0  0
  1 30  1  0  0  0  0
  3  4  1  1  0  0  0
  3  1  1  0  0  0  0
  3  2  1  0  0  0  0
  5  3  1  0  0  0  0
  7 13  1  0  0  0  0
  8 18  1  0  0  0  0
  9 16  1  0  0  0  0
 10 23  1  0  0  0  0
 11 20  1  0  0  0  0
 12 10  1  0  0  0  0
 12 17  1  0  0  0  0
 13  6  1  0  0  0  0
 13 22  1  0  0  0  0
 14 12  1  0  0  0  0
 15  5  1  0  0  0  0
 15  6  2  0  0  0  0
 16 15  1  0  0  0  0
 17 11  1  0  0  0  0
 18  9  1  0  0  0  0
 19 10  1  0  0  0  0
 20 21  1  0  0  0  0
 21 16  1  0  0  0  0
 21  7  1  0  0  0  0
 23  8  1  0  0  0  0
 24 18  1  0  0  0  0
 24 21  1  0  0  0  0
 24  7  1  0  0  0  0
 25 26  1  0  0  0  0
 25  9  1  0  0  0  0
 27 25  1  0  0  0  0
 30 28  1  0  0  0  0
 30 29  1  0  0  0  0
 31 32  1  0  0  0  0
 33 34  1  0  0  0  0
 34 32  1  0  0  0  0
 35 34  1  0  0  0  0
 35 36  1  0  0  0  0
 37 42  1  0  0  0  0
 38 36  1  0  0  0  0
 38 42  1  0  0  0  0
 39 37  1  0  0  0  0
 40 38  1  0  0  0  0
 41 40  1  0  0  0  0
 41 39  2  0  0  0  0
 42 44  1  0  0  0  0
 44 45  1  0  0  0  0
 44 43  1  0  0  0  0
 45 48  1  0  0  0  0
 45 46  1  0  0  0  0
 47 51  1  0  0  0  0
 47 48  1  0  0  0  0
 48 50  1  0  0  0  0
 49 50  1  0  0  0  0
 51 52  1  0  0  0  0
 52 49  1  0  0  0  0
 52 50  1  0  0  0  0
 53 47  2  0  0  0  0
M  END
>  <MODEL>
2

>  <REMARK>
 VINA RESULT:      -7.3      1.560      2.038
  Name = 
  13 active torsions:
  status: ('A' for Active; 'I' for Inactive)
    1  A    between atoms: C_3  and  C_5
    2  A    between atoms: C_8  and  C_12
    3  A    between atoms: C_8  and  C_46
    4  A    between atoms: N_11  and  O_18
    5  A    between atoms: N_11  and  C_37
    6  A    between atoms: O_17  and  C_19
    7  A    between atoms: O_17  and  C_28
    8  A    between atoms: O_18  and  C_23
    9  A    between atoms: C_19  and  C_39
   10  A    between atoms: C_31  and  C_39
   11  A    between atoms: C_37  and  C_45
   12  A    between atoms: C_39  and  C_45
   13  A    between atoms: C_44  and  C_46
                            x       y       z     vdW  Elec       q    Type
                         _______ _______ _______ _____ _____    ______ ____

>  <TORSDO>
F 13

$$$$
=
 OpenBabel11062420293D

 53 59  0  0  1  0  0  0  0  0999 V2000
  190.4390  171.7820  139.2320 C   0  0  1  0  0  3  0  0  0  0  0  0
  191.6820  173.8360  139.0860 O   0  0  0  0  0  1  0  0  0  0  0  0
  191.7580  172.4680  138.7960 C   0  0  2  0  0  0  0  0  0  0  0  0
  191.9700  172.2960  137.2880 C   0  0  0  0  0  1  0  0  0  0  0  0
  192.8550  171.9000  139.5260 O   0  0  0  0  0  0  0  0  0  0  0  0
  194.7840  173.2870  139.2110 C   0  0  0  0  0  3  0  0  0  0  0  0
  195.5680  174.7680  140.9930 N   0  0  1  0  0  0  0  0  0  0  0  0
  197.0590  172.3910  143.7040 C   0  0  0  0  0  2  0  0  0  0  0  0
  195.3860  171.7510  141.8270 C   0  0  1  0  0  3  0  0  0  0  0  0
  196.6050  173.8800  145.3250 C   0  0  1  0  0  3  0  0  0  0  0  0
  194.3270  176.1770  143.4720 C   0  0  0  0  0  2  0  0  0  0  0  0
  195.5330  174.9680  145.4800 C   0  0  2  0  0  3  0  0  0  0  0  0
  195.9620  173.9880  139.8110 C   0  0  2  0  0  3  0  0  0  0  0  0
  194.2600  174.4390  145.7080 O   0  0  0  0  0  1  0  0  0  0  0  0
  193.9530  172.6210  140.0220 C   0  0  0  0  0  0  0  0  0  0  0  0
  194.2060  172.6490  141.5080 C   0  0  2  0  0  3  0  0  0  0  0  0
  195.5850  175.9950  144.3380 C   0  0  0  0  0  2  0  0  0  0  0  0
  196.5420  172.6630  142.2790 C   0  0  1  0  0  3  0  0  0  0  0  0
  197.0860  173.5160  146.5810 O   0  0  0  0  0  1  0  0  0  0  0  0
  193.7480  174.9000  142.8380 C   0  0  0  0  0  2  0  0  0  0  0  0
  194.6590  174.0540  141.9350 C   0  0  2  0  0  0  0  0  0  0  0  0
  196.5630  174.8660  138.8290 N   0  0  0  0  0  1  0  0  0  0  0  0
  196.1010  172.7440  144.6740 O   0  0  0  0  0  0  0  0  0  0  0  0
  196.0820  174.1260  142.2440 C   0  0  2  0  0  3  0  0  0  0  0  0
  195.0310  170.5600  142.7320 C   0  0  2  0  0  3  0  0  0  0  0  0
  194.9730  169.2760  141.9280 C   0  0  0  0  0  1  0  0  0  0  0  0
  193.8110  170.7610  143.3860 O   0  0  0  0  0  1  0  0  0  0  0  0
  191.1600  169.4620  139.1440 O   0  0  0  0  0  1  0  0  0  0  0  0
  191.6480  170.6790  141.0160 F   0  0  0  0  0  0  0  0  0  0  0  0
  190.7310  170.4790  140.0000 C   0  0  1  0  0  3  0  0  0  0  0  0
  188.1580  172.5910  139.4740 O   0  0  0  0  0  1  0  0  0  0  0  0
  189.4540  172.7330  139.9730 C   0  0  1  0  0  3  0  0  0  0  0  0
  187.9830  172.6100  142.0190 C   0  0  0  0  0  1  0  0  0  0  0  0
  189.4060  172.5830  141.4990 C   0  0  2  0  0  3  0  0  0  0  0  0
  190.2170  173.5820  142.1840 N   0  0  0  0  0  2  0  0  0  0  0  0
  189.6890  174.8000  141.9090 O   0  0  0  0  0  0  0  0  0  0  0  0
  189.9510  177.8050  144.1650 C   0  0  0  0  0  2  0  0  0  0  0  0
  190.2070  175.6420  142.8960 C   0  0  2  0  0  3  0  0  0  0  0  0
  190.6550  177.0990  145.3010 C   0  0  0  0  0  3  0  0  0  0  0  0
  190.4970  174.8700  144.1790 C   0  0  0  0  0  2  0  0  0  0  0  0
  190.9380  175.7860  145.2890 C   0  0  0  0  0  3  0  0  0  0  0  0
  189.2910  176.8500  143.1610 C   0  0  1  0  0  3  0  0  0  0  0  0
  186.9280  176.1680  142.3560 C   0  0  0  0  0  1  0  0  0  0  0  0
  187.8200  176.5610  143.5280 C   0  0  2  0  0  3  0  0  0  0  0  0
  187.1990  177.6390  144.4270 C   0  0  1  0  0  3  0  0  0  0  0  0
  186.6520  178.6880  143.6830 O   0  0  0  0  0  1  0  0  0  0  0  0
  186.8180  176.6660  146.7020 C   0  0  0  0  0  0  0  0  0  0  0  0
  186.1900  177.0400  145.4220 C   0  0  1  0  0  3  0  0  0  0  0  0
  185.4630  179.2240  146.5900 C   0  0  0  0  0  2  0  0  0  0  0  0
  185.0260  177.9770  145.8360 C   0  0  2  0  0  3  0  0  0  0  0  0
  186.1770  177.2440  147.7760 O   0  0  0  0  0  0  0  0  0  0  0  0
  185.0390  177.9970  147.3740 C   0  0  1  0  0  3  0  0  0  0  0  0
  187.8140  175.9020  146.8220 O   0  0  0  0  0  0  0  0  0  0  0  0
  1 32  1  1  0  0  0
  1 30  1  0  0  0  0
  3  4  1  6  0  0  0
  3  2  1  0  0  0  0
  3  1  1  0  0  0  0
  3  5  1  0  0  0  0
  5 15  1  0  0  0  0
  6 13  1  0  0  0  0
  6 15  2  0  0  0  0
  7 21  1  0  0  0  0
  7 24  1  0  0  0  0
  8 23  1  0  0  0  0
  9 18  1  0  0  0  0
  9 25  1  0  0  0  0
 10 12  1  0  0  0  0
 10 19  1  0  0  0  0
 11 17  1  0  0  0  0
 12 14  1  0  0  0  0
 13  7  1  0  0  0  0
 15 16  1  0  0  0  0
 16  9  1  0  0  0  0
 16 21  1  0  0  0  0
 17 12  1  0  0  0  0
 18  8  1  0  0  0  0
 20 11  1  0  0  0  0
 21 24  1  0  0  0  0
 21 20  1  0  0  0  0
 22 13  1  0  0  0  0
 23 10  1  0  0  0  0
 24 18  1  0  0  0  0
 25 27  1  0  0  0  0
 26 25  1  0  0  0  0
 28 30  1  0  0  0  0
 30 29  1  0  0  0  0
 31 32  1  0  0  0  0
 32 34  1  0  0  0  0
 34 33  1  0  0  0  0
 34 35  1  0  0  0  0
 36 35  1  0  0  0  0
 36 38  1  0  0  0  0
 37 39  1  0  0  0  0
 38 42  1  0  0  0  0
 38 40  1  0  0  0  0
 40 41  1  0  0  0  0
 41 39  2  0  0  0  0
 42 44  1  0  0  0  0
 42 37  1  0  0  0  0
 43 44  1  0  0  0  0
 44 45  1  0  0  0  0
 45 48  1  0  0  0  0
 46 45  1  0  0  0  0
 47 53  2  0  0  0  0
 47 51  1  0  0  0  0
 48 50  1  0  0  0  0
 48 47  1  0  0  0  0
 49 52  1  0  0  0  0
 50 49  1  0  0  0  0
 50 52  1  0  0  0  0
 52 51  1  0  0  0  0
M  END
>  <MODEL>
3

>  <REMARK>
 VINA RESULT:      -7.1      2.309      6.126
  Name = 
  13 active torsions:
  status: ('A' for Active; 'I' for Inactive)
    1  A    between atoms: C_3  and  C_5
    2  A    between atoms: C_8  and  C_12
    3  A    between atoms: C_8  and  C_46
    4  A    between atoms: N_11  and  O_18
    5  A    between atoms: N_11  and  C_37
    6  A    between atoms: O_17  and  C_19
    7  A    between atoms: O_17  and  C_28
    8  A    between atoms: O_18  and  C_23
    9  A    between atoms: C_19  and  C_39
   10  A    between atoms: C_31  and  C_39
   11  A    between atoms: C_37  and  C_45
   12  A    between atoms: C_39  and  C_45
   13  A    between atoms: C_44  and  C_46
                            x       y       z     vdW  Elec       q    Type
                         _______ _______ _______ _____ _____    ______ ____

>  <TORSDO>
F 13

$$$$
=
 OpenBabel11062420293D

 53 59  0  0  1  0  0  0  0  0999 V2000
  194.4470  173.4650  145.1720 C   0  0  1  0  0  3  0  0  0  0  0  0
  193.1210  171.4720  144.9330 O   0  0  0  0  0  1  0  0  0  0  0  0
  194.3270  172.0610  144.5290 C   0  0  2  0  0  0  0  0  0  0  0  0
  195.4860  171.1690  144.9850 C   0  0  0  0  0  1  0  0  0  0  0  0
  194.3230  172.1890  143.1000 O   0  0  0  0  0  0  0  0  0  0  0  0
  193.1440  170.3090  142.1950 C   0  0  0  0  0  3  0  0  0  0  0  0
  190.8990  170.5680  141.2600 N   0  0  1  0  0  0  0  0  0  0  0  0
  191.4100  172.5300  137.9270 C   0  0  0  0  0  2  0  0  0  0  0  0
  193.0590  172.4080  139.9260 C   0  0  1  0  0  3  0  0  0  0  0  0
  189.3410  173.3970  138.0660 C   0  0  1  0  0  3  0  0  0  0  0  0
  188.5210  172.5420  141.6000 C   0  0  0  0  0  2  0  0  0  0  0  0
  188.4200  173.7280  139.2490 C   0  0  2  0  0  3  0  0  0  0  0  0
  192.1420  169.7830  141.2170 C   0  0  2  0  0  3  0  0  0  0  0  0
  188.8580  174.8380  139.9760 O   0  0  0  0  0  1  0  0  0  0  0  0
  193.3630  171.6290  142.2430 C   0  0  0  0  0  0  0  0  0  0  0  0
  192.5530  172.5340  141.3500 C   0  0  2  0  0  3  0  0  0  0  0  0
  188.1280  172.4930  140.1150 C   0  0  0  0  0  2  0  0  0  0  0  0
  191.9540  171.7100  139.1110 C   0  0  1  0  0  3  0  0  0  0  0  0
  188.9660  174.1520  136.9560 O   0  0  0  0  0  1  0  0  0  0  0  0
  189.9840  172.9080  141.9050 C   0  0  0  0  0  2  0  0  0  0  0  0
  191.0970  172.0450  141.2910 C   0  0  2  0  0  0  0  0  0  0  0  0
  191.8490  168.3960  141.5120 N   0  0  0  0  0  1  0  0  0  0  0  0
  190.6870  173.6550  138.3680 O   0  0  0  0  0  0  0  0  0  0  0  0
  190.7610  171.4050  140.0260 C   0  0  2  0  0  3  0  0  0  0  0  0
  193.6380  173.7130  139.3570 C   0  0  2  0  0  3  0  0  0  0  0  0
  195.1330  173.5850  139.1380 C   0  0  0  0  0  1  0  0  0  0  0  0
  193.3770  174.7990  140.1990 O   0  0  0  0  0  1  0  0  0  0  0  0
  196.1800  174.7280  144.0280 O   0  0  0  0  0  1  0  0  0  0  0  0
  196.2350  174.6340  146.3100 F   0  0  0  0  0  0  0  0  0  0  0  0
  195.9100  173.9480  145.1550 C   0  0  1  0  0  3  0  0  0  0  0  0
  192.1470  173.9840  144.5790 O   0  0  0  0  0  1  0  0  0  0  0  0
  193.4410  174.5050  144.5980 C   0  0  1  0  0  3  0  0  0  0  0  0
  192.7320  175.7650  146.6660 C   0  0  0  0  0  1  0  0  0  0  0  0
  193.4070  175.8620  145.3120 C   0  0  2  0  0  3  0  0  0  0  0  0
  192.7820  176.9020  144.5040 N   0  0  0  0  0  2  0  0  0  0  0  0
  191.5680  177.1690  145.0450 O   0  0  0  0  0  0  0  0  0  0  0  0
  188.4090  175.9860  143.3670 C   0  0  0  0  0  2  0  0  0  0  0  0
  190.6590  176.9220  144.0130 C   0  0  2  0  0  3  0  0  0  0  0  0
  188.4290  176.9970  142.2440 C   0  0  0  0  0  3  0  0  0  0  0  0
  190.4320  178.1730  143.1700 C   0  0  0  0  0  2  0  0  0  0  0  0
  189.3640  177.9550  142.1330 C   0  0  0  0  0  3  0  0  0  0  0  0
  189.3310  176.3490  144.5390 C   0  0  1  0  0  3  0  0  0  0  0  0
  189.2040  177.0910  147.0150 C   0  0  0  0  0  1  0  0  0  0  0  0
  188.5870  177.1590  145.6230 C   0  0  2  0  0  3  0  0  0  0  0  0
  187.0710  176.9190  145.6210 C   0  0  1  0  0  3  0  0  0  0  0  0
  186.6120  176.4570  146.8570 O   0  0  0  0  0  1  0  0  0  0  0  0
  185.1750  177.8110  144.2510 C   0  0  0  0  0  0  0  0  0  0  0  0
  186.2990  178.1590  145.1380 C   0  0  1  0  0  3  0  0  0  0  0  0
  184.5590  178.2910  147.0400 C   0  0  0  0  0  2  0  0  0  0  0  0
  185.6440  179.0120  146.2540 C   0  0  2  0  0  3  0  0  0  0  0  0
  183.9860  178.3480  144.6930 O   0  0  0  0  0  0  0  0  0  0  0  0
  184.1650  179.1510  145.8550 C   0  0  1  0  0  3  0  0  0  0  0  0
  185.2700  177.1170  143.2010 O   0  0  0  0  0  0  0  0  0  0  0  0
  1 32  1  6  0  0  0
  3  2  1  0  0  0  0
  3  4  1  1  0  0  0
  3  1  1  0  0  0  0
  5  3  1  0  0  0  0
  6 15  2  0  0  0  0
  7 21  1  0  0  0  0
  8 23  1  0  0  0  0
  8 18  1  0  0  0  0
  9 16  1  0  0  0  0
 10 23  1  0  0  0  0
 10 12  1  0  0  0  0
 11 20  1  0  0  0  0
 12 14  1  0  0  0  0
 12 17  1  0  0  0  0
 13  7  1  0  0  0  0
 13 22  1  0  0  0  0
 13  6  1  0  0  0  0
 15  5  1  0  0  0  0
 16 15  1  0  0  0  0
 17 11  1  0  0  0  0
 18  9  1  0  0  0  0
 18 24  1  0  0  0  0
 19 10  1  0  0  0  0
 21 16  1  0  0  0  0
 21 20  1  0  0  0  0
 24  7  1  0  0  0  0
 24 21  1  0  0  0  0
 25  9  1  0  0  0  0
 25 27  1  0  0  0  0
 26 25  1  0  0  0  0
 28 30  1  0  0  0  0
 30  1  1  0  0  0  0
 30 29  1  0  0  0  0
 31 32  1  0  0  0  0
 32 34  1  0  0  0  0
 34 33  1  0  0  0  0
 35 36  1  0  0  0  0
 35 34  1  0  0  0  0
 37 42  1  0  0  0  0
 38 42  1  0  0  0  0
 38 36  1  0  0  0  0
 39 37  1  0  0  0  0
 40 38  1  0  0  0  0
 41 39  2  0  0  0  0
 41 40  1  0  0  0  0
 42 44  1  0  0  0  0
 44 43  1  0  0  0  0
 45 44  1  0  0  0  0
 45 46  1  0  0  0  0
 47 51  1  0  0  0  0
 47 48  1  0  0  0  0
 48 45  1  0  0  0  0
 48 50  1  0  0  0  0
 50 49  1  0  0  0  0
 51 52  1  0  0  0  0
 52 50  1  0  0  0  0
 52 49  1  0  0  0  0
 53 47  2  0  0  0  0
M  END
>  <MODEL>
4

>  <REMARK>
 VINA RESULT:      -7.0      1.893      2.388
  Name = 
  13 active torsions:
  status: ('A' for Active; 'I' for Inactive)
    1  A    between atoms: C_3  and  C_5
    2  A    between atoms: C_8  and  C_12
    3  A    between atoms: C_8  and  C_46
    4  A    between atoms: N_11  and  O_18
    5  A    between atoms: N_11  and  C_37
    6  A    between atoms: O_17  and  C_19
    7  A    between atoms: O_17  and  C_28
    8  A    between atoms: O_18  and  C_23
    9  A    between atoms: C_19  and  C_39
   10  A    between atoms: C_31  and  C_39
   11  A    between atoms: C_37  and  C_45
   12  A    between atoms: C_39  and  C_45
   13  A    between atoms: C_44  and  C_46
                            x       y       z     vdW  Elec       q    Type
                         _______ _______ _______ _____ _____    ______ ____

>  <TORSDO>
F 13

$$$$
=
 OpenBabel11062420293D

 53 59  0  0  1  0  0  0  0  0999 V2000
  189.8410  172.3800  140.9630 C   0  0  1  0  0  3  0  0  0  0  0  0
  188.7570  171.9540  143.0670 O   0  0  0  0  0  1  0  0  0  0  0  0
  189.0620  172.9780  142.1610 C   0  0  2  0  0  0  0  0  0  0  0  0
  187.7550  173.6140  141.6790 C   0  0  0  0  0  1  0  0  0  0  0  0
  189.8810  173.9530  142.8240 O   0  0  0  0  0  0  0  0  0  0  0  0
  189.8770  176.3100  142.3910 C   0  0  0  0  0  3  0  0  0  0  0  0
  188.0250  177.7200  143.1410 N   0  0  1  0  0  0  0  0  0  0  0  0
  188.3910  177.8930  147.0220 C   0  0  0  0  0  2  0  0  0  0  0  0
  189.4180  176.1090  145.4420 C   0  0  1  0  0  3  0  0  0  0  0  0
  186.1810  178.2220  147.2620 C   0  0  1  0  0  3  0  0  0  0  0  0
  185.0200  177.3260  143.8350 C   0  0  0  0  0  2  0  0  0  0  0  0
  184.9620  177.8080  146.4250 C   0  0  2  0  0  3  0  0  0  0  0  0
  189.4570  177.6830  142.8110 C   0  0  2  0  0  3  0  0  0  0  0  0
  184.6950  176.4390  146.5050 O   0  0  0  0  0  1  0  0  0  0  0  0
  189.4850  175.2650  143.1290 C   0  0  0  0  0  0  0  0  0  0  0  0
  188.5940  175.5080  144.3200 C   0  0  2  0  0  3  0  0  0  0  0  0
  185.0420  178.3430  144.9870 C   0  0  0  0  0  2  0  0  0  0  0  0
  188.9460  177.5640  145.6230 C   0  0  1  0  0  3  0  0  0  0  0  0
  185.7830  178.4740  148.5740 O   0  0  0  0  0  1  0  0  0  0  0  0
  186.0660  176.1990  143.9030 C   0  0  0  0  0  2  0  0  0  0  0  0
  187.5510  176.5840  143.9830 C   0  0  2  0  0  0  0  0  0  0  0  0
  189.7340  178.6280  141.7500 N   0  0  0  0  0  1  0  0  0  0  0  0
  187.1720  177.2290  147.2600 O   0  0  0  0  0  0  0  0  0  0  0  0
  187.8280  177.8660  144.6190 C   0  0  2  0  0  3  0  0  0  0  0  0
  189.4900  175.2280  146.7000 C   0  0  2  0  0  3  0  0  0  0  0  0
  190.8120  175.4220  147.4150 C   0  0  0  0  0  1  0  0  0  0  0  0
  189.3180  173.8760  146.3870 O   0  0  0  0  0  1  0  0  0  0  0  0
  189.9750  173.8560  139.0350 O   0  0  0  0  0  1  0  0  0  0  0  0
  189.0550  171.7830  138.7520 F   0  0  0  0  0  0  0  0  0  0  0  0
  189.2220  172.8400  139.6280 C   0  0  1  0  0  3  0  0  0  0  0  0
  191.9180  171.9370  142.1470 O   0  0  0  0  0  1  0  0  0  0  0  0
  191.3800  172.6000  141.0430 C   0  0  1  0  0  3  0  0  0  0  0  0
  192.4310  170.6980  139.7610 C   0  0  0  0  0  1  0  0  0  0  0  0
  192.1760  172.1910  139.7970 C   0  0  2  0  0  3  0  0  0  0  0  0
  193.4290  172.9260  139.6700 N   0  0  0  0  0  2  0  0  0  0  0  0
  193.2350  174.1630  140.1890 O   0  0  0  0  0  0  0  0  0  0  0  0
  196.0190  176.4360  141.3160 C   0  0  0  0  0  2  0  0  0  0  0  0
  194.5090  174.7340  140.2310 C   0  0  2  0  0  3  0  0  0  0  0  0
  197.1500  175.4960  140.9710 C   0  0  0  0  0  3  0  0  0  0  0  0
  195.5900  173.6600  140.3060 C   0  0  0  0  0  2  0  0  0  0  0  0
  196.9580  174.2620  140.4770 C   0  0  0  0  0  3  0  0  0  0  0  0
  194.6460  175.7520  141.3780 C   0  0  1  0  0  3  0  0  0  0  0  0
  193.1390  175.9750  143.4680 C   0  0  0  0  0  1  0  0  0  0  0  0
  194.3120  175.2650  142.8040 C   0  0  2  0  0  3  0  0  0  0  0  0
  195.5480  175.1590  143.7100 C   0  0  1  0  0  3  0  0  0  0  0  0
  195.3680  175.8350  144.9190 O   0  0  0  0  0  1  0  0  0  0  0  0
  196.8530  173.5280  145.0900 C   0  0  0  0  0  0  0  0  0  0  0  0
  195.9780  173.6970  143.9150 C   0  0  1  0  0  3  0  0  0  0  0  0
  194.0380  172.9390  145.4420 C   0  0  0  0  0  2  0  0  0  0  0  0
  194.8240  172.6910  144.1630 C   0  0  2  0  0  3  0  0  0  0  0  0
  196.3710  172.5730  145.9570 O   0  0  0  0  0  0  0  0  0  0  0  0
  195.1900  171.9520  145.4610 C   0  0  1  0  0  3  0  0  0  0  0  0
  197.9240  174.1640  145.2900 O   0  0  0  0  0  0  0  0  0  0  0  0
  1 30  1  6  0  0  0
  1 32  1  0  0  0  0
  1  3  1  0  0  0  0
  3  4  1  6  0  0  0
  3  5  1  0  0  0  0
  3  2  1  0  0  0  0
  5 15  1  0  0  0  0
  6 13  1  0  0  0  0
  6 15  2  0  0  0  0
  7 21  1  0  0  0  0
  7 24  1  0  0  0  0
  8 23  1  0  0  0  0
  9 18  1  0  0  0  0
  9 25  1  0  0  0  0
 10 19  1  0  0  0  0
 11 20  1  0  0  0  0
 11 17  1  0  0  0  0
 12 14  1  0  0  0  0
 12 10  1  0  0  0  0
 13  7  1  0  0  0  0
 15 16  1  0  0  0  0
 16  9  1  0  0  0  0
 17 12  1  0  0  0  0
 18  8  1  0  0  0  0
 20 21  1  0  0  0  0
 21 16  1  0  0  0  0
 21 24  1  0  0  0  0
 22 13  1  0  0  0  0
 23 10  1  0  0  0  0
 24 18  1  0  0  0  0
 25 26  1  0  0  0  0
 27 25  1  0  0  0  0
 28 30  1  0  0  0  0
 29 30  1  0  0  0  0
 32 31  1  0  0  0  0
 33 34  1  0  0  0  0
 34 32  1  0  0  0  0
 35 34  1  0  0  0  0
 35 36  1  0  0  0  0
 36 38  1  0  0  0  0
 37 42  1  0  0  0  0
 38 40  1  0  0  0  0
 38 42  1  0  0  0  0
 39 37  1  0  0  0  0
 40 41  1  0  0  0  0
 41 39  2  0  0  0  0
 42 44  1  0  0  0  0
 44 43  1  0  0  0  0
 44 45  1  0  0  0  0
 45 48  1  0  0  0  0
 45 46  1  0  0  0  0
 47 53  2  0  0  0  0
 47 51  1  0  0  0  0
 48 50  1  0  0  0  0
 48 47  1  0  0  0  0
 49 52  1  0  0  0  0
 50 49  1  0  0  0  0
 50 52  1  0  0  0  0
 52 51  1  0  0  0  0
M  END
>  <MODEL>
5

>  <REMARK>
 VINA RESULT:      -6.9      2.608      8.660
  Name = 
  13 active torsions:
  status: ('A' for Active; 'I' for Inactive)
    1  A    between atoms: C_3  and  C_5
    2  A    between atoms: C_8  and  C_12
    3  A    between atoms: C_8  and  C_46
    4  A    between atoms: N_11  and  O_18
    5  A    between atoms: N_11  and  C_37
    6  A    between atoms: O_17  and  C_19
    7  A    between atoms: O_17  and  C_28
    8  A    between atoms: O_18  and  C_23
    9  A    between atoms: C_19  and  C_39
   10  A    between atoms: C_31  and  C_39
   11  A    between atoms: C_37  and  C_45
   12  A    between atoms: C_39  and  C_45
   13  A    between atoms: C_44  and  C_46
                            x       y       z     vdW  Elec       q    Type
                         _______ _______ _______ _____ _____    ______ ____

>  <TORSDO>
F 13

$$$$
=
 OpenBabel11062420293D

 53 59  0  0  1  0  0  0  0  0999 V2000
  189.9660  172.0960  141.3270 C   0  0  1  0  0  3  0  0  0  0  0  0
  188.2120  172.3620  142.9510 O   0  0  0  0  0  1  0  0  0  0  0  0
  189.0620  173.0850  142.1030 C   0  0  2  0  0  0  0  0  0  0  0  0
  188.2060  173.8970  141.1270 C   0  0  0  0  0  1  0  0  0  0  0  0
  189.8790  173.9550  142.9000 O   0  0  0  0  0  0  0  0  0  0  0  0
  190.0320  176.3230  142.5610 C   0  0  0  0  0  3  0  0  0  0  0  0
  188.2430  177.8140  143.3080 N   0  0  1  0  0  0  0  0  0  0  0  0
  188.4870  177.8180  147.2010 C   0  0  0  0  0  2  0  0  0  0  0  0
  189.4580  176.0350  145.5860 C   0  0  1  0  0  3  0  0  0  0  0  0
  186.2940  178.2730  147.3850 C   0  0  1  0  0  3  0  0  0  0  0  0
  185.1980  177.5790  143.8900 C   0  0  0  0  0  2  0  0  0  0  0  0
  185.0820  177.9670  146.4940 C   0  0  2  0  0  3  0  0  0  0  0  0
  189.6810  177.7020  143.0220 C   0  0  2  0  0  3  0  0  0  0  0  0
  184.7300  176.6150  146.5120 O   0  0  0  0  0  1  0  0  0  0  0  0
  189.5530  175.2760  143.2440 C   0  0  0  0  0  0  0  0  0  0  0  0
  188.6380  175.5290  144.4150 C   0  0  2  0  0  3  0  0  0  0  0  0
  185.2420  178.5500  145.0820 C   0  0  0  0  0  2  0  0  0  0  0  0
  189.0690  177.5080  145.8090 C   0  0  1  0  0  3  0  0  0  0  0  0
  185.8680  178.4990  148.6930 O   0  0  0  0  0  1  0  0  0  0  0  0
  186.1710  176.3890  143.9460 C   0  0  0  0  0  2  0  0  0  0  0  0
  187.6740  176.6790  144.0880 C   0  0  2  0  0  0  0  0  0  0  0  0
  190.0500  178.6680  142.0080 N   0  0  0  0  0  1  0  0  0  0  0  0
  187.2240  177.2210  147.3750 O   0  0  0  0  0  0  0  0  0  0  0  0
  188.0050  177.9170  144.7830 C   0  0  2  0  0  3  0  0  0  0  0  0
  189.4340  175.1050  146.8090 C   0  0  2  0  0  3  0  0  0  0  0  0
  190.6840  175.2890  147.6470 C   0  0  0  0  0  1  0  0  0  0  0  0
  189.3160  173.7640  146.4290 O   0  0  0  0  0  1  0  0  0  0  0  0
  191.4900  173.4150  139.9670 O   0  0  0  0  0  1  0  0  0  0  0  0
  190.4130  171.6520  138.9890 F   0  0  0  0  0  0  0  0  0  0  0  0
  190.3170  172.6560  139.9360 C   0  0  1  0  0  3  0  0  0  0  0  0
  190.8190  171.0700  143.3600 O   0  0  0  0  0  1  0  0  0  0  0  0
  191.2070  171.6150  142.1350 C   0  0  1  0  0  3  0  0  0  0  0  0
  191.5160  169.2160  141.4180 C   0  0  0  0  0  1  0  0  0  0  0  0
  192.1160  170.6070  141.4210 C   0  0  2  0  0  3  0  0  0  0  0  0
  193.4640  170.5790  141.9770 N   0  0  0  0  0  2  0  0  0  0  0  0
  193.8680  171.8630  142.1380 O   0  0  0  0  0  0  0  0  0  0  0  0
  196.8810  172.5310  144.2990 C   0  0  0  0  0  2  0  0  0  0  0  0
  194.6860  171.8370  143.2710 C   0  0  2  0  0  3  0  0  0  0  0  0
  196.1440  172.5210  145.6180 C   0  0  0  0  0  3  0  0  0  0  0  0
  193.9150  172.2630  144.5160 C   0  0  0  0  0  2  0  0  0  0  0  0
  194.8150  172.3580  145.7180 C   0  0  0  0  0  3  0  0  0  0  0  0
  195.9600  172.6810  143.0800 C   0  0  1  0  0  3  0  0  0  0  0  0
  196.4110  174.5470  141.3460 C   0  0  0  0  0  1  0  0  0  0  0  0
  195.7790  174.1600  142.6770 C   0  0  2  0  0  3  0  0  0  0  0  0
  196.1100  175.1390  143.8130 C   0  0  1  0  0  3  0  0  0  0  0  0
  197.3990  175.6640  143.6910 O   0  0  0  0  0  1  0  0  0  0  0  0
  193.6800  175.7310  143.6950 C   0  0  0  0  0  0  0  0  0  0  0  0
  195.0420  176.2380  143.9460 C   0  0  1  0  0  3  0  0  0  0  0  0
  194.5180  175.9580  146.4590 C   0  0  0  0  0  2  0  0  0  0  0  0
  194.9410  176.9030  145.3430 C   0  0  2  0  0  3  0  0  0  0  0  0
  192.8260  176.0200  144.7350 O   0  0  0  0  0  0  0  0  0  0  0  0
  193.4630  176.7860  145.7510 C   0  0  1  0  0  3  0  0  0  0  0  0
  193.3190  175.1170  142.6540 O   0  0  0  0  0  0  0  0  0  0  0  0
  1 30  1  6  0  0  0
  1  3  1  0  0  0  0
  1 32  1  0  0  0  0
  3  4  1  6  0  0  0
  3  5  1  0  0  0  0
  3  2  1  0  0  0  0
  5 15  1  0  0  0  0
  6 13  1  0  0  0  0
  6 15  2  0  0  0  0
  7 21  1  0  0  0  0
  7 24  1  0  0  0  0
  8 23  1  0  0  0  0
  9 18  1  0  0  0  0
  9 25  1  0  0  0  0
 10 19  1  0  0  0  0
 11 20  1  0  0  0  0
 11 17  1  0  0  0  0
 12 14  1  0  0  0  0
 12 10  1  0  0  0  0
 13  7  1  0  0  0  0
 15 16  1  0  0  0  0
 16  9  1  0  0  0  0
 17 12  1  0  0  0  0
 18  8  1  0  0  0  0
 20 21  1  0  0  0  0
 21 16  1  0  0  0  0
 21 24  1  0  0  0  0
 22 13  1  0  0  0  0
 23 10  1  0  0  0  0
 24 18  1  0  0  0  0
 25 26  1  0  0  0  0
 27 25  1  0  0  0  0
 29 30  1  0  0  0  0
 30 28  1  0  0  0  0
 32 31  1  0  0  0  0
 33 34  1  0  0  0  0
 34 35  1  0  0  0  0
 34 32  1  0  0  0  0
 35 36  1  0  0  0  0
 36 38  1  0  0  0  0
 37 39  1  0  0  0  0
 38 40  1  0  0  0  0
 39 41  2  0  0  0  0
 40 41  1  0  0  0  0
 42 38  1  0  0  0  0
 42 37  1  0  0  0  0
 43 44  1  0  0  0  0
 44 42  1  0  0  0  0
 44 45  1  0  0  0  0
 45 48  1  0  0  0  0
 46 45  1  0  0  0  0
 47 48  1  0  0  0  0
 47 51  1  0  0  0  0
 48 50  1  0  0  0  0
 50 52  1  0  0  0  0
 50 49  1  0  0  0  0
 51 52  1  0  0  0  0
 52 49  1  0  0  0  0
 53 47  2  0  0  0  0
M  END
>  <MODEL>
6

>  <REMARK>
 VINA RESULT:      -6.9      2.507      8.337
  Name = 
  13 active torsions:
  status: ('A' for Active; 'I' for Inactive)
    1  A    between atoms: C_3  and  C_5
    2  A    between atoms: C_8  and  C_12
    3  A    between atoms: C_8  and  C_46
    4  A    between atoms: N_11  and  O_18
    5  A    between atoms: N_11  and  C_37
    6  A    between atoms: O_17  and  C_19
    7  A    between atoms: O_17  and  C_28
    8  A    between atoms: O_18  and  C_23
    9  A    between atoms: C_19  and  C_39
   10  A    between atoms: C_31  and  C_39
   11  A    between atoms: C_37  and  C_45
   12  A    between atoms: C_39  and  C_45
   13  A    between atoms: C_44  and  C_46
                            x       y       z     vdW  Elec       q    Type
                         _______ _______ _______ _____ _____    ______ ____

>  <TORSDO>
F 13

$$$$
=
 OpenBabel11062420293D

 53 59  0  0  1  0  0  0  0  0999 V2000
  194.7310  174.5440  144.8410 C   0  0  1  0  0  3  0  0  0  0  0  0
  196.3900  173.3790  146.1350 O   0  0  0  0  0  1  0  0  0  0  0  0
  196.1130  173.8440  144.8430 C   0  0  2  0  0  0  0  0  0  0  0  0
  197.2070  174.8320  144.4300 C   0  0  0  0  0  1  0  0  0  0  0  0
  196.0820  172.7240  143.9460 O   0  0  0  0  0  0  0  0  0  0  0  0
  194.8070  170.7640  144.4740 C   0  0  0  0  0  3  0  0  0  0  0  0
  192.4020  170.6770  144.0350 N   0  0  1  0  0  0  0  0  0  0  0  0
  192.0870  170.4850  140.1510 C   0  0  0  0  0  2  0  0  0  0  0  0
  194.1400  171.3120  141.5040 C   0  0  1  0  0  3  0  0  0  0  0  0
  190.0680  171.4690  140.2200 C   0  0  1  0  0  3  0  0  0  0  0  0
  190.0830  172.7250  143.7300 C   0  0  0  0  0  2  0  0  0  0  0  0
  189.4190  172.4640  141.1930 C   0  0  2  0  0  3  0  0  0  0  0  0
  193.6340  169.8860  144.1710 C   0  0  2  0  0  3  0  0  0  0  0  0
  189.9620  173.7470  141.0910 O   0  0  0  0  0  1  0  0  0  0  0  0
  194.9780  171.8780  143.7510 C   0  0  0  0  0  0  0  0  0  0  0  0
  193.9570  172.2280  142.6990 C   0  0  2  0  0  3  0  0  0  0  0  0
  189.3740  171.9190  142.6280 C   0  0  0  0  0  2  0  0  0  0  0  0
  192.9110  170.3860  141.4490 C   0  0  1  0  0  3  0  0  0  0  0  0
  189.4280  171.5380  138.9840 O   0  0  0  0  0  1  0  0  0  0  0  0
  191.5610  173.0660  143.4770 C   0  0  0  0  0  2  0  0  0  0  0  0
  192.5440  171.9140  143.2170 C   0  0  2  0  0  0  0  0  0  0  0  0
  193.4680  168.9070  145.2250 N   0  0  0  0  0  1  0  0  0  0  0  0
  191.4360  171.7290  140.0480 O   0  0  0  0  0  0  0  0  0  0  0  0
  191.9620  170.7270  142.6050 C   0  0  2  0  0  3  0  0  0  0  0  0
  194.5280  172.0500  140.2130 C   0  0  2  0  0  3  0  0  0  0  0  0
  195.9880  171.8140  139.8790 C   0  0  0  0  0  1  0  0  0  0  0  0
  194.2850  173.4230  140.3150 O   0  0  0  0  0  1  0  0  0  0  0  0
  194.6150  176.2920  146.5270 O   0  0  0  0  0  1  0  0  0  0  0  0
  192.9890  174.6860  146.5160 F   0  0  0  0  0  0  0  0  0  0  0  0
  194.3240  174.9500  146.2700 C   0  0  1  0  0  3  0  0  0  0  0  0
  195.3930  175.4400  142.6790 O   0  0  0  0  0  1  0  0  0  0  0  0
  194.6180  175.7040  143.8090 C   0  0  1  0  0  3  0  0  0  0  0  0
  193.0970  176.1240  141.8400 C   0  0  0  0  0  1  0  0  0  0  0  0
  193.1960  176.0510  143.3510 C   0  0  2  0  0  3  0  0  0  0  0  0
  192.7000  177.2820  143.9540 N   0  0  0  0  0  2  0  0  0  0  0  0
  191.5930  176.9710  144.6730 O   0  0  0  0  0  0  0  0  0  0  0  0
  188.2920  175.8670  143.2340 C   0  0  0  0  0  2  0  0  0  0  0  0
  190.5930  176.7740  143.7170 C   0  0  2  0  0  3  0  0  0  0  0  0
  188.2130  176.9320  142.1650 C   0  0  0  0  0  3  0  0  0  0  0  0
  190.2940  178.0640  142.9610 C   0  0  0  0  0  2  0  0  0  0  0  0
  189.1350  177.8960  142.0160 C   0  0  0  0  0  3  0  0  0  0  0  0
  189.3180  176.1730  144.3340 C   0  0  1  0  0  3  0  0  0  0  0  0
  189.3690  176.7220  146.8610 C   0  0  0  0  0  1  0  0  0  0  0  0
  188.6780  176.9270  145.5190 C   0  0  2  0  0  3  0  0  0  0  0  0
  187.1540  176.7570  145.5900 C   0  0  1  0  0  3  0  0  0  0  0  0
  186.7410  176.2440  146.8220 O   0  0  0  0  0  1  0  0  0  0  0  0
  185.2150  177.8120  144.4070 C   0  0  0  0  0  0  0  0  0  0  0  0
  186.4190  178.0580  145.2220 C   0  0  1  0  0  3  0  0  0  0  0  0
  184.8300  178.1840  147.2540 C   0  0  0  0  0  2  0  0  0  0  0  0
  185.8930  178.8870  146.4230 C   0  0  2  0  0  3  0  0  0  0  0  0
  184.0930  178.3860  144.9610 O   0  0  0  0  0  0  0  0  0  0  0  0
  184.3990  179.1200  146.1420 C   0  0  1  0  0  3  0  0  0  0  0  0
  185.1970  177.1660  143.3230 O   0  0  0  0  0  0  0  0  0  0  0  0
  1 32  1  6  0  0  0
  1  3  1  0  0  0  0
  1 30  1  0  0  0  0
  3  4  1  6  0  0  0
  3  2  1  0  0  0  0
  5  3  1  0  0  0  0
  7 13  1  0  0  0  0
  8 18  1  0  0  0  0
  9 16  1  0  0  0  0
 10 12  1  0  0  0  0
 12 17  1  0  0  0  0
 13  6  1  0  0  0  0
 13 22  1  0  0  0  0
 14 12  1  0  0  0  0
 15  5  1  0  0  0  0
 15  6  2  0  0  0  0
 16 21  1  0  0  0  0
 16 15  1  0  0  0  0
 17 11  1  0  0  0  0
 18  9  1  0  0  0  0
 18 24  1  0  0  0  0
 19 10  1  0  0  0  0
 20 11  1  0  0  0  0
 21 20  1  0  0  0  0
 21  7  1  0  0  0  0
 23  8  1  0  0  0  0
 23 10  1  0  0  0  0
 24 21  1  0  0  0  0
 24  7  1  0  0  0  0
 25 27  1  0  0  0  0
 25  9  1  0  0  0  0
 26 25  1  0  0  0  0
 30 29  1  0  0  0  0
 30 28  1  0  0  0  0
 31 32  1  0  0  0  0
 33 34  1  0  0  0  0
 34 32  1  0  0  0  0
 34 35  1  0  0  0  0
 35 36  1  0  0  0  0
 37 42  1  0  0  0  0
 38 42  1  0  0  0  0
 38 36  1  0  0  0  0
 39 37  1  0  0  0  0
 40 38  1  0  0  0  0
 41 39  2  0  0  0  0
 41 40  1  0  0  0  0
 42 44  1  0  0  0  0
 44 45  1  0  0  0  0
 44 43  1  0  0  0  0
 45 46  1  0  0  0  0
 47 51  1  0  0  0  0
 47 48  1  0  0  0  0
 48 45  1  0  0  0  0
 48 50  1  0  0  0  0
 50 49  1  0  0  0  0
 51 52  1  0  0  0  0
 52 50  1  0  0  0  0
 52 49  1  0  0  0  0
 53 47  2  0  0  0  0
M  END
>  <MODEL>
7

>  <REMARK>
 VINA RESULT:      -6.8      1.882      2.583
  Name = 
  13 active torsions:
  status: ('A' for Active; 'I' for Inactive)
    1  A    between atoms: C_3  and  C_5
    2  A    between atoms: C_8  and  C_12
    3  A    between atoms: C_8  and  C_46
    4  A    between atoms: N_11  and  O_18
    5  A    between atoms: N_11  and  C_37
    6  A    between atoms: O_17  and  C_19
    7  A    between atoms: O_17  and  C_28
    8  A    between atoms: O_18  and  C_23
    9  A    between atoms: C_19  and  C_39
   10  A    between atoms: C_31  and  C_39
   11  A    between atoms: C_37  and  C_45
   12  A    between atoms: C_39  and  C_45
   13  A    between atoms: C_44  and  C_46
                            x       y       z     vdW  Elec       q    Type
                         _______ _______ _______ _____ _____    ______ ____

>  <TORSDO>
F 13

$$$$
=
 OpenBabel11062420293D

 53 59  0  0  1  0  0  0  0  0999 V2000
  189.9890  171.9500  142.0010 C   0  0  1  0  0  3  0  0  0  0  0  0
  190.9280  173.7480  143.2930 O   0  0  0  0  0  1  0  0  0  0  0  0
  189.8180  172.8960  143.2150 C   0  0  2  0  0  0  0  0  0  0  0  0
  189.7300  172.0850  144.5110 C   0  0  0  0  0  1  0  0  0  0  0  0
  188.6370  173.6920  143.0380 O   0  0  0  0  0  0  0  0  0  0  0  0
  188.8110  175.9660  142.3010 C   0  0  0  0  0  3  0  0  0  0  0  0
  187.5420  177.7420  143.4020 N   0  0  1  0  0  0  0  0  0  0  0  0
  189.2340  178.1830  146.8900 C   0  0  0  0  0  2  0  0  0  0  0  0
  189.4010  176.1150  145.3320 C   0  0  1  0  0  3  0  0  0  0  0  0
  187.3080  178.9200  147.7830 C   0  0  1  0  0  3  0  0  0  0  0  0
  184.9310  177.9510  145.0790 C   0  0  0  0  0  2  0  0  0  0  0  0
  185.8310  178.6590  147.4530 C   0  0  2  0  0  3  0  0  0  0  0  0
  188.7550  177.4220  142.6360 C   0  0  2  0  0  3  0  0  0  0  0  0
  185.4210  177.3720  147.8080 O   0  0  0  0  0  1  0  0  0  0  0  0
  188.5540  175.0750  143.2660 C   0  0  0  0  0  0  0  0  0  0  0  0
  188.1680  175.5750  144.6340 C   0  0  2  0  0  3  0  0  0  0  0  0
  185.4870  179.0450  146.0060 C   0  0  0  0  0  2  0  0  0  0  0  0
  189.2260  177.6410  145.4490 C   0  0  1  0  0  3  0  0  0  0  0  0
  187.4220  179.3520  149.1030 O   0  0  0  0  0  1  0  0  0  0  0  0
  185.7710  176.6670  144.9640 C   0  0  0  0  0  2  0  0  0  0  0  0
  187.2320  176.7860  144.5040 C   0  0  2  0  0  0  0  0  0  0  0  0
  188.7800  178.2070  141.4190 N   0  0  0  0  0  1  0  0  0  0  0  0
  188.0910  177.7700  147.6010 O   0  0  0  0  0  0  0  0  0  0  0  0
  187.8840  178.0490  144.8270 C   0  0  2  0  0  3  0  0  0  0  0  0
  189.7760  175.3480  146.6110 C   0  0  2  0  0  3  0  0  0  0  0  0
  191.2220  174.8970  146.5600 C   0  0  0  0  0  1  0  0  0  0  0  0
  188.9440  174.2400  146.8050 O   0  0  0  0  0  1  0  0  0  0  0  0
  188.7900  173.0180  140.1750 O   0  0  0  0  0  1  0  0  0  0  0  0
  190.7740  173.9300  140.8500 F   0  0  0  0  0  0  0  0  0  0  0  0
  190.0620  172.7550  140.6890 C   0  0  1  0  0  3  0  0  0  0  0  0
  190.8630  169.7420  141.4750 O   0  0  0  0  0  1  0  0  0  0  0  0
  191.1460  170.9220  142.1650 C   0  0  1  0  0  3  0  0  0  0  0  0
  193.0800  170.6060  140.5750 C   0  0  0  0  0  1  0  0  0  0  0  0
  192.5360  171.4110  141.7380 C   0  0  2  0  0  3  0  0  0  0  0  0
  193.4880  171.4200  142.8420 N   0  0  0  0  0  2  0  0  0  0  0  0
  194.7290  171.2780  142.3150 O   0  0  0  0  0  0  0  0  0  0  0  0
  197.4840  173.0640  144.1630 C   0  0  0  0  0  2  0  0  0  0  0  0
  195.5970  171.5960  143.3630 C   0  0  2  0  0  3  0  0  0  0  0  0
  196.9130  172.8600  145.5480 C   0  0  0  0  0  3  0  0  0  0  0  0
  194.8340  171.7840  144.6700 C   0  0  0  0  0  2  0  0  0  0  0  0
  195.7410  172.2480  145.7780 C   0  0  0  0  0  3  0  0  0  0  0  0
  196.4690  172.8210  143.0370 C   0  0  1  0  0  3  0  0  0  0  0  0
  196.1450  174.6870  141.2730 C   0  0  0  0  0  1  0  0  0  0  0  0
  195.7440  174.1220  142.6310 C   0  0  2  0  0  3  0  0  0  0  0  0
  195.7280  175.1770  143.7460 C   0  0  1  0  0  3  0  0  0  0  0  0
  196.2800  176.3900  143.3250 O   0  0  0  0  0  1  0  0  0  0  0  0
  194.1790  176.6200  145.0830 C   0  0  0  0  0  0  0  0  0  0  0  0
  194.3210  175.3520  144.3440 C   0  0  1  0  0  3  0  0  0  0  0  0
  193.2080  176.5630  142.3540 C   0  0  0  0  0  2  0  0  0  0  0  0
  193.1600  175.3860  143.3160 C   0  0  2  0  0  3  0  0  0  0  0  0
  193.1060  177.3580  144.6330 O   0  0  0  0  0  0  0  0  0  0  0  0
  192.3780  176.6760  143.6180 C   0  0  1  0  0  3  0  0  0  0  0  0
  194.9300  176.9960  146.0240 O   0  0  0  0  0  0  0  0  0  0  0  0
  1 30  1  6  0  0  0
  1 32  1  0  0  0  0
  1  3  1  0  0  0  0
  3  2  1  0  0  0  0
  3  4  1  1  0  0  0
  5  3  1  0  0  0  0
  5 15  1  0  0  0  0
  6 13  1  0  0  0  0
  6 15  2  0  0  0  0
  7 21  1  0  0  0  0
  7 24  1  0  0  0  0
  8 23  1  0  0  0  0
  9 18  1  0  0  0  0
  9 25  1  0  0  0  0
 10 19  1  0  0  0  0
 11 17  1  0  0  0  0
 12 10  1  0  0  0  0
 12 14  1  0  0  0  0
 13  7  1  0  0  0  0
 15 16  1  0  0  0  0
 16  9  1  0  0  0  0
 17 12  1  0  0  0  0
 18  8  1  0  0  0  0
 20 11  1  0  0  0  0
 21 16  1  0  0  0  0
 21 24  1  0  0  0  0
 21 20  1  0  0  0  0
 22 13  1  0  0  0  0
 23 10  1  0  0  0  0
 24 18  1  0  0  0  0
 25 27  1  0  0  0  0
 26 25  1  0  0  0  0
 28 30  1  0  0  0  0
 30 29  1  0  0  0  0
 31 32  1  0  0  0  0
 33 34  1  0  0  0  0
 34 32  1  0  0  0  0
 34 35  1  0  0  0  0
 36 35  1  0  0  0  0
 36 38  1  0  0  0  0
 37 39  1  0  0  0  0
 38 40  1  0  0  0  0
 39 41  2  0  0  0  0
 40 41  1  0  0  0  0
 42 38  1  0  0  0  0
 42 37  1  0  0  0  0
 43 44  1  0  0  0  0
 44 42  1  0  0  0  0
 44 45  1  0  0  0  0
 45 48  1  0  0  0  0
 46 45  1  0  0  0  0
 47 53  2  0  0  0  0
 48 47  1  0  0  0  0
 49 50  1  0  0  0  0
 49 52  1  0  0  0  0
 50 52  1  0  0  0  0
 50 48  1  0  0  0  0
 51 47  1  0  0  0  0
 52 51  1  0  0  0  0
M  END
>  <MODEL>
8

>  <REMARK>
 VINA RESULT:      -6.8      2.404      8.462
  Name = 
  13 active torsions:
  status: ('A' for Active; 'I' for Inactive)
    1  A    between atoms: C_3  and  C_5
    2  A    between atoms: C_8  and  C_12
    3  A    between atoms: C_8  and  C_46
    4  A    between atoms: N_11  and  O_18
    5  A    between atoms: N_11  and  C_37
    6  A    between atoms: O_17  and  C_19
    7  A    between atoms: O_17  and  C_28
    8  A    between atoms: O_18  and  C_23
    9  A    between atoms: C_19  and  C_39
   10  A    between atoms: C_31  and  C_39
   11  A    between atoms: C_37  and  C_45
   12  A    between atoms: C_39  and  C_45
   13  A    between atoms: C_44  and  C_46
                            x       y       z     vdW  Elec       q    Type
                         _______ _______ _______ _____ _____    ______ ____

>  <TORSDO>
F 13

$$$$
=
 OpenBabel11062420293D

 53 59  0  0  1  0  0  0  0  0999 V2000
  195.5490  174.9340  143.4870 C   0  0  1  0  0  3  0  0  0  0  0  0
  195.7730  173.4720  141.5900 O   0  0  0  0  0  1  0  0  0  0  0  0
  194.8270  174.0190  142.4670 C   0  0  2  0  0  0  0  0  0  0  0  0
  193.8130  174.8290  141.6540 C   0  0  0  0  0  1  0  0  0  0  0  0
  194.1720  172.9500  143.1660 O   0  0  0  0  0  0  0  0  0  0  0  0
  191.8550  172.5520  143.6320 C   0  0  0  0  0  3  0  0  0  0  0  0
  190.2570  172.1820  141.8180 N   0  0  1  0  0  0  0  0  0  0  0  0
  191.1280  168.6530  140.4030 C   0  0  0  0  0  2  0  0  0  0  0  0
  192.6710  170.1830  141.8200 C   0  0  1  0  0  3  0  0  0  0  0  0
  190.3300  169.2160  138.3790 C   0  0  1  0  0  3  0  0  0  0  0  0
  190.0510  172.9090  138.8010 C   0  0  0  0  0  2  0  0  0  0  0  0
  190.2130  170.5520  137.6330 C   0  0  2  0  0  3  0  0  0  0  0  0
  190.5650  171.9090  143.2290 C   0  0  2  0  0  3  0  0  0  0  0  0
  191.4500  171.0370  137.2020 O   0  0  0  0  0  1  0  0  0  0  0  0
  192.9180  172.4160  142.8300 C   0  0  0  0  0  0  0  0  0  0  0  0
  192.7580  171.6690  141.5300 C   0  0  2  0  0  3  0  0  0  0  0  0
  189.3820  171.5790  138.4170 C   0  0  0  0  0  2  0  0  0  0  0  0
  191.2340  169.7390  141.4890 C   0  0  1  0  0  3  0  0  0  0  0  0
  190.3140  168.1660  137.4630 O   0  0  0  0  0  1  0  0  0  0  0  0
  191.3830  172.8040  139.5650 C   0  0  0  0  0  2  0  0  0  0  0  0
  191.4090  172.0200  140.8860 C   0  0  2  0  0  0  0  0  0  0  0  0
  189.4900  172.4010  144.0640 N   0  0  0  0  0  1  0  0  0  0  0  0
  191.5070  169.1480  139.1410 O   0  0  0  0  0  0  0  0  0  0  0  0
  190.4290  170.9460  140.9910 C   0  0  2  0  0  3  0  0  0  0  0  0
  193.8210  169.3640  141.2110 C   0  0  2  0  0  3  0  0  0  0  0  0
  194.5210  168.5470  142.2800 C   0  0  0  0  0  1  0  0  0  0  0  0
  194.7490  170.1870  140.5650 O   0  0  0  0  0  1  0  0  0  0  0  0
  196.5880  177.1210  143.7100 O   0  0  0  0  0  1  0  0  0  0  0  0
  196.2400  176.2950  141.6080 F   0  0  0  0  0  0  0  0  0  0  0  0
  195.7550  176.3450  142.9020 C   0  0  1  0  0  3  0  0  0  0  0  0
  195.8730  174.9380  145.8970 O   0  0  0  0  0  1  0  0  0  0  0  0
  194.8960  174.9360  144.9000 C   0  0  1  0  0  3  0  0  0  0  0  0
  194.2260  176.7760  146.4900 C   0  0  0  0  0  1  0  0  0  0  0  0
  193.9170  176.0830  145.1790 C   0  0  2  0  0  3  0  0  0  0  0  0
  192.5250  175.6490  145.1470 N   0  0  0  0  0  2  0  0  0  0  0  0
  191.7510  176.7570  145.0480 O   0  0  0  0  0  0  0  0  0  0  0  0
  188.3230  177.0520  146.5820 C   0  0  0  0  0  2  0  0  0  0  0  0
  190.7130  176.5460  145.9590 C   0  0  2  0  0  3  0  0  0  0  0  0
  188.3190  175.6920  147.2400 C   0  0  0  0  0  3  0  0  0  0  0  0
  190.5190  175.0590  146.2360 C   0  0  0  0  0  2  0  0  0  0  0  0
  189.3250  174.8120  147.1190 C   0  0  0  0  0  3  0  0  0  0  0  0
  189.4020  177.2100  145.5010 C   0  0  1  0  0  3  0  0  0  0  0  0
  189.9180  176.3150  143.1290 C   0  0  0  0  0  1  0  0  0  0  0  0
  188.8670  176.8380  144.1010 C   0  0  2  0  0  3  0  0  0  0  0  0
  187.9640  177.9200  143.4930 C   0  0  1  0  0  3  0  0  0  0  0  0
  188.2890  178.1840  142.1600 O   0  0  0  0  0  1  0  0  0  0  0  0
  185.6990  178.7350  144.1800 C   0  0  0  0  0  0  0  0  0  0  0  0
  186.4740  177.5870  143.6770 C   0  0  1  0  0  3  0  0  0  0  0  0
  185.6420  178.2510  141.3250 C   0  0  0  0  0  2  0  0  0  0  0  0
  185.7220  177.1660  142.3870 C   0  0  2  0  0  3  0  0  0  0  0  0
  184.6180  179.0180  143.3750 O   0  0  0  0  0  0  0  0  0  0  0  0
  184.4950  178.0890  142.3040 C   0  0  1  0  0  3  0  0  0  0  0  0
  185.9690  179.3860  145.2270 O   0  0  0  0  0  0  0  0  0  0  0  0
  1 30  1  6  0  0  0
  1 32  1  0  0  0  0
  2  3  1  0  0  0  0
  3  4  1  6  0  0  0
  3  5  1  0  0  0  0
  3  1  1  0  0  0  0
  7 13  1  0  0  0  0
  8 18  1  0  0  0  0
 10 23  1  0  0  0  0
 11 20  1  0  0  0  0
 12 10  1  0  0  0  0
 12 17  1  0  0  0  0
 13  6  1  0  0  0  0
 13 22  1  0  0  0  0
 14 12  1  0  0  0  0
 15  5  1  0  0  0  0
 15  6  2  0  0  0  0
 16  9  1  0  0  0  0
 16 15  1  0  0  0  0
 17 11  1  0  0  0  0
 18  9  1  0  0  0  0
 19 10  1  0  0  0  0
 20 21  1  0  0  0  0
 21 24  1  0  0  0  0
 21 16  1  0  0  0  0
 21  7  1  0  0  0  0
 23  8  1  0  0  0  0
 24 18  1  0  0  0  0
 24  7  1  0  0  0  0
 25  9  1  0  0  0  0
 25 26  1  0  0  0  0
 27 25  1  0  0  0  0
 29 30  1  0  0  0  0
 30 28  1  0  0  0  0
 32 34  1  0  0  0  0
 32 31  1  0  0  0  0
 34 33  1  0  0  0  0
 35 34  1  0  0  0  0
 36 35  1  0  0  0  0
 36 38  1  0  0  0  0
 37 39  1  0  0  0  0
 38 40  1  0  0  0  0
 40 41  1  0  0  0  0
 41 39  2  0  0  0  0
 42 38  1  0  0  0  0
 42 37  1  0  0  0  0
 43 44  1  0  0  0  0
 44 42  1  0  0  0  0
 45 48  1  0  0  0  0
 45 44  1  0  0  0  0
 46 45  1  0  0  0  0
 47 53  2  0  0  0  0
 48 47  1  0  0  0  0
 49 52  1  0  0  0  0
 49 50  1  0  0  0  0
 50 48  1  0  0  0  0
 51 47  1  0  0  0  0
 52 50  1  0  0  0  0
 52 51  1  0  0  0  0
M  END
>  <MODEL>
9

>  <REMARK>
 VINA RESULT:      -6.7      1.506      2.329
  Name = 
  13 active torsions:
  status: ('A' for Active; 'I' for Inactive)
    1  A    between atoms: C_3  and  C_5
    2  A    between atoms: C_8  and  C_12
    3  A    between atoms: C_8  and  C_46
    4  A    between atoms: N_11  and  O_18
    5  A    between atoms: N_11  and  C_37
    6  A    between atoms: O_17  and  C_19
    7  A    between atoms: O_17  and  C_28
    8  A    between atoms: O_18  and  C_23
    9  A    between atoms: C_19  and  C_39
   10  A    between atoms: C_31  and  C_39
   11  A    between atoms: C_37  and  C_45
   12  A    between atoms: C_39  and  C_45
   13  A    between atoms: C_44  and  C_46
                            x       y       z     vdW  Elec       q    Type
                         _______ _______ _______ _____ _____    ______ ____

>  <TORSDO>
F 13

$$$$
