=
 OpenBabel11062418553D

 33 36  0  0  1  0  0  0  0  0999 V2000
  190.9430  176.1620  144.4840 C   0  0  0  0  0  0  0  0  0  0  0  0
  190.9960  175.6500  145.8180 N   0  0  0  0  0  2  0  0  0  0  0  0
  191.7990  177.0020  144.0960 O   0  0  0  0  0  0  0  0  0  0  0  0
  188.6370  174.4530  142.1040 N   0  0  0  0  0  0  0  0  0  0  0  0
  189.8820  175.6970  143.5730 C   0  0  0  0  0  0  0  0  0  0  0  0
  187.9850  175.5050  142.3820 N   0  0  0  0  0  0  0  0  0  0  0  0
  188.7370  176.2990  143.2850 C   0  0  0  0  0  0  0  0  0  0  0  0
  189.9170  174.4200  142.8010 C   0  0  0  0  0  2  0  0  0  0  0  0
  187.3680  177.3560  145.0390 C   0  0  0  0  0  0  0  0  0  0  0  0
  186.1120  177.8240  144.7600 C   0  0  0  0  0  0  0  0  0  0  0  0
  185.0700  177.7450  145.6830 C   0  0  0  0  0  3  0  0  0  0  0  0
  186.6400  176.6840  147.2250 C   0  0  0  0  0  3  0  0  0  0  0  0
  186.1550  178.3650  143.4210 C   0  0  0  0  0  0  0  0  0  0  0  0
  187.6700  176.7800  146.2740 C   0  0  0  0  0  3  0  0  0  0  0  0
  187.3410  178.2580  142.9090 N   0  0  0  0  0  0  0  0  0  0  0  0
  188.2480  177.5970  143.8570 C   0  0  2  0  0  3  0  0  0  0  0  0
  185.3470  177.1630  146.9300 C   0  0  0  0  0  3  0  0  0  0  0  0
  184.1330  177.9910  142.0680 C   0  0  0  0  0  1  0  0  0  0  0  0
  185.0240  179.0320  142.7160 C   0  0  0  0  0  2  0  0  0  0  0  0
  192.0310  176.0370  146.7640 C   0  0  0  0  0  2  0  0  0  0  0  0
  193.2070  175.2080  146.5700 N   0  0  0  0  0  2  0  0  0  0  0  0
  194.3540  176.1010  146.5460 C   0  0  0  0  0  2  0  0  0  0  0  0
  195.4110  175.6170  145.5530 C   0  0  2  0  0  3  0  0  0  0  0  0
  195.1080  175.7280  142.0330 C   0  0  0  0  0  2  0  0  0  0  0  0
  194.6110  175.3570  143.2790 O   0  0  0  0  0  0  0  0  0  0  0  0
  196.4570  176.6800  143.6670 O   0  0  0  0  0  0  0  0  0  0  0  0
  195.2220  176.2500  144.1730 C   0  0  0  0  0  3  0  0  0  0  0  0
  196.3070  176.5950  142.2850 C   0  0  0  0  0  2  0  0  0  0  0  0
  195.4910  174.0920  145.4810 C   0  0  0  0  0  2  0  0  0  0  0  0
  196.8640  173.5900  145.9040 C   0  0  1  0  0  3  0  0  0  0  0  0
  196.8240  172.0790  146.0170 C   0  0  0  0  0  1  0  0  0  0  0  0
  197.8190  173.9600  144.9550 O   0  0  0  0  0  0  0  0  0  0  0  0
  197.4840  173.2400  143.8070 C   0  0  0  0  0  1  0  0  0  0  0  0
  1  2  1  0  0  0  0
  2 20  1  0  0  0  0
  3  1  2  0  0  0  0
  4  6  2  0  0  0  0
  4  8  1  0  0  0  0
  5  1  1  0  0  0  0
  6  7  1  0  0  0  0
  7  5  2  0  0  0  0
  8  5  1  0  0  0  0
  9 14  1  0  0  0  0
 10  9  2  0  0  0  0
 10 11  1  0  0  0  0
 11 17  2  0  0  0  0
 13 10  1  0  0  0  0
 14 12  2  0  0  0  0
 15 13  2  0  0  0  0
 15 16  1  0  0  0  0
 16  7  1  6  0  0  0
 16  9  1  0  0  0  0
 17 12  1  0  0  0  0
 18 19  1  0  0  0  0
 19 13  1  0  0  0  0
 21 20  1  0  0  0  0
 22 21  1  0  0  0  0
 23 29  1  6  0  0  0
 23 22  1  0  0  0  0
 24 28  1  0  0  0  0
 24 25  1  0  0  0  0
 25 27  1  0  0  0  0
 26 27  1  0  0  0  0
 27 23  1  0  0  0  0
 28 26  1  0  0  0  0
 29 30  1  0  0  0  0
 30 31  1  6  0  0  0
 32 30  1  0  0  0  0
 33 32  1  0  0  0  0
M  END
>  <MODEL>
1

>  <REMARK>
 VINA RESULT:      -6.8      0.000      0.000
  Name = 
  11 active torsions:
  status: ('A' for Active; 'I' for Inactive)
    1  A    between atoms: C_1  and  C_6
    2  A    between atoms: C_1  and  C_28
    3  A    between atoms: C_1  and  C_32
    4  A    between atoms: C_4  and  C_6
    5  A    between atoms: C_4  and  O_20
    6  A    between atoms: N_5  and  C_21
    7  A    between atoms: N_5  and  C_32
    8  A    between atoms: C_11  and  C_16
    9  A    between atoms: C_14  and  C_19
   10  A    between atoms: N_17  and  C_21
   11  A    between atoms: C_26  and  C_29
                            x       y       z     vdW  Elec       q    Type
                         _______ _______ _______ _____ _____    ______ ____

>  <TORSDO>
F 11

$$$$
=
 OpenBabel11062418553D

 33 36  0  0  1  0  0  0  0  0999 V2000
  189.9150  175.1980  144.8360 C   0  0  0  0  0  0  0  0  0  0  0  0
  189.3140  176.0950  143.8970 N   0  0  0  0  0  2  0  0  0  0  0  0
  189.5470  173.9930  144.8820 O   0  0  0  0  0  0  0  0  0  0  0  0
  192.0710  176.5930  147.5390 N   0  0  0  0  0  0  0  0  0  0  0  0
  190.9640  175.6960  145.7430 C   0  0  0  0  0  0  0  0  0  0  0  0
  192.9350  176.2340  146.6810 N   0  0  0  0  0  0  0  0  0  0  0  0
  192.2760  175.6810  145.5540 C   0  0  0  0  0  0  0  0  0  0  0  0
  190.7160  176.3150  147.0780 C   0  0  0  0  0  2  0  0  0  0  0  0
  193.9490  174.0470  144.7830 C   0  0  0  0  0  0  0  0  0  0  0  0
  195.2230  174.4420  144.4720 C   0  0  0  0  0  0  0  0  0  0  0  0
  196.3320  173.6410  144.7370 C   0  0  0  0  0  3  0  0  0  0  0  0
  194.7960  171.9790  145.6600 C   0  0  0  0  0  3  0  0  0  0  0  0
  195.1190  175.7470  143.8610 C   0  0  0  0  0  0  0  0  0  0  0  0
  193.6980  172.8090  145.3770 C   0  0  0  0  0  3  0  0  0  0  0  0
  193.8830  176.1310  143.7820 N   0  0  0  0  0  0  0  0  0  0  0  0
  192.9950  175.1170  144.3650 C   0  0  2  0  0  3  0  0  0  0  0  0
  196.1060  172.3940  145.3420 C   0  0  0  0  0  3  0  0  0  0  0  0
  196.1540  176.6130  141.8030 C   0  0  0  0  0  1  0  0  0  0  0  0
  196.2530  176.5440  143.3140 C   0  0  0  0  0  2  0  0  0  0  0  0
  188.2960  175.6680  142.9500 C   0  0  0  0  0  2  0  0  0  0  0  0
  188.0740  176.7130  141.9660 N   0  0  0  0  0  2  0  0  0  0  0  0
  187.6600  177.8990  142.6970 C   0  0  0  0  0  2  0  0  0  0  0  0
  186.2590  177.7270  143.2850 C   0  0  2  0  0  3  0  0  0  0  0  0
  183.1520  178.2500  141.6840 C   0  0  0  0  0  2  0  0  0  0  0  0
  183.9050  178.1040  142.8450 O   0  0  0  0  0  0  0  0  0  0  0  0
  185.3980  178.2170  141.0940 O   0  0  0  0  0  0  0  0  0  0  0  0
  185.2050  178.4680  142.4600 C   0  0  0  0  0  3  0  0  0  0  0  0
  184.1240  178.3310  140.5440 C   0  0  0  0  0  2  0  0  0  0  0  0
  186.1970  178.0970  144.7670 C   0  0  0  0  0  2  0  0  0  0  0  0
  185.9130  176.8770  145.6300 C   0  0  1  0  0  3  0  0  0  0  0  0
  187.0120  176.7390  146.6660 C   0  0  0  0  0  1  0  0  0  0  0  0
  184.6830  177.0260  146.2750 O   0  0  0  0  0  0  0  0  0  0  0  0
  184.5890  178.3890  146.5610 C   0  0  0  0  0  1  0  0  0  0  0  0
  1  3  2  0  0  0  0
  1  5  1  0  0  0  0
  2  1  1  0  0  0  0
  5  8  1  0  0  0  0
  6  4  2  0  0  0  0
  7  5  2  0  0  0  0
  7  6  1  0  0  0  0
  8  4  1  0  0  0  0
  9 14  1  0  0  0  0
 10 11  1  0  0  0  0
 10  9  2  0  0  0  0
 11 17  2  0  0  0  0
 13 10  1  0  0  0  0
 14 12  2  0  0  0  0
 15 13  2  0  0  0  0
 15 16  1  0  0  0  0
 16  9  1  0  0  0  0
 16  7  1  1  0  0  0
 17 12  1  0  0  0  0
 18 19  1  0  0  0  0
 19 13  1  0  0  0  0
 20  2  1  0  0  0  0
 21 22  1  0  0  0  0
 21 20  1  0  0  0  0
 23 22  1  6  0  0  0
 23 29  1  0  0  0  0
 24 25  1  0  0  0  0
 26 27  1  0  0  0  0
 27 25  1  0  0  0  0
 27 23  1  0  0  0  0
 28 26  1  0  0  0  0
 28 24  1  0  0  0  0
 29 30  1  0  0  0  0
 30 32  1  0  0  0  0
 30 31  1  1  0  0  0
 32 33  1  0  0  0  0
M  END
>  <MODEL>
2

>  <REMARK>
 VINA RESULT:      -6.5      2.738      9.241
  Name = 
  11 active torsions:
  status: ('A' for Active; 'I' for Inactive)
    1  A    between atoms: C_1  and  C_6
    2  A    between atoms: C_1  and  C_28
    3  A    between atoms: C_1  and  C_32
    4  A    between atoms: C_4  and  C_6
    5  A    between atoms: C_4  and  O_20
    6  A    between atoms: N_5  and  C_21
    7  A    between atoms: N_5  and  C_32
    8  A    between atoms: C_11  and  C_16
    9  A    between atoms: C_14  and  C_19
   10  A    between atoms: N_17  and  C_21
   11  A    between atoms: C_26  and  C_29
                            x       y       z     vdW  Elec       q    Type
                         _______ _______ _______ _____ _____    ______ ____

>  <TORSDO>
F 11

$$$$
=
 OpenBabel11062418553D

 33 36  0  0  1  0  0  0  0  0999 V2000
  188.3870  174.9120  141.9920 C   0  0  0  0  0  0  0  0  0  0  0  0
  189.7910  174.7070  141.8120 N   0  0  0  0  0  2  0  0  0  0  0  0
  187.6000  173.9270  141.9890 O   0  0  0  0  0  0  0  0  0  0  0  0
  187.1210  178.4140  141.8120 N   0  0  0  0  0  0  0  0  0  0  0  0
  187.8740  176.2800  142.1800 C   0  0  0  0  0  0  0  0  0  0  0  0
  187.0580  178.1820  143.0580 N   0  0  0  0  0  2  0  0  0  0  0  0
  187.5260  176.8680  143.3160 C   0  0  0  0  0  0  0  0  0  0  0  0
  187.6440  177.2660  141.0820 C   0  0  0  0  0  3  0  0  0  0  0  0
  186.6190  176.9620  145.6040 C   0  0  0  0  0  0  0  0  0  0  0  0
  187.3440  177.5200  146.6220 C   0  0  0  0  0  0  0  0  0  0  0  0
  186.7430  178.2470  147.6480 C   0  0  0  0  0  3  0  0  0  0  0  0
  184.5940  177.8170  146.5670 C   0  0  0  0  0  3  0  0  0  0  0  0
  188.7290  177.1850  146.3820 C   0  0  0  0  0  0  0  0  0  0  0  0
  185.2300  177.0880  145.5480 C   0  0  0  0  0  3  0  0  0  0  0  0
  188.8590  176.4650  145.3120 N   0  0  0  0  0  0  0  0  0  0  0  0
  187.5510  176.2480  144.6810 C   0  0  2  0  0  3  0  0  0  0  0  0
  185.3470  178.3950  147.6110 C   0  0  0  0  0  3  0  0  0  0  0  0
  190.6370  176.2860  147.6510 C   0  0  0  0  0  1  0  0  0  0  0  0
  189.8750  177.5390  147.2660 C   0  0  0  0  0  2  0  0  0  0  0  0
  190.3750  173.3840  141.6530 C   0  0  0  0  0  2  0  0  0  0  0  0
  191.8000  173.5040  141.4060 N   0  0  0  0  0  2  0  0  0  0  0  0
  192.4760  173.0850  142.6230 C   0  0  0  0  0  2  0  0  0  0  0  0
  193.2080  174.2560  143.2800 C   0  0  2  0  0  3  0  0  0  0  0  0
  196.2040  174.1050  145.1490 C   0  0  0  0  0  2  0  0  0  0  0  0
  194.8820  173.7200  144.9500 O   0  0  0  0  0  0  0  0  0  0  0  0
  195.5090  174.9270  143.0910 O   0  0  0  0  0  0  0  0  0  0  0  0
  194.6700  173.9140  143.5760 C   0  0  0  0  0  3  0  0  0  0  0  0
  196.6160  174.8860  143.9360 C   0  0  0  0  0  2  0  0  0  0  0  0
  192.4780  174.7830  144.5150 C   0  0  0  0  0  2  0  0  0  0  0  0
  192.3110  176.2940  144.4560 C   0  0  1  0  0  3  0  0  0  0  0  0
  193.4270  176.9460  145.2480 C   0  0  0  0  0  1  0  0  0  0  0  0
  192.3670  176.7270  143.1290 O   0  0  0  0  0  0  0  0  0  0  0  0
  191.3890  177.7170  143.0320 C   0  0  0  0  0  1  0  0  0  0  0  0
  1  5  1  0  0  0  0
  2  1  1  0  0  0  0
  3  1  2  0  0  0  0
  4  6  1  0  0  0  0
  5  7  2  0  0  0  0
  6  7  1  0  0  0  0
  8  4  2  0  0  0  0
  8  5  1  0  0  0  0
  9 10  1  0  0  0  0
 10 11  2  0  0  0  0
 12 17  2  0  0  0  0
 13 10  1  0  0  0  0
 13 19  1  0  0  0  0
 14  9  2  0  0  0  0
 14 12  1  0  0  0  0
 15 13  2  0  0  0  0
 16  7  1  6  0  0  0
 16 15  1  0  0  0  0
 16  9  1  0  0  0  0
 17 11  1  0  0  0  0
 19 18  1  0  0  0  0
 20  2  1  0  0  0  0
 21 20  1  0  0  0  0
 21 22  1  0  0  0  0
 23 22  1  1  0  0  0
 23 27  1  0  0  0  0
 23 29  1  0  0  0  0
 25 24  1  0  0  0  0
 26 27  1  0  0  0  0
 26 28  1  0  0  0  0
 27 25  1  0  0  0  0
 28 24  1  0  0  0  0
 30 29  1  0  0  0  0
 30 31  1  1  0  0  0
 32 30  1  0  0  0  0
 33 32  1  0  0  0  0
M  END
>  <MODEL>
3

>  <REMARK>
 VINA RESULT:      -6.5      2.010      4.314
  Name = 
  11 active torsions:
  status: ('A' for Active; 'I' for Inactive)
    1  A    between atoms: C_1  and  C_6
    2  A    between atoms: C_1  and  C_28
    3  A    between atoms: C_1  and  C_32
    4  A    between atoms: C_4  and  C_6
    5  A    between atoms: C_4  and  O_20
    6  A    between atoms: N_5  and  C_21
    7  A    between atoms: N_5  and  C_32
    8  A    between atoms: C_11  and  C_16
    9  A    between atoms: C_14  and  C_19
   10  A    between atoms: N_17  and  C_21
   11  A    between atoms: C_26  and  C_29
                            x       y       z     vdW  Elec       q    Type
                         _______ _______ _______ _____ _____    ______ ____

>  <TORSDO>
F 11

$$$$
=
 OpenBabel11062418553D

 33 36  0  0  1  0  0  0  0  0999 V2000
  188.6860  174.2370  141.5530 C   0  0  0  0  0  0  0  0  0  0  0  0
  188.4480  175.6470  141.5400 N   0  0  0  0  0  2  0  0  0  0  0  0
  187.7550  173.4430  141.8580 O   0  0  0  0  0  0  0  0  0  0  0  0
  191.8680  172.9970  140.0570 N   0  0  0  0  0  0  0  0  0  0  0  0
  190.0240  173.7260  141.2080 C   0  0  0  0  0  0  0  0  0  0  0  0
  192.1500  173.0000  141.2940 N   0  0  0  0  0  2  0  0  0  0  0  0
  191.0220  173.4410  142.0320 C   0  0  0  0  0  0  0  0  0  0  0  0
  190.5000  173.4440  139.8220 C   0  0  0  0  0  3  0  0  0  0  0  0
  191.7130  174.8660  143.9190 C   0  0  0  0  0  0  0  0  0  0  0  0
  192.8130  174.5500  144.6700 C   0  0  0  0  0  0  0  0  0  0  0  0
  193.6590  175.5270  145.1920 C   0  0  0  0  0  3  0  0  0  0  0  0
  192.2130  177.2020  144.1550 C   0  0  0  0  0  3  0  0  0  0  0  0
  192.8500  173.1090  144.7720 C   0  0  0  0  0  0  0  0  0  0  0  0
  191.3780  176.1930  143.6440 C   0  0  0  0  0  3  0  0  0  0  0  0
  191.8490  172.5690  144.1500 N   0  0  0  0  0  0  0  0  0  0  0  0
  191.0170  173.6050  143.5230 C   0  0  2  0  0  3  0  0  0  0  0  0
  193.3480  176.8700  144.9240 C   0  0  0  0  0  3  0  0  0  0  0  0
  194.7890  171.6040  144.5930 C   0  0  0  0  0  1  0  0  0  0  0  0
  193.8480  172.3180  145.5440 C   0  0  0  0  0  2  0  0  0  0  0  0
  187.1460  176.2240  141.8380 C   0  0  0  0  0  2  0  0  0  0  0  0
  186.8930  176.1480  143.2660 N   0  0  0  0  0  2  0  0  0  0  0  0
  187.6180  177.2460  143.8830 C   0  0  0  0  0  2  0  0  0  0  0  0
  187.6790  177.0840  145.4020 C   0  0  2  0  0  3  0  0  0  0  0  0
  184.3810  177.8070  146.4490 C   0  0  0  0  0  2  0  0  0  0  0  0
  185.5180  177.0050  146.4980 O   0  0  0  0  0  0  0  0  0  0  0  0
  186.0690  178.8630  145.2510 O   0  0  0  0  0  0  0  0  0  0  0  0
  186.5590  177.8590  146.0990 C   0  0  0  0  0  3  0  0  0  0  0  0
  184.7410  179.0200  145.6420 C   0  0  0  0  0  2  0  0  0  0  0  0
  189.0560  177.4250  145.9720 C   0  0  0  0  0  2  0  0  0  0  0  0
  189.4390  176.4770  147.0980 C   0  0  1  0  0  3  0  0  0  0  0  0
  189.1970  175.0500  146.6470 C   0  0  0  0  0  1  0  0  0  0  0  0
  190.7880  176.6400  147.4200 O   0  0  0  0  0  0  0  0  0  0  0  0
  191.1930  175.4000  147.9160 C   0  0  0  0  0  1  0  0  0  0  0  0
  1  3  2  0  0  0  0
  2  1  1  0  0  0  0
  2 20  1  0  0  0  0
  4  6  1  0  0  0  0
  5  1  1  0  0  0  0
  5  7  2  0  0  0  0
  6  7  1  0  0  0  0
  8  4  2  0  0  0  0
  8  5  1  0  0  0  0
  9 10  1  0  0  0  0
 10 13  1  0  0  0  0
 10 11  2  0  0  0  0
 12 17  2  0  0  0  0
 13 19  1  0  0  0  0
 14  9  2  0  0  0  0
 14 12  1  0  0  0  0
 15 13  2  0  0  0  0
 16  7  1  6  0  0  0
 16  9  1  0  0  0  0
 16 15  1  0  0  0  0
 17 11  1  0  0  0  0
 18 19  1  0  0  0  0
 20 21  1  0  0  0  0
 21 22  1  0  0  0  0
 23 22  1  6  0  0  0
 23 29  1  0  0  0  0
 23 27  1  0  0  0  0
 24 25  1  0  0  0  0
 26 28  1  0  0  0  0
 26 27  1  0  0  0  0
 27 25  1  0  0  0  0
 28 24  1  0  0  0  0
 29 30  1  0  0  0  0
 30 31  1  6  0  0  0
 30 32  1  0  0  0  0
 32 33  1  0  0  0  0
M  END
>  <MODEL>
4

>  <REMARK>
 VINA RESULT:      -6.5      3.036      7.772
  Name = 
  11 active torsions:
  status: ('A' for Active; 'I' for Inactive)
    1  A    between atoms: C_1  and  C_6
    2  A    between atoms: C_1  and  C_28
    3  A    between atoms: C_1  and  C_32
    4  A    between atoms: C_4  and  C_6
    5  A    between atoms: C_4  and  O_20
    6  A    between atoms: N_5  and  C_21
    7  A    between atoms: N_5  and  C_32
    8  A    between atoms: C_11  and  C_16
    9  A    between atoms: C_14  and  C_19
   10  A    between atoms: N_17  and  C_21
   11  A    between atoms: C_26  and  C_29
                            x       y       z     vdW  Elec       q    Type
                         _______ _______ _______ _____ _____    ______ ____

>  <TORSDO>
F 11

$$$$
=
 OpenBabel11062418553D

 33 36  0  0  1  0  0  0  0  0999 V2000
  190.6830  176.1290  144.5200 C   0  0  0  0  0  0  0  0  0  0  0  0
  190.7820  175.7780  145.9030 N   0  0  0  0  0  2  0  0  0  0  0  0
  191.4740  176.9790  144.0270 O   0  0  0  0  0  0  0  0  0  0  0  0
  188.4700  173.9810  142.4260 N   0  0  0  0  0  0  0  0  0  0  0  0
  189.6540  175.4890  143.6830 C   0  0  0  0  0  0  0  0  0  0  0  0
  187.7890  175.0480  142.5090 N   0  0  0  0  0  0  0  0  0  0  0  0
  188.5020  176.0030  143.2770 C   0  0  0  0  0  0  0  0  0  0  0  0
  189.7350  174.1010  143.1410 C   0  0  0  0  0  2  0  0  0  0  0  0
  187.0840  177.3070  144.8110 C   0  0  0  0  0  0  0  0  0  0  0  0
  185.8190  177.6830  144.4470 C   0  0  0  0  0  0  0  0  0  0  0  0
  184.7690  177.7360  145.3630 C   0  0  0  0  0  3  0  0  0  0  0  0
  186.3500  177.0050  147.0760 C   0  0  0  0  0  3  0  0  0  0  0  0
  185.8620  177.9840  143.0340 C   0  0  0  0  0  0  0  0  0  0  0  0
  187.3880  176.9640  146.1290 C   0  0  0  0  0  3  0  0  0  0  0  0
  187.0570  177.8250  142.5570 N   0  0  0  0  0  0  0  0  0  0  0  0
  187.9710  177.3650  143.6110 C   0  0  2  0  0  3  0  0  0  0  0  0
  185.0480  177.3870  146.6940 C   0  0  0  0  0  3  0  0  0  0  0  0
  185.0080  178.2710  140.7440 C   0  0  0  0  0  1  0  0  0  0  0  0
  184.7210  178.4850  142.2170 C   0  0  0  0  0  2  0  0  0  0  0  0
  191.7920  176.3450  146.7840 C   0  0  0  0  0  2  0  0  0  0  0  0
  192.9050  175.4210  146.9100 N   0  0  0  0  0  2  0  0  0  0  0  0
  194.0890  176.1200  146.4400 C   0  0  0  0  0  2  0  0  0  0  0  0
  194.7410  175.3790  145.2710 C   0  0  2  0  0  3  0  0  0  0  0  0
  197.5740  173.2830  145.0020 C   0  0  0  0  0  2  0  0  0  0  0  0
  196.9960  174.5480  144.9500 O   0  0  0  0  0  0  0  0  0  0  0  0
  195.3810  173.1100  145.7450 O   0  0  0  0  0  0  0  0  0  0  0  0
  195.8450  174.4330  145.7460 C   0  0  0  0  0  3  0  0  0  0  0  0
  196.5250  172.3480  145.5260 C   0  0  0  0  0  2  0  0  0  0  0  0
  195.2260  176.3270  144.1750 C   0  0  0  0  0  2  0  0  0  0  0  0
  194.5280  176.0470  142.8520 C   0  0  1  0  0  3  0  0  0  0  0  0
  195.5710  175.9260  141.7590 C   0  0  0  0  0  1  0  0  0  0  0  0
  193.8050  174.8550  142.9390 O   0  0  0  0  0  0  0  0  0  0  0  0
  193.4370  174.5620  141.6250 C   0  0  0  0  0  1  0  0  0  0  0  0
  1  2  1  0  0  0  0
  2 20  1  0  0  0  0
  3  1  2  0  0  0  0
  4  6  2  0  0  0  0
  4  8  1  0  0  0  0
  5  1  1  0  0  0  0
  6  7  1  0  0  0  0
  7  5  2  0  0  0  0
  8  5  1  0  0  0  0
  9 14  1  0  0  0  0
 10  9  2  0  0  0  0
 10 11  1  0  0  0  0
 11 17  2  0  0  0  0
 13 10  1  0  0  0  0
 14 12  2  0  0  0  0
 15 13  2  0  0  0  0
 15 16  1  0  0  0  0
 16  7  1  6  0  0  0
 16  9  1  0  0  0  0
 17 12  1  0  0  0  0
 18 19  1  0  0  0  0
 19 13  1  0  0  0  0
 20 21  1  0  0  0  0
 22 21  1  0  0  0  0
 23 29  1  6  0  0  0
 23 27  1  0  0  0  0
 23 22  1  0  0  0  0
 24 28  1  0  0  0  0
 25 24  1  0  0  0  0
 25 27  1  0  0  0  0
 26 27  1  0  0  0  0
 28 26  1  0  0  0  0
 30 31  1  6  0  0  0
 30 32  1  0  0  0  0
 30 29  1  0  0  0  0
 33 32  1  0  0  0  0
M  END
>  <MODEL>
5

>  <REMARK>
 VINA RESULT:      -6.4      0.869      2.441
  Name = 
  11 active torsions:
  status: ('A' for Active; 'I' for Inactive)
    1  A    between atoms: C_1  and  C_6
    2  A    between atoms: C_1  and  C_28
    3  A    between atoms: C_1  and  C_32
    4  A    between atoms: C_4  and  C_6
    5  A    between atoms: C_4  and  O_20
    6  A    between atoms: N_5  and  C_21
    7  A    between atoms: N_5  and  C_32
    8  A    between atoms: C_11  and  C_16
    9  A    between atoms: C_14  and  C_19
   10  A    between atoms: N_17  and  C_21
   11  A    between atoms: C_26  and  C_29
                            x       y       z     vdW  Elec       q    Type
                         _______ _______ _______ _____ _____    ______ ____

>  <TORSDO>
F 11

$$$$
=
 OpenBabel11062418553D

 33 36  0  0  1  0  0  0  0  0999 V2000
  189.1750  173.2690  142.5010 C   0  0  0  0  0  0  0  0  0  0  0  0
  189.0550  174.6920  142.4160 N   0  0  0  0  0  2  0  0  0  0  0  0
  188.2780  172.5300  142.0110 O   0  0  0  0  0  0  0  0  0  0  0  0
  192.0130  171.2440  143.8230 N   0  0  0  0  0  0  0  0  0  0  0  0
  190.3530  172.6820  143.1620 C   0  0  0  0  0  0  0  0  0  0  0  0
  192.2050  172.3610  144.3940 N   0  0  0  0  0  2  0  0  0  0  0  0
  191.1870  173.2690  144.0080 C   0  0  0  0  0  0  0  0  0  0  0  0
  190.8270  171.2780  142.9750 C   0  0  0  0  0  3  0  0  0  0  0  0
  192.5030  175.2720  144.5740 C   0  0  0  0  0  0  0  0  0  0  0  0
  192.7400  175.6080  145.8800 C   0  0  0  0  0  0  0  0  0  0  0  0
  193.9430  176.1800  146.2910 C   0  0  0  0  0  3  0  0  0  0  0  0
  194.6830  176.0700  143.9650 C   0  0  0  0  0  3  0  0  0  0  0  0
  191.5510  175.2630  146.6250 C   0  0  0  0  0  0  0  0  0  0  0  0
  193.4590  175.4960  143.5820 C   0  0  0  0  0  3  0  0  0  0  0  0
  190.6390  174.7660  145.8480 N   0  0  0  0  0  0  0  0  0  0  0  0
  191.1290  174.6960  144.4650 C   0  0  2  0  0  3  0  0  0  0  0  0
  194.9240  176.4090  145.3120 C   0  0  0  0  0  3  0  0  0  0  0  0
  191.1750  176.9850  148.3420 C   0  0  0  0  0  1  0  0  0  0  0  0
  191.3360  175.5010  148.0790 C   0  0  0  0  0  2  0  0  0  0  0  0
  187.9370  175.3450  141.7510 C   0  0  0  0  0  2  0  0  0  0  0  0
  186.9640  175.7750  142.7380 N   0  0  0  0  0  2  0  0  0  0  0  0
  187.0550  177.2230  142.8180 C   0  0  0  0  0  2  0  0  0  0  0  0
  185.8320  177.8170  143.5170 C   0  0  2  0  0  3  0  0  0  0  0  0
  183.0810  178.2180  141.3330 C   0  0  0  0  0  2  0  0  0  0  0  0
  183.5920  178.0510  142.6170 O   0  0  0  0  0  0  0  0  0  0  0  0
  185.3950  178.3860  141.2220 O   0  0  0  0  0  0  0  0  0  0  0  0
  184.9080  178.5320  142.5290 C   0  0  0  0  0  3  0  0  0  0  0  0
  184.2540  178.4430  140.4250 C   0  0  0  0  0  2  0  0  0  0  0  0
  186.2080  178.7070  144.7010 C   0  0  0  0  0  2  0  0  0  0  0  0
  185.8050  178.0710  146.0220 C   0  0  1  0  0  3  0  0  0  0  0  0
  184.3210  178.2910  146.2440 C   0  0  0  0  0  1  0  0  0  0  0  0
  186.0710  176.7000  145.9910 O   0  0  0  0  0  0  0  0  0  0  0  0
  187.3190  176.5620  146.6010 C   0  0  0  0  0  1  0  0  0  0  0  0
  1  5  1  0  0  0  0
  2  1  1  0  0  0  0
  3  1  2  0  0  0  0
  4  6  1  0  0  0  0
  5  7  2  0  0  0  0
  7  6  1  0  0  0  0
  8  5  1  0  0  0  0
  8  4  2  0  0  0  0
  9 10  1  0  0  0  0
 10 11  2  0  0  0  0
 10 13  1  0  0  0  0
 12 17  2  0  0  0  0
 13 19  1  0  0  0  0
 14 12  1  0  0  0  0
 14  9  2  0  0  0  0
 15 13  2  0  0  0  0
 16  7  1  1  0  0  0
 16  9  1  0  0  0  0
 16 15  1  0  0  0  0
 17 11  1  0  0  0  0
 19 18  1  0  0  0  0
 20  2  1  0  0  0  0
 20 21  1  0  0  0  0
 21 22  1  0  0  0  0
 23 22  1  6  0  0  0
 23 29  1  0  0  0  0
 24 25  1  0  0  0  0
 26 27  1  0  0  0  0
 27 25  1  0  0  0  0
 27 23  1  0  0  0  0
 28 26  1  0  0  0  0
 28 24  1  0  0  0  0
 29 30  1  0  0  0  0
 30 31  1  6  0  0  0
 32 30  1  0  0  0  0
 32 33  1  0  0  0  0
M  END
>  <MODEL>
6

>  <REMARK>
 VINA RESULT:      -6.3      3.407      8.639
  Name = 
  11 active torsions:
  status: ('A' for Active; 'I' for Inactive)
    1  A    between atoms: C_1  and  C_6
    2  A    between atoms: C_1  and  C_28
    3  A    between atoms: C_1  and  C_32
    4  A    between atoms: C_4  and  C_6
    5  A    between atoms: C_4  and  O_20
    6  A    between atoms: N_5  and  C_21
    7  A    between atoms: N_5  and  C_32
    8  A    between atoms: C_11  and  C_16
    9  A    between atoms: C_14  and  C_19
   10  A    between atoms: N_17  and  C_21
   11  A    between atoms: C_26  and  C_29
                            x       y       z     vdW  Elec       q    Type
                         _______ _______ _______ _____ _____    ______ ____

>  <TORSDO>
F 11

$$$$
=
 OpenBabel11062418553D

 33 36  0  0  1  0  0  0  0  0999 V2000
  189.8480  174.6800  145.6350 C   0  0  0  0  0  0  0  0  0  0  0  0
  189.6780  175.9270  144.9540 N   0  0  0  0  0  2  0  0  0  0  0  0
  189.4860  174.5630  146.8370 O   0  0  0  0  0  0  0  0  0  0  0  0
  190.7430  171.6230  143.6980 N   0  0  0  0  0  0  0  0  0  0  0  0
  190.4470  173.5410  144.9180 C   0  0  0  0  0  0  0  0  0  0  0  0
  191.8870  172.1060  143.9590 N   0  0  0  0  0  0  0  0  0  0  0  0
  191.7340  173.2920  144.7210 C   0  0  0  0  0  0  0  0  0  0  0  0
  189.6780  172.4440  144.2610 C   0  0  0  0  0  2  0  0  0  0  0  0
  193.5590  174.7800  143.9980 C   0  0  0  0  0  0  0  0  0  0  0  0
  194.8480  174.3250  143.9300 C   0  0  0  0  0  0  0  0  0  0  0  0
  195.7320  174.7500  142.9400 C   0  0  0  0  0  3  0  0  0  0  0  0
  193.9330  176.1520  142.0650 C   0  0  0  0  0  3  0  0  0  0  0  0
  195.0270  173.4060  145.0310 C   0  0  0  0  0  0  0  0  0  0  0  0
  193.0660  175.7050  143.0770 C   0  0  0  0  0  3  0  0  0  0  0  0
  193.9450  173.3060  145.7390 N   0  0  0  0  0  0  0  0  0  0  0  0
  192.8830  174.1450  145.1690 C   0  0  2  0  0  3  0  0  0  0  0  0
  195.2580  175.6750  141.9960 C   0  0  0  0  0  3  0  0  0  0  0  0
  197.2110  173.6470  146.1400 C   0  0  0  0  0  1  0  0  0  0  0  0
  196.2950  172.7070  145.3820 C   0  0  0  0  0  2  0  0  0  0  0  0
  189.0660  177.0860  145.5860 C   0  0  0  0  0  2  0  0  0  0  0  0
  188.2100  177.7680  144.6330 N   0  0  0  0  0  2  0  0  0  0  0  0
  187.2330  176.7960  144.1710 C   0  0  0  0  0  2  0  0  0  0  0  0
  185.8530  177.4350  144.0040 C   0  0  2  0  0  3  0  0  0  0  0  0
  185.4510  178.1200  140.5600 C   0  0  0  0  0  2  0  0  0  0  0  0
  186.2400  177.6940  141.6250 O   0  0  0  0  0  0  0  0  0  0  0  0
  184.0980  177.9370  142.4390 O   0  0  0  0  0  0  0  0  0  0  0  0
  185.3140  177.2530  142.5840 C   0  0  0  0  0  3  0  0  0  0  0  0
  184.0550  178.2720  141.0880 C   0  0  0  0  0  2  0  0  0  0  0  0
  185.8280  178.8970  144.4480 C   0  0  0  0  0  2  0  0  0  0  0  0
  185.0980  179.0600  145.7730 C   0  0  1  0  0  3  0  0  0  0  0  0
  184.4030  177.7590  146.1180 C   0  0  0  0  0  1  0  0  0  0  0  0
  186.0100  179.3820  146.7810 O   0  0  0  0  0  0  0  0  0  0  0  0
  185.8630  178.3730  147.7340 C   0  0  0  0  0  1  0  0  0  0  0  0
  1  3  2  0  0  0  0
  2 20  1  0  0  0  0
  2  1  1  0  0  0  0
  4  6  2  0  0  0  0
  4  8  1  0  0  0  0
  5  1  1  0  0  0  0
  6  7  1  0  0  0  0
  7  5  2  0  0  0  0
  8  5  1  0  0  0  0
  9 16  1  0  0  0  0
 10  9  1  0  0  0  0
 10 13  1  0  0  0  0
 11 10  2  0  0  0  0
 12 14  1  0  0  0  0
 13 19  1  0  0  0  0
 13 15  2  0  0  0  0
 14  9  2  0  0  0  0
 16  7  1  6  0  0  0
 16 15  1  0  0  0  0
 17 12  2  0  0  0  0
 17 11  1  0  0  0  0
 19 18  1  0  0  0  0
 21 20  1  0  0  0  0
 22 21  1  0  0  0  0
 23 22  1  6  0  0  0
 23 29  1  0  0  0  0
 24 28  1  0  0  0  0
 24 25  1  0  0  0  0
 25 27  1  0  0  0  0
 26 27  1  0  0  0  0
 27 23  1  0  0  0  0
 28 26  1  0  0  0  0
 29 30  1  0  0  0  0
 30 31  1  1  0  0  0
 30 32  1  0  0  0  0
 32 33  1  0  0  0  0
M  END
>  <MODEL>
7

>  <REMARK>
 VINA RESULT:      -6.3      2.994      9.253
  Name = 
  11 active torsions:
  status: ('A' for Active; 'I' for Inactive)
    1  A    between atoms: C_1  and  C_6
    2  A    between atoms: C_1  and  C_28
    3  A    between atoms: C_1  and  C_32
    4  A    between atoms: C_4  and  C_6
    5  A    between atoms: C_4  and  O_20
    6  A    between atoms: N_5  and  C_21
    7  A    between atoms: N_5  and  C_32
    8  A    between atoms: C_11  and  C_16
    9  A    between atoms: C_14  and  C_19
   10  A    between atoms: N_17  and  C_21
   11  A    between atoms: C_26  and  C_29
                            x       y       z     vdW  Elec       q    Type
                         _______ _______ _______ _____ _____    ______ ____

>  <TORSDO>
F 11

$$$$
=
 OpenBabel11062418553D

 33 36  0  0  1  0  0  0  0  0999 V2000
  190.5390  172.3370  142.0850 C   0  0  0  0  0  0  0  0  0  0  0  0
  189.2160  172.6150  142.5530 N   0  0  0  0  0  2  0  0  0  0  0  0
  190.7800  172.3220  140.8470 O   0  0  0  0  0  0  0  0  0  0  0  0
  193.3020  171.0830  144.2520 N   0  0  0  0  0  0  0  0  0  0  0  0
  191.6110  172.0720  143.0600 C   0  0  0  0  0  0  0  0  0  0  0  0
  193.1350  172.2580  144.7020 N   0  0  0  0  0  2  0  0  0  0  0  0
  192.0870  172.8920  143.9860 C   0  0  0  0  0  0  0  0  0  0  0  0
  192.3730  170.7930  143.1660 C   0  0  0  0  0  3  0  0  0  0  0  0
  192.7850  175.1260  144.7520 C   0  0  0  0  0  0  0  0  0  0  0  0
  192.4710  175.5640  146.0110 C   0  0  0  0  0  0  0  0  0  0  0  0
  193.3380  176.3650  146.7530 C   0  0  0  0  0  3  0  0  0  0  0  0
  194.8890  176.2750  144.8670 C   0  0  0  0  0  3  0  0  0  0  0  0
  191.1590  175.0460  146.3210 C   0  0  0  0  0  0  0  0  0  0  0  0
  193.9920  175.4700  144.1430 C   0  0  0  0  0  3  0  0  0  0  0  0
  190.6830  174.3540  145.3330 N   0  0  0  0  0  0  0  0  0  0  0  0
  191.6510  174.3060  144.2300 C   0  0  2  0  0  3  0  0  0  0  0  0
  194.5640  176.7190  146.1650 C   0  0  0  0  0  3  0  0  0  0  0  0
  188.9420  174.9110  147.3800 C   0  0  0  0  0  1  0  0  0  0  0  0
  190.3910  175.3130  147.5690 C   0  0  0  0  0  2  0  0  0  0  0  0
  188.1150  172.9180  141.6520 C   0  0  0  0  0  2  0  0  0  0  0  0
  187.5190  174.1900  142.0170 N   0  0  0  0  0  2  0  0  0  0  0  0
  188.2010  175.2140  141.2430 C   0  0  0  0  0  2  0  0  0  0  0  0
  188.1200  176.5750  141.9340 C   0  0  2  0  0  3  0  0  0  0  0  0
  189.6230  177.8850  144.8530 C   0  0  0  0  0  2  0  0  0  0  0  0
  188.5910  177.1870  144.2320 O   0  0  0  0  0  0  0  0  0  0  0  0
  190.2030  177.5550  142.6280 O   0  0  0  0  0  0  0  0  0  0  0  0
  189.1650  176.7090  143.0430 C   0  0  0  0  0  3  0  0  0  0  0  0
  190.6760  178.1190  143.8100 C   0  0  0  0  0  2  0  0  0  0  0  0
  186.7100  176.8980  142.4280 C   0  0  0  0  0  2  0  0  0  0  0  0
  186.1910  178.1900  141.8150 C   0  0  1  0  0  3  0  0  0  0  0  0
  185.7540  177.9200  140.3890 C   0  0  0  0  0  1  0  0  0  0  0  0
  185.1030  178.6630  142.5520 O   0  0  0  0  0  0  0  0  0  0  0  0
  185.1080  177.9090  143.7260 C   0  0  0  0  0  1  0  0  0  0  0  0
  1  2  1  0  0  0  0
  1  5  1  0  0  0  0
  3  1  2  0  0  0  0
  4  6  1  0  0  0  0
  5  8  1  0  0  0  0
  5  7  2  0  0  0  0
  7  6  1  0  0  0  0
  8  4  2  0  0  0  0
  9 10  1  0  0  0  0
 10 13  1  0  0  0  0
 10 11  2  0  0  0  0
 12 17  2  0  0  0  0
 13 19  1  0  0  0  0
 14  9  2  0  0  0  0
 14 12  1  0  0  0  0
 15 13  2  0  0  0  0
 16  7  1  1  0  0  0
 16  9  1  0  0  0  0
 16 15  1  0  0  0  0
 17 11  1  0  0  0  0
 18 19  1  0  0  0  0
 20 21  1  0  0  0  0
 20  2  1  0  0  0  0
 22 21  1  0  0  0  0
 23 22  1  1  0  0  0
 23 29  1  0  0  0  0
 23 27  1  0  0  0  0
 25 24  1  0  0  0  0
 26 27  1  0  0  0  0
 26 28  1  0  0  0  0
 27 25  1  0  0  0  0
 28 24  1  0  0  0  0
 30 31  1  6  0  0  0
 30 29  1  0  0  0  0
 30 32  1  0  0  0  0
 32 33  1  0  0  0  0
M  END
>  <MODEL>
8

>  <REMARK>
 VINA RESULT:      -6.2      3.038      7.859
  Name = 
  11 active torsions:
  status: ('A' for Active; 'I' for Inactive)
    1  A    between atoms: C_1  and  C_6
    2  A    between atoms: C_1  and  C_28
    3  A    between atoms: C_1  and  C_32
    4  A    between atoms: C_4  and  C_6
    5  A    between atoms: C_4  and  O_20
    6  A    between atoms: N_5  and  C_21
    7  A    between atoms: N_5  and  C_32
    8  A    between atoms: C_11  and  C_16
    9  A    between atoms: C_14  and  C_19
   10  A    between atoms: N_17  and  C_21
   11  A    between atoms: C_26  and  C_29
                            x       y       z     vdW  Elec       q    Type
                         _______ _______ _______ _____ _____    ______ ____

>  <TORSDO>
F 11

$$$$
=
 OpenBabel11062418553D

 33 36  0  0  1  0  0  0  0  0999 V2000
  190.1270  173.7420  144.6020 C   0  0  0  0  0  0  0  0  0  0  0  0
  189.4990  174.4690  143.5430 N   0  0  0  0  0  2  0  0  0  0  0  0
  190.0310  172.4850  144.6480 O   0  0  0  0  0  0  0  0  0  0  0  0
  191.4900  175.5540  147.5620 N   0  0  0  0  0  0  0  0  0  0  0  0
  190.8840  174.4740  145.6320 C   0  0  0  0  0  0  0  0  0  0  0  0
  192.5020  175.5110  146.7980 N   0  0  0  0  0  0  0  0  0  0  0  0
  192.1540  174.8540  145.5910 C   0  0  0  0  0  0  0  0  0  0  0  0
  190.3320  174.9180  146.9460 C   0  0  0  0  0  2  0  0  0  0  0  0
  194.2370  173.7110  144.9420 C   0  0  0  0  0  0  0  0  0  0  0  0
  195.4150  174.4020  144.8520 C   0  0  0  0  0  0  0  0  0  0  0  0
  196.6370  173.8340  145.2090 C   0  0  0  0  0  3  0  0  0  0  0  0
  195.4170  171.7900  145.7630 C   0  0  0  0  0  3  0  0  0  0  0  0
  195.0940  175.7140  144.3380 C   0  0  0  0  0  0  0  0  0  0  0  0
  194.2020  172.3910  145.3930 C   0  0  0  0  0  3  0  0  0  0  0  0
  193.8220  175.8300  144.1120 N   0  0  0  0  0  0  0  0  0  0  0  0
  193.1230  174.5910  144.4770 C   0  0  2  0  0  3  0  0  0  0  0  0
  196.6280  172.5080  145.6730 C   0  0  0  0  0  3  0  0  0  0  0  0
  196.6650  176.5680  142.6480 C   0  0  0  0  0  1  0  0  0  0  0  0
  196.0750  176.7910  144.0270 C   0  0  0  0  0  2  0  0  0  0  0  0
  188.7620  173.8140  142.4740 C   0  0  0  0  0  2  0  0  0  0  0  0
  187.7350  174.7070  141.9670 N   0  0  0  0  0  2  0  0  0  0  0  0
  187.4640  175.6760  143.0160 C   0  0  0  0  0  2  0  0  0  0  0  0
  187.4740  177.1030  142.4650 C   0  0  2  0  0  3  0  0  0  0  0  0
  190.7900  177.9430  143.3560 C   0  0  0  0  0  2  0  0  0  0  0  0
  189.8100  177.7470  142.3870 O   0  0  0  0  0  0  0  0  0  0  0  0
  188.7570  177.6170  144.4330 O   0  0  0  0  0  0  0  0  0  0  0  0
  188.6010  177.9370  143.0760 C   0  0  0  0  0  3  0  0  0  0  0  0
  190.1030  177.8650  144.6890 C   0  0  0  0  0  2  0  0  0  0  0  0
  186.1140  177.7890  142.5950 C   0  0  0  0  0  2  0  0  0  0  0  0
  185.8900  178.3120  144.0060 C   0  0  1  0  0  3  0  0  0  0  0  0
  185.5650  179.7910  143.9400 C   0  0  0  0  0  1  0  0  0  0  0  0
  184.8290  177.6290  144.6040 O   0  0  0  0  0  0  0  0  0  0  0  0
  184.4480  178.4280  145.6830 C   0  0  0  0  0  1  0  0  0  0  0  0
  1  3  2  0  0  0  0
  1  5  1  0  0  0  0
  2  1  1  0  0  0  0
  5  8  1  0  0  0  0
  6  4  2  0  0  0  0
  7  5  2  0  0  0  0
  7  6  1  0  0  0  0
  8  4  1  0  0  0  0
  9 14  1  0  0  0  0
 10  9  2  0  0  0  0
 10 11  1  0  0  0  0
 11 17  2  0  0  0  0
 13 10  1  0  0  0  0
 14 12  2  0  0  0  0
 15 13  2  0  0  0  0
 15 16  1  0  0  0  0
 16  9  1  0  0  0  0
 16  7  1  1  0  0  0
 17 12  1  0  0  0  0
 18 19  1  0  0  0  0
 19 13  1  0  0  0  0
 20  2  1  0  0  0  0
 21 20  1  0  0  0  0
 21 22  1  0  0  0  0
 23 29  1  1  0  0  0
 23 22  1  0  0  0  0
 23 27  1  0  0  0  0
 24 28  1  0  0  0  0
 25 27  1  0  0  0  0
 25 24  1  0  0  0  0
 26 28  1  0  0  0  0
 27 26  1  0  0  0  0
 29 30  1  0  0  0  0
 30 31  1  6  0  0  0
 30 32  1  0  0  0  0
 32 33  1  0  0  0  0
M  END
>  <MODEL>
9

>  <REMARK>
 VINA RESULT:      -6.2      2.667      8.710
  Name = 
  11 active torsions:
  status: ('A' for Active; 'I' for Inactive)
    1  A    between atoms: C_1  and  C_6
    2  A    between atoms: C_1  and  C_28
    3  A    between atoms: C_1  and  C_32
    4  A    between atoms: C_4  and  C_6
    5  A    between atoms: C_4  and  O_20
    6  A    between atoms: N_5  and  C_21
    7  A    between atoms: N_5  and  C_32
    8  A    between atoms: C_11  and  C_16
    9  A    between atoms: C_14  and  C_19
   10  A    between atoms: N_17  and  C_21
   11  A    between atoms: C_26  and  C_29
                            x       y       z     vdW  Elec       q    Type
                         _______ _______ _______ _____ _____    ______ ____

>  <TORSDO>
F 11

$$$$
