=
 OpenBabel11062422493D

 46 50  0  0  1  0  0  0  0  0999 V2000
  192.1950  176.0800  146.7620 O   0  0  0  0  0  0  0  0  0  0  0  0
  191.1440  177.4660  148.2190 F   0  0  0  0  0  0  0  0  0  0  0  0
  191.1460  176.1790  147.7130 C   0  0  0  0  0  0  0  0  0  0  0  0
  189.9320  175.1710  145.7490 C   0  0  0  0  0  0  0  0  0  0  0  0
  191.3600  175.3100  148.7770 F   0  0  0  0  0  0  0  0  0  0  0  0
  192.3240  174.7380  146.3580 C   0  0  0  0  0  2  0  0  0  0  0  0
  189.7660  175.8660  147.0760 C   0  0  2  0  0  3  0  0  0  0  0  0
  189.1540  175.4010  144.8300 O   0  0  0  0  0  0  0  0  0  0  0  0
  191.1080  174.2390  145.5590 C   0  0  2  0  0  3  0  0  0  0  0  0
  188.9830  177.0230  146.9610 O   0  0  0  0  0  0  0  0  0  0  0  0
  187.6880  176.6210  147.3010 C   0  0  0  0  0  2  0  0  0  0  0  0
  184.2430  178.0230  146.4030 C   0  0  0  0  0  2  0  0  0  0  0  0
  186.8650  177.8080  145.2700 C   0  0  0  0  0  2  0  0  0  0  0  0
  184.5600  178.2130  144.9290 C   0  0  0  0  0  2  0  0  0  0  0  0
  186.6730  177.6090  146.7680 C   0  0  1  0  0  3  0  0  0  0  0  0
  185.2690  177.0830  147.0290 C   0  0  0  0  0  2  0  0  0  0  0  0
  185.8960  178.7860  144.7580 N   0  0  2  0  0  0  0  0  0  0  0  0
  184.8810  178.9990  142.6330 O   0  0  0  0  0  0  0  0  0  0  0  0
  186.4190  177.5540  142.7160 C   0  0  1  0  0  3  0  0  0  0  0  0
  186.1040  178.9080  143.3220 C   0  0  2  0  0  3  0  0  0  0  0  0
  185.1170  177.7630  141.9950 C   0  0  0  0  0  2  0  0  0  0  0  0
  189.7560  177.3780  142.3260 C   0  0  0  0  0  0  0  0  0  0  0  0
  188.7860  178.2320  142.2670 N   0  0  0  0  0  0  0  0  0  0  0  0
  189.4340  176.0840  141.8510 N   0  0  0  0  0  0  0  0  0  0  0  0
  187.5990  177.5620  141.7280 C   0  0  1  0  0  3  0  0  0  0  0  0
  188.0330  176.1090  141.4750 C   0  0  0  0  0  3  0  0  0  0  0  0
  190.9970  178.1530  144.1860 O   0  0  0  0  0  1  0  0  0  0  0  0
  191.1040  177.7140  142.8650 C   0  0  0  0  0  2  0  0  0  0  0  0
  191.4080  173.8940  144.0800 C   0  0  2  0  0  3  0  0  0  0  0  0
  191.3720  172.3700  143.8610 C   0  0  0  0  0  2  0  0  0  0  0  0
  190.0720  171.9120  143.2750 C   0  0  0  0  0  0  0  0  0  0  0  0
  189.0950  171.7790  143.9900 O   0  0  0  0  0  0  0  0  0  0  0  0
  191.3400  171.4090  141.2310 C   0  0  0  0  0  2  0  0  0  0  0  0
  190.1880  173.0820  140.0880 C   0  0  2  0  0  3  0  0  0  0  0  0
  191.2220  171.9940  139.8830 C   0  0  0  0  0  2  0  0  0  0  0  0
  189.3530  172.7350  141.1590 O   0  0  0  0  0  0  0  0  0  0  0  0
  189.9640  171.6440  141.8130 C   0  0  2  0  0  3  0  0  0  0  0  0
  189.3750  173.3630  138.8540 C   0  0  0  0  0  0  0  0  0  0  0  0
  188.1560  173.3650  138.8870 O   0  0  0  0  0  0  0  0  0  0  0  0
  189.6250  172.2910  136.4730 C   0  0  0  0  0  1  0  0  0  0  0  0
  190.2220  173.7840  137.3390 S   0  0  0  0  0  0  0  0  0  0  0  0
  192.7250  174.4780  143.5630 C   0  0  0  0  0  2  0  0  0  0  0  0
  195.5670  174.7260  143.3760 O   0  0  0  0  0  0  0  0  0  0  0  0
  193.6460  173.3980  143.2270 N   0  0  0  0  0  2  0  0  0  0  0  0
  195.0460  173.6170  143.0570 C   0  0  0  0  0  0  0  0  0  0  0  0
  195.9150  172.5180  142.5350 C   0  0  0  0  0  1  0  0  0  0  0  0
  1  3  1  0  0  0  0
  3  2  1  0  0  0  0
  3  5  1  0  0  0  0
  4  7  1  0  0  0  0
  6  1  1  0  0  0  0
  7 10  1  6  0  0  0
  7  3  1  0  0  0  0
  8  4  2  0  0  0  0
  9 29  1  6  0  0  0
  9  4  1  0  0  0  0
  9  6  1  0  0  0  0
 10 11  1  0  0  0  0
 12 16  1  0  0  0  0
 13 15  1  0  0  0  0
 14 12  1  0  0  0  0
 15 16  1  0  0  0  0
 15 11  1  6  0  0  0
 17 14  1  6  0  0  0
 17 13  1  0  0  0  0
 19 21  1  6  0  0  0
 19 20  1  0  0  0  0
 20 18  1  6  0  0  0
 20 17  1  0  0  0  0
 21 18  1  0  0  0  0
 22 28  1  0  0  0  0
 23 22  2  0  0  0  0
 24 22  1  0  0  0  0
 25 26  1  1  0  0  0
 25 23  1  0  0  0  0
 25 19  1  0  0  0  0
 26 24  2  0  0  0  0
 28 27  1  0  0  0  0
 29 42  1  1  0  0  0
 30 29  1  0  0  0  0
 31 30  1  0  0  0  0
 31 32  2  0  0  0  0
 33 37  1  0  0  0  0
 34 38  1  6  0  0  0
 34 36  1  0  0  0  0
 35 34  1  0  0  0  0
 35 33  1  0  0  0  0
 36 37  1  0  0  0  0
 37 31  1  1  0  0  0
 38 39  2  0  0  0  0
 40 41  1  0  0  0  0
 41 38  1  0  0  0  0
 44 42  1  0  0  0  0
 45 44  1  0  0  0  0
 45 43  2  0  0  0  0
 46 45  1  0  0  0  0
M  END
>  <MODEL>
1

>  <REMARK>
 VINA RESULT:      -7.1      0.000      0.000
  Name = 
  14 active torsions:
  status: ('A' for Active; 'I' for Inactive)
    1  A    between atoms: C_2  and  C_7
    2  A    between atoms: C_2  and  C_31
    3  A    between atoms: C_7  and  C_42
    4  A    between atoms: C_8  and  C_9
    5  A    between atoms: C_9  and  S_16
    6  A    between atoms: C_12  and  C_28
    7  A    between atoms: N_24  and  C_39
    8  A    between atoms: C_27  and  C_33
    9  A    between atoms: O_29  and  C_30
   10  A    between atoms: O_29  and  C_35
   11  A    between atoms: C_30  and  C_36
   12  A    between atoms: C_34  and  N_44
   13  A    between atoms: C_39  and  C_42
   14  A    between atoms: C_42  and  C_43
                            x       y       z     vdW  Elec       q    Type
                         _______ _______ _______ _____ _____    ______ ____

>  <TORSDO>
F 14

$$$$
=
 OpenBabel11062422493D

 46 50  0  0  1  0  0  0  0  0999 V2000
  191.3000  175.4680  146.9210 O   0  0  0  0  0  0  0  0  0  0  0  0
  193.4600  174.7760  146.8620 F   0  0  0  0  0  0  0  0  0  0  0  0
  192.6270  175.8450  146.5880 C   0  0  0  0  0  0  0  0  0  0  0  0
  191.3930  176.4850  144.4860 C   0  0  0  0  0  0  0  0  0  0  0  0
  193.0470  176.9150  147.3690 F   0  0  0  0  0  0  0  0  0  0  0  0
  190.4610  176.5920  146.8100 C   0  0  0  0  0  2  0  0  0  0  0  0
  192.7510  176.2330  145.0910 C   0  0  2  0  0  3  0  0  0  0  0  0
  191.1660  176.1660  143.3250 O   0  0  0  0  0  0  0  0  0  0  0  0
  190.3090  177.0780  145.3580 C   0  0  2  0  0  3  0  0  0  0  0  0
  193.4680  175.2660  144.3700 O   0  0  0  0  0  0  0  0  0  0  0  0
  194.4380  175.9840  143.6660 C   0  0  0  0  0  2  0  0  0  0  0  0
  194.9790  175.6310  139.8940 C   0  0  0  0  0  2  0  0  0  0  0  0
  193.6980  174.2400  142.0460 C   0  0  0  0  0  2  0  0  0  0  0  0
  193.9260  174.5500  139.7120 C   0  0  0  0  0  2  0  0  0  0  0  0
  194.7500  175.2980  142.3530 C   0  0  1  0  0  3  0  0  0  0  0  0
  194.7680  176.3290  141.2340 C   0  0  0  0  0  2  0  0  0  0  0  0
  194.0150  173.5580  140.7850 N   0  0  2  0  0  0  0  0  0  0  0  0
  192.9750  172.1580  139.1870 O   0  0  0  0  0  0  0  0  0  0  0  0
  191.6270  173.2870  140.3560 C   0  0  1  0  0  3  0  0  0  0  0  0
  192.9610  172.5870  140.5280 C   0  0  2  0  0  3  0  0  0  0  0  0
  191.7150  172.7490  138.9560 C   0  0  0  0  0  2  0  0  0  0  0  0
  190.0010  173.0040  143.2880 C   0  0  0  0  0  0  0  0  0  0  0  0
  190.7990  172.3370  142.5190 N   0  0  0  0  0  0  0  0  0  0  0  0
  189.0400  173.7870  142.6050 N   0  0  0  0  0  0  0  0  0  0  0  0
  190.4640  172.6300  141.1220 C   0  0  1  0  0  3  0  0  0  0  0  0
  189.2970  173.6280  141.1860 C   0  0  0  0  0  3  0  0  0  0  0  0
  189.3370  171.9050  145.2770 O   0  0  0  0  0  1  0  0  0  0  0  0
  190.0870  172.9710  144.7750 C   0  0  0  0  0  2  0  0  0  0  0  0
  188.8820  176.9320  144.7770 C   0  0  2  0  0  3  0  0  0  0  0  0
  188.4770  178.2040  144.0090 C   0  0  0  0  0  2  0  0  0  0  0  0
  188.2840  177.9450  142.5460 C   0  0  0  0  0  0  0  0  0  0  0  0
  189.1890  178.1690  141.7630 O   0  0  0  0  0  0  0  0  0  0  0  0
  186.9720  177.4060  140.5380 C   0  0  0  0  0  2  0  0  0  0  0  0
  185.1160  178.4850  141.4450 C   0  0  2  0  0  3  0  0  0  0  0  0
  185.5540  177.6770  140.2410 C   0  0  0  0  0  2  0  0  0  0  0  0
  185.9110  178.1450  142.5480 O   0  0  0  0  0  0  0  0  0  0  0  0
  186.9930  177.3880  142.0500 C   0  0  2  0  0  3  0  0  0  0  0  0
  183.6570  178.3130  141.7710 C   0  0  0  0  0  0  0  0  0  0  0  0
  183.2470  178.4310  142.9140 O   0  0  0  0  0  0  0  0  0  0  0  0
  181.0520  178.3860  141.4840 C   0  0  0  0  0  1  0  0  0  0  0  0
  182.5040  178.0170  140.4400 S   0  0  0  0  0  0  0  0  0  0  0  0
  187.8210  176.5780  145.8220 C   0  0  0  0  0  2  0  0  0  0  0  0
  185.0490  176.3430  146.4830 O   0  0  0  0  0  0  0  0  0  0  0  0
  186.8940  177.6930  145.9820 N   0  0  0  0  0  2  0  0  0  0  0  0
  185.5000  177.4960  146.2170 C   0  0  0  0  0  0  0  0  0  0  0  0
  184.5670  178.6630  146.1890 C   0  0  0  0  0  1  0  0  0  0  0  0
  3  2  1  0  0  0  0
  3  1  1  0  0  0  0
  3  5  1  0  0  0  0
  4  7  1  0  0  0  0
  4  9  1  0  0  0  0
  6  1  1  0  0  0  0
  7 10  1  6  0  0  0
  7  3  1  0  0  0  0
  8  4  2  0  0  0  0
  9 29  1  6  0  0  0
  9  6  1  0  0  0  0
 11 10  1  0  0  0  0
 12 16  1  0  0  0  0
 13 15  1  0  0  0  0
 14 12  1  0  0  0  0
 15 11  1  1  0  0  0
 16 15  1  0  0  0  0
 17 14  1  6  0  0  0
 17 13  1  0  0  0  0
 19 21  1  6  0  0  0
 19 20  1  0  0  0  0
 19 25  1  0  0  0  0
 20 18  1  6  0  0  0
 20 17  1  0  0  0  0
 21 18  1  0  0  0  0
 22 28  1  0  0  0  0
 23 22  2  0  0  0  0
 24 22  1  0  0  0  0
 25 26  1  1  0  0  0
 25 23  1  0  0  0  0
 26 24  2  0  0  0  0
 28 27  1  0  0  0  0
 29 30  1  1  0  0  0
 29 42  1  0  0  0  0
 31 30  1  0  0  0  0
 32 31  2  0  0  0  0
 33 37  1  0  0  0  0
 34 38  1  1  0  0  0
 34 36  1  0  0  0  0
 35 33  1  0  0  0  0
 35 34  1  0  0  0  0
 37 31  1  1  0  0  0
 37 36  1  0  0  0  0
 38 39  2  0  0  0  0
 41 40  1  0  0  0  0
 41 38  1  0  0  0  0
 42 44  1  0  0  0  0
 44 45  1  0  0  0  0
 45 43  2  0  0  0  0
 46 45  1  0  0  0  0
M  END
>  <MODEL>
2

>  <REMARK>
 VINA RESULT:      -6.8      2.583      7.591
  Name = 
  14 active torsions:
  status: ('A' for Active; 'I' for Inactive)
    1  A    between atoms: C_2  and  C_7
    2  A    between atoms: C_2  and  C_31
    3  A    between atoms: C_7  and  C_42
    4  A    between atoms: C_8  and  C_9
    5  A    between atoms: C_9  and  S_16
    6  A    between atoms: C_12  and  C_28
    7  A    between atoms: N_24  and  C_39
    8  A    between atoms: C_27  and  C_33
    9  A    between atoms: O_29  and  C_30
   10  A    between atoms: O_29  and  C_35
   11  A    between atoms: C_30  and  C_36
   12  A    between atoms: C_34  and  N_44
   13  A    between atoms: C_39  and  C_42
   14  A    between atoms: C_42  and  C_43
                            x       y       z     vdW  Elec       q    Type
                         _______ _______ _______ _____ _____    ______ ____

>  <TORSDO>
F 14

$$$$
=
 OpenBabel11062422493D

 46 50  0  0  1  0  0  0  0  0999 V2000
  189.9990  171.9170  142.9670 O   0  0  0  0  0  0  0  0  0  0  0  0
  191.5190  170.9340  144.3350 F   0  0  0  0  0  0  0  0  0  0  0  0
  190.6060  171.9690  144.2490 C   0  0  0  0  0  0  0  0  0  0  0  0
  190.8750  174.3540  143.4830 C   0  0  0  0  0  0  0  0  0  0  0  0
  189.6610  171.7790  145.2510 F   0  0  0  0  0  0  0  0  0  0  0  0
  188.9500  172.8530  142.9170 C   0  0  0  0  0  2  0  0  0  0  0  0
  191.3270  173.3220  144.4850 C   0  0  2  0  0  3  0  0  0  0  0  0
  191.6690  175.1800  143.0470 O   0  0  0  0  0  0  0  0  0  0  0  0
  189.4480  174.3080  142.9860 C   0  0  2  0  0  3  0  0  0  0  0  0
  192.7210  173.1670  144.4760 O   0  0  0  0  0  0  0  0  0  0  0  0
  193.1290  173.4700  145.7780 C   0  0  0  0  0  2  0  0  0  0  0  0
  194.6760  176.9680  145.8800 C   0  0  0  0  0  2  0  0  0  0  0  0
  194.9270  174.5220  144.4100 C   0  0  0  0  0  2  0  0  0  0  0  0
  195.3720  176.8420  144.5350 C   0  0  0  0  0  2  0  0  0  0  0  0
  194.2160  174.5220  145.7570 C   0  0  1  0  0  3  0  0  0  0  0  0
  193.6010  175.8920  146.0020 C   0  0  0  0  0  2  0  0  0  0  0  0
  195.9990  175.5260  144.4000 N   0  0  2  0  0  0  0  0  0  0  0  0
  196.9910  176.7960  142.6690 O   0  0  0  0  0  0  0  0  0  0  0  0
  195.5550  175.3990  142.0030 C   0  0  1  0  0  3  0  0  0  0  0  0
  196.6160  175.5030  143.0810 C   0  0  2  0  0  3  0  0  0  0  0  0
  196.0550  176.7610  141.6140 C   0  0  0  0  0  2  0  0  0  0  0  0
  194.6210  172.5500  140.4730 C   0  0  0  0  0  0  0  0  0  0  0  0
  195.5160  172.9990  141.2920 N   0  0  0  0  0  0  0  0  0  0  0  0
  194.2520  173.4540  139.4480 N   0  0  0  0  0  0  0  0  0  0  0  0
  195.8700  174.3670  140.9040 C   0  0  1  0  0  3  0  0  0  0  0  0
  194.9960  174.6790  139.6780 C   0  0  0  0  0  3  0  0  0  0  0  0
  192.9230  171.2460  141.4810 O   0  0  0  0  0  1  0  0  0  0  0  0
  194.0050  171.2000  140.6000 C   0  0  0  0  0  2  0  0  0  0  0  0
  189.2000  175.1340  141.7010 C   0  0  2  0  0  3  0  0  0  0  0  0
  188.2500  176.3120  141.9890 C   0  0  0  0  0  2  0  0  0  0  0  0
  188.9250  177.4100  142.7530 C   0  0  0  0  0  0  0  0  0  0  0  0
  189.9100  177.9560  142.2910 O   0  0  0  0  0  0  0  0  0  0  0  0
  189.2100  177.2790  145.1910 C   0  0  0  0  0  2  0  0  0  0  0  0
  186.9480  176.7740  145.4420 C   0  0  2  0  0  3  0  0  0  0  0  0
  188.2070  177.0390  146.2430 C   0  0  0  0  0  2  0  0  0  0  0  0
  187.0380  177.4290  144.2060 O   0  0  0  0  0  0  0  0  0  0  0  0
  188.3770  177.8520  144.0670 C   0  0  2  0  0  3  0  0  0  0  0  0
  185.6930  177.1790  146.1650 C   0  0  0  0  0  0  0  0  0  0  0  0
  184.9150  176.3430  146.5950 O   0  0  0  0  0  0  0  0  0  0  0  0
  184.0570  179.0000  145.2250 C   0  0  0  0  0  1  0  0  0  0  0  0
  185.3910  178.9120  146.4690 S   0  0  0  0  0  0  0  0  0  0  0  0
  188.6820  174.3060  140.5230 C   0  0  0  0  0  2  0  0  0  0  0  0
  188.7310  171.8780  139.0130 O   0  0  0  0  0  0  0  0  0  0  0  0
  189.8060  173.8330  139.7210 N   0  0  0  0  0  2  0  0  0  0  0  0
  189.7950  172.5620  139.0700 C   0  0  0  0  0  0  0  0  0  0  0  0
  191.0370  172.0480  138.4180 C   0  0  0  0  0  1  0  0  0  0  0  0
  1  3  1  0  0  0  0
  3  2  1  0  0  0  0
  3  7  1  0  0  0  0
  3  5  1  0  0  0  0
  4  7  1  0  0  0  0
  6  1  1  0  0  0  0
  6  9  1  0  0  0  0
  7 10  1  6  0  0  0
  8  4  2  0  0  0  0
  9 29  1  6  0  0  0
  9  4  1  0  0  0  0
 10 11  1  0  0  0  0
 12 16  1  0  0  0  0
 13 15  1  0  0  0  0
 14 12  1  0  0  0  0
 15 11  1  6  0  0  0
 15 16  1  0  0  0  0
 17 13  1  6  0  0  0
 17 14  1  0  0  0  0
 19 21  1  6  0  0  0
 19 20  1  0  0  0  0
 20 18  1  6  0  0  0
 20 17  1  0  0  0  0
 21 18  1  0  0  0  0
 22 28  1  0  0  0  0
 22 23  2  0  0  0  0
 24 26  2  0  0  0  0
 24 22  1  0  0  0  0
 25 26  1  6  0  0  0
 25 23  1  0  0  0  0
 25 19  1  0  0  0  0
 28 27  1  0  0  0  0
 29 42  1  6  0  0  0
 29 30  1  0  0  0  0
 30 31  1  0  0  0  0
 32 31  2  0  0  0  0
 33 35  1  0  0  0  0
 34 38  1  1  0  0  0
 34 35  1  0  0  0  0
 36 34  1  0  0  0  0
 37 31  1  6  0  0  0
 37 36  1  0  0  0  0
 37 33  1  0  0  0  0
 38 41  1  0  0  0  0
 38 39  2  0  0  0  0
 40 41  1  0  0  0  0
 43 45  2  0  0  0  0
 44 42  1  0  0  0  0
 45 44  1  0  0  0  0
 46 45  1  0  0  0  0
M  END
>  <MODEL>
3

>  <REMARK>
 VINA RESULT:      -6.7      3.225      7.779
  Name = 
  14 active torsions:
  status: ('A' for Active; 'I' for Inactive)
    1  A    between atoms: C_2  and  C_7
    2  A    between atoms: C_2  and  C_31
    3  A    between atoms: C_7  and  C_42
    4  A    between atoms: C_8  and  C_9
    5  A    between atoms: C_9  and  S_16
    6  A    between atoms: C_12  and  C_28
    7  A    between atoms: N_24  and  C_39
    8  A    between atoms: C_27  and  C_33
    9  A    between atoms: O_29  and  C_30
   10  A    between atoms: O_29  and  C_35
   11  A    between atoms: C_30  and  C_36
   12  A    between atoms: C_34  and  N_44
   13  A    between atoms: C_39  and  C_42
   14  A    between atoms: C_42  and  C_43
                            x       y       z     vdW  Elec       q    Type
                         _______ _______ _______ _____ _____    ______ ____

>  <TORSDO>
F 14

$$$$
=
 OpenBabel11062422493D

 46 50  0  0  1  0  0  0  0  0999 V2000
  189.0940  171.9770  141.8920 O   0  0  0  0  0  0  0  0  0  0  0  0
  187.1550  173.1530  141.9790 F   0  0  0  0  0  0  0  0  0  0  0  0
  188.3170  172.9770  141.2510 C   0  0  0  0  0  0  0  0  0  0  0  0
  190.5570  174.1210  141.4080 C   0  0  0  0  0  0  0  0  0  0  0  0
  187.9540  172.5760  139.9710 F   0  0  0  0  0  0  0  0  0  0  0  0
  190.1990  171.6620  141.0800 C   0  0  0  0  0  2  0  0  0  0  0  0
  189.0840  174.3230  141.1590 C   0  0  2  0  0  3  0  0  0  0  0  0
  191.2040  174.9710  142.0070 O   0  0  0  0  0  0  0  0  0  0  0  0
  191.1980  172.8260  140.9610 C   0  0  2  0  0  3  0  0  0  0  0  0
  188.5390  175.2810  142.0260 O   0  0  0  0  0  0  0  0  0  0  0  0
  187.7290  176.0840  141.2170 C   0  0  0  0  0  2  0  0  0  0  0  0
  185.6680  178.9190  142.7520 C   0  0  0  0  0  2  0  0  0  0  0  0
  186.8370  176.4190  143.5200 C   0  0  0  0  0  2  0  0  0  0  0  0
  185.9010  178.4850  144.1900 C   0  0  0  0  0  2  0  0  0  0  0  0
  186.6430  176.7380  142.0430 C   0  0  1  0  0  3  0  0  0  0  0  0
  186.6930  178.2460  141.8430 C   0  0  0  0  0  2  0  0  0  0  0  0
  185.7680  177.0330  144.3180 N   0  0  2  0  0  0  0  0  0  0  0  0
  185.0930  177.3550  146.5620 O   0  0  0  0  0  0  0  0  0  0  0  0
  187.1690  177.5690  146.2440 C   0  0  1  0  0  3  0  0  0  0  0  0
  186.0260  176.7240  145.7170 C   0  0  2  0  0  3  0  0  0  0  0  0
  186.1070  178.1520  147.1320 C   0  0  0  0  0  2  0  0  0  0  0  0
  189.8190  175.4950  146.1910 C   0  0  0  0  0  0  0  0  0  0  0  0
  188.5550  175.4970  146.4690 N   0  0  0  0  0  0  0  0  0  0  0  0
  190.5040  176.6810  146.5490 N   0  0  0  0  0  0  0  0  0  0  0  0
  188.2050  176.7870  147.0720 C   0  0  1  0  0  3  0  0  0  0  0  0
  189.5150  177.5900  147.0980 C   0  0  0  0  0  3  0  0  0  0  0  0
  189.5960  173.6270  144.7560 O   0  0  0  0  0  1  0  0  0  0  0  0
  190.5050  174.3500  145.5300 C   0  0  0  0  0  2  0  0  0  0  0  0
  192.5820  172.5540  141.5980 C   0  0  2  0  0  3  0  0  0  0  0  0
  193.7050  172.7590  140.5640 C   0  0  0  0  0  2  0  0  0  0  0  0
  194.2660  174.1470  140.6060 C   0  0  0  0  0  0  0  0  0  0  0  0
  193.8850  174.9830  139.8070 O   0  0  0  0  0  0  0  0  0  0  0  0
  196.1830  173.3360  141.9140 C   0  0  0  0  0  2  0  0  0  0  0  0
  195.2130  174.1560  143.8680 C   0  0  2  0  0  3  0  0  0  0  0  0
  196.4660  173.4770  143.3540 C   0  0  0  0  0  2  0  0  0  0  0  0
  194.6310  174.9020  142.8340 O   0  0  0  0  0  0  0  0  0  0  0  0
  195.2740  174.5130  141.6410 C   0  0  2  0  0  3  0  0  0  0  0  0
  195.4650  175.0240  145.0700 C   0  0  0  0  0  0  0  0  0  0  0  0
  196.0250  174.5830  146.0610 O   0  0  0  0  0  0  0  0  0  0  0  0
  194.0780  176.6680  146.5700 C   0  0  0  0  0  1  0  0  0  0  0  0
  195.0100  176.7490  145.0020 S   0  0  0  0  0  0  0  0  0  0  0  0
  192.7020  171.1750  142.2520 C   0  0  0  0  0  2  0  0  0  0  0  0
  195.0670  170.0200  143.3700 O   0  0  0  0  0  0  0  0  0  0  0  0
  193.1400  171.3210  143.6360 N   0  0  0  0  0  2  0  0  0  0  0  0
  194.2820  170.6360  144.1490 C   0  0  0  0  0  0  0  0  0  0  0  0
  194.5780  170.6740  145.6140 C   0  0  0  0  0  1  0  0  0  0  0  0
  3  1  1  0  0  0  0
  3  2  1  0  0  0  0
  4  8  2  0  0  0  0
  5  3  1  0  0  0  0
  6  1  1  0  0  0  0
  7  3  1  0  0  0  0
  7  4  1  0  0  0  0
  7 10  1  1  0  0  0
  9  6  1  0  0  0  0
  9  4  1  0  0  0  0
  9 29  1  1  0  0  0
 11 10  1  0  0  0  0
 12 14  1  0  0  0  0
 14 17  1  0  0  0  0
 15 11  1  6  0  0  0
 15 13  1  0  0  0  0
 16 15  1  0  0  0  0
 16 12  1  0  0  0  0
 17 13  1  6  0  0  0
 17 20  1  0  0  0  0
 18 21  1  0  0  0  0
 19 25  1  0  0  0  0
 19 21  1  1  0  0  0
 20 19  1  0  0  0  0
 20 18  1  1  0  0  0
 22 23  2  0  0  0  0
 22 24  1  0  0  0  0
 23 25  1  0  0  0  0
 24 26  2  0  0  0  0
 25 26  1  6  0  0  0
 27 28  1  0  0  0  0
 28 22  1  0  0  0  0
 29 30  1  6  0  0  0
 29 42  1  0  0  0  0
 30 31  1  0  0  0  0
 32 31  2  0  0  0  0
 33 35  1  0  0  0  0
 34 38  1  1  0  0  0
 35 34  1  0  0  0  0
 36 34  1  0  0  0  0
 37 31  1  6  0  0  0
 37 33  1  0  0  0  0
 37 36  1  0  0  0  0
 38 39  2  0  0  0  0
 41 38  1  0  0  0  0
 41 40  1  0  0  0  0
 42 44  1  0  0  0  0
 43 45  2  0  0  0  0
 44 45  1  0  0  0  0
 45 46  1  0  0  0  0
M  END
>  <MODEL>
4

>  <REMARK>
 VINA RESULT:      -6.7      3.240      5.865
  Name = 
  14 active torsions:
  status: ('A' for Active; 'I' for Inactive)
    1  A    between atoms: C_2  and  C_7
    2  A    between atoms: C_2  and  C_31
    3  A    between atoms: C_7  and  C_42
    4  A    between atoms: C_8  and  C_9
    5  A    between atoms: C_9  and  S_16
    6  A    between atoms: C_12  and  C_28
    7  A    between atoms: N_24  and  C_39
    8  A    between atoms: C_27  and  C_33
    9  A    between atoms: O_29  and  C_30
   10  A    between atoms: O_29  and  C_35
   11  A    between atoms: C_30  and  C_36
   12  A    between atoms: C_34  and  N_44
   13  A    between atoms: C_39  and  C_42
   14  A    between atoms: C_42  and  C_43
                            x       y       z     vdW  Elec       q    Type
                         _______ _______ _______ _____ _____    ______ ____

>  <TORSDO>
F 14

$$$$
=
 OpenBabel11062422493D

 46 50  0  0  1  0  0  0  0  0999 V2000
  191.9960  176.9050  146.5850 O   0  0  0  0  0  0  0  0  0  0  0  0
  190.0300  177.8060  147.2710 F   0  0  0  0  0  0  0  0  0  0  0  0
  190.8180  176.6710  147.3410 C   0  0  0  0  0  0  0  0  0  0  0  0
  190.8860  174.6130  145.8890 C   0  0  0  0  0  0  0  0  0  0  0  0
  191.1240  176.4540  148.6780 F   0  0  0  0  0  0  0  0  0  0  0  0
  192.8870  175.8330  146.7780 C   0  0  0  0  0  2  0  0  0  0  0  0
  190.0260  175.4520  146.7990 C   0  0  2  0  0  3  0  0  0  0  0  0
  190.3960  174.0660  144.9080 O   0  0  0  0  0  0  0  0  0  0  0  0
  192.3670  174.5150  146.1760 C   0  0  2  0  0  3  0  0  0  0  0  0
  188.8400  175.8530  146.1670 O   0  0  0  0  0  0  0  0  0  0  0  0
  187.9240  176.0520  147.2050 C   0  0  0  0  0  2  0  0  0  0  0  0
  184.5000  177.6490  146.5990 C   0  0  0  0  0  2  0  0  0  0  0  0
  187.0780  177.4950  145.3580 C   0  0  0  0  0  2  0  0  0  0  0  0
  184.7770  178.0040  145.1470 C   0  0  0  0  0  2  0  0  0  0  0  0
  186.9260  177.1240  146.8270 C   0  0  1  0  0  3  0  0  0  0  0  0
  185.5140  176.6120  147.0740 C   0  0  0  0  0  2  0  0  0  0  0  0
  186.1250  178.5540  144.9980 N   0  0  2  0  0  0  0  0  0  0  0  0
  185.0670  179.1820  142.9790 O   0  0  0  0  0  0  0  0  0  0  0  0
  186.3960  177.5510  142.7900 C   0  0  1  0  0  3  0  0  0  0  0  0
  186.2930  178.8410  143.5810 C   0  0  2  0  0  3  0  0  0  0  0  0
  185.1080  178.0230  142.1760 C   0  0  0  0  0  2  0  0  0  0  0  0
  189.7070  177.3160  142.2390 C   0  0  0  0  0  0  0  0  0  0  0  0
  188.7510  178.1870  142.2260 N   0  0  0  0  0  0  0  0  0  0  0  0
  189.3400  176.0280  141.7810 N   0  0  0  0  0  0  0  0  0  0  0  0
  187.5270  177.5390  141.7450 C   0  0  1  0  0  3  0  0  0  0  0  0
  187.9220  176.0790  141.4730 C   0  0  0  0  0  3  0  0  0  0  0  0
  191.7800  176.4460  142.9780 O   0  0  0  0  0  1  0  0  0  0  0  0
  191.0850  177.6270  142.7120 C   0  0  0  0  0  2  0  0  0  0  0  0
  193.2060  173.9740  144.9930 C   0  0  2  0  0  3  0  0  0  0  0  0
  193.2310  172.4340  145.0070 C   0  0  0  0  0  2  0  0  0  0  0  0
  193.9400  171.8690  143.8140 C   0  0  0  0  0  0  0  0  0  0  0  0
  195.0720  171.4370  143.9270 O   0  0  0  0  0  0  0  0  0  0  0  0
  193.8510  172.8310  141.5540 C   0  0  0  0  0  2  0  0  0  0  0  0
  191.5400  173.0710  141.7320 C   0  0  2  0  0  3  0  0  0  0  0  0
  192.6870  173.2610  140.7600 C   0  0  0  0  0  2  0  0  0  0  0  0
  191.8710  172.0660  142.6510 O   0  0  0  0  0  0  0  0  0  0  0  0
  193.2500  171.8110  142.4940 C   0  0  2  0  0  3  0  0  0  0  0  0
  190.2360  172.7570  141.0510 C   0  0  0  0  0  0  0  0  0  0  0  0
  189.2980  172.2820  141.6700 O   0  0  0  0  0  0  0  0  0  0  0  0
  188.2820  172.6820  139.3030 C   0  0  0  0  0  1  0  0  0  0  0  0
  190.0420  173.1700  139.3240 S   0  0  0  0  0  0  0  0  0  0  0  0
  194.6300  174.5320  144.9370 C   0  0  0  0  0  2  0  0  0  0  0  0
  196.9500  174.7030  143.2760 O   0  0  0  0  0  0  0  0  0  0  0  0
  194.7730  175.4020  143.7750 N   0  0  0  0  0  2  0  0  0  0  0  0
  195.9980  175.5050  143.0480 C   0  0  0  0  0  0  0  0  0  0  0  0
  196.1480  176.5430  141.9840 C   0  0  0  0  0  1  0  0  0  0  0  0
  1  6  1  0  0  0  0
  1  3  1  0  0  0  0
  2  3  1  0  0  0  0
  3  5  1  0  0  0  0
  4  9  1  0  0  0  0
  4  7  1  0  0  0  0
  7 10  1  6  0  0  0
  7  3  1  0  0  0  0
  8  4  2  0  0  0  0
  9 29  1  6  0  0  0
  9  6  1  0  0  0  0
 10 11  1  0  0  0  0
 12 16  1  0  0  0  0
 13 15  1  0  0  0  0
 14 12  1  0  0  0  0
 15 16  1  0  0  0  0
 15 11  1  6  0  0  0
 17 14  1  6  0  0  0
 17 13  1  0  0  0  0
 19 21  1  6  0  0  0
 19 20  1  0  0  0  0
 20 18  1  6  0  0  0
 20 17  1  0  0  0  0
 21 18  1  0  0  0  0
 22 28  1  0  0  0  0
 23 22  2  0  0  0  0
 24 22  1  0  0  0  0
 25 26  1  1  0  0  0
 25 23  1  0  0  0  0
 25 19  1  0  0  0  0
 26 24  2  0  0  0  0
 28 27  1  0  0  0  0
 29 42  1  1  0  0  0
 29 30  1  0  0  0  0
 31 32  2  0  0  0  0
 31 30  1  0  0  0  0
 33 37  1  0  0  0  0
 34 38  1  6  0  0  0
 34 36  1  0  0  0  0
 35 33  1  0  0  0  0
 35 34  1  0  0  0  0
 37 36  1  0  0  0  0
 37 31  1  1  0  0  0
 38 39  2  0  0  0  0
 40 41  1  0  0  0  0
 41 38  1  0  0  0  0
 44 42  1  0  0  0  0
 45 43  2  0  0  0  0
 45 44  1  0  0  0  0
 46 45  1  0  0  0  0
M  END
>  <MODEL>
5

>  <REMARK>
 VINA RESULT:      -6.6      1.508      2.005
  Name = 
  14 active torsions:
  status: ('A' for Active; 'I' for Inactive)
    1  A    between atoms: C_2  and  C_7
    2  A    between atoms: C_2  and  C_31
    3  A    between atoms: C_7  and  C_42
    4  A    between atoms: C_8  and  C_9
    5  A    between atoms: C_9  and  S_16
    6  A    between atoms: C_12  and  C_28
    7  A    between atoms: N_24  and  C_39
    8  A    between atoms: C_27  and  C_33
    9  A    between atoms: O_29  and  C_30
   10  A    between atoms: O_29  and  C_35
   11  A    between atoms: C_30  and  C_36
   12  A    between atoms: C_34  and  N_44
   13  A    between atoms: C_39  and  C_42
   14  A    between atoms: C_42  and  C_43
                            x       y       z     vdW  Elec       q    Type
                         _______ _______ _______ _____ _____    ______ ____

>  <TORSDO>
F 14

$$$$
=
 OpenBabel11062422493D

 46 50  0  0  1  0  0  0  0  0999 V2000
  191.2840  175.5540  147.3250 O   0  0  0  0  0  0  0  0  0  0  0  0
  193.2470  174.4280  147.1550 F   0  0  0  0  0  0  0  0  0  0  0  0
  192.5720  175.5560  146.7260 C   0  0  0  0  0  0  0  0  0  0  0  0
  191.0970  175.9410  144.7200 C   0  0  0  0  0  0  0  0  0  0  0  0
  193.3040  176.6640  147.1350 F   0  0  0  0  0  0  0  0  0  0  0  0
  190.6430  176.7730  147.0400 C   0  0  0  0  0  2  0  0  0  0  0  0
  192.4810  175.5540  145.1780 C   0  0  2  0  0  3  0  0  0  0  0  0
  190.6080  175.4190  143.7250 O   0  0  0  0  0  0  0  0  0  0  0  0
  190.3100  176.9340  145.5460 C   0  0  2  0  0  3  0  0  0  0  0  0
  192.8770  174.3190  144.6450 O   0  0  0  0  0  0  0  0  0  0  0  0
  194.0470  174.5900  143.9300 C   0  0  0  0  0  2  0  0  0  0  0  0
  193.7140  174.4180  140.1220 C   0  0  0  0  0  2  0  0  0  0  0  0
  192.7710  173.0430  142.4510 C   0  0  0  0  0  2  0  0  0  0  0  0
  192.5250  173.4720  140.1380 C   0  0  0  0  0  2  0  0  0  0  0  0
  193.9830  173.9590  142.5570 C   0  0  1  0  0  3  0  0  0  0  0  0
  193.8820  175.0500  141.5010 C   0  0  0  0  0  2  0  0  0  0  0  0
  192.7240  172.4100  141.1260 N   0  0  2  0  0  0  0  0  0  0  0  0
  191.7730  170.3000  141.6120 O   0  0  0  0  0  0  0  0  0  0  0  0
  191.3350  171.0220  139.6760 C   0  0  1  0  0  3  0  0  0  0  0  0
  191.5310  171.5780  141.0730 C   0  0  2  0  0  3  0  0  0  0  0  0
  191.5660  169.7000  140.3530 C   0  0  0  0  0  2  0  0  0  0  0  0
  188.8620  173.0500  138.6310 C   0  0  0  0  0  0  0  0  0  0  0  0
  189.1910  172.3130  139.6420 N   0  0  0  0  0  0  0  0  0  0  0  0
  189.2290  172.5210  137.3700 N   0  0  0  0  0  0  0  0  0  0  0  0
  189.8910  171.1220  139.1510 C   0  0  1  0  0  3  0  0  0  0  0  0
  189.9380  171.2810  137.6230 C   0  0  0  0  0  3  0  0  0  0  0  0
  187.7950  174.8440  137.5150 O   0  0  0  0  0  1  0  0  0  0  0  0
  188.1690  174.3620  138.7710 C   0  0  0  0  0  2  0  0  0  0  0  0
  188.7960  176.9620  145.2230 C   0  0  2  0  0  3  0  0  0  0  0  0
  188.4490  178.1890  144.3600 C   0  0  0  0  0  2  0  0  0  0  0  0
  188.3290  177.8440  142.9070 C   0  0  0  0  0  0  0  0  0  0  0  0
  189.2850  177.9820  142.1670 O   0  0  0  0  0  0  0  0  0  0  0  0
  187.0890  177.2800  140.8610 C   0  0  0  0  0  2  0  0  0  0  0  0
  185.2250  178.4310  141.6570 C   0  0  2  0  0  3  0  0  0  0  0  0
  185.6930  177.5780  140.4950 C   0  0  0  0  0  2  0  0  0  0  0  0
  185.9640  178.1020  142.8020 O   0  0  0  0  0  0  0  0  0  0  0  0
  187.0460  177.3050  142.3720 C   0  0  2  0  0  3  0  0  0  0  0  0
  183.7500  178.3040  141.9240 C   0  0  0  0  0  0  0  0  0  0  0  0
  183.3100  178.3300  143.0620 O   0  0  0  0  0  0  0  0  0  0  0  0
  181.1470  178.3110  141.6040 C   0  0  0  0  0  1  0  0  0  0  0  0
  182.6270  178.2020  140.5400 S   0  0  0  0  0  0  0  0  0  0  0  0
  187.8990  176.9090  146.4620 C   0  0  0  0  0  2  0  0  0  0  0  0
  186.1780  178.6510  147.9390 O   0  0  0  0  0  0  0  0  0  0  0  0
  186.5290  177.2530  146.0940 N   0  0  0  0  0  2  0  0  0  0  0  0
  185.6950  178.0550  146.9320 C   0  0  0  0  0  0  0  0  0  0  0  0
  184.2480  178.2240  146.5990 C   0  0  0  0  0  1  0  0  0  0  0  0
  3  5  1  0  0  0  0
  3  2  1  0  0  0  0
  3  1  1  0  0  0  0
  4  7  1  0  0  0  0
  4  9  1  0  0  0  0
  6  1  1  0  0  0  0
  7 10  1  1  0  0  0
  7  3  1  0  0  0  0
  8  4  2  0  0  0  0
  9 29  1  1  0  0  0
  9  6  1  0  0  0  0
 11 10  1  0  0  0  0
 12 14  1  0  0  0  0
 12 16  1  0  0  0  0
 13 15  1  0  0  0  0
 15 11  1  1  0  0  0
 16 15  1  0  0  0  0
 17 14  1  6  0  0  0
 17 13  1  0  0  0  0
 19 21  1  1  0  0  0
 19 20  1  0  0  0  0
 20 17  1  0  0  0  0
 20 18  1  1  0  0  0
 21 18  1  0  0  0  0
 22 28  1  0  0  0  0
 22 23  2  0  0  0  0
 24 26  2  0  0  0  0
 24 22  1  0  0  0  0
 25 26  1  6  0  0  0
 25 23  1  0  0  0  0
 25 19  1  0  0  0  0
 27 28  1  0  0  0  0
 29 30  1  1  0  0  0
 29 42  1  0  0  0  0
 31 30  1  0  0  0  0
 32 31  2  0  0  0  0
 33 37  1  0  0  0  0
 34 38  1  1  0  0  0
 34 36  1  0  0  0  0
 35 33  1  0  0  0  0
 35 34  1  0  0  0  0
 37 36  1  0  0  0  0
 37 31  1  1  0  0  0
 38 39  2  0  0  0  0
 41 40  1  0  0  0  0
 41 38  1  0  0  0  0
 44 42  1  0  0  0  0
 44 45  1  0  0  0  0
 45 43  2  0  0  0  0
 46 45  1  0  0  0  0
M  END
>  <MODEL>
6

>  <REMARK>
 VINA RESULT:      -6.6      2.564      7.730
  Name = 
  14 active torsions:
  status: ('A' for Active; 'I' for Inactive)
    1  A    between atoms: C_2  and  C_7
    2  A    between atoms: C_2  and  C_31
    3  A    between atoms: C_7  and  C_42
    4  A    between atoms: C_8  and  C_9
    5  A    between atoms: C_9  and  S_16
    6  A    between atoms: C_12  and  C_28
    7  A    between atoms: N_24  and  C_39
    8  A    between atoms: C_27  and  C_33
    9  A    between atoms: O_29  and  C_30
   10  A    between atoms: O_29  and  C_35
   11  A    between atoms: C_30  and  C_36
   12  A    between atoms: C_34  and  N_44
   13  A    between atoms: C_39  and  C_42
   14  A    between atoms: C_42  and  C_43
                            x       y       z     vdW  Elec       q    Type
                         _______ _______ _______ _____ _____    ______ ____

>  <TORSDO>
F 14

$$$$
=
 OpenBabel11062422493D

 46 50  0  0  1  0  0  0  0  0999 V2000
  189.9430  171.9030  142.7320 O   0  0  0  0  0  0  0  0  0  0  0  0
  191.3850  171.3340  144.3890 F   0  0  0  0  0  0  0  0  0  0  0  0
  190.3510  172.1920  144.0600 C   0  0  0  0  0  0  0  0  0  0  0  0
  190.3740  174.4910  143.0290 C   0  0  0  0  0  0  0  0  0  0  0  0
  189.3140  171.9630  144.9570 F   0  0  0  0  0  0  0  0  0  0  0  0
  188.7860  172.6470  142.4350 C   0  0  0  0  0  2  0  0  0  0  0  0
  190.8280  173.6620  144.2040 C   0  0  2  0  0  3  0  0  0  0  0  0
  191.0920  175.3810  142.5890 O   0  0  0  0  0  0  0  0  0  0  0  0
  189.0520  174.1610  142.3740 C   0  0  2  0  0  3  0  0  0  0  0  0
  192.2170  173.7330  144.3830 O   0  0  0  0  0  0  0  0  0  0  0  0
  192.3920  174.1280  145.7130 C   0  0  0  0  0  2  0  0  0  0  0  0
  194.5750  177.2640  145.4990 C   0  0  0  0  0  2  0  0  0  0  0  0
  194.7390  174.4580  144.9410 C   0  0  0  0  0  2  0  0  0  0  0  0
  195.6370  176.6230  144.6210 C   0  0  0  0  0  2  0  0  0  0  0  0
  193.6330  174.9830  145.8480 C   0  0  1  0  0  3  0  0  0  0  0  0
  193.3050  176.4180  145.4630 C   0  0  0  0  0  2  0  0  0  0  0  0
  195.9510  175.2730  145.0930 N   0  0  2  0  0  0  0  0  0  0  0  0
  197.0220  175.5090  142.9980 O   0  0  0  0  0  0  0  0  0  0  0  0
  196.4210  173.5350  143.4450 C   0  0  1  0  0  3  0  0  0  0  0  0
  196.9560  174.7480  144.1800 C   0  0  2  0  0  3  0  0  0  0  0  0
  196.5660  174.4130  142.2340 C   0  0  0  0  0  2  0  0  0  0  0  0
  197.3010  170.5470  144.7180 C   0  0  0  0  0  0  0  0  0  0  0  0
  197.6900  171.7810  144.7010 N   0  0  0  0  0  0  0  0  0  0  0  0
  196.7460  170.0860  143.5000 N   0  0  0  0  0  0  0  0  0  0  0  0
  197.4010  172.3500  143.3810 C   0  0  1  0  0  3  0  0  0  0  0  0
  196.7410  171.2130  142.5850 C   0  0  0  0  0  3  0  0  0  0  0  0
  196.4380  170.0330  146.8600 O   0  0  0  0  0  1  0  0  0  0  0  0
  197.4080  169.6760  145.9220 C   0  0  0  0  0  2  0  0  0  0  0  0
  188.8670  174.7910  140.9730 C   0  0  2  0  0  3  0  0  0  0  0  0
  187.6380  175.7190  140.9530 C   0  0  0  0  0  2  0  0  0  0  0  0
  187.7850  176.8720  141.8980 C   0  0  0  0  0  0  0  0  0  0  0  0
  188.5510  177.7810  141.6350 O   0  0  0  0  0  0  0  0  0  0  0  0
  186.4420  178.3200  143.3620 C   0  0  0  0  0  2  0  0  0  0  0  0
  187.6080  177.5420  145.2240 C   0  0  2  0  0  3  0  0  0  0  0  0
  186.4600  178.4490  144.8300 C   0  0  0  0  0  2  0  0  0  0  0  0
  187.7610  176.5400  144.2560 O   0  0  0  0  0  0  0  0  0  0  0  0
  186.9750  176.9210  143.1490 C   0  0  2  0  0  3  0  0  0  0  0  0
  187.4370  176.9360  146.5900 C   0  0  0  0  0  0  0  0  0  0  0  0
  186.5130  177.2650  147.3160 O   0  0  0  0  0  0  0  0  0  0  0  0
  190.0120  176.7640  147.0590 C   0  0  0  0  0  1  0  0  0  0  0  0
  188.5640  175.6530  147.1140 S   0  0  0  0  0  0  0  0  0  0  0  0
  188.7810  173.7650  139.8400 C   0  0  0  0  0  2  0  0  0  0  0  0
  189.7030  171.2050  138.9630 O   0  0  0  0  0  0  0  0  0  0  0  0
  190.1180  173.4790  139.3310 N   0  0  0  0  0  2  0  0  0  0  0  0
  190.5390  172.1550  139.0020 C   0  0  0  0  0  0  0  0  0  0  0  0
  191.9700  171.8910  138.6620 C   0  0  0  0  0  1  0  0  0  0  0  0
  1  3  1  0  0  0  0
  3  7  1  0  0  0  0
  3  2  1  0  0  0  0
  3  5  1  0  0  0  0
  4  7  1  0  0  0  0
  6  1  1  0  0  0  0
  7 10  1  6  0  0  0
  8  4  2  0  0  0  0
  9 29  1  6  0  0  0
  9  6  1  0  0  0  0
  9  4  1  0  0  0  0
 10 11  1  0  0  0  0
 13 17  1  0  0  0  0
 13 15  1  0  0  0  0
 14 12  1  0  0  0  0
 15 11  1  6  0  0  0
 16 12  1  0  0  0  0
 16 15  1  0  0  0  0
 17 14  1  6  0  0  0
 19 21  1  6  0  0  0
 19 20  1  0  0  0  0
 20 18  1  6  0  0  0
 20 17  1  0  0  0  0
 21 18  1  0  0  0  0
 22 28  1  0  0  0  0
 23 22  2  0  0  0  0
 24 22  1  0  0  0  0
 25 26  1  6  0  0  0
 25 19  1  0  0  0  0
 25 23  1  0  0  0  0
 26 24  2  0  0  0  0
 28 27  1  0  0  0  0
 29 42  1  6  0  0  0
 30 29  1  0  0  0  0
 30 31  1  0  0  0  0
 32 31  2  0  0  0  0
 33 35  1  0  0  0  0
 34 38  1  1  0  0  0
 35 34  1  0  0  0  0
 36 34  1  0  0  0  0
 37 31  1  6  0  0  0
 37 33  1  0  0  0  0
 37 36  1  0  0  0  0
 38 41  1  0  0  0  0
 38 39  2  0  0  0  0
 40 41  1  0  0  0  0
 43 45  2  0  0  0  0
 44 42  1  0  0  0  0
 45 44  1  0  0  0  0
 46 45  1  0  0  0  0
M  END
>  <MODEL>
7

>  <REMARK>
 VINA RESULT:      -6.4      3.147      8.286
  Name = 
  14 active torsions:
  status: ('A' for Active; 'I' for Inactive)
    1  A    between atoms: C_2  and  C_7
    2  A    between atoms: C_2  and  C_31
    3  A    between atoms: C_7  and  C_42
    4  A    between atoms: C_8  and  C_9
    5  A    between atoms: C_9  and  S_16
    6  A    between atoms: C_12  and  C_28
    7  A    between atoms: N_24  and  C_39
    8  A    between atoms: C_27  and  C_33
    9  A    between atoms: O_29  and  C_30
   10  A    between atoms: O_29  and  C_35
   11  A    between atoms: C_30  and  C_36
   12  A    between atoms: C_34  and  N_44
   13  A    between atoms: C_39  and  C_42
   14  A    between atoms: C_42  and  C_43
                            x       y       z     vdW  Elec       q    Type
                         _______ _______ _______ _____ _____    ______ ____

>  <TORSDO>
F 14

$$$$
=
 OpenBabel11062422493D

 46 50  0  0  1  0  0  0  0  0999 V2000
  192.6470  175.4860  147.0280 O   0  0  0  0  0  0  0  0  0  0  0  0
  194.8090  175.2720  146.3760 F   0  0  0  0  0  0  0  0  0  0  0  0
  193.7550  176.1640  146.4580 C   0  0  0  0  0  0  0  0  0  0  0  0
  191.9340  176.7320  144.8120 C   0  0  0  0  0  0  0  0  0  0  0  0
  194.1600  177.2180  147.2700 F   0  0  0  0  0  0  0  0  0  0  0  0
  191.6180  176.4130  147.2780 C   0  0  0  0  0  2  0  0  0  0  0  0
  193.4240  176.7130  145.0460 C   0  0  2  0  0  3  0  0  0  0  0  0
  191.4810  176.4870  143.7000 O   0  0  0  0  0  0  0  0  0  0  0  0
  191.0180  176.9960  145.9860 C   0  0  2  0  0  3  0  0  0  0  0  0
  194.0960  175.9930  144.0470 O   0  0  0  0  0  0  0  0  0  0  0  0
  195.2790  176.7030  143.8220 C   0  0  0  0  0  2  0  0  0  0  0  0
  197.3350  175.6410  140.7750 C   0  0  0  0  0  2  0  0  0  0  0  0
  195.6960  174.4650  142.8090 C   0  0  0  0  0  2  0  0  0  0  0  0
  196.7430  174.2430  140.6990 C   0  0  0  0  0  2  0  0  0  0  0  0
  196.2430  175.8730  143.0030 C   0  0  1  0  0  3  0  0  0  0  0  0
  196.4460  176.5260  141.6430 C   0  0  0  0  0  2  0  0  0  0  0  0
  196.6440  173.6520  142.0350 N   0  0  2  0  0  0  0  0  0  0  0  0
  195.3260  172.2600  140.6500 O   0  0  0  0  0  0  0  0  0  0  0  0
  194.7990  172.1950  142.6940 C   0  0  1  0  0  3  0  0  0  0  0  0
  196.0530  172.3340  141.8530 C   0  0  2  0  0  3  0  0  0  0  0  0
  194.1190  172.0860  141.3590 C   0  0  0  0  0  2  0  0  0  0  0  0
  195.8350  170.4120  145.3530 C   0  0  0  0  0  0  0  0  0  0  0  0
  195.9760  170.4650  144.0680 N   0  0  0  0  0  0  0  0  0  0  0  0
  194.5340  170.7200  145.8170 N   0  0  0  0  0  0  0  0  0  0  0  0
  194.7000  170.8680  143.4680 C   0  0  1  0  0  3  0  0  0  0  0  0
  193.7400  171.0650  144.6520 C   0  0  0  0  0  3  0  0  0  0  0  0
  197.1660  168.6920  146.2860 O   0  0  0  0  0  1  0  0  0  0  0  0
  196.9500  170.0710  146.2810 C   0  0  0  0  0  2  0  0  0  0  0  0
  189.5410  176.6100  145.7320 C   0  0  2  0  0  3  0  0  0  0  0  0
  188.6090  177.3830  146.6840 C   0  0  0  0  0  2  0  0  0  0  0  0
  187.1950  177.4130  146.1910 C   0  0  0  0  0  0  0  0  0  0  0  0
  186.3360  176.7660  146.7610 O   0  0  0  0  0  0  0  0  0  0  0  0
  185.5560  179.0150  145.3010 C   0  0  0  0  0  2  0  0  0  0  0  0
  185.4150  177.7920  143.3220 C   0  0  2  0  0  3  0  0  0  0  0  0
  184.9070  179.0600  143.9790 C   0  0  0  0  0  2  0  0  0  0  0  0
  186.6590  177.4510  143.8710 O   0  0  0  0  0  0  0  0  0  0  0  0
  186.8320  178.2560  145.0160 C   0  0  2  0  0  3  0  0  0  0  0  0
  185.5090  177.9020  141.8250 C   0  0  0  0  0  0  0  0  0  0  0  0
  184.5670  178.3010  141.1600 O   0  0  0  0  0  0  0  0  0  0  0  0
  186.3180  177.5340  139.3570 C   0  0  0  0  0  1  0  0  0  0  0  0
  187.0590  177.5190  141.0260 S   0  0  0  0  0  0  0  0  0  0  0  0
  189.2690  175.1060  145.8220 C   0  0  0  0  0  2  0  0  0  0  0  0
  190.4840  172.7480  144.7540 O   0  0  0  0  0  0  0  0  0  0  0  0
  189.0350  174.5670  144.4870 N   0  0  0  0  0  2  0  0  0  0  0  0
  189.7510  173.4380  143.9860 C   0  0  0  0  0  0  0  0  0  0  0  0
  189.6080  173.0400  142.5530 C   0  0  0  0  0  1  0  0  0  0  0  0
  1  6  1  0  0  0  0
  2  3  1  0  0  0  0
  3  1  1  0  0  0  0
  3  5  1  0  0  0  0
  4  7  1  0  0  0  0
  4  9  1  0  0  0  0
  7 10  1  6  0  0  0
  7  3  1  0  0  0  0
  8  4  2  0  0  0  0
  9 29  1  6  0  0  0
  9  6  1  0  0  0  0
 11 10  1  0  0  0  0
 12 16  1  0  0  0  0
 13 15  1  0  0  0  0
 14 12  1  0  0  0  0
 15 11  1  1  0  0  0
 16 15  1  0  0  0  0
 17 14  1  6  0  0  0
 17 13  1  0  0  0  0
 18 21  1  0  0  0  0
 19 21  1  6  0  0  0
 19 25  1  0  0  0  0
 20 18  1  6  0  0  0
 20 17  1  0  0  0  0
 20 19  1  0  0  0  0
 22 24  1  0  0  0  0
 22 28  1  0  0  0  0
 23 22  2  0  0  0  0
 25 23  1  0  0  0  0
 25 26  1  1  0  0  0
 26 24  2  0  0  0  0
 28 27  1  0  0  0  0
 29 42  1  1  0  0  0
 29 30  1  0  0  0  0
 31 30  1  0  0  0  0
 31 32  2  0  0  0  0
 34 38  1  6  0  0  0
 34 36  1  0  0  0  0
 34 35  1  0  0  0  0
 35 33  1  0  0  0  0
 36 37  1  0  0  0  0
 37 33  1  0  0  0  0
 37 31  1  1  0  0  0
 39 38  2  0  0  0  0
 40 41  1  0  0  0  0
 41 38  1  0  0  0  0
 44 42  1  0  0  0  0
 45 44  1  0  0  0  0
 45 43  2  0  0  0  0
 46 45  1  0  0  0  0
M  END
>  <MODEL>
8

>  <REMARK>
 VINA RESULT:      -6.4      2.820      8.232
  Name = 
  14 active torsions:
  status: ('A' for Active; 'I' for Inactive)
    1  A    between atoms: C_2  and  C_7
    2  A    between atoms: C_2  and  C_31
    3  A    between atoms: C_7  and  C_42
    4  A    between atoms: C_8  and  C_9
    5  A    between atoms: C_9  and  S_16
    6  A    between atoms: C_12  and  C_28
    7  A    between atoms: N_24  and  C_39
    8  A    between atoms: C_27  and  C_33
    9  A    between atoms: O_29  and  C_30
   10  A    between atoms: O_29  and  C_35
   11  A    between atoms: C_30  and  C_36
   12  A    between atoms: C_34  and  N_44
   13  A    between atoms: C_39  and  C_42
   14  A    between atoms: C_42  and  C_43
                            x       y       z     vdW  Elec       q    Type
                         _______ _______ _______ _____ _____    ______ ____

>  <TORSDO>
F 14

$$$$
=
 OpenBabel11062422493D

 46 50  0  0  1  0  0  0  0  0999 V2000
  194.7700  175.6820  144.8640 O   0  0  0  0  0  0  0  0  0  0  0  0
  196.3020  174.9240  143.3720 F   0  0  0  0  0  0  0  0  0  0  0  0
  195.3900  175.9360  143.6130 C   0  0  0  0  0  0  0  0  0  0  0  0
  192.9540  176.1480  143.0050 C   0  0  0  0  0  0  0  0  0  0  0  0
  196.0920  177.1340  143.6440 F   0  0  0  0  0  0  0  0  0  0  0  0
  193.9630  176.7820  145.2090 C   0  0  0  0  0  2  0  0  0  0  0  0
  194.3520  175.9880  142.4620 C   0  0  2  0  0  3  0  0  0  0  0  0
  192.0110  175.5940  142.4530 O   0  0  0  0  0  0  0  0  0  0  0  0
  192.7540  176.9490  144.2710 C   0  0  2  0  0  3  0  0  0  0  0  0
  194.4580  174.8660  141.6260 O   0  0  0  0  0  0  0  0  0  0  0  0
  194.7680  175.3810  140.3640 C   0  0  0  0  0  2  0  0  0  0  0  0
  193.6730  174.2610  136.8740 C   0  0  0  0  0  2  0  0  0  0  0  0
  192.9050  173.9070  139.6110 C   0  0  0  0  0  2  0  0  0  0  0  0
  192.3230  173.7290  137.3250 C   0  0  0  0  0  2  0  0  0  0  0  0
  194.2940  174.4370  139.2810 C   0  0  1  0  0  3  0  0  0  0  0  0
  194.2470  175.1760  137.9510 C   0  0  0  0  0  2  0  0  0  0  0  0
  192.4560  172.9720  138.5710 N   0  0  2  0  0  0  0  0  0  0  0  0
  190.1680  172.9570  137.9740 O   0  0  0  0  0  0  0  0  0  0  0  0
  190.5300  173.4150  140.0030 C   0  0  1  0  0  3  0  0  0  0  0  0
  191.1160  172.5270  138.9220 C   0  0  2  0  0  3  0  0  0  0  0  0
  189.5400  173.7790  138.9330 C   0  0  0  0  0  2  0  0  0  0  0  0
  190.6130  172.5490  143.2540 C   0  0  0  0  0  0  0  0  0  0  0  0
  190.7960  172.0400  142.0780 N   0  0  0  0  0  0  0  0  0  0  0  0
  189.5680  173.5000  143.3300 N   0  0  0  0  0  0  0  0  0  0  0  0
  189.8410  172.6480  141.1470 C   0  0  1  0  0  3  0  0  0  0  0  0
  189.0350  173.6500  141.9890 C   0  0  0  0  0  3  0  0  0  0  0  0
  192.5310  173.0530  144.5460 O   0  0  0  0  0  1  0  0  0  0  0  0
  191.4430  172.1850  144.4360 C   0  0  0  0  0  2  0  0  0  0  0  0
  191.3800  176.7270  144.9480 C   0  0  2  0  0  3  0  0  0  0  0  0
  190.4850  177.9680  144.7740 C   0  0  0  0  0  2  0  0  0  0  0  0
  189.6720  177.9080  143.5170 C   0  0  0  0  0  0  0  0  0  0  0  0
  190.1490  178.2900  142.4640 O   0  0  0  0  0  0  0  0  0  0  0  0
  187.4560  177.9890  142.4560 C   0  0  0  0  0  2  0  0  0  0  0  0
  186.4480  178.1990  144.5470 C   0  0  2  0  0  3  0  0  0  0  0  0
  186.1200  178.0660  143.0740 C   0  0  0  0  0  2  0  0  0  0  0  0
  187.6910  177.6040  144.8030 O   0  0  0  0  0  0  0  0  0  0  0  0
  188.2870  177.3560  143.5490 C   0  0  2  0  0  3  0  0  0  0  0  0
  185.3880  177.6170  145.4420 C   0  0  0  0  0  0  0  0  0  0  0  0
  185.1910  176.4140  145.4880 O   0  0  0  0  0  0  0  0  0  0  0  0
  185.8840  178.9650  147.6370 C   0  0  0  0  0  1  0  0  0  0  0  0
  184.4670  178.7090  146.5130 S   0  0  0  0  0  0  0  0  0  0  0  0
  191.4730  176.3380  146.4260 C   0  0  0  0  0  2  0  0  0  0  0  0
  189.5210  174.2600  146.6420 O   0  0  0  0  0  0  0  0  0  0  0  0
  190.1640  176.4730  147.0550 N   0  0  0  0  0  2  0  0  0  0  0  0
  189.2010  175.4190  147.0410 C   0  0  0  0  0  0  0  0  0  0  0  0
  187.8130  175.6700  147.5340 C   0  0  0  0  0  1  0  0  0  0  0  0
  1  6  1  0  0  0  0
  2  3  1  0  0  0  0
  3  5  1  0  0  0  0
  3  1  1  0  0  0  0
  4  9  1  0  0  0  0
  7 10  1  1  0  0  0
  7  4  1  0  0  0  0
  7  3  1  0  0  0  0
  8  4  2  0  0  0  0
  9 29  1  1  0  0  0
  9  6  1  0  0  0  0
 11 10  1  0  0  0  0
 12 14  1  0  0  0  0
 12 16  1  0  0  0  0
 15 13  1  0  0  0  0
 15 11  1  1  0  0  0
 16 15  1  0  0  0  0
 17 14  1  6  0  0  0
 17 20  1  0  0  0  0
 17 13  1  0  0  0  0
 18 21  1  0  0  0  0
 19 21  1  6  0  0  0
 19 25  1  0  0  0  0
 20 18  1  6  0  0  0
 20 19  1  0  0  0  0
 22 24  1  0  0  0  0
 22 28  1  0  0  0  0
 23 22  2  0  0  0  0
 25 26  1  1  0  0  0
 25 23  1  0  0  0  0
 26 24  2  0  0  0  0
 28 27  1  0  0  0  0
 29 30  1  1  0  0  0
 29 42  1  0  0  0  0
 31 30  1  0  0  0  0
 32 31  2  0  0  0  0
 33 35  1  0  0  0  0
 33 37  1  0  0  0  0
 34 36  1  0  0  0  0
 34 38  1  1  0  0  0
 35 34  1  0  0  0  0
 37 31  1  1  0  0  0
 37 36  1  0  0  0  0
 38 39  2  0  0  0  0
 38 41  1  0  0  0  0
 41 40  1  0  0  0  0
 42 44  1  0  0  0  0
 43 45  2  0  0  0  0
 45 44  1  0  0  0  0
 45 46  1  0  0  0  0
M  END
>  <MODEL>
9

>  <REMARK>
 VINA RESULT:      -6.3      3.385      7.766
  Name = 
  14 active torsions:
  status: ('A' for Active; 'I' for Inactive)
    1  A    between atoms: C_2  and  C_7
    2  A    between atoms: C_2  and  C_31
    3  A    between atoms: C_7  and  C_42
    4  A    between atoms: C_8  and  C_9
    5  A    between atoms: C_9  and  S_16
    6  A    between atoms: C_12  and  C_28
    7  A    between atoms: N_24  and  C_39
    8  A    between atoms: C_27  and  C_33
    9  A    between atoms: O_29  and  C_30
   10  A    between atoms: O_29  and  C_35
   11  A    between atoms: C_30  and  C_36
   12  A    between atoms: C_34  and  N_44
   13  A    between atoms: C_39  and  C_42
   14  A    between atoms: C_42  and  C_43
                            x       y       z     vdW  Elec       q    Type
                         _______ _______ _______ _____ _____    ______ ____

>  <TORSDO>
F 14

$$$$
