=
 OpenBabel11062419363D

 42 46  0  0  1  0  0  0  0  0999 V2000
  189.2500  175.4640  147.2090 C   0  0  0  0  0  2  0  0  0  0  0  0
  188.3900  176.1840  146.1610 C   0  0  2  0  0  3  0  0  0  0  0  0
  190.3860  177.3750  145.1720 C   0  0  0  0  0  2  0  0  0  0  0  0
  190.7570  175.6980  147.0260 C   0  0  0  0  0  2  0  0  0  0  0  0
  188.9960  177.5360  145.8010 C   0  0  0  0  0  2  0  0  0  0  0  0
  191.0970  176.0710  145.5790 C   0  0  2  0  0  3  0  0  0  0  0  0
  193.4030  176.1290  146.6230 C   0  0  0  0  0  2  0  0  0  0  0  0
  195.4950  174.3530  139.3210 O   0  0  0  0  0  1  0  0  0  0  0  0
  197.8420  173.7520  140.7440 C   0  0  0  0  0  2  0  0  0  0  0  0
  196.8010  174.4900  142.9480 C   0  0  0  0  0  2  0  0  0  0  0  0
  195.0450  172.6060  145.6220 O   0  0  0  0  0  1  0  0  0  0  0  0
  195.5620  173.7320  144.9820 C   0  0  2  0  0  3  0  0  0  0  0  0
  197.8430  175.2770  140.7600 C   0  0  0  0  0  2  0  0  0  0  0  0
  192.4880  173.6340  145.0840 C   0  0  0  0  0  1  0  0  0  0  0  0
  193.1090  175.0470  143.0330 C   0  0  1  0  0  3  0  0  0  0  0  0
  194.2040  175.9720  142.4530 C   0  0  0  0  0  2  0  0  0  0  0  0
  192.9750  173.7090  142.3030 C   0  0  0  0  0  1  0  0  0  0  0  0
  196.7240  174.5080  141.4240 C   0  0  0  0  0  0  0  0  0  0  0  0
  194.5360  175.7950  140.9710 C   0  0  0  0  0  2  0  0  0  0  0  0
  192.6200  176.1350  145.3170 C   0  0  1  0  0  0  0  0  0  0  0  0
  195.3580  174.5290  140.7000 C   0  0  1  0  0  3  0  0  0  0  0  0
  194.6370  174.9580  145.1340 C   0  0  1  0  0  3  0  0  0  0  0  0
  195.8970  173.4120  143.5340 C   0  0  0  0  0  2  0  0  0  0  0  0
  193.1980  174.9100  144.5900 C   0  0  1  0  0  0  0  0  0  0  0  0
  192.9230  177.3240  144.6410 O   0  0  0  0  0  1  0  0  0  0  0  0
  194.6110  175.4170  146.4620 O   0  0  0  0  0  0  0  0  0  0  0  0
  186.9680  176.3690  146.6610 C   0  0  0  0  0  2  0  0  0  0  0  0
  186.8040  177.7210  147.3370 C   0  0  0  0  0  2  0  0  0  0  0  0
  185.4480  178.0310  147.4820 O   0  0  0  0  0  0  0  0  0  0  0  0
  184.8290  177.4690  146.3630 C   0  0  0  0  0  2  0  0  0  0  0  0
  184.1990  178.5660  145.5230 C   0  0  0  0  0  2  0  0  0  0  0  0
  184.0890  178.3510  140.6090 C   0  0  0  0  0  1  0  0  0  0  0  0
  184.5970  178.3650  141.9680 N   0  0  0  0  0  0  0  0  0  0  0  0
  185.8800  178.2360  142.3450 C   0  0  0  0  0  0  0  0  0  0  0  0
  183.8380  178.5010  143.0390 N   0  0  0  0  0  0  0  0  0  0  0  0
  185.9840  178.2920  143.7240 C   0  0  0  0  0  3  0  0  0  0  0  0
  184.6630  178.4740  144.1090 C   0  0  0  0  0  0  0  0  0  0  0  0
  186.9620  178.0530  141.4280 N   0  0  0  0  0  2  0  0  0  0  0  0
  188.3120  177.7510  141.8790 C   0  0  0  0  0  2  0  0  0  0  0  0
  187.8940  175.6410  140.8600 O   0  0  0  0  0  0  0  0  0  0  0  0
  188.6030  176.3090  141.6580 C   0  0  0  0  0  0  0  0  0  0  0  0
  189.6510  175.6980  142.3290 O   0  0  0  0  0  1  0  0  0  0  0  0
  2 27  1  1  0  0  0
  2  1  1  0  0  0  0
  3  5  1  0  0  0  0
  4  1  1  0  0  0  0
  5  2  1  0  0  0  0
  6  3  1  1  0  0  0
  6  4  1  0  0  0  0
  9 13  1  0  0  0  0
  9 18  1  0  0  0  0
 10 23  1  0  0  0  0
 12 22  1  0  0  0  0
 12 11  1  6  0  0  0
 13 18  1  0  0  0  0
 15 17  1  6  0  0  0
 15 24  1  0  0  0  0
 16 15  1  0  0  0  0
 18 10  1  0  0  0  0
 19 16  1  0  0  0  0
 20 25  1  6  0  0  0
 20  6  1  0  0  0  0
 20  7  1  0  0  0  0
 21  8  1  6  0  0  0
 21 19  1  0  0  0  0
 21 18  1  0  0  0  0
 22 26  1  1  0  0  0
 23 12  1  0  0  0  0
 24 14  1  1  0  0  0
 24 22  1  0  0  0  0
 24 20  1  0  0  0  0
 26  7  1  0  0  0  0
 27 28  1  0  0  0  0
 28 29  1  0  0  0  0
 30 29  1  0  0  0  0
 31 30  1  0  0  0  0
 32 33  1  0  0  0  0
 33 34  1  0  0  0  0
 33 35  1  0  0  0  0
 34 36  2  0  0  0  0
 35 37  2  0  0  0  0
 36 37  1  0  0  0  0
 37 31  1  0  0  0  0
 38 39  1  0  0  0  0
 38 34  1  0  0  0  0
 40 41  2  0  0  0  0
 41 39  1  0  0  0  0
 41 42  1  0  0  0  0
M  END
>  <MODEL>
1

>  <REMARK>
 VINA RESULT:      -8.3      0.000      0.000
  Name = 
  10 active torsions:
  status: ('A' for Active; 'I' for Inactive)
    1  A    between atoms: C_1  and  N_11
    2  A    between atoms: C_1  and  C_15
    3  A    between atoms: C_4  and  C_18
    4  A    between atoms: C_4  and  C_30
    5  A    between atoms: N_11  and  C_27
    6  A    between atoms: C_16  and  C_17
    7  A    between atoms: C_16  and  C_35
    8  A    between atoms: C_17  and  O_21
    9  A    between atoms: O_21  and  C_30
   10  A    between atoms: C_32  and  C_37
                            x       y       z     vdW  Elec       q    Type
                         _______ _______ _______ _____ _____    ______ ____

>  <TORSDO>
F 10

$$$$
=
 OpenBabel11062419363D

 42 46  0  0  1  0  0  0  0  0999 V2000
  193.5500  173.5440  141.8920 C   0  0  0  0  0  2  0  0  0  0  0  0
  193.1160  174.0170  140.4970 C   0  0  2  0  0  3  0  0  0  0  0  0
  190.6630  173.8670  141.0850 C   0  0  0  0  0  2  0  0  0  0  0  0
  192.3810  173.3920  142.8770 C   0  0  0  0  0  2  0  0  0  0  0  0
  191.7670  173.4150  140.1200 C   0  0  0  0  0  2  0  0  0  0  0  0
  191.1900  174.2700  142.4740 C   0  0  2  0  0  3  0  0  0  0  0  0
  190.3520  173.2820  144.6510 C   0  0  0  0  0  2  0  0  0  0  0  0
  185.7440  179.5710  144.3940 O   0  0  0  0  0  1  0  0  0  0  0  0
  185.4520  178.7640  147.0700 C   0  0  0  0  0  2  0  0  0  0  0  0
  186.9870  176.7620  146.7270 C   0  0  0  0  0  2  0  0  0  0  0  0
  190.6280  176.2950  147.2890 O   0  0  0  0  0  1  0  0  0  0  0  0
  189.3390  175.9320  146.8990 C   0  0  2  0  0  3  0  0  0  0  0  0
  184.6510  177.6990  146.3280 C   0  0  0  0  0  2  0  0  0  0  0  0
  191.3390  176.1900  144.5740 C   0  0  0  0  0  1  0  0  0  0  0  0
  189.0090  176.6320  143.5900 C   0  0  1  0  0  3  0  0  0  0  0  0
  187.5080  176.3150  143.7740 C   0  0  0  0  0  2  0  0  0  0  0  0
  189.3760  178.0920  143.8650 C   0  0  0  0  0  1  0  0  0  0  0  0
  186.1350  177.8490  146.0800 C   0  0  0  0  0  0  0  0  0  0  0  0
  186.5310  177.4730  143.5600 C   0  0  0  0  0  2  0  0  0  0  0  0
  190.0670  174.2820  143.5380 C   0  0  1  0  0  0  0  0  0  0  0  0
  186.5400  178.4710  144.7240 C   0  0  1  0  0  3  0  0  0  0  0  0
  189.3460  175.0550  145.6290 C   0  0  1  0  0  3  0  0  0  0  0  0
  188.4560  177.1640  146.7690 C   0  0  0  0  0  2  0  0  0  0  0  0
  189.9370  175.6010  144.3170 C   0  0  1  0  0  0  0  0  0  0  0  0
  188.8550  173.9200  142.9360 O   0  0  0  0  0  1  0  0  0  0  0  0
  189.8930  173.7860  145.8870 O   0  0  0  0  0  0  0  0  0  0  0  0
  194.1570  173.6540  139.4530 C   0  0  0  0  0  2  0  0  0  0  0  0
  195.5490  174.0530  139.9160 C   0  0  0  0  0  2  0  0  0  0  0  0
  195.7030  175.4420  139.8510 O   0  0  0  0  0  0  0  0  0  0  0  0
  196.6910  175.7390  140.7910 C   0  0  0  0  0  2  0  0  0  0  0  0
  196.1410  176.7110  141.8200 C   0  0  0  0  0  2  0  0  0  0  0  0
  194.5720  175.7300  146.3790 C   0  0  0  0  0  1  0  0  0  0  0  0
  195.3230  175.6420  145.1400 N   0  0  0  0  0  0  0  0  0  0  0  0
  196.3060  174.7710  144.8600 C   0  0  0  0  0  0  0  0  0  0  0  0
  195.1340  176.4370  144.1040 N   0  0  0  0  0  0  0  0  0  0  0  0
  196.7930  174.9900  143.5830 C   0  0  0  0  0  3  0  0  0  0  0  0
  196.0050  176.0460  143.1480 C   0  0  0  0  0  0  0  0  0  0  0  0
  196.7720  173.7790  145.7780 N   0  0  0  0  0  2  0  0  0  0  0  0
  197.1780  172.4520  145.3390 C   0  0  0  0  0  2  0  0  0  0  0  0
  196.6340  170.4420  146.4910 O   0  0  0  0  0  1  0  0  0  0  0  0
  196.2150  171.4390  145.8470 C   0  0  0  0  0  0  0  0  0  0  0  0
  194.8560  171.5900  145.6140 O   0  0  0  0  0  0  0  0  0  0  0  0
  1  4  1  0  0  0  0
  2 27  1  6  0  0  0
  2  1  1  0  0  0  0
  5  2  1  0  0  0  0
  5  3  1  0  0  0  0
  6  3  1  6  0  0  0
  6  4  1  0  0  0  0
  6 20  1  0  0  0  0
  7 26  1  0  0  0  0
 10 23  1  0  0  0  0
 12 11  1  6  0  0  0
 13  9  1  0  0  0  0
 15 16  1  0  0  0  0
 15 17  1  1  0  0  0
 15 24  1  0  0  0  0
 18 13  1  0  0  0  0
 18 10  1  0  0  0  0
 18  9  1  0  0  0  0
 19 16  1  0  0  0  0
 19 21  1  0  0  0  0
 20 25  1  6  0  0  0
 20 24  1  0  0  0  0
 20  7  1  0  0  0  0
 21  8  1  6  0  0  0
 21 18  1  0  0  0  0
 22 26  1  1  0  0  0
 22 12  1  0  0  0  0
 23 12  1  0  0  0  0
 24 14  1  1  0  0  0
 24 22  1  0  0  0  0
 27 28  1  0  0  0  0
 29 28  1  0  0  0  0
 29 30  1  0  0  0  0
 30 31  1  0  0  0  0
 31 37  1  0  0  0  0
 33 32  1  0  0  0  0
 34 33  1  0  0  0  0
 34 38  1  0  0  0  0
 35 33  1  0  0  0  0
 36 34  2  0  0  0  0
 37 36  1  0  0  0  0
 37 35  2  0  0  0  0
 39 38  1  0  0  0  0
 39 41  1  0  0  0  0
 41 40  1  0  0  0  0
 42 41  2  0  0  0  0
M  END
>  <MODEL>
2

>  <REMARK>
 VINA RESULT:      -7.9      3.348      9.468
  Name = 
  10 active torsions:
  status: ('A' for Active; 'I' for Inactive)
    1  A    between atoms: C_1  and  N_11
    2  A    between atoms: C_1  and  C_15
    3  A    between atoms: C_4  and  C_18
    4  A    between atoms: C_4  and  C_30
    5  A    between atoms: N_11  and  C_27
    6  A    between atoms: C_16  and  C_17
    7  A    between atoms: C_16  and  C_35
    8  A    between atoms: C_17  and  O_21
    9  A    between atoms: O_21  and  C_30
   10  A    between atoms: C_32  and  C_37
                            x       y       z     vdW  Elec       q    Type
                         _______ _______ _______ _____ _____    ______ ____

>  <TORSDO>
F 10

$$$$
=
 OpenBabel11062419363D

 42 46  0  0  1  0  0  0  0  0999 V2000
  191.6990  172.6230  139.9350 C   0  0  0  0  0  2  0  0  0  0  0  0
  191.1870  173.4680  138.7590 C   0  0  2  0  0  3  0  0  0  0  0  0
  189.0240  174.0130  139.9440 C   0  0  0  0  0  2  0  0  0  0  0  0
  190.7840  172.6750  141.1670 C   0  0  0  0  0  2  0  0  0  0  0  0
  189.6650  173.4200  138.6830 C   0  0  0  0  0  2  0  0  0  0  0  0
  189.9350  173.9510  141.1840 C   0  0  2  0  0  3  0  0  0  0  0  0
  189.7460  173.2990  143.6230 C   0  0  0  0  0  2  0  0  0  0  0  0
  185.0110  179.4980  143.7220 O   0  0  0  0  0  1  0  0  0  0  0  0
  185.4750  179.0960  146.4640 C   0  0  0  0  0  2  0  0  0  0  0  0
  186.9340  177.0600  146.0100 C   0  0  0  0  0  2  0  0  0  0  0  0
  190.6070  176.6680  145.6290 O   0  0  0  0  0  1  0  0  0  0  0  0
  189.2750  176.2560  145.6580 C   0  0  2  0  0  3  0  0  0  0  0  0
  184.5440  177.9360  146.1260 C   0  0  0  0  0  2  0  0  0  0  0  0
  190.5700  176.1600  142.8680 C   0  0  0  0  0  1  0  0  0  0  0  0
  188.0470  176.4600  142.4960 C   0  0  1  0  0  3  0  0  0  0  0  0
  186.6630  176.1800  143.1220 C   0  0  0  0  0  2  0  0  0  0  0  0
  188.4210  177.9440  142.4490 C   0  0  0  0  0  1  0  0  0  0  0  0
  185.9010  178.0430  145.4680 C   0  0  0  0  0  0  0  0  0  0  0  0
  185.6230  177.2970  143.0160 C   0  0  0  0  0  2  0  0  0  0  0  0
  189.1370  174.1250  142.4970 C   0  0  1  0  0  0  0  0  0  0  0  0
  185.9060  178.4560  143.9780 C   0  0  1  0  0  3  0  0  0  0  0  0
  188.9740  175.2010  144.5720 C   0  0  1  0  0  3  0  0  0  0  0  0
  188.3450  177.4580  145.5960 C   0  0  0  0  0  2  0  0  0  0  0  0
  189.1730  175.5450  143.0860 C   0  0  1  0  0  0  0  0  0  0  0  0
  187.8220  173.6830  142.3030 O   0  0  0  0  0  1  0  0  0  0  0  0
  189.6160  173.9820  144.8520 O   0  0  0  0  0  0  0  0  0  0  0  0
  191.7880  172.9920  137.4480 C   0  0  0  0  0  2  0  0  0  0  0  0
  193.1390  173.6460  137.2040 C   0  0  0  0  0  2  0  0  0  0  0  0
  193.1180  174.9790  137.6280 O   0  0  0  0  0  0  0  0  0  0  0  0
  194.4270  175.2500  138.0300 C   0  0  0  0  0  2  0  0  0  0  0  0
  194.8390  174.2740  139.1180 C   0  0  0  0  0  2  0  0  0  0  0  0
  196.9000  176.7020  142.8690 C   0  0  0  0  0  1  0  0  0  0  0  0
  195.9070  176.0220  142.0580 N   0  0  0  0  0  0  0  0  0  0  0  0
  194.6240  175.7950  142.3850 C   0  0  0  0  0  0  0  0  0  0  0  0
  196.1490  175.5190  140.8620 N   0  0  0  0  0  0  0  0  0  0  0  0
  193.9800  175.1150  141.3660 C   0  0  0  0  0  3  0  0  0  0  0  0
  194.9910  174.9800  140.4230 C   0  0  0  0  0  0  0  0  0  0  0  0
  194.0390  176.1980  143.6260 N   0  0  0  0  0  2  0  0  0  0  0  0
  193.7430  175.2460  144.6850 C   0  0  0  0  0  2  0  0  0  0  0  0
  194.2580  176.4410  146.6770 O   0  0  0  0  0  1  0  0  0  0  0  0
  194.5940  175.5350  145.8710 C   0  0  0  0  0  0  0  0  0  0  0  0
  195.7560  174.8100  146.0890 O   0  0  0  0  0  0  0  0  0  0  0  0
  1  4  1  0  0  0  0
  2 27  1  6  0  0  0
  2  1  1  0  0  0  0
  4  6  1  0  0  0  0
  5  2  1  0  0  0  0
  5  3  1  0  0  0  0
  6  3  1  6  0  0  0
  6 20  1  0  0  0  0
  7 26  1  0  0  0  0
 12 11  1  6  0  0  0
 13  9  1  0  0  0  0
 15 17  1  1  0  0  0
 15 24  1  0  0  0  0
 15 16  1  0  0  0  0
 18 10  1  0  0  0  0
 18 13  1  0  0  0  0
 18  9  1  0  0  0  0
 19 16  1  0  0  0  0
 19 21  1  0  0  0  0
 20 25  1  6  0  0  0
 20 24  1  0  0  0  0
 20  7  1  0  0  0  0
 21  8  1  1  0  0  0
 21 18  1  0  0  0  0
 22 26  1  1  0  0  0
 22 12  1  0  0  0  0
 23 12  1  0  0  0  0
 23 10  1  0  0  0  0
 24 14  1  6  0  0  0
 24 22  1  0  0  0  0
 28 27  1  0  0  0  0
 28 29  1  0  0  0  0
 29 30  1  0  0  0  0
 30 31  1  0  0  0  0
 31 37  1  0  0  0  0
 33 34  1  0  0  0  0
 33 32  1  0  0  0  0
 34 38  1  0  0  0  0
 35 33  1  0  0  0  0
 36 34  2  0  0  0  0
 37 35  2  0  0  0  0
 37 36  1  0  0  0  0
 38 39  1  0  0  0  0
 39 41  1  0  0  0  0
 41 42  2  0  0  0  0
 41 40  1  0  0  0  0
M  END
>  <MODEL>
3

>  <REMARK>
 VINA RESULT:      -7.9      3.296      9.346
  Name = 
  10 active torsions:
  status: ('A' for Active; 'I' for Inactive)
    1  A    between atoms: C_1  and  N_11
    2  A    between atoms: C_1  and  C_15
    3  A    between atoms: C_4  and  C_18
    4  A    between atoms: C_4  and  C_30
    5  A    between atoms: N_11  and  C_27
    6  A    between atoms: C_16  and  C_17
    7  A    between atoms: C_16  and  C_35
    8  A    between atoms: C_17  and  O_21
    9  A    between atoms: O_21  and  C_30
   10  A    between atoms: C_32  and  C_37
                            x       y       z     vdW  Elec       q    Type
                         _______ _______ _______ _____ _____    ______ ____

>  <TORSDO>
F 10

$$$$
=
 OpenBabel11062419363D

 42 46  0  0  1  0  0  0  0  0999 V2000
  189.1030  177.7030  146.2480 C   0  0  0  0  0  2  0  0  0  0  0  0
  188.2870  176.4100  146.3970 C   0  0  2  0  0  3  0  0  0  0  0  0
  189.5720  175.2520  144.5560 C   0  0  0  0  0  2  0  0  0  0  0  0
  190.2700  177.5770  145.2580 C   0  0  0  0  0  2  0  0  0  0  0  0
  188.1880  175.6780  145.0630 C   0  0  0  0  0  2  0  0  0  0  0  0
  190.7200  176.1190  145.1020 C   0  0  2  0  0  3  0  0  0  0  0  0
  192.9400  177.1610  144.4680 C   0  0  0  0  0  2  0  0  0  0  0  0
  194.2530  169.9480  141.8030 O   0  0  0  0  0  1  0  0  0  0  0  0
  196.8500  171.0230  141.8310 C   0  0  0  0  0  2  0  0  0  0  0  0
  196.0040  173.2770  142.6600 C   0  0  0  0  0  2  0  0  0  0  0  0
  195.6880  174.7130  146.0700 O   0  0  0  0  0  1  0  0  0  0  0  0
  195.5710  174.6840  144.6800 C   0  0  2  0  0  3  0  0  0  0  0  0
  196.2220  171.7390  140.6400 C   0  0  0  0  0  2  0  0  0  0  0  0
  192.8840  174.6110  146.1790 C   0  0  0  0  0  1  0  0  0  0  0  0
  192.4910  173.4680  143.9150 C   0  0  1  0  0  3  0  0  0  0  0  0
  192.9830  173.4220  142.4500 C   0  0  0  0  0  2  0  0  0  0  0  0
  192.7970  172.1980  144.7140 C   0  0  0  0  0  1  0  0  0  0  0  0
  195.6580  171.9320  142.0290 C   0  0  0  0  0  0  0  0  0  0  0  0
  193.0920  172.0380  141.8070 C   0  0  0  0  0  2  0  0  0  0  0  0
  192.0070  175.9760  144.2560 C   0  0  1  0  0  0  0  0  0  0  0  0
  194.3020  171.2470  142.3160 C   0  0  1  0  0  3  0  0  0  0  0  0
  194.2640  175.3480  144.1980 C   0  0  1  0  0  3  0  0  0  0  0  0
  195.7460  173.2650  144.1620 C   0  0  0  0  0  2  0  0  0  0  0  0
  192.9020  174.7890  144.6480 C   0  0  1  0  0  0  0  0  0  0  0  0
  191.6670  175.9350  142.8980 O   0  0  0  0  0  1  0  0  0  0  0  0
  194.2850  176.7360  144.4160 O   0  0  0  0  0  0  0  0  0  0  0  0
  186.8970  176.7050  146.9330 C   0  0  0  0  0  2  0  0  0  0  0  0
  186.8620  178.0540  147.6340 C   0  0  0  0  0  2  0  0  0  0  0  0
  185.5720  178.5930  147.5860 O   0  0  0  0  0  0  0  0  0  0  0  0
  184.8900  177.8110  146.6510 C   0  0  0  0  0  2  0  0  0  0  0  0
  184.0980  178.7080  145.7170 C   0  0  0  0  0  2  0  0  0  0  0  0
  184.3410  178.3220  140.8180 C   0  0  0  0  0  1  0  0  0  0  0  0
  184.7520  178.4660  142.2020 N   0  0  0  0  0  0  0  0  0  0  0  0
  186.0110  178.5730  142.6580 C   0  0  0  0  0  0  0  0  0  0  0  0
  183.9130  178.5030  143.2210 N   0  0  0  0  0  0  0  0  0  0  0  0
  186.0150  178.6890  144.0370 C   0  0  0  0  0  3  0  0  0  0  0  0
  184.6600  178.6530  144.3360 C   0  0  0  0  0  0  0  0  0  0  0  0
  187.1640  178.5510  141.8140 N   0  0  0  0  0  2  0  0  0  0  0  0
  188.1580  177.4900  141.8920 C   0  0  0  0  0  2  0  0  0  0  0  0
  187.8960  175.1590  141.4880 O   0  0  0  0  0  1  0  0  0  0  0  0
  187.7210  176.3320  141.0660 C   0  0  0  0  0  0  0  0  0  0  0  0
  187.1210  176.5420  139.8330 O   0  0  0  0  0  0  0  0  0  0  0  0
  1  2  1  0  0  0  0
  2 27  1  6  0  0  0
  3  5  1  0  0  0  0
  4  1  1  0  0  0  0
  5  2  1  0  0  0  0
  6  3  1  6  0  0  0
  6  4  1  0  0  0  0
  9 18  1  0  0  0  0
 10 23  1  0  0  0  0
 12 11  1  1  0  0  0
 13  9  1  0  0  0  0
 13 18  1  0  0  0  0
 15 24  1  0  0  0  0
 15 17  1  1  0  0  0
 16 15  1  0  0  0  0
 18 21  1  0  0  0  0
 18 10  1  0  0  0  0
 19 21  1  0  0  0  0
 19 16  1  0  0  0  0
 20 25  1  6  0  0  0
 20  7  1  0  0  0  0
 20 24  1  0  0  0  0
 20  6  1  0  0  0  0
 21  8  1  6  0  0  0
 22 26  1  1  0  0  0
 22 24  1  0  0  0  0
 22 12  1  0  0  0  0
 23 12  1  0  0  0  0
 24 14  1  1  0  0  0
 26  7  1  0  0  0  0
 27 28  1  0  0  0  0
 29 28  1  0  0  0  0
 30 29  1  0  0  0  0
 31 30  1  0  0  0  0
 32 33  1  0  0  0  0
 33 34  1  0  0  0  0
 33 35  1  0  0  0  0
 34 36  2  0  0  0  0
 35 37  2  0  0  0  0
 36 37  1  0  0  0  0
 37 31  1  0  0  0  0
 38 39  1  0  0  0  0
 38 34  1  0  0  0  0
 41 40  1  0  0  0  0
 41 39  1  0  0  0  0
 42 41  2  0  0  0  0
M  END
>  <MODEL>
4

>  <REMARK>
 VINA RESULT:      -7.9      1.586      2.096
  Name = 
  10 active torsions:
  status: ('A' for Active; 'I' for Inactive)
    1  A    between atoms: C_1  and  N_11
    2  A    between atoms: C_1  and  C_15
    3  A    between atoms: C_4  and  C_18
    4  A    between atoms: C_4  and  C_30
    5  A    between atoms: N_11  and  C_27
    6  A    between atoms: C_16  and  C_17
    7  A    between atoms: C_16  and  C_35
    8  A    between atoms: C_17  and  O_21
    9  A    between atoms: O_21  and  C_30
   10  A    between atoms: C_32  and  C_37
                            x       y       z     vdW  Elec       q    Type
                         _______ _______ _______ _____ _____    ______ ____

>  <TORSDO>
F 10

$$$$
=
 OpenBabel11062419363D

 42 46  0  0  1  0  0  0  0  0999 V2000
  189.4560  177.8590  145.0190 C   0  0  0  0  0  2  0  0  0  0  0  0
  188.9940  177.1880  146.3200 C   0  0  2  0  0  3  0  0  0  0  0  0
  189.6570  174.8900  145.5060 C   0  0  0  0  0  2  0  0  0  0  0  0
  190.1610  176.8950  144.0520 C   0  0  0  0  0  2  0  0  0  0  0  0
  188.5210  175.7630  146.0550 C   0  0  0  0  0  2  0  0  0  0  0  0
  190.7600  175.6940  144.7930 C   0  0  2  0  0  3  0  0  0  0  0  0
  191.5790  175.2730  142.4340 C   0  0  0  0  0  2  0  0  0  0  0  0
  196.7400  170.8400  146.2500 O   0  0  0  0  0  1  0  0  0  0  0  0
  197.9410  171.0550  143.7180 C   0  0  0  0  0  2  0  0  0  0  0  0
  196.0090  172.4510  142.8220 C   0  0  0  0  0  2  0  0  0  0  0  0
  195.5000  176.1200  142.5700 O   0  0  0  0  0  1  0  0  0  0  0  0
  195.1640  174.7730  142.4440 C   0  0  2  0  0  3  0  0  0  0  0  0
  196.7830  170.1030  143.4400 C   0  0  0  0  0  2  0  0  0  0  0  0
  193.5370  176.2890  144.5710 C   0  0  0  0  0  1  0  0  0  0  0  0
  193.5590  173.8230  145.2840 C   0  0  1  0  0  3  0  0  0  0  0  0
  193.6650  172.3790  144.7430 C   0  0  0  0  0  2  0  0  0  0  0  0
  194.7670  174.2670  146.1130 C   0  0  0  0  0  1  0  0  0  0  0  0
  196.5140  171.5130  143.9140 C   0  0  0  0  0  0  0  0  0  0  0  0
  194.5250  171.4050  145.5500 C   0  0  0  0  0  2  0  0  0  0  0  0
  191.6310  174.8000  143.8810 C   0  0  1  0  0  0  0  0  0  0  0  0
  196.0260  171.6610  145.3740 C   0  0  1  0  0  3  0  0  0  0  0  0
  193.6800  174.5140  142.7820 C   0  0  1  0  0  3  0  0  0  0  0  0
  196.1200  173.9080  143.2510 C   0  0  0  0  0  2  0  0  0  0  0  0
  193.1380  174.8520  144.1820 C   0  0  1  0  0  0  0  0  0  0  0  0
  191.1450  173.4860  143.9200 O   0  0  0  0  0  1  0  0  0  0  0  0
  192.8300  175.0740  141.8120 O   0  0  0  0  0  0  0  0  0  0  0  0
  187.8850  177.9890  146.9800 C   0  0  0  0  0  2  0  0  0  0  0  0
  186.6620  177.1190  147.2240 C   0  0  0  0  0  2  0  0  0  0  0  0
  185.5450  177.9170  147.4970 O   0  0  0  0  0  0  0  0  0  0  0  0
  185.4730  178.8120  146.4280 C   0  0  0  0  0  2  0  0  0  0  0  0
  184.2080  178.5530  145.6300 C   0  0  0  0  0  2  0  0  0  0  0  0
  183.7570  178.3170  140.7360 C   0  0  0  0  0  1  0  0  0  0  0  0
  184.3170  178.1820  142.0680 N   0  0  0  0  0  0  0  0  0  0  0  0
  185.5060  177.6440  142.3860 C   0  0  0  0  0  0  0  0  0  0  0  0
  183.7060  178.5760  143.1700 N   0  0  0  0  0  0  0  0  0  0  0  0
  185.7000  177.6810  143.7560 C   0  0  0  0  0  3  0  0  0  0  0  0
  184.5350  178.2940  144.1980 C   0  0  0  0  0  0  0  0  0  0  0  0
  186.4150  177.1030  141.4240 N   0  0  0  0  0  2  0  0  0  0  0  0
  187.7760  176.7260  141.7750 C   0  0  0  0  0  2  0  0  0  0  0  0
  187.8570  174.4450  142.4510 O   0  0  0  0  0  1  0  0  0  0  0  0
  187.9770  175.2760  141.5120 C   0  0  0  0  0  0  0  0  0  0  0  0
  188.2990  174.8360  140.2360 O   0  0  0  0  0  0  0  0  0  0  0  0
  1  2  1  0  0  0  0
  2 27  1  6  0  0  0
  3  5  1  0  0  0  0
  4  1  1  0  0  0  0
  5  2  1  0  0  0  0
  6  4  1  6  0  0  0
  6  3  1  0  0  0  0
  7 20  1  0  0  0  0
  9 18  1  0  0  0  0
 10 23  1  0  0  0  0
 10 18  1  0  0  0  0
 12 11  1  1  0  0  0
 12 22  1  0  0  0  0
 12 23  1  0  0  0  0
 13  9  1  0  0  0  0
 13 18  1  0  0  0  0
 15 17  1  6  0  0  0
 16 15  1  0  0  0  0
 16 19  1  0  0  0  0
 18 21  1  0  0  0  0
 20 25  1  1  0  0  0
 20 24  1  0  0  0  0
 20  6  1  0  0  0  0
 21 19  1  0  0  0  0
 21  8  1  1  0  0  0
 22 26  1  6  0  0  0
 22 24  1  0  0  0  0
 24 14  1  1  0  0  0
 24 15  1  0  0  0  0
 26  7  1  0  0  0  0
 27 28  1  0  0  0  0
 28 29  1  0  0  0  0
 30 29  1  0  0  0  0
 31 30  1  0  0  0  0
 32 33  1  0  0  0  0
 33 34  1  0  0  0  0
 33 35  1  0  0  0  0
 34 36  2  0  0  0  0
 35 37  2  0  0  0  0
 36 37  1  0  0  0  0
 37 31  1  0  0  0  0
 38 39  1  0  0  0  0
 38 34  1  0  0  0  0
 41 39  1  0  0  0  0
 41 40  1  0  0  0  0
 42 41  2  0  0  0  0
M  END
>  <MODEL>
5

>  <REMARK>
 VINA RESULT:      -7.8      1.677      3.156
  Name = 
  10 active torsions:
  status: ('A' for Active; 'I' for Inactive)
    1  A    between atoms: C_1  and  N_11
    2  A    between atoms: C_1  and  C_15
    3  A    between atoms: C_4  and  C_18
    4  A    between atoms: C_4  and  C_30
    5  A    between atoms: N_11  and  C_27
    6  A    between atoms: C_16  and  C_17
    7  A    between atoms: C_16  and  C_35
    8  A    between atoms: C_17  and  O_21
    9  A    between atoms: O_21  and  C_30
   10  A    between atoms: C_32  and  C_37
                            x       y       z     vdW  Elec       q    Type
                         _______ _______ _______ _____ _____    ______ ____

>  <TORSDO>
F 10

$$$$
=
 OpenBabel11062419363D

 42 46  0  0  1  0  0  0  0  0999 V2000
  187.7310  175.7700  141.8600 C   0  0  0  0  0  2  0  0  0  0  0  0
  188.4360  177.1310  141.9570 C   0  0  2  0  0  3  0  0  0  0  0  0
  190.1200  176.2680  143.6310 C   0  0  0  0  0  2  0  0  0  0  0  0
  188.4470  174.6550  142.6370 C   0  0  0  0  0  2  0  0  0  0  0  0
  189.0460  177.3250  143.3410 C   0  0  0  0  0  2  0  0  0  0  0  0
  189.9360  174.9680  142.8260 C   0  0  2  0  0  3  0  0  0  0  0  0
  190.0530  172.4570  143.1320 C   0  0  0  0  0  2  0  0  0  0  0  0
  197.3570  174.2120  145.2330 O   0  0  0  0  0  1  0  0  0  0  0  0
  197.5370  171.4370  144.8270 C   0  0  0  0  0  2  0  0  0  0  0  0
  195.0630  171.2730  144.2450 C   0  0  0  0  0  2  0  0  0  0  0  0
  193.2630  171.3380  140.9980 O   0  0  0  0  0  1  0  0  0  0  0  0
  193.3930  171.2780  142.3850 C   0  0  2  0  0  3  0  0  0  0  0  0
  196.7560  171.5170  146.1350 C   0  0  0  0  0  2  0  0  0  0  0  0
  192.1100  173.8750  141.3450 C   0  0  0  0  0  1  0  0  0  0  0  0
  193.2100  174.4490  143.5920 C   0  0  1  0  0  3  0  0  0  0  0  0
  193.6310  173.8490  144.9530 C   0  0  0  0  0  2  0  0  0  0  0  0
  194.3860  174.8540  142.7000 C   0  0  0  0  0  1  0  0  0  0  0  0
  196.1810  172.1050  144.8660 C   0  0  0  0  0  0  0  0  0  0  0  0
  194.9840  174.2950  145.5100 C   0  0  0  0  0  2  0  0  0  0  0  0
  190.7240  173.7890  143.4420 C   0  0  1  0  0  0  0  0  0  0  0  0
  196.1640  173.6480  144.7760 C   0  0  1  0  0  3  0  0  0  0  0  0
  192.2810  172.0720  143.1030 C   0  0  1  0  0  3  0  0  0  0  0  0
  194.7930  171.6970  142.8070 C   0  0  0  0  0  2  0  0  0  0  0  0
  192.1310  173.5840  142.8590 C   0  0  1  0  0  0  0  0  0  0  0  0
  190.7620  173.9350  144.8350 O   0  0  0  0  0  1  0  0  0  0  0  0
  191.0280  171.4540  142.9440 O   0  0  0  0  0  0  0  0  0  0  0  0
  187.4720  178.2640  141.6510 C   0  0  0  0  0  2  0  0  0  0  0  0
  186.3750  177.8000  140.7050 C   0  0  0  0  0  2  0  0  0  0  0  0
  185.1160  178.0530  141.2610 O   0  0  0  0  0  0  0  0  0  0  0  0
  185.3790  178.7260  142.4560 C   0  0  0  0  0  2  0  0  0  0  0  0
  184.4230  178.2450  143.5330 C   0  0  0  0  0  2  0  0  0  0  0  0
  186.3100  179.2060  147.9750 C   0  0  0  0  0  1  0  0  0  0  0  0
  185.9730  178.4970  146.7530 N   0  0  0  0  0  0  0  0  0  0  0  0
  186.3420  177.2490  146.4240 C   0  0  0  0  0  0  0  0  0  0  0  0
  185.2450  179.0100  145.7790 N   0  0  0  0  0  0  0  0  0  0  0  0
  185.8390  176.9100  145.1800 C   0  0  0  0  0  3  0  0  0  0  0  0
  185.1420  178.0580  144.8260 C   0  0  0  0  0  0  0  0  0  0  0  0
  187.1540  176.4160  147.2560 N   0  0  0  0  0  2  0  0  0  0  0  0
  188.2840  175.6670  146.7290 C   0  0  0  0  0  2  0  0  0  0  0  0
  190.4450  175.5110  147.7140 O   0  0  0  0  0  1  0  0  0  0  0  0
  189.5540  176.2570  147.2300 C   0  0  0  0  0  0  0  0  0  0  0  0
  189.7590  177.6280  147.1660 O   0  0  0  0  0  0  0  0  0  0  0  0
  1  2  1  0  0  0  0
  1  4  1  0  0  0  0
  2 27  1  1  0  0  0
  2  5  1  0  0  0  0
  5  3  1  0  0  0  0
  6  4  1  1  0  0  0
  6 20  1  0  0  0  0
  6  3  1  0  0  0  0
  7 20  1  0  0  0  0
  9 18  1  0  0  0  0
  9 13  1  0  0  0  0
 10 18  1  0  0  0  0
 12 11  1  6  0  0  0
 12 23  1  0  0  0  0
 12 22  1  0  0  0  0
 15 17  1  6  0  0  0
 15 16  1  0  0  0  0
 16 19  1  0  0  0  0
 18 13  1  0  0  0  0
 20 25  1  1  0  0  0
 21 18  1  0  0  0  0
 21  8  1  1  0  0  0
 21 19  1  0  0  0  0
 22 26  1  6  0  0  0
 23 10  1  0  0  0  0
 24 14  1  6  0  0  0
 24 22  1  0  0  0  0
 24 20  1  0  0  0  0
 24 15  1  0  0  0  0
 26  7  1  0  0  0  0
 28 29  1  0  0  0  0
 28 27  1  0  0  0  0
 29 30  1  0  0  0  0
 30 31  1  0  0  0  0
 31 37  1  0  0  0  0
 33 32  1  0  0  0  0
 34 33  1  0  0  0  0
 34 38  1  0  0  0  0
 35 33  1  0  0  0  0
 36 34  2  0  0  0  0
 37 36  1  0  0  0  0
 37 35  2  0  0  0  0
 39 41  1  0  0  0  0
 39 38  1  0  0  0  0
 41 40  1  0  0  0  0
 42 41  2  0  0  0  0
M  END
>  <MODEL>
6

>  <REMARK>
 VINA RESULT:      -7.6      2.489      4.654
  Name = 
  10 active torsions:
  status: ('A' for Active; 'I' for Inactive)
    1  A    between atoms: C_1  and  N_11
    2  A    between atoms: C_1  and  C_15
    3  A    between atoms: C_4  and  C_18
    4  A    between atoms: C_4  and  C_30
    5  A    between atoms: N_11  and  C_27
    6  A    between atoms: C_16  and  C_17
    7  A    between atoms: C_16  and  C_35
    8  A    between atoms: C_17  and  O_21
    9  A    between atoms: O_21  and  C_30
   10  A    between atoms: C_32  and  C_37
                            x       y       z     vdW  Elec       q    Type
                         _______ _______ _______ _____ _____    ______ ____

>  <TORSDO>
F 10

$$$$
=
 OpenBabel11062419363D

 42 46  0  0  1  0  0  0  0  0999 V2000
  187.4650  176.0830  147.0290 C   0  0  0  0  0  2  0  0  0  0  0  0
  187.7790  177.5790  146.8820 C   0  0  2  0  0  3  0  0  0  0  0  0
  190.2680  177.1630  146.7680 C   0  0  0  0  0  2  0  0  0  0  0  0
  188.7020  175.1830  146.8840 C   0  0  0  0  0  2  0  0  0  0  0  0
  189.1380  177.9070  147.4900 C   0  0  0  0  0  2  0  0  0  0  0  0
  189.8050  175.8700  146.0710 C   0  0  2  0  0  3  0  0  0  0  0  0
  190.5110  173.4990  145.5290 C   0  0  0  0  0  2  0  0  0  0  0  0
  197.0500  177.1670  143.3740 O   0  0  0  0  0  1  0  0  0  0  0  0
  197.3940  174.6460  142.1780 C   0  0  0  0  0  2  0  0  0  0  0  0
  195.1900  173.7960  143.1280 C   0  0  0  0  0  2  0  0  0  0  0  0
  191.7570  173.6730  141.7180 O   0  0  0  0  0  1  0  0  0  0  0  0
  192.7480  173.4980  142.6840 C   0  0  2  0  0  3  0  0  0  0  0  0
  197.6250  174.3330  143.6530 C   0  0  0  0  0  2  0  0  0  0  0  0
  190.6830  175.6740  143.3680 C   0  0  0  0  0  1  0  0  0  0  0  0
  192.8440  176.3010  144.6030 C   0  0  1  0  0  3  0  0  0  0  0  0
  194.1280  175.7090  145.2270 C   0  0  0  0  0  2  0  0  0  0  0  0
  193.0930  177.1460  143.3520 C   0  0  0  0  0  1  0  0  0  0  0  0
  196.2860  174.8560  143.1850 C   0  0  0  0  0  0  0  0  0  0  0  0
  195.4260  176.4830  144.9900 C   0  0  0  0  0  2  0  0  0  0  0  0
  190.9890  174.9290  145.7510 C   0  0  1  0  0  0  0  0  0  0  0  0
  195.9550  176.3180  143.5610 C   0  0  1  0  0  3  0  0  0  0  0  0
  192.2340  173.8240  144.1020 C   0  0  1  0  0  3  0  0  0  0  0  0
  193.9990  174.2770  142.3080 C   0  0  0  0  0  2  0  0  0  0  0  0
  191.7110  175.2340  144.4290 C   0  0  1  0  0  0  0  0  0  0  0  0
  191.8800  174.9200  146.8320 O   0  0  0  0  0  1  0  0  0  0  0  0
  191.2950  172.8730  144.5360 O   0  0  0  0  0  0  0  0  0  0  0  0
  186.7000  178.4260  147.5340 C   0  0  0  0  0  2  0  0  0  0  0  0
  185.3200  178.0060  147.0550 C   0  0  0  0  0  2  0  0  0  0  0  0
  184.6560  179.0920  146.4750 O   0  0  0  0  0  0  0  0  0  0  0  0
  184.2600  178.6410  145.2140 C   0  0  0  0  0  2  0  0  0  0  0  0
  184.9220  179.4840  144.1390 C   0  0  0  0  0  2  0  0  0  0  0  0
  186.3110  177.5340  139.8400 C   0  0  0  0  0  1  0  0  0  0  0  0
  186.2060  177.7650  141.2700 N   0  0  0  0  0  0  0  0  0  0  0  0
  186.8270  177.0760  142.2400 C   0  0  0  0  0  0  0  0  0  0  0  0
  185.4560  178.7060  141.8120 N   0  0  0  0  0  0  0  0  0  0  0  0
  186.4820  177.5780  143.4830 C   0  0  0  0  0  3  0  0  0  0  0  0
  185.6230  178.6160  143.1500 C   0  0  0  0  0  0  0  0  0  0  0  0
  187.7040  175.9740  141.9940 N   0  0  0  0  0  2  0  0  0  0  0  0
  187.3070  174.5990  142.2530 C   0  0  0  0  0  2  0  0  0  0  0  0
  188.5080  173.9140  140.3170 O   0  0  0  0  0  0  0  0  0  0  0  0
  188.2030  173.6700  141.5130 C   0  0  0  0  0  0  0  0  0  0  0  0
  188.7030  172.5370  142.1380 O   0  0  0  0  0  1  0  0  0  0  0  0
  2  1  1  0  0  0  0
  2  5  1  0  0  0  0
  2 27  1  1  0  0  0
  3  5  1  0  0  0  0
  4  1  1  0  0  0  0
  6  3  1  1  0  0  0
  6  4  1  0  0  0  0
  7 20  1  0  0  0  0
  9 18  1  0  0  0  0
  9 13  1  0  0  0  0
 10 18  1  0  0  0  0
 12 11  1  6  0  0  0
 12 22  1  0  0  0  0
 15 17  1  6  0  0  0
 15 16  1  0  0  0  0
 18 21  1  0  0  0  0
 18 13  1  0  0  0  0
 19 16  1  0  0  0  0
 20  6  1  0  0  0  0
 20 25  1  1  0  0  0
 21  8  1  1  0  0  0
 21 19  1  0  0  0  0
 22 24  1  0  0  0  0
 22 26  1  6  0  0  0
 23 12  1  0  0  0  0
 23 10  1  0  0  0  0
 24 14  1  6  0  0  0
 24 15  1  0  0  0  0
 24 20  1  0  0  0  0
 26  7  1  0  0  0  0
 28 27  1  0  0  0  0
 29 28  1  0  0  0  0
 30 29  1  0  0  0  0
 31 30  1  0  0  0  0
 32 33  1  0  0  0  0
 33 35  1  0  0  0  0
 33 34  1  0  0  0  0
 34 36  2  0  0  0  0
 35 37  2  0  0  0  0
 37 36  1  0  0  0  0
 37 31  1  0  0  0  0
 38 34  1  0  0  0  0
 38 39  1  0  0  0  0
 40 41  2  0  0  0  0
 41 42  1  0  0  0  0
 41 39  1  0  0  0  0
M  END
>  <MODEL>
7

>  <REMARK>
 VINA RESULT:      -7.6      1.826      2.726
  Name = 
  10 active torsions:
  status: ('A' for Active; 'I' for Inactive)
    1  A    between atoms: C_1  and  N_11
    2  A    between atoms: C_1  and  C_15
    3  A    between atoms: C_4  and  C_18
    4  A    between atoms: C_4  and  C_30
    5  A    between atoms: N_11  and  C_27
    6  A    between atoms: C_16  and  C_17
    7  A    between atoms: C_16  and  C_35
    8  A    between atoms: C_17  and  O_21
    9  A    between atoms: O_21  and  C_30
   10  A    between atoms: C_32  and  C_37
                            x       y       z     vdW  Elec       q    Type
                         _______ _______ _______ _____ _____    ______ ____

>  <TORSDO>
F 10

$$$$
=
 OpenBabel11062419363D

 42 46  0  0  1  0  0  0  0  0999 V2000
  195.1960  174.4930  144.1510 C   0  0  0  0  0  2  0  0  0  0  0  0
  195.2500  174.2590  145.6680 C   0  0  2  0  0  3  0  0  0  0  0  0
  193.5220  176.0450  146.1210 C   0  0  0  0  0  2  0  0  0  0  0  0
  194.1050  175.4870  143.7260 C   0  0  0  0  0  2  0  0  0  0  0  0
  194.9410  175.5470  146.4230 C   0  0  0  0  0  2  0  0  0  0  0  0
  192.9790  175.5640  144.7630 C   0  0  2  0  0  3  0  0  0  0  0  0
  191.7630  176.5380  142.7660 C   0  0  0  0  0  2  0  0  0  0  0  0
  186.1470  177.4720  148.0990 O   0  0  0  0  0  1  0  0  0  0  0  0
  184.7190  177.8320  145.7050 C   0  0  0  0  0  2  0  0  0  0  0  0
  186.8210  177.5220  144.3010 C   0  0  0  0  0  2  0  0  0  0  0  0
  188.2840  174.5400  142.6400 O   0  0  0  0  0  1  0  0  0  0  0  0
  188.2150  175.8750  143.0380 C   0  0  2  0  0  3  0  0  0  0  0  0
  185.5210  179.1260  145.7940 C   0  0  0  0  0  2  0  0  0  0  0  0
  190.4700  174.2690  144.3820 C   0  0  0  0  0  1  0  0  0  0  0  0
  189.8660  176.1730  145.9930 C   0  0  1  0  0  3  0  0  0  0  0  0
  189.2930  177.6070  146.0540 C   0  0  0  0  0  2  0  0  0  0  0  0
  188.9510  175.1110  146.6090 C   0  0  0  0  0  1  0  0  0  0  0  0
  186.2310  177.7960  145.6810 C   0  0  0  0  0  0  0  0  0  0  0  0
  188.3160  177.9080  147.1920 C   0  0  0  0  0  2  0  0  0  0  0  0
  191.7790  176.4140  144.2840 C   0  0  1  0  0  0  0  0  0  0  0  0
  186.9340  177.2870  146.9600 C   0  0  1  0  0  3  0  0  0  0  0  0
  189.6010  176.4350  143.4210 C   0  0  1  0  0  3  0  0  0  0  0  0
  187.1770  176.0500  144.1360 C   0  0  0  0  0  2  0  0  0  0  0  0
  190.4010  175.7970  144.5710 C   0  0  1  0  0  0  0  0  0  0  0  0
  191.8840  177.7050  144.8190 O   0  0  0  0  0  1  0  0  0  0  0  0
  190.4330  176.5550  142.2940 O   0  0  0  0  0  0  0  0  0  0  0  0
  196.6090  173.7250  146.0860 C   0  0  0  0  0  2  0  0  0  0  0  0
  196.9520  172.4580  145.3180 C   0  0  0  0  0  2  0  0  0  0  0  0
  196.8150  171.3380  146.1450 O   0  0  0  0  0  0  0  0  0  0  0  0
  196.0290  170.4450  145.4130 C   0  0  0  0  0  2  0  0  0  0  0  0
  194.5670  170.6360  145.7770 C   0  0  0  0  0  2  0  0  0  0  0  0
  191.9130  168.2770  142.3710 C   0  0  0  0  0  1  0  0  0  0  0  0
  192.5570  169.3520  143.1030 N   0  0  0  0  0  0  0  0  0  0  0  0
  192.5390  170.6580  142.7900 C   0  0  0  0  0  0  0  0  0  0  0  0
  193.2720  169.1740  144.1990 N   0  0  0  0  0  0  0  0  0  0  0  0
  193.2680  171.3850  143.7150 C   0  0  0  0  0  3  0  0  0  0  0  0
  193.6960  170.3950  144.5900 C   0  0  0  0  0  0  0  0  0  0  0  0
  191.8650  171.1900  141.6470 N   0  0  0  0  0  2  0  0  0  0  0  0
  190.4330  171.4490  141.6470 C   0  0  0  0  0  2  0  0  0  0  0  0
  189.1860  172.2910  139.8040 O   0  0  0  0  0  0  0  0  0  0  0  0
  190.1120  172.4890  140.6320 C   0  0  0  0  0  0  0  0  0  0  0  0
  190.8310  173.6740  140.5970 O   0  0  0  0  0  1  0  0  0  0  0  0
  1  2  1  0  0  0  0
  2 27  1  1  0  0  0
  2  5  1  0  0  0  0
  3  5  1  0  0  0  0
  4  1  1  0  0  0  0
  6  4  1  6  0  0  0
  6  3  1  0  0  0  0
  7 20  1  0  0  0  0
  9 13  1  0  0  0  0
 10 18  1  0  0  0  0
 12 11  1  1  0  0  0
 12 22  1  0  0  0  0
 12 23  1  0  0  0  0
 15 16  1  0  0  0  0
 15 17  1  6  0  0  0
 16 19  1  0  0  0  0
 18  9  1  0  0  0  0
 18 13  1  0  0  0  0
 18 21  1  0  0  0  0
 20 24  1  0  0  0  0
 20  6  1  0  0  0  0
 20 25  1  1  0  0  0
 21 19  1  0  0  0  0
 21  8  1  1  0  0  0
 22 26  1  6  0  0  0
 22 24  1  0  0  0  0
 23 10  1  0  0  0  0
 24 14  1  6  0  0  0
 24 15  1  0  0  0  0
 26  7  1  0  0  0  0
 28 27  1  0  0  0  0
 28 29  1  0  0  0  0
 30 31  1  0  0  0  0
 30 29  1  0  0  0  0
 32 33  1  0  0  0  0
 33 35  1  0  0  0  0
 34 33  1  0  0  0  0
 34 36  2  0  0  0  0
 35 37  2  0  0  0  0
 36 37  1  0  0  0  0
 37 31  1  0  0  0  0
 38 34  1  0  0  0  0
 39 38  1  0  0  0  0
 40 41  2  0  0  0  0
 41 39  1  0  0  0  0
 42 41  1  0  0  0  0
M  END
>  <MODEL>
8

>  <REMARK>
 VINA RESULT:      -7.6      3.444      8.942
  Name = 
  10 active torsions:
  status: ('A' for Active; 'I' for Inactive)
    1  A    between atoms: C_1  and  N_11
    2  A    between atoms: C_1  and  C_15
    3  A    between atoms: C_4  and  C_18
    4  A    between atoms: C_4  and  C_30
    5  A    between atoms: N_11  and  C_27
    6  A    between atoms: C_16  and  C_17
    7  A    between atoms: C_16  and  C_35
    8  A    between atoms: C_17  and  O_21
    9  A    between atoms: O_21  and  C_30
   10  A    between atoms: C_32  and  C_37
                            x       y       z     vdW  Elec       q    Type
                         _______ _______ _______ _____ _____    ______ ____

>  <TORSDO>
F 10

$$$$
=
 OpenBabel11062419363D

 42 46  0  0  1  0  0  0  0  0999 V2000
  189.2820  175.6230  147.2100 C   0  0  0  0  0  2  0  0  0  0  0  0
  188.6980  176.6840  146.2660 C   0  0  2  0  0  3  0  0  0  0  0  0
  190.9350  177.1110  145.1730 C   0  0  0  0  0  2  0  0  0  0  0  0
  190.7530  175.2900  146.9170 C   0  0  0  0  0  2  0  0  0  0  0  0
  189.7480  177.7340  145.9180 C   0  0  0  0  0  2  0  0  0  0  0  0
  191.1240  175.6100  145.4640 C   0  0  2  0  0  3  0  0  0  0  0  0
  193.0930  174.1660  146.1350 C   0  0  0  0  0  2  0  0  0  0  0  0
  194.9910  175.2930  138.6540 O   0  0  0  0  0  1  0  0  0  0  0  0
  196.6680  173.1460  139.3460 C   0  0  0  0  0  2  0  0  0  0  0  0
  195.8170  173.1400  141.7460 C   0  0  0  0  0  2  0  0  0  0  0  0
  193.1310  171.2040  143.4270 O   0  0  0  0  0  1  0  0  0  0  0  0
  194.1550  172.1460  143.3260 C   0  0  2  0  0  3  0  0  0  0  0  0
  197.3330  174.3140  140.0670 C   0  0  0  0  0  2  0  0  0  0  0  0
  191.3570  173.3590  143.7350 C   0  0  0  0  0  1  0  0  0  0  0  0
  192.7550  175.1340  142.5160 C   0  0  1  0  0  3  0  0  0  0  0  0
  194.1990  175.6410  142.3070 C   0  0  0  0  0  2  0  0  0  0  0  0
  192.1310  174.5010  141.2700 C   0  0  0  0  0  1  0  0  0  0  0  0
  195.9240  173.8980  140.4260 C   0  0  0  0  0  0  0  0  0  0  0  0
  194.5830  176.0510  140.8840 C   0  0  0  0  0  2  0  0  0  0  0  0
  192.5400  175.1200  145.0840 C   0  0  1  0  0  0  0  0  0  0  0  0
  194.7940  174.8450  139.9620 C   0  0  1  0  0  3  0  0  0  0  0  0
  193.8470  173.4220  144.1380 C   0  0  1  0  0  3  0  0  0  0  0  0
  194.4750  172.4290  141.8670 C   0  0  0  0  0  2  0  0  0  0  0  0
  192.6020  174.2640  143.8100 C   0  0  1  0  0  0  0  0  0  0  0  0
  193.4050  176.2200  145.0070 O   0  0  0  0  0  1  0  0  0  0  0  0
  193.8790  173.1680  145.5200 O   0  0  0  0  0  0  0  0  0  0  0  0
  187.4820  177.3510  146.8870 C   0  0  0  0  0  2  0  0  0  0  0  0
  186.2830  176.4160  146.8650 C   0  0  0  0  0  2  0  0  0  0  0  0
  185.3870  176.8000  145.8610 O   0  0  0  0  0  0  0  0  0  0  0  0
  184.4440  177.6010  146.5080 C   0  0  0  0  0  2  0  0  0  0  0  0
  184.3020  178.9200  145.7700 C   0  0  0  0  0  2  0  0  0  0  0  0
  184.4440  178.2660  140.8960 C   0  0  0  0  0  1  0  0  0  0  0  0
  184.8820  178.4990  142.2600 N   0  0  0  0  0  0  0  0  0  0  0  0
  186.1470  178.6670  142.6780 C   0  0  0  0  0  0  0  0  0  0  0  0
  184.0660  178.5700  143.2950 N   0  0  0  0  0  0  0  0  0  0  0  0
  186.1800  178.8610  144.0480 C   0  0  0  0  0  3  0  0  0  0  0  0
  184.8340  178.8030  144.3820 C   0  0  0  0  0  0  0  0  0  0  0  0
  187.2810  178.6300  141.8080 N   0  0  0  0  0  2  0  0  0  0  0  0
  188.5140  177.9500  142.1760 C   0  0  0  0  0  2  0  0  0  0  0  0
  189.0250  175.6590  142.5670 O   0  0  0  0  0  1  0  0  0  0  0  0
  188.3960  176.4990  141.8710 C   0  0  0  0  0  0  0  0  0  0  0  0
  187.5960  176.0690  140.8230 O   0  0  0  0  0  0  0  0  0  0  0  0
  2 27  1  1  0  0  0
  2  1  1  0  0  0  0
  3  5  1  0  0  0  0
  4  1  1  0  0  0  0
  5  2  1  0  0  0  0
  6  3  1  1  0  0  0
  6  4  1  0  0  0  0
  9 13  1  0  0  0  0
  9 18  1  0  0  0  0
 10 23  1  0  0  0  0
 12 11  1  6  0  0  0
 12 22  1  0  0  0  0
 13 18  1  0  0  0  0
 15 17  1  6  0  0  0
 15 24  1  0  0  0  0
 16 15  1  0  0  0  0
 18 10  1  0  0  0  0
 19 16  1  0  0  0  0
 20 25  1  6  0  0  0
 20  6  1  0  0  0  0
 20  7  1  0  0  0  0
 21  8  1  6  0  0  0
 21 18  1  0  0  0  0
 21 19  1  0  0  0  0
 22 26  1  1  0  0  0
 23 12  1  0  0  0  0
 24 14  1  6  0  0  0
 24 22  1  0  0  0  0
 24 20  1  0  0  0  0
 26  7  1  0  0  0  0
 28 27  1  0  0  0  0
 29 30  1  0  0  0  0
 29 28  1  0  0  0  0
 31 30  1  0  0  0  0
 32 33  1  0  0  0  0
 33 34  1  0  0  0  0
 33 35  1  0  0  0  0
 34 36  2  0  0  0  0
 35 37  2  0  0  0  0
 36 37  1  0  0  0  0
 37 31  1  0  0  0  0
 38 39  1  0  0  0  0
 38 34  1  0  0  0  0
 41 39  1  0  0  0  0
 41 40  1  0  0  0  0
 42 41  2  0  0  0  0
M  END
>  <MODEL>
9

>  <REMARK>
 VINA RESULT:      -7.3      1.165      1.427
  Name = 
  10 active torsions:
  status: ('A' for Active; 'I' for Inactive)
    1  A    between atoms: C_1  and  N_11
    2  A    between atoms: C_1  and  C_15
    3  A    between atoms: C_4  and  C_18
    4  A    between atoms: C_4  and  C_30
    5  A    between atoms: N_11  and  C_27
    6  A    between atoms: C_16  and  C_17
    7  A    between atoms: C_16  and  C_35
    8  A    between atoms: C_17  and  O_21
    9  A    between atoms: O_21  and  C_30
   10  A    between atoms: C_32  and  C_37
                            x       y       z     vdW  Elec       q    Type
                         _______ _______ _______ _____ _____    ______ ____

>  <TORSDO>
F 10

$$$$
