=
 OpenBabel11072409123D

 39 43  0  0  1  0  0  0  0  0999 V2000
  195.8250  173.7840  144.1180 O   0  0  0  0  0  0  0  0  0  0  0  0
  194.3490  177.4640  147.0170 O   0  0  0  0  0  1  0  0  0  0  0  0
  193.9560  173.5790  145.4850 C   0  0  2  0  0  3  0  0  0  0  0  0
  194.7920  174.5330  144.6960 C   0  0  1  0  0  3  0  0  0  0  0  0
  195.2820  172.4940  143.8980 C   0  0  2  0  0  3  0  0  0  0  0  0
  195.2930  175.6130  145.6430 C   0  0  0  0  0  2  0  0  0  0  0  0
  194.1370  176.2300  146.4080 C   0  0  0  0  0  0  0  0  0  0  0  0
  192.9500  175.5940  146.5560 C   0  0  0  0  0  0  0  0  0  0  0  0
  193.9100  172.3830  144.5770 C   0  0  2  0  0  3  0  0  0  0  0  0
  192.6530  174.2640  145.8870 C   0  0  0  0  0  2  0  0  0  0  0  0
  191.8960  171.5250  143.4200 C   0  0  0  0  0  3  0  0  0  0  0  0
  192.8040  172.4880  143.5570 C   0  0  0  0  0  3  0  0  0  0  0  0
  190.7790  171.6240  142.4310 C   0  0  0  0  0  2  0  0  0  0  0  0
  189.4420  171.9210  143.1050 C   0  0  0  0  0  2  0  0  0  0  0  0
  189.3690  173.3150  143.5110 N   0  0  0  0  0  2  0  0  0  0  0  0
  187.9780  173.9600  141.7500 O   0  0  0  0  0  0  0  0  0  0  0  0
  188.6090  174.2910  142.7920 C   0  0  0  0  0  0  0  0  0  0  0  0
  188.5790  175.7110  143.2810 C   0  0  1  0  0  3  0  0  0  0  0  0
  189.9060  176.4250  143.0860 C   0  0  0  0  0  2  0  0  0  0  0  0
  190.0820  177.4850  144.1520 C   0  0  0  0  0  2  0  0  0  0  0  0
  191.3310  178.2920  143.8540 C   0  0  0  0  0  1  0  0  0  0  0  0
  187.4070  176.5180  142.6910 C   0  0  0  0  0  2  0  0  0  0  0  0
  186.1160  176.4810  143.5230 C   0  0  0  0  0  2  0  0  0  0  0  0
  186.2820  177.1760  144.8650 C   0  0  1  0  0  3  0  0  0  0  0  0
  184.9510  177.6830  145.3380 C   0  0  2  0  0  0  0  0  0  0  0  0
  185.7620  179.0880  147.2540 C   0  0  0  0  0  2  0  0  0  0  0  0
  184.5740  178.3350  146.6820 C   0  0  1  0  0  3  0  0  0  0  0  0
  185.4680  179.0760  145.7640 C   0  0  2  0  0  3  0  0  0  0  0  0
  185.5770  176.5030  145.8330 O   0  0  0  0  0  0  0  0  0  0  0  0
  197.2750  171.1820  143.8530 O   0  0  0  0  0  0  0  0  0  0  0  0
  196.2120  171.4550  144.4640 C   0  0  0  0  0  0  0  0  0  0  0  0
  195.9470  170.8090  145.6740 O   0  0  0  0  0  0  0  0  0  0  0  0
  196.2380  169.1370  147.3560 C   0  0  0  0  0  1  0  0  0  0  0  0
  196.2030  169.4270  145.8750 C   0  0  0  0  0  3  0  0  0  0  0  0
  195.0890  168.6100  145.2440 C   0  0  0  0  0  1  0  0  0  0  0  0
  191.8260  176.2580  147.2890 C   0  0  0  0  0  2  0  0  0  0  0  0
  190.8830  175.2910  147.7320 O   0  0  0  0  0  0  0  0  0  0  0  0
  189.6480  175.1690  147.1050 C   0  0  0  0  0  3  0  0  0  0  0  0
  188.7170  174.5460  147.6720 O   0  0  0  0  0  0  0  0  0  0  0  0
  1  4  1  0  0  0  0
  3 10  1  6  0  0  0
  4  3  1  0  0  0  0
  4  6  1  1  0  0  0
  5  1  1  0  0  0  0
  5 31  1  1  0  0  0
  5  9  1  0  0  0  0
  6  7  1  0  0  0  0
  7  8  2  0  0  0  0
  7  2  1  0  0  0  0
  8 36  1  0  0  0  0
  9 12  1  6  0  0  0
  9  3  1  0  0  0  0
 10  8  1  0  0  0  0
 11 12  2  0  0  0  0
 13 14  1  0  0  0  0
 13 11  1  0  0  0  0
 14 15  1  0  0  0  0
 16 17  2  0  0  0  0
 17 18  1  0  0  0  0
 17 15  1  0  0  0  0
 18 22  1  6  0  0  0
 19 18  1  0  0  0  0
 19 20  1  0  0  0  0
 21 20  1  0  0  0  0
 22 23  1  0  0  0  0
 24 23  1  6  0  0  0
 24 25  1  0  0  0  0
 24 29  1  0  0  0  0
 25 28  1  0  0  0  0
 25 29  1  1  0  0  0
 25 27  1  0  0  0  0
 27 26  1  1  0  0  0
 28 27  1  0  0  0  0
 28 26  1  1  0  0  0
 30 31  2  0  0  0  0
 31 32  1  0  0  0  0
 32 34  1  0  0  0  0
 34 33  1  0  0  0  0
 35 34  1  0  0  0  0
 36 37  1  0  0  0  0
 38 39  2  0  0  0  0
 38 37  1  0  0  0  0
M  END
>  <MODEL>
1

>  <REMARK>
 VINA RESULT:      -6.5      0.000      0.000
  Name = 
  16 active torsions:
  status: ('A' for Active; 'I' for Inactive)
    1  A    between atoms: N_1  and  C_22
    2  A    between atoms: C_2  and  C_8
    3  A    between atoms: C_3  and  C_7
    4  A    between atoms: C_3  and  C_31
    5  A    between atoms: C_4  and  C_8
    6  A    between atoms: C_4  and  C_28
    7  A    between atoms: C_4  and  C_31
    8  A    between atoms: C_16  and  C_34
    9  A    between atoms: O_17  and  C_25
   10  A    between atoms: O_17  and  C_32
   11  A    between atoms: C_18  and  C_23
   12  A    between atoms: C_18  and  O_26
   13  A    between atoms: C_19  and  O_26
   14  A    between atoms: C_21  and  C_36
   15  A    between atoms: C_22  and  C_34
   16  A    between atoms: C_25  and  C_33
                            x       y       z     vdW  Elec       q    Type
                         _______ _______ _______ _____ _____    ______ ____

>  <TORSDO>
F 16

$$$$
=
 OpenBabel11072409123D

 39 43  0  0  1  0  0  0  0  0999 V2000
  191.2540  172.0670  144.6440 O   0  0  0  0  0  0  0  0  0  0  0  0
  187.1570  172.5340  141.9760 O   0  0  0  0  0  1  0  0  0  0  0  0
  191.3290  172.6330  142.3920 C   0  0  2  0  0  3  0  0  0  0  0  0
  190.5250  172.7270  143.6460 C   0  0  1  0  0  3  0  0  0  0  0  0
  192.6160  172.2450  144.3000 C   0  0  2  0  0  3  0  0  0  0  0  0
  189.1660  172.0960  143.3820 C   0  0  0  0  0  2  0  0  0  0  0  0
  188.5270  172.7030  142.1460 C   0  0  0  0  0  0  0  0  0  0  0  0
  189.2570  173.3410  141.1990 C   0  0  0  0  0  0  0  0  0  0  0  0
  192.7250  172.8620  142.8990 C   0  0  2  0  0  3  0  0  0  0  0  0
  190.7480  173.5830  141.3480 C   0  0  0  0  0  2  0  0  0  0  0  0
  193.7170  174.8240  144.0370 C   0  0  0  0  0  3  0  0  0  0  0  0
  193.0620  174.3290  142.9900 C   0  0  0  0  0  3  0  0  0  0  0  0
  194.0800  176.2720  144.1320 C   0  0  0  0  0  2  0  0  0  0  0  0
  193.5200  176.9210  145.3950 C   0  0  0  0  0  2  0  0  0  0  0  0
  192.1140  176.5920  145.5620 N   0  0  0  0  0  2  0  0  0  0  0  0
  191.3640  178.1170  143.9600 O   0  0  0  0  0  0  0  0  0  0  0  0
  191.0770  177.2240  144.8050 C   0  0  0  0  0  0  0  0  0  0  0  0
  189.6470  176.8230  145.0310 C   0  0  1  0  0  3  0  0  0  0  0  0
  189.1660  175.7820  144.0330 C   0  0  0  0  0  2  0  0  0  0  0  0
  188.0200  176.3410  143.2180 C   0  0  0  0  0  2  0  0  0  0  0  0
  188.5760  177.1290  142.0480 C   0  0  0  0  0  1  0  0  0  0  0  0
  189.3740  176.3870  146.4830 C   0  0  0  0  0  2  0  0  0  0  0  0
  187.9000  176.0970  146.8020 C   0  0  0  0  0  2  0  0  0  0  0  0
  187.0230  177.3240  146.6140 C   0  0  1  0  0  3  0  0  0  0  0  0
  185.5840  176.9070  146.5250 C   0  0  2  0  0  0  0  0  0  0  0  0
  184.6180  179.1040  145.7860 C   0  0  0  0  0  2  0  0  0  0  0  0
  184.3150  177.7790  146.4620 C   0  0  1  0  0  3  0  0  0  0  0  0
  185.2460  177.8040  145.3120 C   0  0  2  0  0  3  0  0  0  0  0  0
  186.1810  177.4700  147.6890 O   0  0  0  0  0  0  0  0  0  0  0  0
  192.6530  169.8640  144.1380 O   0  0  0  0  0  0  0  0  0  0  0  0
  193.3180  170.9140  144.3230 C   0  0  0  0  0  0  0  0  0  0  0  0
  194.6990  170.8110  144.5070 O   0  0  0  0  0  0  0  0  0  0  0  0
  196.2480  170.0400  146.1540 C   0  0  0  0  0  1  0  0  0  0  0  0
  195.3380  171.1650  145.7250 C   0  0  0  0  0  3  0  0  0  0  0  0
  196.1740  172.4160  145.5100 C   0  0  0  0  0  1  0  0  0  0  0  0
  188.5780  173.9550  140.0140 C   0  0  0  0  0  2  0  0  0  0  0  0
  188.6880  173.1020  138.8820 O   0  0  0  0  0  0  0  0  0  0  0  0
  188.5970  173.6200  137.5950 C   0  0  0  0  0  3  0  0  0  0  0  0
  187.9750  174.6930  137.3950 O   0  0  0  0  0  0  0  0  0  0  0  0
  2  7  1  0  0  0  0
  3 10  1  6  0  0  0
  3  9  1  0  0  0  0
  3  4  1  0  0  0  0
  4  6  1  6  0  0  0
  4  1  1  0  0  0  0
  5 31  1  6  0  0  0
  5  1  1  0  0  0  0
  7  6  1  0  0  0  0
  8 10  1  0  0  0  0
  8  7  2  0  0  0  0
  9 12  1  1  0  0  0
  9  5  1  0  0  0  0
 11 13  1  0  0  0  0
 12 11  2  0  0  0  0
 13 14  1  0  0  0  0
 14 15  1  0  0  0  0
 16 17  2  0  0  0  0
 17 18  1  0  0  0  0
 17 15  1  0  0  0  0
 18 19  1  6  0  0  0
 18 22  1  0  0  0  0
 20 19  1  0  0  0  0
 21 20  1  0  0  0  0
 22 23  1  0  0  0  0
 24 23  1  1  0  0  0
 24 29  1  0  0  0  0
 25 24  1  0  0  0  0
 25 29  1  1  0  0  0
 27 26  1  1  0  0  0
 27 25  1  0  0  0  0
 28 26  1  1  0  0  0
 28 27  1  0  0  0  0
 28 25  1  0  0  0  0
 30 31  2  0  0  0  0
 31 32  1  0  0  0  0
 32 34  1  0  0  0  0
 34 33  1  0  0  0  0
 35 34  1  0  0  0  0
 36  8  1  0  0  0  0
 37 36  1  0  0  0  0
 38 37  1  0  0  0  0
 39 38  2  0  0  0  0
M  END
>  <MODEL>
2

>  <REMARK>
 VINA RESULT:      -6.4      2.291      5.140
  Name = 
  16 active torsions:
  status: ('A' for Active; 'I' for Inactive)
    1  A    between atoms: N_1  and  C_22
    2  A    between atoms: C_2  and  C_8
    3  A    between atoms: C_3  and  C_7
    4  A    between atoms: C_3  and  C_31
    5  A    between atoms: C_4  and  C_8
    6  A    between atoms: C_4  and  C_28
    7  A    between atoms: C_4  and  C_31
    8  A    between atoms: C_16  and  C_34
    9  A    between atoms: O_17  and  C_25
   10  A    between atoms: O_17  and  C_32
   11  A    between atoms: C_18  and  C_23
   12  A    between atoms: C_18  and  O_26
   13  A    between atoms: C_19  and  O_26
   14  A    between atoms: C_21  and  C_36
   15  A    between atoms: C_22  and  C_34
   16  A    between atoms: C_25  and  C_33
                            x       y       z     vdW  Elec       q    Type
                         _______ _______ _______ _____ _____    ______ ____

>  <TORSDO>
F 16

$$$$
=
 OpenBabel11072409123D

 39 43  0  0  1  0  0  0  0  0999 V2000
  196.9070  174.6130  145.2880 O   0  0  0  0  0  0  0  0  0  0  0  0
  197.2440  169.7810  146.0980 O   0  0  0  0  0  1  0  0  0  0  0  0
  195.1370  173.1780  144.8310 C   0  0  2  0  0  3  0  0  0  0  0  0
  196.3240  173.4100  145.7060 C   0  0  1  0  0  3  0  0  0  0  0  0
  195.8360  175.4050  144.8040 C   0  0  2  0  0  3  0  0  0  0  0  0
  197.2530  172.2140  145.5640 C   0  0  0  0  0  2  0  0  0  0  0  0
  196.4990  170.9200  145.8100 C   0  0  0  0  0  0  0  0  0  0  0  0
  195.1510  170.8410  145.6990 C   0  0  0  0  0  0  0  0  0  0  0  0
  194.5580  174.5610  144.7190 C   0  0  2  0  0  3  0  0  0  0  0  0
  194.2860  172.0570  145.4200 C   0  0  0  0  0  2  0  0  0  0  0  0
  193.3890  176.1400  146.2250 C   0  0  0  0  0  3  0  0  0  0  0  0
  193.6330  174.8820  145.8650 C   0  0  0  0  0  3  0  0  0  0  0  0
  192.4550  176.4770  147.3430 C   0  0  0  0  0  2  0  0  0  0  0  0
  191.2540  175.5360  147.3900 C   0  0  0  0  0  2  0  0  0  0  0  0
  190.0840  176.1660  146.8000 N   0  0  0  0  0  2  0  0  0  0  0  0
  188.5790  174.5670  147.5950 O   0  0  0  0  0  0  0  0  0  0  0  0
  188.7640  175.6340  146.9460 C   0  0  0  0  0  0  0  0  0  0  0  0
  187.6040  176.3480  146.3110 C   0  0  1  0  0  3  0  0  0  0  0  0
  186.5890  176.8360  147.3320 C   0  0  0  0  0  2  0  0  0  0  0  0
  186.0570  178.1920  146.9220 C   0  0  0  0  0  2  0  0  0  0  0  0
  184.5590  178.0980  146.7070 C   0  0  0  0  0  1  0  0  0  0  0  0
  188.0480  177.4800  145.3650 C   0  0  0  0  0  2  0  0  0  0  0  0
  187.9180  177.1560  143.8690 C   0  0  0  0  0  2  0  0  0  0  0  0
  189.2450  176.7370  143.2580 C   0  0  1  0  0  3  0  0  0  0  0  0
  189.2310  175.2610  142.9850 C   0  0  2  0  0  0  0  0  0  0  0  0
  191.6670  174.9720  142.4490 C   0  0  0  0  0  2  0  0  0  0  0  0
  190.2770  174.3900  142.2630 C   0  0  1  0  0  3  0  0  0  0  0  0
  190.6380  174.9910  143.5670 C   0  0  2  0  0  3  0  0  0  0  0  0
  189.0470  176.2590  141.9860 O   0  0  0  0  0  0  0  0  0  0  0  0
  196.7490  177.0540  143.3390 O   0  0  0  0  0  0  0  0  0  0  0  0
  196.1830  175.9370  143.4390 C   0  0  0  0  0  0  0  0  0  0  0  0
  195.9290  175.2050  142.2760 O   0  0  0  0  0  0  0  0  0  0  0  0
  197.0720  175.4900  140.1980 C   0  0  0  0  0  1  0  0  0  0  0  0
  195.8330  175.8120  140.9960 C   0  0  0  0  0  3  0  0  0  0  0  0
  194.6220  175.2560  140.2650 C   0  0  0  0  0  1  0  0  0  0  0  0
  194.4470  169.5510  145.9860 C   0  0  0  0  0  2  0  0  0  0  0  0
  194.5590  168.6680  144.8770 O   0  0  0  0  0  0  0  0  0  0  0  0
  193.4980  168.5070  143.9930 C   0  0  0  0  0  3  0  0  0  0  0  0
  192.5720  169.3550  143.9650 O   0  0  0  0  0  0  0  0  0  0  0  0
  1  4  1  0  0  0  0
  3 10  1  1  0  0  0
  3  4  1  0  0  0  0
  4  6  1  6  0  0  0
  5 31  1  6  0  0  0
  5  1  1  0  0  0  0
  6  7  1  0  0  0  0
  7  2  1  0  0  0  0
  8  7  2  0  0  0  0
  8 36  1  0  0  0  0
  9  5  1  0  0  0  0
  9  3  1  0  0  0  0
  9 12  1  1  0  0  0
 10  8  1  0  0  0  0
 11 13  1  0  0  0  0
 12 11  2  0  0  0  0
 13 14  1  0  0  0  0
 15 17  1  0  0  0  0
 15 14  1  0  0  0  0
 17 16  2  0  0  0  0
 18 22  1  1  0  0  0
 18 17  1  0  0  0  0
 18 19  1  0  0  0  0
 20 19  1  0  0  0  0
 21 20  1  0  0  0  0
 23 22  1  0  0  0  0
 24 23  1  1  0  0  0
 25 29  1  6  0  0  0
 25 24  1  0  0  0  0
 25 28  1  0  0  0  0
 27 26  1  6  0  0  0
 27 25  1  0  0  0  0
 27 28  1  0  0  0  0
 28 26  1  6  0  0  0
 29 24  1  0  0  0  0
 30 31  2  0  0  0  0
 32 31  1  0  0  0  0
 33 34  1  0  0  0  0
 34 32  1  0  0  0  0
 35 34  1  0  0  0  0
 37 36  1  0  0  0  0
 38 37  1  0  0  0  0
 39 38  2  0  0  0  0
M  END
>  <MODEL>
3

>  <REMARK>
 VINA RESULT:      -6.4      2.249      5.832
  Name = 
  16 active torsions:
  status: ('A' for Active; 'I' for Inactive)
    1  A    between atoms: N_1  and  C_22
    2  A    between atoms: C_2  and  C_8
    3  A    between atoms: C_3  and  C_7
    4  A    between atoms: C_3  and  C_31
    5  A    between atoms: C_4  and  C_8
    6  A    between atoms: C_4  and  C_28
    7  A    between atoms: C_4  and  C_31
    8  A    between atoms: C_16  and  C_34
    9  A    between atoms: O_17  and  C_25
   10  A    between atoms: O_17  and  C_32
   11  A    between atoms: C_18  and  C_23
   12  A    between atoms: C_18  and  O_26
   13  A    between atoms: C_19  and  O_26
   14  A    between atoms: C_21  and  C_36
   15  A    between atoms: C_22  and  C_34
   16  A    between atoms: C_25  and  C_33
                            x       y       z     vdW  Elec       q    Type
                         _______ _______ _______ _____ _____    ______ ____

>  <TORSDO>
F 16

$$$$
=
 OpenBabel11072409123D

 39 43  0  0  1  0  0  0  0  0999 V2000
  186.3900  178.5870  144.4660 O   0  0  0  0  0  0  0  0  0  0  0  0
  184.0750  178.7500  140.1380 O   0  0  0  0  0  1  0  0  0  0  0  0
  186.8760  177.0730  142.7710 C   0  0  2  0  0  3  0  0  0  0  0  0
  186.4170  178.4620  143.0710 C   0  0  1  0  0  3  0  0  0  0  0  0
  187.4180  177.7350  144.9430 C   0  0  2  0  0  3  0  0  0  0  0  0
  185.0520  178.6550  142.4270 C   0  0  0  0  0  2  0  0  0  0  0  0
  185.0980  178.2830  140.9570 C   0  0  0  0  0  0  0  0  0  0  0  0
  186.0610  177.4760  140.4490 C   0  0  0  0  0  0  0  0  0  0  0  0
  187.9600  176.8760  143.7930 C   0  0  2  0  0  3  0  0  0  0  0  0
  187.2180  176.9650  141.2880 C   0  0  0  0  0  2  0  0  0  0  0  0
  190.4300  176.8060  143.6520 C   0  0  0  0  0  3  0  0  0  0  0  0
  189.2900  177.4040  143.3180 C   0  0  0  0  0  3  0  0  0  0  0  0
  191.7560  177.3030  143.1700 C   0  0  0  0  0  2  0  0  0  0  0  0
  192.8980  176.8720  144.0880 C   0  0  0  0  0  2  0  0  0  0  0  0
  193.2550  175.4830  143.8490 N   0  0  0  0  0  2  0  0  0  0  0  0
  192.7490  174.7750  146.0160 O   0  0  0  0  0  0  0  0  0  0  0  0
  193.1510  174.4740  144.8570 C   0  0  0  0  0  0  0  0  0  0  0  0
  193.5330  173.0590  144.5290 C   0  0  1  0  0  3  0  0  0  0  0  0
  194.2430  172.3630  145.6790 C   0  0  0  0  0  2  0  0  0  0  0  0
  195.7280  172.6440  145.6140 C   0  0  0  0  0  2  0  0  0  0  0  0
  196.4920  171.3520  145.8280 C   0  0  0  0  0  1  0  0  0  0  0  0
  192.3450  172.2270  144.0070 C   0  0  0  0  0  2  0  0  0  0  0  0
  190.9880  172.9440  144.0540 C   0  0  0  0  0  2  0  0  0  0  0  0
  190.1290  172.6200  142.8430 C   0  0  1  0  0  3  0  0  0  0  0  0
  190.0160  173.8330  141.9660 C   0  0  2  0  0  0  0  0  0  0  0  0
  188.2200  172.9950  140.4240 C   0  0  0  0  0  2  0  0  0  0  0  0
  189.3670  173.9770  140.5750 C   0  0  1  0  0  3  0  0  0  0  0  0
  188.4920  173.7070  141.7380 C   0  0  2  0  0  3  0  0  0  0  0  0
  190.8750  172.7290  141.6950 O   0  0  0  0  0  0  0  0  0  0  0  0
  185.6500  176.5400  146.0130 O   0  0  0  0  0  0  0  0  0  0  0  0
  186.8690  176.8440  146.0240 C   0  0  0  0  0  0  0  0  0  0  0  0
  187.6850  176.3110  147.0260 O   0  0  0  0  0  0  0  0  0  0  0  0
  190.0170  176.7550  147.2890 C   0  0  0  0  0  1  0  0  0  0  0  0
  188.9800  175.7930  146.7620 C   0  0  0  0  0  3  0  0  0  0  0  0
  189.1440  174.4600  147.4730 C   0  0  0  0  0  1  0  0  0  0  0  0
  186.0860  177.1650  138.9840 C   0  0  0  0  0  2  0  0  0  0  0  0
  187.0610  176.1680  138.7060 O   0  0  0  0  0  0  0  0  0  0  0  0
  187.0990  175.5450  137.4630 C   0  0  0  0  0  3  0  0  0  0  0  0
  187.2570  176.2310  136.4230 O   0  0  0  0  0  0  0  0  0  0  0  0
  1  5  1  0  0  0  0
  2  7  1  0  0  0  0
  3 10  1  6  0  0  0
  3  4  1  0  0  0  0
  3  9  1  0  0  0  0
  4  6  1  1  0  0  0
  4  1  1  0  0  0  0
  5 31  1  1  0  0  0
  7  6  1  0  0  0  0
  8  7  2  0  0  0  0
  8 10  1  0  0  0  0
  9 12  1  6  0  0  0
  9  5  1  0  0  0  0
 12 11  2  0  0  0  0
 13 11  1  0  0  0  0
 13 14  1  0  0  0  0
 15 14  1  0  0  0  0
 15 17  1  0  0  0  0
 17 16  2  0  0  0  0
 18 22  1  1  0  0  0
 18 17  1  0  0  0  0
 18 19  1  0  0  0  0
 20 19  1  0  0  0  0
 20 21  1  0  0  0  0
 22 23  1  0  0  0  0
 24 23  1  1  0  0  0
 25 29  1  6  0  0  0
 25 24  1  0  0  0  0
 27 26  1  6  0  0  0
 27 28  1  0  0  0  0
 27 25  1  0  0  0  0
 28 26  1  6  0  0  0
 28 25  1  0  0  0  0
 29 24  1  0  0  0  0
 30 31  2  0  0  0  0
 31 32  1  0  0  0  0
 34 32  1  0  0  0  0
 34 33  1  0  0  0  0
 34 35  1  0  0  0  0
 36  8  1  0  0  0  0
 37 36  1  0  0  0  0
 38 37  1  0  0  0  0
 39 38  2  0  0  0  0
M  END
>  <MODEL>
4

>  <REMARK>
 VINA RESULT:      -6.4      2.591      8.670
  Name = 
  16 active torsions:
  status: ('A' for Active; 'I' for Inactive)
    1  A    between atoms: N_1  and  C_22
    2  A    between atoms: C_2  and  C_8
    3  A    between atoms: C_3  and  C_7
    4  A    between atoms: C_3  and  C_31
    5  A    between atoms: C_4  and  C_8
    6  A    between atoms: C_4  and  C_28
    7  A    between atoms: C_4  and  C_31
    8  A    between atoms: C_16  and  C_34
    9  A    between atoms: O_17  and  C_25
   10  A    between atoms: O_17  and  C_32
   11  A    between atoms: C_18  and  C_23
   12  A    between atoms: C_18  and  O_26
   13  A    between atoms: C_19  and  O_26
   14  A    between atoms: C_21  and  C_36
   15  A    between atoms: C_22  and  C_34
   16  A    between atoms: C_25  and  C_33
                            x       y       z     vdW  Elec       q    Type
                         _______ _______ _______ _____ _____    ______ ____

>  <TORSDO>
F 16

$$$$
=
 OpenBabel11072409123D

 39 43  0  0  1  0  0  0  0  0999 V2000
  187.0780  176.5380  145.2090 O   0  0  0  0  0  0  0  0  0  0  0  0
  190.7240  175.0780  148.1580 O   0  0  0  0  0  1  0  0  0  0  0  0
  189.2870  177.1330  144.7980 C   0  0  2  0  0  3  0  0  0  0  0  0
  188.3940  176.0880  145.3790 C   0  0  1  0  0  3  0  0  0  0  0  0
  187.0920  177.3090  144.0210 C   0  0  2  0  0  3  0  0  0  0  0  0
  188.7790  175.9020  146.8400 C   0  0  0  0  0  2  0  0  0  0  0  0
  190.2670  175.6410  146.9710 C   0  0  0  0  0  0  0  0  0  0  0  0
  191.1470  175.9900  146.0010 C   0  0  0  0  0  0  0  0  0  0  0  0
  188.5380  177.5240  143.5540 C   0  0  2  0  0  3  0  0  0  0  0  0
  190.7020  176.5770  144.6740 C   0  0  0  0  0  2  0  0  0  0  0  0
  187.9390  175.8190  141.8630 C   0  0  0  0  0  3  0  0  0  0  0  0
  188.8600  176.6210  142.3920 C   0  0  0  0  0  3  0  0  0  0  0  0
  188.2340  174.9340  140.6940 C   0  0  0  0  0  2  0  0  0  0  0  0
  188.6190  173.5220  141.1280 C   0  0  0  0  0  2  0  0  0  0  0  0
  189.9610  173.5040  141.6890 N   0  0  0  0  0  2  0  0  0  0  0  0
  189.2630  172.9330  143.8430 O   0  0  0  0  0  0  0  0  0  0  0  0
  190.2200  173.1920  143.0610 C   0  0  0  0  0  0  0  0  0  0  0  0
  191.6350  173.1880  143.5640 C   0  0  1  0  0  3  0  0  0  0  0  0
  191.9890  171.9080  144.3040 C   0  0  0  0  0  2  0  0  0  0  0  0
  193.4740  171.6390  144.1890 C   0  0  0  0  0  2  0  0  0  0  0  0
  194.1320  171.8800  145.5330 C   0  0  0  0  0  1  0  0  0  0  0  0
  192.6600  173.5080  142.4590 C   0  0  0  0  0  2  0  0  0  0  0  0
  193.2990  174.9010  142.5580 C   0  0  0  0  0  2  0  0  0  0  0  0
  194.7970  174.8610  142.3060 C   0  0  1  0  0  3  0  0  0  0  0  0
  195.2000  176.0400  141.4690 C   0  0  2  0  0  0  0  0  0  0  0  0
  197.5500  175.3270  140.9490 C   0  0  0  0  0  2  0  0  0  0  0  0
  196.6080  176.5120  141.0560 C   0  0  1  0  0  3  0  0  0  0  0  0
  196.1000  175.2350  140.5050 C   0  0  2  0  0  3  0  0  0  0  0  0
  195.4000  175.9550  142.8770 O   0  0  0  0  0  0  0  0  0  0  0  0
  185.8760  179.2450  143.3340 O   0  0  0  0  0  0  0  0  0  0  0  0
  186.4410  178.6410  144.2800 C   0  0  0  0  0  0  0  0  0  0  0  0
  186.4100  179.2120  145.5550 O   0  0  0  0  0  0  0  0  0  0  0  0
  184.1460  178.4580  145.6570 C   0  0  0  0  0  1  0  0  0  0  0  0
  185.2610  179.1660  146.3870 C   0  0  0  0  0  3  0  0  0  0  0  0
  185.5860  178.3900  147.6520 C   0  0  0  0  0  1  0  0  0  0  0  0
  192.6040  175.6800  146.1600 C   0  0  0  0  0  2  0  0  0  0  0  0
  193.3120  176.8350  146.5910 O   0  0  0  0  0  0  0  0  0  0  0  0
  194.6300  177.0420  146.2000 C   0  0  0  0  0  3  0  0  0  0  0  0
  194.9680  178.1390  145.6890 O   0  0  0  0  0  0  0  0  0  0  0  0
  1  4  1  0  0  0  0
  3 10  1  6  0  0  0
  3  4  1  0  0  0  0
  4  6  1  1  0  0  0
  5 31  1  1  0  0  0
  5  1  1  0  0  0  0
  6  7  1  0  0  0  0
  7  2  1  0  0  0  0
  8 36  1  0  0  0  0
  8  7  2  0  0  0  0
  9 12  1  6  0  0  0
  9  5  1  0  0  0  0
  9  3  1  0  0  0  0
 10  8  1  0  0  0  0
 11 12  2  0  0  0  0
 13 14  1  0  0  0  0
 13 11  1  0  0  0  0
 14 15  1  0  0  0  0
 15 17  1  0  0  0  0
 17 18  1  0  0  0  0
 17 16  2  0  0  0  0
 18 22  1  6  0  0  0
 18 19  1  0  0  0  0
 20 19  1  0  0  0  0
 20 21  1  0  0  0  0
 22 23  1  0  0  0  0
 24 23  1  1  0  0  0
 24 29  1  0  0  0  0
 25 24  1  0  0  0  0
 25 29  1  1  0  0  0
 27 26  1  1  0  0  0
 27 25  1  0  0  0  0
 28 26  1  1  0  0  0
 28 27  1  0  0  0  0
 28 25  1  0  0  0  0
 30 31  2  0  0  0  0
 31 32  1  0  0  0  0
 32 34  1  0  0  0  0
 33 34  1  0  0  0  0
 34 35  1  0  0  0  0
 36 37  1  0  0  0  0
 38 37  1  0  0  0  0
 39 38  2  0  0  0  0
M  END
>  <MODEL>
5

>  <REMARK>
 VINA RESULT:      -6.1      2.161      8.523
  Name = 
  16 active torsions:
  status: ('A' for Active; 'I' for Inactive)
    1  A    between atoms: N_1  and  C_22
    2  A    between atoms: C_2  and  C_8
    3  A    between atoms: C_3  and  C_7
    4  A    between atoms: C_3  and  C_31
    5  A    between atoms: C_4  and  C_8
    6  A    between atoms: C_4  and  C_28
    7  A    between atoms: C_4  and  C_31
    8  A    between atoms: C_16  and  C_34
    9  A    between atoms: O_17  and  C_25
   10  A    between atoms: O_17  and  C_32
   11  A    between atoms: C_18  and  C_23
   12  A    between atoms: C_18  and  O_26
   13  A    between atoms: C_19  and  O_26
   14  A    between atoms: C_21  and  C_36
   15  A    between atoms: C_22  and  C_34
   16  A    between atoms: C_25  and  C_33
                            x       y       z     vdW  Elec       q    Type
                         _______ _______ _______ _____ _____    ______ ____

>  <TORSDO>
F 16

$$$$
=
 OpenBabel11072409123D

 39 43  0  0  1  0  0  0  0  0999 V2000
  195.5610  176.1620  142.3080 O   0  0  0  0  0  0  0  0  0  0  0  0
  194.3200  177.1470  146.9560 O   0  0  0  0  0  1  0  0  0  0  0  0
  194.2850  174.6810  143.5640 C   0  0  2  0  0  3  0  0  0  0  0  0
  194.6230  176.1190  143.3470 C   0  0  1  0  0  3  0  0  0  0  0  0
  195.2540  175.0580  141.4740 C   0  0  2  0  0  3  0  0  0  0  0  0
  195.1570  176.6780  144.6580 C   0  0  0  0  0  2  0  0  0  0  0  0
  194.1910  176.3950  145.7930 C   0  0  0  0  0  0  0  0  0  0  0  0
  193.2640  175.4100  145.7190 C   0  0  0  0  0  0  0  0  0  0  0  0
  194.2100  174.1630  142.1550 C   0  0  2  0  0  3  0  0  0  0  0  0
  193.0570  174.5820  144.4630 C   0  0  0  0  0  2  0  0  0  0  0  0
  192.1360  173.3610  141.0680 C   0  0  0  0  0  3  0  0  0  0  0  0
  192.8480  174.3790  141.5450 C   0  0  0  0  0  3  0  0  0  0  0  0
  190.7730  173.5540  140.4810 C   0  0  0  0  0  2  0  0  0  0  0  0
  189.6990  173.6840  141.5580 C   0  0  0  0  0  2  0  0  0  0  0  0
  189.4520  175.0820  141.8720 N   0  0  0  0  0  2  0  0  0  0  0  0
  187.1840  174.7800  142.3390 O   0  0  0  0  0  0  0  0  0  0  0  0
  188.1660  175.5700  142.2670 C   0  0  0  0  0  0  0  0  0  0  0  0
  187.9940  177.0280  142.5820 C   0  0  1  0  0  3  0  0  0  0  0  0
  189.3020  177.8000  142.5170 C   0  0  0  0  0  2  0  0  0  0  0  0
  189.8680  177.9730  143.9100 C   0  0  0  0  0  2  0  0  0  0  0  0
  191.3820  178.0100  143.8340 C   0  0  0  0  0  1  0  0  0  0  0  0
  186.8970  177.6960  141.7300 C   0  0  0  0  0  2  0  0  0  0  0  0
  186.1740  178.8660  142.4130 C   0  0  0  0  0  2  0  0  0  0  0  0
  185.3790  178.4140  143.6280 C   0  0  1  0  0  3  0  0  0  0  0  0
  185.9180  179.0800  144.8600 C   0  0  2  0  0  0  0  0  0  0  0  0
  184.6640  177.7380  146.5720 C   0  0  0  0  0  2  0  0  0  0  0  0
  185.3800  179.0490  146.3040 C   0  0  1  0  0  3  0  0  0  0  0  0
  185.9250  177.8000  145.7260 C   0  0  2  0  0  3  0  0  0  0  0  0
  184.7290  179.4860  144.1890 O   0  0  0  0  0  0  0  0  0  0  0  0
  197.2930  174.0240  142.1600 O   0  0  0  0  0  0  0  0  0  0  0  0
  196.5050  174.2650  141.2110 C   0  0  0  0  0  0  0  0  0  0  0  0
  196.8020  173.7530  139.9450 O   0  0  0  0  0  0  0  0  0  0  0  0
  196.4140  173.5580  137.5960 C   0  0  0  0  0  1  0  0  0  0  0  0
  195.8020  173.4880  138.9730 C   0  0  0  0  0  3  0  0  0  0  0  0
  195.2460  172.0900  139.1910 C   0  0  0  0  0  1  0  0  0  0  0  0
  192.3070  175.1900  146.8500 C   0  0  0  0  0  2  0  0  0  0  0  0
  191.0540  175.7990  146.5650 O   0  0  0  0  0  0  0  0  0  0  0  0
  189.8800  175.0550  146.6110 C   0  0  0  0  0  3  0  0  0  0  0  0
  189.1820  174.9210  145.5760 O   0  0  0  0  0  0  0  0  0  0  0  0
  1  4  1  0  0  0  0
  3 10  1  6  0  0  0
  4  3  1  0  0  0  0
  4  6  1  1  0  0  0
  5 31  1  1  0  0  0
  5  9  1  0  0  0  0
  5  1  1  0  0  0  0
  6  7  1  0  0  0  0
  7  2  1  0  0  0  0
  8  7  2  0  0  0  0
  8 36  1  0  0  0  0
  9 12  1  6  0  0  0
  9  3  1  0  0  0  0
 10  8  1  0  0  0  0
 11 12  2  0  0  0  0
 13 11  1  0  0  0  0
 13 14  1  0  0  0  0
 14 15  1  0  0  0  0
 15 17  1  0  0  0  0
 17 16  2  0  0  0  0
 17 18  1  0  0  0  0
 18 22  1  6  0  0  0
 19 18  1  0  0  0  0
 19 20  1  0  0  0  0
 21 20  1  0  0  0  0
 22 23  1  0  0  0  0
 24 23  1  6  0  0  0
 24 29  1  0  0  0  0
 24 25  1  0  0  0  0
 25 29  1  1  0  0  0
 25 28  1  0  0  0  0
 25 27  1  0  0  0  0
 27 26  1  6  0  0  0
 28 27  1  0  0  0  0
 28 26  1  6  0  0  0
 31 30  2  0  0  0  0
 32 31  1  0  0  0  0
 33 34  1  0  0  0  0
 34 35  1  0  0  0  0
 34 32  1  0  0  0  0
 37 38  1  0  0  0  0
 37 36  1  0  0  0  0
 39 38  2  0  0  0  0
M  END
>  <MODEL>
6

>  <REMARK>
 VINA RESULT:      -6.1      2.638      3.335
  Name = 
  16 active torsions:
  status: ('A' for Active; 'I' for Inactive)
    1  A    between atoms: N_1  and  C_22
    2  A    between atoms: C_2  and  C_8
    3  A    between atoms: C_3  and  C_7
    4  A    between atoms: C_3  and  C_31
    5  A    between atoms: C_4  and  C_8
    6  A    between atoms: C_4  and  C_28
    7  A    between atoms: C_4  and  C_31
    8  A    between atoms: C_16  and  C_34
    9  A    between atoms: O_17  and  C_25
   10  A    between atoms: O_17  and  C_32
   11  A    between atoms: C_18  and  C_23
   12  A    between atoms: C_18  and  O_26
   13  A    between atoms: C_19  and  O_26
   14  A    between atoms: C_21  and  C_36
   15  A    between atoms: C_22  and  C_34
   16  A    between atoms: C_25  and  C_33
                            x       y       z     vdW  Elec       q    Type
                         _______ _______ _______ _____ _____    ______ ____

>  <TORSDO>
F 16

$$$$
=
 OpenBabel11072409123D

 39 43  0  0  1  0  0  0  0  0999 V2000
  194.6420  172.8360  142.9500 O   0  0  0  0  0  0  0  0  0  0  0  0
  195.3590  177.1700  145.1440 O   0  0  0  0  0  1  0  0  0  0  0  0
  193.7290  173.3080  145.0340 C   0  0  2  0  0  3  0  0  0  0  0  0
  194.1600  173.8940  143.7300 C   0  0  1  0  0  3  0  0  0  0  0  0
  193.8980  171.6980  143.3510 C   0  0  2  0  0  3  0  0  0  0  0  0
  195.2130  174.9540  144.0170 C   0  0  0  0  0  2  0  0  0  0  0  0
  194.7060  175.9460  145.0470 C   0  0  0  0  0  0  0  0  0  0  0  0
  193.6900  175.6490  145.8930 C   0  0  0  0  0  0  0  0  0  0  0  0
  193.0670  172.0320  144.5980 C   0  0  2  0  0  3  0  0  0  0  0  0
  192.9200  174.3430  145.8100 C   0  0  0  0  0  2  0  0  0  0  0  0
  191.0490  171.5490  143.2470 C   0  0  0  0  0  3  0  0  0  0  0  0
  191.6200  172.2410  144.2290 C   0  0  0  0  0  3  0  0  0  0  0  0
  189.6090  171.7270  142.8850 C   0  0  0  0  0  2  0  0  0  0  0  0
  189.4370  172.5360  141.6010 C   0  0  0  0  0  2  0  0  0  0  0  0
  188.7380  173.7830  141.8690 N   0  0  0  0  0  2  0  0  0  0  0  0
  190.6840  175.0490  142.1180 O   0  0  0  0  0  0  0  0  0  0  0  0
  189.4210  175.0150  142.1140 C   0  0  0  0  0  0  0  0  0  0  0  0
  188.6260  176.2630  142.3750 C   0  0  1  0  0  3  0  0  0  0  0  0
  187.1280  176.0070  142.3950 C   0  0  0  0  0  2  0  0  0  0  0  0
  186.4000  177.1590  141.7360 C   0  0  0  0  0  2  0  0  0  0  0  0
  185.4510  177.7900  142.7370 C   0  0  0  0  0  1  0  0  0  0  0  0
  189.0930  177.0120  143.6380 C   0  0  0  0  0  2  0  0  0  0  0  0
  188.5360  176.4590  144.9580 C   0  0  0  0  0  2  0  0  0  0  0  0
  187.6100  177.4490  145.6460 C   0  0  1  0  0  3  0  0  0  0  0  0
  186.8780  176.7630  146.7620 C   0  0  2  0  0  0  0  0  0  0  0  0
  185.2170  178.5770  147.2700 C   0  0  0  0  0  2  0  0  0  0  0  0
  185.9350  177.3600  147.8250 C   0  0  1  0  0  3  0  0  0  0  0  0
  185.4930  177.3530  146.4120 C   0  0  2  0  0  3  0  0  0  0  0  0
  187.9970  177.6240  146.9520 O   0  0  0  0  0  0  0  0  0  0  0  0
  194.9190  169.5970  142.8650 O   0  0  0  0  0  0  0  0  0  0  0  0
  194.8400  170.5660  143.6590 C   0  0  0  0  0  0  0  0  0  0  0  0
  195.6620  170.5780  144.7890 O   0  0  0  0  0  0  0  0  0  0  0  0
  197.2850  169.4570  146.1380 C   0  0  0  0  0  1  0  0  0  0  0  0
  195.8790  169.4250  145.5890 C   0  0  0  0  0  3  0  0  0  0  0  0
  194.9000  169.4270  146.7510 C   0  0  0  0  0  1  0  0  0  0  0  0
  193.1990  176.6730  146.8690 C   0  0  0  0  0  2  0  0  0  0  0  0
  192.0480  176.1940  147.5530 O   0  0  0  0  0  0  0  0  0  0  0  0
  191.1810  177.0810  148.1810 C   0  0  0  0  0  3  0  0  0  0  0  0
  191.5650  177.7250  149.1890 O   0  0  0  0  0  0  0  0  0  0  0  0
  1  5  1  0  0  0  0
  1  4  1  0  0  0  0
  3 10  1  6  0  0  0
  4  6  1  1  0  0  0
  4  3  1  0  0  0  0
  5 31  1  1  0  0  0
  5  9  1  0  0  0  0
  6  7  1  0  0  0  0
  7  2  1  0  0  0  0
  7  8  2  0  0  0  0
  8 36  1  0  0  0  0
  9 12  1  6  0  0  0
  9  3  1  0  0  0  0
 10  8  1  0  0  0  0
 11 12  2  0  0  0  0
 13 11  1  0  0  0  0
 14 15  1  0  0  0  0
 14 13  1  0  0  0  0
 15 17  1  0  0  0  0
 17 16  2  0  0  0  0
 17 18  1  0  0  0  0
 18 19  1  1  0  0  0
 18 22  1  0  0  0  0
 20 19  1  0  0  0  0
 20 21  1  0  0  0  0
 22 23  1  0  0  0  0
 24 23  1  6  0  0  0
 24 25  1  0  0  0  0
 24 29  1  0  0  0  0
 25 29  1  1  0  0  0
 25 27  1  0  0  0  0
 27 26  1  6  0  0  0
 28 25  1  0  0  0  0
 28 26  1  6  0  0  0
 28 27  1  0  0  0  0
 30 31  2  0  0  0  0
 31 32  1  0  0  0  0
 32 34  1  0  0  0  0
 34 33  1  0  0  0  0
 34 35  1  0  0  0  0
 36 37  1  0  0  0  0
 37 38  1  0  0  0  0
 38 39  2  0  0  0  0
M  END
>  <MODEL>
7

>  <REMARK>
 VINA RESULT:      -6.0      1.573      2.234
  Name = 
  16 active torsions:
  status: ('A' for Active; 'I' for Inactive)
    1  A    between atoms: N_1  and  C_22
    2  A    between atoms: C_2  and  C_8
    3  A    between atoms: C_3  and  C_7
    4  A    between atoms: C_3  and  C_31
    5  A    between atoms: C_4  and  C_8
    6  A    between atoms: C_4  and  C_28
    7  A    between atoms: C_4  and  C_31
    8  A    between atoms: C_16  and  C_34
    9  A    between atoms: O_17  and  C_25
   10  A    between atoms: O_17  and  C_32
   11  A    between atoms: C_18  and  C_23
   12  A    between atoms: C_18  and  O_26
   13  A    between atoms: C_19  and  O_26
   14  A    between atoms: C_21  and  C_36
   15  A    between atoms: C_22  and  C_34
   16  A    between atoms: C_25  and  C_33
                            x       y       z     vdW  Elec       q    Type
                         _______ _______ _______ _____ _____    ______ ____

>  <TORSDO>
F 16

$$$$
=
 OpenBabel11072409123D

 39 43  0  0  1  0  0  0  0  0999 V2000
  189.6060  175.4510  146.6460 O   0  0  0  0  0  0  0  0  0  0  0  0
  194.5070  175.7080  146.8260 O   0  0  0  0  0  1  0  0  0  0  0  0
  190.8110  176.7480  145.1400 C   0  0  2  0  0  3  0  0  0  0  0  0
  190.8410  175.5210  145.9890 C   0  0  1  0  0  3  0  0  0  0  0  0
  188.6720  176.0460  145.7610 C   0  0  2  0  0  3  0  0  0  0  0  0
  192.0200  175.6400  146.9440 C   0  0  0  0  0  2  0  0  0  0  0  0
  193.2960  175.9430  146.1820 C   0  0  0  0  0  0  0  0  0  0  0  0
  193.2810  176.4780  144.9370 C   0  0  0  0  0  0  0  0  0  0  0  0
  189.4110  176.7130  144.5930 C   0  0  2  0  0  3  0  0  0  0  0  0
  191.9910  176.7240  144.1740 C   0  0  0  0  0  2  0  0  0  0  0  0
  188.1940  175.2060  143.0520 C   0  0  0  0  0  3  0  0  0  0  0  0
  189.3100  175.8660  143.3500 C   0  0  0  0  0  3  0  0  0  0  0  0
  188.0690  174.3810  141.8110 C   0  0  0  0  0  2  0  0  0  0  0  0
  188.2460  172.8910  142.0930 C   0  0  0  0  0  2  0  0  0  0  0  0
  189.6550  172.5330  142.1010 N   0  0  0  0  0  2  0  0  0  0  0  0
  189.7630  172.2170  144.4120 O   0  0  0  0  0  0  0  0  0  0  0  0
  190.3600  172.1970  143.3000 C   0  0  0  0  0  0  0  0  0  0  0  0
  191.8150  171.8310  143.2240 C   0  0  1  0  0  3  0  0  0  0  0  0
  192.2600  171.4900  141.8110 C   0  0  0  0  0  2  0  0  0  0  0  0
  192.1060  170.0050  141.5660 C   0  0  0  0  0  2  0  0  0  0  0  0
  193.1230  169.2510  142.4000 C   0  0  0  0  0  1  0  0  0  0  0  0
  192.7300  172.8900  143.8690 C   0  0  0  0  0  2  0  0  0  0  0  0
  193.3940  172.4530  145.1820 C   0  0  0  0  0  2  0  0  0  0  0  0
  194.2880  171.2380  144.9930 C   0  0  1  0  0  3  0  0  0  0  0  0
  195.6060  171.4710  145.6710 C   0  0  2  0  0  0  0  0  0  0  0  0
  196.8450  169.4970  144.7360 C   0  0  0  0  0  2  0  0  0  0  0  0
  196.7870  170.5020  145.8730 C   0  0  1  0  0  3  0  0  0  0  0  0
  196.4680  170.9500  144.4990 C   0  0  2  0  0  3  0  0  0  0  0  0
  194.5640  170.6630  146.2100 O   0  0  0  0  0  0  0  0  0  0  0  0
  188.4310  177.8030  147.3590 O   0  0  0  0  0  0  0  0  0  0  0  0
  187.8660  177.0770  146.5030 C   0  0  0  0  0  0  0  0  0  0  0  0
  186.5080  177.2800  146.2420 O   0  0  0  0  0  0  0  0  0  0  0  0
  186.0660  178.6380  144.3280 C   0  0  0  0  0  1  0  0  0  0  0  0
  185.9860  178.5350  145.8310 C   0  0  0  0  0  3  0  0  0  0  0  0
  184.5300  178.6370  146.2520 C   0  0  0  0  0  1  0  0  0  0  0  0
  194.5660  176.7270  144.2090 C   0  0  0  0  0  2  0  0  0  0  0  0
  194.5630  176.0550  142.9550 O   0  0  0  0  0  0  0  0  0  0  0  0
  195.5080  176.3680  141.9850 C   0  0  0  0  0  3  0  0  0  0  0  0
  196.6490  176.7670  142.3260 O   0  0  0  0  0  0  0  0  0  0  0  0
  3 10  1  6  0  0  0
  3  4  1  0  0  0  0
  4  1  1  0  0  0  0
  4  6  1  1  0  0  0
  5 31  1  1  0  0  0
  5  1  1  0  0  0  0
  7  2  1  0  0  0  0
  7  6  1  0  0  0  0
  8  7  2  0  0  0  0
  9 12  1  6  0  0  0
  9  3  1  0  0  0  0
  9  5  1  0  0  0  0
 10  8  1  0  0  0  0
 11 12  2  0  0  0  0
 13 14  1  0  0  0  0
 13 11  1  0  0  0  0
 14 15  1  0  0  0  0
 15 17  1  0  0  0  0
 17 16  2  0  0  0  0
 18 19  1  6  0  0  0
 18 17  1  0  0  0  0
 18 22  1  0  0  0  0
 20 19  1  0  0  0  0
 20 21  1  0  0  0  0
 22 23  1  0  0  0  0
 24 23  1  1  0  0  0
 24 25  1  0  0  0  0
 24 29  1  0  0  0  0
 25 27  1  0  0  0  0
 25 29  1  6  0  0  0
 27 26  1  6  0  0  0
 28 26  1  6  0  0  0
 28 25  1  0  0  0  0
 28 27  1  0  0  0  0
 31 30  2  0  0  0  0
 32 31  1  0  0  0  0
 33 34  1  0  0  0  0
 34 32  1  0  0  0  0
 34 35  1  0  0  0  0
 36  8  1  0  0  0  0
 37 36  1  0  0  0  0
 38 39  2  0  0  0  0
 38 37  1  0  0  0  0
M  END
>  <MODEL>
8

>  <REMARK>
 VINA RESULT:      -6.0      1.802      8.485
  Name = 
  16 active torsions:
  status: ('A' for Active; 'I' for Inactive)
    1  A    between atoms: N_1  and  C_22
    2  A    between atoms: C_2  and  C_8
    3  A    between atoms: C_3  and  C_7
    4  A    between atoms: C_3  and  C_31
    5  A    between atoms: C_4  and  C_8
    6  A    between atoms: C_4  and  C_28
    7  A    between atoms: C_4  and  C_31
    8  A    between atoms: C_16  and  C_34
    9  A    between atoms: O_17  and  C_25
   10  A    between atoms: O_17  and  C_32
   11  A    between atoms: C_18  and  C_23
   12  A    between atoms: C_18  and  O_26
   13  A    between atoms: C_19  and  O_26
   14  A    between atoms: C_21  and  C_36
   15  A    between atoms: C_22  and  C_34
   16  A    between atoms: C_25  and  C_33
                            x       y       z     vdW  Elec       q    Type
                         _______ _______ _______ _____ _____    ______ ____

>  <TORSDO>
F 16

$$$$
=
 OpenBabel11072409123D

 39 43  0  0  1  0  0  0  0  0999 V2000
  188.1990  176.4530  147.2840 O   0  0  0  0  0  0  0  0  0  0  0  0
  193.0850  176.1000  146.9340 O   0  0  0  0  0  1  0  0  0  0  0  0
  189.3620  177.4040  145.5110 C   0  0  2  0  0  3  0  0  0  0  0  0
  189.3500  176.2890  146.5030 C   0  0  1  0  0  3  0  0  0  0  0  0
  187.2440  177.0580  146.4300 C   0  0  2  0  0  3  0  0  0  0  0  0
  190.6370  176.3640  147.3100 C   0  0  0  0  0  2  0  0  0  0  0  0
  191.8420  176.4120  146.3900 C   0  0  0  0  0  0  0  0  0  0  0  0
  191.7440  176.7980  145.0950 C   0  0  0  0  0  0  0  0  0  0  0  0
  187.9140  177.4860  145.1170 C   0  0  2  0  0  3  0  0  0  0  0  0
  190.4120  177.1180  144.4420 C   0  0  0  0  0  2  0  0  0  0  0  0
  187.2520  176.9530  142.7920 C   0  0  0  0  0  3  0  0  0  0  0  0
  187.5730  176.5220  144.0090 C   0  0  0  0  0  3  0  0  0  0  0  0
  186.9350  176.0100  141.6750 C   0  0  0  0  0  2  0  0  0  0  0  0
  188.1920  175.5520  140.9380 C   0  0  0  0  0  2  0  0  0  0  0  0
  188.6180  174.2450  141.4110 N   0  0  0  0  0  2  0  0  0  0  0  0
  190.8060  174.9120  141.8830 O   0  0  0  0  0  0  0  0  0  0  0  0
  189.9450  173.9880  141.8810 C   0  0  0  0  0  0  0  0  0  0  0  0
  190.3060  172.6110  142.3600 C   0  0  1  0  0  3  0  0  0  0  0  0
  189.4620  172.1630  143.5420 C   0  0  0  0  0  2  0  0  0  0  0  0
  189.7160  173.0670  144.7290 C   0  0  0  0  0  2  0  0  0  0  0  0
  191.1960  173.0580  145.0580 C   0  0  0  0  0  1  0  0  0  0  0  0
  190.2990  171.5660  141.2280 C   0  0  0  0  0  2  0  0  0  0  0  0
  191.3040  171.8350  140.0980 C   0  0  0  0  0  2  0  0  0  0  0  0
  190.6140  172.0550  138.7620 C   0  0  1  0  0  3  0  0  0  0  0  0
  190.9050  173.4410  138.2660 C   0  0  2  0  0  0  0  0  0  0  0  0
  189.2610  173.4960  136.3690 C   0  0  0  0  0  2  0  0  0  0  0  0
  190.5450  174.0930  136.9160 C   0  0  1  0  0  3  0  0  0  0  0  0
  189.4490  173.7570  137.8530 C   0  0  2  0  0  3  0  0  0  0  0  0
  191.5490  172.2670  137.7790 O   0  0  0  0  0  0  0  0  0  0  0  0
  186.7650  178.3830  148.3570 O   0  0  0  0  0  0  0  0  0  0  0  0
  186.6520  178.2620  147.1110 C   0  0  0  0  0  0  0  0  0  0  0  0
  186.0100  179.2740  146.3940 O   0  0  0  0  0  0  0  0  0  0  0  0
  184.5990  179.1770  144.4690 C   0  0  0  0  0  1  0  0  0  0  0  0
  184.6560  179.1760  145.9770 C   0  0  0  0  0  3  0  0  0  0  0  0
  184.0650  177.8730  146.4880 C   0  0  0  0  0  1  0  0  0  0  0  0
  192.9560  176.7950  144.2150 C   0  0  0  0  0  2  0  0  0  0  0  0
  193.5630  175.5090  144.2120 O   0  0  0  0  0  0  0  0  0  0  0  0
  194.8380  175.3320  143.6860 C   0  0  0  0  0  3  0  0  0  0  0  0
  195.7160  176.2120  143.8620 O   0  0  0  0  0  0  0  0  0  0  0  0
  3 10  1  6  0  0  0
  3  4  1  0  0  0  0
  4  1  1  0  0  0  0
  4  6  1  1  0  0  0
  5 31  1  1  0  0  0
  5  1  1  0  0  0  0
  7  2  1  0  0  0  0
  7  6  1  0  0  0  0
  8  7  2  0  0  0  0
  9 12  1  6  0  0  0
  9  3  1  0  0  0  0
  9  5  1  0  0  0  0
 10  8  1  0  0  0  0
 11 12  2  0  0  0  0
 13 11  1  0  0  0  0
 14 15  1  0  0  0  0
 14 13  1  0  0  0  0
 15 17  1  0  0  0  0
 17 16  2  0  0  0  0
 17 18  1  0  0  0  0
 18 22  1  6  0  0  0
 18 19  1  0  0  0  0
 19 20  1  0  0  0  0
 20 21  1  0  0  0  0
 23 22  1  0  0  0  0
 24 23  1  1  0  0  0
 25 29  1  6  0  0  0
 25 24  1  0  0  0  0
 27 26  1  6  0  0  0
 27 28  1  0  0  0  0
 27 25  1  0  0  0  0
 28 26  1  6  0  0  0
 28 25  1  0  0  0  0
 29 24  1  0  0  0  0
 31 30  2  0  0  0  0
 32 31  1  0  0  0  0
 33 34  1  0  0  0  0
 34 32  1  0  0  0  0
 34 35  1  0  0  0  0
 36  8  1  0  0  0  0
 37 36  1  0  0  0  0
 38 39  2  0  0  0  0
 38 37  1  0  0  0  0
M  END
>  <MODEL>
9

>  <REMARK>
 VINA RESULT:      -6.0      2.832      8.375
  Name = 
  16 active torsions:
  status: ('A' for Active; 'I' for Inactive)
    1  A    between atoms: N_1  and  C_22
    2  A    between atoms: C_2  and  C_8
    3  A    between atoms: C_3  and  C_7
    4  A    between atoms: C_3  and  C_31
    5  A    between atoms: C_4  and  C_8
    6  A    between atoms: C_4  and  C_28
    7  A    between atoms: C_4  and  C_31
    8  A    between atoms: C_16  and  C_34
    9  A    between atoms: O_17  and  C_25
   10  A    between atoms: O_17  and  C_32
   11  A    between atoms: C_18  and  C_23
   12  A    between atoms: C_18  and  O_26
   13  A    between atoms: C_19  and  O_26
   14  A    between atoms: C_21  and  C_36
   15  A    between atoms: C_22  and  C_34
   16  A    between atoms: C_25  and  C_33
                            x       y       z     vdW  Elec       q    Type
                         _______ _______ _______ _____ _____    ______ ____

>  <TORSDO>
F 16

$$$$
