=
 OpenBabel11062422443D

 29 31  0  0  1  0  0  0  0  0999 V2000
  195.3530  175.8310  144.4480 C   0  0  0  0  0  0  0  0  0  0  0  0
  194.9290  173.5270  145.3620 C   0  0  0  0  0  0  0  0  0  0  0  0
  192.7690  174.7780  145.8090 C   0  0  0  0  0  0  0  0  0  0  0  0
  193.3040  171.4230  144.2390 N   0  0  0  0  0  1  0  0  0  0  0  0
  193.4430  173.6360  145.3200 C   0  0  0  0  0  0  0  0  0  0  0  0
  192.6780  172.5950  144.7570 C   0  0  0  0  0  0  0  0  0  0  0  0
  195.4980  172.3390  145.8050 O   0  0  0  0  0  1  0  0  0  0  0  0
  191.3290  172.7140  144.6600 N   0  0  0  0  0  0  0  0  0  0  0  0
  191.3690  174.8750  145.6760 C   0  0  0  0  0  0  0  0  0  0  0  0
  194.4440  176.5820  145.0720 C   0  0  0  0  0  3  0  0  0  0  0  0
  190.6710  173.8160  145.0970 C   0  0  0  0  0  3  0  0  0  0  0  0
  195.7560  174.4930  144.9310 C   0  0  0  0  0  3  0  0  0  0  0  0
  193.7080  176.0770  146.6230 S   0  0  0  0  0  0  0  0  0  0  0  0
  190.4660  176.2830  146.2320 S   0  0  0  0  0  0  0  0  0  0  0  0
  190.6430  177.4160  145.2600 O   0  0  0  0  0  0  0  0  0  0  0  0
  190.9890  176.7060  147.5770 O   0  0  0  0  0  0  0  0  0  0  0  0
  188.7850  175.8750  146.3300 N   0  0  0  0  0  2  0  0  0  0  0  0
  188.0120  177.1070  146.2840 C   0  0  0  0  0  2  0  0  0  0  0  0
  186.9280  177.0090  145.2220 C   0  0  1  0  0  3  0  0  0  0  0  0
  185.5650  179.5890  143.6470 C   0  0  0  0  0  2  0  0  0  0  0  0
  186.1180  178.2530  143.1490 C   0  0  1  0  0  3  0  0  0  0  0  0
  186.4890  178.3770  141.8120 O   0  0  0  0  0  1  0  0  0  0  0  0
  184.9910  178.5910  145.7940 O   0  0  0  0  0  0  0  0  0  0  0  0
  185.5780  177.3190  145.8250 C   0  0  0  0  0  0  0  0  0  0  0  0
  184.9590  176.3870  146.4030 O   0  0  0  0  0  0  0  0  0  0  0  0
  185.5900  179.7210  145.1710 C   0  0  0  0  0  2  0  0  0  0  0  0
  187.3220  177.8160  143.9740 C   0  0  0  0  0  2  0  0  0  0  0  0
  196.0030  176.3620  143.2850 C   0  0  0  0  0  0  0  0  0  0  0  0
  196.5280  176.7900  142.3460 N   0  0  0  0  0  0  0  0  0  0  0  0
  1 12  1  0  0  0  0
  1 10  2  0  0  0  0
  2  7  1  0  0  0  0
  3 13  1  0  0  0  0
  4  6  1  0  0  0  0
  5  2  1  0  0  0  0
  5  3  2  0  0  0  0
  6  5  1  0  0  0  0
  8  6  2  0  0  0  0
  8 11  1  0  0  0  0
  9  3  1  0  0  0  0
  9 14  1  0  0  0  0
 10 13  1  0  0  0  0
 11  9  2  0  0  0  0
 12  2  2  0  0  0  0
 14 17  1  0  0  0  0
 14 16  2  0  0  0  0
 15 14  2  0  0  0  0
 18 17  1  0  0  0  0
 19 24  1  0  0  0  0
 19 18  1  1  0  0  0
 20 26  1  0  0  0  0
 21 22  1  6  0  0  0
 21 20  1  0  0  0  0
 21 27  1  0  0  0  0
 23 24  1  0  0  0  0
 24 25  2  0  0  0  0
 26 23  1  0  0  0  0
 27 19  1  0  0  0  0
 28  1  1  0  0  0  0
 29 28  3  0  0  0  0
M  END
>  <MODEL>
1

>  <REMARK>
 VINA RESULT:      -7.2      0.000      0.000
  Name = 
  5 active torsions:
  status: ('A' for Active; 'I' for Inactive)
    1  A    between atoms: C_1  and  C_4
    2  A    between atoms: S_3  and  C_18
    3  A    between atoms: S_3  and  N_26
    4  A    between atoms: C_5  and  C_8
    5  A    between atoms: C_8  and  N_26
                            x       y       z     vdW  Elec       q    Type
                         _______ _______ _______ _____ _____    ______ ____

>  <TORSDO>
F 5

$$$$
=
 OpenBabel11062422443D

 29 31  0  0  1  0  0  0  0  0999 V2000
  192.2570  175.0910  142.5700 C   0  0  0  0  0  0  0  0  0  0  0  0
  191.1060  172.8940  142.1530 C   0  0  0  0  0  0  0  0  0  0  0  0
  189.3170  174.6310  141.6870 C   0  0  0  0  0  0  0  0  0  0  0  0
  190.3910  171.6960  139.6270 N   0  0  0  0  0  1  0  0  0  0  0  0
  190.0240  173.4680  141.3030 C   0  0  0  0  0  0  0  0  0  0  0  0
  189.7050  172.8640  140.0710 C   0  0  0  0  0  0  0  0  0  0  0  0
  191.1250  171.5230  142.3730 O   0  0  0  0  0  1  0  0  0  0  0  0
  188.7620  173.4160  139.2640 N   0  0  0  0  0  0  0  0  0  0  0  0
  188.3580  175.1850  140.8160 C   0  0  0  0  0  0  0  0  0  0  0  0
  191.2450  175.9360  142.7740 C   0  0  0  0  0  3  0  0  0  0  0  0
  188.0970  174.5480  139.6040 C   0  0  0  0  0  3  0  0  0  0  0  0
  192.1090  173.6240  142.6680 C   0  0  0  0  0  3  0  0  0  0  0  0
  189.6320  175.3650  143.2980 S   0  0  0  0  0  0  0  0  0  0  0  0
  187.4620  176.6500  141.2140 S   0  0  0  0  0  0  0  0  0  0  0  0
  186.6330  177.0750  140.0330 O   0  0  0  0  0  0  0  0  0  0  0  0
  188.4340  177.7480  141.5490 O   0  0  0  0  0  0  0  0  0  0  0  0
  186.4160  176.3280  142.5570 N   0  0  0  0  0  2  0  0  0  0  0  0
  185.7090  177.5560  142.8900 C   0  0  0  0  0  2  0  0  0  0  0  0
  186.3640  178.2340  144.0830 C   0  0  1  0  0  3  0  0  0  0  0  0
  185.6860  177.5730  147.2600 C   0  0  0  0  0  2  0  0  0  0  0  0
  187.0030  177.7290  146.4980 C   0  0  1  0  0  3  0  0  0  0  0  0
  188.0110  177.0460  147.1760 O   0  0  0  0  0  1  0  0  0  0  0  0
  184.5680  179.0820  145.7080 O   0  0  0  0  0  0  0  0  0  0  0  0
  185.4520  179.3010  144.6420 C   0  0  0  0  0  0  0  0  0  0  0  0
  185.4740  180.4400  144.1050 O   0  0  0  0  0  0  0  0  0  0  0  0
  184.4540  177.8420  146.3940 C   0  0  0  0  0  2  0  0  0  0  0  0
  186.8840  177.1860  145.0800 C   0  0  0  0  0  2  0  0  0  0  0  0
  193.5570  175.6300  142.2900 C   0  0  0  0  0  0  0  0  0  0  0  0
  194.6060  176.0650  142.0650 N   0  0  0  0  0  0  0  0  0  0  0  0
  1 12  1  0  0  0  0
  1 10  2  0  0  0  0
  2  7  1  0  0  0  0
  2 12  2  0  0  0  0
  3 13  1  0  0  0  0
  4  6  1  0  0  0  0
  5  3  1  0  0  0  0
  5  2  1  0  0  0  0
  6  5  2  0  0  0  0
  8 11  2  0  0  0  0
  8  6  1  0  0  0  0
  9 14  1  0  0  0  0
  9  3  2  0  0  0  0
 10 13  1  0  0  0  0
 11  9  1  0  0  0  0
 14 16  2  0  0  0  0
 14 17  1  0  0  0  0
 15 14  2  0  0  0  0
 17 18  1  0  0  0  0
 19 18  1  6  0  0  0
 19 24  1  0  0  0  0
 19 27  1  0  0  0  0
 21 22  1  1  0  0  0
 21 20  1  0  0  0  0
 23 26  1  0  0  0  0
 24 23  1  0  0  0  0
 25 24  2  0  0  0  0
 26 20  1  0  0  0  0
 27 21  1  0  0  0  0
 28  1  1  0  0  0  0
 29 28  3  0  0  0  0
M  END
>  <MODEL>
2

>  <REMARK>
 VINA RESULT:      -7.1      3.442      4.659
  Name = 
  5 active torsions:
  status: ('A' for Active; 'I' for Inactive)
    1  A    between atoms: C_1  and  C_4
    2  A    between atoms: S_3  and  C_18
    3  A    between atoms: S_3  and  N_26
    4  A    between atoms: C_5  and  C_8
    5  A    between atoms: C_8  and  N_26
                            x       y       z     vdW  Elec       q    Type
                         _______ _______ _______ _____ _____    ______ ____

>  <TORSDO>
F 5

$$$$
=
 OpenBabel11062422443D

 29 31  0  0  1  0  0  0  0  0999 V2000
  192.2280  173.8780  142.0720 C   0  0  0  0  0  0  0  0  0  0  0  0
  193.7540  175.8750  142.1420 C   0  0  0  0  0  0  0  0  0  0  0  0
  192.2920  176.1390  144.1980 C   0  0  0  0  0  0  0  0  0  0  0  0
  196.0150  176.3440  143.8730 N   0  0  0  0  0  1  0  0  0  0  0  0
  193.5730  176.1320  143.6000 C   0  0  0  0  0  0  0  0  0  0  0  0
  194.6990  176.3480  144.4190 C   0  0  0  0  0  0  0  0  0  0  0  0
  194.6110  176.6970  141.4210 O   0  0  0  0  0  1  0  0  0  0  0  0
  194.5450  176.5230  145.7580 N   0  0  0  0  0  0  0  0  0  0  0  0
  192.1730  176.3050  145.5920 C   0  0  0  0  0  0  0  0  0  0  0  0
  191.2040  174.2440  142.8450 C   0  0  0  0  0  3  0  0  0  0  0  0
  193.3260  176.5020  146.3510 C   0  0  0  0  0  3  0  0  0  0  0  0
  193.1840  174.8460  141.4950 C   0  0  0  0  0  3  0  0  0  0  0  0
  190.8320  175.9650  143.1630 S   0  0  0  0  0  0  0  0  0  0  0  0
  190.6120  176.2910  146.4110 S   0  0  0  0  0  0  0  0  0  0  0  0
  190.8010  176.6010  147.8700 O   0  0  0  0  0  0  0  0  0  0  0  0
  189.9950  174.9260  146.2770 O   0  0  0  0  0  0  0  0  0  0  0  0
  189.5890  177.4960  145.7020 N   0  0  0  0  0  2  0  0  0  0  0  0
  188.2620  177.3700  146.2850 C   0  0  0  0  0  2  0  0  0  0  0  0
  187.2350  177.0820  145.2010 C   0  0  1  0  0  3  0  0  0  0  0  0
  185.7000  179.3820  143.3720 C   0  0  0  0  0  2  0  0  0  0  0  0
  186.3960  178.0710  143.0060 C   0  0  1  0  0  3  0  0  0  0  0  0
  186.8070  178.1230  141.6760 O   0  0  0  0  0  1  0  0  0  0  0  0
  185.1370  178.5090  145.5750 O   0  0  0  0  0  0  0  0  0  0  0  0
  185.8390  177.3060  145.7320 C   0  0  0  0  0  0  0  0  0  0  0  0
  185.2880  176.3680  146.3660 O   0  0  0  0  0  0  0  0  0  0  0  0
  185.6510  179.6380  144.8800 C   0  0  0  0  0  2  0  0  0  0  0  0
  187.6010  177.8200  143.9030 C   0  0  0  0  0  2  0  0  0  0  0  0
  192.3810  172.4880  141.7460 C   0  0  0  0  0  0  0  0  0  0  0  0
  192.5040  171.3680  141.4830 N   0  0  0  0  0  0  0  0  0  0  0  0
  1 10  2  0  0  0  0
  2  5  1  0  0  0  0
  3  9  1  0  0  0  0
  4  6  1  0  0  0  0
  5  3  2  0  0  0  0
  5  6  1  0  0  0  0
  6  8  2  0  0  0  0
  7  2  1  0  0  0  0
  8 11  1  0  0  0  0
  9 11  2  0  0  0  0
  9 14  1  0  0  0  0
 10 13  1  0  0  0  0
 12  1  1  0  0  0  0
 12  2  2  0  0  0  0
 13  3  1  0  0  0  0
 14 15  2  0  0  0  0
 16 14  2  0  0  0  0
 17 18  1  0  0  0  0
 17 14  1  0  0  0  0
 19 24  1  0  0  0  0
 19 18  1  1  0  0  0
 20 26  1  0  0  0  0
 21 22  1  6  0  0  0
 21 20  1  0  0  0  0
 21 27  1  0  0  0  0
 23 24  1  0  0  0  0
 24 25  2  0  0  0  0
 26 23  1  0  0  0  0
 27 19  1  0  0  0  0
 28  1  1  0  0  0  0
 29 28  3  0  0  0  0
M  END
>  <MODEL>
3

>  <REMARK>
 VINA RESULT:      -7.0      2.164      3.418
  Name = 
  5 active torsions:
  status: ('A' for Active; 'I' for Inactive)
    1  A    between atoms: C_1  and  C_4
    2  A    between atoms: S_3  and  C_18
    3  A    between atoms: S_3  and  N_26
    4  A    between atoms: C_5  and  C_8
    5  A    between atoms: C_8  and  N_26
                            x       y       z     vdW  Elec       q    Type
                         _______ _______ _______ _____ _____    ______ ____

>  <TORSDO>
F 5

$$$$
=
 OpenBabel11062422443D

 29 31  0  0  1  0  0  0  0  0999 V2000
  187.2790  176.9780  142.5780 C   0  0  0  0  0  0  0  0  0  0  0  0
  188.6660  175.1400  141.5670 C   0  0  0  0  0  0  0  0  0  0  0  0
  189.7250  175.5400  143.8370 C   0  0  0  0  0  0  0  0  0  0  0  0
  188.6720  172.3300  142.2240 N   0  0  0  0  0  1  0  0  0  0  0  0
  189.2090  174.6510  142.8660 C   0  0  0  0  0  0  0  0  0  0  0  0
  189.1890  173.2730  143.1610 C   0  0  0  0  0  0  0  0  0  0  0  0
  189.0380  174.4850  140.4000 O   0  0  0  0  0  1  0  0  0  0  0  0
  189.6270  172.8260  144.3670 N   0  0  0  0  0  0  0  0  0  0  0  0
  190.1530  175.0420  145.0840 C   0  0  0  0  0  0  0  0  0  0  0  0
  188.0780  177.4860  143.5180 C   0  0  0  0  0  3  0  0  0  0  0  0
  190.0960  173.6690  145.3190 C   0  0  0  0  0  3  0  0  0  0  0  0
  187.7790  176.1440  141.4650 C   0  0  0  0  0  3  0  0  0  0  0  0
  189.8550  177.2910  143.4500 S   0  0  0  0  0  0  0  0  0  0  0  0
  190.7760  176.0940  146.3530 S   0  0  0  0  0  0  0  0  0  0  0  0
  190.9540  175.3090  147.6230 O   0  0  0  0  0  0  0  0  0  0  0  0
  189.7940  177.2070  146.6000 O   0  0  0  0  0  0  0  0  0  0  0  0
  192.3100  176.7320  145.8590 N   0  0  0  0  0  2  0  0  0  0  0  0
  193.3430  176.1310  146.6880 C   0  0  0  0  0  2  0  0  0  0  0  0
  194.4510  175.5580  145.8170 C   0  0  1  0  0  3  0  0  0  0  0  0
  194.7120  175.9900  142.5410 C   0  0  0  0  0  2  0  0  0  0  0  0
  195.7260  176.1100  143.6800 C   0  0  1  0  0  3  0  0  0  0  0  0
  196.7630  176.9540  143.2870 O   0  0  0  0  0  1  0  0  0  0  0  0
  193.4390  174.3380  143.7990 O   0  0  0  0  0  0  0  0  0  0  0  0
  193.9620  174.3210  145.1000 C   0  0  0  0  0  0  0  0  0  0  0  0
  194.0100  173.2230  145.7130 O   0  0  0  0  0  0  0  0  0  0  0  0
  193.3350  175.5140  143.0060 C   0  0  0  0  0  2  0  0  0  0  0  0
  195.0710  176.6580  144.9410 C   0  0  0  0  0  2  0  0  0  0  0  0
  185.8800  177.2940  142.6200 C   0  0  0  0  0  0  0  0  0  0  0  0
  184.7510  177.5490  142.6530 N   0  0  0  0  0  0  0  0  0  0  0  0
  1 28  1  0  0  0  0
  1 10  2  0  0  0  0
  2  5  1  0  0  0  0
  3  9  1  0  0  0  0
  4  6  1  0  0  0  0
  5  6  1  0  0  0  0
  5  3  2  0  0  0  0
  6  8  2  0  0  0  0
  7  2  1  0  0  0  0
  8 11  1  0  0  0  0
  9 11  2  0  0  0  0
  9 14  1  0  0  0  0
 12  2  2  0  0  0  0
 12  1  1  0  0  0  0
 13 10  1  0  0  0  0
 13  3  1  0  0  0  0
 14 16  2  0  0  0  0
 14 15  2  0  0  0  0
 17 14  1  0  0  0  0
 17 18  1  0  0  0  0
 19 18  1  6  0  0  0
 20 26  1  0  0  0  0
 20 21  1  0  0  0  0
 21 22  1  6  0  0  0
 21 27  1  0  0  0  0
 23 24  1  0  0  0  0
 24 25  2  0  0  0  0
 24 19  1  0  0  0  0
 26 23  1  0  0  0  0
 27 19  1  0  0  0  0
 28 29  3  0  0  0  0
M  END
>  <MODEL>
4

>  <REMARK>
 VINA RESULT:      -6.9      2.702      7.213
  Name = 
  5 active torsions:
  status: ('A' for Active; 'I' for Inactive)
    1  A    between atoms: C_1  and  C_4
    2  A    between atoms: S_3  and  C_18
    3  A    between atoms: S_3  and  N_26
    4  A    between atoms: C_5  and  C_8
    5  A    between atoms: C_8  and  N_26
                            x       y       z     vdW  Elec       q    Type
                         _______ _______ _______ _____ _____    ______ ____

>  <TORSDO>
F 5

$$$$
=
 OpenBabel11062422443D

 29 31  0  0  1  0  0  0  0  0999 V2000
  187.3400  177.2740  145.2810 C   0  0  0  0  0  0  0  0  0  0  0  0
  188.0970  177.4130  142.8870 C   0  0  0  0  0  0  0  0  0  0  0  0
  189.9920  176.2090  144.0680 C   0  0  0  0  0  0  0  0  0  0  0  0
  188.1910  175.3120  140.9110 N   0  0  0  0  0  1  0  0  0  0  0  0
  189.0800  176.2970  142.9910 C   0  0  0  0  0  0  0  0  0  0  0  0
  189.0940  175.2810  142.0140 C   0  0  0  0  0  0  0  0  0  0  0  0
  187.9340  178.0470  141.6610 O   0  0  0  0  0  1  0  0  0  0  0  0
  189.9450  174.2300  142.1350 N   0  0  0  0  0  0  0  0  0  0  0  0
  190.8470  175.0950  144.1700 C   0  0  0  0  0  0  0  0  0  0  0  0
  188.4760  177.0760  145.9530 C   0  0  0  0  0  3  0  0  0  0  0  0
  190.8040  174.1160  143.1780 C   0  0  0  0  0  3  0  0  0  0  0  0
  187.3060  177.8010  143.9010 C   0  0  0  0  0  3  0  0  0  0  0  0
  190.0650  177.5410  145.2740 S   0  0  0  0  0  0  0  0  0  0  0  0
  191.9860  174.9020  145.5020 S   0  0  0  0  0  0  0  0  0  0  0  0
  192.6110  173.5350  145.4420 O   0  0  0  0  0  0  0  0  0  0  0  0
  191.2510  175.0480  146.8060 O   0  0  0  0  0  0  0  0  0  0  0  0
  193.2300  176.1010  145.3630 N   0  0  0  0  0  2  0  0  0  0  0  0
  194.3790  175.6600  146.1380 C   0  0  0  0  0  2  0  0  0  0  0  0
  195.6160  175.5970  145.2550 C   0  0  1  0  0  3  0  0  0  0  0  0
  195.6600  174.5560  142.1080 C   0  0  0  0  0  2  0  0  0  0  0  0
  196.2620  175.7820  142.7970 C   0  0  1  0  0  3  0  0  0  0  0  0
  196.4550  176.7910  141.8550 O   0  0  0  0  0  1  0  0  0  0  0  0
  195.8090  173.2770  144.1760 O   0  0  0  0  0  0  0  0  0  0  0  0
  196.1420  174.1810  145.1940 C   0  0  0  0  0  0  0  0  0  0  0  0
  196.9010  173.7910  146.1190 O   0  0  0  0  0  0  0  0  0  0  0  0
  194.9640  173.6010  143.0790 C   0  0  0  0  0  2  0  0  0  0  0  0
  195.3530  176.2880  143.9080 C   0  0  0  0  0  2  0  0  0  0  0  0
  186.0950  177.0090  145.9430 C   0  0  0  0  0  0  0  0  0  0  0  0
  185.0900  176.7970  146.4760 N   0  0  0  0  0  0  0  0  0  0  0  0
  1 28  1  0  0  0  0
  1 10  2  0  0  0  0
  2  5  1  0  0  0  0
  2 12  2  0  0  0  0
  3  9  1  0  0  0  0
  3 13  1  0  0  0  0
  4  6  1  0  0  0  0
  5  3  2  0  0  0  0
  6  8  2  0  0  0  0
  6  5  1  0  0  0  0
  7  2  1  0  0  0  0
  8 11  1  0  0  0  0
  9 14  1  0  0  0  0
 11  9  2  0  0  0  0
 12  1  1  0  0  0  0
 13 10  1  0  0  0  0
 14 16  2  0  0  0  0
 15 14  2  0  0  0  0
 17 14  1  0  0  0  0
 17 18  1  0  0  0  0
 19 18  1  1  0  0  0
 20 21  1  0  0  0  0
 20 26  1  0  0  0  0
 21 22  1  6  0  0  0
 21 27  1  0  0  0  0
 23 24  1  0  0  0  0
 24 19  1  0  0  0  0
 24 25  2  0  0  0  0
 26 23  1  0  0  0  0
 27 19  1  0  0  0  0
 28 29  3  0  0  0  0
M  END
>  <MODEL>
5

>  <REMARK>
 VINA RESULT:      -6.9      2.628      8.090
  Name = 
  5 active torsions:
  status: ('A' for Active; 'I' for Inactive)
    1  A    between atoms: C_1  and  C_4
    2  A    between atoms: S_3  and  C_18
    3  A    between atoms: S_3  and  N_26
    4  A    between atoms: C_5  and  C_8
    5  A    between atoms: C_8  and  N_26
                            x       y       z     vdW  Elec       q    Type
                         _______ _______ _______ _____ _____    ______ ____

>  <TORSDO>
F 5

$$$$
=
 OpenBabel11062422443D

 29 31  0  0  1  0  0  0  0  0999 V2000
  189.0870  176.4000  146.6990 C   0  0  0  0  0  0  0  0  0  0  0  0
  191.5900  176.1770  146.5920 C   0  0  0  0  0  0  0  0  0  0  0  0
  190.7680  174.9440  144.5330 C   0  0  0  0  0  0  0  0  0  0  0  0
  193.4400  177.5460  144.8510 N   0  0  0  0  0  1  0  0  0  0  0  0
  191.6370  175.8850  145.1300 C   0  0  0  0  0  0  0  0  0  0  0  0
  192.5460  176.5780  144.3060 C   0  0  0  0  0  0  0  0  0  0  0  0
  192.7850  176.2450  147.2970 O   0  0  0  0  0  1  0  0  0  0  0  0
  192.5530  176.3620  142.9650 N   0  0  0  0  0  0  0  0  0  0  0  0
  190.7910  174.7590  143.1360 C   0  0  0  0  0  0  0  0  0  0  0  0
  188.6550  175.4060  145.9200 C   0  0  0  0  0  3  0  0  0  0  0  0
  191.7050  175.4850  142.3730 C   0  0  0  0  0  3  0  0  0  0  0  0
  190.4550  176.4440  147.2580 C   0  0  0  0  0  3  0  0  0  0  0  0
  189.6680  173.9730  145.5730 S   0  0  0  0  0  0  0  0  0  0  0  0
  189.7150  173.6270  142.3190 S   0  0  0  0  0  0  0  0  0  0  0  0
  189.8630  172.2580  142.9240 O   0  0  0  0  0  0  0  0  0  0  0  0
  190.0820  173.5600  140.8620 O   0  0  0  0  0  0  0  0  0  0  0  0
  188.0780  174.1610  142.5130 N   0  0  0  0  0  2  0  0  0  0  0  0
  187.8890  175.3570  141.7080 C   0  0  0  0  0  2  0  0  0  0  0  0
  187.6420  176.5610  142.6040 C   0  0  1  0  0  3  0  0  0  0  0  0
  184.8110  178.2810  142.7460 C   0  0  0  0  0  2  0  0  0  0  0  0
  185.7270  177.7110  143.8310 C   0  0  1  0  0  3  0  0  0  0  0  0
  184.9930  177.5260  145.0020 O   0  0  0  0  0  1  0  0  0  0  0  0
  186.6980  178.5070  141.2230 O   0  0  0  0  0  0  0  0  0  0  0  0
  187.7820  177.8390  141.8100 C   0  0  0  0  0  0  0  0  0  0  0  0
  188.9370  178.3150  141.6530 O   0  0  0  0  0  0  0  0  0  0  0  0
  185.3500  178.0680  141.3300 C   0  0  0  0  0  2  0  0  0  0  0  0
  186.3350  176.3860  143.3940 C   0  0  0  0  0  2  0  0  0  0  0  0
  188.1710  177.4470  147.0490 C   0  0  0  0  0  0  0  0  0  0  0  0
  187.4330  178.2930  147.3310 N   0  0  0  0  0  0  0  0  0  0  0  0
  1 28  1  0  0  0  0
  1 12  1  0  0  0  0
  2 12  2  0  0  0  0
  2  7  1  0  0  0  0
  3  5  1  0  0  0  0
  3 13  1  0  0  0  0
  5  2  1  0  0  0  0
  6  4  1  0  0  0  0
  6  5  2  0  0  0  0
  8  6  1  0  0  0  0
  9  3  2  0  0  0  0
 10  1  2  0  0  0  0
 11  8  2  0  0  0  0
 11  9  1  0  0  0  0
 13 10  1  0  0  0  0
 14 17  1  0  0  0  0
 14 15  2  0  0  0  0
 14  9  1  0  0  0  0
 16 14  2  0  0  0  0
 18 17  1  0  0  0  0
 19 18  1  6  0  0  0
 19 27  1  0  0  0  0
 20 21  1  0  0  0  0
 21 22  1  1  0  0  0
 23 26  1  0  0  0  0
 23 24  1  0  0  0  0
 24 19  1  0  0  0  0
 25 24  2  0  0  0  0
 26 20  1  0  0  0  0
 27 21  1  0  0  0  0
 28 29  3  0  0  0  0
M  END
>  <MODEL>
6

>  <REMARK>
 VINA RESULT:      -6.9      2.892      5.121
  Name = 
  5 active torsions:
  status: ('A' for Active; 'I' for Inactive)
    1  A    between atoms: C_1  and  C_4
    2  A    between atoms: S_3  and  C_18
    3  A    between atoms: S_3  and  N_26
    4  A    between atoms: C_5  and  C_8
    5  A    between atoms: C_8  and  N_26
                            x       y       z     vdW  Elec       q    Type
                         _______ _______ _______ _____ _____    ______ ____

>  <TORSDO>
F 5

$$$$
=
 OpenBabel11062422443D

 29 31  0  0  1  0  0  0  0  0999 V2000
  195.5000  175.9440  144.1160 C   0  0  0  0  0  0  0  0  0  0  0  0
  195.2410  173.7070  145.2360 C   0  0  0  0  0  0  0  0  0  0  0  0
  192.9990  174.8400  145.5850 C   0  0  0  0  0  0  0  0  0  0  0  0
  193.7660  171.4020  144.3200 N   0  0  0  0  0  1  0  0  0  0  0  0
  193.7510  173.7080  145.1960 C   0  0  0  0  0  0  0  0  0  0  0  0
  193.0600  172.5700  144.7340 C   0  0  0  0  0  0  0  0  0  0  0  0
  195.8930  172.6070  145.7800 O   0  0  0  0  0  1  0  0  0  0  0  0
  191.7060  172.5850  144.6380 N   0  0  0  0  0  0  0  0  0  0  0  0
  191.5960  174.8260  145.4540 C   0  0  0  0  0  0  0  0  0  0  0  0
  194.5420  176.6830  144.6760 C   0  0  0  0  0  3  0  0  0  0  0  0
  190.9730  173.6740  144.9780 C   0  0  0  0  0  3  0  0  0  0  0  0
  195.9970  174.6860  144.7140 C   0  0  0  0  0  3  0  0  0  0  0  0
  193.8460  176.2700  146.2720 S   0  0  0  0  0  0  0  0  0  0  0  0
  190.5960  176.2120  145.8880 S   0  0  0  0  0  0  0  0  0  0  0  0
  191.0380  177.4210  145.1110 O   0  0  0  0  0  0  0  0  0  0  0  0
  190.7510  176.4920  147.3580 O   0  0  0  0  0  0  0  0  0  0  0  0
  188.9430  175.8620  145.5040 N   0  0  0  0  0  2  0  0  0  0  0  0
  188.7180  176.1970  144.1060 C   0  0  0  0  0  2  0  0  0  0  0  0
  188.1070  177.5840  143.9890 C   0  0  1  0  0  3  0  0  0  0  0  0
  184.8610  178.2260  143.7930 C   0  0  0  0  0  2  0  0  0  0  0  0
  185.9820  178.8340  144.6360 C   0  0  1  0  0  3  0  0  0  0  0  0
  185.4360  179.4160  145.7790 O   0  0  0  0  0  1  0  0  0  0  0  0
  186.4460  177.6520  142.0350 O   0  0  0  0  0  0  0  0  0  0  0  0
  187.7300  177.8690  142.5540 C   0  0  0  0  0  0  0  0  0  0  0  0
  188.6240  178.3030  141.7810 O   0  0  0  0  0  0  0  0  0  0  0  0
  185.3550  177.1660  142.8070 C   0  0  0  0  0  2  0  0  0  0  0  0
  187.0010  177.7770  145.0390 C   0  0  0  0  0  2  0  0  0  0  0  0
  196.1110  176.4120  142.9050 C   0  0  0  0  0  0  0  0  0  0  0  0
  196.6030  176.7910  141.9280 N   0  0  0  0  0  0  0  0  0  0  0  0
  1 10  2  0  0  0  0
  1 12  1  0  0  0  0
  2  7  1  0  0  0  0
  3 13  1  0  0  0  0
  4  6  1  0  0  0  0
  5  2  1  0  0  0  0
  5  3  2  0  0  0  0
  6  5  1  0  0  0  0
  8  6  2  0  0  0  0
  8 11  1  0  0  0  0
  9  3  1  0  0  0  0
  9 14  1  0  0  0  0
 10 13  1  0  0  0  0
 11  9  2  0  0  0  0
 12  2  2  0  0  0  0
 14 16  2  0  0  0  0
 15 14  2  0  0  0  0
 17 14  1  0  0  0  0
 18 17  1  0  0  0  0
 19 18  1  6  0  0  0
 19 27  1  0  0  0  0
 20 21  1  0  0  0  0
 21 27  1  0  0  0  0
 21 22  1  1  0  0  0
 23 24  1  0  0  0  0
 23 26  1  0  0  0  0
 24 19  1  0  0  0  0
 25 24  2  0  0  0  0
 26 20  1  0  0  0  0
 28  1  1  0  0  0  0
 29 28  3  0  0  0  0
M  END
>  <MODEL>
7

>  <REMARK>
 VINA RESULT:      -6.9      0.961      2.037
  Name = 
  5 active torsions:
  status: ('A' for Active; 'I' for Inactive)
    1  A    between atoms: C_1  and  C_4
    2  A    between atoms: S_3  and  C_18
    3  A    between atoms: S_3  and  N_26
    4  A    between atoms: C_5  and  C_8
    5  A    between atoms: C_8  and  N_26
                            x       y       z     vdW  Elec       q    Type
                         _______ _______ _______ _____ _____    ______ ____

>  <TORSDO>
F 5

$$$$
=
 OpenBabel11062422443D

 29 31  0  0  1  0  0  0  0  0999 V2000
  187.1920  176.8980  145.2210 C   0  0  0  0  0  0  0  0  0  0  0  0
  187.9030  177.6160  142.9180 C   0  0  0  0  0  0  0  0  0  0  0  0
  189.1420  175.4350  143.2980 C   0  0  0  0  0  0  0  0  0  0  0  0
  187.0850  176.5350  140.3710 N   0  0  0  0  0  1  0  0  0  0  0  0
  188.3330  176.2570  142.4800 C   0  0  0  0  0  0  0  0  0  0  0  0
  187.9090  175.7550  141.2340 C   0  0  0  0  0  0  0  0  0  0  0  0
  188.0010  178.6700  142.0180 O   0  0  0  0  0  1  0  0  0  0  0  0
  188.2480  174.4950  140.8540 N   0  0  0  0  0  0  0  0  0  0  0  0
  189.4580  174.1280  142.8800 C   0  0  0  0  0  0  0  0  0  0  0  0
  188.1520  176.0480  145.5890 C   0  0  0  0  0  3  0  0  0  0  0  0
  188.9960  173.6840  141.6410 C   0  0  0  0  0  3  0  0  0  0  0  0
  187.3600  177.8700  144.1200 C   0  0  0  0  0  3  0  0  0  0  0  0
  189.7800  176.0870  144.8480 S   0  0  0  0  0  0  0  0  0  0  0  0
  190.4320  173.0350  143.8620 S   0  0  0  0  0  0  0  0  0  0  0  0
  190.6320  171.7360  143.1320 O   0  0  0  0  0  0  0  0  0  0  0  0
  189.7170  172.7640  145.1570 O   0  0  0  0  0  0  0  0  0  0  0  0
  191.9770  173.7640  144.1580 N   0  0  0  0  0  2  0  0  0  0  0  0
  192.7480  172.8710  145.0090 C   0  0  0  0  0  2  0  0  0  0  0  0
  193.8150  173.6520  145.7600 C   0  0  1  0  0  3  0  0  0  0  0  0
  195.1050  176.5440  144.7800 C   0  0  0  0  0  2  0  0  0  0  0  0
  194.5670  176.0590  146.1270 C   0  0  1  0  0  3  0  0  0  0  0  0
  194.1720  177.1580  146.8880 O   0  0  0  0  0  1  0  0  0  0  0  0
  195.7330  174.2700  144.1720 O   0  0  0  0  0  0  0  0  0  0  0  0
  195.1700  173.4190  145.1320 C   0  0  0  0  0  0  0  0  0  0  0  0
  195.8150  172.3930  145.4770 O   0  0  0  0  0  0  0  0  0  0  0  0
  195.1040  175.4570  143.7040 C   0  0  0  0  0  2  0  0  0  0  0  0
  193.3860  175.1170  145.9390 C   0  0  0  0  0  2  0  0  0  0  0  0
  185.9590  176.9030  145.9560 C   0  0  0  0  0  0  0  0  0  0  0  0
  184.9640  176.9080  146.5470 N   0  0  0  0  0  0  0  0  0  0  0  0
  1 10  2  0  0  0  0
  1 28  1  0  0  0  0
  2 12  2  0  0  0  0
  3 13  1  0  0  0  0
  4  6  1  0  0  0  0
  5  2  1  0  0  0  0
  5  3  2  0  0  0  0
  6  5  1  0  0  0  0
  7  2  1  0  0  0  0
  8  6  2  0  0  0  0
  8 11  1  0  0  0  0
  9  3  1  0  0  0  0
  9 14  1  0  0  0  0
 11  9  2  0  0  0  0
 12  1  1  0  0  0  0
 13 10  1  0  0  0  0
 14 17  1  0  0  0  0
 14 16  2  0  0  0  0
 15 14  2  0  0  0  0
 17 18  1  0  0  0  0
 19 18  1  6  0  0  0
 19 27  1  0  0  0  0
 20 21  1  0  0  0  0
 21 22  1  1  0  0  0
 23 24  1  0  0  0  0
 24 25  2  0  0  0  0
 24 19  1  0  0  0  0
 26 23  1  0  0  0  0
 26 20  1  0  0  0  0
 27 21  1  0  0  0  0
 28 29  3  0  0  0  0
M  END
>  <MODEL>
8

>  <REMARK>
 VINA RESULT:      -6.8      2.818      8.092
  Name = 
  5 active torsions:
  status: ('A' for Active; 'I' for Inactive)
    1  A    between atoms: C_1  and  C_4
    2  A    between atoms: S_3  and  C_18
    3  A    between atoms: S_3  and  N_26
    4  A    between atoms: C_5  and  C_8
    5  A    between atoms: C_8  and  N_26
                            x       y       z     vdW  Elec       q    Type
                         _______ _______ _______ _____ _____    ______ ____

>  <TORSDO>
F 5

$$$$
=
 OpenBabel11062422443D

 29 31  0  0  1  0  0  0  0  0999 V2000
  187.3090  176.8660  145.2830 C   0  0  0  0  0  0  0  0  0  0  0  0
  188.1450  177.4930  142.9950 C   0  0  0  0  0  0  0  0  0  0  0  0
  189.2230  175.2430  143.4550 C   0  0  0  0  0  0  0  0  0  0  0  0
  187.3470  176.4210  140.4380 N   0  0  0  0  0  1  0  0  0  0  0  0
  188.5000  176.1010  142.5950 C   0  0  0  0  0  0  0  0  0  0  0  0
  188.0870  175.6050  141.3420 C   0  0  0  0  0  0  0  0  0  0  0  0
  188.3440  178.5210  142.0820 O   0  0  0  0  0  1  0  0  0  0  0  0
  188.3540  174.3190  140.9960 N   0  0  0  0  0  0  0  0  0  0  0  0
  189.4660  173.9100  143.0690 C   0  0  0  0  0  0  0  0  0  0  0  0
  188.1970  175.9610  145.6990 C   0  0  0  0  0  3  0  0  0  0  0  0
  189.0200  173.4750  141.8220 C   0  0  0  0  0  3  0  0  0  0  0  0
  187.5790  177.8040  144.1730 C   0  0  0  0  0  3  0  0  0  0  0  0
  189.8490  175.8800  145.0160 S   0  0  0  0  0  0  0  0  0  0  0  0
  190.3310  172.7750  144.1030 S   0  0  0  0  0  0  0  0  0  0  0  0
  190.4940  171.4610  143.3910 O   0  0  0  0  0  0  0  0  0  0  0  0
  189.5420  172.5530  145.3640 O   0  0  0  0  0  0  0  0  0  0  0  0
  191.8980  173.4210  144.4690 N   0  0  0  0  0  2  0  0  0  0  0  0
  192.5890  173.6800  143.2150 C   0  0  0  0  0  2  0  0  0  0  0  0
  193.9340  174.3370  143.4820 C   0  0  1  0  0  3  0  0  0  0  0  0
  194.8110  175.7950  146.3280 C   0  0  0  0  0  2  0  0  0  0  0  0
  195.5260  174.7920  145.4210 C   0  0  1  0  0  3  0  0  0  0  0  0
  196.4700  174.0880  146.1660 O   0  0  0  0  0  1  0  0  0  0  0  0
  193.5880  176.6980  144.4240 O   0  0  0  0  0  0  0  0  0  0  0  0
  193.8190  175.8370  143.3430 C   0  0  0  0  0  0  0  0  0  0  0  0
  193.9150  176.3340  142.1900 O   0  0  0  0  0  0  0  0  0  0  0  0
  193.4640  176.2580  145.7710 C   0  0  0  0  0  2  0  0  0  0  0  0
  194.5370  173.8160  144.7970 C   0  0  0  0  0  2  0  0  0  0  0  0
  186.0540  176.9660  145.9720 C   0  0  0  0  0  0  0  0  0  0  0  0
  185.0430  177.0460  146.5290 N   0  0  0  0  0  0  0  0  0  0  0  0
  1 10  2  0  0  0  0
  1 28  1  0  0  0  0
  2 12  2  0  0  0  0
  3 13  1  0  0  0  0
  4  6  1  0  0  0  0
  5  2  1  0  0  0  0
  5  3  2  0  0  0  0
  6  5  1  0  0  0  0
  7  2  1  0  0  0  0
  8  6  2  0  0  0  0
  8 11  1  0  0  0  0
  9  3  1  0  0  0  0
  9 14  1  0  0  0  0
 11  9  2  0  0  0  0
 12  1  1  0  0  0  0
 13 10  1  0  0  0  0
 14 17  1  0  0  0  0
 14 16  2  0  0  0  0
 15 14  2  0  0  0  0
 18 17  1  0  0  0  0
 19 18  1  1  0  0  0
 19 27  1  0  0  0  0
 21 22  1  1  0  0  0
 21 20  1  0  0  0  0
 23 26  1  0  0  0  0
 24 19  1  0  0  0  0
 24 23  1  0  0  0  0
 25 24  2  0  0  0  0
 26 20  1  0  0  0  0
 27 21  1  0  0  0  0
 28 29  3  0  0  0  0
M  END
>  <MODEL>
9

>  <REMARK>
 VINA RESULT:      -6.8      2.974      7.875
  Name = 
  5 active torsions:
  status: ('A' for Active; 'I' for Inactive)
    1  A    between atoms: C_1  and  C_4
    2  A    between atoms: S_3  and  C_18
    3  A    between atoms: S_3  and  N_26
    4  A    between atoms: C_5  and  C_8
    5  A    between atoms: C_8  and  N_26
                            x       y       z     vdW  Elec       q    Type
                         _______ _______ _______ _____ _____    ______ ____

>  <TORSDO>
F 5

$$$$
