=
 OpenBabel11062422023D

 34 38  0  0  1  0  0  0  0  0999 V2000
  186.0540  177.1360  146.7480 C   0  0  0  0  0  3  0  0  0  0  0  0
  186.6370  178.4030  141.6600 O   0  0  0  0  0  0  0  0  0  0  0  0
  184.3310  178.4650  147.5530 F   0  0  0  0  0  0  0  0  0  0  0  0
  186.7730  176.4170  145.6440 C   0  0  1  0  0  3  0  0  0  0  0  0
  184.5270  178.1260  145.1770 N   0  0  0  0  0  0  0  0  0  0  0  0
  185.3830  178.2860  141.6240 C   0  0  0  0  0  0  0  0  0  0  0  0
  185.1680  177.7410  144.1140 C   0  0  0  0  0  0  0  0  0  0  0  0
  184.6310  178.1050  142.8320 N   0  0  0  0  0  2  0  0  0  0  0  0
  186.4750  176.9690  144.2310 C   0  0  2  0  0  3  0  0  0  0  0  0
  184.9790  177.8840  146.5130 C   0  0  0  0  0  0  0  0  0  0  0  0
  189.7410  175.0220  147.3620 C   0  0  1  0  0  3  0  0  0  0  0  0
  188.5400  175.9580  147.3430 C   0  0  1  0  0  3  0  0  0  0  0  0
  188.2700  176.4300  145.9230 C   0  0  1  0  0  3  0  0  0  0  0  0
  188.7840  175.0240  146.1790 C   0  0  1  0  0  3  0  0  0  0  0  0
  193.8370  175.5760  144.4280 C   0  0  0  0  0  2  0  0  0  0  0  0
  194.9220  177.2830  145.7740 C   0  0  0  0  0  3  0  0  0  0  0  0
  193.6650  176.8630  146.3640 N   0  0  0  0  0  0  0  0  0  0  0  0
  191.2920  176.8050  147.7680 O   0  0  0  0  0  0  0  0  0  0  0  0
  191.8350  175.3700  145.9950 N   0  0  0  0  0  2  0  0  0  0  0  0
  195.0900  176.4370  144.5130 C   0  0  0  0  0  3  0  0  0  0  0  0
  190.9970  175.7880  147.0790 C   0  0  0  0  0  0  0  0  0  0  0  0
  193.0910  175.9630  145.6450 C   0  0  0  0  0  0  0  0  0  0  0  0
  183.4430  178.0650  140.2270 N   0  0  0  0  0  2  0  0  0  0  0  0
  184.6930  178.3760  140.3340 C   0  0  0  0  0  3  0  0  0  0  0  0
  186.5350  175.8260  143.2100 C   0  0  0  0  0  2  0  0  0  0  0  0
  187.8290  175.8540  142.3950 C   0  0  0  0  0  2  0  0  0  0  0  0
  189.6280  172.6200  141.4250 C   0  0  0  0  0  2  0  0  0  0  0  0
  190.4420  176.2390  143.3230 O   0  0  0  0  0  1  0  0  0  0  0  0
  188.4030  173.4940  141.7000 C   0  0  2  0  0  3  0  0  0  0  0  0
  188.7190  174.6390  142.6800 C   0  0  1  0  0  3  0  0  0  0  0  0
  187.2870  172.6290  142.2620 C   0  0  0  0  0  1  0  0  0  0  0  0
  190.7910  173.4370  140.8370 C   0  0  0  0  0  2  0  0  0  0  0  0
  190.2260  174.9720  142.7730 C   0  0  1  0  0  3  0  0  0  0  0  0
  190.9020  174.8580  141.4090 C   0  0  0  0  0  2  0  0  0  0  0  0
  4 13  1  0  0  0  0
  4  1  1  1  0  0  0
  5 10  1  0  0  0  0
  6  2  2  0  0  0  0
  6  8  1  0  0  0  0
  7  9  1  0  0  0  0
  7  5  2  0  0  0  0
  8  7  1  0  0  0  0
  9 25  1  6  0  0  0
  9  4  1  0  0  0  0
 10  1  2  0  0  0  0
 10  3  1  0  0  0  0
 12 11  1  0  0  0  0
 13 14  1  0  0  0  0
 13 12  1  0  0  0  0
 14 12  1  0  0  0  0
 14 11  1  0  0  0  0
 15 20  1  0  0  0  0
 15 22  1  0  0  0  0
 16 17  1  0  0  0  0
 19 21  1  0  0  0  0
 20 16  2  0  0  0  0
 21 11  1  0  0  0  0
 21 18  2  0  0  0  0
 22 19  1  0  0  0  0
 22 17  2  0  0  0  0
 23 24  2  0  0  0  0
 24  6  1  0  0  0  0
 26 30  1  0  0  0  0
 26 25  1  0  0  0  0
 27 29  1  0  0  0  0
 29 31  1  0  0  0  0
 29 30  1  0  0  0  0
 30 33  1  0  0  0  0
 32 34  1  0  0  0  0
 32 27  1  0  0  0  0
 33 28  1  0  0  0  0
 34 33  1  0  0  0  0
M  END
>  <MODEL>
1

>  <REMARK>
 VINA RESULT:      -8.2      0.000      0.000
  Name = 
  6 active torsions:
  status: ('A' for Active; 'I' for Inactive)
    1  A    between atoms: C_8  and  C_27
    2  A    between atoms: C_9  and  C_13
    3  A    between atoms: C_9  and  C_14
    4  A    between atoms: C_13  and  C_29
    5  A    between atoms: C_17  and  C_30
    6  A    between atoms: C_20  and  C_23
                            x       y       z     vdW  Elec       q    Type
                         _______ _______ _______ _____ _____    ______ ____

>  <TORSDO>
F 6

$$$$
=
 OpenBabel11062422023D

 34 38  0  0  1  0  0  0  0  0999 V2000
  190.7240  172.9990  143.2300 C   0  0  0  0  0  3  0  0  0  0  0  0
  194.7640  176.3680  142.8190 O   0  0  0  0  0  0  0  0  0  0  0  0
  190.6400  171.8420  141.2210 F   0  0  0  0  0  0  0  0  0  0  0  0
  191.4560  173.7730  144.2880 C   0  0  1  0  0  3  0  0  0  0  0  0
  192.6800  172.9650  141.8320 N   0  0  0  0  0  0  0  0  0  0  0  0
  195.3870  175.3610  142.3890 C   0  0  0  0  0  0  0  0  0  0  0  0
  193.3690  173.7990  142.5530 C   0  0  0  0  0  0  0  0  0  0  0  0
  194.6960  174.1350  142.1160 N   0  0  0  0  0  2  0  0  0  0  0  0
  192.7640  174.4340  143.7970 C   0  0  2  0  0  3  0  0  0  0  0  0
  191.3300  172.5880  142.1180 C   0  0  0  0  0  0  0  0  0  0  0  0
  189.5920  175.1270  147.1850 C   0  0  1  0  0  3  0  0  0  0  0  0
  189.6860  174.1800  145.9960 C   0  0  1  0  0  3  0  0  0  0  0  0
  190.5210  174.8100  144.8930 C   0  0  1  0  0  3  0  0  0  0  0  0
  190.8630  175.0610  146.3510 C   0  0  1  0  0  3  0  0  0  0  0  0
  184.9260  176.9940  146.5160 C   0  0  0  0  0  2  0  0  0  0  0  0
  185.6080  179.1550  145.6410 C   0  0  0  0  0  3  0  0  0  0  0  0
  186.7550  178.3200  145.9400 N   0  0  0  0  0  0  0  0  0  0  0  0
  189.2770  177.4360  146.6200 O   0  0  0  0  0  0  0  0  0  0  0  0
  187.3200  176.1560  146.7860 N   0  0  0  0  0  2  0  0  0  0  0  0
  184.3800  178.3080  145.9760 C   0  0  0  0  0  3  0  0  0  0  0  0
  188.7430  176.3120  146.8350 C   0  0  0  0  0  0  0  0  0  0  0  0
  186.3900  177.1770  146.4080 C   0  0  0  0  0  0  0  0  0  0  0  0
  197.5870  176.1790  142.8990 N   0  0  0  0  0  2  0  0  0  0  0  0
  196.8270  175.4670  142.1320 C   0  0  0  0  0  3  0  0  0  0  0  0
  193.7790  174.4790  144.9440 C   0  0  0  0  0  2  0  0  0  0  0  0
  193.8740  173.1410  145.6790 C   0  0  0  0  0  2  0  0  0  0  0  0
  197.0610  171.0340  145.8650 C   0  0  0  0  0  2  0  0  0  0  0  0
  193.1390  170.7120  144.4970 O   0  0  0  0  0  1  0  0  0  0  0  0
  196.2580  172.3350  145.8970 C   0  0  2  0  0  3  0  0  0  0  0  0
  194.9530  172.2290  145.0860 C   0  0  1  0  0  3  0  0  0  0  0  0
  197.1130  173.4650  145.3510 C   0  0  0  0  0  1  0  0  0  0  0  0
  196.2520  169.8510  146.4230 C   0  0  0  0  0  2  0  0  0  0  0  0
  194.4890  170.7720  144.8540 C   0  0  1  0  0  3  0  0  0  0  0  0
  194.7560  169.9060  146.0830 C   0  0  0  0  0  2  0  0  0  0  0  0
  3 10  1  0  0  0  0
  4  1  1  6  0  0  0
  4 13  1  0  0  0  0
  5 10  1  0  0  0  0
  5  7  2  0  0  0  0
  6  2  2  0  0  0  0
  7  9  1  0  0  0  0
  8  6  1  0  0  0  0
  8  7  1  0  0  0  0
  9  4  1  0  0  0  0
  9 25  1  1  0  0  0
 10  1  2  0  0  0  0
 12 14  1  0  0  0  0
 12 11  1  0  0  0  0
 13 12  1  0  0  0  0
 13 14  1  0  0  0  0
 14 11  1  0  0  0  0
 16 17  1  0  0  0  0
 16 20  2  0  0  0  0
 17 22  2  0  0  0  0
 18 21  2  0  0  0  0
 19 21  1  0  0  0  0
 20 15  1  0  0  0  0
 21 11  1  0  0  0  0
 22 15  1  0  0  0  0
 22 19  1  0  0  0  0
 24  6  1  0  0  0  0
 24 23  2  0  0  0  0
 25 26  1  0  0  0  0
 27 29  1  0  0  0  0
 27 32  1  0  0  0  0
 28 33  1  0  0  0  0
 30 26  1  0  0  0  0
 30 29  1  0  0  0  0
 31 29  1  0  0  0  0
 33 30  1  0  0  0  0
 33 34  1  0  0  0  0
 34 32  1  0  0  0  0
M  END
>  <MODEL>
2

>  <REMARK>
 VINA RESULT:      -8.1      3.921      8.197
  Name = 
  6 active torsions:
  status: ('A' for Active; 'I' for Inactive)
    1  A    between atoms: C_8  and  C_27
    2  A    between atoms: C_9  and  C_13
    3  A    between atoms: C_9  and  C_14
    4  A    between atoms: C_13  and  C_29
    5  A    between atoms: C_17  and  C_30
    6  A    between atoms: C_20  and  C_23
                            x       y       z     vdW  Elec       q    Type
                         _______ _______ _______ _____ _____    ______ ____

>  <TORSDO>
F 6

$$$$
=
 OpenBabel11062422023D

 34 38  0  0  1  0  0  0  0  0999 V2000
  188.5200  175.8420  146.1540 C   0  0  0  0  0  3  0  0  0  0  0  0
  188.0820  178.0530  141.3830 O   0  0  0  0  0  0  0  0  0  0  0  0
  186.7720  176.6880  147.4210 F   0  0  0  0  0  0  0  0  0  0  0  0
  189.1510  175.4620  144.8450 C   0  0  1  0  0  3  0  0  0  0  0  0
  186.6310  176.8050  145.0200 N   0  0  0  0  0  0  0  0  0  0  0  0
  186.8710  177.7250  141.4880 C   0  0  0  0  0  0  0  0  0  0  0  0
  187.1420  176.7280  143.8280 C   0  0  0  0  0  0  0  0  0  0  0  0
  186.3570  177.2080  142.7240 N   0  0  0  0  0  2  0  0  0  0  0  0
  188.5500  176.1890  143.6200 C   0  0  2  0  0  3  0  0  0  0  0  0
  187.3230  176.4180  146.2130 C   0  0  0  0  0  0  0  0  0  0  0  0
  192.3410  175.2850  146.7150 C   0  0  1  0  0  3  0  0  0  0  0  0
  191.0580  176.0200  146.3520 C   0  0  1  0  0  3  0  0  0  0  0  0
  190.6540  175.6900  144.9240 C   0  0  1  0  0  3  0  0  0  0  0  0
  191.3150  174.6370  145.7960 C   0  0  1  0  0  3  0  0  0  0  0  0
  195.0550  175.3170  142.4330 C   0  0  0  0  0  2  0  0  0  0  0  0
  196.8170  176.7910  143.2250 C   0  0  0  0  0  3  0  0  0  0  0  0
  195.8290  176.5460  144.2580 N   0  0  0  0  0  0  0  0  0  0  0  0
  194.1840  176.7970  146.4580 O   0  0  0  0  0  0  0  0  0  0  0  0
  193.7890  175.3610  144.6470 N   0  0  0  0  0  2  0  0  0  0  0  0
  196.3630  175.9750  142.0160 C   0  0  0  0  0  3  0  0  0  0  0  0
  193.4980  175.8610  145.9570 C   0  0  0  0  0  0  0  0  0  0  0  0
  194.8940  175.7680  143.8330 C   0  0  0  0  0  0  0  0  0  0  0  0
  184.7510  178.2930  140.5120 N   0  0  0  0  0  2  0  0  0  0  0  0
  185.9760  177.9140  140.3430 C   0  0  0  0  0  3  0  0  0  0  0  0
  188.6140  175.2690  142.3950 C   0  0  0  0  0  2  0  0  0  0  0  0
  187.9470  173.9180  142.6570 C   0  0  0  0  0  2  0  0  0  0  0  0
  190.5080  172.4650  140.2150 C   0  0  0  0  0  2  0  0  0  0  0  0
  189.3180  172.0140  144.1830 O   0  0  0  0  0  1  0  0  0  0  0  0
  189.2400  173.2280  140.5990 C   0  0  2  0  0  3  0  0  0  0  0  0
  188.6750  172.7660  141.9560 C   0  0  1  0  0  3  0  0  0  0  0  0
  188.1930  173.0370  139.5150 C   0  0  0  0  0  1  0  0  0  0  0  0
  191.6150  172.6330  141.2700 C   0  0  0  0  0  2  0  0  0  0  0  0
  189.7180  172.0490  142.8440 C   0  0  1  0  0  3  0  0  0  0  0  0
  191.0940  172.6960  142.7130 C   0  0  0  0  0  2  0  0  0  0  0  0
  1 10  2  0  0  0  0
  2  6  2  0  0  0  0
  4 13  1  0  0  0  0
  4  1  1  1  0  0  0
  5 10  1  0  0  0  0
  6  8  1  0  0  0  0
  7  5  2  0  0  0  0
  8  7  1  0  0  0  0
  9 25  1  6  0  0  0
  9  7  1  0  0  0  0
  9  4  1  0  0  0  0
 10  3  1  0  0  0  0
 12 11  1  0  0  0  0
 13 14  1  0  0  0  0
 13 12  1  0  0  0  0
 14 12  1  0  0  0  0
 14 11  1  0  0  0  0
 15 22  1  0  0  0  0
 16 17  1  0  0  0  0
 19 21  1  0  0  0  0
 20 15  1  0  0  0  0
 20 16  2  0  0  0  0
 21 18  2  0  0  0  0
 21 11  1  0  0  0  0
 22 17  2  0  0  0  0
 22 19  1  0  0  0  0
 24 23  2  0  0  0  0
 24  6  1  0  0  0  0
 25 26  1  0  0  0  0
 27 29  1  0  0  0  0
 27 32  1  0  0  0  0
 29 30  1  0  0  0  0
 30 26  1  0  0  0  0
 30 33  1  0  0  0  0
 31 29  1  0  0  0  0
 32 34  1  0  0  0  0
 33 28  1  0  0  0  0
 34 33  1  0  0  0  0
M  END
>  <MODEL>
3

>  <REMARK>
 VINA RESULT:      -8.0      1.923      2.515
  Name = 
  6 active torsions:
  status: ('A' for Active; 'I' for Inactive)
    1  A    between atoms: C_8  and  C_27
    2  A    between atoms: C_9  and  C_13
    3  A    between atoms: C_9  and  C_14
    4  A    between atoms: C_13  and  C_29
    5  A    between atoms: C_17  and  C_30
    6  A    between atoms: C_20  and  C_23
                            x       y       z     vdW  Elec       q    Type
                         _______ _______ _______ _____ _____    ______ ____

>  <TORSDO>
F 6

$$$$
=
 OpenBabel11062422023D

 34 38  0  0  1  0  0  0  0  0999 V2000
  193.3610  177.1730  145.3430 C   0  0  0  0  0  3  0  0  0  0  0  0
  193.4400  171.8970  145.3910 O   0  0  0  0  0  0  0  0  0  0  0  0
  194.9410  177.8580  146.8970 F   0  0  0  0  0  0  0  0  0  0  0  0
  192.8060  176.1840  144.3600 C   0  0  1  0  0  3  0  0  0  0  0  0
  195.0680  175.6200  146.0180 N   0  0  0  0  0  0  0  0  0  0  0  0
  194.6890  172.0480  145.3260 C   0  0  0  0  0  0  0  0  0  0  0  0
  194.5800  174.6030  145.3720 C   0  0  0  0  0  0  0  0  0  0  0  0
  195.2770  173.3490  145.4580 N   0  0  0  0  0  2  0  0  0  0  0  0
  193.2810  174.7300  144.5890 C   0  0  2  0  0  3  0  0  0  0  0  0
  194.4460  176.9080  146.0660 C   0  0  0  0  0  0  0  0  0  0  0  0
  189.6220  177.1370  142.7310 C   0  0  1  0  0  3  0  0  0  0  0  0
  190.8220  177.4880  143.5990 C   0  0  1  0  0  3  0  0  0  0  0  0
  191.2860  176.2610  144.3680 C   0  0  1  0  0  3  0  0  0  0  0  0
  190.7300  176.1200  142.9630 C   0  0  1  0  0  3  0  0  0  0  0  0
  185.7170  179.0710  145.3220 C   0  0  0  0  0  2  0  0  0  0  0  0
  184.9980  176.9900  146.3480 C   0  0  0  0  0  3  0  0  0  0  0  0
  186.1640  176.7910  145.5090 N   0  0  0  0  0  0  0  0  0  0  0  0
  188.0660  175.6900  143.8430 O   0  0  0  0  0  0  0  0  0  0  0  0
  187.6670  177.9870  144.0850 N   0  0  0  0  0  2  0  0  0  0  0  0
  184.6890  178.4850  146.2790 C   0  0  0  0  0  3  0  0  0  0  0  0
  188.4220  176.8760  143.5890 C   0  0  0  0  0  0  0  0  0  0  0  0
  186.5390  177.8950  144.9620 C   0  0  0  0  0  0  0  0  0  0  0  0
  196.4880  170.6040  145.9940 N   0  0  0  0  0  2  0  0  0  0  0  0
  195.5430  170.8690  145.1520 C   0  0  0  0  0  3  0  0  0  0  0  0
  193.3740  174.0030  143.2430 C   0  0  0  0  0  2  0  0  0  0  0  0
  194.1430  174.8180  142.2020 C   0  0  0  0  0  2  0  0  0  0  0  0
  197.2260  173.5340  140.3350 C   0  0  0  0  0  2  0  0  0  0  0  0
  196.1550  176.6340  142.9050 O   0  0  0  0  0  1  0  0  0  0  0  0
  195.8230  173.4210  140.9320 C   0  0  2  0  0  3  0  0  0  0  0  0
  195.6140  174.3960  142.1070 C   0  0  1  0  0  3  0  0  0  0  0  0
  195.5910  171.9940  141.4000 C   0  0  0  0  0  1  0  0  0  0  0  0
  197.5160  174.9560  139.8260 C   0  0  0  0  0  2  0  0  0  0  0  0
  196.6090  175.5790  142.1090 C   0  0  1  0  0  3  0  0  0  0  0  0
  196.8950  176.0630  140.6900 C   0  0  0  0  0  2  0  0  0  0  0  0
  1 10  2  0  0  0  0
  4 13  1  0  0  0  0
  4  9  1  0  0  0  0
  4  1  1  1  0  0  0
  5 10  1  0  0  0  0
  6  2  2  0  0  0  0
  6  8  1  0  0  0  0
  7  8  1  0  0  0  0
  7  5  2  0  0  0  0
  9 25  1  6  0  0  0
  9  7  1  0  0  0  0
 10  3  1  0  0  0  0
 11 14  1  0  0  0  0
 11 21  1  0  0  0  0
 11 12  1  0  0  0  0
 12 13  1  0  0  0  0
 14 12  1  0  0  0  0
 14 13  1  0  0  0  0
 15 20  1  0  0  0  0
 17 16  1  0  0  0  0
 19 22  1  0  0  0  0
 20 16  2  0  0  0  0
 21 18  2  0  0  0  0
 21 19  1  0  0  0  0
 22 15  1  0  0  0  0
 22 17  2  0  0  0  0
 24  6  1  0  0  0  0
 24 23  2  0  0  0  0
 26 25  1  0  0  0  0
 27 29  1  0  0  0  0
 29 31  1  0  0  0  0
 29 30  1  0  0  0  0
 30 33  1  0  0  0  0
 30 26  1  0  0  0  0
 32 27  1  0  0  0  0
 32 34  1  0  0  0  0
 33 28  1  0  0  0  0
 34 33  1  0  0  0  0
M  END
>  <MODEL>
4

>  <REMARK>
 VINA RESULT:      -7.5      3.800      8.472
  Name = 
  6 active torsions:
  status: ('A' for Active; 'I' for Inactive)
    1  A    between atoms: C_8  and  C_27
    2  A    between atoms: C_9  and  C_13
    3  A    between atoms: C_9  and  C_14
    4  A    between atoms: C_13  and  C_29
    5  A    between atoms: C_17  and  C_30
    6  A    between atoms: C_20  and  C_23
                            x       y       z     vdW  Elec       q    Type
                         _______ _______ _______ _____ _____    ______ ____

>  <TORSDO>
F 6

$$$$
=
 OpenBabel11062422023D

 34 38  0  0  1  0  0  0  0  0999 V2000
  189.7460  172.5670  143.9480 C   0  0  0  0  0  3  0  0  0  0  0  0
  192.7910  176.3240  141.8380 O   0  0  0  0  0  0  0  0  0  0  0  0
  189.7010  170.8310  142.4100 F   0  0  0  0  0  0  0  0  0  0  0  0
  190.3920  173.7640  144.5830 C   0  0  1  0  0  3  0  0  0  0  0  0
  191.4740  172.4550  142.2800 N   0  0  0  0  0  0  0  0  0  0  0  0
  193.5800  175.3690  141.6080 C   0  0  0  0  0  0  0  0  0  0  0  0
  192.0250  173.5910  142.5880 C   0  0  0  0  0  0  0  0  0  0  0  0
  193.1720  174.0120  141.8330 N   0  0  0  0  0  2  0  0  0  0  0  0
  191.4380  174.4670  143.6860 C   0  0  2  0  0  3  0  0  0  0  0  0
  190.2950  171.9420  142.9100 C   0  0  0  0  0  0  0  0  0  0  0  0
  189.1890  176.3980  146.8890 C   0  0  1  0  0  3  0  0  0  0  0  0
  189.3670  174.9280  146.5350 C   0  0  1  0  0  3  0  0  0  0  0  0
  189.3160  174.7440  145.0260 C   0  0  1  0  0  3  0  0  0  0  0  0
  189.9370  175.9930  145.6260 C   0  0  1  0  0  3  0  0  0  0  0  0
  186.0560  179.0370  143.9020 C   0  0  0  0  0  2  0  0  0  0  0  0
  184.0660  178.7660  145.2680 C   0  0  0  0  0  3  0  0  0  0  0  0
  185.2130  178.1120  145.8690 N   0  0  0  0  0  0  0  0  0  0  0  0
  186.8280  176.4020  147.3080 O   0  0  0  0  0  0  0  0  0  0  0  0
  187.5400  177.7080  145.4960 N   0  0  0  0  0  2  0  0  0  0  0  0
  184.5840  179.4160  143.9860 C   0  0  0  0  0  3  0  0  0  0  0  0
  187.7840  176.8320  146.6020 C   0  0  0  0  0  0  0  0  0  0  0  0
  186.2650  178.2540  145.1390 C   0  0  0  0  0  0  0  0  0  0  0  0
  195.4780  176.8020  141.2710 N   0  0  0  0  0  2  0  0  0  0  0  0
  194.9120  175.6570  141.0680 C   0  0  0  0  0  3  0  0  0  0  0  0
  192.5420  175.0700  144.5620 C   0  0  0  0  0  2  0  0  0  0  0  0
  192.8200  174.2190  145.8020 C   0  0  0  0  0  2  0  0  0  0  0  0
  196.2860  173.1750  144.5640 C   0  0  0  0  0  2  0  0  0  0  0  0
  194.5090  176.2320  146.7680 O   0  0  0  0  0  1  0  0  0  0  0  0
  194.8130  172.9490  144.9100 C   0  0  2  0  0  3  0  0  0  0  0  0
  194.3140  173.9320  145.9850 C   0  0  1  0  0  3  0  0  0  0  0  0
  194.6250  171.5210  145.3910 C   0  0  0  0  0  1  0  0  0  0  0  0
  196.5390  174.6030  144.0530 C   0  0  0  0  0  2  0  0  0  0  0  0
  195.1880  175.2020  146.1110 C   0  0  1  0  0  3  0  0  0  0  0  0
  195.6800  175.6710  144.7450 C   0  0  0  0  0  2  0  0  0  0  0  0
  3 10  1  0  0  0  0
  4  1  1  6  0  0  0
  4 13  1  0  0  0  0
  5  7  2  0  0  0  0
  5 10  1  0  0  0  0
  6  8  1  0  0  0  0
  6  2  2  0  0  0  0
  7  9  1  0  0  0  0
  8  7  1  0  0  0  0
  9 25  1  1  0  0  0
  9  4  1  0  0  0  0
 10  1  2  0  0  0  0
 12 11  1  0  0  0  0
 13 14  1  0  0  0  0
 13 12  1  0  0  0  0
 14 12  1  0  0  0  0
 14 11  1  0  0  0  0
 15 20  1  0  0  0  0
 15 22  1  0  0  0  0
 16 17  1  0  0  0  0
 19 21  1  0  0  0  0
 20 16  2  0  0  0  0
 21 11  1  0  0  0  0
 21 18  2  0  0  0  0
 22 19  1  0  0  0  0
 22 17  2  0  0  0  0
 24 23  2  0  0  0  0
 24  6  1  0  0  0  0
 25 26  1  0  0  0  0
 26 30  1  0  0  0  0
 27 29  1  0  0  0  0
 29 31  1  0  0  0  0
 29 30  1  0  0  0  0
 30 33  1  0  0  0  0
 32 27  1  0  0  0  0
 32 34  1  0  0  0  0
 33 28  1  0  0  0  0
 34 33  1  0  0  0  0
M  END
>  <MODEL>
5

>  <REMARK>
 VINA RESULT:      -7.5      3.302      7.376
  Name = 
  6 active torsions:
  status: ('A' for Active; 'I' for Inactive)
    1  A    between atoms: C_8  and  C_27
    2  A    between atoms: C_9  and  C_13
    3  A    between atoms: C_9  and  C_14
    4  A    between atoms: C_13  and  C_29
    5  A    between atoms: C_17  and  C_30
    6  A    between atoms: C_20  and  C_23
                            x       y       z     vdW  Elec       q    Type
                         _______ _______ _______ _____ _____    ______ ____

>  <TORSDO>
F 6

$$$$
=
 OpenBabel11062422023D

 34 38  0  0  1  0  0  0  0  0999 V2000
  189.7380  173.1800  141.8920 C   0  0  0  0  0  3  0  0  0  0  0  0
  193.5260  176.8510  142.0180 O   0  0  0  0  0  0  0  0  0  0  0  0
  190.3260  171.7010  140.2050 F   0  0  0  0  0  0  0  0  0  0  0  0
  190.0730  174.1950  142.9460 C   0  0  1  0  0  3  0  0  0  0  0  0
  192.0230  173.1250  141.1480 N   0  0  0  0  0  0  0  0  0  0  0  0
  194.3030  175.8600  141.9870 C   0  0  0  0  0  0  0  0  0  0  0  0
  192.4160  174.1370  141.8610 C   0  0  0  0  0  0  0  0  0  0  0  0
  193.7930  174.5370  141.7670 N   0  0  0  0  0  2  0  0  0  0  0  0
  191.4310  174.9030  142.7330 C   0  0  2  0  0  3  0  0  0  0  0  0
  190.6710  172.6570  141.1020 C   0  0  0  0  0  0  0  0  0  0  0  0
  187.4080  176.2140  141.3580 C   0  0  1  0  0  3  0  0  0  0  0  0
  188.8630  176.0270  141.7670 C   0  0  1  0  0  3  0  0  0  0  0  0
  188.9440  175.2110  143.0470 C   0  0  1  0  0  3  0  0  0  0  0  0
  187.8640  174.9210  142.0200 C   0  0  1  0  0  3  0  0  0  0  0  0
  185.2400  176.7940  145.9040 C   0  0  0  0  0  2  0  0  0  0  0  0
  184.3960  179.0410  145.5300 C   0  0  0  0  0  3  0  0  0  0  0  0
  185.0920  178.5370  144.3630 N   0  0  0  0  0  0  0  0  0  0  0  0
  186.5550  178.3510  142.0320 O   0  0  0  0  0  0  0  0  0  0  0  0
  186.2710  176.6110  143.5780 N   0  0  0  0  0  2  0  0  0  0  0  0
  184.4420  177.9120  146.5590 C   0  0  0  0  0  3  0  0  0  0  0  0
  186.7150  177.1310  142.3190 C   0  0  0  0  0  0  0  0  0  0  0  0
  185.5430  177.3480  144.5660 C   0  0  0  0  0  0  0  0  0  0  0  0
  196.4660  176.4630  141.1370 N   0  0  0  0  0  2  0  0  0  0  0  0
  195.7450  176.0770  142.1380 C   0  0  0  0  0  3  0  0  0  0  0  0
  192.0480  175.2490  144.0930 C   0  0  0  0  0  2  0  0  0  0  0  0
  191.7050  174.2080  145.1600 C   0  0  0  0  0  2  0  0  0  0  0  0
  190.7940  177.1850  147.3840 C   0  0  0  0  0  2  0  0  0  0  0  0
  189.3160  173.4190  146.3880 O   0  0  0  0  0  1  0  0  0  0  0  0
  191.7350  176.3260  146.5370 C   0  0  2  0  0  3  0  0  0  0  0  0
  191.2830  174.8550  146.4840 C   0  0  1  0  0  3  0  0  0  0  0  0
  193.1400  176.4130  147.1070 C   0  0  0  0  0  1  0  0  0  0  0  0
  189.3530  177.1520  146.8460 C   0  0  0  0  0  2  0  0  0  0  0  0
  189.7900  174.6560  146.8330 C   0  0  1  0  0  3  0  0  0  0  0  0
  188.9360  175.7900  146.2720 C   0  0  0  0  0  2  0  0  0  0  0  0
  3 10  1  0  0  0  0
  4  1  1  6  0  0  0
  4 13  1  0  0  0  0
  5  7  2  0  0  0  0
  6  2  2  0  0  0  0
  6 24  1  0  0  0  0
  7  9  1  0  0  0  0
  8  7  1  0  0  0  0
  8  6  1  0  0  0  0
  9  4  1  0  0  0  0
  9 25  1  1  0  0  0
 10  5  1  0  0  0  0
 10  1  2  0  0  0  0
 11 12  1  0  0  0  0
 11 14  1  0  0  0  0
 11 21  1  0  0  0  0
 12 14  1  0  0  0  0
 12 13  1  0  0  0  0
 14 13  1  0  0  0  0
 15 20  1  0  0  0  0
 16 20  2  0  0  0  0
 17 22  2  0  0  0  0
 17 16  1  0  0  0  0
 18 21  2  0  0  0  0
 19 22  1  0  0  0  0
 21 19  1  0  0  0  0
 22 15  1  0  0  0  0
 23 24  2  0  0  0  0
 25 26  1  0  0  0  0
 26 30  1  0  0  0  0
 28 33  1  0  0  0  0
 29 31  1  0  0  0  0
 29 27  1  0  0  0  0
 30 29  1  0  0  0  0
 30 33  1  0  0  0  0
 32 27  1  0  0  0  0
 34 33  1  0  0  0  0
 34 32  1  0  0  0  0
M  END
>  <MODEL>
6

>  <REMARK>
 VINA RESULT:      -7.5      3.006      7.851
  Name = 
  6 active torsions:
  status: ('A' for Active; 'I' for Inactive)
    1  A    between atoms: C_8  and  C_27
    2  A    between atoms: C_9  and  C_13
    3  A    between atoms: C_9  and  C_14
    4  A    between atoms: C_13  and  C_29
    5  A    between atoms: C_17  and  C_30
    6  A    between atoms: C_20  and  C_23
                            x       y       z     vdW  Elec       q    Type
                         _______ _______ _______ _____ _____    ______ ____

>  <TORSDO>
F 6

$$$$
=
 OpenBabel11062422023D

 34 38  0  0  1  0  0  0  0  0999 V2000
  188.5630  176.9800  146.8580 C   0  0  0  0  0  3  0  0  0  0  0  0
  187.8540  178.0540  141.7400 O   0  0  0  0  0  0  0  0  0  0  0  0
  187.0810  178.3380  148.0150 F   0  0  0  0  0  0  0  0  0  0  0  0
  188.9930  176.2200  145.6370 C   0  0  1  0  0  3  0  0  0  0  0  0
  186.6850  177.9090  145.6790 N   0  0  0  0  0  0  0  0  0  0  0  0
  186.6320  177.9340  142.0220 C   0  0  0  0  0  0  0  0  0  0  0  0
  187.0460  177.4850  144.5050 C   0  0  0  0  0  0  0  0  0  0  0  0
  186.2040  177.7990  143.3840 N   0  0  0  0  0  2  0  0  0  0  0  0
  188.3480  176.7180  144.3230 C   0  0  2  0  0  3  0  0  0  0  0  0
  187.4560  177.7180  146.8700 C   0  0  0  0  0  0  0  0  0  0  0  0
  192.3230  175.2640  146.9400 C   0  0  1  0  0  3  0  0  0  0  0  0
  191.1290  176.2070  146.9240 C   0  0  1  0  0  3  0  0  0  0  0  0
  190.5120  176.2450  145.5350 C   0  0  1  0  0  3  0  0  0  0  0  0
  191.1100  174.9580  146.0740 C   0  0  1  0  0  3  0  0  0  0  0  0
  195.3810  174.8590  142.9160 C   0  0  0  0  0  2  0  0  0  0  0  0
  196.8440  176.7130  143.4850 C   0  0  0  0  0  3  0  0  0  0  0  0
  195.8110  176.5300  144.4850 N   0  0  0  0  0  0  0  0  0  0  0  0
  193.9560  176.9590  146.4810 O   0  0  0  0  0  0  0  0  0  0  0  0
  193.9270  175.1480  144.9920 N   0  0  0  0  0  2  0  0  0  0  0  0
  196.6180  175.6130  142.4480 C   0  0  0  0  0  3  0  0  0  0  0  0
  193.4530  175.8490  146.1480 C   0  0  0  0  0  0  0  0  0  0  0  0
  195.0340  175.5500  144.1780 C   0  0  0  0  0  0  0  0  0  0  0  0
  185.9350  177.5480  139.7560 N   0  0  0  0  0  2  0  0  0  0  0  0
  185.6420  177.9760  140.9410 C   0  0  0  0  0  3  0  0  0  0  0  0
  188.1650  175.5380  143.3620 C   0  0  0  0  0  2  0  0  0  0  0  0
  189.2890  175.4610  142.3270 C   0  0  0  0  0  2  0  0  0  0  0  0
  190.9250  172.0560  141.7270 C   0  0  0  0  0  2  0  0  0  0  0  0
  192.0310  176.0250  142.3440 O   0  0  0  0  0  1  0  0  0  0  0  0
  189.7790  172.9920  142.1110 C   0  0  2  0  0  3  0  0  0  0  0  0
  190.2910  174.3450  142.6410 C   0  0  1  0  0  3  0  0  0  0  0  0
  188.9160  172.3200  143.1650 C   0  0  0  0  0  1  0  0  0  0  0  0
  191.8290  172.6750  140.6470 C   0  0  0  0  0  2  0  0  0  0  0  0
  191.7420  174.6640  142.2140 C   0  0  1  0  0  3  0  0  0  0  0  0
  192.0140  174.1920  140.7880 C   0  0  0  0  0  2  0  0  0  0  0  0
  1 10  2  0  0  0  0
  2  6  2  0  0  0  0
  4  1  1  1  0  0  0
  5 10  1  0  0  0  0
  6  8  1  0  0  0  0
  7  5  2  0  0  0  0
  8  7  1  0  0  0  0
  9 25  1  6  0  0  0
  9  7  1  0  0  0  0
  9  4  1  0  0  0  0
 10  3  1  0  0  0  0
 12 11  1  0  0  0  0
 13  4  1  0  0  0  0
 13 14  1  0  0  0  0
 13 12  1  0  0  0  0
 14 12  1  0  0  0  0
 14 11  1  0  0  0  0
 15 22  1  0  0  0  0
 16 17  1  0  0  0  0
 19 21  1  0  0  0  0
 20 15  1  0  0  0  0
 20 16  2  0  0  0  0
 21 18  2  0  0  0  0
 21 11  1  0  0  0  0
 22 17  2  0  0  0  0
 22 19  1  0  0  0  0
 23 24  2  0  0  0  0
 24  6  1  0  0  0  0
 26 30  1  0  0  0  0
 26 25  1  0  0  0  0
 27 29  1  0  0  0  0
 29 30  1  0  0  0  0
 29 31  1  0  0  0  0
 32 34  1  0  0  0  0
 32 27  1  0  0  0  0
 33 28  1  0  0  0  0
 33 30  1  0  0  0  0
 34 33  1  0  0  0  0
M  END
>  <MODEL>
7

>  <REMARK>
 VINA RESULT:      -7.4      1.700      2.165
  Name = 
  6 active torsions:
  status: ('A' for Active; 'I' for Inactive)
    1  A    between atoms: C_8  and  C_27
    2  A    between atoms: C_9  and  C_13
    3  A    between atoms: C_9  and  C_14
    4  A    between atoms: C_13  and  C_29
    5  A    between atoms: C_17  and  C_30
    6  A    between atoms: C_20  and  C_23
                            x       y       z     vdW  Elec       q    Type
                         _______ _______ _______ _____ _____    ______ ____

>  <TORSDO>
F 6

$$$$
=
 OpenBabel11062422023D

 34 38  0  0  1  0  0  0  0  0999 V2000
  190.4350  172.5640  142.8350 C   0  0  0  0  0  3  0  0  0  0  0  0
  193.6450  174.9160  139.3700 O   0  0  0  0  0  0  0  0  0  0  0  0
  190.0670  170.4230  142.0250 F   0  0  0  0  0  0  0  0  0  0  0  0
  191.2590  173.8130  142.9660 C   0  0  1  0  0  3  0  0  0  0  0  0
  191.9790  171.6530  141.2340 N   0  0  0  0  0  0  0  0  0  0  0  0
  194.3060  173.8470  139.4590 C   0  0  0  0  0  0  0  0  0  0  0  0
  192.6720  172.7420  141.0870 C   0  0  0  0  0  0  0  0  0  0  0  0
  193.7820  172.7200  140.1750 N   0  0  0  0  0  2  0  0  0  0  0  0
  192.2840  174.0150  141.8260 C   0  0  2  0  0  3  0  0  0  0  0  0
  190.8170  171.5500  142.0630 C   0  0  0  0  0  0  0  0  0  0  0  0
  190.3160  177.0000  144.5950 C   0  0  1  0  0  3  0  0  0  0  0  0
  190.2620  175.4800  144.5290 C   0  0  1  0  0  3  0  0  0  0  0  0
  190.3370  175.0180  143.0820 C   0  0  1  0  0  3  0  0  0  0  0  0
  191.1060  176.2450  143.5360 C   0  0  1  0  0  3  0  0  0  0  0  0
  185.6060  178.6230  145.5330 C   0  0  0  0  0  2  0  0  0  0  0  0
  184.9600  178.9730  143.2170 C   0  0  0  0  0  3  0  0  0  0  0  0
  186.3170  178.4700  143.3180 N   0  0  0  0  0  0  0  0  0  0  0  0
  188.9740  177.9160  142.8310 O   0  0  0  0  0  0  0  0  0  0  0  0
  187.9450  177.7990  144.9340 N   0  0  0  0  0  2  0  0  0  0  0  0
  184.4430  179.0590  144.6530 C   0  0  0  0  0  3  0  0  0  0  0  0
  189.0500  177.5860  144.0490 C   0  0  0  0  0  0  0  0  0  0  0  0
  186.6570  178.2910  144.5470 C   0  0  0  0  0  0  0  0  0  0  0  0
  196.0850  174.7530  138.1240 N   0  0  0  0  0  2  0  0  0  0  0  0
  195.6040  173.7510  138.7850 C   0  0  0  0  0  3  0  0  0  0  0  0
  193.5220  174.7360  142.3720 C   0  0  0  0  0  2  0  0  0  0  0  0
  194.4210  173.8000  143.1810 C   0  0  0  0  0  2  0  0  0  0  0  0
  194.5680  176.6130  145.7700 C   0  0  0  0  0  2  0  0  0  0  0  0
  194.1760  172.4670  145.6300 O   0  0  0  0  0  1  0  0  0  0  0  0
  194.7740  175.9920  144.3880 C   0  0  2  0  0  3  0  0  0  0  0  0
  194.9440  174.4620  144.4610 C   0  0  1  0  0  3  0  0  0  0  0  0
  195.9970  176.6140  143.7360 C   0  0  0  0  0  1  0  0  0  0  0  0
  193.3310  176.0330  146.4770 C   0  0  0  0  0  2  0  0  0  0  0  0
  194.3860  173.8420  145.7630 C   0  0  1  0  0  3  0  0  0  0  0  0
  193.1000  174.5410  146.2000 C   0  0  0  0  0  2  0  0  0  0  0  0
  2  6  2  0  0  0  0
  3 10  1  0  0  0  0
  4  1  1  6  0  0  0
  4 13  1  0  0  0  0
  5 10  1  0  0  0  0
  6  8  1  0  0  0  0
  7  5  2  0  0  0  0
  7  9  1  0  0  0  0
  8  7  1  0  0  0  0
  9 25  1  1  0  0  0
  9  4  1  0  0  0  0
 10  1  2  0  0  0  0
 12 11  1  0  0  0  0
 13 14  1  0  0  0  0
 13 12  1  0  0  0  0
 14 12  1  0  0  0  0
 14 11  1  0  0  0  0
 16 17  1  0  0  0  0
 16 20  2  0  0  0  0
 17 22  2  0  0  0  0
 18 21  2  0  0  0  0
 20 15  1  0  0  0  0
 21 11  1  0  0  0  0
 21 19  1  0  0  0  0
 22 19  1  0  0  0  0
 22 15  1  0  0  0  0
 23 24  2  0  0  0  0
 24  6  1  0  0  0  0
 25 26  1  0  0  0  0
 26 30  1  0  0  0  0
 27 32  1  0  0  0  0
 28 33  1  0  0  0  0
 29 30  1  0  0  0  0
 29 27  1  0  0  0  0
 30 33  1  0  0  0  0
 31 29  1  0  0  0  0
 33 34  1  0  0  0  0
 34 32  1  0  0  0  0
M  END
>  <MODEL>
8

>  <REMARK>
 VINA RESULT:      -7.4      3.733      8.035
  Name = 
  6 active torsions:
  status: ('A' for Active; 'I' for Inactive)
    1  A    between atoms: C_8  and  C_27
    2  A    between atoms: C_9  and  C_13
    3  A    between atoms: C_9  and  C_14
    4  A    between atoms: C_13  and  C_29
    5  A    between atoms: C_17  and  C_30
    6  A    between atoms: C_20  and  C_23
                            x       y       z     vdW  Elec       q    Type
                         _______ _______ _______ _____ _____    ______ ____

>  <TORSDO>
F 6

$$$$
=
 OpenBabel11062422023D

 34 38  0  0  1  0  0  0  0  0999 V2000
  188.0130  176.1240  146.5890 C   0  0  0  0  0  3  0  0  0  0  0  0
  188.0090  177.9020  141.6210 O   0  0  0  0  0  0  0  0  0  0  0  0
  186.3410  177.2900  147.6950 F   0  0  0  0  0  0  0  0  0  0  0  0
  188.6360  175.5480  145.3510 C   0  0  1  0  0  3  0  0  0  0  0  0
  186.2950  177.1920  145.2900 N   0  0  0  0  0  0  0  0  0  0  0  0
  186.7630  177.7320  141.7020 C   0  0  0  0  0  0  0  0  0  0  0  0
  186.8320  176.9400  144.1330 C   0  0  0  0  0  0  0  0  0  0  0  0
  186.1500  177.4010  142.9560 N   0  0  0  0  0  2  0  0  0  0  0  0
  188.1700  176.2200  144.0380 C   0  0  2  0  0  3  0  0  0  0  0  0
  186.8940  176.8420  146.5420 C   0  0  0  0  0  0  0  0  0  0  0  0
  191.6800  176.3910  147.2790 C   0  0  1  0  0  3  0  0  0  0  0  0
  190.5640  176.7920  146.3250 C   0  0  1  0  0  3  0  0  0  0  0  0
  190.1520  175.6010  145.4750 C   0  0  1  0  0  3  0  0  0  0  0  0
  190.5830  175.4010  146.9170 C   0  0  1  0  0  3  0  0  0  0  0  0
  194.9290  172.9890  145.3890 C   0  0  0  0  0  2  0  0  0  0  0  0
  196.6230  174.5790  144.6800 C   0  0  0  0  0  3  0  0  0  0  0  0
  195.5010  175.2480  145.3080 N   0  0  0  0  0  0  0  0  0  0  0  0
  193.5940  177.1070  146.0240 O   0  0  0  0  0  0  0  0  0  0  0  0
  193.3870  174.7920  146.3280 N   0  0  0  0  0  2  0  0  0  0  0  0
  196.3020  173.0860  144.7400 C   0  0  0  0  0  3  0  0  0  0  0  0
  192.9460  176.1410  146.5180 C   0  0  0  0  0  0  0  0  0  0  0  0
  194.6020  174.4030  145.6780 C   0  0  0  0  0  0  0  0  0  0  0  0
  184.6760  178.1850  140.6040 N   0  0  0  0  0  2  0  0  0  0  0  0
  185.9370  177.9160  140.5050 C   0  0  0  0  0  3  0  0  0  0  0  0
  188.1610  175.1850  142.9070 C   0  0  0  0  0  2  0  0  0  0  0  0
  189.3970  175.3030  142.0130 C   0  0  0  0  0  2  0  0  0  0  0  0
  191.6170  172.6890  143.7090 C   0  0  0  0  0  2  0  0  0  0  0  0
  188.2550  172.8620  141.2540 O   0  0  0  0  0  1  0  0  0  0  0  0
  191.2790  174.0820  143.1750 C   0  0  2  0  0  3  0  0  0  0  0  0
  190.2480  174.0290  142.0320 C   0  0  1  0  0  3  0  0  0  0  0  0
  192.5510  174.7550  142.6900 C   0  0  0  0  0  1  0  0  0  0  0  0
  190.3680  171.9610  144.2320 C   0  0  0  0  0  2  0  0  0  0  0  0
  189.4240  172.7210  142.0070 C   0  0  1  0  0  3  0  0  0  0  0  0
  189.0960  172.2480  143.4210 C   0  0  0  0  0  2  0  0  0  0  0  0
  2  6  2  0  0  0  0
  4 13  1  0  0  0  0
  4  1  1  1  0  0  0
  5 10  1  0  0  0  0
  6  8  1  0  0  0  0
  7  5  2  0  0  0  0
  8  7  1  0  0  0  0
  9 25  1  6  0  0  0
  9  7  1  0  0  0  0
  9  4  1  0  0  0  0
 10  1  2  0  0  0  0
 10  3  1  0  0  0  0
 12 14  1  0  0  0  0
 12 11  1  0  0  0  0
 13 12  1  0  0  0  0
 13 14  1  0  0  0  0
 14 11  1  0  0  0  0
 15 22  1  0  0  0  0
 16 20  2  0  0  0  0
 16 17  1  0  0  0  0
 17 22  2  0  0  0  0
 18 21  2  0  0  0  0
 19 21  1  0  0  0  0
 20 15  1  0  0  0  0
 21 11  1  0  0  0  0
 22 19  1  0  0  0  0
 24 23  2  0  0  0  0
 24  6  1  0  0  0  0
 26 30  1  0  0  0  0
 26 25  1  0  0  0  0
 27 32  1  0  0  0  0
 28 33  1  0  0  0  0
 29 27  1  0  0  0  0
 30 29  1  0  0  0  0
 31 29  1  0  0  0  0
 33 30  1  0  0  0  0
 33 34  1  0  0  0  0
 34 32  1  0  0  0  0
M  END
>  <MODEL>
9

>  <REMARK>
 VINA RESULT:      -7.4      1.977      2.642
  Name = 
  6 active torsions:
  status: ('A' for Active; 'I' for Inactive)
    1  A    between atoms: C_8  and  C_27
    2  A    between atoms: C_9  and  C_13
    3  A    between atoms: C_9  and  C_14
    4  A    between atoms: C_13  and  C_29
    5  A    between atoms: C_17  and  C_30
    6  A    between atoms: C_20  and  C_23
                            x       y       z     vdW  Elec       q    Type
                         _______ _______ _______ _____ _____    ______ ____

>  <TORSDO>
F 6

$$$$
