=
 OpenBabel11062421533D

 37 39  0  0  1  0  0  0  0  0999 V2000
  189.4600  175.2430  146.2730 C   0  0  0  0  0  2  0  0  0  0  0  0
  191.6490  174.9980  144.3630 C   0  0  0  0  0  2  0  0  0  0  0  0
  189.8920  176.4670  145.4490 C   0  0  1  0  0  3  0  0  0  0  0  0
  190.7280  173.8620  144.7560 C   0  0  0  0  0  3  0  0  0  0  0  0
  191.4010  176.3270  145.1170 C   0  0  2  0  0  0  0  0  0  0  0  0
  189.7240  174.0140  145.5600 N   0  0  0  0  0  0  0  0  0  0  0  0
  192.1060  177.0010  142.9010 O   0  0  0  0  0  1  0  0  0  0  0  0
  191.8200  177.4720  144.1870 C   0  0  0  0  0  2  0  0  0  0  0  0
  192.2260  176.3650  146.4250 C   0  0  0  0  0  2  0  0  0  0  0  0
  193.3460  175.3210  146.5450 C   0  0  0  0  0  2  0  0  0  0  0  0
  194.7040  175.9000  146.2090 C   0  0  0  0  0  2  0  0  0  0  0  0
  195.6060  174.7880  145.6980 C   0  0  0  0  0  2  0  0  0  0  0  0
  194.7590  173.1380  143.9980 C   0  0  0  0  0  0  0  0  0  0  0  0
  195.2740  174.4370  144.3300 N   0  0  0  0  0  0  0  0  0  0  0  0
  194.9420  174.9280  141.9060 C   0  0  1  0  0  3  0  0  0  0  0  0
  194.5090  172.8280  142.5650 C   0  0  0  0  0  2  0  0  0  0  0  0
  194.4640  172.3020  144.8990 O   0  0  0  0  0  0  0  0  0  0  0  0
  195.3840  173.6010  141.7780 O   0  0  0  0  0  0  0  0  0  0  0  0
  195.2780  175.4910  143.3060 C   0  0  0  0  0  2  0  0  0  0  0  0
  195.5270  175.7830  140.7810 C   0  0  1  0  0  3  0  0  0  0  0  0
  196.2010  176.8900  141.3040 O   0  0  0  0  0  1  0  0  0  0  0  0
  196.4300  174.9790  139.8560 C   0  0  0  0  0  2  0  0  0  0  0  0
  196.2890  175.4340  138.5460 O   0  0  0  0  0  1  0  0  0  0  0  0
  189.1440  176.6180  144.2570 O   0  0  0  0  0  0  0  0  0  0  0  0
  188.2650  177.6320  144.4790 N   0  0  0  0  0  2  0  0  0  0  0  0
  186.3360  177.7110  141.2940 C   0  0  0  0  0  0  0  0  0  0  0  0
  185.1130  178.9800  142.9410 C   0  0  0  0  0  3  0  0  0  0  0  0
  186.0800  178.6830  143.9190 C   0  0  0  0  0  0  0  0  0  0  0  0
  187.2160  177.9290  143.5430 C   0  0  0  0  0  0  0  0  0  0  0  0
  187.3250  177.4340  142.2400 C   0  0  0  0  0  3  0  0  0  0  0  0
  186.4780  177.0570  139.6770 Cl  0  0  0  0  0  0  0  0  0  0  0  0
  185.2370  178.4900  141.6390 C   0  0  0  0  0  3  0  0  0  0  0  0
  185.9630  179.1220  145.2490 O   0  0  0  0  0  0  0  0  0  0  0  0
  185.0680  178.6680  146.2420 C   0  0  0  0  0  0  0  0  0  0  0  0
  183.8370  178.6660  145.9820 O   0  0  0  0  0  0  0  0  0  0  0  0
  185.5130  178.1690  147.5770 C   0  0  0  0  0  2  0  0  0  0  0  0
  186.2220  176.8390  147.4050 C   0  0  0  0  0  1  0  0  0  0  0  0
  2  4  1  0  0  0  0
  2  5  1  0  0  0  0
  3 24  1  6  0  0  0
  3  1  1  0  0  0  0
  4  6  2  0  0  0  0
  5  8  1  6  0  0  0
  5  3  1  0  0  0  0
  5  9  1  0  0  0  0
  6  1  1  0  0  0  0
  7  8  1  0  0  0  0
  9 10  1  0  0  0  0
 11 10  1  0  0  0  0
 12 11  1  0  0  0  0
 13 14  1  0  0  0  0
 13 17  2  0  0  0  0
 14 12  1  0  0  0  0
 15 20  1  6  0  0  0
 15 19  1  0  0  0  0
 16 13  1  0  0  0  0
 18 15  1  0  0  0  0
 18 16  1  0  0  0  0
 19 14  1  0  0  0  0
 20 21  1  1  0  0  0
 22 20  1  0  0  0  0
 23 22  1  0  0  0  0
 24 25  1  0  0  0  0
 26 32  2  0  0  0  0
 26 30  1  0  0  0  0
 27 28  2  0  0  0  0
 28 33  1  0  0  0  0
 29 28  1  0  0  0  0
 29 25  1  0  0  0  0
 30 29  2  0  0  0  0
 31 26  1  0  0  0  0
 32 27  1  0  0  0  0
 33 34  1  0  0  0  0
 34 36  1  0  0  0  0
 35 34  2  0  0  0  0
 37 36  1  0  0  0  0
M  END
>  <MODEL>
1

>  <REMARK>
 VINA RESULT:      -6.4      0.000      0.000
  Name = 
  14 active torsions:
  status: ('A' for Active; 'I' for Inactive)
    1  A    between atoms: N_3  and  C_25
    2  A    between atoms: N_3  and  O_31
    3  A    between atoms: C_4  and  C_15
    4  A    between atoms: C_4  and  C_23
    5  A    between atoms: N_5  and  C_10
    6  A    between atoms: C_6  and  O_17
    7  A    between atoms: C_6  and  C_19
    8  A    between atoms: C_7  and  C_29
    9  A    between atoms: C_10  and  C_11
   10  A    between atoms: C_11  and  C_15
   11  A    between atoms: C_12  and  C_29
   12  A    between atoms: C_14  and  O_31
   13  A    between atoms: O_17  and  C_21
   14  A    between atoms: C_23  and  C_27
                            x       y       z     vdW  Elec       q    Type
                         _______ _______ _______ _____ _____    ______ ____

>  <TORSDO>
F 14

$$$$
=
 OpenBabel11062421533D

 37 39  0  0  1  0  0  0  0  0999 V2000
  191.8360  176.1760  143.7800 C   0  0  0  0  0  2  0  0  0  0  0  0
  191.7890  175.1250  146.4990 C   0  0  0  0  0  2  0  0  0  0  0  0
  190.4890  175.9380  144.4800 C   0  0  1  0  0  3  0  0  0  0  0  0
  192.9110  175.9690  145.9290 C   0  0  0  0  0  3  0  0  0  0  0  0
  190.6630  174.7780  145.4960 C   0  0  2  0  0  0  0  0  0  0  0  0
  192.8770  176.4750  144.7380 N   0  0  0  0  0  0  0  0  0  0  0  0
  189.5780  174.8410  147.6580 O   0  0  0  0  0  1  0  0  0  0  0  0
  189.3650  174.6100  146.2950 C   0  0  0  0  0  2  0  0  0  0  0  0
  191.0020  173.4710  144.7390 C   0  0  0  0  0  2  0  0  0  0  0  0
  189.8920  172.4110  144.6950 C   0  0  0  0  0  2  0  0  0  0  0  0
  189.4670  172.0870  143.2780 C   0  0  0  0  0  2  0  0  0  0  0  0
  190.6540  172.2730  142.3480 C   0  0  0  0  0  2  0  0  0  0  0  0
  190.8160  170.5040  140.5660 C   0  0  0  0  0  0  0  0  0  0  0  0
  190.3500  171.7870  141.0140 N   0  0  0  0  0  0  0  0  0  0  0  0
  189.2190  171.8910  138.7930 C   0  0  1  0  0  3  0  0  0  0  0  0
  190.5250  170.1050  139.1620 C   0  0  0  0  0  2  0  0  0  0  0  0
  191.4000  169.7080  141.3540 O   0  0  0  0  0  0  0  0  0  0  0  0
  190.4080  171.2690  138.3780 O   0  0  0  0  0  0  0  0  0  0  0  0
  189.3870  172.5300  140.1910 C   0  0  0  0  0  2  0  0  0  0  0  0
  188.7690  172.9060  137.7410 C   0  0  1  0  0  3  0  0  0  0  0  0
  188.4380  174.1240  138.3430 O   0  0  0  0  0  1  0  0  0  0  0  0
  189.8090  173.1020  136.6460 C   0  0  0  0  0  2  0  0  0  0  0  0
  190.2980  174.4070  136.6880 O   0  0  0  0  0  1  0  0  0  0  0  0
  190.0000  177.0910  145.1390 O   0  0  0  0  0  0  0  0  0  0  0  0
  189.1450  177.6970  144.2720 N   0  0  0  0  0  2  0  0  0  0  0  0
  186.0360  177.9930  146.3010 C   0  0  0  0  0  0  0  0  0  0  0  0
  185.4390  178.2420  143.9760 C   0  0  0  0  0  3  0  0  0  0  0  0
  186.7880  178.1220  143.5960 C   0  0  0  0  0  0  0  0  0  0  0  0
  187.7570  177.8790  144.5960 C   0  0  0  0  0  0  0  0  0  0  0  0
  187.3760  177.8370  145.9410 C   0  0  0  0  0  3  0  0  0  0  0  0
  185.5850  177.9650  147.9910 Cl  0  0  0  0  0  0  0  0  0  0  0  0
  185.0670  178.1860  145.3210 C   0  0  0  0  0  3  0  0  0  0  0  0
  187.2020  178.2180  142.2550 O   0  0  0  0  0  0  0  0  0  0  0  0
  187.1960  177.2110  141.2660 C   0  0  0  0  0  0  0  0  0  0  0  0
  186.4130  177.3360  140.2900 O   0  0  0  0  0  0  0  0  0  0  0  0
  188.0910  176.0180  141.3100 C   0  0  0  0  0  2  0  0  0  0  0  0
  187.5000  174.9800  142.2470 C   0  0  0  0  0  1  0  0  0  0  0  0
  1  3  1  0  0  0  0
  1  6  1  0  0  0  0
  3 24  1  1  0  0  0
  3  5  1  0  0  0  0
  4  2  1  0  0  0  0
  5  9  1  6  0  0  0
  5  8  1  0  0  0  0
  5  2  1  0  0  0  0
  6  4  2  0  0  0  0
  8  7  1  0  0  0  0
 10  9  1  0  0  0  0
 11 10  1  0  0  0  0
 12 11  1  0  0  0  0
 13 14  1  0  0  0  0
 13 17  2  0  0  0  0
 14 12  1  0  0  0  0
 15 20  1  6  0  0  0
 15 19  1  0  0  0  0
 16 13  1  0  0  0  0
 18 15  1  0  0  0  0
 18 16  1  0  0  0  0
 19 14  1  0  0  0  0
 20 21  1  1  0  0  0
 22 23  1  0  0  0  0
 22 20  1  0  0  0  0
 25 29  1  0  0  0  0
 25 24  1  0  0  0  0
 26 31  1  0  0  0  0
 27 32  1  0  0  0  0
 28 27  2  0  0  0  0
 28 29  1  0  0  0  0
 29 30  2  0  0  0  0
 30 26  1  0  0  0  0
 32 26  2  0  0  0  0
 33 28  1  0  0  0  0
 34 36  1  0  0  0  0
 34 33  1  0  0  0  0
 35 34  2  0  0  0  0
 36 37  1  0  0  0  0
M  END
>  <MODEL>
2

>  <REMARK>
 VINA RESULT:      -6.4      3.949      5.330
  Name = 
  14 active torsions:
  status: ('A' for Active; 'I' for Inactive)
    1  A    between atoms: N_3  and  C_25
    2  A    between atoms: N_3  and  O_31
    3  A    between atoms: C_4  and  C_15
    4  A    between atoms: C_4  and  C_23
    5  A    between atoms: N_5  and  C_10
    6  A    between atoms: C_6  and  O_17
    7  A    between atoms: C_6  and  C_19
    8  A    between atoms: C_7  and  C_29
    9  A    between atoms: C_10  and  C_11
   10  A    between atoms: C_11  and  C_15
   11  A    between atoms: C_12  and  C_29
   12  A    between atoms: C_14  and  O_31
   13  A    between atoms: O_17  and  C_21
   14  A    between atoms: C_23  and  C_27
                            x       y       z     vdW  Elec       q    Type
                         _______ _______ _______ _____ _____    ______ ____

>  <TORSDO>
F 14

$$$$
=
 OpenBabel11062421533D

 37 39  0  0  1  0  0  0  0  0999 V2000
  190.3180  175.9710  143.5380 C   0  0  0  0  0  2  0  0  0  0  0  0
  190.0940  174.5590  146.0790 C   0  0  0  0  0  2  0  0  0  0  0  0
  191.2390  176.3560  144.7060 C   0  0  1  0  0  3  0  0  0  0  0  0
  189.7650  173.9500  144.7310 C   0  0  0  0  0  3  0  0  0  0  0  0
  190.4990  176.0530  146.0350 C   0  0  2  0  0  0  0  0  0  0  0  0
  189.9330  174.5800  143.6130 N   0  0  0  0  0  0  0  0  0  0  0  0
  191.6490  175.1460  147.9620 O   0  0  0  0  0  1  0  0  0  0  0  0
  191.4490  176.3090  147.2110 C   0  0  0  0  0  2  0  0  0  0  0  0
  189.2450  176.9530  146.1490 C   0  0  0  0  0  2  0  0  0  0  0  0
  188.0570  176.3570  146.9180 C   0  0  0  0  0  2  0  0  0  0  0  0
  186.8840  177.3130  146.9860 C   0  0  0  0  0  2  0  0  0  0  0  0
  185.7290  176.7430  146.1790 C   0  0  0  0  0  2  0  0  0  0  0  0
  184.4460  178.4580  144.8580 C   0  0  0  0  0  0  0  0  0  0  0  0
  185.5180  177.5070  144.9630 N   0  0  0  0  0  0  0  0  0  0  0  0
  186.1240  178.2910  142.6730 C   0  0  1  0  0  3  0  0  0  0  0  0
  184.2490  179.1510  143.5570 C   0  0  0  0  0  2  0  0  0  0  0  0
  183.7280  178.7470  145.8570 O   0  0  0  0  0  0  0  0  0  0  0  0
  184.7270  178.3180  142.5270 O   0  0  0  0  0  0  0  0  0  0  0  0
  186.5350  177.4510  143.9040 C   0  0  0  0  0  2  0  0  0  0  0  0
  186.7730  177.7870  141.3840 C   0  0  1  0  0  3  0  0  0  0  0  0
  187.2680  176.4920  141.5560 O   0  0  0  0  0  1  0  0  0  0  0  0
  185.8250  177.8560  140.1940 C   0  0  0  0  0  2  0  0  0  0  0  0
  186.3340  177.1000  139.1400 O   0  0  0  0  0  1  0  0  0  0  0  0
  192.4800  175.6760  144.6750 O   0  0  0  0  0  0  0  0  0  0  0  0
  193.3160  176.4350  143.9170 N   0  0  0  0  0  2  0  0  0  0  0  0
  194.6410  175.2400  140.6470 C   0  0  0  0  0  0  0  0  0  0  0  0
  196.2490  174.6780  142.3560 C   0  0  0  0  0  3  0  0  0  0  0  0
  195.4500  175.2930  143.3380 C   0  0  0  0  0  0  0  0  0  0  0  0
  194.2020  175.8370  142.9560 C   0  0  0  0  0  0  0  0  0  0  0  0
  193.8170  175.8240  141.6120 C   0  0  0  0  0  3  0  0  0  0  0  0
  194.1520  175.2610  138.9670 Cl  0  0  0  0  0  0  0  0  0  0  0  0
  195.8490  174.6600  141.0170 C   0  0  0  0  0  3  0  0  0  0  0  0
  195.8440  175.3680  144.6860 O   0  0  0  0  0  0  0  0  0  0  0  0
  195.7460  174.3710  145.6800 C   0  0  0  0  0  0  0  0  0  0  0  0
  194.6050  174.0690  146.1140 O   0  0  0  0  0  0  0  0  0  0  0  0
  196.9290  173.6420  146.2250 C   0  0  0  0  0  2  0  0  0  0  0  0
  197.1720  172.3910  145.4010 C   0  0  0  0  0  1  0  0  0  0  0  0
  1  6  1  0  0  0  0
  1  3  1  0  0  0  0
  3 24  1  1  0  0  0
  3  5  1  0  0  0  0
  4  2  1  0  0  0  0
  5  2  1  0  0  0  0
  5  9  1  1  0  0  0
  5  8  1  0  0  0  0
  6  4  2  0  0  0  0
  8  7  1  0  0  0  0
  9 10  1  0  0  0  0
 10 11  1  0  0  0  0
 12 11  1  0  0  0  0
 13 14  1  0  0  0  0
 13 17  2  0  0  0  0
 14 12  1  0  0  0  0
 15 20  1  6  0  0  0
 15 19  1  0  0  0  0
 16 13  1  0  0  0  0
 18 15  1  0  0  0  0
 18 16  1  0  0  0  0
 19 14  1  0  0  0  0
 20 21  1  1  0  0  0
 22 20  1  0  0  0  0
 23 22  1  0  0  0  0
 25 24  1  0  0  0  0
 26 32  2  0  0  0  0
 26 30  1  0  0  0  0
 27 28  2  0  0  0  0
 28 33  1  0  0  0  0
 29 28  1  0  0  0  0
 29 25  1  0  0  0  0
 30 29  2  0  0  0  0
 31 26  1  0  0  0  0
 32 27  1  0  0  0  0
 33 34  1  0  0  0  0
 34 35  2  0  0  0  0
 34 36  1  0  0  0  0
 37 36  1  0  0  0  0
M  END
>  <MODEL>
3

>  <REMARK>
 VINA RESULT:      -6.3      2.455      8.741
  Name = 
  14 active torsions:
  status: ('A' for Active; 'I' for Inactive)
    1  A    between atoms: N_3  and  C_25
    2  A    between atoms: N_3  and  O_31
    3  A    between atoms: C_4  and  C_15
    4  A    between atoms: C_4  and  C_23
    5  A    between atoms: N_5  and  C_10
    6  A    between atoms: C_6  and  O_17
    7  A    between atoms: C_6  and  C_19
    8  A    between atoms: C_7  and  C_29
    9  A    between atoms: C_10  and  C_11
   10  A    between atoms: C_11  and  C_15
   11  A    between atoms: C_12  and  C_29
   12  A    between atoms: C_14  and  O_31
   13  A    between atoms: O_17  and  C_21
   14  A    between atoms: C_23  and  C_27
                            x       y       z     vdW  Elec       q    Type
                         _______ _______ _______ _____ _____    ______ ____

>  <TORSDO>
F 14

$$$$
=
 OpenBabel11062421533D

 37 39  0  0  1  0  0  0  0  0999 V2000
  190.6280  176.0260  143.7710 C   0  0  0  0  0  2  0  0  0  0  0  0
  189.4950  173.3470  143.5790 C   0  0  0  0  0  2  0  0  0  0  0  0
  189.5530  175.7290  142.7140 C   0  0  1  0  0  3  0  0  0  0  0  0
  190.0340  173.9570  144.8570 C   0  0  0  0  0  3  0  0  0  0  0  0
  189.6550  174.2320  142.3190 C   0  0  2  0  0  0  0  0  0  0  0  0
  190.4750  175.1720  144.9270 N   0  0  0  0  0  0  0  0  0  0  0  0
  188.4970  174.7420  140.2550 O   0  0  0  0  0  1  0  0  0  0  0  0
  188.5080  173.8850  141.3610 C   0  0  0  0  0  2  0  0  0  0  0  0
  191.0210  173.9640  141.6440 C   0  0  0  0  0  2  0  0  0  0  0  0
  191.6760  172.6130  141.9650 C   0  0  0  0  0  2  0  0  0  0  0  0
  192.9770  172.7750  142.7230 C   0  0  0  0  0  2  0  0  0  0  0  0
  194.0270  173.3600  141.7920 C   0  0  0  0  0  2  0  0  0  0  0  0
  195.5920  175.3240  141.6400 C   0  0  0  0  0  0  0  0  0  0  0  0
  194.6400  174.5390  142.3750 N   0  0  0  0  0  0  0  0  0  0  0  0
  194.9250  176.2770  144.1420 C   0  0  1  0  0  3  0  0  0  0  0  0
  196.2310  176.4770  142.3290 C   0  0  0  0  0  2  0  0  0  0  0  0
  195.8360  175.0850  140.4230 O   0  0  0  0  0  0  0  0  0  0  0  0
  196.2600  176.2140  143.7120 O   0  0  0  0  0  0  0  0  0  0  0  0
  194.1280  175.0450  143.6560 C   0  0  0  0  0  2  0  0  0  0  0  0
  194.8740  176.4380  145.6620 C   0  0  1  0  0  3  0  0  0  0  0  0
  194.7370  177.7840  146.0100 O   0  0  0  0  0  1  0  0  0  0  0  0
  193.7740  175.5950  146.2950 C   0  0  0  0  0  2  0  0  0  0  0  0
  192.8930  176.4180  146.9940 O   0  0  0  0  0  1  0  0  0  0  0  0
  188.2450  176.0260  143.1630 O   0  0  0  0  0  0  0  0  0  0  0  0
  188.2210  177.3600  143.4250 N   0  0  0  0  0  2  0  0  0  0  0  0
  186.1170  178.3320  146.3410 C   0  0  0  0  0  0  0  0  0  0  0  0
  185.0940  179.2280  144.3490 C   0  0  0  0  0  3  0  0  0  0  0  0
  186.1380  178.7160  143.5570 C   0  0  0  0  0  0  0  0  0  0  0  0
  187.1530  177.9540  144.1810 C   0  0  0  0  0  0  0  0  0  0  0  0
  187.1450  177.7850  145.5690 C   0  0  0  0  0  3  0  0  0  0  0  0
  186.1420  178.1330  148.0790 Cl  0  0  0  0  0  0  0  0  0  0  0  0
  185.0890  179.0440  145.7330 C   0  0  0  0  0  3  0  0  0  0  0  0
  186.1960  178.9220  142.1670 O   0  0  0  0  0  0  0  0  0  0  0  0
  185.5630  178.1790  141.1470 C   0  0  0  0  0  0  0  0  0  0  0  0
  186.1170  177.1230  140.7450 O   0  0  0  0  0  0  0  0  0  0  0  0
  184.2580  178.5720  140.5400 C   0  0  0  0  0  2  0  0  0  0  0  0
  183.1270  178.1470  141.4590 C   0  0  0  0  0  1  0  0  0  0  0  0
  1  6  1  0  0  0  0
  2  4  1  0  0  0  0
  3 24  1  1  0  0  0
  3  1  1  0  0  0  0
  4  6  2  0  0  0  0
  5  8  1  6  0  0  0
  5  3  1  0  0  0  0
  5  2  1  0  0  0  0
  7  8  1  0  0  0  0
  9 10  1  0  0  0  0
  9  5  1  0  0  0  0
 10 11  1  0  0  0  0
 12 14  1  0  0  0  0
 12 11  1  0  0  0  0
 13 16  1  0  0  0  0
 13 14  1  0  0  0  0
 14 19  1  0  0  0  0
 15 20  1  1  0  0  0
 16 18  1  0  0  0  0
 17 13  2  0  0  0  0
 18 15  1  0  0  0  0
 19 15  1  0  0  0  0
 20 21  1  6  0  0  0
 20 22  1  0  0  0  0
 22 23  1  0  0  0  0
 24 25  1  0  0  0  0
 25 29  1  0  0  0  0
 26 31  1  0  0  0  0
 27 32  2  0  0  0  0
 28 29  2  0  0  0  0
 28 27  1  0  0  0  0
 29 30  1  0  0  0  0
 30 26  2  0  0  0  0
 32 26  1  0  0  0  0
 33 28  1  0  0  0  0
 34 33  1  0  0  0  0
 35 34  2  0  0  0  0
 36 34  1  0  0  0  0
 36 37  1  0  0  0  0
M  END
>  <MODEL>
4

>  <REMARK>
 VINA RESULT:      -6.3      2.637      4.562
  Name = 
  14 active torsions:
  status: ('A' for Active; 'I' for Inactive)
    1  A    between atoms: N_3  and  C_25
    2  A    between atoms: N_3  and  O_31
    3  A    between atoms: C_4  and  C_15
    4  A    between atoms: C_4  and  C_23
    5  A    between atoms: N_5  and  C_10
    6  A    between atoms: C_6  and  O_17
    7  A    between atoms: C_6  and  C_19
    8  A    between atoms: C_7  and  C_29
    9  A    between atoms: C_10  and  C_11
   10  A    between atoms: C_11  and  C_15
   11  A    between atoms: C_12  and  C_29
   12  A    between atoms: C_14  and  O_31
   13  A    between atoms: O_17  and  C_21
   14  A    between atoms: C_23  and  C_27
                            x       y       z     vdW  Elec       q    Type
                         _______ _______ _______ _____ _____    ______ ____

>  <TORSDO>
F 14

$$$$
=
 OpenBabel11062421533D

 37 39  0  0  1  0  0  0  0  0999 V2000
  190.8600  176.4620  142.7960 C   0  0  0  0  0  2  0  0  0  0  0  0
  191.5600  175.9420  145.5780 C   0  0  0  0  0  2  0  0  0  0  0  0
  189.7490  176.1910  143.8230 C   0  0  1  0  0  3  0  0  0  0  0  0
  192.3830  176.7970  144.6360 C   0  0  0  0  0  3  0  0  0  0  0  0
  190.3210  175.2730  144.9350 C   0  0  2  0  0  0  0  0  0  0  0  0
  192.0160  177.0620  143.4230 N   0  0  0  0  0  0  0  0  0  0  0  0
  189.7170  175.6150  147.2530 O   0  0  0  0  0  1  0  0  0  0  0  0
  189.2670  175.0970  146.0340 C   0  0  0  0  0  2  0  0  0  0  0  0
  190.7030  173.9010  144.3300 C   0  0  0  0  0  2  0  0  0  0  0  0
  189.7360  172.7440  144.6220 C   0  0  0  0  0  2  0  0  0  0  0  0
  189.4190  171.9380  143.3800 C   0  0  0  0  0  2  0  0  0  0  0  0
  188.6630  172.8160  142.3960 C   0  0  0  0  0  2  0  0  0  0  0  0
  189.0360  173.8080  140.1140 C   0  0  0  0  0  0  0  0  0  0  0  0
  189.2800  172.7760  141.0830 N   0  0  0  0  0  0  0  0  0  0  0  0
  190.8340  171.8540  139.3620 C   0  0  1  0  0  3  0  0  0  0  0  0
  189.6470  173.6620  138.7660 C   0  0  0  0  0  2  0  0  0  0  0  0
  188.3750  174.8430  140.4130 O   0  0  0  0  0  0  0  0  0  0  0  0
  189.8190  172.2910  138.4960 O   0  0  0  0  0  0  0  0  0  0  0  0
  190.3220  171.7750  140.8190 C   0  0  0  0  0  2  0  0  0  0  0  0
  191.3990  170.5200  138.8730 C   0  0  1  0  0  3  0  0  0  0  0  0
  192.7650  170.4310  139.1540 O   0  0  0  0  0  1  0  0  0  0  0  0
  190.6440  169.3280  139.4460 C   0  0  0  0  0  2  0  0  0  0  0  0
  190.3720  168.4110  138.4330 O   0  0  0  0  0  1  0  0  0  0  0  0
  189.2270  177.3770  144.3910 O   0  0  0  0  0  0  0  0  0  0  0  0
  188.0780  177.6540  143.7200 N   0  0  0  0  0  2  0  0  0  0  0  0
  185.6830  178.2860  146.5020 C   0  0  0  0  0  0  0  0  0  0  0  0
  184.6810  179.0820  144.4570 C   0  0  0  0  0  3  0  0  0  0  0  0
  185.8320  178.7250  143.7300 C   0  0  0  0  0  0  0  0  0  0  0  0
  186.8950  178.0890  144.4100 C   0  0  0  0  0  0  0  0  0  0  0  0
  186.8200  177.8930  145.7930 C   0  0  0  0  0  3  0  0  0  0  0  0
  185.6230  178.0570  148.2360 Cl  0  0  0  0  0  0  0  0  0  0  0  0
  184.6110  178.8710  145.8360 C   0  0  0  0  0  3  0  0  0  0  0  0
  185.9510  178.9650  142.3490 O   0  0  0  0  0  0  0  0  0  0  0  0
  185.4770  178.1730  141.2820 C   0  0  0  0  0  0  0  0  0  0  0  0
  186.0560  177.0820  141.0440 O   0  0  0  0  0  0  0  0  0  0  0  0
  184.3080  178.5560  140.4360 C   0  0  0  0  0  2  0  0  0  0  0  0
  183.0260  178.1350  141.1300 C   0  0  0  0  0  1  0  0  0  0  0  0
  1  6  1  0  0  0  0
  1  3  1  0  0  0  0
  3 24  1  1  0  0  0
  3  5  1  0  0  0  0
  4  2  1  0  0  0  0
  5  9  1  6  0  0  0
  5  2  1  0  0  0  0
  5  8  1  0  0  0  0
  6  4  2  0  0  0  0
  8  7  1  0  0  0  0
  9 10  1  0  0  0  0
 11 10  1  0  0  0  0
 12 11  1  0  0  0  0
 13 17  2  0  0  0  0
 13 14  1  0  0  0  0
 14 12  1  0  0  0  0
 15 20  1  6  0  0  0
 15 19  1  0  0  0  0
 16 13  1  0  0  0  0
 18 16  1  0  0  0  0
 18 15  1  0  0  0  0
 19 14  1  0  0  0  0
 20 21  1  1  0  0  0
 20 22  1  0  0  0  0
 23 22  1  0  0  0  0
 25 24  1  0  0  0  0
 25 29  1  0  0  0  0
 26 31  1  0  0  0  0
 27 32  2  0  0  0  0
 28 29  2  0  0  0  0
 28 27  1  0  0  0  0
 29 30  1  0  0  0  0
 30 26  2  0  0  0  0
 32 26  1  0  0  0  0
 33 28  1  0  0  0  0
 34 33  1  0  0  0  0
 35 34  2  0  0  0  0
 36 37  1  0  0  0  0
 36 34  1  0  0  0  0
M  END
>  <MODEL>
5

>  <REMARK>
 VINA RESULT:      -6.3      3.715      5.530
  Name = 
  14 active torsions:
  status: ('A' for Active; 'I' for Inactive)
    1  A    between atoms: N_3  and  C_25
    2  A    between atoms: N_3  and  O_31
    3  A    between atoms: C_4  and  C_15
    4  A    between atoms: C_4  and  C_23
    5  A    between atoms: N_5  and  C_10
    6  A    between atoms: C_6  and  O_17
    7  A    between atoms: C_6  and  C_19
    8  A    between atoms: C_7  and  C_29
    9  A    between atoms: C_10  and  C_11
   10  A    between atoms: C_11  and  C_15
   11  A    between atoms: C_12  and  C_29
   12  A    between atoms: C_14  and  O_31
   13  A    between atoms: O_17  and  C_21
   14  A    between atoms: C_23  and  C_27
                            x       y       z     vdW  Elec       q    Type
                         _______ _______ _______ _____ _____    ______ ____

>  <TORSDO>
F 14

$$$$
=
 OpenBabel11062421533D

 37 39  0  0  1  0  0  0  0  0999 V2000
  189.6380  175.2750  143.3900 C   0  0  0  0  0  2  0  0  0  0  0  0
  190.8280  177.5020  144.8480 C   0  0  0  0  0  2  0  0  0  0  0  0
  188.8380  175.9690  144.5040 C   0  0  1  0  0  3  0  0  0  0  0  0
  191.1610  177.1440  143.4130 C   0  0  0  0  0  3  0  0  0  0  0  0
  189.8390  176.5370  145.5450 C   0  0  2  0  0  0  0  0  0  0  0  0
  190.5710  176.1880  142.7700 N   0  0  0  0  0  0  0  0  0  0  0  0
  188.0830  176.5630  147.2110 O   0  0  0  0  0  1  0  0  0  0  0  0
  189.0680  177.3440  146.5970 C   0  0  0  0  0  2  0  0  0  0  0  0
  190.6070  175.3730  146.2160 C   0  0  0  0  0  2  0  0  0  0  0  0
  191.8830  175.7590  146.9770 C   0  0  0  0  0  2  0  0  0  0  0  0
  193.0860  174.9630  146.5170 C   0  0  0  0  0  2  0  0  0  0  0  0
  192.7000  174.1350  145.3020 C   0  0  0  0  0  2  0  0  0  0  0  0
  194.6000  172.6380  144.6110 C   0  0  0  0  0  0  0  0  0  0  0  0
  193.8590  173.8600  144.4720 N   0  0  0  0  0  0  0  0  0  0  0  0
  195.4400  174.3310  142.6000 C   0  0  1  0  0  3  0  0  0  0  0  0
  195.8180  172.4580  143.7750 C   0  0  0  0  0  2  0  0  0  0  0  0
  194.2000  171.7130  145.3740 O   0  0  0  0  0  0  0  0  0  0  0  0
  196.3520  173.7260  143.4790 O   0  0  0  0  0  0  0  0  0  0  0  0
  194.1510  174.7530  143.3430 C   0  0  0  0  0  2  0  0  0  0  0  0
  196.1070  175.5040  141.8820 C   0  0  1  0  0  3  0  0  0  0  0  0
  195.1640  176.4850  141.5610 O   0  0  0  0  0  1  0  0  0  0  0  0
  197.2570  176.0950  142.6870 C   0  0  0  0  0  2  0  0  0  0  0  0
  196.7920  177.1480  143.4720 O   0  0  0  0  0  1  0  0  0  0  0  0
  188.0040  177.0030  144.0180 O   0  0  0  0  0  0  0  0  0  0  0  0
  186.9400  176.3950  143.4270 N   0  0  0  0  0  2  0  0  0  0  0  0
  186.1590  177.2590  139.8890 C   0  0  0  0  0  0  0  0  0  0  0  0
  184.5720  178.3970  141.3050 C   0  0  0  0  0  3  0  0  0  0  0  0
  185.1440  177.8130  142.4510 C   0  0  0  0  0  0  0  0  0  0  0  0
  186.2780  176.9830  142.2960 C   0  0  0  0  0  0  0  0  0  0  0  0
  186.7640  176.6970  141.0160 C   0  0  0  0  0  3  0  0  0  0  0  0
  186.7660  176.8650  138.2960 Cl  0  0  0  0  0  0  0  0  0  0  0  0
  185.0720  178.1140  140.0320 C   0  0  0  0  0  3  0  0  0  0  0  0
  184.6360  178.0410  143.7420 O   0  0  0  0  0  0  0  0  0  0  0  0
  185.0500  179.0070  144.6840 C   0  0  0  0  0  0  0  0  0  0  0  0
  185.1190  180.2080  144.3170 O   0  0  0  0  0  0  0  0  0  0  0  0
  185.3860  178.6770  146.1000 C   0  0  0  0  0  2  0  0  0  0  0  0
  184.7640  177.3420  146.4670 C   0  0  0  0  0  1  0  0  0  0  0  0
  1  3  1  0  0  0  0
  2  5  1  0  0  0  0
  3 24  1  6  0  0  0
  3  5  1  0  0  0  0
  4  2  1  0  0  0  0
  5  9  1  1  0  0  0
  5  8  1  0  0  0  0
  6  1  1  0  0  0  0
  6  4  2  0  0  0  0
  8  7  1  0  0  0  0
  9 10  1  0  0  0  0
 11 10  1  0  0  0  0
 12 11  1  0  0  0  0
 13 17  2  0  0  0  0
 14 13  1  0  0  0  0
 14 12  1  0  0  0  0
 15 20  1  1  0  0  0
 15 19  1  0  0  0  0
 15 18  1  0  0  0  0
 16 13  1  0  0  0  0
 18 16  1  0  0  0  0
 19 14  1  0  0  0  0
 20 21  1  1  0  0  0
 20 22  1  0  0  0  0
 22 23  1  0  0  0  0
 25 24  1  0  0  0  0
 26 32  2  0  0  0  0
 26 30  1  0  0  0  0
 27 28  2  0  0  0  0
 28 33  1  0  0  0  0
 29 28  1  0  0  0  0
 29 25  1  0  0  0  0
 30 29  2  0  0  0  0
 31 26  1  0  0  0  0
 32 27  1  0  0  0  0
 33 34  1  0  0  0  0
 34 36  1  0  0  0  0
 35 34  2  0  0  0  0
 36 37  1  0  0  0  0
M  END
>  <MODEL>
6

>  <REMARK>
 VINA RESULT:      -6.3      1.741      2.402
  Name = 
  14 active torsions:
  status: ('A' for Active; 'I' for Inactive)
    1  A    between atoms: N_3  and  C_25
    2  A    between atoms: N_3  and  O_31
    3  A    between atoms: C_4  and  C_15
    4  A    between atoms: C_4  and  C_23
    5  A    between atoms: N_5  and  C_10
    6  A    between atoms: C_6  and  O_17
    7  A    between atoms: C_6  and  C_19
    8  A    between atoms: C_7  and  C_29
    9  A    between atoms: C_10  and  C_11
   10  A    between atoms: C_11  and  C_15
   11  A    between atoms: C_12  and  C_29
   12  A    between atoms: C_14  and  O_31
   13  A    between atoms: O_17  and  C_21
   14  A    between atoms: C_23  and  C_27
                            x       y       z     vdW  Elec       q    Type
                         _______ _______ _______ _____ _____    ______ ____

>  <TORSDO>
F 14

$$$$
=
 OpenBabel11062421533D

 37 39  0  0  1  0  0  0  0  0999 V2000
  189.0560  175.3350  146.0390 C   0  0  0  0  0  2  0  0  0  0  0  0
  191.4820  175.0420  144.4490 C   0  0  0  0  0  2  0  0  0  0  0  0
  189.5160  176.4880  145.1330 C   0  0  1  0  0  3  0  0  0  0  0  0
  190.5870  173.8910  144.8620 C   0  0  0  0  0  3  0  0  0  0  0  0
  191.0600  176.4240  145.0030 C   0  0  2  0  0  0  0  0  0  0  0  0
  189.4820  174.0570  145.5160 N   0  0  0  0  0  0  0  0  0  0  0  0
  192.0530  176.8960  142.8470 O   0  0  0  0  0  1  0  0  0  0  0  0
  191.5260  177.4870  144.0000 C   0  0  0  0  0  2  0  0  0  0  0  0
  191.7080  176.6690  146.3870 C   0  0  0  0  0  2  0  0  0  0  0  0
  192.8870  175.7530  146.7490 C   0  0  0  0  0  2  0  0  0  0  0  0
  194.2220  176.3770  146.3990 C   0  0  0  0  0  2  0  0  0  0  0  0
  195.2330  175.2720  146.1350 C   0  0  0  0  0  2  0  0  0  0  0  0
  194.6780  173.4440  144.4990 C   0  0  0  0  0  0  0  0  0  0  0  0
  195.1230  174.7820  144.7740 N   0  0  0  0  0  0  0  0  0  0  0  0
  195.1710  175.0260  142.2910 C   0  0  1  0  0  3  0  0  0  0  0  0
  194.6590  172.9900  143.0820 C   0  0  0  0  0  2  0  0  0  0  0  0
  194.2530  172.6930  145.4220 O   0  0  0  0  0  0  0  0  0  0  0  0
  195.6390  173.7040  142.3670 O   0  0  0  0  0  0  0  0  0  0  0  0
  195.2780  175.7300  143.6630 C   0  0  0  0  0  2  0  0  0  0  0  0
  195.9180  175.7810  141.1910 C   0  0  1  0  0  3  0  0  0  0  0  0
  196.4130  176.9940  141.6760 O   0  0  0  0  0  1  0  0  0  0  0  0
  197.0300  174.9460  140.5710 C   0  0  0  0  0  2  0  0  0  0  0  0
  197.6640  175.6750  139.5670 O   0  0  0  0  0  1  0  0  0  0  0  0
  188.9180  176.4500  143.8510 O   0  0  0  0  0  0  0  0  0  0  0  0
  187.5820  176.2930  144.0520 N   0  0  0  0  0  2  0  0  0  0  0  0
  185.3650  178.5580  146.0090 C   0  0  0  0  0  0  0  0  0  0  0  0
  185.5920  179.4700  143.7870 C   0  0  0  0  0  3  0  0  0  0  0  0
  186.4660  178.4270  143.4260 C   0  0  0  0  0  0  0  0  0  0  0  0
  186.7390  177.4120  144.3710 C   0  0  0  0  0  0  0  0  0  0  0  0
  186.2030  177.4960  145.6600 C   0  0  0  0  0  3  0  0  0  0  0  0
  184.7290  178.6590  147.6360 Cl  0  0  0  0  0  0  0  0  0  0  0  0
  185.0520  179.5380  145.0730 C   0  0  0  0  0  3  0  0  0  0  0  0
  187.0620  178.3530  142.1540 O   0  0  0  0  0  0  0  0  0  0  0  0
  186.5640  177.7230  140.9930 C   0  0  0  0  0  0  0  0  0  0  0  0
  187.0720  176.6270  140.6450 O   0  0  0  0  0  0  0  0  0  0  0  0
  185.4500  178.2830  140.1730 C   0  0  0  0  0  2  0  0  0  0  0  0
  184.1240  177.9480  140.8300 C   0  0  0  0  0  1  0  0  0  0  0  0
  2  4  1  0  0  0  0
  2  5  1  0  0  0  0
  3 24  1  6  0  0  0
  3  1  1  0  0  0  0
  4  6  2  0  0  0  0
  5  8  1  6  0  0  0
  5  3  1  0  0  0  0
  5  9  1  0  0  0  0
  6  1  1  0  0  0  0
  7  8  1  0  0  0  0
  9 10  1  0  0  0  0
 11 10  1  0  0  0  0
 12 11  1  0  0  0  0
 13 14  1  0  0  0  0
 13 17  2  0  0  0  0
 14 12  1  0  0  0  0
 15 20  1  6  0  0  0
 15 18  1  0  0  0  0
 15 19  1  0  0  0  0
 16 13  1  0  0  0  0
 18 16  1  0  0  0  0
 19 14  1  0  0  0  0
 20 21  1  1  0  0  0
 22 20  1  0  0  0  0
 23 22  1  0  0  0  0
 24 25  1  0  0  0  0
 25 29  1  0  0  0  0
 26 31  1  0  0  0  0
 27 32  1  0  0  0  0
 28 27  2  0  0  0  0
 28 29  1  0  0  0  0
 29 30  2  0  0  0  0
 30 26  1  0  0  0  0
 32 26  2  0  0  0  0
 33 28  1  0  0  0  0
 34 33  1  0  0  0  0
 35 34  2  0  0  0  0
 36 37  1  0  0  0  0
 36 34  1  0  0  0  0
M  END
>  <MODEL>
7

>  <REMARK>
 VINA RESULT:      -6.3      1.881      2.953
  Name = 
  14 active torsions:
  status: ('A' for Active; 'I' for Inactive)
    1  A    between atoms: N_3  and  C_25
    2  A    between atoms: N_3  and  O_31
    3  A    between atoms: C_4  and  C_15
    4  A    between atoms: C_4  and  C_23
    5  A    between atoms: N_5  and  C_10
    6  A    between atoms: C_6  and  O_17
    7  A    between atoms: C_6  and  C_19
    8  A    between atoms: C_7  and  C_29
    9  A    between atoms: C_10  and  C_11
   10  A    between atoms: C_11  and  C_15
   11  A    between atoms: C_12  and  C_29
   12  A    between atoms: C_14  and  O_31
   13  A    between atoms: O_17  and  C_21
   14  A    between atoms: C_23  and  C_27
                            x       y       z     vdW  Elec       q    Type
                         _______ _______ _______ _____ _____    ______ ____

>  <TORSDO>
F 14

$$$$
=
 OpenBabel11062421533D

 37 39  0  0  1  0  0  0  0  0999 V2000
  189.6650  174.1630  145.5810 C   0  0  0  0  0  2  0  0  0  0  0  0
  192.1530  174.5590  144.1140 C   0  0  0  0  0  2  0  0  0  0  0  0
  189.9720  175.5350  144.9610 C   0  0  1  0  0  3  0  0  0  0  0  0
  191.4290  173.2320  144.2260 C   0  0  0  0  0  3  0  0  0  0  0  0
  191.5120  175.7180  144.9150 C   0  0  2  0  0  0  0  0  0  0  0  0
  190.2930  173.0980  144.8320 N   0  0  0  0  0  0  0  0  0  0  0  0
  192.5580  176.7780  143.0060 O   0  0  0  0  0  1  0  0  0  0  0  0
  191.8420  177.0240  144.1830 C   0  0  0  0  0  2  0  0  0  0  0  0
  192.0750  175.7510  146.3560 C   0  0  0  0  0  2  0  0  0  0  0  0
  193.2270  176.7350  146.6060 C   0  0  0  0  0  2  0  0  0  0  0  0
  194.5810  176.0630  146.5130 C   0  0  0  0  0  2  0  0  0  0  0  0
  195.2420  176.4540  145.2010 C   0  0  0  0  0  2  0  0  0  0  0  0
  196.1510  175.3620  143.1250 C   0  0  0  0  0  0  0  0  0  0  0  0
  195.7340  175.2840  144.4970 N   0  0  0  0  0  0  0  0  0  0  0  0
  196.4720  172.9060  144.3420 C   0  0  1  0  0  3  0  0  0  0  0  0
  196.5750  174.1060  142.4490 C   0  0  0  0  0  2  0  0  0  0  0  0
  196.2180  176.4710  142.5230 O   0  0  0  0  0  0  0  0  0  0  0  0
  195.9150  173.0220  143.0580 O   0  0  0  0  0  0  0  0  0  0  0  0
  195.9950  174.0560  145.2590 C   0  0  0  0  0  2  0  0  0  0  0  0
  196.1550  171.5290  144.9260 C   0  0  1  0  0  3  0  0  0  0  0  0
  197.1920  171.0950  145.7560 O   0  0  0  0  0  1  0  0  0  0  0  0
  194.8210  171.5070  145.6600 C   0  0  0  0  0  2  0  0  0  0  0  0
  193.8580  170.8820  144.8700 O   0  0  0  0  0  1  0  0  0  0  0  0
  189.4250  175.6870  143.6650 O   0  0  0  0  0  0  0  0  0  0  0  0
  188.0740  175.6980  143.8150 N   0  0  0  0  0  2  0  0  0  0  0  0
  186.0740  177.6900  141.3850 C   0  0  0  0  0  0  0  0  0  0  0  0
  186.1470  178.9050  143.4680 C   0  0  0  0  0  3  0  0  0  0  0  0
  186.8920  177.8730  144.0680 C   0  0  0  0  0  0  0  0  0  0  0  0
  187.2710  176.7620  143.2790 C   0  0  0  0  0  0  0  0  0  0  0  0
  186.8430  176.6710  141.9510 C   0  0  0  0  0  3  0  0  0  0  0  0
  185.5250  177.5410  139.7300 Cl  0  0  0  0  0  0  0  0  0  0  0  0
  185.7340  178.8090  142.1370 C   0  0  0  0  0  3  0  0  0  0  0  0
  187.2840  177.9170  145.4180 O   0  0  0  0  0  0  0  0  0  0  0  0
  186.4830  177.7340  146.5650 C   0  0  0  0  0  0  0  0  0  0  0  0
  186.9460  178.0870  147.6800 O   0  0  0  0  0  0  0  0  0  0  0  0
  185.1050  177.1630  146.5170 C   0  0  0  0  0  2  0  0  0  0  0  0
  184.0920  178.2930  146.5050 C   0  0  0  0  0  1  0  0  0  0  0  0
  2  4  1  0  0  0  0
  2  5  1  0  0  0  0
  3 24  1  6  0  0  0
  3  1  1  0  0  0  0
  4  6  2  0  0  0  0
  5  8  1  6  0  0  0
  5  3  1  0  0  0  0
  5  9  1  0  0  0  0
  6  1  1  0  0  0  0
  7  8  1  0  0  0  0
  9 10  1  0  0  0  0
 11 10  1  0  0  0  0
 12 11  1  0  0  0  0
 13 14  1  0  0  0  0
 14 12  1  0  0  0  0
 14 19  1  0  0  0  0
 15 20  1  1  0  0  0
 15 19  1  0  0  0  0
 16 18  1  0  0  0  0
 16 13  1  0  0  0  0
 17 13  2  0  0  0  0
 18 15  1  0  0  0  0
 20 22  1  0  0  0  0
 20 21  1  1  0  0  0
 23 22  1  0  0  0  0
 24 25  1  0  0  0  0
 26 30  2  0  0  0  0
 26 32  1  0  0  0  0
 27 28  1  0  0  0  0
 28 33  1  0  0  0  0
 29 25  1  0  0  0  0
 29 28  2  0  0  0  0
 30 29  1  0  0  0  0
 31 26  1  0  0  0  0
 32 27  2  0  0  0  0
 33 34  1  0  0  0  0
 34 35  2  0  0  0  0
 36 34  1  0  0  0  0
 37 36  1  0  0  0  0
M  END
>  <MODEL>
8

>  <REMARK>
 VINA RESULT:      -6.2      1.575      2.944
  Name = 
  14 active torsions:
  status: ('A' for Active; 'I' for Inactive)
    1  A    between atoms: N_3  and  C_25
    2  A    between atoms: N_3  and  O_31
    3  A    between atoms: C_4  and  C_15
    4  A    between atoms: C_4  and  C_23
    5  A    between atoms: N_5  and  C_10
    6  A    between atoms: C_6  and  O_17
    7  A    between atoms: C_6  and  C_19
    8  A    between atoms: C_7  and  C_29
    9  A    between atoms: C_10  and  C_11
   10  A    between atoms: C_11  and  C_15
   11  A    between atoms: C_12  and  C_29
   12  A    between atoms: C_14  and  O_31
   13  A    between atoms: O_17  and  C_21
   14  A    between atoms: C_23  and  C_27
                            x       y       z     vdW  Elec       q    Type
                         _______ _______ _______ _____ _____    ______ ____

>  <TORSDO>
F 14

$$$$
=
 OpenBabel11062421533D

 37 39  0  0  1  0  0  0  0  0999 V2000
  191.7700  175.0500  142.3460 C   0  0  0  0  0  2  0  0  0  0  0  0
  190.6590  172.4700  141.5650 C   0  0  0  0  0  2  0  0  0  0  0  0
  191.6400  173.9290  143.3910 C   0  0  1  0  0  3  0  0  0  0  0  0
  191.4080  173.3960  140.6290 C   0  0  0  0  0  3  0  0  0  0  0  0
  190.4440  173.0250  142.9940 C   0  0  2  0  0  0  0  0  0  0  0  0
  191.9460  174.5080  141.0180 N   0  0  0  0  0  0  0  0  0  0  0  0
  189.5950  172.1220  145.0730 O   0  0  0  0  0  1  0  0  0  0  0  0
  190.3770  171.8290  143.9510 C   0  0  0  0  0  2  0  0  0  0  0  0
  189.1310  173.8420  143.0600 C   0  0  0  0  0  2  0  0  0  0  0  0
  188.2080  173.7330  141.8380 C   0  0  0  0  0  2  0  0  0  0  0  0
  187.8230  175.0910  141.2890 C   0  0  0  0  0  2  0  0  0  0  0  0
  188.3230  176.1700  142.2350 C   0  0  0  0  0  2  0  0  0  0  0  0
  186.6220  178.0170  142.0880 C   0  0  0  0  0  0  0  0  0  0  0  0
  187.2160  176.9190  142.7990 N   0  0  0  0  0  0  0  0  0  0  0  0
  185.4410  177.3650  144.4960 C   0  0  1  0  0  3  0  0  0  0  0  0
  185.5380  178.7830  142.7610 C   0  0  0  0  0  2  0  0  0  0  0  0
  186.9620  178.2890  140.9010 O   0  0  0  0  0  0  0  0  0  0  0  0
  185.7230  178.6970  144.1530 O   0  0  0  0  0  0  0  0  0  0  0  0
  186.5690  176.4200  144.0200 C   0  0  0  0  0  2  0  0  0  0  0  0
  185.1900  177.2550  146.0000 C   0  0  1  0  0  3  0  0  0  0  0  0
  186.3400  176.8160  146.6610 O   0  0  0  0  0  1  0  0  0  0  0  0
  184.6810  178.5610  146.5960 C   0  0  0  0  0  2  0  0  0  0  0  0
  185.6960  179.1700  147.3320 O   0  0  0  0  0  1  0  0  0  0  0  0
  192.8170  173.1530  143.5120 O   0  0  0  0  0  0  0  0  0  0  0  0
  193.3590  173.4600  144.7210 N   0  0  0  0  0  2  0  0  0  0  0  0
  195.5750  176.4280  144.3170 C   0  0  0  0  0  0  0  0  0  0  0  0
  194.1850  176.7890  146.2560 C   0  0  0  0  0  3  0  0  0  0  0  0
  193.5280  175.5640  146.0390 C   0  0  0  0  0  0  0  0  0  0  0  0
  193.9530  174.7450  144.9680 C   0  0  0  0  0  0  0  0  0  0  0  0
  194.9590  175.1920  144.1050 C   0  0  0  0  0  3  0  0  0  0  0  0
  196.8100  176.9790  143.2080 Cl  0  0  0  0  0  0  0  0  0  0  0  0
  195.1960  177.2210  145.3950 C   0  0  0  0  0  3  0  0  0  0  0  0
  192.4750  175.1210  146.8600 O   0  0  0  0  0  0  0  0  0  0  0  0
  191.2420  175.7590  147.1180 C   0  0  0  0  0  0  0  0  0  0  0  0
  191.2000  176.6370  148.0170 O   0  0  0  0  0  0  0  0  0  0  0  0
  189.9930  175.4570  146.3590 C   0  0  0  0  0  2  0  0  0  0  0  0
  189.0200  174.7230  147.2630 C   0  0  0  0  0  1  0  0  0  0  0  0
  1  3  1  0  0  0  0
  2  5  1  0  0  0  0
  3 24  1  6  0  0  0
  4  6  2  0  0  0  0
  4  2  1  0  0  0  0
  5  9  1  1  0  0  0
  5  3  1  0  0  0  0
  5  8  1  0  0  0  0
  6  1  1  0  0  0  0
  8  7  1  0  0  0  0
 10  9  1  0  0  0  0
 11 10  1  0  0  0  0
 11 12  1  0  0  0  0
 12 14  1  0  0  0  0
 13 16  1  0  0  0  0
 13 14  1  0  0  0  0
 14 19  1  0  0  0  0
 15 20  1  1  0  0  0
 16 18  1  0  0  0  0
 17 13  2  0  0  0  0
 18 15  1  0  0  0  0
 19 15  1  0  0  0  0
 20 22  1  0  0  0  0
 20 21  1  1  0  0  0
 22 23  1  0  0  0  0
 24 25  1  0  0  0  0
 25 29  1  0  0  0  0
 26 32  1  0  0  0  0
 28 27  1  0  0  0  0
 28 33  1  0  0  0  0
 29 28  2  0  0  0  0
 30 26  2  0  0  0  0
 30 29  1  0  0  0  0
 31 26  1  0  0  0  0
 32 27  2  0  0  0  0
 33 34  1  0  0  0  0
 34 35  2  0  0  0  0
 36 34  1  0  0  0  0
 36 37  1  0  0  0  0
M  END
>  <MODEL>
9

>  <REMARK>
 VINA RESULT:      -6.2      3.102      8.476
  Name = 
  14 active torsions:
  status: ('A' for Active; 'I' for Inactive)
    1  A    between atoms: N_3  and  C_25
    2  A    between atoms: N_3  and  O_31
    3  A    between atoms: C_4  and  C_15
    4  A    between atoms: C_4  and  C_23
    5  A    between atoms: N_5  and  C_10
    6  A    between atoms: C_6  and  O_17
    7  A    between atoms: C_6  and  C_19
    8  A    between atoms: C_7  and  C_29
    9  A    between atoms: C_10  and  C_11
   10  A    between atoms: C_11  and  C_15
   11  A    between atoms: C_12  and  C_29
   12  A    between atoms: C_14  and  O_31
   13  A    between atoms: O_17  and  C_21
   14  A    between atoms: C_23  and  C_27
                            x       y       z     vdW  Elec       q    Type
                         _______ _______ _______ _____ _____    ______ ____

>  <TORSDO>
F 14

$$$$
