=
 OpenBabel11072409313D

 58 62  0  0  1  0  0  0  0  0999 V2000
  188.6270  177.7530  141.6630 O   0  0  0  0  0  1  0  0  0  0  0  0
  188.7490  174.4440  141.5200 C   0  0  1  0  0  3  0  0  0  0  0  0
  188.6090  176.9130  142.7750 C   0  0  1  0  0  3  0  0  0  0  0  0
  187.4410  175.9170  142.6380 C   0  0  1  0  0  3  0  0  0  0  0  0
  187.8600  174.5670  142.5980 O   0  0  0  0  0  0  0  0  0  0  0  0
  190.1060  175.0630  141.8790 C   0  0  0  0  0  2  0  0  0  0  0  0
  189.9500  176.1750  142.9190 C   0  0  1  0  0  3  0  0  0  0  0  0
  188.9280  172.9730  141.1500 C   0  0  2  0  0  0  0  0  0  0  0  0
  187.8700  172.5020  140.3590 O   0  0  0  0  0  0  0  0  0  0  0  0
  189.2230  172.0710  142.1720 O   0  0  0  0  0  1  0  0  0  0  0  0
  189.1500  172.4870  139.7610 C   0  0  1  0  0  3  0  0  0  0  0  0
  190.5130  174.0690  138.2620 N   0  0  0  0  0  2  0  0  0  0  0  0
  194.2110  173.2110  139.0560 C   0  0  0  0  0  3  0  0  0  0  0  0
  193.3410  172.2670  139.6010 C   0  0  0  0  0  0  0  0  0  0  0  0
  193.2460  174.3290  138.2400 S   0  0  0  0  0  0  0  0  0  0  0  0
  192.0150  172.4600  139.3610 N   0  0  0  0  0  0  0  0  0  0  0  0
  191.8040  173.5690  138.6240 C   0  0  0  0  0  0  0  0  0  0  0  0
  193.8250  171.1160  140.4070 C   0  0  0  0  0  1  0  0  0  0  0  0
  188.1990  174.0870  138.2800 O   0  0  0  0  0  0  0  0  0  0  0  0
  189.2530  173.5880  138.7440 C   0  0  0  0  0  0  0  0  0  0  0  0
  191.1650  177.1000  142.8870 C   0  0  0  0  0  2  0  0  0  0  0  0
  193.4970  176.2060  142.8130 O   0  0  0  0  0  1  0  0  0  0  0  0
  192.3820  176.5140  143.5950 C   0  0  1  0  0  0  0  0  0  0  0  0
  192.5820  176.7200  145.0930 C   0  0  1  0  0  3  0  0  0  0  0  0
  192.0370  175.4050  144.5600 C   0  0  0  0  0  2  0  0  0  0  0  0
  194.2970  177.3580  146.6160 O   0  0  0  0  0  1  0  0  0  0  0  0
  194.0370  176.5590  145.5040 C   0  0  1  0  0  3  0  0  0  0  0  0
  194.2930  175.1650  145.8340 N   0  0  0  0  0  2  0  0  0  0  0  0
  195.3300  174.3760  145.2380 C   0  0  0  0  0  0  0  0  0  0  0  0
  197.5210  174.1460  144.0700 C   0  0  1  0  0  3  0  0  0  0  0  0
  196.1710  172.1310  144.4880 N   0  0  0  0  0  0  0  0  0  0  0  0
  196.3900  174.9480  144.6580 C   0  0  0  0  0  3  0  0  0  0  0  0
  195.2140  172.9060  145.2180 C   0  0  0  0  0  0  0  0  0  0  0  0
  197.2110  172.6740  143.9330 C   0  0  0  0  0  3  0  0  0  0  0  0
  194.2680  172.3310  145.8170 O   0  0  0  0  0  0  0  0  0  0  0  0
  197.9200  174.7310  142.7250 C   0  0  0  0  0  2  0  0  0  0  0  0
  196.8330  174.5160  141.6830 C   0  0  0  0  0  2  0  0  0  0  0  0
  196.4580  176.8500  141.3680 O   0  0  0  0  0  1  0  0  0  0  0  0
  196.6770  175.7330  140.8330 C   0  0  0  0  0  0  0  0  0  0  0  0
  196.7370  175.6250  139.4510 O   0  0  0  0  0  0  0  0  0  0  0  0
  186.4310  176.1370  143.7600 C   0  0  0  0  0  2  0  0  0  0  0  0
  186.7060  177.4350  144.5290 C   0  0  1  0  0  3  0  0  0  0  0  0
  185.5920  178.4980  144.4290 C   0  0  1  0  0  3  0  0  0  0  0  0
  186.0100  179.7340  145.2040 C   0  0  0  0  0  1  0  0  0  0  0  0
  185.2290  178.9140  143.0090 C   0  0  0  0  0  2  0  0  0  0  0  0
  183.7330  178.7600  142.7940 C   0  0  0  0  0  2  0  0  0  0  0  0
  183.4210  178.6380  141.3110 C   0  0  1  0  0  3  0  0  0  0  0  0
  184.6160  178.0450  140.5890 C   0  0  0  0  0  1  0  0  0  0  0  0
  182.1590  177.8050  141.0820 C   0  0  0  0  0  3  0  0  0  0  0  0
  181.9510  177.5630  139.7220 O   0  0  0  0  0  1  0  0  0  0  0  0
  181.0520  178.4510  141.6210 O   0  0  0  0  0  1  0  0  0  0  0  0
  187.0240  177.0790  145.9860 C   0  0  1  0  0  3  0  0  0  0  0  0
  184.6450  176.5240  146.4820 O   0  0  0  0  0  0  0  0  0  0  0  0
  185.8230  177.1470  146.8740 C   0  0  0  0  0  0  0  0  0  0  0  0
  185.8710  177.7700  147.9680 O   0  0  0  0  0  1  0  0  0  0  0  0
  187.6510  175.8330  146.0870 O   0  0  0  0  0  0  0  0  0  0  0  0
  188.9100  176.1070  146.6250 C   0  0  0  0  0  2  0  0  0  0  0  0
  189.4650  174.8580  147.2710 C   0  0  0  0  0  1  0  0  0  0  0  0
  2  6  1  1  0  0  0
  2  5  1  0  0  0  0
  3  1  1  6  0  0  0
  3  7  1  0  0  0  0
  4  3  1  0  0  0  0
  4 41  1  1  0  0  0
  5  4  1  0  0  0  0
  6  7  1  0  0  0  0
  7 21  1  6  0  0  0
  8  2  1  0  0  0  0
  8 10  1  1  0  0  0
  9  8  1  0  0  0  0
 11 20  1  6  0  0  0
 11  9  1  0  0  0  0
 11  8  1  0  0  0  0
 12 17  1  0  0  0  0
 12 20  1  0  0  0  0
 13 14  2  0  0  0  0
 14 18  1  0  0  0  0
 15 17  1  0  0  0  0
 15 13  1  0  0  0  0
 16 14  1  0  0  0  0
 17 16  2  0  0  0  0
 19 20  2  0  0  0  0
 21 23  1  0  0  0  0
 23 22  1  6  0  0  0
 23 25  1  0  0  0  0
 23 24  1  0  0  0  0
 24 27  1  6  0  0  0
 25 24  1  0  0  0  0
 27 28  1  0  0  0  0
 27 26  1  1  0  0  0
 29 28  1  0  0  0  0
 30 36  1  6  0  0  0
 30 32  1  0  0  0  0
 31 33  1  0  0  0  0
 32 29  2  0  0  0  0
 33 29  1  0  0  0  0
 33 35  2  0  0  0  0
 34 30  1  0  0  0  0
 34 31  2  0  0  0  0
 37 36  1  0  0  0  0
 39 38  1  0  0  0  0
 39 37  1  0  0  0  0
 40 39  2  0  0  0  0
 42 41  1  6  0  0  0
 42 52  1  0  0  0  0
 43 42  1  0  0  0  0
 43 44  1  1  0  0  0
 45 43  1  0  0  0  0
 46 45  1  0  0  0  0
 47 48  1  6  0  0  0
 47 46  1  0  0  0  0
 49 47  1  0  0  0  0
 49 51  1  0  0  0  0
 50 49  1  0  0  0  0
 52 56  1  6  0  0  0
 52 54  1  0  0  0  0
 53 54  2  0  0  0  0
 54 55  1  0  0  0  0
 56 57  1  0  0  0  0
 57 58  1  0  0  0  0
M  END
>  <MODEL>
1

>  <REMARK>
 VINA RESULT:      -6.7      0.000      0.000
  Name = 
  21 active torsions:
  status: ('A' for Active; 'I' for Inactive)
    1  A    between atoms: C_2  and  C_32
    2  A    between atoms: C_2  and  C_34
    3  A    between atoms: C_3  and  N_54
    4  A    between atoms: C_5  and  C_10
    5  A    between atoms: C_6  and  C_48
    6  A    between atoms: C_7  and  C_9
    7  A    between atoms: C_7  and  C_32
    8  A    between atoms: C_7  and  O_53
    9  A    between atoms: C_8  and  C_20
   10  A    between atoms: C_8  and  C_58
   11  A    between atoms: C_13  and  O_53
   12  A    between atoms: C_17  and  C_35
   13  A    between atoms: C_17  and  C_58
   14  A    between atoms: C_21  and  C_23
   15  A    between atoms: C_21  and  C_48
   16  A    between atoms: C_24  and  C_29
   17  A    between atoms: C_24  and  C_44
   18  A    between atoms: C_32  and  C_35
   19  A    between atoms: C_39  and  C_55
   20  A    between atoms: C_49  and  C_56
   21  A    between atoms: N_54  and  C_55
                            x       y       z     vdW  Elec       q    Type
                         _______ _______ _______ _____ _____    ______ ____

>  <TORSDO>
F 21

$$$$
=
 OpenBabel11072409313D

 58 62  0  0  1  0  0  0  0  0999 V2000
  189.3060  177.6860  142.0630 O   0  0  0  0  0  1  0  0  0  0  0  0
  188.8720  174.4280  141.6400 C   0  0  1  0  0  3  0  0  0  0  0  0
  189.0750  176.7780  143.0960 C   0  0  1  0  0  3  0  0  0  0  0  0
  187.7650  176.0160  142.8170 C   0  0  1  0  0  3  0  0  0  0  0  0
  187.9500  174.6210  142.6800 O   0  0  0  0  0  0  0  0  0  0  0  0
  190.2890  174.7710  142.1170 C   0  0  0  0  0  2  0  0  0  0  0  0
  190.2600  175.8090  143.2400 C   0  0  1  0  0  3  0  0  0  0  0  0
  188.8210  172.9810  141.1520 C   0  0  2  0  0  0  0  0  0  0  0  0
  187.6330  172.7050  140.4600 O   0  0  0  0  0  0  0  0  0  0  0  0
  189.1050  171.9700  142.0700 O   0  0  0  0  0  1  0  0  0  0  0  0
  188.8300  172.5870  139.7170 C   0  0  1  0  0  3  0  0  0  0  0  0
  190.1920  174.0500  138.1020 N   0  0  0  0  0  2  0  0  0  0  0  0
  193.7470  172.5010  138.1550 C   0  0  0  0  0  3  0  0  0  0  0  0
  192.8210  171.6720  138.7860 C   0  0  0  0  0  0  0  0  0  0  0  0
  192.8840  173.8410  137.6020 S   0  0  0  0  0  0  0  0  0  0  0  0
  191.5320  172.1100  138.8030 N   0  0  0  0  0  0  0  0  0  0  0  0
  191.4100  173.3050  138.1910 C   0  0  0  0  0  0  0  0  0  0  0  0
  193.2120  170.3830  139.4140 C   0  0  0  0  0  1  0  0  0  0  0  0
  187.9570  174.4610  138.5410 O   0  0  0  0  0  0  0  0  0  0  0  0
  188.9630  173.7470  138.7720 C   0  0  0  0  0  0  0  0  0  0  0  0
  191.6130  176.5070  143.3470 C   0  0  0  0  0  2  0  0  0  0  0  0
  192.5850  174.3530  144.1610 O   0  0  0  0  0  1  0  0  0  0  0  0
  192.7840  175.5330  143.4420 C   0  0  1  0  0  0  0  0  0  0  0  0
  193.9130  175.5760  142.4190 C   0  0  1  0  0  3  0  0  0  0  0  0
  194.0910  176.2020  143.7930 C   0  0  0  0  0  2  0  0  0  0  0  0
  195.0850  174.0380  141.0280 O   0  0  0  0  0  1  0  0  0  0  0  0
  194.6650  174.2570  142.3400 C   0  0  1  0  0  3  0  0  0  0  0  0
  195.8230  174.3080  143.2200 N   0  0  0  0  0  2  0  0  0  0  0  0
  196.2870  173.2010  144.0020 C   0  0  0  0  0  0  0  0  0  0  0  0
  197.0730  170.8450  144.2270 C   0  0  1  0  0  3  0  0  0  0  0  0
  196.7670  172.2040  146.2570 N   0  0  0  0  0  0  0  0  0  0  0  0
  196.5350  172.0130  143.4420 C   0  0  0  0  0  3  0  0  0  0  0  0
  196.4530  173.3500  145.4590 C   0  0  0  0  0  0  0  0  0  0  0  0
  197.0240  171.0480  145.7230 C   0  0  0  0  0  3  0  0  0  0  0  0
  196.2990  174.4720  146.0090 O   0  0  0  0  0  0  0  0  0  0  0  0
  196.3290  169.5780  143.8390 C   0  0  0  0  0  2  0  0  0  0  0  0
  194.9410  169.8950  143.2990 C   0  0  0  0  0  2  0  0  0  0  0  0
  194.2000  168.8820  145.3270 O   0  0  0  0  0  1  0  0  0  0  0  0
  193.8990  169.5650  144.3150 C   0  0  0  0  0  0  0  0  0  0  0  0
  192.5900  169.9810  144.1240 O   0  0  0  0  0  0  0  0  0  0  0  0
  186.7400  176.3220  143.9030 C   0  0  0  0  0  2  0  0  0  0  0  0
  187.0280  177.6550  144.6020 C   0  0  1  0  0  3  0  0  0  0  0  0
  185.8880  178.6920  144.5220 C   0  0  1  0  0  3  0  0  0  0  0  0
  186.2580  179.7650  143.5150 C   0  0  0  0  0  1  0  0  0  0  0  0
  184.5280  178.1190  144.1450 C   0  0  0  0  0  2  0  0  0  0  0  0
  183.8840  178.9840  143.0750 C   0  0  0  0  0  2  0  0  0  0  0  0
  183.2680  178.1150  141.9900 C   0  0  1  0  0  3  0  0  0  0  0  0
  181.7990  178.4600  141.8390 C   0  0  0  0  0  1  0  0  0  0  0  0
  184.0190  178.2730  140.6670 C   0  0  0  0  0  3  0  0  0  0  0  0
  183.3860  177.5710  139.6380 O   0  0  0  0  0  1  0  0  0  0  0  0
  185.3300  177.8320  140.8020 O   0  0  0  0  0  1  0  0  0  0  0  0
  187.4360  177.3670  146.0510 C   0  0  1  0  0  3  0  0  0  0  0  0
  185.2870  176.8860  147.2200 O   0  0  0  0  0  0  0  0  0  0  0  0
  186.3710  177.7340  147.0360 C   0  0  0  0  0  0  0  0  0  0  0  0
  186.4460  178.8090  147.6890 O   0  0  0  0  0  1  0  0  0  0  0  0
  187.8350  176.0380  146.2200 O   0  0  0  0  0  0  0  0  0  0  0  0
  189.1170  176.1150  146.7680 C   0  0  0  0  0  2  0  0  0  0  0  0
  189.5150  174.7630  147.3150 C   0  0  0  0  0  1  0  0  0  0  0  0
  2  6  1  1  0  0  0
  2  5  1  0  0  0  0
  3  1  1  6  0  0  0
  3  7  1  0  0  0  0
  4  3  1  0  0  0  0
  4 41  1  1  0  0  0
  5  4  1  0  0  0  0
  6  7  1  0  0  0  0
  7 21  1  6  0  0  0
  8  2  1  0  0  0  0
  8 10  1  1  0  0  0
  9  8  1  0  0  0  0
 11 20  1  6  0  0  0
 11  9  1  0  0  0  0
 11  8  1  0  0  0  0
 12 17  1  0  0  0  0
 12 20  1  0  0  0  0
 13 14  2  0  0  0  0
 14 16  1  0  0  0  0
 14 18  1  0  0  0  0
 15 13  1  0  0  0  0
 15 17  1  0  0  0  0
 17 16  2  0  0  0  0
 19 20  2  0  0  0  0
 21 23  1  0  0  0  0
 23 25  1  0  0  0  0
 23 22  1  1  0  0  0
 24 27  1  1  0  0  0
 24 23  1  0  0  0  0
 24 25  1  0  0  0  0
 27 26  1  6  0  0  0
 27 28  1  0  0  0  0
 28 29  1  0  0  0  0
 29 33  1  0  0  0  0
 30 36  1  1  0  0  0
 30 34  1  0  0  0  0
 32 29  2  0  0  0  0
 32 30  1  0  0  0  0
 33 35  2  0  0  0  0
 33 31  1  0  0  0  0
 34 31  2  0  0  0  0
 37 36  1  0  0  0  0
 37 39  1  0  0  0  0
 39 38  1  0  0  0  0
 40 39  2  0  0  0  0
 42 41  1  1  0  0  0
 42 52  1  0  0  0  0
 43 44  1  6  0  0  0
 43 42  1  0  0  0  0
 45 43  1  0  0  0  0
 46 45  1  0  0  0  0
 47 48  1  6  0  0  0
 47 46  1  0  0  0  0
 49 51  1  0  0  0  0
 49 47  1  0  0  0  0
 50 49  1  0  0  0  0
 52 56  1  6  0  0  0
 52 54  1  0  0  0  0
 54 53  2  0  0  0  0
 54 55  1  0  0  0  0
 56 57  1  0  0  0  0
 57 58  1  0  0  0  0
M  END
>  <MODEL>
2

>  <REMARK>
 VINA RESULT:      -6.5      1.618      2.823
  Name = 
  21 active torsions:
  status: ('A' for Active; 'I' for Inactive)
    1  A    between atoms: C_2  and  C_32
    2  A    between atoms: C_2  and  C_34
    3  A    between atoms: C_3  and  N_54
    4  A    between atoms: C_5  and  C_10
    5  A    between atoms: C_6  and  C_48
    6  A    between atoms: C_7  and  C_9
    7  A    between atoms: C_7  and  C_32
    8  A    between atoms: C_7  and  O_53
    9  A    between atoms: C_8  and  C_20
   10  A    between atoms: C_8  and  C_58
   11  A    between atoms: C_13  and  O_53
   12  A    between atoms: C_17  and  C_35
   13  A    between atoms: C_17  and  C_58
   14  A    between atoms: C_21  and  C_23
   15  A    between atoms: C_21  and  C_48
   16  A    between atoms: C_24  and  C_29
   17  A    between atoms: C_24  and  C_44
   18  A    between atoms: C_32  and  C_35
   19  A    between atoms: C_39  and  C_55
   20  A    between atoms: C_49  and  C_56
   21  A    between atoms: N_54  and  C_55
                            x       y       z     vdW  Elec       q    Type
                         _______ _______ _______ _____ _____    ______ ____

>  <TORSDO>
F 21

$$$$
=
 OpenBabel11072409313D

 58 62  0  0  1  0  0  0  0  0999 V2000
  195.0290  175.4020  143.3160 O   0  0  0  0  0  1  0  0  0  0  0  0
  193.4410  172.5000  143.1050 C   0  0  1  0  0  3  0  0  0  0  0  0
  193.8300  175.2050  142.6320 C   0  0  1  0  0  3  0  0  0  0  0  0
  194.0190  174.0840  141.5910 C   0  0  1  0  0  3  0  0  0  0  0  0
  193.1750  172.9710  141.8100 O   0  0  0  0  0  0  0  0  0  0  0  0
  192.8140  173.4340  144.1480 C   0  0  0  0  0  2  0  0  0  0  0  0
  192.6960  174.8630  143.6130 C   0  0  1  0  0  3  0  0  0  0  0  0
  192.8930  171.0850  143.2740 C   0  0  2  0  0  0  0  0  0  0  0  0
  192.6600  170.4640  142.0380 O   0  0  0  0  0  0  0  0  0  0  0  0
  191.8100  170.9000  144.1330 O   0  0  0  0  0  1  0  0  0  0  0  0
  193.6270  169.8560  142.8690 C   0  0  1  0  0  3  0  0  0  0  0  0
  196.1720  170.0650  143.1610 N   0  0  0  0  0  2  0  0  0  0  0  0
  196.7760  169.3820  146.9300 C   0  0  0  0  0  3  0  0  0  0  0  0
  195.4720  169.0580  146.5570 C   0  0  0  0  0  0  0  0  0  0  0  0
  197.5510  169.9160  145.5300 S   0  0  0  0  0  0  0  0  0  0  0  0
  195.1590  169.2380  145.2440 N   0  0  0  0  0  0  0  0  0  0  0  0
  196.2090  169.7160  144.5480 C   0  0  0  0  0  0  0  0  0  0  0  0
  194.4720  168.5530  147.5330 C   0  0  0  0  0  1  0  0  0  0  0  0
  195.1420  170.3810  141.1120 O   0  0  0  0  0  0  0  0  0  0  0  0
  195.0050  170.1220  142.3330 C   0  0  0  0  0  0  0  0  0  0  0  0
  192.5700  175.8490  144.7720 C   0  0  0  0  0  2  0  0  0  0  0  0
  191.3770  174.8470  146.7260 O   0  0  0  0  0  1  0  0  0  0  0  0
  191.2960  175.6540  145.5880 C   0  0  1  0  0  0  0  0  0  0  0  0
  190.1500  176.6540  145.4890 C   0  0  1  0  0  3  0  0  0  0  0  0
  190.0880  175.3310  144.7430 C   0  0  0  0  0  2  0  0  0  0  0  0
  189.0530  177.9070  147.1910 O   0  0  0  0  0  1  0  0  0  0  0  0
  189.2460  176.6130  146.7110 C   0  0  1  0  0  3  0  0  0  0  0  0
  187.9630  176.0330  146.3430 N   0  0  0  0  0  2  0  0  0  0  0  0
  186.8310  176.7960  145.9070 C   0  0  0  0  0  0  0  0  0  0  0  0
  185.4710  177.8870  144.1250 C   0  0  1  0  0  3  0  0  0  0  0  0
  184.7980  178.1550  146.4770 N   0  0  0  0  0  0  0  0  0  0  0  0
  186.6750  177.1300  144.6220 C   0  0  0  0  0  3  0  0  0  0  0  0
  185.8400  177.2660  146.8910 C   0  0  0  0  0  0  0  0  0  0  0  0
  184.6270  178.4760  145.2310 C   0  0  0  0  0  3  0  0  0  0  0  0
  185.9170  176.9090  148.0970 O   0  0  0  0  0  0  0  0  0  0  0  0
  185.9100  178.9730  143.1570 C   0  0  0  0  0  2  0  0  0  0  0  0
  187.0180  178.4790  142.2370 C   0  0  0  0  0  2  0  0  0  0  0  0
  187.0130  176.8460  140.4980 O   0  0  0  0  0  1  0  0  0  0  0  0
  186.4380  177.8340  141.0230 C   0  0  0  0  0  0  0  0  0  0  0  0
  185.2820  178.3460  140.4520 O   0  0  0  0  0  0  0  0  0  0  0  0
  193.8290  174.6390  140.1840 C   0  0  0  0  0  2  0  0  0  0  0  0
  194.3410  173.6690  139.1130 C   0  0  1  0  0  3  0  0  0  0  0  0
  193.3020  173.2760  138.0420 C   0  0  1  0  0  3  0  0  0  0  0  0
  193.1520  171.7660  138.0220 C   0  0  0  0  0  1  0  0  0  0  0  0
  191.9240  173.9000  138.2280 C   0  0  0  0  0  2  0  0  0  0  0  0
  191.0000  172.9080  138.9140 C   0  0  0  0  0  2  0  0  0  0  0  0
  189.6390  173.5390  139.1660 C   0  0  1  0  0  3  0  0  0  0  0  0
  188.7580  173.3430  137.9470 C   0  0  0  0  0  1  0  0  0  0  0  0
  188.9910  172.9610  140.4250 C   0  0  0  0  0  3  0  0  0  0  0  0
  188.6740  173.9690  141.3400 O   0  0  0  0  0  1  0  0  0  0  0  0
  189.8370  172.0330  141.0200 O   0  0  0  0  0  1  0  0  0  0  0  0
  195.6090  174.2600  138.4870 C   0  0  1  0  0  3  0  0  0  0  0  0
  194.9360  175.5930  136.4900 O   0  0  0  0  0  1  0  0  0  0  0  0
  195.4970  174.4310  137.0050 C   0  0  0  0  0  0  0  0  0  0  0  0
  195.8980  173.5280  136.2240 O   0  0  0  0  0  0  0  0  0  0  0  0
  195.9770  175.4600  139.1020 O   0  0  0  0  0  0  0  0  0  0  0  0
  197.3670  175.3930  139.2180 C   0  0  0  0  0  2  0  0  0  0  0  0
  197.7400  175.0600  140.6450 C   0  0  0  0  0  1  0  0  0  0  0  0
  2  8  1  0  0  0  0
  2  6  1  1  0  0  0
  3  1  1  1  0  0  0
  3  7  1  0  0  0  0
  4 41  1  6  0  0  0
  4  5  1  0  0  0  0
  4  3  1  0  0  0  0
  5  2  1  0  0  0  0
  7  6  1  0  0  0  0
  7 21  1  1  0  0  0
  8 10  1  1  0  0  0
  9 11  1  0  0  0  0
  9  8  1  0  0  0  0
 11 20  1  6  0  0  0
 11  8  1  0  0  0  0
 12 17  1  0  0  0  0
 14 13  2  0  0  0  0
 14 18  1  0  0  0  0
 15 13  1  0  0  0  0
 16 14  1  0  0  0  0
 17 16  2  0  0  0  0
 17 15  1  0  0  0  0
 19 20  2  0  0  0  0
 20 12  1  0  0  0  0
 21 23  1  0  0  0  0
 23 22  1  1  0  0  0
 24 23  1  0  0  0  0
 24 27  1  1  0  0  0
 25 24  1  0  0  0  0
 25 23  1  0  0  0  0
 27 26  1  6  0  0  0
 28 27  1  0  0  0  0
 29 28  1  0  0  0  0
 29 33  1  0  0  0  0
 30 36  1  6  0  0  0
 30 32  1  0  0  0  0
 30 34  1  0  0  0  0
 31 33  1  0  0  0  0
 32 29  2  0  0  0  0
 33 35  2  0  0  0  0
 34 31  2  0  0  0  0
 37 36  1  0  0  0  0
 38 39  1  0  0  0  0
 39 37  1  0  0  0  0
 40 39  2  0  0  0  0
 42 41  1  1  0  0  0
 43 44  1  1  0  0  0
 43 45  1  0  0  0  0
 43 42  1  0  0  0  0
 45 46  1  0  0  0  0
 46 47  1  0  0  0  0
 47 48  1  6  0  0  0
 47 49  1  0  0  0  0
 49 51  1  0  0  0  0
 49 50  1  0  0  0  0
 52 54  1  6  0  0  0
 52 56  1  0  0  0  0
 52 42  1  0  0  0  0
 53 54  1  0  0  0  0
 55 54  2  0  0  0  0
 56 57  1  0  0  0  0
 57 58  1  0  0  0  0
M  END
>  <MODEL>
3

>  <REMARK>
 VINA RESULT:      -6.2      3.087      9.072
  Name = 
  21 active torsions:
  status: ('A' for Active; 'I' for Inactive)
    1  A    between atoms: C_2  and  C_32
    2  A    between atoms: C_2  and  C_34
    3  A    between atoms: C_3  and  N_54
    4  A    between atoms: C_5  and  C_10
    5  A    between atoms: C_6  and  C_48
    6  A    between atoms: C_7  and  C_9
    7  A    between atoms: C_7  and  C_32
    8  A    between atoms: C_7  and  O_53
    9  A    between atoms: C_8  and  C_20
   10  A    between atoms: C_8  and  C_58
   11  A    between atoms: C_13  and  O_53
   12  A    between atoms: C_17  and  C_35
   13  A    between atoms: C_17  and  C_58
   14  A    between atoms: C_21  and  C_23
   15  A    between atoms: C_21  and  C_48
   16  A    between atoms: C_24  and  C_29
   17  A    between atoms: C_24  and  C_44
   18  A    between atoms: C_32  and  C_35
   19  A    between atoms: C_39  and  C_55
   20  A    between atoms: C_49  and  C_56
   21  A    between atoms: N_54  and  C_55
                            x       y       z     vdW  Elec       q    Type
                         _______ _______ _______ _____ _____    ______ ____

>  <TORSDO>
F 21

$$$$
=
 OpenBabel11072409313D

 58 62  0  0  1  0  0  0  0  0999 V2000
  191.9020  173.1270  140.0880 O   0  0  0  0  0  1  0  0  0  0  0  0
  193.5890  173.2090  142.9400 C   0  0  1  0  0  3  0  0  0  0  0  0
  192.5110  172.0210  140.6790 C   0  0  1  0  0  3  0  0  0  0  0  0
  194.0060  172.3220  140.8970 C   0  0  1  0  0  3  0  0  0  0  0  0
  194.3910  172.2820  142.2580 O   0  0  0  0  0  0  0  0  0  0  0  0
  192.1700  172.6540  143.1170 C   0  0  0  0  0  2  0  0  0  0  0  0
  191.8190  171.6640  142.0050 C   0  0  1  0  0  3  0  0  0  0  0  0
  194.1990  173.5300  144.3030 C   0  0  2  0  0  0  0  0  0  0  0  0
  195.5160  173.9970  144.1890 O   0  0  0  0  0  0  0  0  0  0  0  0
  194.1000  172.5670  145.3080 O   0  0  0  0  0  1  0  0  0  0  0  0
  194.5790  174.8990  144.7420 C   0  0  1  0  0  3  0  0  0  0  0  0
  193.0710  176.7800  143.8510 N   0  0  0  0  0  2  0  0  0  0  0  0
  190.0990  176.9000  146.3390 C   0  0  0  0  0  3  0  0  0  0  0  0
  191.1340  176.1010  146.8210 C   0  0  0  0  0  0  0  0  0  0  0  0
  190.6210  177.5070  144.8530 S   0  0  0  0  0  0  0  0  0  0  0  0
  192.2410  176.0090  146.0340 N   0  0  0  0  0  0  0  0  0  0  0  0
  192.1040  176.7290  144.9030 C   0  0  0  0  0  0  0  0  0  0  0  0
  191.0400  175.3810  148.1180 C   0  0  0  0  0  1  0  0  0  0  0  0
  195.0380  176.1790  142.7900 O   0  0  0  0  0  0  0  0  0  0  0  0
  194.2470  175.9700  143.7410 C   0  0  0  0  0  0  0  0  0  0  0  0
  190.3030  171.5220  141.8860 C   0  0  0  0  0  2  0  0  0  0  0  0
  189.6470  173.0100  143.7840 O   0  0  0  0  0  1  0  0  0  0  0  0
  189.5440  172.7330  142.4190 C   0  0  1  0  0  0  0  0  0  0  0  0
  189.1250  173.8590  141.4810 C   0  0  1  0  0  3  0  0  0  0  0  0
  188.1190  172.8090  141.9260 C   0  0  0  0  0  2  0  0  0  0  0  0
  189.9920  175.9990  142.0640 O   0  0  0  0  0  1  0  0  0  0  0  0
  188.8870  175.1650  142.2230 C   0  0  1  0  0  3  0  0  0  0  0  0
  187.7010  175.8170  141.6850 N   0  0  0  0  0  2  0  0  0  0  0  0
  186.8090  176.6270  142.4590 C   0  0  0  0  0  0  0  0  0  0  0  0
  185.9840  177.5280  144.6330 C   0  0  1  0  0  3  0  0  0  0  0  0
  184.7830  178.1070  142.5640 N   0  0  0  0  0  0  0  0  0  0  0  0
  186.8730  176.6470  143.7940 C   0  0  0  0  0  3  0  0  0  0  0  0
  185.7670  177.4220  141.7840 C   0  0  0  0  0  0  0  0  0  0  0  0
  184.8420  178.1450  143.8610 C   0  0  0  0  0  3  0  0  0  0  0  0
  185.7240  177.4840  140.5270 O   0  0  0  0  0  0  0  0  0  0  0  0
  185.4570  176.7420  145.8220 C   0  0  0  0  0  2  0  0  0  0  0  0
  186.3230  176.9550  147.0550 C   0  0  0  0  0  2  0  0  0  0  0  0
  184.7720  178.6530  147.6870 O   0  0  0  0  0  0  0  0  0  0  0  0
  185.9560  178.2320  147.7350 C   0  0  0  0  0  0  0  0  0  0  0  0
  186.9300  178.9720  148.3900 O   0  0  0  0  0  1  0  0  0  0  0  0
  194.8590  171.3710  140.0650 C   0  0  0  0  0  2  0  0  0  0  0  0
  195.7300  172.1230  139.0510 C   0  0  1  0  0  3  0  0  0  0  0  0
  195.4760  171.7520  137.5750 C   0  0  1  0  0  3  0  0  0  0  0  0
  196.6820  171.0060  137.0340 C   0  0  0  0  0  1  0  0  0  0  0  0
  194.2320  170.9080  137.3320 C   0  0  0  0  0  2  0  0  0  0  0  0
  193.3780  171.5490  136.2520 C   0  0  0  0  0  2  0  0  0  0  0  0
  191.9020  171.4060  136.5880 C   0  0  1  0  0  3  0  0  0  0  0  0
  191.2710  172.7820  136.6930 C   0  0  0  0  0  1  0  0  0  0  0  0
  191.1840  170.5390  135.5530 C   0  0  0  0  0  3  0  0  0  0  0  0
  189.8610  170.9510  135.3760 O   0  0  0  0  0  1  0  0  0  0  0  0
  191.2150  169.2040  135.9390 O   0  0  0  0  0  1  0  0  0  0  0  0
  195.5710  173.6280  139.2960 C   0  0  1  0  0  3  0  0  0  0  0  0
  197.3950  175.3230  139.4260 O   0  0  0  0  0  0  0  0  0  0  0  0
  196.7520  174.2290  139.9900 C   0  0  0  0  0  0  0  0  0  0  0  0
  197.1700  173.7460  141.0750 O   0  0  0  0  0  1  0  0  0  0  0  0
  195.2840  174.3150  138.1120 O   0  0  0  0  0  0  0  0  0  0  0  0
  194.0870  174.9860  138.3680 C   0  0  0  0  0  2  0  0  0  0  0  0
  193.5690  175.6010  137.0870 C   0  0  0  0  0  1  0  0  0  0  0  0
  2  6  1  1  0  0  0
  2  8  1  0  0  0  0
  3  1  1  1  0  0  0
  3  4  1  0  0  0  0
  3  7  1  0  0  0  0
  4 41  1  6  0  0  0
  4  5  1  0  0  0  0
  5  2  1  0  0  0  0
  7 21  1  6  0  0  0
  7  6  1  0  0  0  0
  8 11  1  0  0  0  0
  8 10  1  1  0  0  0
  9  8  1  0  0  0  0
  9 11  1  0  0  0  0
 11 20  1  6  0  0  0
 12 17  1  0  0  0  0
 13 14  2  0  0  0  0
 14 18  1  0  0  0  0
 15 17  1  0  0  0  0
 15 13  1  0  0  0  0
 16 14  1  0  0  0  0
 17 16  2  0  0  0  0
 19 20  2  0  0  0  0
 20 12  1  0  0  0  0
 21 23  1  0  0  0  0
 23 22  1  1  0  0  0
 24 25  1  0  0  0  0
 24 27  1  1  0  0  0
 24 23  1  0  0  0  0
 25 23  1  0  0  0  0
 27 26  1  6  0  0  0
 28 27  1  0  0  0  0
 28 29  1  0  0  0  0
 29 32  2  0  0  0  0
 30 36  1  1  0  0  0
 31 34  2  0  0  0  0
 32 30  1  0  0  0  0
 33 29  1  0  0  0  0
 33 31  1  0  0  0  0
 34 30  1  0  0  0  0
 35 33  2  0  0  0  0
 36 37  1  0  0  0  0
 37 39  1  0  0  0  0
 38 39  2  0  0  0  0
 39 40  1  0  0  0  0
 42 52  1  0  0  0  0
 42 41  1  1  0  0  0
 43 44  1  1  0  0  0
 43 42  1  0  0  0  0
 45 43  1  0  0  0  0
 46 47  1  0  0  0  0
 46 45  1  0  0  0  0
 47 48  1  6  0  0  0
 49 51  1  0  0  0  0
 49 47  1  0  0  0  0
 50 49  1  0  0  0  0
 52 56  1  6  0  0  0
 52 54  1  0  0  0  0
 53 54  2  0  0  0  0
 54 55  1  0  0  0  0
 56 57  1  0  0  0  0
 58 57  1  0  0  0  0
M  END
>  <MODEL>
4

>  <REMARK>
 VINA RESULT:      -6.0      2.799     10.132
  Name = 
  21 active torsions:
  status: ('A' for Active; 'I' for Inactive)
    1  A    between atoms: C_2  and  C_32
    2  A    between atoms: C_2  and  C_34
    3  A    between atoms: C_3  and  N_54
    4  A    between atoms: C_5  and  C_10
    5  A    between atoms: C_6  and  C_48
    6  A    between atoms: C_7  and  C_9
    7  A    between atoms: C_7  and  C_32
    8  A    between atoms: C_7  and  O_53
    9  A    between atoms: C_8  and  C_20
   10  A    between atoms: C_8  and  C_58
   11  A    between atoms: C_13  and  O_53
   12  A    between atoms: C_17  and  C_35
   13  A    between atoms: C_17  and  C_58
   14  A    between atoms: C_21  and  C_23
   15  A    between atoms: C_21  and  C_48
   16  A    between atoms: C_24  and  C_29
   17  A    between atoms: C_24  and  C_44
   18  A    between atoms: C_32  and  C_35
   19  A    between atoms: C_39  and  C_55
   20  A    between atoms: C_49  and  C_56
   21  A    between atoms: N_54  and  C_55
                            x       y       z     vdW  Elec       q    Type
                         _______ _______ _______ _____ _____    ______ ____

>  <TORSDO>
F 21

$$$$
=
 OpenBabel11072409313D

 58 62  0  0  1  0  0  0  0  0999 V2000
  190.7050  172.3090  144.5940 O   0  0  0  0  0  1  0  0  0  0  0  0
  192.5660  174.9540  143.8660 C   0  0  1  0  0  3  0  0  0  0  0  0
  190.2720  173.3960  143.8350 C   0  0  1  0  0  3  0  0  0  0  0  0
  190.4570  174.6900  144.6530 C   0  0  1  0  0  3  0  0  0  0  0  0
  191.3390  175.6120  144.0440 O   0  0  0  0  0  0  0  0  0  0  0  0
  192.4720  173.9670  142.6960 C   0  0  0  0  0  2  0  0  0  0  0  0
  191.0380  173.4680  142.5040 C   0  0  1  0  0  3  0  0  0  0  0  0
  193.6750  175.9700  143.6050 C   0  0  2  0  0  0  0  0  0  0  0  0
  193.5540  177.0990  144.4280 O   0  0  0  0  0  0  0  0  0  0  0  0
  193.9240  176.3440  142.2850 O   0  0  0  0  0  1  0  0  0  0  0  0
  194.7250  176.3270  144.5980 C   0  0  1  0  0  3  0  0  0  0  0  0
  195.3270  174.2980  146.0560 N   0  0  0  0  0  2  0  0  0  0  0  0
  197.5770  172.1040  143.7840 C   0  0  0  0  0  3  0  0  0  0  0  0
  197.3710  173.3660  143.2290 C   0  0  0  0  0  0  0  0  0  0  0  0
  196.7580  172.0950  145.2590 S   0  0  0  0  0  0  0  0  0  0  0  0
  196.6110  174.2290  143.9590 N   0  0  0  0  0  0  0  0  0  0  0  0
  196.1920  173.6640  145.1090 C   0  0  0  0  0  0  0  0  0  0  0  0
  197.9370  173.7540  141.9110 C   0  0  0  0  0  1  0  0  0  0  0  0
  193.9680  176.0040  146.8290 O   0  0  0  0  0  0  0  0  0  0  0  0
  194.6410  175.5430  145.8760 C   0  0  0  0  0  0  0  0  0  0  0  0
  191.0370  172.1560  141.7250 C   0  0  0  0  0  2  0  0  0  0  0  0
  192.2940  172.3510  139.5740 O   0  0  0  0  0  1  0  0  0  0  0  0
  191.0530  172.3570  140.2130 C   0  0  1  0  0  0  0  0  0  0  0  0
  189.8070  172.0730  139.3800 C   0  0  1  0  0  3  0  0  0  0  0  0
  190.1800  173.5000  139.7530 C   0  0  0  0  0  2  0  0  0  0  0  0
  189.6830  170.5410  137.5620 O   0  0  0  0  0  1  0  0  0  0  0  0
  190.1430  171.8060  137.9210 C   0  0  1  0  0  3  0  0  0  0  0  0
  189.5030  172.8130  137.0860 N   0  0  0  0  0  2  0  0  0  0  0  0
  190.2150  173.7760  136.3000 C   0  0  0  0  0  0  0  0  0  0  0  0
  192.3040  174.6440  135.2510 C   0  0  1  0  0  3  0  0  0  0  0  0
  190.2340  175.9630  135.0660 N   0  0  0  0  0  0  0  0  0  0  0  0
  191.5360  173.6780  136.1150 C   0  0  0  0  0  3  0  0  0  0  0  0
  189.4970  174.9240  135.7180 C   0  0  0  0  0  0  0  0  0  0  0  0
  191.5130  175.8730  134.8670 C   0  0  0  0  0  3  0  0  0  0  0  0
  188.2440  175.0090  135.8110 O   0  0  0  0  0  0  0  0  0  0  0  0
  193.5960  175.0400  135.9470 C   0  0  0  0  0  2  0  0  0  0  0  0
  194.7820  174.2600  135.3980 C   0  0  0  0  0  2  0  0  0  0  0  0
  196.8010  174.0500  136.6500 O   0  0  0  0  0  0  0  0  0  0  0  0
  195.6000  173.7010  136.5130 C   0  0  0  0  0  0  0  0  0  0  0  0
  195.0460  172.7690  137.3790 O   0  0  0  0  0  1  0  0  0  0  0  0
  189.1030  175.3350  144.9260 C   0  0  0  0  0  2  0  0  0  0  0  0
  189.2270  176.8430  145.1690 C   0  0  1  0  0  3  0  0  0  0  0  0
  188.5790  177.7320  144.0870 C   0  0  1  0  0  3  0  0  0  0  0  0
  189.5750  177.9570  142.9650 C   0  0  0  0  0  1  0  0  0  0  0  0
  187.2900  177.1780  143.4910 C   0  0  0  0  0  2  0  0  0  0  0  0
  186.4030  178.3220  143.0320 C   0  0  0  0  0  2  0  0  0  0  0  0
  185.2710  177.7980  142.1620 C   0  0  1  0  0  3  0  0  0  0  0  0
  183.9450  178.3000  142.7020 C   0  0  0  0  0  1  0  0  0  0  0  0
  185.4690  178.2020  140.7010 C   0  0  0  0  0  3  0  0  0  0  0  0
  184.5380  177.5730  139.8710 O   0  0  0  0  0  1  0  0  0  0  0  0
  186.7580  177.8890  140.2850 O   0  0  0  0  0  1  0  0  0  0  0  0
  188.6800  177.1570  146.5670 C   0  0  1  0  0  3  0  0  0  0  0  0
  190.7930  176.6860  147.8040 O   0  0  0  0  0  0  0  0  0  0  0  0
  189.7510  177.5620  147.5290 C   0  0  0  0  0  0  0  0  0  0  0  0
  189.7090  178.6860  148.0970 O   0  0  0  0  0  1  0  0  0  0  0  0
  187.6630  178.1150  146.5190 O   0  0  0  0  0  0  0  0  0  0  0  0
  186.5270  177.4550  146.9900 C   0  0  0  0  0  2  0  0  0  0  0  0
  185.9300  178.2340  148.1400 C   0  0  0  0  0  1  0  0  0  0  0  0
  2  6  1  6  0  0  0
  2  5  1  0  0  0  0
  3  1  1  1  0  0  0
  3  4  1  0  0  0  0
  4 41  1  6  0  0  0
  5  4  1  0  0  0  0
  7 21  1  1  0  0  0
  7  6  1  0  0  0  0
  7  3  1  0  0  0  0
  8 10  1  6  0  0  0
  8  2  1  0  0  0  0
  8  9  1  0  0  0  0
  8 11  1  0  0  0  0
  9 11  1  0  0  0  0
 11 20  1  1  0  0  0
 13 15  1  0  0  0  0
 14 13  2  0  0  0  0
 14 16  1  0  0  0  0
 16 17  2  0  0  0  0
 17 15  1  0  0  0  0
 17 12  1  0  0  0  0
 18 14  1  0  0  0  0
 20 12  1  0  0  0  0
 20 19  2  0  0  0  0
 23 22  1  6  0  0  0
 23 21  1  0  0  0  0
 24 27  1  6  0  0  0
 24 25  1  0  0  0  0
 24 23  1  0  0  0  0
 25 23  1  0  0  0  0
 27 26  1  6  0  0  0
 28 27  1  0  0  0  0
 29 28  1  0  0  0  0
 30 36  1  1  0  0  0
 30 32  1  0  0  0  0
 31 33  1  0  0  0  0
 32 29  2  0  0  0  0
 33 35  2  0  0  0  0
 33 29  1  0  0  0  0
 34 31  2  0  0  0  0
 34 30  1  0  0  0  0
 37 36  1  0  0  0  0
 37 39  1  0  0  0  0
 39 38  2  0  0  0  0
 39 40  1  0  0  0  0
 42 41  1  6  0  0  0
 42 52  1  0  0  0  0
 43 44  1  6  0  0  0
 43 42  1  0  0  0  0
 45 43  1  0  0  0  0
 46 45  1  0  0  0  0
 47 48  1  1  0  0  0
 47 46  1  0  0  0  0
 49 47  1  0  0  0  0
 50 49  1  0  0  0  0
 51 49  1  0  0  0  0
 52 56  1  6  0  0  0
 52 54  1  0  0  0  0
 54 53  2  0  0  0  0
 54 55  1  0  0  0  0
 56 57  1  0  0  0  0
 57 58  1  0  0  0  0
M  END
>  <MODEL>
5

>  <REMARK>
 VINA RESULT:      -6.0      2.579      6.783
  Name = 
  21 active torsions:
  status: ('A' for Active; 'I' for Inactive)
    1  A    between atoms: C_2  and  C_32
    2  A    between atoms: C_2  and  C_34
    3  A    between atoms: C_3  and  N_54
    4  A    between atoms: C_5  and  C_10
    5  A    between atoms: C_6  and  C_48
    6  A    between atoms: C_7  and  C_9
    7  A    between atoms: C_7  and  C_32
    8  A    between atoms: C_7  and  O_53
    9  A    between atoms: C_8  and  C_20
   10  A    between atoms: C_8  and  C_58
   11  A    between atoms: C_13  and  O_53
   12  A    between atoms: C_17  and  C_35
   13  A    between atoms: C_17  and  C_58
   14  A    between atoms: C_21  and  C_23
   15  A    between atoms: C_21  and  C_48
   16  A    between atoms: C_24  and  C_29
   17  A    between atoms: C_24  and  C_44
   18  A    between atoms: C_32  and  C_35
   19  A    between atoms: C_39  and  C_55
   20  A    between atoms: C_49  and  C_56
   21  A    between atoms: N_54  and  C_55
                            x       y       z     vdW  Elec       q    Type
                         _______ _______ _______ _____ _____    ______ ____

>  <TORSDO>
F 21

$$$$
=
 OpenBabel11072409313D

 58 62  0  0  1  0  0  0  0  0999 V2000
  192.4560  171.9460  144.3520 O   0  0  0  0  0  1  0  0  0  0  0  0
  190.6270  172.6890  141.6900 C   0  0  1  0  0  3  0  0  0  0  0  0
  192.2900  173.2330  143.8410 C   0  0  1  0  0  3  0  0  0  0  0  0
  192.7180  173.2480  142.3600 C   0  0  1  0  0  3  0  0  0  0  0  0
  191.6700  173.6040  141.4800 O   0  0  0  0  0  0  0  0  0  0  0  0
  189.9010  173.0060  143.0040 C   0  0  0  0  0  2  0  0  0  0  0  0
  190.8330  173.6970  144.0000 C   0  0  1  0  0  3  0  0  0  0  0  0
  189.6420  172.7370  140.5240 C   0  0  2  0  0  0  0  0  0  0  0  0
  190.2980  172.8760  139.2920 O   0  0  0  0  0  0  0  0  0  0  0  0
  188.5640  173.6180  140.6120 O   0  0  0  0  0  1  0  0  0  0  0  0
  189.5500  171.6900  139.4710 C   0  0  1  0  0  3  0  0  0  0  0  0
  191.1530  169.8760  138.6100 N   0  0  0  0  0  2  0  0  0  0  0  0
  191.1660  170.3410  134.7590 C   0  0  0  0  0  3  0  0  0  0  0  0
  190.5400  171.4100  135.3990 C   0  0  0  0  0  0  0  0  0  0  0  0
  191.6860  169.2970  135.9790 S   0  0  0  0  0  0  0  0  0  0  0  0
  190.5010  171.3600  136.7590 N   0  0  0  0  0  0  0  0  0  0  0  0
  191.0910  170.2420  137.2280 C   0  0  0  0  0  0  0  0  0  0  0  0
  189.9390  172.5410  134.6460 C   0  0  0  0  0  1  0  0  0  0  0  0
  190.6840  170.1290  140.8620 O   0  0  0  0  0  0  0  0  0  0  0  0
  190.4760  170.5280  139.6900 C   0  0  0  0  0  0  0  0  0  0  0  0
  190.2930  173.5430  145.4200 C   0  0  0  0  0  2  0  0  0  0  0  0
  191.2680  175.5540  146.5390 O   0  0  0  0  0  1  0  0  0  0  0  0
  190.1140  174.8750  146.1410 C   0  0  1  0  0  0  0  0  0  0  0  0
  188.8210  175.6700  145.9930 C   0  0  1  0  0  3  0  0  0  0  0  0
  189.0740  174.8290  147.2340 C   0  0  0  0  0  2  0  0  0  0  0  0
  189.3240  177.8340  145.1360 O   0  0  0  0  0  1  0  0  0  0  0  0
  189.0160  177.1440  146.3080 C   0  0  1  0  0  3  0  0  0  0  0  0
  187.7900  177.6810  146.8820 N   0  0  0  0  0  2  0  0  0  0  0  0
  186.5940  177.9300  146.1330 C   0  0  0  0  0  0  0  0  0  0  0  0
  185.0720  177.4840  144.2100 C   0  0  1  0  0  3  0  0  0  0  0  0
  184.5260  179.3080  145.7700 N   0  0  0  0  0  0  0  0  0  0  0  0
  186.3440  177.2820  144.9920 C   0  0  0  0  0  3  0  0  0  0  0  0
  185.6380  178.9530  146.5970 C   0  0  0  0  0  0  0  0  0  0  0  0
  184.2640  178.6760  144.6670 C   0  0  0  0  0  3  0  0  0  0  0  0
  185.8060  179.5310  147.7030 O   0  0  0  0  0  0  0  0  0  0  0  0
  185.3920  177.5950  142.7290 C   0  0  0  0  0  2  0  0  0  0  0  0
  186.5470  178.5560  142.4830 C   0  0  0  0  0  2  0  0  0  0  0  0
  187.2850  176.9770  140.8540 O   0  0  0  0  0  0  0  0  0  0  0  0
  187.5950  177.9060  141.6430 C   0  0  0  0  0  0  0  0  0  0  0  0
  188.9190  178.3040  141.7590 O   0  0  0  0  0  1  0  0  0  0  0  0
  193.9200  174.1670  142.1710 C   0  0  0  0  0  2  0  0  0  0  0  0
  195.2450  173.4260  142.3850 C   0  0  1  0  0  3  0  0  0  0  0  0
  196.1180  173.2780  141.1210 C   0  0  1  0  0  3  0  0  0  0  0  0
  196.5320  171.8260  140.9690 C   0  0  0  0  0  1  0  0  0  0  0  0
  195.4540  173.7330  139.8280 C   0  0  0  0  0  2  0  0  0  0  0  0
  194.8430  172.5390  139.1160 C   0  0  0  0  0  2  0  0  0  0  0  0
  193.6840  172.9820  138.2350 C   0  0  1  0  0  3  0  0  0  0  0  0
  193.4130  174.4570  138.4620 C   0  0  0  0  0  1  0  0  0  0  0  0
  193.9690  172.6840  136.7630 C   0  0  0  0  0  3  0  0  0  0  0  0
  194.5300  171.4150  136.6020 O   0  0  0  0  0  1  0  0  0  0  0  0
  194.8190  173.6470  136.2320 O   0  0  0  0  0  1  0  0  0  0  0  0
  196.0060  174.1100  143.5260 C   0  0  1  0  0  3  0  0  0  0  0  0
  196.9200  173.6760  145.8050 O   0  0  0  0  0  1  0  0  0  0  0  0
  196.2660  173.1930  144.6800 C   0  0  0  0  0  0  0  0  0  0  0  0
  195.9030  171.9870  144.6320 O   0  0  0  0  0  0  0  0  0  0  0  0
  197.1940  174.6950  143.0760 O   0  0  0  0  0  0  0  0  0  0  0  0
  197.0440  176.0580  143.3380 C   0  0  0  0  0  2  0  0  0  0  0  0
  196.5240  176.7550  142.1010 C   0  0  0  0  0  1  0  0  0  0  0  0
  2  6  1  1  0  0  0
  3  7  1  0  0  0  0
  3  1  1  6  0  0  0
  4 41  1  1  0  0  0
  4  3  1  0  0  0  0
  5  2  1  0  0  0  0
  5  4  1  0  0  0  0
  6  7  1  0  0  0  0
  7 21  1  1  0  0  0
  8 10  1  1  0  0  0
  8  2  1  0  0  0  0
  9 11  1  0  0  0  0
  9  8  1  0  0  0  0
 11 20  1  1  0  0  0
 11  8  1  0  0  0  0
 12 20  1  0  0  0  0
 13 14  2  0  0  0  0
 13 15  1  0  0  0  0
 14 16  1  0  0  0  0
 15 17  1  0  0  0  0
 16 17  2  0  0  0  0
 17 12  1  0  0  0  0
 18 14  1  0  0  0  0
 20 19  2  0  0  0  0
 21 23  1  0  0  0  0
 23 22  1  1  0  0  0
 23 25  1  0  0  0  0
 24 23  1  0  0  0  0
 24 27  1  1  0  0  0
 24 25  1  0  0  0  0
 27 26  1  6  0  0  0
 27 28  1  0  0  0  0
 29 33  1  0  0  0  0
 29 28  1  0  0  0  0
 30 36  1  6  0  0  0
 30 34  1  0  0  0  0
 30 32  1  0  0  0  0
 31 33  1  0  0  0  0
 32 29  2  0  0  0  0
 33 35  2  0  0  0  0
 34 31  2  0  0  0  0
 37 36  1  0  0  0  0
 38 39  2  0  0  0  0
 39 40  1  0  0  0  0
 39 37  1  0  0  0  0
 42 41  1  6  0  0  0
 42 52  1  0  0  0  0
 43 44  1  6  0  0  0
 43 42  1  0  0  0  0
 45 43  1  0  0  0  0
 46 45  1  0  0  0  0
 47 48  1  6  0  0  0
 47 46  1  0  0  0  0
 49 47  1  0  0  0  0
 50 49  1  0  0  0  0
 51 49  1  0  0  0  0
 52 56  1  6  0  0  0
 52 54  1  0  0  0  0
 54 53  1  0  0  0  0
 55 54  2  0  0  0  0
 56 57  1  0  0  0  0
 58 57  1  0  0  0  0
M  END
>  <MODEL>
6

>  <REMARK>
 VINA RESULT:      -5.9      2.986      8.913
  Name = 
  21 active torsions:
  status: ('A' for Active; 'I' for Inactive)
    1  A    between atoms: C_2  and  C_32
    2  A    between atoms: C_2  and  C_34
    3  A    between atoms: C_3  and  N_54
    4  A    between atoms: C_5  and  C_10
    5  A    between atoms: C_6  and  C_48
    6  A    between atoms: C_7  and  C_9
    7  A    between atoms: C_7  and  C_32
    8  A    between atoms: C_7  and  O_53
    9  A    between atoms: C_8  and  C_20
   10  A    between atoms: C_8  and  C_58
   11  A    between atoms: C_13  and  O_53
   12  A    between atoms: C_17  and  C_35
   13  A    between atoms: C_17  and  C_58
   14  A    between atoms: C_21  and  C_23
   15  A    between atoms: C_21  and  C_48
   16  A    between atoms: C_24  and  C_29
   17  A    between atoms: C_24  and  C_44
   18  A    between atoms: C_32  and  C_35
   19  A    between atoms: C_39  and  C_55
   20  A    between atoms: C_49  and  C_56
   21  A    between atoms: N_54  and  C_55
                            x       y       z     vdW  Elec       q    Type
                         _______ _______ _______ _____ _____    ______ ____

>  <TORSDO>
F 21

$$$$
=
 OpenBabel11072409313D

 58 62  0  0  1  0  0  0  0  0999 V2000
  192.5370  172.8800  139.2620 O   0  0  0  0  0  1  0  0  0  0  0  0
  192.2320  172.4740  142.5380 C   0  0  1  0  0  3  0  0  0  0  0  0
  191.8270  171.8430  139.8680 C   0  0  1  0  0  3  0  0  0  0  0  0
  192.7620  171.0840  140.8290 C   0  0  1  0  0  3  0  0  0  0  0  0
  192.3300  171.1220  142.1750 O   0  0  0  0  0  0  0  0  0  0  0  0
  190.9820  173.1020  141.9090 C   0  0  0  0  0  2  0  0  0  0  0  0
  190.5970  172.3900  140.6110 C   0  0  1  0  0  3  0  0  0  0  0  0
  192.1750  172.6090  144.0580 C   0  0  2  0  0  0  0  0  0  0  0  0
  193.4100  172.3150  144.6550 O   0  0  0  0  0  0  0  0  0  0  0  0
  191.1350  171.9710  144.7340 O   0  0  0  0  0  1  0  0  0  0  0  0
  192.9300  173.6330  144.8300 C   0  0  1  0  0  3  0  0  0  0  0  0
  193.2550  175.9090  143.6830 N   0  0  0  0  0  2  0  0  0  0  0  0
  190.0720  177.9240  144.6040 C   0  0  0  0  0  3  0  0  0  0  0  0
  190.1700  176.7540  145.3570 C   0  0  0  0  0  0  0  0  0  0  0  0
  191.4390  177.9660  143.6140 S   0  0  0  0  0  0  0  0  0  0  0  0
  191.2670  175.9810  145.1290 N   0  0  0  0  0  0  0  0  0  0  0  0
  192.0620  176.5190  144.1830 C   0  0  0  0  0  0  0  0  0  0  0  0
  189.1350  176.3620  146.3480 C   0  0  0  0  0  1  0  0  0  0  0  0
  194.8200  174.2120  143.5070 O   0  0  0  0  0  0  0  0  0  0  0  0
  193.7140  174.5830  143.9700 C   0  0  0  0  0  0  0  0  0  0  0  0
  189.7170  173.2970  139.7540 C   0  0  0  0  0  2  0  0  0  0  0  0
  187.6990  173.0620  141.2090 O   0  0  0  0  0  1  0  0  0  0  0  0
  188.5650  173.9240  140.5320 C   0  0  1  0  0  0  0  0  0  0  0  0
  188.6320  175.3810  140.9780 C   0  0  1  0  0  3  0  0  0  0  0  0
  187.8230  174.9840  139.7530 C   0  0  0  0  0  2  0  0  0  0  0  0
  188.2720  175.1630  143.3220 O   0  0  0  0  0  1  0  0  0  0  0  0
  187.7070  175.6640  142.1510 C   0  0  1  0  0  3  0  0  0  0  0  0
  187.5150  177.1020  142.2780 N   0  0  0  0  0  2  0  0  0  0  0  0
  186.2910  177.7150  142.7010 C   0  0  0  0  0  0  0  0  0  0  0  0
  184.8690  178.8260  144.4210 C   0  0  1  0  0  3  0  0  0  0  0  0
  183.9020  178.3200  142.2150 N   0  0  0  0  0  0  0  0  0  0  0  0
  186.1240  178.1310  143.9600 C   0  0  0  0  0  3  0  0  0  0  0  0
  185.1720  177.8510  141.7500 C   0  0  0  0  0  0  0  0  0  0  0  0
  183.7310  178.7410  143.4310 C   0  0  0  0  0  3  0  0  0  0  0  0
  185.3190  177.5360  140.5400 O   0  0  0  0  0  0  0  0  0  0  0  0
  184.4410  178.2710  145.7700 C   0  0  0  0  0  2  0  0  0  0  0  0
  185.0950  179.0320  146.9140 C   0  0  0  0  0  2  0  0  0  0  0  0
  185.9700  176.9070  147.5550 O   0  0  0  0  0  0  0  0  0  0  0  0
  186.0700  178.1590  147.6310 C   0  0  0  0  0  0  0  0  0  0  0  0
  187.0670  178.7290  148.4100 O   0  0  0  0  0  1  0  0  0  0  0  0
  192.9400  169.6440  140.3580 C   0  0  0  0  0  2  0  0  0  0  0  0
  194.2430  169.4570  139.5730 C   0  0  1  0  0  3  0  0  0  0  0  0
  194.0820  169.4480  138.0380 C   0  0  1  0  0  3  0  0  0  0  0  0
  195.0420  168.4360  137.4410 C   0  0  0  0  0  1  0  0  0  0  0  0
  192.6740  169.1350  137.5450 C   0  0  0  0  0  2  0  0  0  0  0  0
  192.2530  170.1610  136.5070 C   0  0  0  0  0  2  0  0  0  0  0  0
  190.7650  170.0410  136.2180 C   0  0  1  0  0  3  0  0  0  0  0  0
  190.0220  169.7400  137.5060 C   0  0  0  0  0  1  0  0  0  0  0  0
  190.2320  171.3080  135.5480 C   0  0  0  0  0  3  0  0  0  0  0  0
  191.1160  171.7740  134.5710 O   0  0  0  0  0  1  0  0  0  0  0  0
  190.0130  172.3000  136.4970 O   0  0  0  0  0  1  0  0  0  0  0  0
  195.2460  170.5210  140.0340 C   0  0  1  0  0  3  0  0  0  0  0  0
  196.9450  169.0140  141.0640 O   0  0  0  0  0  0  0  0  0  0  0  0
  196.0620  170.0770  141.2060 C   0  0  0  0  0  0  0  0  0  0  0  0
  195.9480  170.6540  142.3200 O   0  0  0  0  0  1  0  0  0  0  0  0
  196.0680  170.9430  138.9840 O   0  0  0  0  0  0  0  0  0  0  0  0
  196.0060  172.3370  139.0190 C   0  0  0  0  0  2  0  0  0  0  0  0
  195.5970  172.8590  137.6600 C   0  0  0  0  0  1  0  0  0  0  0  0
  2  6  1  6  0  0  0
  2  8  1  0  0  0  0
  3  1  1  1  0  0  0
  3  7  1  0  0  0  0
  3  4  1  0  0  0  0
  4 41  1  6  0  0  0
  4  5  1  0  0  0  0
  5  2  1  0  0  0  0
  7 21  1  6  0  0  0
  7  6  1  0  0  0  0
  8  9  1  0  0  0  0
  8 10  1  1  0  0  0
  8 11  1  0  0  0  0
  9 11  1  0  0  0  0
 11 20  1  6  0  0  0
 12 20  1  0  0  0  0
 12 17  1  0  0  0  0
 13 14  2  0  0  0  0
 14 18  1  0  0  0  0
 15 17  1  0  0  0  0
 15 13  1  0  0  0  0
 16 14  1  0  0  0  0
 17 16  2  0  0  0  0
 19 20  2  0  0  0  0
 21 23  1  0  0  0  0
 23 24  1  0  0  0  0
 23 22  1  1  0  0  0
 24 27  1  1  0  0  0
 25 23  1  0  0  0  0
 25 24  1  0  0  0  0
 27 28  1  0  0  0  0
 27 26  1  1  0  0  0
 28 29  1  0  0  0  0
 29 32  2  0  0  0  0
 30 36  1  1  0  0  0
 31 34  2  0  0  0  0
 32 30  1  0  0  0  0
 33 31  1  0  0  0  0
 33 29  1  0  0  0  0
 34 30  1  0  0  0  0
 35 33  2  0  0  0  0
 36 37  1  0  0  0  0
 37 39  1  0  0  0  0
 38 39  2  0  0  0  0
 39 40  1  0  0  0  0
 42 52  1  0  0  0  0
 42 41  1  1  0  0  0
 43 44  1  6  0  0  0
 43 42  1  0  0  0  0
 45 43  1  0  0  0  0
 46 45  1  0  0  0  0
 47 46  1  0  0  0  0
 47 48  1  1  0  0  0
 49 47  1  0  0  0  0
 49 51  1  0  0  0  0
 50 49  1  0  0  0  0
 52 56  1  6  0  0  0
 52 54  1  0  0  0  0
 53 54  2  0  0  0  0
 54 55  1  0  0  0  0
 56 57  1  0  0  0  0
 58 57  1  0  0  0  0
M  END
>  <MODEL>
7

>  <REMARK>
 VINA RESULT:      -5.7      3.092     10.235
  Name = 
  21 active torsions:
  status: ('A' for Active; 'I' for Inactive)
    1  A    between atoms: C_2  and  C_32
    2  A    between atoms: C_2  and  C_34
    3  A    between atoms: C_3  and  N_54
    4  A    between atoms: C_5  and  C_10
    5  A    between atoms: C_6  and  C_48
    6  A    between atoms: C_7  and  C_9
    7  A    between atoms: C_7  and  C_32
    8  A    between atoms: C_7  and  O_53
    9  A    between atoms: C_8  and  C_20
   10  A    between atoms: C_8  and  C_58
   11  A    between atoms: C_13  and  O_53
   12  A    between atoms: C_17  and  C_35
   13  A    between atoms: C_17  and  C_58
   14  A    between atoms: C_21  and  C_23
   15  A    between atoms: C_21  and  C_48
   16  A    between atoms: C_24  and  C_29
   17  A    between atoms: C_24  and  C_44
   18  A    between atoms: C_32  and  C_35
   19  A    between atoms: C_39  and  C_55
   20  A    between atoms: C_49  and  C_56
   21  A    between atoms: N_54  and  C_55
                            x       y       z     vdW  Elec       q    Type
                         _______ _______ _______ _____ _____    ______ ____

>  <TORSDO>
F 21

$$$$
=
 OpenBabel11072409313D

 58 62  0  0  1  0  0  0  0  0999 V2000
  192.5790  172.2770  144.1720 O   0  0  0  0  0  1  0  0  0  0  0  0
  190.2280  172.8710  141.9120 C   0  0  1  0  0  3  0  0  0  0  0  0
  192.2110  173.5470  143.7280 C   0  0  1  0  0  3  0  0  0  0  0  0
  192.3520  173.6070  142.1940 C   0  0  1  0  0  3  0  0  0  0  0  0
  191.1310  173.8750  141.5320 O   0  0  0  0  0  0  0  0  0  0  0  0
  189.7360  173.1150  143.3440 C   0  0  0  0  0  2  0  0  0  0  0  0
  190.7760  173.8800  144.1650 C   0  0  1  0  0  3  0  0  0  0  0  0
  189.0420  172.8390  140.9500 C   0  0  2  0  0  0  0  0  0  0  0  0
  189.2400  173.6840  139.8490 O   0  0  0  0  0  0  0  0  0  0  0  0
  187.7630  173.0080  141.4810 O   0  0  0  0  0  1  0  0  0  0  0  0
  189.1120  172.3060  139.5630 C   0  0  1  0  0  3  0  0  0  0  0  0
  191.1220  172.0620  137.9800 N   0  0  0  0  0  2  0  0  0  0  0  0
  190.2310  174.2870  134.9310 C   0  0  0  0  0  3  0  0  0  0  0  0
  189.3570  174.5070  135.9950 C   0  0  0  0  0  0  0  0  0  0  0  0
  191.3450  173.1370  135.4640 S   0  0  0  0  0  0  0  0  0  0  0  0
  189.5950  173.7920  137.1280 N   0  0  0  0  0  0  0  0  0  0  0  0
  190.6620  172.9820  136.9850 C   0  0  0  0  0  0  0  0  0  0  0  0
  188.2210  175.4610  135.9010 C   0  0  0  0  0  1  0  0  0  0  0  0
  191.0170  170.9530  140.0090 O   0  0  0  0  0  0  0  0  0  0  0  0
  190.4520  171.7310  139.2020 C   0  0  0  0  0  0  0  0  0  0  0  0
  190.5250  173.6720  145.6570 C   0  0  0  0  0  2  0  0  0  0  0  0
  191.1480  175.7020  146.9740 O   0  0  0  0  0  1  0  0  0  0  0  0
  190.1280  174.9530  146.3830 C   0  0  1  0  0  0  0  0  0  0  0  0
  188.8100  175.6500  146.0620 C   0  0  1  0  0  3  0  0  0  0  0  0
  188.9430  174.7780  147.3010 C   0  0  0  0  0  2  0  0  0  0  0  0
  189.1800  177.8880  145.3400 O   0  0  0  0  0  1  0  0  0  0  0  0
  188.8300  177.1200  146.4490 C   0  0  1  0  0  3  0  0  0  0  0  0
  187.5100  177.5140  146.9180 N   0  0  0  0  0  2  0  0  0  0  0  0
  186.4250  177.8760  146.0550 C   0  0  0  0  0  0  0  0  0  0  0  0
  185.4170  178.1570  143.7920 C   0  0  1  0  0  3  0  0  0  0  0  0
  184.1330  178.8610  145.7700 N   0  0  0  0  0  0  0  0  0  0  0  0
  186.5540  177.8320  144.7250 C   0  0  0  0  0  3  0  0  0  0  0  0
  185.1560  178.3540  146.6320 C   0  0  0  0  0  0  0  0  0  0  0  0
  184.2390  178.8100  144.4770 C   0  0  0  0  0  3  0  0  0  0  0  0
  184.9750  178.3410  147.8790 O   0  0  0  0  0  0  0  0  0  0  0  0
  185.9200  179.0300  142.6540 C   0  0  0  0  0  2  0  0  0  0  0  0
  187.2230  178.4940  142.0800 C   0  0  0  0  0  2  0  0  0  0  0  0
  187.4190  176.2420  141.3190 O   0  0  0  0  0  1  0  0  0  0  0  0
  186.9520  177.3910  141.1120 C   0  0  0  0  0  0  0  0  0  0  0  0
  186.2130  177.6430  139.9650 O   0  0  0  0  0  0  0  0  0  0  0  0
  193.4150  174.6290  141.8060 C   0  0  0  0  0  2  0  0  0  0  0  0
  194.8190  174.0140  141.7880 C   0  0  1  0  0  3  0  0  0  0  0  0
  195.3300  173.6020  140.3910 C   0  0  1  0  0  3  0  0  0  0  0  0
  195.6520  172.1180  140.3960 C   0  0  0  0  0  1  0  0  0  0  0  0
  194.3660  173.8880  139.2470 C   0  0  0  0  0  2  0  0  0  0  0  0
  194.9280  174.9900  138.3660 C   0  0  0  0  0  2  0  0  0  0  0  0
  195.9210  174.4150  137.3660 C   0  0  1  0  0  3  0  0  0  0  0  0
  195.3560  173.1410  136.7690 C   0  0  0  0  0  1  0  0  0  0  0  0
  196.2630  175.4380  136.2830 C   0  0  0  0  0  3  0  0  0  0  0  0
  196.1420  174.8840  135.0060 O   0  0  0  0  0  1  0  0  0  0  0  0
  197.5530  175.9220  136.4670 O   0  0  0  0  0  1  0  0  0  0  0  0
  195.7830  174.9810  142.4850 C   0  0  1  0  0  3  0  0  0  0  0  0
  195.4150  177.1190  141.2550 O   0  0  0  0  0  1  0  0  0  0  0  0
  196.2650  176.0700  141.5790 C   0  0  0  0  0  0  0  0  0  0  0  0
  197.4310  176.0360  141.1030 O   0  0  0  0  0  0  0  0  0  0  0  0
  195.2260  175.5120  143.6520 O   0  0  0  0  0  0  0  0  0  0  0  0
  195.6410  174.6530  144.6700 C   0  0  0  0  0  2  0  0  0  0  0  0
  197.1470  174.5190  144.6360 C   0  0  0  0  0  1  0  0  0  0  0  0
  2  6  1  1  0  0  0
  3  7  1  0  0  0  0
  3  1  1  6  0  0  0
  4 41  1  1  0  0  0
  4  3  1  0  0  0  0
  5  2  1  0  0  0  0
  5  4  1  0  0  0  0
  6  7  1  0  0  0  0
  7 21  1  1  0  0  0
  8 10  1  1  0  0  0
  8  2  1  0  0  0  0
  9  8  1  0  0  0  0
 11 20  1  1  0  0  0
 11  9  1  0  0  0  0
 11  8  1  0  0  0  0
 12 20  1  0  0  0  0
 13 15  1  0  0  0  0
 13 14  2  0  0  0  0
 14 16  1  0  0  0  0
 15 17  1  0  0  0  0
 17 16  2  0  0  0  0
 17 12  1  0  0  0  0
 18 14  1  0  0  0  0
 20 19  2  0  0  0  0
 21 23  1  0  0  0  0
 23 22  1  1  0  0  0
 23 25  1  0  0  0  0
 24 23  1  0  0  0  0
 24 27  1  1  0  0  0
 24 25  1  0  0  0  0
 27 26  1  6  0  0  0
 27 28  1  0  0  0  0
 29 33  1  0  0  0  0
 29 28  1  0  0  0  0
 30 36  1  6  0  0  0
 30 34  1  0  0  0  0
 30 32  1  0  0  0  0
 31 33  1  0  0  0  0
 32 29  2  0  0  0  0
 33 35  2  0  0  0  0
 34 31  2  0  0  0  0
 37 36  1  0  0  0  0
 39 38  1  0  0  0  0
 39 37  1  0  0  0  0
 40 39  2  0  0  0  0
 42 41  1  6  0  0  0
 42 52  1  0  0  0  0
 43 44  1  1  0  0  0
 43 42  1  0  0  0  0
 45 43  1  0  0  0  0
 46 45  1  0  0  0  0
 47 48  1  6  0  0  0
 47 46  1  0  0  0  0
 49 51  1  0  0  0  0
 49 47  1  0  0  0  0
 50 49  1  0  0  0  0
 52 54  1  6  0  0  0
 52 56  1  0  0  0  0
 53 54  1  0  0  0  0
 55 54  2  0  0  0  0
 56 57  1  0  0  0  0
 58 57  1  0  0  0  0
M  END
>  <MODEL>
8

>  <REMARK>
 VINA RESULT:      -5.7      2.742      9.007
  Name = 
  21 active torsions:
  status: ('A' for Active; 'I' for Inactive)
    1  A    between atoms: C_2  and  C_32
    2  A    between atoms: C_2  and  C_34
    3  A    between atoms: C_3  and  N_54
    4  A    between atoms: C_5  and  C_10
    5  A    between atoms: C_6  and  C_48
    6  A    between atoms: C_7  and  C_9
    7  A    between atoms: C_7  and  C_32
    8  A    between atoms: C_7  and  O_53
    9  A    between atoms: C_8  and  C_20
   10  A    between atoms: C_8  and  C_58
   11  A    between atoms: C_13  and  O_53
   12  A    between atoms: C_17  and  C_35
   13  A    between atoms: C_17  and  C_58
   14  A    between atoms: C_21  and  C_23
   15  A    between atoms: C_21  and  C_48
   16  A    between atoms: C_24  and  C_29
   17  A    between atoms: C_24  and  C_44
   18  A    between atoms: C_32  and  C_35
   19  A    between atoms: C_39  and  C_55
   20  A    between atoms: C_49  and  C_56
   21  A    between atoms: N_54  and  C_55
                            x       y       z     vdW  Elec       q    Type
                         _______ _______ _______ _____ _____    ______ ____

>  <TORSDO>
F 21

$$$$
=
 OpenBabel11072409313D

 58 62  0  0  1  0  0  0  0  0999 V2000
  193.0270  172.2020  143.7080 O   0  0  0  0  0  1  0  0  0  0  0  0
  190.8860  173.4430  141.5030 C   0  0  1  0  0  3  0  0  0  0  0  0
  192.8910  173.5580  143.4150 C   0  0  1  0  0  3  0  0  0  0  0  0
  193.0920  173.7720  141.9020 C   0  0  1  0  0  3  0  0  0  0  0  0
  191.9570  174.3170  141.2600 O   0  0  0  0  0  0  0  0  0  0  0  0
  190.3930  173.5990  142.9470 C   0  0  0  0  0  2  0  0  0  0  0  0
  191.5170  174.0770  143.8680 C   0  0  1  0  0  3  0  0  0  0  0  0
  189.7450  173.7240  140.5280 C   0  0  2  0  0  0  0  0  0  0  0  0
  190.1930  173.7680  139.1990 O   0  0  0  0  0  0  0  0  0  0  0  0
  188.8990  174.7980  140.8010 O   0  0  0  0  0  1  0  0  0  0  0  0
  189.2630  172.7500  139.5110 C   0  0  1  0  0  3  0  0  0  0  0  0
  190.4000  170.7370  138.3900 N   0  0  0  0  0  2  0  0  0  0  0  0
  190.1720  171.4850  134.5910 C   0  0  0  0  0  3  0  0  0  0  0  0
  189.8250  172.6010  135.3520 C   0  0  0  0  0  0  0  0  0  0  0  0
  190.5810  170.2720  135.6900 S   0  0  0  0  0  0  0  0  0  0  0  0
  189.8940  172.4550  136.7040 N   0  0  0  0  0  0  0  0  0  0  0  0
  190.2920  171.2130  137.0450 C   0  0  0  0  0  0  0  0  0  0  0  0
  189.3940  173.8800  134.7300 C   0  0  0  0  0  1  0  0  0  0  0  0
  190.1850  170.9010  140.6880 O   0  0  0  0  0  0  0  0  0  0  0  0
  189.9590  171.4200  139.5690 C   0  0  0  0  0  0  0  0  0  0  0  0
  191.1850  173.7420  145.3210 C   0  0  0  0  0  2  0  0  0  0  0  0
  191.3410  175.7350  146.8200 O   0  0  0  0  0  1  0  0  0  0  0  0
  190.5200  174.8950  146.0640 C   0  0  1  0  0  0  0  0  0  0  0  0
  189.1570  175.4190  145.6240 C   0  0  1  0  0  3  0  0  0  0  0  0
  189.2770  174.4840  146.8170 C   0  0  0  0  0  2  0  0  0  0  0  0
  189.0170  177.7160  145.0130 O   0  0  0  0  0  1  0  0  0  0  0  0
  188.9120  176.8440  146.0950 C   0  0  1  0  0  3  0  0  0  0  0  0
  187.5780  176.9390  146.6700 N   0  0  0  0  0  2  0  0  0  0  0  0
  186.4510  177.5140  145.9970 C   0  0  0  0  0  0  0  0  0  0  0  0
  184.7980  177.5660  144.1310 C   0  0  1  0  0  3  0  0  0  0  0  0
  184.7650  179.3660  145.8100 N   0  0  0  0  0  0  0  0  0  0  0  0
  186.0110  177.0170  144.8360 C   0  0  0  0  0  3  0  0  0  0  0  0
  185.7880  178.7030  146.5600 C   0  0  0  0  0  0  0  0  0  0  0  0
  184.3190  178.8850  144.6890 C   0  0  0  0  0  3  0  0  0  0  0  0
  186.1300  179.1540  147.6860 O   0  0  0  0  0  0  0  0  0  0  0  0
  185.0830  177.6910  142.6430 C   0  0  0  0  0  2  0  0  0  0  0  0
  186.2470  178.6360  142.3800 C   0  0  0  0  0  2  0  0  0  0  0  0
  186.7720  177.4130  140.4000 O   0  0  0  0  0  0  0  0  0  0  0  0
  187.2030  178.0270  141.4100 C   0  0  0  0  0  0  0  0  0  0  0  0
  188.5690  178.1070  141.6410 O   0  0  0  0  0  1  0  0  0  0  0  0
  194.3230  174.6370  141.6540 C   0  0  0  0  0  2  0  0  0  0  0  0
  195.3410  173.9370  140.7470 C   0  0  1  0  0  3  0  0  0  0  0  0
  196.2800  172.9460  141.4670 C   0  0  1  0  0  3  0  0  0  0  0  0
  197.6600  173.0200  140.8400 C   0  0  0  0  0  1  0  0  0  0  0  0
  196.4150  173.1690  142.9690 C   0  0  0  0  0  2  0  0  0  0  0  0
  197.5400  174.1520  143.2430 C   0  0  0  0  0  2  0  0  0  0  0  0
  197.0870  175.2100  144.2380 C   0  0  1  0  0  3  0  0  0  0  0  0
  196.7550  176.4910  143.4970 C   0  0  0  0  0  1  0  0  0  0  0  0
  195.8980  174.7160  145.0630 C   0  0  0  0  0  3  0  0  0  0  0  0
  194.9730  175.7400  145.2810 O   0  0  0  0  0  1  0  0  0  0  0  0
  196.3350  174.2060  146.2800 O   0  0  0  0  0  1  0  0  0  0  0  0
  194.5860  173.2690  139.5920 C   0  0  1  0  0  3  0  0  0  0  0  0
  194.1640  174.9590  137.8090 O   0  0  0  0  0  1  0  0  0  0  0  0
  194.9060  173.8770  138.2630 C   0  0  0  0  0  0  0  0  0  0  0  0
  195.8350  173.4090  137.5530 O   0  0  0  0  0  0  0  0  0  0  0  0
  194.7930  171.8860  139.5720 O   0  0  0  0  0  0  0  0  0  0  0  0
  193.7850  171.3850  138.7470 C   0  0  0  0  0  2  0  0  0  0  0  0
  193.9620  169.8920  138.5840 C   0  0  0  0  0  1  0  0  0  0  0  0
  2  6  1  1  0  0  0
  3  1  1  6  0  0  0
  3  7  1  0  0  0  0
  4 41  1  1  0  0  0
  4  3  1  0  0  0  0
  5  2  1  0  0  0  0
  5  4  1  0  0  0  0
  6  7  1  0  0  0  0
  7 21  1  1  0  0  0
  8 10  1  1  0  0  0
  8  2  1  0  0  0  0
  9 11  1  0  0  0  0
  9  8  1  0  0  0  0
 11 20  1  1  0  0  0
 11  8  1  0  0  0  0
 12 20  1  0  0  0  0
 13 14  2  0  0  0  0
 13 15  1  0  0  0  0
 14 16  1  0  0  0  0
 15 17  1  0  0  0  0
 16 17  2  0  0  0  0
 17 12  1  0  0  0  0
 18 14  1  0  0  0  0
 20 19  2  0  0  0  0
 21 23  1  0  0  0  0
 23 25  1  0  0  0  0
 23 22  1  1  0  0  0
 24 23  1  0  0  0  0
 24 27  1  1  0  0  0
 24 25  1  0  0  0  0
 27 26  1  6  0  0  0
 27 28  1  0  0  0  0
 29 33  1  0  0  0  0
 29 28  1  0  0  0  0
 30 36  1  6  0  0  0
 30 34  1  0  0  0  0
 30 32  1  0  0  0  0
 31 33  1  0  0  0  0
 32 29  2  0  0  0  0
 33 35  2  0  0  0  0
 34 31  2  0  0  0  0
 37 36  1  0  0  0  0
 38 39  2  0  0  0  0
 39 40  1  0  0  0  0
 39 37  1  0  0  0  0
 42 43  1  0  0  0  0
 42 41  1  1  0  0  0
 43 44  1  6  0  0  0
 43 45  1  0  0  0  0
 45 46  1  0  0  0  0
 46 47  1  0  0  0  0
 47 48  1  6  0  0  0
 47 49  1  0  0  0  0
 49 50  1  0  0  0  0
 49 51  1  0  0  0  0
 52 54  1  6  0  0  0
 52 42  1  0  0  0  0
 53 54  1  0  0  0  0
 55 54  2  0  0  0  0
 56 52  1  0  0  0  0
 57 56  1  0  0  0  0
 58 57  1  0  0  0  0
M  END
>  <MODEL>
9

>  <REMARK>
 VINA RESULT:      -5.6      2.775      9.393
  Name = 
  21 active torsions:
  status: ('A' for Active; 'I' for Inactive)
    1  A    between atoms: C_2  and  C_32
    2  A    between atoms: C_2  and  C_34
    3  A    between atoms: C_3  and  N_54
    4  A    between atoms: C_5  and  C_10
    5  A    between atoms: C_6  and  C_48
    6  A    between atoms: C_7  and  C_9
    7  A    between atoms: C_7  and  C_32
    8  A    between atoms: C_7  and  O_53
    9  A    between atoms: C_8  and  C_20
   10  A    between atoms: C_8  and  C_58
   11  A    between atoms: C_13  and  O_53
   12  A    between atoms: C_17  and  C_35
   13  A    between atoms: C_17  and  C_58
   14  A    between atoms: C_21  and  C_23
   15  A    between atoms: C_21  and  C_48
   16  A    between atoms: C_24  and  C_29
   17  A    between atoms: C_24  and  C_44
   18  A    between atoms: C_32  and  C_35
   19  A    between atoms: C_39  and  C_55
   20  A    between atoms: C_49  and  C_56
   21  A    between atoms: N_54  and  C_55
                            x       y       z     vdW  Elec       q    Type
                         _______ _______ _______ _____ _____    ______ ____

>  <TORSDO>
F 21

$$$$
