=
 OpenBabel11072408243D

 34 38  0  0  1  0  0  0  0  0999 V2000
  195.1990  172.7360  144.3930 C   0  0  2  0  0  3  0  0  0  0  0  0
  195.5340  171.9720  142.0640 C   0  0  0  0  0  1  0  0  0  0  0  0
  196.2670  174.0880  146.2040 C   0  0  0  0  0  2  0  0  0  0  0  0
  194.0170  173.1890  144.7660 C   0  0  0  0  0  0  0  0  0  0  0  0
  193.5110  171.5280  143.4230 C   0  0  2  0  0  3  0  0  0  0  0  0
  196.4830  173.3700  144.8590 C   0  0  1  0  0  3  0  0  0  0  0  0
  192.7790  170.5710  142.7320 O   0  0  0  0  0  1  0  0  0  0  0  0
  193.8110  174.2250  145.6690 C   0  0  0  0  0  0  0  0  0  0  0  0
  189.9920  174.0500  145.9330 C   0  0  0  0  0  2  0  0  0  0  0  0
  197.5150  172.3590  145.0130 N   0  0  0  0  0  1  0  0  0  0  0  0
  195.0130  174.9820  146.1850 C   0  0  0  0  0  2  0  0  0  0  0  0
  195.0140  171.5940  143.4390 C   0  0  2  0  0  3  0  0  0  0  0  0
  191.4010  173.8210  145.4410 C   0  0  0  0  0  0  0  0  0  0  0  0
  189.8000  175.4380  146.5280 C   0  0  2  0  0  3  0  0  0  0  0  0
  190.8590  175.6650  147.5950 C   0  0  0  0  0  2  0  0  0  0  0  0
  192.2320  175.7190  146.9380 C   0  0  0  0  0  2  0  0  0  0  0  0
  192.4860  174.5470  146.0240 C   0  0  0  0  0  0  0  0  0  0  0  0
  191.6520  172.7890  144.4950 C   0  0  0  0  0  0  0  0  0  0  0  0
  192.9930  172.4810  144.1970 C   0  0  0  0  0  0  0  0  0  0  0  0
  190.5160  172.0400  143.8410 C   0  0  0  0  0  2  0  0  0  0  0  0
  190.0530  172.6400  142.5050 C   0  0  1  0  0  3  0  0  0  0  0  0
  190.0410  171.6250  141.3760 C   0  0  0  0  0  1  0  0  0  0  0  0
  188.7040  173.3270  142.6020 C   0  0  0  0  0  2  0  0  0  0  0  0
  188.7520  174.8960  141.6800 S   0  0  0  0  0  0  0  0  0  0  0  0
  193.6860  176.2970  142.9440 C   0  0  0  0  0  1  0  0  0  0  0  0
  190.3450  177.9280  143.7710 C   0  0  0  0  0  3  0  0  0  0  0  0
  192.2830  176.8170  142.7180 C   0  0  1  0  0  3  0  0  0  0  0  0
  189.9420  175.7060  142.8000 C   0  0  2  0  0  3  0  0  0  0  0  0
  189.4820  177.0840  143.1980 C   0  0  0  0  0  3  0  0  0  0  0  0
  191.3730  175.6750  142.2290 C   0  0  0  0  0  2  0  0  0  0  0  0
  191.7640  177.4930  143.9890 C   0  0  0  0  0  2  0  0  0  0  0  0
  188.4090  175.5340  147.1340 C   0  0  0  0  0  2  0  0  0  0  0  0
  186.3160  176.7810  147.1520 N   0  0  0  0  0  1  0  0  0  0  0  0
  187.6180  176.6770  146.5170 C   0  0  0  0  0  2  0  0  0  0  0  0
  1  4  1  6  0  0  0
  1  6  1  0  0  0  0
  4  8  1  0  0  0  0
  5  7  1  1  0  0  0
  5 12  1  0  0  0  0
  5 19  1  0  0  0  0
  6 10  1  1  0  0  0
  6  3  1  0  0  0  0
  8 17  2  0  0  0  0
  8 11  1  0  0  0  0
  9 14  1  0  0  0  0
 11  3  1  0  0  0  0
 12  2  1  6  0  0  0
 12  1  1  0  0  0  0
 13  9  1  0  0  0  0
 13 17  1  0  0  0  0
 14 32  1  1  0  0  0
 14 15  1  0  0  0  0
 16 15  1  0  0  0  0
 17 16  1  0  0  0  0
 18 13  2  0  0  0  0
 19 18  1  0  0  0  0
 19  4  2  0  0  0  0
 20 18  1  0  0  0  0
 21 22  1  6  0  0  0
 21 23  1  0  0  0  0
 21 20  1  0  0  0  0
 24 23  1  0  0  0  0
 26 31  1  0  0  0  0
 27 25  1  1  0  0  0
 27 31  1  0  0  0  0
 28 24  1  6  0  0  0
 28 29  1  0  0  0  0
 29 26  2  0  0  0  0
 30 27  1  0  0  0  0
 30 28  1  0  0  0  0
 34 32  1  0  0  0  0
 34 33  1  0  0  0  0
M  END
>  <MODEL>
1

>  <REMARK>
 VINA RESULT:      -6.6      0.000      0.000
  Name = 
  7 active torsions:
  status: ('A' for Active; 'I' for Inactive)
    1  A    between atoms: C_1  and  C_6
    2  A    between atoms: C_1  and  C_12
    3  A    between atoms: C_6  and  S_31
    4  A    between atoms: C_7  and  C_14
    5  A    between atoms: C_12  and  C_33
    6  A    between atoms: C_14  and  C_25
    7  A    between atoms: C_17  and  S_31
                            x       y       z     vdW  Elec       q    Type
                         _______ _______ _______ _____ _____    ______ ____

>  <TORSDO>
F 7

$$$$
=
 OpenBabel11072408243D

 34 38  0  0  1  0  0  0  0  0999 V2000
  186.1350  177.6410  144.2100 C   0  0  2  0  0  3  0  0  0  0  0  0
  186.1110  179.3310  146.0180 C   0  0  0  0  0  1  0  0  0  0  0  0
  185.6950  177.3550  141.7660 C   0  0  0  0  0  2  0  0  0  0  0  0
  187.1490  176.8020  144.1160 C   0  0  0  0  0  0  0  0  0  0  0  0
  186.8510  176.9810  146.2830 C   0  0  2  0  0  3  0  0  0  0  0  0
  185.4890  178.2570  142.9960 C   0  0  1  0  0  3  0  0  0  0  0  0
  186.9680  176.7610  147.6500 O   0  0  0  0  0  1  0  0  0  0  0  0
  187.6840  176.3320  142.9220 C   0  0  0  0  0  0  0  0  0  0  0  0
  190.1980  173.8100  144.3380 C   0  0  0  0  0  2  0  0  0  0  0  0
  184.0670  178.4440  143.2240 N   0  0  0  0  0  1  0  0  0  0  0  0
  187.1600  176.9000  141.6240 C   0  0  0  0  0  2  0  0  0  0  0  0
  185.8240  177.8850  145.6570 C   0  0  2  0  0  3  0  0  0  0  0  0
  189.2020  174.9410  144.2600 C   0  0  0  0  0  0  0  0  0  0  0  0
  191.0410  173.6850  143.0760 C   0  0  2  0  0  3  0  0  0  0  0  0
  190.1140  173.5950  141.8740 C   0  0  0  0  0  2  0  0  0  0  0  0
  189.3740  174.9160  141.7080 C   0  0  0  0  0  2  0  0  0  0  0  0
  188.7210  175.3810  142.9870 C   0  0  0  0  0  0  0  0  0  0  0  0
  188.6500  175.4720  145.4580 C   0  0  0  0  0  0  0  0  0  0  0  0
  187.5930  176.3960  145.3450 C   0  0  0  0  0  0  0  0  0  0  0  0
  189.1740  175.0480  146.8090 C   0  0  0  0  0  2  0  0  0  0  0  0
  190.2520  175.9770  147.3860 C   0  0  1  0  0  3  0  0  0  0  0  0
  191.1700  175.2760  148.3700 C   0  0  0  0  0  1  0  0  0  0  0  0
  191.0710  176.6700  146.3130 C   0  0  0  0  0  2  0  0  0  0  0  0
  192.8420  176.5190  146.7050 S   0  0  0  0  0  0  0  0  0  0  0  0
  195.6730  174.8250  142.5800 C   0  0  0  0  0  1  0  0  0  0  0  0
  192.4370  176.8270  142.7260 C   0  0  0  0  0  3  0  0  0  0  0  0
  194.2850  175.2200  143.0360 C   0  0  1  0  0  3  0  0  0  0  0  0
  193.4060  176.6930  144.9800 C   0  0  2  0  0  3  0  0  0  0  0  0
  192.2580  176.9570  144.0430 C   0  0  0  0  0  3  0  0  0  0  0  0
  194.2930  175.5080  144.5490 C   0  0  0  0  0  2  0  0  0  0  0  0
  193.7760  176.3990  142.2050 C   0  0  0  0  0  2  0  0  0  0  0  0
  191.9050  172.4380  143.1730 C   0  0  0  0  0  2  0  0  0  0  0  0
  193.8340  171.7610  144.4980 N   0  0  0  0  0  1  0  0  0  0  0  0
  192.4770  172.2720  144.5720 C   0  0  0  0  0  2  0  0  0  0  0  0
  1  4  1  1  0  0  0
  1 12  1  0  0  0  0
  3  6  1  0  0  0  0
  4 19  1  0  0  0  0
  5  7  1  6  0  0  0
  6 10  1  1  0  0  0
  6  1  1  0  0  0  0
  8 17  1  0  0  0  0
  8  4  2  0  0  0  0
 11  3  1  0  0  0  0
 11  8  1  0  0  0  0
 12  2  1  1  0  0  0
 12  5  1  0  0  0  0
 13  9  1  0  0  0  0
 13 18  1  0  0  0  0
 14 32  1  1  0  0  0
 14  9  1  0  0  0  0
 15 14  1  0  0  0  0
 16 15  1  0  0  0  0
 16 17  1  0  0  0  0
 17 13  2  0  0  0  0
 18 20  1  0  0  0  0
 19 18  2  0  0  0  0
 19  5  1  0  0  0  0
 20 21  1  0  0  0  0
 21 22  1  1  0  0  0
 23 24  1  0  0  0  0
 23 21  1  0  0  0  0
 26 29  2  0  0  0  0
 27 25  1  6  0  0  0
 27 30  1  0  0  0  0
 28 24  1  1  0  0  0
 29 28  1  0  0  0  0
 30 28  1  0  0  0  0
 31 26  1  0  0  0  0
 31 27  1  0  0  0  0
 32 34  1  0  0  0  0
 33 34  1  0  0  0  0
M  END
>  <MODEL>
2

>  <REMARK>
 VINA RESULT:      -6.5      2.944      7.480
  Name = 
  7 active torsions:
  status: ('A' for Active; 'I' for Inactive)
    1  A    between atoms: C_1  and  C_6
    2  A    between atoms: C_1  and  C_12
    3  A    between atoms: C_6  and  S_31
    4  A    between atoms: C_7  and  C_14
    5  A    between atoms: C_12  and  C_33
    6  A    between atoms: C_14  and  C_25
    7  A    between atoms: C_17  and  S_31
                            x       y       z     vdW  Elec       q    Type
                         _______ _______ _______ _____ _____    ______ ____

>  <TORSDO>
F 7

$$$$
=
 OpenBabel11072408243D

 34 38  0  0  1  0  0  0  0  0999 V2000
  194.2100  173.9510  145.0520 C   0  0  2  0  0  3  0  0  0  0  0  0
  194.7780  172.6730  143.0110 C   0  0  0  0  0  1  0  0  0  0  0  0
  195.0050  175.8330  146.4920 C   0  0  0  0  0  2  0  0  0  0  0  0
  192.9640  174.3360  145.2540 C   0  0  0  0  0  0  0  0  0  0  0  0
  192.7300  172.3430  144.3660 C   0  0  2  0  0  3  0  0  0  0  0  0
  195.3850  174.8320  145.3860 C   0  0  1  0  0  3  0  0  0  0  0  0
  192.1520  171.1620  143.9180 O   0  0  0  0  0  1  0  0  0  0  0  0
  192.5890  175.5340  145.8520 C   0  0  0  0  0  0  0  0  0  0  0  0
  188.8020  174.9690  146.0140 C   0  0  0  0  0  2  0  0  0  0  0  0
  196.5070  174.0250  145.8310 N   0  0  0  0  0  1  0  0  0  0  0  0
  193.6650  176.5350  146.1990 C   0  0  0  0  0  2  0  0  0  0  0  0
  194.2130  172.5920  144.4180 C   0  0  2  0  0  3  0  0  0  0  0  0
  190.2560  174.7960  145.6490 C   0  0  0  0  0  0  0  0  0  0  0  0
  188.4220  176.4280  146.2250 C   0  0  2  0  0  3  0  0  0  0  0  0
  189.3790  177.0430  147.2350 C   0  0  0  0  0  2  0  0  0  0  0  0
  190.7780  177.0960  146.6360 C   0  0  0  0  0  2  0  0  0  0  0  0
  191.2170  175.7710  146.0640 C   0  0  0  0  0  0  0  0  0  0  0  0
  190.6790  173.5980  145.0100 C   0  0  0  0  0  0  0  0  0  0  0  0
  192.0620  173.3900  144.8490 C   0  0  0  0  0  0  0  0  0  0  0  0
  189.6760  172.5770  144.5300 C   0  0  0  0  0  2  0  0  0  0  0  0
  189.4230  172.6060  143.0150 C   0  0  1  0  0  3  0  0  0  0  0  0
  187.9700  172.3530  142.6550 C   0  0  0  0  0  1  0  0  0  0  0  0
  189.9060  173.8870  142.3600 C   0  0  0  0  0  2  0  0  0  0  0  0
  188.8870  174.2430  140.8940 S   0  0  0  0  0  0  0  0  0  0  0  0
  185.2400  177.4140  143.0250 C   0  0  0  0  0  1  0  0  0  0  0  0
  189.0430  177.6000  143.0860 C   0  0  0  0  0  3  0  0  0  0  0  0
  186.6680  176.9290  143.1500 C   0  0  1  0  0  3  0  0  0  0  0  0
  188.3440  175.8860  141.4700 C   0  0  2  0  0  3  0  0  0  0  0  0
  189.3780  176.5380  142.3480 C   0  0  0  0  0  3  0  0  0  0  0  0
  186.9410  175.8300  142.1070 C   0  0  0  0  0  2  0  0  0  0  0  0
  187.6340  178.1110  143.0420 C   0  0  0  0  0  2  0  0  0  0  0  0
  186.9920  176.5050  146.7360 C   0  0  0  0  0  2  0  0  0  0  0  0
  185.0210  177.9340  146.6380 N   0  0  0  0  0  1  0  0  0  0  0  0
  186.4730  177.9330  146.7030 C   0  0  0  0  0  2  0  0  0  0  0  0
  1  4  1  6  0  0  0
  1  6  1  0  0  0  0
  4  8  1  0  0  0  0
  5  7  1  1  0  0  0
  5 12  1  0  0  0  0
  5 19  1  0  0  0  0
  6 10  1  1  0  0  0
  6  3  1  0  0  0  0
  8 17  2  0  0  0  0
  8 11  1  0  0  0  0
  9 14  1  0  0  0  0
 11  3  1  0  0  0  0
 12  2  1  6  0  0  0
 12  1  1  0  0  0  0
 13  9  1  0  0  0  0
 13 17  1  0  0  0  0
 14 32  1  1  0  0  0
 14 15  1  0  0  0  0
 16 15  1  0  0  0  0
 17 16  1  0  0  0  0
 18 13  2  0  0  0  0
 19 18  1  0  0  0  0
 19  4  2  0  0  0  0
 20 18  1  0  0  0  0
 21 22  1  1  0  0  0
 21 20  1  0  0  0  0
 23 21  1  0  0  0  0
 24 23  1  0  0  0  0
 27 25  1  6  0  0  0
 28 24  1  1  0  0  0
 28 30  1  0  0  0  0
 28 29  1  0  0  0  0
 29 26  2  0  0  0  0
 30 27  1  0  0  0  0
 31 26  1  0  0  0  0
 31 27  1  0  0  0  0
 33 34  1  0  0  0  0
 34 32  1  0  0  0  0
M  END
>  <MODEL>
3

>  <REMARK>
 VINA RESULT:      -6.4      1.600      2.592
  Name = 
  7 active torsions:
  status: ('A' for Active; 'I' for Inactive)
    1  A    between atoms: C_1  and  C_6
    2  A    between atoms: C_1  and  C_12
    3  A    between atoms: C_6  and  S_31
    4  A    between atoms: C_7  and  C_14
    5  A    between atoms: C_12  and  C_33
    6  A    between atoms: C_14  and  C_25
    7  A    between atoms: C_17  and  S_31
                            x       y       z     vdW  Elec       q    Type
                         _______ _______ _______ _____ _____    ______ ____

>  <TORSDO>
F 7

$$$$
=
 OpenBabel11072408243D

 34 38  0  0  1  0  0  0  0  0999 V2000
  185.9970  177.8790  144.8140 C   0  0  2  0  0  3  0  0  0  0  0  0
  184.9310  177.5830  142.6000 C   0  0  0  0  0  1  0  0  0  0  0  0
  185.5230  177.7710  147.2660 C   0  0  0  0  0  2  0  0  0  0  0  0
  187.1950  177.3720  145.0330 C   0  0  0  0  0  0  0  0  0  0  0  0
  187.3300  178.0890  142.9630 C   0  0  2  0  0  3  0  0  0  0  0  0
  184.9090  177.8440  145.8560 C   0  0  1  0  0  3  0  0  0  0  0  0
  187.8480  178.4330  141.7210 O   0  0  0  0  0  1  0  0  0  0  0  0
  187.6210  176.8300  146.2400 C   0  0  0  0  0  0  0  0  0  0  0  0
  191.2940  176.1890  145.3540 C   0  0  0  0  0  2  0  0  0  0  0  0
  184.0780  179.0310  145.7530 N   0  0  0  0  0  1  0  0  0  0  0  0
  186.6190  176.6920  147.3620 C   0  0  0  0  0  2  0  0  0  0  0  0
  185.9260  178.3960  143.4080 C   0  0  2  0  0  3  0  0  0  0  0  0
  189.8240  176.5040  145.2090 C   0  0  0  0  0  0  0  0  0  0  0  0
  191.5720  175.2090  146.4860 C   0  0  2  0  0  3  0  0  0  0  0  0
  190.9360  175.7390  147.7620 C   0  0  0  0  0  2  0  0  0  0  0  0
  189.4200  175.7280  147.6120 C   0  0  0  0  0  2  0  0  0  0  0  0
  188.9570  176.3940  146.3400 C   0  0  0  0  0  0  0  0  0  0  0  0
  189.3410  177.0340  143.9810 C   0  0  0  0  0  0  0  0  0  0  0  0
  188.0080  177.4860  143.9380 C   0  0  0  0  0  0  0  0  0  0  0  0
  190.2330  177.1200  142.7660 C   0  0  0  0  0  2  0  0  0  0  0  0
  190.3590  175.8040  141.9830 C   0  0  1  0  0  3  0  0  0  0  0  0
  191.6670  175.0820  142.2490 C   0  0  0  0  0  1  0  0  0  0  0  0
  189.1900  174.8650  142.2150 C   0  0  0  0  0  2  0  0  0  0  0  0
  188.5040  174.3390  140.6120 S   0  0  0  0  0  0  0  0  0  0  0  0
  191.9990  170.7040  139.0390 C   0  0  0  0  0  1  0  0  0  0  0  0
  190.1670  171.1280  142.3510 C   0  0  0  0  0  3  0  0  0  0  0  0
  191.4270  171.4140  140.2470 C   0  0  1  0  0  3  0  0  0  0  0  0
  189.1920  172.6510  140.6870 C   0  0  2  0  0  3  0  0  0  0  0  0
  189.4120  172.2030  142.1070 C   0  0  0  0  0  3  0  0  0  0  0  0
  190.4400  172.5060  139.7940 C   0  0  0  0  0  2  0  0  0  0  0  0
  190.7990  170.3980  141.2030 C   0  0  0  0  0  2  0  0  0  0  0  0
  193.0750  175.0640  146.6640 C   0  0  0  0  0  2  0  0  0  0  0  0
  194.5240  177.0200  146.5520 N   0  0  0  0  0  1  0  0  0  0  0  0
  193.8310  176.0220  145.7560 C   0  0  0  0  0  2  0  0  0  0  0  0
  1  4  1  6  0  0  0
  1  6  1  0  0  0  0
  3 11  1  0  0  0  0
  4  8  1  0  0  0  0
  5  7  1  1  0  0  0
  5 12  1  0  0  0  0
  5 19  1  0  0  0  0
  6 10  1  1  0  0  0
  6  3  1  0  0  0  0
  8 17  2  0  0  0  0
  8 11  1  0  0  0  0
  9 14  1  0  0  0  0
 12  2  1  6  0  0  0
 12  1  1  0  0  0  0
 13  9  1  0  0  0  0
 13 17  1  0  0  0  0
 14 32  1  1  0  0  0
 14 15  1  0  0  0  0
 16 15  1  0  0  0  0
 17 16  1  0  0  0  0
 18 13  2  0  0  0  0
 19 18  1  0  0  0  0
 19  4  2  0  0  0  0
 20 18  1  0  0  0  0
 21 23  1  0  0  0  0
 21 22  1  1  0  0  0
 21 20  1  0  0  0  0
 24 23  1  0  0  0  0
 27 25  1  6  0  0  0
 27 31  1  0  0  0  0
 28 24  1  1  0  0  0
 28 29  1  0  0  0  0
 29 26  2  0  0  0  0
 30 27  1  0  0  0  0
 30 28  1  0  0  0  0
 31 26  1  0  0  0  0
 34 33  1  0  0  0  0
 34 32  1  0  0  0  0
M  END
>  <MODEL>
4

>  <REMARK>
 VINA RESULT:      -6.4      2.970      7.278
  Name = 
  7 active torsions:
  status: ('A' for Active; 'I' for Inactive)
    1  A    between atoms: C_1  and  C_6
    2  A    between atoms: C_1  and  C_12
    3  A    between atoms: C_6  and  S_31
    4  A    between atoms: C_7  and  C_14
    5  A    between atoms: C_12  and  C_33
    6  A    between atoms: C_14  and  C_25
    7  A    between atoms: C_17  and  S_31
                            x       y       z     vdW  Elec       q    Type
                         _______ _______ _______ _____ _____    ______ ____

>  <TORSDO>
F 7

$$$$
=
 OpenBabel11072408243D

 34 38  0  0  1  0  0  0  0  0999 V2000
  185.7570  177.8430  144.1800 C   0  0  2  0  0  3  0  0  0  0  0  0
  185.9970  179.4370  146.0570 C   0  0  0  0  0  1  0  0  0  0  0  0
  184.9630  177.6780  141.8150 C   0  0  0  0  0  2  0  0  0  0  0  0
  186.7490  177.0200  143.8940 C   0  0  0  0  0  0  0  0  0  0  0  0
  186.7740  177.0840  146.0870 C   0  0  2  0  0  3  0  0  0  0  0  0
  184.9380  178.5140  143.1080 C   0  0  1  0  0  3  0  0  0  0  0  0
  187.0910  176.7950  147.4080 O   0  0  0  0  0  1  0  0  0  0  0  0
  187.1030  176.6170  142.6110 C   0  0  0  0  0  0  0  0  0  0  0  0
  189.8050  174.0510  143.5060 C   0  0  0  0  0  2  0  0  0  0  0  0
  183.5650  178.6740  143.5520 N   0  0  0  0  0  1  0  0  0  0  0  0
  186.3920  177.2460  141.4350 C   0  0  0  0  0  2  0  0  0  0  0  0
  185.6630  178.0080  145.6670 C   0  0  2  0  0  3  0  0  0  0  0  0
  188.8050  175.1750  143.6350 C   0  0  0  0  0  0  0  0  0  0  0  0
  190.4520  174.0010  142.1290 C   0  0  2  0  0  3  0  0  0  0  0  0
  189.3590  173.9630  141.0740 C   0  0  0  0  0  2  0  0  0  0  0  0
  188.5990  175.2830  141.0890 C   0  0  0  0  0  2  0  0  0  0  0  0
  188.1400  175.6750  142.4720 C   0  0  0  0  0  0  0  0  0  0  0  0
  188.4350  175.6380  144.9280 C   0  0  0  0  0  0  0  0  0  0  0  0
  187.3710  176.5550  145.0200 C   0  0  0  0  0  0  0  0  0  0  0  0
  189.1530  175.1500  146.1630 C   0  0  0  0  0  2  0  0  0  0  0  0
  190.2550  176.0960  146.6650 C   0  0  1  0  0  3  0  0  0  0  0  0
  190.8280  175.6740  148.0050 C   0  0  0  0  0  1  0  0  0  0  0  0
  191.3730  176.2880  145.6580 C   0  0  0  0  0  2  0  0  0  0  0  0
  192.9640  176.4220  146.5320 S   0  0  0  0  0  0  0  0  0  0  0  0
  197.2830  173.6640  145.2510 C   0  0  0  0  0  1  0  0  0  0  0  0
  193.5960  172.7150  145.1320 C   0  0  0  0  0  3  0  0  0  0  0  0
  195.8460  173.5490  145.7130 C   0  0  1  0  0  3  0  0  0  0  0  0
  193.7970  175.1290  145.5530 C   0  0  2  0  0  3  0  0  0  0  0  0
  193.0130  173.8440  145.5480 C   0  0  0  0  0  3  0  0  0  0  0  0
  195.2680  174.9520  145.9780 C   0  0  0  0  0  2  0  0  0  0  0  0
  195.0310  172.7470  144.6970 C   0  0  0  0  0  2  0  0  0  0  0  0
  191.3240  172.7590  142.0320 C   0  0  0  0  0  2  0  0  0  0  0  0
  190.9990  170.3460  141.9490 N   0  0  0  0  0  1  0  0  0  0  0  0
  190.6420  171.5570  142.6670 C   0  0  0  0  0  2  0  0  0  0  0  0
  1  4  1  6  0  0  0
  1 12  1  0  0  0  0
  3  6  1  0  0  0  0
  4 19  1  0  0  0  0
  5  7  1  1  0  0  0
  6 10  1  1  0  0  0
  6  1  1  0  0  0  0
  8  4  2  0  0  0  0
  9 13  1  0  0  0  0
 11  3  1  0  0  0  0
 11  8  1  0  0  0  0
 12  2  1  6  0  0  0
 12  5  1  0  0  0  0
 13 18  1  0  0  0  0
 14 32  1  1  0  0  0
 14  9  1  0  0  0  0
 15 16  1  0  0  0  0
 15 14  1  0  0  0  0
 16 17  1  0  0  0  0
 17  8  1  0  0  0  0
 17 13  2  0  0  0  0
 18 19  2  0  0  0  0
 18 20  1  0  0  0  0
 19  5  1  0  0  0  0
 20 21  1  0  0  0  0
 21 22  1  1  0  0  0
 23 24  1  0  0  0  0
 23 21  1  0  0  0  0
 26 29  2  0  0  0  0
 27 25  1  6  0  0  0
 27 30  1  0  0  0  0
 28 30  1  0  0  0  0
 28 24  1  1  0  0  0
 29 28  1  0  0  0  0
 31 26  1  0  0  0  0
 31 27  1  0  0  0  0
 32 34  1  0  0  0  0
 33 34  1  0  0  0  0
M  END
>  <MODEL>
5

>  <REMARK>
 VINA RESULT:      -6.3      3.221      8.014
  Name = 
  7 active torsions:
  status: ('A' for Active; 'I' for Inactive)
    1  A    between atoms: C_1  and  C_6
    2  A    between atoms: C_1  and  C_12
    3  A    between atoms: C_6  and  S_31
    4  A    between atoms: C_7  and  C_14
    5  A    between atoms: C_12  and  C_33
    6  A    between atoms: C_14  and  C_25
    7  A    between atoms: C_17  and  S_31
                            x       y       z     vdW  Elec       q    Type
                         _______ _______ _______ _____ _____    ______ ____

>  <TORSDO>
F 7

$$$$
=
 OpenBabel11072408243D

 34 38  0  0  1  0  0  0  0  0999 V2000
  194.9560  174.4920  143.2570 C   0  0  2  0  0  3  0  0  0  0  0  0
  196.0970  174.5540  145.4520 C   0  0  0  0  0  1  0  0  0  0  0  0
  194.8230  173.1780  141.1350 C   0  0  0  0  0  2  0  0  0  0  0  0
  193.6550  174.7080  143.1930 C   0  0  0  0  0  0  0  0  0  0  0  0
  194.3190  176.1230  144.7330 C   0  0  2  0  0  3  0  0  0  0  0  0
  195.6360  173.4450  142.4140 C   0  0  1  0  0  3  0  0  0  0  0  0
  194.3110  177.1550  145.6630 O   0  0  0  0  0  1  0  0  0  0  0  0
  192.7860  174.0750  142.3110 C   0  0  0  0  0  0  0  0  0  0  0  0
  189.5840  176.0180  143.1180 C   0  0  0  0  0  2  0  0  0  0  0  0
  196.9730  173.8830  142.0540 N   0  0  0  0  0  1  0  0  0  0  0  0
  193.3270  172.9690  141.4350 C   0  0  0  0  0  2  0  0  0  0  0  0
  195.5560  175.3840  144.3020 C   0  0  2  0  0  3  0  0  0  0  0  0
  190.9910  175.4810  143.2190 C   0  0  0  0  0  0  0  0  0  0  0  0
  188.6180  175.0140  142.5050 C   0  0  2  0  0  3  0  0  0  0  0  0
  189.1820  174.5390  141.1750 C   0  0  0  0  0  2  0  0  0  0  0  0
  190.4550  173.7400  141.4250 C   0  0  0  0  0  2  0  0  0  0  0  0
  191.4340  174.4670  142.3130 C   0  0  0  0  0  0  0  0  0  0  0  0
  191.9050  176.0810  144.1280 C   0  0  0  0  0  0  0  0  0  0  0  0
  193.2530  175.6800  144.0680 C   0  0  0  0  0  0  0  0  0  0  0  0
  191.4450  177.1240  145.1190 C   0  0  0  0  0  2  0  0  0  0  0  0
  190.7670  176.5470  146.3710 C   0  0  1  0  0  3  0  0  0  0  0  0
  191.7170  176.4130  147.5470 C   0  0  0  0  0  1  0  0  0  0  0  0
  189.5320  177.3250  146.7850 C   0  0  0  0  0  2  0  0  0  0  0  0
  188.0900  176.2130  146.8040 S   0  0  0  0  0  0  0  0  0  0  0  0
  185.6130  179.7910  143.8100 C   0  0  0  0  0  1  0  0  0  0  0  0
  184.4400  177.8770  146.8870 C   0  0  0  0  0  3  0  0  0  0  0  0
  185.4060  178.6120  144.7370 C   0  0  1  0  0  3  0  0  0  0  0  0
  186.8580  177.5420  146.6000 C   0  0  2  0  0  3  0  0  0  0  0  0
  185.5270  177.1620  147.1920 C   0  0  0  0  0  3  0  0  0  0  0  0
  186.7690  178.0140  145.1340 C   0  0  0  0  0  2  0  0  0  0  0  0
  184.5640  179.0350  145.9420 C   0  0  0  0  0  2  0  0  0  0  0  0
  187.2670  175.6810  142.2980 C   0  0  0  0  0  2  0  0  0  0  0  0
  186.1200  177.5040  141.1590 N   0  0  0  0  0  1  0  0  0  0  0  0
  187.4180  177.0240  141.6020 C   0  0  0  0  0  2  0  0  0  0  0  0
  1  4  1  1  0  0  0
  1 12  1  0  0  0  0
  3 11  1  0  0  0  0
  3  6  1  0  0  0  0
  4 19  1  0  0  0  0
  5  7  1  6  0  0  0
  6 10  1  6  0  0  0
  6  1  1  0  0  0  0
  8 17  1  0  0  0  0
  8  4  2  0  0  0  0
  9 13  1  0  0  0  0
 11  8  1  0  0  0  0
 12  5  1  0  0  0  0
 12  2  1  1  0  0  0
 13 18  1  0  0  0  0
 14 32  1  6  0  0  0
 14  9  1  0  0  0  0
 15 16  1  0  0  0  0
 15 14  1  0  0  0  0
 16 17  1  0  0  0  0
 17 13  2  0  0  0  0
 18 20  1  0  0  0  0
 19 18  2  0  0  0  0
 19  5  1  0  0  0  0
 20 21  1  0  0  0  0
 21 23  1  0  0  0  0
 21 22  1  1  0  0  0
 23 24  1  0  0  0  0
 26 29  2  0  0  0  0
 27 25  1  6  0  0  0
 27 30  1  0  0  0  0
 27 31  1  0  0  0  0
 28 24  1  6  0  0  0
 28 29  1  0  0  0  0
 30 28  1  0  0  0  0
 31 26  1  0  0  0  0
 33 34  1  0  0  0  0
 34 32  1  0  0  0  0
M  END
>  <MODEL>
6

>  <REMARK>
 VINA RESULT:      -6.2      2.821      5.331
  Name = 
  7 active torsions:
  status: ('A' for Active; 'I' for Inactive)
    1  A    between atoms: C_1  and  C_6
    2  A    between atoms: C_1  and  C_12
    3  A    between atoms: C_6  and  S_31
    4  A    between atoms: C_7  and  C_14
    5  A    between atoms: C_12  and  C_33
    6  A    between atoms: C_14  and  C_25
    7  A    between atoms: C_17  and  S_31
                            x       y       z     vdW  Elec       q    Type
                         _______ _______ _______ _____ _____    ______ ____

>  <TORSDO>
F 7

$$$$
=
 OpenBabel11072408243D

 34 38  0  0  1  0  0  0  0  0999 V2000
  189.8150  173.2630  141.6790 C   0  0  2  0  0  3  0  0  0  0  0  0
  190.5150  170.9480  142.2040 C   0  0  0  0  0  1  0  0  0  0  0  0
  188.5700  174.6150  139.9840 C   0  0  0  0  0  2  0  0  0  0  0  0
  189.3250  174.0280  142.6350 C   0  0  0  0  0  0  0  0  0  0  0  0
  190.9170  172.9160  143.6560 C   0  0  2  0  0  3  0  0  0  0  0  0
  189.2520  173.2670  140.2810 C   0  0  1  0  0  3  0  0  0  0  0  0
  191.8190  172.5040  144.6290 O   0  0  0  0  0  1  0  0  0  0  0  0
  188.3110  174.9640  142.4640 C   0  0  0  0  0  0  0  0  0  0  0  0
  188.3340  176.5270  145.9630 C   0  0  0  0  0  2  0  0  0  0  0  0
  190.3100  173.0380  139.3130 N   0  0  0  0  0  1  0  0  0  0  0  0
  187.6240  175.0450  141.1210 C   0  0  0  0  0  2  0  0  0  0  0  0
  190.9160  172.4120  142.2380 C   0  0  2  0  0  3  0  0  0  0  0  0
  188.6060  175.5750  144.8230 C   0  0  0  0  0  0  0  0  0  0  0  0
  186.9590  177.1750  145.8680 C   0  0  2  0  0  3  0  0  0  0  0  0
  186.8120  177.8140  144.4960 C   0  0  0  0  0  2  0  0  0  0  0  0
  186.7950  176.7240  143.4310 C   0  0  0  0  0  2  0  0  0  0  0  0
  187.9460  175.7590  143.5680 C   0  0  0  0  0  0  0  0  0  0  0  0
  189.6160  174.5840  144.9660 C   0  0  0  0  0  0  0  0  0  0  0  0
  189.9700  173.8360  143.8270 C   0  0  0  0  0  0  0  0  0  0  0  0
  190.2940  174.3500  146.2940 C   0  0  0  0  0  2  0  0  0  0  0  0
  191.3440  175.4100  146.6600 C   0  0  1  0  0  3  0  0  0  0  0  0
  191.1890  175.9280  148.0780 C   0  0  0  0  0  1  0  0  0  0  0  0
  192.7670  174.9370  146.4320 C   0  0  0  0  0  2  0  0  0  0  0  0
  193.8500  176.3740  146.1550 S   0  0  0  0  0  0  0  0  0  0  0  0
  195.2300  173.5360  141.9190 C   0  0  0  0  0  1  0  0  0  0  0  0
  192.4440  176.0860  142.4080 C   0  0  0  0  0  3  0  0  0  0  0  0
  194.0790  174.2460  142.5990 C   0  0  1  0  0  3  0  0  0  0  0  0
  193.9520  176.1550  144.3480 C   0  0  2  0  0  3  0  0  0  0  0  0
  192.6420  176.4640  143.6750 C   0  0  0  0  0  3  0  0  0  0  0  0
  194.5280  174.7740  143.9740 C   0  0  0  0  0  2  0  0  0  0  0  0
  193.5280  175.3430  141.6860 C   0  0  0  0  0  2  0  0  0  0  0  0
  186.8240  178.2260  146.9580 C   0  0  0  0  0  2  0  0  0  0  0  0
  184.3930  178.2940  147.1070 N   0  0  0  0  0  1  0  0  0  0  0  0
  185.5730  179.0670  146.7590 C   0  0  0  0  0  2  0  0  0  0  0  0
  1 12  1  0  0  0  0
  1  4  1  1  0  0  0
  3  6  1  0  0  0  0
  3 11  1  0  0  0  0
  4 19  1  0  0  0  0
  5 19  1  0  0  0  0
  5  7  1  6  0  0  0
  6 10  1  6  0  0  0
  6  1  1  0  0  0  0
  8  4  2  0  0  0  0
  8 17  1  0  0  0  0
 11  8  1  0  0  0  0
 12  2  1  1  0  0  0
 12  5  1  0  0  0  0
 13 18  1  0  0  0  0
 13  9  1  0  0  0  0
 14  9  1  0  0  0  0
 14 32  1  1  0  0  0
 15 14  1  0  0  0  0
 16 17  1  0  0  0  0
 16 15  1  0  0  0  0
 17 13  2  0  0  0  0
 18 20  1  0  0  0  0
 19 18  2  0  0  0  0
 20 21  1  0  0  0  0
 21 22  1  1  0  0  0
 23 21  1  0  0  0  0
 24 23  1  0  0  0  0
 26 29  2  0  0  0  0
 27 25  1  6  0  0  0
 27 30  1  0  0  0  0
 28 24  1  1  0  0  0
 29 28  1  0  0  0  0
 30 28  1  0  0  0  0
 31 26  1  0  0  0  0
 31 27  1  0  0  0  0
 34 32  1  0  0  0  0
 34 33  1  0  0  0  0
M  END
>  <MODEL>
7

>  <REMARK>
 VINA RESULT:      -6.2      2.631      5.294
  Name = 
  7 active torsions:
  status: ('A' for Active; 'I' for Inactive)
    1  A    between atoms: C_1  and  C_6
    2  A    between atoms: C_1  and  C_12
    3  A    between atoms: C_6  and  S_31
    4  A    between atoms: C_7  and  C_14
    5  A    between atoms: C_12  and  C_33
    6  A    between atoms: C_14  and  C_25
    7  A    between atoms: C_17  and  S_31
                            x       y       z     vdW  Elec       q    Type
                         _______ _______ _______ _____ _____    ______ ____

>  <TORSDO>
F 7

$$$$
=
 OpenBabel11072408243D

 34 38  0  0  1  0  0  0  0  0999 V2000
  193.8600  174.7040  143.8250 C   0  0  2  0  0  3  0  0  0  0  0  0
  194.3040  174.5700  141.3950 C   0  0  0  0  0  1  0  0  0  0  0  0
  194.8580  175.4960  145.9760 C   0  0  0  0  0  2  0  0  0  0  0  0
  192.6690  175.0820  144.2500 C   0  0  0  0  0  0  0  0  0  0  0  0
  192.2030  173.8510  142.4940 C   0  0  2  0  0  3  0  0  0  0  0  0
  195.1310  175.1500  144.5010 C   0  0  1  0  0  3  0  0  0  0  0  0
  191.4900  173.1350  141.5410 O   0  0  0  0  0  1  0  0  0  0  0  0
  192.4370  175.8510  145.3840 C   0  0  0  0  0  0  0  0  0  0  0  0
  188.6060  175.7400  145.4150 C   0  0  0  0  0  2  0  0  0  0  0  0
  196.1320  174.1010  144.4290 N   0  0  0  0  0  1  0  0  0  0  0  0
  193.6240  176.4050  146.1360 C   0  0  0  0  0  2  0  0  0  0  0  0
  193.7040  173.8610  142.5950 C   0  0  2  0  0  3  0  0  0  0  0  0
  190.0340  175.6010  144.9460 C   0  0  0  0  0  0  0  0  0  0  0  0
  188.4100  176.9280  146.3470 C   0  0  2  0  0  3  0  0  0  0  0  0
  189.4160  176.8310  147.4840 C   0  0  0  0  0  2  0  0  0  0  0  0
  190.8230  177.0100  146.9290 C   0  0  0  0  0  2  0  0  0  0  0  0
  191.1010  176.1120  145.7490 C   0  0  0  0  0  0  0  0  0  0  0  0
  190.3150  174.8470  143.7740 C   0  0  0  0  0  0  0  0  0  0  0  0
  191.6640  174.5840  143.4670 C   0  0  0  0  0  0  0  0  0  0  0  0
  189.2010  174.3340  142.8930 C   0  0  0  0  0  2  0  0  0  0  0  0
  188.8410  175.2670  141.7270 C   0  0  1  0  0  3  0  0  0  0  0  0
  188.5810  174.5180  140.4330 C   0  0  0  0  0  1  0  0  0  0  0  0
  187.6750  176.1840  142.0410 C   0  0  0  0  0  2  0  0  0  0  0  0
  188.2370  177.9160  142.0120 S   0  0  0  0  0  0  0  0  0  0  0  0
  183.0630  178.2870  141.0150 C   0  0  0  0  0  1  0  0  0  0  0  0
  185.0210  178.8060  144.2400 C   0  0  0  0  0  3  0  0  0  0  0  0
  184.0880  178.0160  142.0950 C   0  0  1  0  0  3  0  0  0  0  0  0
  186.5940  178.6260  142.3600 C   0  0  2  0  0  3  0  0  0  0  0  0
  186.2760  178.5990  143.8310 C   0  0  0  0  0  3  0  0  0  0  0  0
  185.5000  177.9860  141.4810 C   0  0  0  0  0  2  0  0  0  0  0  0
  183.9460  179.0420  143.2220 C   0  0  0  0  0  2  0  0  0  0  0  0
  186.9910  176.9080  146.8920 C   0  0  0  0  0  2  0  0  0  0  0  0
  185.1890  178.2890  147.7760 N   0  0  0  0  0  1  0  0  0  0  0  0
  186.6130  178.2540  147.4890 C   0  0  0  0  0  2  0  0  0  0  0  0
  1  4  1  6  0  0  0
  1  6  1  0  0  0  0
  3 11  1  0  0  0  0
  4  8  1  0  0  0  0
  5  7  1  1  0  0  0
  5 12  1  0  0  0  0
  5 19  1  0  0  0  0
  6 10  1  1  0  0  0
  6  3  1  0  0  0  0
  8 17  2  0  0  0  0
  8 11  1  0  0  0  0
  9 14  1  0  0  0  0
 12  2  1  6  0  0  0
 12  1  1  0  0  0  0
 13  9  1  0  0  0  0
 13 17  1  0  0  0  0
 14 32  1  1  0  0  0
 14 15  1  0  0  0  0
 16 15  1  0  0  0  0
 17 16  1  0  0  0  0
 18 13  2  0  0  0  0
 19 18  1  0  0  0  0
 19  4  2  0  0  0  0
 20 18  1  0  0  0  0
 21 22  1  6  0  0  0
 21 23  1  0  0  0  0
 21 20  1  0  0  0  0
 24 23  1  0  0  0  0
 27 25  1  6  0  0  0
 27 31  1  0  0  0  0
 28 24  1  1  0  0  0
 28 29  1  0  0  0  0
 29 26  2  0  0  0  0
 30 27  1  0  0  0  0
 30 28  1  0  0  0  0
 31 26  1  0  0  0  0
 32 34  1  0  0  0  0
 34 33  1  0  0  0  0
M  END
>  <MODEL>
8

>  <REMARK>
 VINA RESULT:      -6.2      2.797      3.925
  Name = 
  7 active torsions:
  status: ('A' for Active; 'I' for Inactive)
    1  A    between atoms: C_1  and  C_6
    2  A    between atoms: C_1  and  C_12
    3  A    between atoms: C_6  and  S_31
    4  A    between atoms: C_7  and  C_14
    5  A    between atoms: C_12  and  C_33
    6  A    between atoms: C_14  and  C_25
    7  A    between atoms: C_17  and  S_31
                            x       y       z     vdW  Elec       q    Type
                         _______ _______ _______ _____ _____    ______ ____

>  <TORSDO>
F 7

$$$$
=
 OpenBabel11072408243D

 34 38  0  0  1  0  0  0  0  0999 V2000
  191.8400  176.0160  145.5760 C   0  0  2  0  0  3  0  0  0  0  0  0
  193.6200  176.6410  143.9740 C   0  0  0  0  0  1  0  0  0  0  0  0
  191.4140  175.6440  148.0110 C   0  0  0  0  0  2  0  0  0  0  0  0
  190.6400  176.5520  145.4570 C   0  0  0  0  0  0  0  0  0  0  0  0
  191.2510  176.2350  143.3740 C   0  0  2  0  0  3  0  0  0  0  0  0
  192.4880  175.7890  146.9170 C   0  0  1  0  0  3  0  0  0  0  0  0
  191.2080  176.1570  141.9870 O   0  0  0  0  0  1  0  0  0  0  0  0
  189.8120  176.8910  146.5210 C   0  0  0  0  0  0  0  0  0  0  0  0
  186.6890  177.9210  144.5530 C   0  0  0  0  0  2  0  0  0  0  0  0
  193.3060  174.5900  146.8830 N   0  0  0  0  0  1  0  0  0  0  0  0
  190.3510  176.7570  147.9260 C   0  0  0  0  0  2  0  0  0  0  0  0
  192.4070  175.7600  144.2110 C   0  0  2  0  0  3  0  0  0  0  0  0
  188.1160  177.5430  144.8710 C   0  0  0  0  0  0  0  0  0  0  0  0
  186.0240  178.6940  145.6840 C   0  0  2  0  0  3  0  0  0  0  0  0
  186.1690  177.9000  146.9730 C   0  0  0  0  0  2  0  0  0  0  0  0
  187.6390  177.8400  147.3650 C   0  0  0  0  0  2  0  0  0  0  0  0
  188.5260  177.3870  146.2320 C   0  0  0  0  0  0  0  0  0  0  0  0
  189.0050  177.2150  143.8110 C   0  0  0  0  0  0  0  0  0  0  0  0
  190.2680  176.6920  144.1480 C   0  0  0  0  0  0  0  0  0  0  0  0
  188.6020  177.4110  142.3690 C   0  0  0  0  0  2  0  0  0  0  0  0
  187.5330  176.4250  141.8750 C   0  0  1  0  0  3  0  0  0  0  0  0
  187.3890  176.4190  140.3640 C   0  0  0  0  0  1  0  0  0  0  0  0
  187.7520  175.0120  142.3820 C   0  0  0  0  0  2  0  0  0  0  0  0
  188.5690  174.0210  141.0920 S   0  0  0  0  0  0  0  0  0  0  0  0
  192.8930  171.3770  142.5800 C   0  0  0  0  0  1  0  0  0  0  0  0
  190.0630  172.8800  144.6370 C   0  0  0  0  0  3  0  0  0  0  0  0
  191.8660  172.3970  143.0210 C   0  0  1  0  0  3  0  0  0  0  0  0
  189.4460  172.9270  142.2580 C   0  0  2  0  0  3  0  0  0  0  0  0
  189.2700  173.3780  143.6840 C   0  0  0  0  0  3  0  0  0  0  0  0
  190.9200  172.7280  141.8520 C   0  0  0  0  0  2  0  0  0  0  0  0
  191.1300  171.8940  144.2650 C   0  0  0  0  0  2  0  0  0  0  0  0
  184.5550  178.9010  145.3520 C   0  0  0  0  0  2  0  0  0  0  0  0
  183.6910  178.4200  143.1250 N   0  0  0  0  0  1  0  0  0  0  0  0
  184.3800  179.4130  143.9310 C   0  0  0  0  0  2  0  0  0  0  0  0
  1  4  1  6  0  0  0
  1  6  1  0  0  0  0
  4  8  1  0  0  0  0
  5  7  1  1  0  0  0
  5 19  1  0  0  0  0
  5 12  1  0  0  0  0
  6 10  1  6  0  0  0
  6  3  1  0  0  0  0
  8 11  1  0  0  0  0
  9 13  1  0  0  0  0
  9 14  1  0  0  0  0
 11  3  1  0  0  0  0
 12  2  1  6  0  0  0
 12  1  1  0  0  0  0
 13 17  1  0  0  0  0
 14 32  1  6  0  0  0
 14 15  1  0  0  0  0
 15 16  1  0  0  0  0
 17  8  2  0  0  0  0
 17 16  1  0  0  0  0
 18 19  1  0  0  0  0
 18 13  2  0  0  0  0
 19  4  2  0  0  0  0
 20 18  1  0  0  0  0
 21 22  1  6  0  0  0
 21 20  1  0  0  0  0
 21 23  1  0  0  0  0
 24 23  1  0  0  0  0
 27 25  1  6  0  0  0
 27 31  1  0  0  0  0
 28 24  1  6  0  0  0
 28 29  1  0  0  0  0
 29 26  2  0  0  0  0
 30 28  1  0  0  0  0
 30 27  1  0  0  0  0
 31 26  1  0  0  0  0
 33 34  1  0  0  0  0
 34 32  1  0  0  0  0
M  END
>  <MODEL>
9

>  <REMARK>
 VINA RESULT:      -6.1      2.469      4.876
  Name = 
  7 active torsions:
  status: ('A' for Active; 'I' for Inactive)
    1  A    between atoms: C_1  and  C_6
    2  A    between atoms: C_1  and  C_12
    3  A    between atoms: C_6  and  S_31
    4  A    between atoms: C_7  and  C_14
    5  A    between atoms: C_12  and  C_33
    6  A    between atoms: C_14  and  C_25
    7  A    between atoms: C_17  and  S_31
                            x       y       z     vdW  Elec       q    Type
                         _______ _______ _______ _____ _____    ______ ____

>  <TORSDO>
F 7

$$$$
