=
 OpenBabel11062420083D

 35 38  0  0  1  0  0  0  0  0999 V2000
  195.1410  173.9350  144.6180 C   0  0  1  0  0  3  0  0  0  0  0  0
  195.5750  174.8670  145.7630 C   0  0  0  0  0  2  0  0  0  0  0  0
  191.6820  176.2930  142.3730 C   0  0  0  0  0  1  0  0  0  0  0  0
  193.2210  175.5470  144.2990 C   0  0  0  0  0  0  0  0  0  0  0  0
  192.1570  176.2640  143.7850 C   0  0  0  0  0  0  0  0  0  0  0  0
  194.4940  172.6770  145.1880 C   0  0  0  0  0  1  0  0  0  0  0  0
  194.2390  174.6820  143.6040 C   0  0  2  0  0  3  0  0  0  0  0  0
  191.6510  176.9930  144.8470 C   0  0  0  0  0  0  0  0  0  0  0  0
  193.3230  175.9270  145.6180 C   0  0  0  0  0  0  0  0  0  0  0  0
  194.3750  175.4180  146.5530 C   0  0  0  0  0  2  0  0  0  0  0  0
  192.3670  176.7710  145.9300 O   0  0  0  0  0  0  0  0  0  0  0  0
  194.1910  173.6900  141.4340 O   0  0  0  0  0  0  0  0  0  0  0  0
  193.6430  173.7770  142.5650 C   0  0  0  0  0  0  0  0  0  0  0  0
  192.4790  173.0020  142.8670 N   0  0  0  0  0  2  0  0  0  0  0  0
  190.7050  172.9230  141.1880 C   0  0  0  0  0  2  0  0  0  0  0  0
  191.3470  170.8950  142.5660 C   0  0  0  0  0  3  0  0  0  0  0  0
  191.8250  172.1460  141.8900 C   0  0  2  0  0  3  0  0  0  0  0  0
  190.8410  169.7940  140.4180 C   0  0  0  0  0  0  0  0  0  0  0  0
  191.0640  168.7190  139.8010 O   0  0  0  0  0  0  0  0  0  0  0  0
  190.9480  169.8180  141.8860 C   0  0  0  0  0  3  0  0  0  0  0  0
  190.4530  170.9600  139.6820 N   0  0  0  0  0  2  0  0  0  0  0  0
  189.7680  172.0760  140.3230 C   0  0  0  0  0  2  0  0  0  0  0  0
  190.4530  177.8920  144.8100 C   0  0  0  0  0  2  0  0  0  0  0  0
  188.2290  177.6840  142.7660 C   0  0  0  0  0  1  0  0  0  0  0  0
  189.1390  177.1320  145.0310 C   0  0  1  0  0  3  0  0  0  0  0  0
  186.6310  177.0530  144.5890 C   0  0  2  0  0  3  0  0  0  0  0  0
  186.4040  176.9460  146.0950 C   0  0  0  0  0  2  0  0  0  0  0  0
  188.8480  177.0010  146.5270 C   0  0  0  0  0  2  0  0  0  0  0  0
  187.5640  176.2170  146.7540 C   0  0  0  0  0  2  0  0  0  0  0  0
  187.9600  177.7600  144.2640 C   0  0  2  0  0  3  0  0  0  0  0  0
  184.9360  177.2880  142.9150 O   0  0  0  0  0  0  0  0  0  0  0  0
  185.4660  177.7560  143.9590 C   0  0  0  0  0  0  0  0  0  0  0  0
  183.8680  178.9410  145.4330 O   0  0  0  0  0  1  0  0  0  0  0  0
  184.9390  178.9930  144.5490 C   0  0  0  0  0  0  0  0  0  0  0  0
  185.4530  180.1060  144.2620 O   0  0  0  0  0  0  0  0  0  0  0  0
  1  6  1  1  0  0  0
  1  2  1  0  0  0  0
  2 10  1  0  0  0  0
  3  5  1  0  0  0  0
  4  9  2  0  0  0  0
  5  4  1  0  0  0  0
  5  8  2  0  0  0  0
  7 13  1  1  0  0  0
  7  4  1  0  0  0  0
  7  1  1  0  0  0  0
  8 11  1  0  0  0  0
  9 11  1  0  0  0  0
  9 10  1  0  0  0  0
 12 13  2  0  0  0  0
 13 14  1  0  0  0  0
 15 17  1  0  0  0  0
 17 16  1  0  0  0  0
 17 14  1  1  0  0  0
 18 20  1  0  0  0  0
 19 18  2  0  0  0  0
 20 16  2  0  0  0  0
 21 22  1  0  0  0  0
 21 18  1  0  0  0  0
 22 15  1  0  0  0  0
 23  8  1  0  0  0  0
 25 23  1  1  0  0  0
 25 28  1  0  0  0  0
 26 32  1  6  0  0  0
 26 27  1  0  0  0  0
 27 29  1  0  0  0  0
 28 29  1  0  0  0  0
 30 24  1  6  0  0  0
 30 26  1  0  0  0  0
 30 25  1  0  0  0  0
 31 32  2  0  0  0  0
 32 34  1  0  0  0  0
 34 33  1  0  0  0  0
 35 34  2  0  0  0  0
M  END
>  <MODEL>
1

>  <REMARK>
 VINA RESULT:      -7.6      0.000      0.000
  Name = 
  6 active torsions:
  status: ('A' for Active; 'I' for Inactive)
    1  A    between atoms: C_3  and  C_8
    2  A    between atoms: C_3  and  C_11
    3  A    between atoms: C_7  and  C_27
    4  A    between atoms: C_18  and  C_31
    5  A    between atoms: C_19  and  N_32
    6  A    between atoms: C_22  and  C_27
                            x       y       z     vdW  Elec       q    Type
                         _______ _______ _______ _____ _____    ______ ____

>  <TORSDO>
F 6

$$$$
=
 OpenBabel11062420083D

 35 38  0  0  1  0  0  0  0  0999 V2000
  192.9210  176.3820  143.5930 C   0  0  1  0  0  3  0  0  0  0  0  0
  192.1240  177.5450  142.9770 C   0  0  0  0  0  2  0  0  0  0  0  0
  189.6860  173.7660  145.8870 C   0  0  0  0  0  1  0  0  0  0  0  0
  190.7920  175.8480  144.8460 C   0  0  0  0  0  0  0  0  0  0  0  0
  189.7970  175.2190  145.5690 C   0  0  0  0  0  0  0  0  0  0  0  0
  193.8720  176.9120  144.6620 C   0  0  0  0  0  1  0  0  0  0  0  0
  191.9740  175.2710  144.1110 C   0  0  2  0  0  3  0  0  0  0  0  0
  188.8910  176.2120  145.8970 C   0  0  0  0  0  0  0  0  0  0  0  0
  190.4000  177.1630  144.7370 C   0  0  0  0  0  0  0  0  0  0  0  0
  191.1750  178.2050  143.9930 C   0  0  0  0  0  2  0  0  0  0  0  0
  189.2780  177.3640  145.3880 O   0  0  0  0  0  0  0  0  0  0  0  0
  192.7920  174.3000  146.1310 O   0  0  0  0  0  0  0  0  0  0  0  0
  192.6890  174.1980  144.8800 C   0  0  0  0  0  0  0  0  0  0  0  0
  193.2250  173.0590  144.1990 N   0  0  0  0  0  2  0  0  0  0  0  0
  195.4750  172.2400  144.6870 C   0  0  0  0  0  2  0  0  0  0  0  0
  193.5050  170.6730  144.3900 C   0  0  0  0  0  3  0  0  0  0  0  0
  193.9710  172.0120  144.8790 C   0  0  2  0  0  3  0  0  0  0  0  0
  194.7240  169.4750  146.1680 C   0  0  0  0  0  0  0  0  0  0  0  0
  194.5360  168.6030  147.0570 O   0  0  0  0  0  0  0  0  0  0  0  0
  193.8150  169.5330  145.0120 C   0  0  0  0  0  3  0  0  0  0  0  0
  195.8390  170.3670  146.2830 N   0  0  0  0  0  2  0  0  0  0  0  0
  196.3700  171.0780  145.1270 C   0  0  0  0  0  2  0  0  0  0  0  0
  187.6560  176.0410  146.7270 C   0  0  0  0  0  2  0  0  0  0  0  0
  186.4380  175.8460  143.9630 C   0  0  0  0  0  1  0  0  0  0  0  0
  186.4880  176.9020  146.2310 C   0  0  1  0  0  3  0  0  0  0  0  0
  185.4380  178.1240  144.2570 C   0  0  2  0  0  3  0  0  0  0  0  0
  185.4020  179.3930  145.1050 C   0  0  0  0  0  2  0  0  0  0  0  0
  186.4030  178.1990  147.0380 C   0  0  0  0  0  2  0  0  0  0  0  0
  185.2250  179.0410  146.5740 C   0  0  0  0  0  2  0  0  0  0  0  0
  186.5540  177.1660  144.7150 C   0  0  2  0  0  3  0  0  0  0  0  0
  186.6940  178.9420  142.3900 O   0  0  0  0  0  0  0  0  0  0  0  0
  185.5930  178.4970  142.8120 C   0  0  0  0  0  0  0  0  0  0  0  0
  184.6940  178.2870  140.5140 O   0  0  0  0  0  0  0  0  0  0  0  0
  184.4650  178.3510  141.8840 C   0  0  0  0  0  0  0  0  0  0  0  0
  183.2850  178.2800  142.3190 O   0  0  0  0  0  1  0  0  0  0  0  0
  1  7  1  0  0  0  0
  1  6  1  1  0  0  0
  2  1  1  0  0  0  0
  2 10  1  0  0  0  0
  4  5  1  0  0  0  0
  5  3  1  0  0  0  0
  5  8  2  0  0  0  0
  7  4  1  0  0  0  0
  7 13  1  1  0  0  0
  8 23  1  0  0  0  0
  9  4  2  0  0  0  0
  9 11  1  0  0  0  0
 10  9  1  0  0  0  0
 11  8  1  0  0  0  0
 13 12  2  0  0  0  0
 14 13  1  0  0  0  0
 15 17  1  0  0  0  0
 15 22  1  0  0  0  0
 16 17  1  0  0  0  0
 16 20  2  0  0  0  0
 17 14  1  6  0  0  0
 18 21  1  0  0  0  0
 18 19  2  0  0  0  0
 20 18  1  0  0  0  0
 22 21  1  0  0  0  0
 25 23  1  1  0  0  0
 25 28  1  0  0  0  0
 26 32  1  6  0  0  0
 26 30  1  0  0  0  0
 26 27  1  0  0  0  0
 27 29  1  0  0  0  0
 29 28  1  0  0  0  0
 30 24  1  6  0  0  0
 30 25  1  0  0  0  0
 31 32  2  0  0  0  0
 33 34  2  0  0  0  0
 34 35  1  0  0  0  0
 34 32  1  0  0  0  0
M  END
>  <MODEL>
2

>  <REMARK>
 VINA RESULT:      -7.5      2.942      4.268
  Name = 
  6 active torsions:
  status: ('A' for Active; 'I' for Inactive)
    1  A    between atoms: C_3  and  C_8
    2  A    between atoms: C_3  and  C_11
    3  A    between atoms: C_7  and  C_27
    4  A    between atoms: C_18  and  C_31
    5  A    between atoms: C_19  and  N_32
    6  A    between atoms: C_22  and  C_27
                            x       y       z     vdW  Elec       q    Type
                         _______ _______ _______ _____ _____    ______ ____

>  <TORSDO>
F 6

$$$$
=
 OpenBabel11062420083D

 35 38  0  0  1  0  0  0  0  0999 V2000
  189.1610  174.0480  141.2790 C   0  0  1  0  0  3  0  0  0  0  0  0
  190.1580  172.9320  140.9220 C   0  0  0  0  0  2  0  0  0  0  0  0
  191.3840  176.6630  144.5640 C   0  0  0  0  0  1  0  0  0  0  0  0
  190.7520  174.5940  143.1660 C   0  0  0  0  0  0  0  0  0  0  0  0
  191.4380  175.2220  144.1880 C   0  0  0  0  0  0  0  0  0  0  0  0
  187.9380  173.4520  141.9700 C   0  0  0  0  0  1  0  0  0  0  0  0
  189.8470  175.1650  142.1050 C   0  0  2  0  0  3  0  0  0  0  0  0
  192.2280  174.2420  144.7640 C   0  0  0  0  0  0  0  0  0  0  0  0
  191.2090  173.2950  143.1530 C   0  0  0  0  0  0  0  0  0  0  0  0
  190.7550  172.2610  142.1710 C   0  0  0  0  0  2  0  0  0  0  0  0
  192.0700  173.1010  144.1250 O   0  0  0  0  0  0  0  0  0  0  0  0
  188.7570  177.2850  142.0270 O   0  0  0  0  0  0  0  0  0  0  0  0
  188.8830  176.1870  142.6310 C   0  0  0  0  0  0  0  0  0  0  0  0
  188.0970  175.9060  143.7940 N   0  0  0  0  0  2  0  0  0  0  0  0
  187.1260  176.6740  145.9010 C   0  0  0  0  0  2  0  0  0  0  0  0
  185.8450  176.7600  143.7160 C   0  0  0  0  0  3  0  0  0  0  0  0
  187.1840  176.8730  144.3820 C   0  0  2  0  0  3  0  0  0  0  0  0
  185.0240  178.8380  144.7600 C   0  0  0  0  0  0  0  0  0  0  0  0
  184.4720  179.9270  144.4520 O   0  0  0  0  0  0  0  0  0  0  0  0
  184.8900  177.6830  143.8580 C   0  0  0  0  0  3  0  0  0  0  0  0
  185.7400  178.7370  145.9960 N   0  0  0  0  0  2  0  0  0  0  0  0
  186.0150  177.4470  146.6170 C   0  0  0  0  0  2  0  0  0  0  0  0
  193.1230  174.4150  145.9520 C   0  0  0  0  0  2  0  0  0  0  0  0
  194.7520  176.8720  145.2620 C   0  0  0  0  0  1  0  0  0  0  0  0
  194.6100  174.3940  145.5780 C   0  0  1  0  0  3  0  0  0  0  0  0
  196.4560  175.4140  144.1480 C   0  0  2  0  0  3  0  0  0  0  0  0
  196.7870  174.0130  143.6370 C   0  0  0  0  0  2  0  0  0  0  0  0
  195.0040  173.0140  145.0460 C   0  0  0  0  0  2  0  0  0  0  0  0
  196.4860  172.9760  144.7070 C   0  0  0  0  0  2  0  0  0  0  0  0
  194.9870  175.5210  144.5980 C   0  0  2  0  0  3  0  0  0  0  0  0
  197.5080  177.4130  143.3550 O   0  0  0  0  0  0  0  0  0  0  0  0
  196.7790  176.4200  143.0830 C   0  0  0  0  0  0  0  0  0  0  0  0
  197.0690  175.7910  140.7060 O   0  0  0  0  0  0  0  0  0  0  0  0
  196.2470  176.2590  141.7250 C   0  0  0  0  0  0  0  0  0  0  0  0
  195.0460  176.5410  141.4720 O   0  0  0  0  0  1  0  0  0  0  0  0
  1  6  1  1  0  0  0
  1  7  1  0  0  0  0
  2  1  1  0  0  0  0
  2 10  1  0  0  0  0
  4  5  1  0  0  0  0
  5  3  1  0  0  0  0
  5  8  2  0  0  0  0
  7 13  1  1  0  0  0
  7  4  1  0  0  0  0
  8 23  1  0  0  0  0
  9  4  2  0  0  0  0
  9 11  1  0  0  0  0
 10  9  1  0  0  0  0
 11  8  1  0  0  0  0
 12 13  2  0  0  0  0
 13 14  1  0  0  0  0
 15 22  1  0  0  0  0
 16 20  2  0  0  0  0
 16 17  1  0  0  0  0
 17 14  1  6  0  0  0
 17 15  1  0  0  0  0
 18 21  1  0  0  0  0
 19 18  2  0  0  0  0
 20 18  1  0  0  0  0
 21 22  1  0  0  0  0
 25 23  1  6  0  0  0
 26 32  1  6  0  0  0
 26 30  1  0  0  0  0
 27 26  1  0  0  0  0
 27 29  1  0  0  0  0
 28 25  1  0  0  0  0
 29 28  1  0  0  0  0
 30 24  1  1  0  0  0
 30 25  1  0  0  0  0
 32 31  2  0  0  0  0
 33 34  2  0  0  0  0
 34 32  1  0  0  0  0
 35 34  1  0  0  0  0
M  END
>  <MODEL>
3

>  <REMARK>
 VINA RESULT:      -7.4      2.784      8.387
  Name = 
  6 active torsions:
  status: ('A' for Active; 'I' for Inactive)
    1  A    between atoms: C_3  and  C_8
    2  A    between atoms: C_3  and  C_11
    3  A    between atoms: C_7  and  C_27
    4  A    between atoms: C_18  and  C_31
    5  A    between atoms: C_19  and  N_32
    6  A    between atoms: C_22  and  C_27
                            x       y       z     vdW  Elec       q    Type
                         _______ _______ _______ _____ _____    ______ ____

>  <TORSDO>
F 6

$$$$
=
 OpenBabel11062420083D

 35 38  0  0  1  0  0  0  0  0999 V2000
  193.5900  173.7260  144.3130 C   0  0  1  0  0  3  0  0  0  0  0  0
  193.9540  174.1120  145.7570 C   0  0  0  0  0  2  0  0  0  0  0  0
  190.7910  177.2440  142.7780 C   0  0  0  0  0  1  0  0  0  0  0  0
  191.9340  175.6320  144.4310 C   0  0  0  0  0  0  0  0  0  0  0  0
  191.0470  176.6440  144.1180 C   0  0  0  0  0  0  0  0  0  0  0  0
  192.7260  172.4680  144.3130 C   0  0  0  0  0  1  0  0  0  0  0  0
  192.9380  174.9160  143.5660 C   0  0  2  0  0  3  0  0  0  0  0  0
  190.4760  177.0230  145.3210 C   0  0  0  0  0  0  0  0  0  0  0  0
  191.8840  175.5010  145.8000 C   0  0  0  0  0  0  0  0  0  0  0  0
  192.7220  174.5340  146.5770 C   0  0  0  0  0  2  0  0  0  0  0  0
  190.9950  176.3230  146.3090 O   0  0  0  0  0  0  0  0  0  0  0  0
  193.0210  174.9120  141.1810 O   0  0  0  0  0  0  0  0  0  0  0  0
  192.4020  174.5420  142.2140 C   0  0  0  0  0  0  0  0  0  0  0  0
  191.2140  173.7520  142.1030 N   0  0  0  0  0  2  0  0  0  0  0  0
  189.3330  174.2110  140.6120 C   0  0  0  0  0  2  0  0  0  0  0  0
  190.3990  171.9180  140.7700 C   0  0  0  0  0  3  0  0  0  0  0  0
  190.6170  173.4000  140.8250 C   0  0  2  0  0  3  0  0  0  0  0  0
  189.8820  171.9700  138.3590 C   0  0  0  0  0  0  0  0  0  0  0  0
  190.2130  171.4070  137.2830 O   0  0  0  0  0  0  0  0  0  0  0  0
  190.1130  171.2740  139.6350 C   0  0  0  0  0  3  0  0  0  0  0  0
  189.2560  173.2570  138.3170 N   0  0  0  0  0  2  0  0  0  0  0  0
  188.4660  173.7600  139.4340 C   0  0  0  0  0  2  0  0  0  0  0  0
  189.4080  178.0570  145.5040 C   0  0  0  0  0  2  0  0  0  0  0  0
  187.5740  178.2900  143.1070 C   0  0  0  0  0  1  0  0  0  0  0  0
  187.9960  177.4640  145.4320 C   0  0  1  0  0  3  0  0  0  0  0  0
  185.6150  177.7470  144.5700 C   0  0  2  0  0  3  0  0  0  0  0  0
  185.1120  177.5660  146.0000 C   0  0  0  0  0  2  0  0  0  0  0  0
  187.4290  177.2670  146.8390 C   0  0  0  0  0  2  0  0  0  0  0  0
  186.0420  176.6460  146.7740 C   0  0  0  0  0  2  0  0  0  0  0  0
  187.0540  178.2940  144.5390 C   0  0  2  0  0  3  0  0  0  0  0  0
  184.4210  179.7990  144.2550 O   0  0  0  0  0  0  0  0  0  0  0  0
  184.6710  178.6410  143.8210 C   0  0  0  0  0  0  0  0  0  0  0  0
  182.6730  178.3940  142.3800 O   0  0  0  0  0  1  0  0  0  0  0  0
  184.0300  178.1740  142.5860 C   0  0  0  0  0  0  0  0  0  0  0  0
  184.7010  177.5750  141.7060 O   0  0  0  0  0  0  0  0  0  0  0  0
  1  6  1  1  0  0  0
  1  2  1  0  0  0  0
  2 10  1  0  0  0  0
  3  5  1  0  0  0  0
  4  9  2  0  0  0  0
  5  4  1  0  0  0  0
  5  8  2  0  0  0  0
  7 13  1  6  0  0  0
  7  1  1  0  0  0  0
  7  4  1  0  0  0  0
  8 23  1  0  0  0  0
  8 11  1  0  0  0  0
  9 11  1  0  0  0  0
  9 10  1  0  0  0  0
 12 13  2  0  0  0  0
 14 13  1  0  0  0  0
 15 17  1  0  0  0  0
 16 17  1  0  0  0  0
 17 14  1  1  0  0  0
 18 20  1  0  0  0  0
 19 18  2  0  0  0  0
 20 16  2  0  0  0  0
 21 18  1  0  0  0  0
 21 22  1  0  0  0  0
 22 15  1  0  0  0  0
 25 23  1  1  0  0  0
 25 28  1  0  0  0  0
 26 32  1  6  0  0  0
 26 27  1  0  0  0  0
 27 29  1  0  0  0  0
 29 28  1  0  0  0  0
 30 24  1  6  0  0  0
 30 26  1  0  0  0  0
 30 25  1  0  0  0  0
 32 31  2  0  0  0  0
 33 34  1  0  0  0  0
 34 32  1  0  0  0  0
 35 34  2  0  0  0  0
M  END
>  <MODEL>
4

>  <REMARK>
 VINA RESULT:      -7.4      1.613      2.045
  Name = 
  6 active torsions:
  status: ('A' for Active; 'I' for Inactive)
    1  A    between atoms: C_3  and  C_8
    2  A    between atoms: C_3  and  C_11
    3  A    between atoms: C_7  and  C_27
    4  A    between atoms: C_18  and  C_31
    5  A    between atoms: C_19  and  N_32
    6  A    between atoms: C_22  and  C_27
                            x       y       z     vdW  Elec       q    Type
                         _______ _______ _______ _____ _____    ______ ____

>  <TORSDO>
F 6

$$$$
=
 OpenBabel11062420083D

 35 38  0  0  1  0  0  0  0  0999 V2000
  189.3980  173.7680  140.1520 C   0  0  1  0  0  3  0  0  0  0  0  0
  190.7470  173.0840  139.8710 C   0  0  0  0  0  2  0  0  0  0  0  0
  190.0610  176.1450  144.2120 C   0  0  0  0  0  1  0  0  0  0  0  0
  190.3790  174.3280  142.4130 C   0  0  0  0  0  0  0  0  0  0  0  0
  190.6390  174.8930  143.6470 C   0  0  0  0  0  0  0  0  0  0  0  0
  188.3330  172.7170  140.4470 C   0  0  0  0  0  1  0  0  0  0  0  0
  189.5360  174.8310  141.2710 C   0  0  2  0  0  3  0  0  0  0  0  0
  191.5910  174.0780  144.2360 C   0  0  0  0  0  0  0  0  0  0  0  0
  191.2240  173.2460  142.3120 C   0  0  0  0  0  0  0  0  0  0  0  0
  191.3040  172.3600  141.1090 C   0  0  0  0  0  2  0  0  0  0  0  0
  191.9210  173.1020  143.4160 O   0  0  0  0  0  0  0  0  0  0  0  0
  187.4530  174.7070  142.4290 O   0  0  0  0  0  0  0  0  0  0  0  0
  188.2180  175.4020  141.7080 C   0  0  0  0  0  0  0  0  0  0  0  0
  187.8470  176.7310  141.3300 N   0  0  0  0  0  2  0  0  0  0  0  0
  185.7680  177.6210  140.4030 C   0  0  0  0  0  2  0  0  0  0  0  0
  186.7920  178.5320  142.5350 C   0  0  0  0  0  3  0  0  0  0  0  0
  186.5650  177.3220  141.6780 C   0  0  2  0  0  3  0  0  0  0  0  0
  184.4010  178.7100  143.1130 C   0  0  0  0  0  0  0  0  0  0  0  0
  183.6510  178.8180  144.1180 O   0  0  0  0  0  0  0  0  0  0  0  0
  185.8100  179.1240  143.2180 C   0  0  0  0  0  3  0  0  0  0  0  0
  183.8600  178.2210  141.8800 N   0  0  0  0  0  2  0  0  0  0  0  0
  184.5150  178.4770  140.6030 C   0  0  0  0  0  2  0  0  0  0  0  0
  192.1640  174.2420  145.6100 C   0  0  0  0  0  2  0  0  0  0  0  0
  193.6530  176.7610  144.8350 C   0  0  0  0  0  1  0  0  0  0  0  0
  193.6920  174.3790  145.5990 C   0  0  1  0  0  3  0  0  0  0  0  0
  195.7240  175.4060  144.4570 C   0  0  2  0  0  3  0  0  0  0  0  0
  196.3160  174.0040  144.3270 C   0  0  0  0  0  2  0  0  0  0  0  0
  194.3470  173.0040  145.4600 C   0  0  0  0  0  2  0  0  0  0  0  0
  195.8630  173.1300  145.4850 C   0  0  0  0  0  2  0  0  0  0  0  0
  194.1860  175.3680  144.5270 C   0  0  2  0  0  3  0  0  0  0  0  0
  196.9610  177.2370  143.5360 O   0  0  0  0  0  0  0  0  0  0  0  0
  196.2020  176.2550  143.3160 C   0  0  0  0  0  0  0  0  0  0  0  0
  196.4810  175.0090  141.1950 O   0  0  0  0  0  0  0  0  0  0  0  0
  195.7840  175.9520  141.9420 C   0  0  0  0  0  0  0  0  0  0  0  0
  194.7950  176.5390  141.4310 O   0  0  0  0  0  1  0  0  0  0  0  0
  1  6  1  1  0  0  0
  1  7  1  0  0  0  0
  2  1  1  0  0  0  0
  2 10  1  0  0  0  0
  4  5  1  0  0  0  0
  5  3  1  0  0  0  0
  5  8  2  0  0  0  0
  7 13  1  1  0  0  0
  7  4  1  0  0  0  0
  8 23  1  0  0  0  0
  9  4  2  0  0  0  0
  9 11  1  0  0  0  0
 10  9  1  0  0  0  0
 11  8  1  0  0  0  0
 13 12  2  0  0  0  0
 14 13  1  0  0  0  0
 15 22  1  0  0  0  0
 15 17  1  0  0  0  0
 16 20  2  0  0  0  0
 17 14  1  6  0  0  0
 17 16  1  0  0  0  0
 18 20  1  0  0  0  0
 18 19  2  0  0  0  0
 21 18  1  0  0  0  0
 22 21  1  0  0  0  0
 25 23  1  6  0  0  0
 26 32  1  6  0  0  0
 26 30  1  0  0  0  0
 27 26  1  0  0  0  0
 27 29  1  0  0  0  0
 28 29  1  0  0  0  0
 28 25  1  0  0  0  0
 30 24  1  1  0  0  0
 30 25  1  0  0  0  0
 32 31  2  0  0  0  0
 33 34  2  0  0  0  0
 34 32  1  0  0  0  0
 35 34  1  0  0  0  0
M  END
>  <MODEL>
5

>  <REMARK>
 VINA RESULT:      -7.3      2.945      8.206
  Name = 
  6 active torsions:
  status: ('A' for Active; 'I' for Inactive)
    1  A    between atoms: C_3  and  C_8
    2  A    between atoms: C_3  and  C_11
    3  A    between atoms: C_7  and  C_27
    4  A    between atoms: C_18  and  C_31
    5  A    between atoms: C_19  and  N_32
    6  A    between atoms: C_22  and  C_27
                            x       y       z     vdW  Elec       q    Type
                         _______ _______ _______ _____ _____    ______ ____

>  <TORSDO>
F 6

$$$$
=
 OpenBabel11062420083D

 35 38  0  0  1  0  0  0  0  0999 V2000
  188.7310  175.5950  146.4980 C   0  0  1  0  0  3  0  0  0  0  0  0
  189.6020  174.9200  147.5720 C   0  0  0  0  0  2  0  0  0  0  0  0
  191.4860  175.7790  142.6320 C   0  0  0  0  0  1  0  0  0  0  0  0
  190.8520  175.7030  145.1280 C   0  0  0  0  0  0  0  0  0  0  0  0
  191.7650  175.8060  144.0960 C   0  0  0  0  0  0  0  0  0  0  0  0
  188.4530  177.0430  146.8890 C   0  0  0  0  0  1  0  0  0  0  0  0
  189.3670  175.4510  145.0930 C   0  0  2  0  0  3  0  0  0  0  0  0
  193.0060  175.8910  144.7040 C   0  0  0  0  0  0  0  0  0  0  0  0
  191.5980  175.6770  146.2850 C   0  0  0  0  0  0  0  0  0  0  0  0
  191.0100  175.5350  147.6540 C   0  0  0  0  0  2  0  0  0  0  0  0
  192.8750  175.8120  146.0120 O   0  0  0  0  0  0  0  0  0  0  0  0
  189.0650  177.3980  143.7470 O   0  0  0  0  0  0  0  0  0  0  0  0
  188.6520  176.2440  144.0380 C   0  0  0  0  0  0  0  0  0  0  0  0
  187.5290  175.6820  143.3520 N   0  0  0  0  0  2  0  0  0  0  0  0
  187.5930  176.5710  141.0760 C   0  0  0  0  0  2  0  0  0  0  0  0
  186.3210  177.7260  142.9390 C   0  0  0  0  0  3  0  0  0  0  0  0
  186.7640  176.4170  142.3570 C   0  0  2  0  0  3  0  0  0  0  0  0
  184.7950  178.1750  141.0540 C   0  0  0  0  0  0  0  0  0  0  0  0
  183.5990  178.4980  140.8290 O   0  0  0  0  0  0  0  0  0  0  0  0
  185.3920  178.4920  142.3620 C   0  0  0  0  0  3  0  0  0  0  0  0
  185.5590  177.5410  140.0230 N   0  0  0  0  0  2  0  0  0  0  0  0
  187.0170  177.5410  140.0410 C   0  0  0  0  0  2  0  0  0  0  0  0
  194.3190  176.0700  144.0070 C   0  0  0  0  0  2  0  0  0  0  0  0
  194.5600  173.5770  142.3070 C   0  0  0  0  0  1  0  0  0  0  0  0
  195.2960  174.9210  144.2850 C   0  0  1  0  0  3  0  0  0  0  0  0
  195.6940  172.4050  144.2080 C   0  0  2  0  0  3  0  0  0  0  0  0
  196.0570  172.4520  145.6910 C   0  0  0  0  0  2  0  0  0  0  0  0
  195.6920  174.9070  145.7630 C   0  0  0  0  0  2  0  0  0  0  0  0
  196.6880  173.7910  146.0370 C   0  0  0  0  0  2  0  0  0  0  0  0
  194.7500  173.5580  143.8180 C   0  0  2  0  0  3  0  0  0  0  0  0
  195.5420  170.3910  142.9230 O   0  0  0  0  0  0  0  0  0  0  0  0
  195.0920  171.0700  143.8860 C   0  0  0  0  0  0  0  0  0  0  0  0
  194.1920  169.5210  145.5950 O   0  0  0  0  0  1  0  0  0  0  0  0
  193.9760  170.5480  144.6840 C   0  0  0  0  0  0  0  0  0  0  0  0
  192.8190  171.0260  144.5510 O   0  0  0  0  0  0  0  0  0  0  0  0
  1  6  1  1  0  0  0
  1  2  1  0  0  0  0
  2 10  1  0  0  0  0
  3  5  1  0  0  0  0
  4  9  2  0  0  0  0
  5  8  2  0  0  0  0
  5  4  1  0  0  0  0
  7 13  1  6  0  0  0
  7  4  1  0  0  0  0
  7  1  1  0  0  0  0
  8 11  1  0  0  0  0
  9 10  1  0  0  0  0
 11  9  1  0  0  0  0
 12 13  2  0  0  0  0
 14 13  1  0  0  0  0
 15 17  1  0  0  0  0
 17 16  1  0  0  0  0
 17 14  1  1  0  0  0
 18 20  1  0  0  0  0
 19 18  2  0  0  0  0
 20 16  2  0  0  0  0
 21 22  1  0  0  0  0
 21 18  1  0  0  0  0
 22 15  1  0  0  0  0
 23  8  1  0  0  0  0
 25 23  1  1  0  0  0
 25 28  1  0  0  0  0
 26 32  1  1  0  0  0
 26 27  1  0  0  0  0
 27 29  1  0  0  0  0
 28 29  1  0  0  0  0
 30 24  1  6  0  0  0
 30 26  1  0  0  0  0
 30 25  1  0  0  0  0
 31 32  2  0  0  0  0
 32 34  1  0  0  0  0
 34 33  1  0  0  0  0
 35 34  2  0  0  0  0
M  END
>  <MODEL>
6

>  <REMARK>
 VINA RESULT:      -7.1      2.993      8.007
  Name = 
  6 active torsions:
  status: ('A' for Active; 'I' for Inactive)
    1  A    between atoms: C_3  and  C_8
    2  A    between atoms: C_3  and  C_11
    3  A    between atoms: C_7  and  C_27
    4  A    between atoms: C_18  and  C_31
    5  A    between atoms: C_19  and  N_32
    6  A    between atoms: C_22  and  C_27
                            x       y       z     vdW  Elec       q    Type
                         _______ _______ _______ _____ _____    ______ ____

>  <TORSDO>
F 6

$$$$
=
 OpenBabel11062420083D

 35 38  0  0  1  0  0  0  0  0999 V2000
  195.2350  176.2360  145.0400 C   0  0  1  0  0  3  0  0  0  0  0  0
  194.5630  176.9700  146.2130 C   0  0  0  0  0  2  0  0  0  0  0  0
  191.6750  175.1210  142.0980 C   0  0  0  0  0  1  0  0  0  0  0  0
  192.8840  175.6680  144.3070 C   0  0  0  0  0  0  0  0  0  0  0  0
  191.7720  175.2970  143.5750 C   0  0  0  0  0  0  0  0  0  0  0  0
  195.8170  174.9100  145.5210 C   0  0  0  0  0  1  0  0  0  0  0  0
  194.2590  176.0790  143.8470 C   0  0  2  0  0  3  0  0  0  0  0  0
  190.7470  175.1680  144.4960 C   0  0  0  0  0  0  0  0  0  0  0  0
  192.4500  175.7930  145.6070 C   0  0  0  0  0  0  0  0  0  0  0  0
  193.3290  176.2180  146.7410 C   0  0  0  0  0  2  0  0  0  0  0  0
  191.1810  175.4710  145.7020 O   0  0  0  0  0  0  0  0  0  0  0  0
  194.6610  173.9660  142.8160 O   0  0  0  0  0  0  0  0  0  0  0  0
  194.8040  175.2160  142.7470 C   0  0  0  0  0  0  0  0  0  0  0  0
  195.4560  175.8100  141.6210 N   0  0  0  0  0  2  0  0  0  0  0  0
  197.3480  175.6910  140.0780 C   0  0  0  0  0  2  0  0  0  0  0  0
  195.0430  174.8440  139.4510 C   0  0  0  0  0  3  0  0  0  0  0  0
  196.0490  175.0260  140.5490 C   0  0  2  0  0  3  0  0  0  0  0  0
  196.4310  173.1580  138.3060 C   0  0  0  0  0  0  0  0  0  0  0  0
  196.3490  171.9970  137.8250 O   0  0  0  0  0  0  0  0  0  0  0  0
  195.2070  173.9590  138.4650 C   0  0  0  0  0  3  0  0  0  0  0  0
  197.7160  173.6860  138.6540 N   0  0  0  0  0  2  0  0  0  0  0  0
  197.9410  175.1200  138.7880 C   0  0  0  0  0  2  0  0  0  0  0  0
  189.3450  174.7310  144.2010 C   0  0  0  0  0  2  0  0  0  0  0  0
  188.2220  176.5640  146.3320 C   0  0  0  0  0  1  0  0  0  0  0  0
  188.4050  175.9110  143.9240 C   0  0  1  0  0  3  0  0  0  0  0  0
  186.4250  177.2880  144.7450 C   0  0  2  0  0  3  0  0  0  0  0  0
  185.7340  177.0280  143.4090 C   0  0  0  0  0  2  0  0  0  0  0  0
  187.6710  175.7050  142.5970 C   0  0  0  0  0  2  0  0  0  0  0  0
  186.7650  176.8890  142.3000 C   0  0  0  0  0  2  0  0  0  0  0  0
  187.4330  176.1750  145.0890 C   0  0  2  0  0  3  0  0  0  0  0  0
  184.8690  176.4200  146.3430 O   0  0  0  0  0  0  0  0  0  0  0  0
  185.3890  177.4410  145.8190 C   0  0  0  0  0  0  0  0  0  0  0  0
  185.5750  179.3650  147.3660 O   0  0  0  0  0  1  0  0  0  0  0  0
  184.9710  178.7780  146.2600 C   0  0  0  0  0  0  0  0  0  0  0  0
  184.0680  179.4010  145.6420 O   0  0  0  0  0  0  0  0  0  0  0  0
  1  6  1  1  0  0  0
  1  2  1  0  0  0  0
  2 10  1  0  0  0  0
  3  5  1  0  0  0  0
  4  9  2  0  0  0  0
  5  4  1  0  0  0  0
  5  8  2  0  0  0  0
  7 13  1  6  0  0  0
  7  4  1  0  0  0  0
  7  1  1  0  0  0  0
  8 11  1  0  0  0  0
  9 11  1  0  0  0  0
  9 10  1  0  0  0  0
 13 12  2  0  0  0  0
 14 13  1  0  0  0  0
 15 17  1  0  0  0  0
 16 17  1  0  0  0  0
 17 14  1  1  0  0  0
 18 20  1  0  0  0  0
 18 21  1  0  0  0  0
 19 18  2  0  0  0  0
 20 16  2  0  0  0  0
 21 22  1  0  0  0  0
 22 15  1  0  0  0  0
 23  8  1  0  0  0  0
 25 23  1  1  0  0  0
 25 30  1  0  0  0  0
 26 30  1  0  0  0  0
 26 32  1  1  0  0  0
 27 26  1  0  0  0  0
 28 25  1  0  0  0  0
 29 28  1  0  0  0  0
 29 27  1  0  0  0  0
 30 24  1  1  0  0  0
 32 34  1  0  0  0  0
 32 31  2  0  0  0  0
 34 33  1  0  0  0  0
 35 34  2  0  0  0  0
M  END
>  <MODEL>
7

>  <REMARK>
 VINA RESULT:      -7.0      2.883      4.009
  Name = 
  6 active torsions:
  status: ('A' for Active; 'I' for Inactive)
    1  A    between atoms: C_3  and  C_8
    2  A    between atoms: C_3  and  C_11
    3  A    between atoms: C_7  and  C_27
    4  A    between atoms: C_18  and  C_31
    5  A    between atoms: C_19  and  N_32
    6  A    between atoms: C_22  and  C_27
                            x       y       z     vdW  Elec       q    Type
                         _______ _______ _______ _____ _____    ______ ____

>  <TORSDO>
F 6

$$$$
=
 OpenBabel11062420083D

 35 38  0  0  1  0  0  0  0  0999 V2000
  196.4850  173.3430  143.5790 C   0  0  1  0  0  3  0  0  0  0  0  0
  197.2870  173.9190  144.7590 C   0  0  0  0  0  2  0  0  0  0  0  0
  192.6250  176.0960  143.2710 C   0  0  0  0  0  1  0  0  0  0  0  0
  194.6360  174.8900  144.3380 C   0  0  0  0  0  0  0  0  0  0  0  0
  193.5020  175.6770  144.4010 C   0  0  0  0  0  0  0  0  0  0  0  0
  195.9820  171.9450  143.9240 C   0  0  0  0  0  1  0  0  0  0  0  0
  195.3560  174.3120  143.1480 C   0  0  2  0  0  3  0  0  0  0  0  0
  193.3740  176.0400  145.7310 C   0  0  0  0  0  0  0  0  0  0  0  0
  195.1490  174.8730  145.6160 C   0  0  0  0  0  0  0  0  0  0  0  0
  196.4090  174.1610  145.9990 C   0  0  0  0  0  2  0  0  0  0  0  0
  194.3720  175.5450  146.4330 O   0  0  0  0  0  0  0  0  0  0  0  0
  194.6750  173.9050  140.8980 O   0  0  0  0  0  0  0  0  0  0  0  0
  194.4330  173.7230  142.1210 C   0  0  0  0  0  0  0  0  0  0  0  0
  193.3050  172.9440  142.5280 N   0  0  0  0  0  2  0  0  0  0  0  0
  190.9240  172.7840  142.0000 C   0  0  0  0  0  2  0  0  0  0  0  0
  192.5460  170.9070  141.4870 C   0  0  0  0  0  3  0  0  0  0  0  0
  192.3460  172.3900  141.5850 C   0  0  2  0  0  3  0  0  0  0  0  0
  191.0650  170.7240  139.5230 C   0  0  0  0  0  0  0  0  0  0  0  0
  191.0520  170.2450  138.3590 O   0  0  0  0  0  0  0  0  0  0  0  0
  191.9980  170.1700  140.5180 C   0  0  0  0  0  3  0  0  0  0  0  0
  190.1500  171.7710  139.8650 N   0  0  0  0  0  2  0  0  0  0  0  0
  189.8030  172.0600  141.2510 C   0  0  0  0  0  2  0  0  0  0  0  0
  192.2650  176.8560  146.3190 C   0  0  0  0  0  2  0  0  0  0  0  0
  189.9620  177.9150  144.6630 C   0  0  0  0  0  1  0  0  0  0  0  0
  190.8990  176.1710  146.1940 C   0  0  1  0  0  3  0  0  0  0  0  0
  188.3790  176.4790  145.9700 C   0  0  2  0  0  3  0  0  0  0  0  0
  188.1950  175.5830  147.1920 C   0  0  0  0  0  2  0  0  0  0  0  0
  190.6480  175.2620  147.3990 C   0  0  0  0  0  2  0  0  0  0  0  0
  189.3100  174.5510  147.2630 C   0  0  0  0  0  2  0  0  0  0  0  0
  189.7520  177.1770  145.9790 C   0  0  2  0  0  3  0  0  0  0  0  0
  186.9800  178.1720  146.9230 O   0  0  0  0  0  0  0  0  0  0  0  0
  187.2580  177.4740  145.9100 C   0  0  0  0  0  0  0  0  0  0  0  0
  186.2930  178.9010  144.1320 O   0  0  0  0  0  1  0  0  0  0  0  0
  186.4760  177.6360  144.6790 C   0  0  0  0  0  0  0  0  0  0  0  0
  185.9680  176.6360  144.1080 O   0  0  0  0  0  0  0  0  0  0  0  0
  1  6  1  1  0  0  0
  1  2  1  0  0  0  0
  2 10  1  0  0  0  0
  3  5  1  0  0  0  0
  4  5  1  0  0  0  0
  4  9  2  0  0  0  0
  5  8  2  0  0  0  0
  7 13  1  6  0  0  0
  7  1  1  0  0  0  0
  7  4  1  0  0  0  0
  8 23  1  0  0  0  0
  8 11  1  0  0  0  0
  9 10  1  0  0  0  0
  9 11  1  0  0  0  0
 12 13  2  0  0  0  0
 13 14  1  0  0  0  0
 16 17  1  0  0  0  0
 17 15  1  0  0  0  0
 17 14  1  1  0  0  0
 18 21  1  0  0  0  0
 18 20  1  0  0  0  0
 19 18  2  0  0  0  0
 20 16  2  0  0  0  0
 21 22  1  0  0  0  0
 22 15  1  0  0  0  0
 25 23  1  1  0  0  0
 25 28  1  0  0  0  0
 26 32  1  1  0  0  0
 26 30  1  0  0  0  0
 26 27  1  0  0  0  0
 27 29  1  0  0  0  0
 29 28  1  0  0  0  0
 30 24  1  6  0  0  0
 30 25  1  0  0  0  0
 32 31  2  0  0  0  0
 33 34  1  0  0  0  0
 34 32  1  0  0  0  0
 35 34  2  0  0  0  0
M  END
>  <MODEL>
8

>  <REMARK>
 VINA RESULT:      -6.9      1.494      2.142
  Name = 
  6 active torsions:
  status: ('A' for Active; 'I' for Inactive)
    1  A    between atoms: C_3  and  C_8
    2  A    between atoms: C_3  and  C_11
    3  A    between atoms: C_7  and  C_27
    4  A    between atoms: C_18  and  C_31
    5  A    between atoms: C_19  and  N_32
    6  A    between atoms: C_22  and  C_27
                            x       y       z     vdW  Elec       q    Type
                         _______ _______ _______ _____ _____    ______ ____

>  <TORSDO>
F 6

$$$$
=
 OpenBabel11062420083D

 35 38  0  0  1  0  0  0  0  0999 V2000
  187.1350  175.9900  142.4030 C   0  0  1  0  0  3  0  0  0  0  0  0
  187.0290  177.1350  143.4260 C   0  0  0  0  0  2  0  0  0  0  0  0
  190.2380  172.9390  144.3080 C   0  0  0  0  0  1  0  0  0  0  0  0
  189.0760  175.1830  143.8060 C   0  0  0  0  0  0  0  0  0  0  0  0
  190.0660  174.4170  144.3920 C   0  0  0  0  0  0  0  0  0  0  0  0
  187.7770  176.4990  141.1170 C   0  0  0  0  0  1  0  0  0  0  0  0
  187.8660  174.7670  143.0110 C   0  0  2  0  0  3  0  0  0  0  0  0
  190.8420  175.3050  145.1180 C   0  0  0  0  0  0  0  0  0  0  0  0
  189.2820  176.4670  144.2560 C   0  0  0  0  0  0  0  0  0  0  0  0
  188.4080  177.6270  143.8960 C   0  0  0  0  0  2  0  0  0  0  0  0
  190.3500  176.5220  145.0180 O   0  0  0  0  0  0  0  0  0  0  0  0
  187.4070  172.6790  141.9520 O   0  0  0  0  0  0  0  0  0  0  0  0
  188.1540  173.6910  142.0040 C   0  0  0  0  0  0  0  0  0  0  0  0
  189.2530  173.8290  141.0980 N   0  0  0  0  0  2  0  0  0  0  0  0
  190.6120  171.8240  140.7700 C   0  0  0  0  0  2  0  0  0  0  0  0
  190.1320  173.4500  138.8860 C   0  0  0  0  0  3  0  0  0  0  0  0
  189.6150  172.8010  140.1350 C   0  0  2  0  0  3  0  0  0  0  0  0
  190.0800  171.3300  137.6280 C   0  0  0  0  0  0  0  0  0  0  0  0
  189.6490  170.8540  136.5440 O   0  0  0  0  0  0  0  0  0  0  0  0
  190.2930  172.7810  137.7410 C   0  0  0  0  0  3  0  0  0  0  0  0
  190.3860  170.4460  138.7120 N   0  0  0  0  0  2  0  0  0  0  0  0
  191.2750  170.8460  139.7960 C   0  0  0  0  0  2  0  0  0  0  0  0
  192.0770  174.9660  145.8950 C   0  0  0  0  0  2  0  0  0  0  0  0
  193.8110  172.5020  145.5970 C   0  0  0  0  0  1  0  0  0  0  0  0
  193.3270  174.8860  145.0090 C   0  0  1  0  0  3  0  0  0  0  0  0
  195.6730  173.9340  144.7270 C   0  0  2  0  0  3  0  0  0  0  0  0
  196.1880  175.3560  144.5210 C   0  0  0  0  0  2  0  0  0  0  0  0
  193.9000  176.2840  144.7720 C   0  0  0  0  0  2  0  0  0  0  0  0
  195.1190  176.2150  143.8650 C   0  0  0  0  0  2  0  0  0  0  0  0
  194.3830  173.9130  145.5680 C   0  0  2  0  0  3  0  0  0  0  0  0
  197.1620  173.3730  146.5150 O   0  0  0  0  0  0  0  0  0  0  0  0
  196.7510  173.1010  145.3550 C   0  0  0  0  0  0  0  0  0  0  0  0
  197.5800  170.7690  145.2770 O   0  0  0  0  0  1  0  0  0  0  0  0
  197.3370  171.9710  144.6230 C   0  0  0  0  0  0  0  0  0  0  0  0
  197.6200  172.0800  143.4010 O   0  0  0  0  0  0  0  0  0  0  0  0
  1  6  1  6  0  0  0
  1  7  1  0  0  0  0
  1  2  1  0  0  0  0
  2 10  1  0  0  0  0
  3  5  1  0  0  0  0
  4  9  2  0  0  0  0
  4  5  1  0  0  0  0
  5  8  2  0  0  0  0
  7 13  1  6  0  0  0
  7  4  1  0  0  0  0
  8 23  1  0  0  0  0
  9 11  1  0  0  0  0
 10  9  1  0  0  0  0
 11  8  1  0  0  0  0
 12 13  2  0  0  0  0
 14 13  1  0  0  0  0
 16 17  1  0  0  0  0
 17 15  1  0  0  0  0
 17 14  1  1  0  0  0
 18 20  1  0  0  0  0
 18 21  1  0  0  0  0
 19 18  2  0  0  0  0
 20 16  2  0  0  0  0
 21 22  1  0  0  0  0
 22 15  1  0  0  0  0
 25 30  1  0  0  0  0
 25 23  1  1  0  0  0
 26 32  1  1  0  0  0
 26 30  1  0  0  0  0
 27 26  1  0  0  0  0
 28 25  1  0  0  0  0
 29 27  1  0  0  0  0
 29 28  1  0  0  0  0
 30 24  1  6  0  0  0
 32 31  2  0  0  0  0
 34 33  1  0  0  0  0
 34 32  1  0  0  0  0
 35 34  2  0  0  0  0
M  END
>  <MODEL>
9

>  <REMARK>
 VINA RESULT:      -6.7      2.745      7.596
  Name = 
  6 active torsions:
  status: ('A' for Active; 'I' for Inactive)
    1  A    between atoms: C_3  and  C_8
    2  A    between atoms: C_3  and  C_11
    3  A    between atoms: C_7  and  C_27
    4  A    between atoms: C_18  and  C_31
    5  A    between atoms: C_19  and  N_32
    6  A    between atoms: C_22  and  C_27
                            x       y       z     vdW  Elec       q    Type
                         _______ _______ _______ _____ _____    ______ ____

>  <TORSDO>
F 6

$$$$
