=
 OpenBabel11062420543D

 50 53  0  0  1  0  0  0  0  0999 V2000
  194.5650  172.9600  144.6980 C   0  0  2  0  0  3  0  0  0  0  0  0
  194.7850  174.3500  145.2400 C   0  0  0  0  0  0  0  0  0  0  0  0
  195.5120  174.5090  146.2090 O   0  0  0  0  0  0  0  0  0  0  0  0
  192.8750  176.0870  145.0130 C   0  0  2  0  0  0  0  0  0  0  0  0
  192.1710  177.0440  144.0700 C   0  0  0  0  0  1  0  0  0  0  0  0
  194.1420  176.7040  145.5450 C   0  0  0  0  0  2  0  0  0  0  0  0
  194.2310  175.5660  144.5440 C   0  0  1  0  0  3  0  0  0  0  0  0
  192.0780  175.3980  146.1180 C   0  0  0  0  0  2  0  0  0  0  0  0
  191.5590  176.3990  147.1490 C   0  0  0  0  0  2  0  0  0  0  0  0
  189.0660  175.0020  147.2900 O   0  0  0  0  0  0  0  0  0  0  0  0
  190.2680  176.9260  146.7240 N   0  0  0  0  0  2  0  0  0  0  0  0
  189.0440  176.1900  146.8650 C   0  0  0  0  0  0  0  0  0  0  0  0
  184.1510  178.7530  145.1800 C   0  0  0  0  0  2  0  0  0  0  0  0
  185.3900  178.0270  145.6080 C   0  0  0  0  0  0  0  0  0  0  0  0
  184.9860  178.6740  142.9210 C   0  0  0  0  0  3  0  0  0  0  0  0
  186.4950  178.0080  144.7490 C   0  0  0  0  0  0  0  0  0  0  0  0
  185.4670  177.4120  146.8550 C   0  0  0  0  0  3  0  0  0  0  0  0
  187.7720  176.7880  146.4140 C   0  0  0  0  0  0  0  0  0  0  0  0
  186.4080  178.7120  143.4240 C   0  0  0  0  0  2  0  0  0  0  0  0
  186.6530  176.7920  147.2570 C   0  0  0  0  0  3  0  0  0  0  0  0
  183.9820  178.6940  143.7460 N   0  0  0  0  0  0  0  0  0  0  0  0
  187.6880  177.4020  145.1580 C   0  0  0  0  0  3  0  0  0  0  0  0
  195.8480  172.4080  144.0690 C   0  0  1  0  0  3  0  0  0  0  0  0
  195.6050  171.1450  143.5150 O   0  0  0  0  0  0  0  0  0  0  0  0
  194.9910  169.0790  144.2730 O   0  0  0  0  0  1  0  0  0  0  0  0
  195.6950  170.2450  144.5770 C   0  0  0  0  0  2  0  0  0  0  0  0
  196.3270  173.2650  143.0750 O   0  0  0  0  0  0  0  0  0  0  0  0
  195.8380  173.3890  140.7380 C   0  0  0  0  0  1  0  0  0  0  0  0
  196.2690  172.5140  141.8960 C   0  0  0  0  0  2  0  0  0  0  0  0
  193.5190  172.9600  143.7660 O   0  0  0  0  0  0  0  0  0  0  0  0
  192.4700  172.2880  144.4070 C   0  0  0  0  0  2  0  0  0  0  0  0
  192.0950  171.0160  143.6570 C   0  0  0  0  0  2  0  0  0  0  0  0
  191.0020  171.2310  142.5980 C   0  0  0  0  0  2  0  0  0  0  0  0
  189.8730  172.1300  143.0270 C   0  0  0  0  0  0  0  0  0  0  0  0
  189.5750  174.5450  143.5280 C   0  0  0  0  0  1  0  0  0  0  0  0
  188.9690  171.7090  143.7940 O   0  0  0  0  0  0  0  0  0  0  0  0
  189.8330  173.4840  142.5630 N   0  0  0  0  0  0  0  0  0  0  0  0
  191.5080  174.2730  141.0560 C   0  0  0  0  0  2  0  0  0  0  0  0
  190.2740  173.8240  141.2420 C   0  0  0  0  0  0  0  0  0  0  0  0
  189.2950  173.9790  140.1230 C   0  0  0  0  0  2  0  0  0  0  0  0
  189.5690  173.0270  138.9690 C   0  0  2  0  0  0  0  0  0  0  0  0
  188.5020  172.1270  138.8420 O   0  0  0  0  0  0  0  0  0  0  0  0
  189.7230  171.5740  139.2880 C   0  0  1  0  0  3  0  0  0  0  0  0
  189.9690  173.7290  137.3290 S   0  0  0  0  0  1  0  0  0  0  0  0
  190.3620  170.7750  138.1860 C   0  0  0  0  0  0  0  0  0  0  0  0
  191.7830  170.6370  138.0770 N   0  0  0  0  0  2  0  0  0  0  0  0
  189.6340  170.2590  137.2970 O   0  0  0  0  0  0  0  0  0  0  0  0
  193.3190  172.4970  138.2650 C   0  0  0  0  0  1  0  0  0  0  0  0
  193.7650  170.4020  139.2830 O   0  0  0  0  0  1  0  0  0  0  0  0
  192.7340  171.2850  138.9620 C   0  0  2  0  0  3  0  0  0  0  0  0
  1 30  1  6  0  0  0
  1  2  1  0  0  0  0
  2  3  2  0  0  0  0
  4  5  1  6  0  0  0
  4  6  1  0  0  0  0
  4  8  1  0  0  0  0
  7  4  1  0  0  0  0
  7  2  1  1  0  0  0
  7  6  1  0  0  0  0
  8  9  1  0  0  0  0
 11 12  1  0  0  0  0
 11  9  1  0  0  0  0
 12 10  2  0  0  0  0
 13 14  1  0  0  0  0
 14 17  1  0  0  0  0
 15 19  1  0  0  0  0
 15 21  2  0  0  0  0
 16 22  1  0  0  0  0
 16 14  2  0  0  0  0
 17 20  2  0  0  0  0
 18 12  1  0  0  0  0
 18 20  1  0  0  0  0
 19 16  1  0  0  0  0
 21 13  1  0  0  0  0
 22 18  2  0  0  0  0
 23 27  1  6  0  0  0
 23  1  1  0  0  0  0
 24 23  1  0  0  0  0
 24 26  1  0  0  0  0
 25 26  1  0  0  0  0
 28 29  1  0  0  0  0
 29 27  1  0  0  0  0
 30 31  1  0  0  0  0
 32 31  1  0  0  0  0
 33 34  1  0  0  0  0
 33 32  1  0  0  0  0
 34 36  2  0  0  0  0
 37 34  1  0  0  0  0
 37 35  1  0  0  0  0
 38 39  2  0  0  0  0
 39 37  1  0  0  0  0
 40 39  1  0  0  0  0
 41 44  1  6  0  0  0
 41 43  1  0  0  0  0
 41 40  1  0  0  0  0
 42 41  1  0  0  0  0
 42 43  1  0  0  0  0
 43 45  1  6  0  0  0
 46 45  1  0  0  0  0
 46 50  1  0  0  0  0
 47 45  2  0  0  0  0
 50 48  1  6  0  0  0
 50 49  1  0  0  0  0
M  END
>  <MODEL>
1

>  <REMARK>
 VINA RESULT:      -5.8      0.000      0.000
  Name = 
  21 active torsions:
  status: ('A' for Active; 'I' for Inactive)
    1  A    between atoms: C_2  and  C_17
    2  A    between atoms: C_3  and  C_46
    3  A    between atoms: C_7  and  C_31
    4  A    between atoms: C_7  and  O_32
    5  A    between atoms: C_8  and  O_32
    6  A    between atoms: C_8  and  C_36
    7  A    between atoms: C_8  and  C_42
    8  A    between atoms: C_9  and  C_17
    9  A    between atoms: C_9  and  N_19
   10  A    between atoms: C_13  and  C_34
   11  A    between atoms: N_20  and  C_24
   12  A    between atoms: C_21  and  C_42
   13  A    between atoms: C_23  and  C_37
   14  A    between atoms: C_26  and  C_44
   15  A    between atoms: N_29  and  C_43
   16  A    between atoms: C_30  and  O_47
   17  A    between atoms: C_31  and  C_34
   18  A    between atoms: C_36  and  O_41
   19  A    between atoms: C_36  and  O_47
   20  A    between atoms: C_40  and  O_41
   21  A    between atoms: C_43  and  C_44
                            x       y       z     vdW  Elec       q    Type
                         _______ _______ _______ _____ _____    ______ ____

>  <TORSDO>
F 21

$$$$
=
 OpenBabel11062420543D

 50 53  0  0  1  0  0  0  0  0999 V2000
  188.1380  175.0580  141.6270 C   0  0  2  0  0  3  0  0  0  0  0  0
  187.4220  176.3080  142.0720 C   0  0  0  0  0  0  0  0  0  0  0  0
  187.5810  177.3470  141.4480 O   0  0  0  0  0  0  0  0  0  0  0  0
  186.7930  176.9940  144.4900 C   0  0  2  0  0  0  0  0  0  0  0  0
  185.9600  176.6370  145.7070 C   0  0  0  0  0  1  0  0  0  0  0  0
  185.9520  177.7050  143.4630 C   0  0  0  0  0  2  0  0  0  0  0  0
  186.4160  176.2850  143.1930 C   0  0  1  0  0  3  0  0  0  0  0  0
  188.1460  177.6760  144.6790 C   0  0  0  0  0  2  0  0  0  0  0  0
  188.8100  177.2610  145.9900 C   0  0  0  0  0  2  0  0  0  0  0  0
  190.8720  176.8380  147.9290 O   0  0  0  0  0  0  0  0  0  0  0  0
  190.1180  176.6750  145.7210 N   0  0  0  0  0  2  0  0  0  0  0  0
  191.0930  176.4470  146.7510 C   0  0  0  0  0  0  0  0  0  0  0  0
  196.2110  174.0170  145.6320 C   0  0  0  0  0  2  0  0  0  0  0  0
  194.8880  174.6810  145.8620 C   0  0  0  0  0  0  0  0  0  0  0  0
  195.0290  172.2490  144.4970 C   0  0  0  0  0  3  0  0  0  0  0  0
  193.7170  173.9240  145.7360 C   0  0  0  0  0  0  0  0  0  0  0  0
  194.8140  176.0200  146.2370 C   0  0  0  0  0  3  0  0  0  0  0  0
  192.3970  175.8470  146.4050 C   0  0  0  0  0  0  0  0  0  0  0  0
  193.8180  172.4700  145.3700 C   0  0  0  0  0  2  0  0  0  0  0  0
  193.5720  176.6030  146.5060 C   0  0  0  0  0  3  0  0  0  0  0  0
  196.1010  172.9700  144.6410 N   0  0  0  0  0  0  0  0  0  0  0  0
  192.4750  174.5030  146.0200 C   0  0  0  0  0  3  0  0  0  0  0  0
  189.5030  174.9350  142.3110 C   0  0  1  0  0  3  0  0  0  0  0  0
  190.0990  176.1970  142.4220 O   0  0  0  0  0  0  0  0  0  0  0  0
  192.1090  177.1360  142.9720 O   0  0  0  0  0  1  0  0  0  0  0  0
  191.4610  175.9540  142.6080 C   0  0  0  0  0  2  0  0  0  0  0  0
  189.3760  174.3710  143.5830 O   0  0  0  0  0  0  0  0  0  0  0  0
  190.6990  172.4850  142.9440 C   0  0  0  0  0  1  0  0  0  0  0  0
  189.3330  172.9910  143.3600 C   0  0  0  0  0  2  0  0  0  0  0  0
  188.2820  175.0490  140.2340 O   0  0  0  0  0  0  0  0  0  0  0  0
  188.6470  173.7320  139.9210 C   0  0  0  0  0  2  0  0  0  0  0  0
  189.3840  173.6690  138.5890 C   0  0  0  0  0  2  0  0  0  0  0  0
  190.9010  173.4790  138.7380 C   0  0  0  0  0  2  0  0  0  0  0  0
  191.5110  172.4850  137.7860 C   0  0  0  0  0  0  0  0  0  0  0  0
  191.7380  172.2430  135.3230 C   0  0  0  0  0  1  0  0  0  0  0  0
  191.5190  171.2550  138.0550 O   0  0  0  0  0  0  0  0  0  0  0  0
  192.0820  172.9430  136.5550 N   0  0  0  0  0  0  0  0  0  0  0  0
  192.0910  175.3110  136.2450 C   0  0  0  0  0  2  0  0  0  0  0  0
  192.7720  174.1980  136.4840 C   0  0  0  0  0  0  0  0  0  0  0  0
  194.2610  174.2470  136.3660 C   0  0  0  0  0  2  0  0  0  0  0  0
  194.9640  173.8830  137.6650 C   0  0  2  0  0  0  0  0  0  0  0  0
  194.3150  174.5090  138.7390 O   0  0  0  0  0  0  0  0  0  0  0  0
  195.6100  174.9880  138.4390 C   0  0  1  0  0  3  0  0  0  0  0  0
  195.2210  172.1160  138.0580 S   0  0  0  0  0  1  0  0  0  0  0  0
  196.5910  174.5100  139.4740 C   0  0  0  0  0  0  0  0  0  0  0  0
  196.3170  174.6000  140.8760 N   0  0  0  0  0  2  0  0  0  0  0  0
  197.7130  174.0720  139.1040 O   0  0  0  0  0  0  0  0  0  0  0  0
  195.5070  176.1430  142.5550 C   0  0  0  0  0  1  0  0  0  0  0  0
  194.2810  174.2070  141.9430 O   0  0  0  0  0  1  0  0  0  0  0  0
  195.1190  175.2000  141.4340 C   0  0  2  0  0  3  0  0  0  0  0  0
  1 30  1  6  0  0  0
  1  2  1  0  0  0  0
  1 23  1  0  0  0  0
  3  2  2  0  0  0  0
  4  8  1  0  0  0  0
  4  5  1  1  0  0  0
  6  4  1  0  0  0  0
  7  2  1  6  0  0  0
  7  6  1  0  0  0  0
  7  4  1  0  0  0  0
  8  9  1  0  0  0  0
 11  9  1  0  0  0  0
 11 12  1  0  0  0  0
 12 10  2  0  0  0  0
 13 14  1  0  0  0  0
 14 17  1  0  0  0  0
 15 21  2  0  0  0  0
 15 19  1  0  0  0  0
 16 14  2  0  0  0  0
 16 22  1  0  0  0  0
 17 20  2  0  0  0  0
 18 20  1  0  0  0  0
 18 12  1  0  0  0  0
 19 16  1  0  0  0  0
 21 13  1  0  0  0  0
 22 18  2  0  0  0  0
 23 24  1  1  0  0  0
 23 27  1  0  0  0  0
 24 26  1  0  0  0  0
 26 25  1  0  0  0  0
 28 29  1  0  0  0  0
 29 27  1  0  0  0  0
 31 30  1  0  0  0  0
 32 33  1  0  0  0  0
 32 31  1  0  0  0  0
 34 36  2  0  0  0  0
 34 33  1  0  0  0  0
 35 37  1  0  0  0  0
 37 34  1  0  0  0  0
 38 39  2  0  0  0  0
 39 37  1  0  0  0  0
 40 39  1  0  0  0  0
 40 41  1  0  0  0  0
 41 44  1  1  0  0  0
 41 43  1  0  0  0  0
 41 42  1  0  0  0  0
 43 42  1  0  0  0  0
 43 45  1  1  0  0  0
 45 46  1  0  0  0  0
 46 50  1  0  0  0  0
 47 45  2  0  0  0  0
 50 49  1  0  0  0  0
 50 48  1  1  0  0  0
M  END
>  <MODEL>
2

>  <REMARK>
 VINA RESULT:      -5.8      2.801      7.263
  Name = 
  21 active torsions:
  status: ('A' for Active; 'I' for Inactive)
    1  A    between atoms: C_2  and  C_17
    2  A    between atoms: C_3  and  C_46
    3  A    between atoms: C_7  and  C_31
    4  A    between atoms: C_7  and  O_32
    5  A    between atoms: C_8  and  O_32
    6  A    between atoms: C_8  and  C_36
    7  A    between atoms: C_8  and  C_42
    8  A    between atoms: C_9  and  C_17
    9  A    between atoms: C_9  and  N_19
   10  A    between atoms: C_13  and  C_34
   11  A    between atoms: N_20  and  C_24
   12  A    between atoms: C_21  and  C_42
   13  A    between atoms: C_23  and  C_37
   14  A    between atoms: C_26  and  C_44
   15  A    between atoms: N_29  and  C_43
   16  A    between atoms: C_30  and  O_47
   17  A    between atoms: C_31  and  C_34
   18  A    between atoms: C_36  and  O_41
   19  A    between atoms: C_36  and  O_47
   20  A    between atoms: C_40  and  O_41
   21  A    between atoms: C_43  and  C_44
                            x       y       z     vdW  Elec       q    Type
                         _______ _______ _______ _____ _____    ______ ____

>  <TORSDO>
F 21

$$$$
=
 OpenBabel11062420543D

 50 53  0  0  1  0  0  0  0  0999 V2000
  187.4900  177.3400  143.3170 C   0  0  2  0  0  3  0  0  0  0  0  0
  187.1040  177.5640  144.7570 C   0  0  0  0  0  0  0  0  0  0  0  0
  186.6310  178.6400  145.0920 O   0  0  0  0  0  0  0  0  0  0  0  0
  188.4440  176.3370  146.6050 C   0  0  2  0  0  0  0  0  0  0  0  0
  188.6460  175.0170  147.3250 C   0  0  0  0  0  1  0  0  0  0  0  0
  187.2490  177.0670  147.1610 C   0  0  0  0  0  2  0  0  0  0  0  0
  187.1690  176.4550  145.7740 C   0  0  1  0  0  3  0  0  0  0  0  0
  189.6320  177.2750  146.4060 C   0  0  0  0  0  2  0  0  0  0  0  0
  190.8020  176.9060  147.3150 C   0  0  0  0  0  2  0  0  0  0  0  0
  191.9930  174.4310  146.5120 O   0  0  0  0  0  0  0  0  0  0  0  0
  192.0220  176.7690  146.5280 N   0  0  0  0  0  2  0  0  0  0  0  0
  192.5420  175.4960  146.1180 C   0  0  0  0  0  0  0  0  0  0  0  0
  197.3200  175.0360  142.9060 C   0  0  0  0  0  2  0  0  0  0  0  0
  196.1100  175.2070  143.7740 C   0  0  0  0  0  0  0  0  0  0  0  0
  196.3450  176.6230  141.3780 C   0  0  0  0  0  3  0  0  0  0  0  0
  194.9530  175.7680  143.2210 C   0  0  0  0  0  0  0  0  0  0  0  0
  196.1120  174.7810  145.0990 C   0  0  0  0  0  3  0  0  0  0  0  0
  193.7830  175.4340  145.3200 C   0  0  0  0  0  0  0  0  0  0  0  0
  194.9570  176.1850  141.7770 C   0  0  0  0  0  2  0  0  0  0  0  0
  194.9530  174.8960  145.8720 C   0  0  0  0  0  3  0  0  0  0  0  0
  197.3980  176.0810  141.9110 N   0  0  0  0  0  0  0  0  0  0  0  0
  193.7880  175.8680  143.9890 C   0  0  0  0  0  3  0  0  0  0  0  0
  186.4970  178.0230  142.3710 C   0  0  1  0  0  3  0  0  0  0  0  0
  187.1040  178.2640  141.1320 O   0  0  0  0  0  0  0  0  0  0  0  0
  186.3970  177.3780  139.1480 O   0  0  0  0  0  1  0  0  0  0  0  0
  186.9420  177.0880  140.4000 C   0  0  0  0  0  2  0  0  0  0  0  0
  185.3600  177.2330  142.1820 O   0  0  0  0  0  0  0  0  0  0  0  0
  183.3950  178.1040  141.1360 C   0  0  0  0  0  1  0  0  0  0  0  0
  184.2830  178.1060  142.3640 C   0  0  0  0  0  2  0  0  0  0  0  0
  187.5700  175.9690  143.0410 O   0  0  0  0  0  0  0  0  0  0  0  0
  188.9440  175.6960  142.9900 C   0  0  0  0  0  2  0  0  0  0  0  0
  189.2140  174.2080  143.1790 C   0  0  0  0  0  2  0  0  0  0  0  0
  190.7080  173.8690  143.3000 C   0  0  0  0  0  2  0  0  0  0  0  0
  191.0060  172.4270  143.6110 C   0  0  0  0  0  0  0  0  0  0  0  0
  191.4560  170.3530  142.3180 C   0  0  0  0  0  1  0  0  0  0  0  0
  190.4980  171.8650  144.6160 O   0  0  0  0  0  0  0  0  0  0  0  0
  191.8730  171.6820  142.7480 N   0  0  0  0  0  0  0  0  0  0  0  0
  194.1960  172.2320  142.6880 C   0  0  0  0  0  2  0  0  0  0  0  0
  193.0000  172.3050  142.1180 C   0  0  0  0  0  0  0  0  0  0  0  0
  192.8110  173.2890  141.0100 C   0  0  0  0  0  2  0  0  0  0  0  0
  192.1970  172.6610  139.7680 C   0  0  2  0  0  0  0  0  0  0  0  0
  191.8460  173.6700  138.8590 O   0  0  0  0  0  0  0  0  0  0  0  0
  190.7690  172.9820  139.4610 C   0  0  1  0  0  3  0  0  0  0  0  0
  193.1290  171.3540  138.8930 S   0  0  0  0  0  1  0  0  0  0  0  0
  190.1350  172.0440  138.4710 C   0  0  0  0  0  0  0  0  0  0  0  0
  189.8780  172.4320  137.1170 N   0  0  0  0  0  2  0  0  0  0  0  0
  189.7650  170.9010  138.8530 O   0  0  0  0  0  0  0  0  0  0  0  0
  188.8540  174.5600  136.5870 C   0  0  0  0  0  1  0  0  0  0  0  0
  190.6180  173.6620  135.2800 O   0  0  0  0  0  1  0  0  0  0  0  0
  190.1400  173.7580  136.5870 C   0  0  2  0  0  3  0  0  0  0  0  0
  1 30  1  6  0  0  0
  1  2  1  0  0  0  0
  2  3  2  0  0  0  0
  4  6  1  0  0  0  0
  4  5  1  1  0  0  0
  7  2  1  6  0  0  0
  7  4  1  0  0  0  0
  7  6  1  0  0  0  0
  8  4  1  0  0  0  0
  8  9  1  0  0  0  0
 11  9  1  0  0  0  0
 12 10  2  0  0  0  0
 12 11  1  0  0  0  0
 13 14  1  0  0  0  0
 14 17  1  0  0  0  0
 15 19  1  0  0  0  0
 15 21  2  0  0  0  0
 16 14  2  0  0  0  0
 16 22  1  0  0  0  0
 17 20  2  0  0  0  0
 18 20  1  0  0  0  0
 18 12  1  0  0  0  0
 19 16  1  0  0  0  0
 21 13  1  0  0  0  0
 22 18  2  0  0  0  0
 23 24  1  6  0  0  0
 23  1  1  0  0  0  0
 25 26  1  0  0  0  0
 26 24  1  0  0  0  0
 27 29  1  0  0  0  0
 27 23  1  0  0  0  0
 28 29  1  0  0  0  0
 31 30  1  0  0  0  0
 31 32  1  0  0  0  0
 32 33  1  0  0  0  0
 33 34  1  0  0  0  0
 34 36  2  0  0  0  0
 35 37  1  0  0  0  0
 37 34  1  0  0  0  0
 39 38  2  0  0  0  0
 39 37  1  0  0  0  0
 40 39  1  0  0  0  0
 41 44  1  6  0  0  0
 41 40  1  0  0  0  0
 42 43  1  0  0  0  0
 42 41  1  0  0  0  0
 43 45  1  6  0  0  0
 43 41  1  0  0  0  0
 45 47  2  0  0  0  0
 46 45  1  0  0  0  0
 49 50  1  0  0  0  0
 50 48  1  6  0  0  0
 50 46  1  0  0  0  0
M  END
>  <MODEL>
3

>  <REMARK>
 VINA RESULT:      -5.7      2.906      7.571
  Name = 
  21 active torsions:
  status: ('A' for Active; 'I' for Inactive)
    1  A    between atoms: C_2  and  C_17
    2  A    between atoms: C_3  and  C_46
    3  A    between atoms: C_7  and  C_31
    4  A    between atoms: C_7  and  O_32
    5  A    between atoms: C_8  and  O_32
    6  A    between atoms: C_8  and  C_36
    7  A    between atoms: C_8  and  C_42
    8  A    between atoms: C_9  and  C_17
    9  A    between atoms: C_9  and  N_19
   10  A    between atoms: C_13  and  C_34
   11  A    between atoms: N_20  and  C_24
   12  A    between atoms: C_21  and  C_42
   13  A    between atoms: C_23  and  C_37
   14  A    between atoms: C_26  and  C_44
   15  A    between atoms: N_29  and  C_43
   16  A    between atoms: C_30  and  O_47
   17  A    between atoms: C_31  and  C_34
   18  A    between atoms: C_36  and  O_41
   19  A    between atoms: C_36  and  O_47
   20  A    between atoms: C_40  and  O_41
   21  A    between atoms: C_43  and  C_44
                            x       y       z     vdW  Elec       q    Type
                         _______ _______ _______ _____ _____    ______ ____

>  <TORSDO>
F 21

$$$$
=
 OpenBabel11062420543D

 50 53  0  0  1  0  0  0  0  0999 V2000
  188.6130  174.8970  142.3280 C   0  0  2  0  0  3  0  0  0  0  0  0
  187.8700  176.1910  142.5470 C   0  0  0  0  0  0  0  0  0  0  0  0
  188.1090  177.1500  141.8280 O   0  0  0  0  0  0  0  0  0  0  0  0
  187.0390  177.0390  144.8500 C   0  0  2  0  0  0  0  0  0  0  0  0
  186.0520  176.8050  145.9780 C   0  0  0  0  0  1  0  0  0  0  0  0
  186.3760  177.7610  143.7060 C   0  0  0  0  0  2  0  0  0  0  0  0
  186.7490  176.2980  143.5470 C   0  0  1  0  0  3  0  0  0  0  0  0
  188.4130  177.6240  145.1620 C   0  0  0  0  0  2  0  0  0  0  0  0
  189.0710  176.9220  146.3480 C   0  0  0  0  0  2  0  0  0  0  0  0
  190.7610  175.2260  147.9150 O   0  0  0  0  0  0  0  0  0  0  0  0
  190.4340  176.5340  146.0040 N   0  0  0  0  0  2  0  0  0  0  0  0
  191.2130  175.6400  146.8130 C   0  0  0  0  0  0  0  0  0  0  0  0
  196.6270  174.1780  145.4330 C   0  0  0  0  0  2  0  0  0  0  0  0
  195.2200  174.5950  145.7330 C   0  0  0  0  0  0  0  0  0  0  0  0
  195.7230  172.2950  144.2300 C   0  0  0  0  0  3  0  0  0  0  0  0
  194.1900  173.6570  145.5940 C   0  0  0  0  0  0  0  0  0  0  0  0
  194.9330  175.8800  146.1840 C   0  0  0  0  0  3  0  0  0  0  0  0
  192.5870  175.2900  146.4020 C   0  0  0  0  0  0  0  0  0  0  0  0
  194.5230  172.2620  145.1450 C   0  0  0  0  0  2  0  0  0  0  0  0
  193.6210  176.2290  146.5160 C   0  0  0  0  0  3  0  0  0  0  0  0
  196.6620  173.1790  144.3880 N   0  0  0  0  0  0  0  0  0  0  0  0
  192.8790  174.0000  145.9410 C   0  0  0  0  0  3  0  0  0  0  0  0
  190.0200  174.9640  142.9320 C   0  0  1  0  0  3  0  0  0  0  0  0
  190.3820  173.7110  143.4420 O   0  0  0  0  0  0  0  0  0  0  0  0
  189.6570  172.1450  144.9400 O   0  0  0  0  0  1  0  0  0  0  0  0
  189.4650  173.4410  144.4590 C   0  0  0  0  0  2  0  0  0  0  0  0
  190.9560  175.3610  141.9740 O   0  0  0  0  0  0  0  0  0  0  0  0
  192.3480  176.9870  143.0390 C   0  0  0  0  0  1  0  0  0  0  0  0
  192.1480  175.5280  142.6860 C   0  0  0  0  0  2  0  0  0  0  0  0
  188.6750  174.5950  140.9620 O   0  0  0  0  0  0  0  0  0  0  0  0
  188.1230  173.3110  140.8550 C   0  0  0  0  0  2  0  0  0  0  0  0
  188.4640  172.6790  139.5110 C   0  0  0  0  0  2  0  0  0  0  0  0
  189.7280  173.2650  138.8630 C   0  0  0  0  0  2  0  0  0  0  0  0
  190.9950  172.5010  139.1420 C   0  0  0  0  0  0  0  0  0  0  0  0
  191.9270  170.2710  138.5630 C   0  0  0  0  0  1  0  0  0  0  0  0
  191.5990  172.6320  140.2380 O   0  0  0  0  0  0  0  0  0  0  0  0
  191.5140  171.6060  138.1510 N   0  0  0  0  0  0  0  0  0  0  0  0
  190.2370  171.7870  136.1420 C   0  0  0  0  0  2  0  0  0  0  0  0
  191.4060  171.9120  136.7540 C   0  0  0  0  0  0  0  0  0  0  0  0
  192.6280  172.0680  135.9070 C   0  0  0  0  0  2  0  0  0  0  0  0
  193.2090  173.4720  135.9700 C   0  0  2  0  0  0  0  0  0  0  0  0
  193.8800  173.7540  134.7720 O   0  0  0  0  0  0  0  0  0  0  0  0
  194.6970  173.6110  135.9160 C   0  0  1  0  0  3  0  0  0  0  0  0
  192.0990  174.8630  136.3860 S   0  0  0  0  0  1  0  0  0  0  0  0
  195.1980  174.9560  136.3660 C   0  0  0  0  0  0  0  0  0  0  0  0
  195.5110  175.2280  137.7360 N   0  0  0  0  0  2  0  0  0  0  0  0
  195.2900  175.8920  135.5260 O   0  0  0  0  0  0  0  0  0  0  0  0
  194.2280  174.7700  139.7360 C   0  0  0  0  0  1  0  0  0  0  0  0
  196.5100  174.1500  139.5460 O   0  0  0  0  0  1  0  0  0  0  0  0
  195.3270  174.2770  138.8170 C   0  0  2  0  0  3  0  0  0  0  0  0
  1 30  1  6  0  0  0
  1  2  1  0  0  0  0
  1 23  1  0  0  0  0
  3  2  2  0  0  0  0
  4  8  1  0  0  0  0
  4  5  1  1  0  0  0
  6  4  1  0  0  0  0
  7  2  1  6  0  0  0
  7  6  1  0  0  0  0
  7  4  1  0  0  0  0
  8  9  1  0  0  0  0
 11  9  1  0  0  0  0
 11 12  1  0  0  0  0
 12 10  2  0  0  0  0
 13 14  1  0  0  0  0
 14 17  1  0  0  0  0
 15 21  2  0  0  0  0
 15 19  1  0  0  0  0
 16 14  2  0  0  0  0
 16 22  1  0  0  0  0
 17 20  2  0  0  0  0
 18 20  1  0  0  0  0
 18 12  1  0  0  0  0
 19 16  1  0  0  0  0
 21 13  1  0  0  0  0
 22 18  2  0  0  0  0
 23 27  1  6  0  0  0
 23 24  1  0  0  0  0
 24 26  1  0  0  0  0
 26 25  1  0  0  0  0
 27 29  1  0  0  0  0
 29 28  1  0  0  0  0
 31 30  1  0  0  0  0
 32 31  1  0  0  0  0
 33 34  1  0  0  0  0
 33 32  1  0  0  0  0
 34 36  2  0  0  0  0
 37 35  1  0  0  0  0
 37 34  1  0  0  0  0
 38 39  2  0  0  0  0
 39 37  1  0  0  0  0
 40 41  1  0  0  0  0
 40 39  1  0  0  0  0
 41 44  1  1  0  0  0
 42 43  1  0  0  0  0
 42 41  1  0  0  0  0
 43 41  1  0  0  0  0
 43 45  1  1  0  0  0
 45 46  1  0  0  0  0
 46 50  1  0  0  0  0
 47 45  2  0  0  0  0
 50 49  1  0  0  0  0
 50 48  1  1  0  0  0
M  END
>  <MODEL>
4

>  <REMARK>
 VINA RESULT:      -5.7      2.715      6.829
  Name = 
  21 active torsions:
  status: ('A' for Active; 'I' for Inactive)
    1  A    between atoms: C_2  and  C_17
    2  A    between atoms: C_3  and  C_46
    3  A    between atoms: C_7  and  C_31
    4  A    between atoms: C_7  and  O_32
    5  A    between atoms: C_8  and  O_32
    6  A    between atoms: C_8  and  C_36
    7  A    between atoms: C_8  and  C_42
    8  A    between atoms: C_9  and  C_17
    9  A    between atoms: C_9  and  N_19
   10  A    between atoms: C_13  and  C_34
   11  A    between atoms: N_20  and  C_24
   12  A    between atoms: C_21  and  C_42
   13  A    between atoms: C_23  and  C_37
   14  A    between atoms: C_26  and  C_44
   15  A    between atoms: N_29  and  C_43
   16  A    between atoms: C_30  and  O_47
   17  A    between atoms: C_31  and  C_34
   18  A    between atoms: C_36  and  O_41
   19  A    between atoms: C_36  and  O_47
   20  A    between atoms: C_40  and  O_41
   21  A    between atoms: C_43  and  C_44
                            x       y       z     vdW  Elec       q    Type
                         _______ _______ _______ _____ _____    ______ ____

>  <TORSDO>
F 21

$$$$
=
 OpenBabel11062420543D

 50 53  0  0  1  0  0  0  0  0999 V2000
  187.7980  176.4990  144.4470 C   0  0  2  0  0  3  0  0  0  0  0  0
  188.9320  175.9210  143.6380 C   0  0  0  0  0  0  0  0  0  0  0  0
  189.5280  176.6330  142.8440 O   0  0  0  0  0  0  0  0  0  0  0  0
  189.1470  173.4820  142.7890 C   0  0  2  0  0  0  0  0  0  0  0  0
  189.3090  172.0320  143.2020 C   0  0  0  0  0  1  0  0  0  0  0  0
  190.4750  174.1930  142.8150 C   0  0  0  0  0  2  0  0  0  0  0  0
  189.4340  174.5200  143.8710 C   0  0  1  0  0  3  0  0  0  0  0  0
  188.3540  173.8210  141.5290 C   0  0  0  0  0  2  0  0  0  0  0  0
  188.7100  172.8920  140.3700 C   0  0  0  0  0  2  0  0  0  0  0  0
  191.4450  172.1140  140.0470 O   0  0  0  0  0  0  0  0  0  0  0  0
  189.6770  173.5400  139.4910 N   0  0  0  0  0  2  0  0  0  0  0  0
  191.0250  173.0700  139.3390 C   0  0  0  0  0  0  0  0  0  0  0  0
  194.5790  176.0450  135.8940 C   0  0  0  0  0  2  0  0  0  0  0  0
  193.6640  175.2190  136.7460 C   0  0  0  0  0  0  0  0  0  0  0  0
  196.4170  175.2160  137.2140 C   0  0  0  0  0  3  0  0  0  0  0  0
  194.1240  174.7550  137.9840 C   0  0  0  0  0  0  0  0  0  0  0  0
  192.3600  174.9460  136.3410 C   0  0  0  0  0  3  0  0  0  0  0  0
  191.9480  173.7760  138.4300 C   0  0  0  0  0  0  0  0  0  0  0  0
  195.5200  175.0940  138.4220 C   0  0  0  0  0  2  0  0  0  0  0  0
  191.5040  174.2250  137.1790 C   0  0  0  0  0  3  0  0  0  0  0  0
  195.9570  175.6520  136.0800 N   0  0  0  0  0  0  0  0  0  0  0  0
  193.2630  174.0470  138.8290 C   0  0  0  0  0  3  0  0  0  0  0  0
  186.6750  177.0020  143.5350 C   0  0  1  0  0  3  0  0  0  0  0  0
  186.7700  176.3940  142.2780 O   0  0  0  0  0  0  0  0  0  0  0  0
  186.7660  178.6370  141.8400 O   0  0  0  0  0  1  0  0  0  0  0  0
  186.4080  177.3780  141.3570 C   0  0  0  0  0  2  0  0  0  0  0  0
  185.4210  176.7260  144.0880 O   0  0  0  0  0  0  0  0  0  0  0  0
  184.2110  178.7750  144.3240 C   0  0  0  0  0  1  0  0  0  0  0  0
  185.1720  177.7910  144.9590 C   0  0  0  0  0  2  0  0  0  0  0  0
  188.2640  177.5300  145.2720 O   0  0  0  0  0  0  0  0  0  0  0  0
  188.4920  176.9200  146.5130 C   0  0  0  0  0  2  0  0  0  0  0  0
  189.8250  177.3610  147.1040 C   0  0  0  0  0  2  0  0  0  0  0  0
  191.0390  176.9280  146.2660 C   0  0  0  0  0  2  0  0  0  0  0  0
  191.7920  175.7430  146.8090 C   0  0  0  0  0  0  0  0  0  0  0  0
  193.0090  173.7890  145.8720 C   0  0  0  0  0  1  0  0  0  0  0  0
  191.4420  175.1940  147.8860 O   0  0  0  0  0  0  0  0  0  0  0  0
  192.9160  175.2280  146.0860 N   0  0  0  0  0  0  0  0  0  0  0  0
  194.4570  177.0510  146.0340 C   0  0  0  0  0  2  0  0  0  0  0  0
  193.8000  176.1050  145.3760 C   0  0  0  0  0  0  0  0  0  0  0  0
  193.7660  176.1840  143.8840 C   0  0  0  0  0  2  0  0  0  0  0  0
  194.9990  175.5710  143.2370 C   0  0  2  0  0  0  0  0  0  0  0  0
  194.6940  175.1850  141.9240 O   0  0  0  0  0  0  0  0  0  0  0  0
  194.9300  174.1320  142.8360 C   0  0  1  0  0  3  0  0  0  0  0  0
  196.5580  176.5250  143.2420 S   0  0  0  0  0  1  0  0  0  0  0  0
  196.2750  173.5110  142.5730 C   0  0  0  0  0  0  0  0  0  0  0  0
  197.0060  172.8270  143.5960 N   0  0  0  0  0  2  0  0  0  0  0  0
  196.8030  173.6430  141.4360 O   0  0  0  0  0  0  0  0  0  0  0  0
  197.2590  173.7760  145.8080 C   0  0  0  0  0  1  0  0  0  0  0  0
  196.8910  171.4560  145.4780 O   0  0  0  0  0  1  0  0  0  0  0  0
  196.5670  172.7160  144.9750 C   0  0  2  0  0  3  0  0  0  0  0  0
  1  2  1  6  0  0  0
  1 30  1  0  0  0  0
  3  2  2  0  0  0  0
  4  6  1  0  0  0  0
  4  5  1  1  0  0  0
  4  7  1  0  0  0  0
  6  7  1  0  0  0  0
  7  2  1  6  0  0  0
  8  4  1  0  0  0  0
  9  8  1  0  0  0  0
 11  9  1  0  0  0  0
 12 11  1  0  0  0  0
 12 10  2  0  0  0  0
 13 21  1  0  0  0  0
 13 14  1  0  0  0  0
 14 16  1  0  0  0  0
 15 19  1  0  0  0  0
 16 19  1  0  0  0  0
 16 22  2  0  0  0  0
 17 14  2  0  0  0  0
 17 20  1  0  0  0  0
 18 22  1  0  0  0  0
 18 12  1  0  0  0  0
 20 18  2  0  0  0  0
 21 15  2  0  0  0  0
 23 24  1  6  0  0  0
 23 27  1  0  0  0  0
 23  1  1  0  0  0  0
 26 25  1  0  0  0  0
 26 24  1  0  0  0  0
 27 29  1  0  0  0  0
 28 29  1  0  0  0  0
 30 31  1  0  0  0  0
 31 32  1  0  0  0  0
 33 34  1  0  0  0  0
 33 32  1  0  0  0  0
 34 36  2  0  0  0  0
 35 37  1  0  0  0  0
 37 34  1  0  0  0  0
 39 38  2  0  0  0  0
 39 37  1  0  0  0  0
 40 39  1  0  0  0  0
 41 44  1  1  0  0  0
 41 40  1  0  0  0  0
 42 43  1  0  0  0  0
 42 41  1  0  0  0  0
 43 45  1  6  0  0  0
 43 41  1  0  0  0  0
 45 46  1  0  0  0  0
 46 50  1  0  0  0  0
 47 45  2  0  0  0  0
 50 49  1  0  0  0  0
 50 48  1  1  0  0  0
M  END
>  <MODEL>
5

>  <REMARK>
 VINA RESULT:      -5.7      3.192      9.002
  Name = 
  21 active torsions:
  status: ('A' for Active; 'I' for Inactive)
    1  A    between atoms: C_2  and  C_17
    2  A    between atoms: C_3  and  C_46
    3  A    between atoms: C_7  and  C_31
    4  A    between atoms: C_7  and  O_32
    5  A    between atoms: C_8  and  O_32
    6  A    between atoms: C_8  and  C_36
    7  A    between atoms: C_8  and  C_42
    8  A    between atoms: C_9  and  C_17
    9  A    between atoms: C_9  and  N_19
   10  A    between atoms: C_13  and  C_34
   11  A    between atoms: N_20  and  C_24
   12  A    between atoms: C_21  and  C_42
   13  A    between atoms: C_23  and  C_37
   14  A    between atoms: C_26  and  C_44
   15  A    between atoms: N_29  and  C_43
   16  A    between atoms: C_30  and  O_47
   17  A    between atoms: C_31  and  C_34
   18  A    between atoms: C_36  and  O_41
   19  A    between atoms: C_36  and  O_47
   20  A    between atoms: C_40  and  O_41
   21  A    between atoms: C_43  and  C_44
                            x       y       z     vdW  Elec       q    Type
                         _______ _______ _______ _____ _____    ______ ____

>  <TORSDO>
F 21

$$$$
=
 OpenBabel11062420543D

 50 53  0  0  1  0  0  0  0  0999 V2000
  188.4860  174.7890  142.0070 C   0  0  2  0  0  3  0  0  0  0  0  0
  187.6470  176.0300  142.1820 C   0  0  0  0  0  0  0  0  0  0  0  0
  187.7710  176.9560  141.3930 O   0  0  0  0  0  0  0  0  0  0  0  0
  186.8640  176.9420  144.4770 C   0  0  2  0  0  0  0  0  0  0  0  0
  185.9500  176.7010  145.6640 C   0  0  0  0  0  1  0  0  0  0  0  0
  186.0970  177.5520  143.3330 C   0  0  0  0  0  2  0  0  0  0  0  0
  186.5690  176.1130  143.2300 C   0  0  1  0  0  3  0  0  0  0  0  0
  188.2050  177.6400  144.6900 C   0  0  0  0  0  2  0  0  0  0  0  0
  188.8560  177.2230  146.0070 C   0  0  0  0  0  2  0  0  0  0  0  0
  190.3220  175.3470  147.5940 O   0  0  0  0  0  0  0  0  0  0  0  0
  190.2350  176.8100  145.7720 N   0  0  0  0  0  2  0  0  0  0  0  0
  190.8990  175.8270  146.5810 C   0  0  0  0  0  0  0  0  0  0  0  0
  196.3880  174.2930  145.6500 C   0  0  0  0  0  2  0  0  0  0  0  0
  194.9660  174.7270  145.8330 C   0  0  0  0  0  0  0  0  0  0  0  0
  195.5600  172.3940  144.4180 C   0  0  0  0  0  3  0  0  0  0  0  0
  193.9410  173.7950  145.6330 C   0  0  0  0  0  0  0  0  0  0  0  0
  194.6580  176.0240  146.2360 C   0  0  0  0  0  3  0  0  0  0  0  0
  192.2970  175.4580  146.2840 C   0  0  0  0  0  0  0  0  0  0  0  0
  194.2930  172.3890  145.2380 C   0  0  0  0  0  2  0  0  0  0  0  0
  193.3280  176.3900  146.4590 C   0  0  0  0  0  3  0  0  0  0  0  0
  196.4930  173.2730  144.6310 N   0  0  0  0  0  0  0  0  0  0  0  0
  192.6100  174.1570  145.8720 C   0  0  0  0  0  3  0  0  0  0  0  0
  189.6700  174.7860  142.9790 C   0  0  1  0  0  3  0  0  0  0  0  0
  190.3190  173.5470  142.9390 O   0  0  0  0  0  0  0  0  0  0  0  0
  189.6570  172.6600  144.9380 O   0  0  0  0  0  1  0  0  0  0  0  0
  189.4500  172.6470  143.5580 C   0  0  0  0  0  2  0  0  0  0  0  0
  190.5820  175.7960  142.6610 O   0  0  0  0  0  0  0  0  0  0  0  0
  192.9430  176.1690  142.6710 C   0  0  0  0  0  1  0  0  0  0  0  0
  191.8220  175.1530  142.6010 C   0  0  0  0  0  2  0  0  0  0  0  0
  188.9340  174.6860  140.6840 O   0  0  0  0  0  0  0  0  0  0  0  0
  188.2530  173.5780  140.1620 C   0  0  0  0  0  2  0  0  0  0  0  0
  188.3360  173.5500  138.6410 C   0  0  0  0  0  2  0  0  0  0  0  0
  189.7770  173.5060  138.1080 C   0  0  0  0  0  2  0  0  0  0  0  0
  189.9810  174.1820  136.7790 C   0  0  0  0  0  0  0  0  0  0  0  0
  191.8100  175.4220  135.6410 C   0  0  0  0  0  1  0  0  0  0  0  0
  189.0280  174.7620  136.1970 O   0  0  0  0  0  0  0  0  0  0  0  0
  191.2790  174.1730  136.1720 N   0  0  0  0  0  0  0  0  0  0  0  0
  191.6200  171.8300  136.4780 C   0  0  0  0  0  2  0  0  0  0  0  0
  192.1420  173.0350  136.2970 C   0  0  0  0  0  0  0  0  0  0  0  0
  193.6070  173.2090  136.5370 C   0  0  0  0  0  2  0  0  0  0  0  0
  193.9820  173.0590  138.0030 C   0  0  2  0  0  0  0  0  0  0  0  0
  195.3780  172.9960  138.1250 O   0  0  0  0  0  0  0  0  0  0  0  0
  194.6810  171.8030  138.4170 C   0  0  1  0  0  3  0  0  0  0  0  0
  193.3230  174.2680  139.2050 S   0  0  0  0  0  1  0  0  0  0  0  0
  194.6670  171.5620  139.9020 C   0  0  0  0  0  0  0  0  0  0  0  0
  193.6160  170.8300  140.5410 N   0  0  0  0  0  2  0  0  0  0  0  0
  195.5740  172.0670  140.6170 O   0  0  0  0  0  0  0  0  0  0  0  0
  191.2040  170.9710  140.3960 C   0  0  0  0  0  1  0  0  0  0  0  0
  192.3600  168.9280  140.0470 O   0  0  0  0  0  1  0  0  0  0  0  0
  192.4520  170.3060  139.8490 C   0  0  2  0  0  3  0  0  0  0  0  0
  1 30  1  6  0  0  0
  1  2  1  0  0  0  0
  1 23  1  0  0  0  0
  3  2  2  0  0  0  0
  4  8  1  0  0  0  0
  4  5  1  1  0  0  0
  6  4  1  0  0  0  0
  7  2  1  6  0  0  0
  7  6  1  0  0  0  0
  7  4  1  0  0  0  0
  8  9  1  0  0  0  0
 11  9  1  0  0  0  0
 11 12  1  0  0  0  0
 12 10  2  0  0  0  0
 13 14  1  0  0  0  0
 14 17  1  0  0  0  0
 15 21  2  0  0  0  0
 15 19  1  0  0  0  0
 16 14  2  0  0  0  0
 16 22  1  0  0  0  0
 17 20  2  0  0  0  0
 18 20  1  0  0  0  0
 18 12  1  0  0  0  0
 19 16  1  0  0  0  0
 21 13  1  0  0  0  0
 22 18  2  0  0  0  0
 23 27  1  6  0  0  0
 24 23  1  0  0  0  0
 24 26  1  0  0  0  0
 26 25  1  0  0  0  0
 29 27  1  0  0  0  0
 29 28  1  0  0  0  0
 31 30  1  0  0  0  0
 32 31  1  0  0  0  0
 33 32  1  0  0  0  0
 34 33  1  0  0  0  0
 35 37  1  0  0  0  0
 36 34  2  0  0  0  0
 37 39  1  0  0  0  0
 37 34  1  0  0  0  0
 39 38  2  0  0  0  0
 39 40  1  0  0  0  0
 40 41  1  0  0  0  0
 41 42  1  0  0  0  0
 41 43  1  0  0  0  0
 41 44  1  1  0  0  0
 42 43  1  0  0  0  0
 43 45  1  1  0  0  0
 45 46  1  0  0  0  0
 45 47  2  0  0  0  0
 50 49  1  0  0  0  0
 50 48  1  1  0  0  0
 50 46  1  0  0  0  0
M  END
>  <MODEL>
6

>  <REMARK>
 VINA RESULT:      -5.7      2.471      6.846
  Name = 
  21 active torsions:
  status: ('A' for Active; 'I' for Inactive)
    1  A    between atoms: C_2  and  C_17
    2  A    between atoms: C_3  and  C_46
    3  A    between atoms: C_7  and  C_31
    4  A    between atoms: C_7  and  O_32
    5  A    between atoms: C_8  and  O_32
    6  A    between atoms: C_8  and  C_36
    7  A    between atoms: C_8  and  C_42
    8  A    between atoms: C_9  and  C_17
    9  A    between atoms: C_9  and  N_19
   10  A    between atoms: C_13  and  C_34
   11  A    between atoms: N_20  and  C_24
   12  A    between atoms: C_21  and  C_42
   13  A    between atoms: C_23  and  C_37
   14  A    between atoms: C_26  and  C_44
   15  A    between atoms: N_29  and  C_43
   16  A    between atoms: C_30  and  O_47
   17  A    between atoms: C_31  and  C_34
   18  A    between atoms: C_36  and  O_41
   19  A    between atoms: C_36  and  O_47
   20  A    between atoms: C_40  and  O_41
   21  A    between atoms: C_43  and  C_44
                            x       y       z     vdW  Elec       q    Type
                         _______ _______ _______ _____ _____    ______ ____

>  <TORSDO>
F 21

$$$$
=
 OpenBabel11062420543D

 50 53  0  0  1  0  0  0  0  0999 V2000
  191.8220  172.0780  140.5070 C   0  0  2  0  0  3  0  0  0  0  0  0
  190.8370  172.9780  141.2080 C   0  0  0  0  0  0  0  0  0  0  0  0
  190.6780  174.1220  140.8070 O   0  0  0  0  0  0  0  0  0  0  0  0
  190.2860  172.8990  143.7380 C   0  0  2  0  0  0  0  0  0  0  0  0
  189.6420  172.0870  144.8450 C   0  0  0  0  0  1  0  0  0  0  0  0
  189.2410  173.6490  142.9540 C   0  0  0  0  0  2  0  0  0  0  0  0
  189.9500  172.4690  142.3130 C   0  0  1  0  0  3  0  0  0  0  0  0
  191.4900  173.7830  144.0570 C   0  0  0  0  0  2  0  0  0  0  0  0
  191.2970  174.5510  145.3630 C   0  0  0  0  0  2  0  0  0  0  0  0
  189.1420  174.5840  147.2450 O   0  0  0  0  0  0  0  0  0  0  0  0
  190.1090  175.3920  145.2750 N   0  0  0  0  0  2  0  0  0  0  0  0
  189.0840  175.3940  146.2800 C   0  0  0  0  0  0  0  0  0  0  0  0
  184.6340  179.0320  145.7100 C   0  0  0  0  0  2  0  0  0  0  0  0
  185.7440  178.0360  145.8620 C   0  0  0  0  0  0  0  0  0  0  0  0
  184.7720  178.6940  143.3280 C   0  0  0  0  0  3  0  0  0  0  0  0
  186.5340  177.7260  144.7490 C   0  0  0  0  0  0  0  0  0  0  0  0
  186.0200  177.4530  147.0960 C   0  0  0  0  0  3  0  0  0  0  0  0
  187.9080  176.2740  146.1250 C   0  0  0  0  0  0  0  0  0  0  0  0
  186.2470  178.3960  143.4350 C   0  0  0  0  0  2  0  0  0  0  0  0
  187.0970  176.5720  147.2270 C   0  0  0  0  0  3  0  0  0  0  0  0
  184.0670  178.9800  144.3820 N   0  0  0  0  0  0  0  0  0  0  0  0
  187.6230  176.8570  144.8840 C   0  0  0  0  0  3  0  0  0  0  0  0
  191.5430  172.0250  139.0010 C   0  0  1  0  0  3  0  0  0  0  0  0
  192.1000  170.8650  138.4510 O   0  0  0  0  0  0  0  0  0  0  0  0
  194.3810  170.7160  138.4180 O   0  0  0  0  0  1  0  0  0  0  0  0
  193.2630  171.2800  137.8010 C   0  0  0  0  0  2  0  0  0  0  0  0
  190.1690  172.0440  138.7470 O   0  0  0  0  0  0  0  0  0  0  0  0
  188.9710  173.8670  137.7700 C   0  0  0  0  0  1  0  0  0  0  0  0
  190.0300  172.8020  137.5800 C   0  0  0  0  0  2  0  0  0  0  0  0
  191.7870  170.7920  141.0600 O   0  0  0  0  0  0  0  0  0  0  0  0
  193.0260  170.6440  141.6990 C   0  0  0  0  0  2  0  0  0  0  0  0
  192.9340  169.6470  142.8480 C   0  0  0  0  0  2  0  0  0  0  0  0
  192.9820  170.3080  144.2350 C   0  0  0  0  0  2  0  0  0  0  0  0
  194.2450  170.0560  145.0130 C   0  0  0  0  0  0  0  0  0  0  0  0
  196.6730  169.8740  144.5120 C   0  0  0  0  0  1  0  0  0  0  0  0
  194.2460  169.2940  146.0140 O   0  0  0  0  0  0  0  0  0  0  0  0
  195.4650  170.6850  144.6030 N   0  0  0  0  0  0  0  0  0  0  0  0
  195.9530  172.2260  142.8460 C   0  0  0  0  0  2  0  0  0  0  0  0
  195.4640  172.0120  144.0590 C   0  0  0  0  0  0  0  0  0  0  0  0
  195.2120  173.1980  144.9330 C   0  0  0  0  0  2  0  0  0  0  0  0
  196.0290  174.4130  144.5210 C   0  0  2  0  0  0  0  0  0  0  0  0
  195.6320  175.5220  145.2810 O   0  0  0  0  0  0  0  0  0  0  0  0
  195.2990  175.5650  143.9090 C   0  0  1  0  0  3  0  0  0  0  0  0
  197.8530  174.2890  144.5340 S   0  0  0  0  0  1  0  0  0  0  0  0
  196.1940  176.5370  143.1890 C   0  0  0  0  0  0  0  0  0  0  0  0
  196.4230  176.4540  141.7790 N   0  0  0  0  0  2  0  0  0  0  0  0
  196.8080  177.4160  143.8520 O   0  0  0  0  0  0  0  0  0  0  0  0
  196.8540  175.1240  139.8030 C   0  0  0  0  0  1  0  0  0  0  0  0
  194.6650  175.8330  140.3790 O   0  0  0  0  0  1  0  0  0  0  0  0
  195.8780  175.4140  140.9260 C   0  0  2  0  0  3  0  0  0  0  0  0
  1 30  1  1  0  0  0
  1  2  1  0  0  0  0
  3  2  2  0  0  0  0
  4  8  1  0  0  0  0
  4  5  1  1  0  0  0
  6  4  1  0  0  0  0
  7  2  1  6  0  0  0
  7  6  1  0  0  0  0
  7  4  1  0  0  0  0
  8  9  1  0  0  0  0
 11  9  1  0  0  0  0
 11 12  1  0  0  0  0
 12 10  2  0  0  0  0
 13 14  1  0  0  0  0
 14 17  1  0  0  0  0
 15 19  1  0  0  0  0
 15 21  2  0  0  0  0
 16 22  1  0  0  0  0
 16 14  2  0  0  0  0
 17 20  2  0  0  0  0
 18 12  1  0  0  0  0
 18 20  1  0  0  0  0
 19 16  1  0  0  0  0
 21 13  1  0  0  0  0
 22 18  2  0  0  0  0
 23 24  1  1  0  0  0
 23  1  1  0  0  0  0
 26 25  1  0  0  0  0
 26 24  1  0  0  0  0
 27 23  1  0  0  0  0
 29 28  1  0  0  0  0
 29 27  1  0  0  0  0
 30 31  1  0  0  0  0
 31 32  1  0  0  0  0
 32 33  1  0  0  0  0
 33 34  1  0  0  0  0
 34 36  2  0  0  0  0
 35 37  1  0  0  0  0
 37 34  1  0  0  0  0
 38 39  2  0  0  0  0
 39 37  1  0  0  0  0
 39 40  1  0  0  0  0
 41 44  1  6  0  0  0
 41 40  1  0  0  0  0
 41 42  1  0  0  0  0
 43 45  1  6  0  0  0
 43 41  1  0  0  0  0
 43 42  1  0  0  0  0
 45 47  2  0  0  0  0
 46 45  1  0  0  0  0
 49 50  1  0  0  0  0
 50 48  1  6  0  0  0
 50 46  1  0  0  0  0
M  END
>  <MODEL>
7

>  <REMARK>
 VINA RESULT:      -5.6      2.624      5.827
  Name = 
  21 active torsions:
  status: ('A' for Active; 'I' for Inactive)
    1  A    between atoms: C_2  and  C_17
    2  A    between atoms: C_3  and  C_46
    3  A    between atoms: C_7  and  C_31
    4  A    between atoms: C_7  and  O_32
    5  A    between atoms: C_8  and  O_32
    6  A    between atoms: C_8  and  C_36
    7  A    between atoms: C_8  and  C_42
    8  A    between atoms: C_9  and  C_17
    9  A    between atoms: C_9  and  N_19
   10  A    between atoms: C_13  and  C_34
   11  A    between atoms: N_20  and  C_24
   12  A    between atoms: C_21  and  C_42
   13  A    between atoms: C_23  and  C_37
   14  A    between atoms: C_26  and  C_44
   15  A    between atoms: N_29  and  C_43
   16  A    between atoms: C_30  and  O_47
   17  A    between atoms: C_31  and  C_34
   18  A    between atoms: C_36  and  O_41
   19  A    between atoms: C_36  and  O_47
   20  A    between atoms: C_40  and  O_41
   21  A    between atoms: C_43  and  C_44
                            x       y       z     vdW  Elec       q    Type
                         _______ _______ _______ _____ _____    ______ ____

>  <TORSDO>
F 21

$$$$
=
 OpenBabel11062420543D

 50 53  0  0  1  0  0  0  0  0999 V2000
  195.1230  173.9340  144.7420 C   0  0  2  0  0  3  0  0  0  0  0  0
  194.6770  175.2080  145.4160 C   0  0  0  0  0  0  0  0  0  0  0  0
  195.1520  175.5130  146.4990 O   0  0  0  0  0  0  0  0  0  0  0  0
  192.3070  176.2360  145.2160 C   0  0  2  0  0  0  0  0  0  0  0  0
  191.3210  176.9160  144.2850 C   0  0  0  0  0  1  0  0  0  0  0  0
  193.3130  177.2280  145.7390 C   0  0  0  0  0  2  0  0  0  0  0  0
  193.7530  176.1810  144.7310 C   0  0  1  0  0  3  0  0  0  0  0  0
  191.7870  175.3250  146.3260 C   0  0  0  0  0  2  0  0  0  0  0  0
  191.0840  176.1180  147.4250 C   0  0  0  0  0  2  0  0  0  0  0  0
  188.5140  174.8680  147.2770 O   0  0  0  0  0  0  0  0  0  0  0  0
  189.8720  176.7340  146.8970 N   0  0  0  0  0  2  0  0  0  0  0  0
  188.6000  176.0670  146.8940 C   0  0  0  0  0  0  0  0  0  0  0  0
  184.0600  178.9670  144.8150 C   0  0  0  0  0  2  0  0  0  0  0  0
  185.2020  178.1560  145.3470 C   0  0  0  0  0  0  0  0  0  0  0  0
  184.9770  178.6550  142.6080 C   0  0  0  0  0  3  0  0  0  0  0  0
  186.3350  177.9720  144.5460 C   0  0  0  0  0  0  0  0  0  0  0  0
  185.1660  177.6240  146.6330 C   0  0  0  0  0  3  0  0  0  0  0  0
  187.4150  176.7530  146.3450 C   0  0  0  0  0  0  0  0  0  0  0  0
  186.3740  178.5890  143.1760 C   0  0  0  0  0  2  0  0  0  0  0  0
  186.2670  176.9220  147.1300 C   0  0  0  0  0  3  0  0  0  0  0  0
  183.9470  178.8270  143.3810 N   0  0  0  0  0  0  0  0  0  0  0  0
  187.4440  177.2840  145.0500 C   0  0  0  0  0  3  0  0  0  0  0  0
  196.5440  174.0760  144.1880 C   0  0  1  0  0  3  0  0  0  0  0  0
  196.8040  175.4150  143.8740 O   0  0  0  0  0  0  0  0  0  0  0  0
  196.9840  176.6320  141.9480 O   0  0  0  0  0  1  0  0  0  0  0  0
  197.2680  175.4090  142.5580 C   0  0  0  0  0  2  0  0  0  0  0  0
  197.4890  173.6260  145.1130 O   0  0  0  0  0  0  0  0  0  0  0  0
  197.5230  171.2350  145.1280 C   0  0  0  0  0  1  0  0  0  0  0  0
  196.9080  172.4960  145.6990 C   0  0  0  0  0  2  0  0  0  0  0  0
  194.2280  173.5830  143.7240 O   0  0  0  0  0  0  0  0  0  0  0  0
  194.1020  172.1910  143.8250 C   0  0  0  0  0  2  0  0  0  0  0  0
  192.6800  171.7960  144.2070 C   0  0  0  0  0  2  0  0  0  0  0  0
  191.6210  172.2850  143.2070 C   0  0  0  0  0  2  0  0  0  0  0  0
  191.6630  171.6120  141.8610 C   0  0  0  0  0  0  0  0  0  0  0  0
  190.5950  171.9390  139.6410 C   0  0  0  0  0  1  0  0  0  0  0  0
  191.8170  170.3660  141.7670 O   0  0  0  0  0  0  0  0  0  0  0  0
  191.5170  172.3980  140.6730 N   0  0  0  0  0  0  0  0  0  0  0  0
  191.7400  174.6230  141.5090 C   0  0  0  0  0  2  0  0  0  0  0  0
  192.0640  173.7210  140.5920 C   0  0  0  0  0  0  0  0  0  0  0  0
  192.7360  174.1970  139.3450 C   0  0  0  0  0  2  0  0  0  0  0  0
  194.1680  173.7000  139.2260 C   0  0  2  0  0  0  0  0  0  0  0  0
  194.8240  173.8630  140.4540 O   0  0  0  0  0  0  0  0  0  0  0  0
  195.2670  174.6980  139.4040 C   0  0  1  0  0  3  0  0  0  0  0  0
  194.4600  172.0060  138.6030 S   0  0  0  0  0  1  0  0  0  0  0  0
  196.6030  174.2270  138.8980 C   0  0  0  0  0  0  0  0  0  0  0  0
  197.0670  174.5420  137.5810 N   0  0  0  0  0  2  0  0  0  0  0  0
  197.3130  173.4850  139.6280 O   0  0  0  0  0  0  0  0  0  0  0  0
  195.6500  174.3050  135.6340 C   0  0  0  0  0  1  0  0  0  0  0  0
  197.1240  176.1450  135.8880 O   0  0  0  0  0  1  0  0  0  0  0  0
  196.2920  175.2800  136.5990 C   0  0  2  0  0  3  0  0  0  0  0  0
  1 30  1  6  0  0  0
  1  2  1  0  0  0  0
  2  3  2  0  0  0  0
  4  5  1  6  0  0  0
  4  6  1  0  0  0  0
  4  8  1  0  0  0  0
  7  4  1  0  0  0  0
  7  2  1  1  0  0  0
  7  6  1  0  0  0  0
  8  9  1  0  0  0  0
 11  9  1  0  0  0  0
 12 11  1  0  0  0  0
 12 10  2  0  0  0  0
 13 14  1  0  0  0  0
 14 17  1  0  0  0  0
 15 19  1  0  0  0  0
 15 21  2  0  0  0  0
 16 22  1  0  0  0  0
 16 14  2  0  0  0  0
 17 20  2  0  0  0  0
 18 12  1  0  0  0  0
 18 20  1  0  0  0  0
 19 16  1  0  0  0  0
 21 13  1  0  0  0  0
 22 18  2  0  0  0  0
 23 24  1  1  0  0  0
 23  1  1  0  0  0  0
 23 27  1  0  0  0  0
 25 26  1  0  0  0  0
 26 24  1  0  0  0  0
 27 29  1  0  0  0  0
 28 29  1  0  0  0  0
 30 31  1  0  0  0  0
 31 32  1  0  0  0  0
 33 32  1  0  0  0  0
 34 33  1  0  0  0  0
 35 37  1  0  0  0  0
 36 34  2  0  0  0  0
 37 34  1  0  0  0  0
 39 37  1  0  0  0  0
 39 38  2  0  0  0  0
 40 39  1  0  0  0  0
 41 44  1  6  0  0  0
 41 40  1  0  0  0  0
 41 43  1  0  0  0  0
 41 42  1  0  0  0  0
 43 45  1  6  0  0  0
 43 42  1  0  0  0  0
 45 47  2  0  0  0  0
 46 45  1  0  0  0  0
 49 50  1  0  0  0  0
 50 48  1  6  0  0  0
 50 46  1  0  0  0  0
M  END
>  <MODEL>
8

>  <REMARK>
 VINA RESULT:      -5.4      2.350      3.631
  Name = 
  21 active torsions:
  status: ('A' for Active; 'I' for Inactive)
    1  A    between atoms: C_2  and  C_17
    2  A    between atoms: C_3  and  C_46
    3  A    between atoms: C_7  and  C_31
    4  A    between atoms: C_7  and  O_32
    5  A    between atoms: C_8  and  O_32
    6  A    between atoms: C_8  and  C_36
    7  A    between atoms: C_8  and  C_42
    8  A    between atoms: C_9  and  C_17
    9  A    between atoms: C_9  and  N_19
   10  A    between atoms: C_13  and  C_34
   11  A    between atoms: N_20  and  C_24
   12  A    between atoms: C_21  and  C_42
   13  A    between atoms: C_23  and  C_37
   14  A    between atoms: C_26  and  C_44
   15  A    between atoms: N_29  and  C_43
   16  A    between atoms: C_30  and  O_47
   17  A    between atoms: C_31  and  C_34
   18  A    between atoms: C_36  and  O_41
   19  A    between atoms: C_36  and  O_47
   20  A    between atoms: C_40  and  O_41
   21  A    between atoms: C_43  and  C_44
                            x       y       z     vdW  Elec       q    Type
                         _______ _______ _______ _____ _____    ______ ____

>  <TORSDO>
F 21

$$$$
=
 OpenBabel11062420543D

 50 53  0  0  1  0  0  0  0  0999 V2000
  188.7100  174.5880  141.7430 C   0  0  2  0  0  3  0  0  0  0  0  0
  187.9760  175.8310  142.1810 C   0  0  0  0  0  0  0  0  0  0  0  0
  187.9550  176.8060  141.4460 O   0  0  0  0  0  0  0  0  0  0  0  0
  187.6910  176.7020  144.6040 C   0  0  2  0  0  0  0  0  0  0  0  0
  187.0820  176.4170  145.9640 C   0  0  0  0  0  1  0  0  0  0  0  0
  186.6590  177.2770  143.6700 C   0  0  0  0  0  2  0  0  0  0  0  0
  187.1600  175.8610  143.4460 C   0  0  1  0  0  3  0  0  0  0  0  0
  189.0130  177.4610  144.5170 C   0  0  0  0  0  2  0  0  0  0  0  0
  189.7420  177.4820  145.8580 C   0  0  0  0  0  2  0  0  0  0  0  0
  190.5940  174.9410  146.8620 O   0  0  0  0  0  0  0  0  0  0  0  0
  191.0780  176.9170  145.7080 N   0  0  0  0  0  2  0  0  0  0  0  0
  191.4280  175.6130  146.1960 C   0  0  0  0  0  0  0  0  0  0  0  0
  196.8060  173.5670  145.6980 C   0  0  0  0  0  2  0  0  0  0  0  0
  195.4170  174.1250  145.7640 C   0  0  0  0  0  0  0  0  0  0  0  0
  195.8680  171.5790  144.7090 C   0  0  0  0  0  3  0  0  0  0  0  0
  194.3290  173.2520  145.6550 C   0  0  0  0  0  0  0  0  0  0  0  0
  195.2000  175.4850  145.9720 C   0  0  0  0  0  3  0  0  0  0  0  0
  192.8010  175.1040  146.0070 C   0  0  0  0  0  0  0  0  0  0  0  0
  194.5820  171.7820  145.4720 C   0  0  0  0  0  2  0  0  0  0  0  0
  193.8960  175.9740  146.0910 C   0  0  0  0  0  3  0  0  0  0  0  0
  196.8600  172.4100  144.8340 N   0  0  0  0  0  0  0  0  0  0  0  0
  193.0240  173.7390  145.7900 C   0  0  0  0  0  3  0  0  0  0  0  0
  190.0620  174.4710  142.4550 C   0  0  1  0  0  3  0  0  0  0  0  0
  190.4300  173.1240  142.5650 O   0  0  0  0  0  0  0  0  0  0  0  0
  189.6800  172.7920  144.6980 O   0  0  0  0  0  1  0  0  0  0  0  0
  189.4410  172.5280  143.3480 C   0  0  0  0  0  2  0  0  0  0  0  0
  191.0550  175.1670  141.7600 O   0  0  0  0  0  0  0  0  0  0  0  0
  193.3110  175.9160  142.0100 C   0  0  0  0  0  1  0  0  0  0  0  0
  192.0860  175.3420  142.6900 C   0  0  0  0  0  2  0  0  0  0  0  0
  188.8820  174.5870  140.3530 O   0  0  0  0  0  0  0  0  0  0  0  0
  188.3420  173.3670  139.9280 C   0  0  0  0  0  2  0  0  0  0  0  0
  188.4030  173.2390  138.4100 C   0  0  0  0  0  2  0  0  0  0  0  0
  189.8260  173.3700  137.8440 C   0  0  0  0  0  2  0  0  0  0  0  0
  190.4180  172.0900  137.3190 C   0  0  0  0  0  0  0  0  0  0  0  0
  192.6940  171.2130  136.8370 C   0  0  0  0  0  1  0  0  0  0  0  0
  189.8120  171.4040  136.4560 O   0  0  0  0  0  0  0  0  0  0  0  0
  191.6930  171.6500  137.8030 N   0  0  0  0  0  0  0  0  0  0  0  0
  191.4430  171.2120  140.1370 C   0  0  0  0  0  2  0  0  0  0  0  0
  192.0760  171.8610  139.1680 C   0  0  0  0  0  0  0  0  0  0  0  0
  192.9500  173.0110  139.5500 C   0  0  0  0  0  2  0  0  0  0  0  0
  194.4140  172.6180  139.6740 C   0  0  2  0  0  0  0  0  0  0  0  0
  194.5060  171.2900  140.1120 O   0  0  0  0  0  0  0  0  0  0  0  0
  194.9270  172.2720  141.0360 C   0  0  1  0  0  3  0  0  0  0  0  0
  195.5130  172.8600  138.2340 S   0  0  0  0  0  1  0  0  0  0  0  0
  196.4280  172.2770  141.1380 C   0  0  0  0  0  0  0  0  0  0  0  0
  197.1630  173.4690  141.4320 N   0  0  0  0  0  2  0  0  0  0  0  0
  197.0650  171.2150  140.9020 O   0  0  0  0  0  0  0  0  0  0  0  0
  196.9800  175.6740  140.4520 C   0  0  0  0  0  1  0  0  0  0  0  0
  196.9790  175.3470  142.8010 O   0  0  0  0  0  1  0  0  0  0  0  0
  196.5580  174.7780  141.5990 C   0  0  2  0  0  3  0  0  0  0  0  0
  1 30  1  6  0  0  0
  1  2  1  0  0  0  0
  1 23  1  0  0  0  0
  3  2  2  0  0  0  0
  4  5  1  1  0  0  0
  6  4  1  0  0  0  0
  7  2  1  6  0  0  0
  7  6  1  0  0  0  0
  7  4  1  0  0  0  0
  8  4  1  0  0  0  0
  8  9  1  0  0  0  0
 11  9  1  0  0  0  0
 11 12  1  0  0  0  0
 12 10  2  0  0  0  0
 13 14  1  0  0  0  0
 14 17  1  0  0  0  0
 15 21  2  0  0  0  0
 15 19  1  0  0  0  0
 16 14  2  0  0  0  0
 16 22  1  0  0  0  0
 17 20  2  0  0  0  0
 18 20  1  0  0  0  0
 18 12  1  0  0  0  0
 19 16  1  0  0  0  0
 21 13  1  0  0  0  0
 22 18  2  0  0  0  0
 23 27  1  6  0  0  0
 23 24  1  0  0  0  0
 24 26  1  0  0  0  0
 26 25  1  0  0  0  0
 27 29  1  0  0  0  0
 28 29  1  0  0  0  0
 31 30  1  0  0  0  0
 32 31  1  0  0  0  0
 33 32  1  0  0  0  0
 34 37  1  0  0  0  0
 34 33  1  0  0  0  0
 35 37  1  0  0  0  0
 36 34  2  0  0  0  0
 37 39  1  0  0  0  0
 39 40  1  0  0  0  0
 39 38  2  0  0  0  0
 40 41  1  0  0  0  0
 41 44  1  6  0  0  0
 41 42  1  0  0  0  0
 41 43  1  0  0  0  0
 42 43  1  0  0  0  0
 43 45  1  6  0  0  0
 45 46  1  0  0  0  0
 46 50  1  0  0  0  0
 47 45  2  0  0  0  0
 50 48  1  6  0  0  0
 50 49  1  0  0  0  0
M  END
>  <MODEL>
9

>  <REMARK>
 VINA RESULT:      -5.4      2.476      7.072
  Name = 
  21 active torsions:
  status: ('A' for Active; 'I' for Inactive)
    1  A    between atoms: C_2  and  C_17
    2  A    between atoms: C_3  and  C_46
    3  A    between atoms: C_7  and  C_31
    4  A    between atoms: C_7  and  O_32
    5  A    between atoms: C_8  and  O_32
    6  A    between atoms: C_8  and  C_36
    7  A    between atoms: C_8  and  C_42
    8  A    between atoms: C_9  and  C_17
    9  A    between atoms: C_9  and  N_19
   10  A    between atoms: C_13  and  C_34
   11  A    between atoms: N_20  and  C_24
   12  A    between atoms: C_21  and  C_42
   13  A    between atoms: C_23  and  C_37
   14  A    between atoms: C_26  and  C_44
   15  A    between atoms: N_29  and  C_43
   16  A    between atoms: C_30  and  O_47
   17  A    between atoms: C_31  and  C_34
   18  A    between atoms: C_36  and  O_41
   19  A    between atoms: C_36  and  O_47
   20  A    between atoms: C_40  and  O_41
   21  A    between atoms: C_43  and  C_44
                            x       y       z     vdW  Elec       q    Type
                         _______ _______ _______ _____ _____    ______ ____

>  <TORSDO>
F 21

$$$$
