=
 OpenBabel11062421563D

 37 40  0  0  1  0  0  0  0  0999 V2000
  187.2790  176.8480  142.3530 C   0  0  2  0  0  0  0  0  0  0  0  0
  191.5090  175.4670  143.7410 C   0  0  1  0  0  0  0  0  0  0  0  0
  192.1410  173.2480  142.5790 C   0  0  0  0  0  1  0  0  0  0  0  0
  191.8170  174.8750  144.9550 F   0  0  0  0  0  0  0  0  0  0  0  0
  184.8420  178.3160  140.4640 O   0  0  0  0  0  1  0  0  0  0  0  0
  188.2180  177.2990  143.3350 O   0  0  0  0  0  0  0  0  0  0  0  0
  185.6480  178.4980  141.5890 C   0  0  1  0  0  3  0  0  0  0  0  0
  191.1480  174.3610  142.7330 C   0  0  0  0  0  0  0  0  0  0  0  0
  189.0270  175.4490  142.3020 C   0  0  0  0  0  0  0  0  0  0  0  0
  185.9480  176.5210  142.9950 C   0  0  0  0  0  2  0  0  0  0  0  0
  187.8810  175.6530  141.7390 N   0  0  0  0  0  0  0  0  0  0  0  0
  185.0610  177.7300  142.7630 C   0  0  1  0  0  3  0  0  0  0  0  0
  189.9870  174.3680  142.0160 C   0  0  0  0  0  0  0  0  0  0  0  0
  189.2900  176.4360  143.2820 C   0  0  0  0  0  0  0  0  0  0  0  0
  190.4080  176.4810  143.9880 C   0  0  0  0  0  3  0  0  0  0  0  0
  187.0290  177.9240  141.3140 C   0  0  0  0  0  2  0  0  0  0  0  0
  189.0090  172.2590  141.3530 N   0  0  0  0  0  1  0  0  0  0  0  0
  189.6440  173.3310  141.0080 C   0  0  0  0  0  0  0  0  0  0  0  0
  190.1250  173.4420  139.6720 N   0  0  0  0  0  2  0  0  0  0  0  0
  184.5340  178.0340  145.2110 N   0  0  0  0  0  2  0  0  0  0  0  0
  185.3650  179.8010  143.9320 O   0  0  0  0  0  0  0  0  0  0  0  0
  185.0030  178.5930  143.9850 C   0  0  0  0  0  0  0  0  0  0  0  0
  184.4620  178.8140  146.4360 C   0  0  0  0  0  2  0  0  0  0  0  0
  186.6680  178.4740  147.8130 N   0  0  0  0  0  0  0  0  0  0  0  0
  185.6920  178.6250  147.2070 C   0  0  0  0  0  0  0  0  0  0  0  0
  192.7450  176.2040  143.2280 C   0  0  0  0  0  2  0  0  0  0  0  0
  193.5630  176.6110  144.2890 O   0  0  0  0  0  0  0  0  0  0  0  0
  194.4230  175.5310  144.5120 C   0  0  1  0  0  3  0  0  0  0  0  0
  195.6740  173.3030  143.0020 N   0  0  0  0  0  1  0  0  0  0  0  0
  195.5650  175.5960  143.6040 N   0  0  0  0  0  0  0  0  0  0  0  0
  196.0760  174.5210  142.8510 C   0  0  0  0  0  0  0  0  0  0  0  0
  197.5270  176.2610  142.4290 C   0  0  0  0  0  3  0  0  0  0  0  0
  197.2670  174.8480  142.1690 N   0  0  0  0  0  0  0  0  0  0  0  0
  196.4520  176.7330  143.4290 C   0  0  0  0  0  3  0  0  0  0  0  0
  194.8760  175.5130  145.9360 C   0  0  0  0  0  0  0  0  0  0  0  0
  195.7600  174.6980  146.3130 O   0  0  0  0  0  0  0  0  0  0  0  0
  194.3030  176.3840  146.8530 O   0  0  0  0  0  1  0  0  0  0  0  0
  1 16  1  6  0  0  0
  1 10  1  0  0  0  0
  1  6  1  0  0  0  0
  2 15  1  0  0  0  0
  2  4  1  1  0  0  0
  3  8  1  0  0  0  0
  7  5  1  6  0  0  0
  7 12  1  0  0  0  0
  8  2  1  0  0  0  0
  9 14  1  0  0  0  0
 11  9  2  0  0  0  0
 11  1  1  0  0  0  0
 12 10  1  0  0  0  0
 12 22  1  1  0  0  0
 13  9  1  0  0  0  0
 13  8  2  0  0  0  0
 14  6  1  0  0  0  0
 14 15  2  0  0  0  0
 16  7  1  0  0  0  0
 18 17  1  0  0  0  0
 18 13  1  0  0  0  0
 19 18  2  0  0  0  0
 20 23  1  0  0  0  0
 21 22  2  0  0  0  0
 22 20  1  0  0  0  0
 23 25  1  0  0  0  0
 25 24  3  0  0  0  0
 26  2  1  0  0  0  0
 26 27  1  0  0  0  0
 28 27  1  1  0  0  0
 28 35  1  0  0  0  0
 30 28  1  0  0  0  0
 31 29  1  0  0  0  0
 31 30  1  0  0  0  0
 32 34  2  0  0  0  0
 33 32  1  0  0  0  0
 33 31  2  0  0  0  0
 34 30  1  0  0  0  0
 35 36  2  0  0  0  0
 35 37  1  0  0  0  0
M  END
>  <MODEL>
1

>  <REMARK>
 VINA RESULT:      -7.2      0.000      0.000
  Name = 
  9 active torsions:
  status: ('A' for Active; 'I' for Inactive)
    1  A    between atoms: N_4  and  C_31
    2  A    between atoms: C_5  and  C_35
    3  A    between atoms: N_9  and  C_13
    4  A    between atoms: C_13  and  C_24
    5  A    between atoms: C_20  and  C_29
    6  A    between atoms: C_25  and  C_31
    7  A    between atoms: C_27  and  C_30
    8  A    between atoms: C_31  and  O_36
    9  A    between atoms: C_35  and  O_36
                            x       y       z     vdW  Elec       q    Type
                         _______ _______ _______ _____ _____    ______ ____

>  <TORSDO>
F 9

$$$$
=
 OpenBabel11062421563D

 37 40  0  0  1  0  0  0  0  0999 V2000
  187.6210  176.6440  143.2100 C   0  0  2  0  0  0  0  0  0  0  0  0
  191.0530  175.0540  145.9350 C   0  0  1  0  0  0  0  0  0  0  0  0
  192.0230  172.8710  144.9540 C   0  0  0  0  0  1  0  0  0  0  0  0
  190.8970  174.3980  147.1450 F   0  0  0  0  0  0  0  0  0  0  0  0
  186.0440  178.2790  140.6610 O   0  0  0  0  0  1  0  0  0  0  0  0
  188.1540  177.0170  144.4850 O   0  0  0  0  0  0  0  0  0  0  0  0
  186.3980  178.3820  142.0070 C   0  0  1  0  0  3  0  0  0  0  0  0
  191.0580  174.0090  144.8050 C   0  0  0  0  0  0  0  0  0  0  0  0
  189.2490  175.1880  143.7080 C   0  0  0  0  0  0  0  0  0  0  0  0
  186.1430  176.3330  143.3180 C   0  0  0  0  0  2  0  0  0  0  0  0
  188.3840  175.4570  142.7860 N   0  0  0  0  0  0  0  0  0  0  0  0
  185.4170  177.5830  142.8520 C   0  0  1  0  0  3  0  0  0  0  0  0
  190.2300  174.0890  143.7240 C   0  0  0  0  0  0  0  0  0  0  0  0
  189.1610  176.1200  144.7700 C   0  0  0  0  0  0  0  0  0  0  0  0
  189.9540  176.0940  145.8290 C   0  0  0  0  0  3  0  0  0  0  0  0
  187.7760  177.7730  142.2110 C   0  0  0  0  0  2  0  0  0  0  0  0
  190.9840  173.3220  141.5590 N   0  0  0  0  0  2  0  0  0  0  0  0
  190.2530  173.1110  142.6040 C   0  0  0  0  0  0  0  0  0  0  0  0
  189.3720  171.9920  142.6110 N   0  0  0  0  0  1  0  0  0  0  0  0
  184.7570  177.7500  145.2810 N   0  0  0  0  0  2  0  0  0  0  0  0
  184.7050  179.6240  143.8880 O   0  0  0  0  0  0  0  0  0  0  0  0
  184.9410  178.3910  144.0180 C   0  0  0  0  0  0  0  0  0  0  0  0
  184.3060  178.4790  146.4550 C   0  0  0  0  0  2  0  0  0  0  0  0
  186.3610  178.9940  148.0020 N   0  0  0  0  0  0  0  0  0  0  0  0
  185.4520  178.7650  147.3210 C   0  0  0  0  0  0  0  0  0  0  0  0
  192.4030  175.7710  145.9370 C   0  0  0  0  0  2  0  0  0  0  0  0
  192.7200  176.2470  144.6590 O   0  0  0  0  0  0  0  0  0  0  0  0
  193.9980  175.7460  144.3970 C   0  0  1  0  0  3  0  0  0  0  0  0
  195.4170  173.3240  143.4310 N   0  0  0  0  0  1  0  0  0  0  0  0
  194.0730  175.2380  143.0290 N   0  0  0  0  0  0  0  0  0  0  0  0
  194.6990  174.0410  142.6320 C   0  0  0  0  0  0  0  0  0  0  0  0
  194.0130  175.0140  140.6590 C   0  0  0  0  0  3  0  0  0  0  0  0
  194.7310  173.8790  141.2310 N   0  0  0  0  0  0  0  0  0  0  0  0
  193.6460  175.9440  141.8330 C   0  0  0  0  0  3  0  0  0  0  0  0
  195.0290  176.8010  144.6300 C   0  0  0  0  0  0  0  0  0  0  0  0
  196.0920  176.8160  143.9520 O   0  0  0  0  0  0  0  0  0  0  0  0
  194.8260  177.7580  145.6150 O   0  0  0  0  0  1  0  0  0  0  0  0
  1 16  1  6  0  0  0
  1 10  1  0  0  0  0
  1  6  1  0  0  0  0
  2 26  1  0  0  0  0
  2  4  1  1  0  0  0
  6 14  1  0  0  0  0
  7  5  1  6  0  0  0
  7 16  1  0  0  0  0
  7 12  1  0  0  0  0
  8  3  1  0  0  0  0
  8  2  1  0  0  0  0
  9 13  1  0  0  0  0
  9 14  1  0  0  0  0
 11  1  1  0  0  0  0
 11  9  2  0  0  0  0
 12 10  1  0  0  0  0
 12 22  1  1  0  0  0
 13  8  2  0  0  0  0
 14 15  2  0  0  0  0
 15  2  1  0  0  0  0
 17 18  2  0  0  0  0
 18 19  1  0  0  0  0
 18 13  1  0  0  0  0
 20 23  1  0  0  0  0
 21 22  2  0  0  0  0
 22 20  1  0  0  0  0
 23 25  1  0  0  0  0
 25 24  3  0  0  0  0
 27 26  1  0  0  0  0
 28 35  1  6  0  0  0
 28 27  1  0  0  0  0
 30 28  1  0  0  0  0
 31 30  1  0  0  0  0
 31 29  1  0  0  0  0
 32 33  1  0  0  0  0
 32 34  2  0  0  0  0
 33 31  2  0  0  0  0
 34 30  1  0  0  0  0
 35 37  1  0  0  0  0
 36 35  2  0  0  0  0
M  END
>  <MODEL>
2

>  <REMARK>
 VINA RESULT:      -7.2      1.551      1.862
  Name = 
  9 active torsions:
  status: ('A' for Active; 'I' for Inactive)
    1  A    between atoms: N_4  and  C_31
    2  A    between atoms: C_5  and  C_35
    3  A    between atoms: N_9  and  C_13
    4  A    between atoms: C_13  and  C_24
    5  A    between atoms: C_20  and  C_29
    6  A    between atoms: C_25  and  C_31
    7  A    between atoms: C_27  and  C_30
    8  A    between atoms: C_31  and  O_36
    9  A    between atoms: C_35  and  O_36
                            x       y       z     vdW  Elec       q    Type
                         _______ _______ _______ _____ _____    ______ ____

>  <TORSDO>
F 9

$$$$
=
 OpenBabel11062421563D

 37 40  0  0  1  0  0  0  0  0999 V2000
  187.5210  176.7190  142.0950 C   0  0  2  0  0  0  0  0  0  0  0  0
  191.8780  175.6780  143.3860 C   0  0  1  0  0  0  0  0  0  0  0  0
  192.5850  173.4120  142.3680 C   0  0  0  0  0  1  0  0  0  0  0  0
  192.2690  175.2010  144.6260 F   0  0  0  0  0  0  0  0  0  0  0  0
  184.9270  177.9010  140.2160 O   0  0  0  0  0  1  0  0  0  0  0  0
  188.4730  177.2950  142.9960 O   0  0  0  0  0  0  0  0  0  0  0  0
  185.7680  178.2130  141.2850 C   0  0  1  0  0  3  0  0  0  0  0  0
  191.5370  174.4790  142.4830 C   0  0  0  0  0  0  0  0  0  0  0  0
  189.3420  175.4150  142.0690 C   0  0  0  0  0  0  0  0  0  0  0  0
  186.2390  176.3720  142.8220 C   0  0  0  0  0  2  0  0  0  0  0  0
  188.1640  175.5120  141.5470 N   0  0  0  0  0  0  0  0  0  0  0  0
  185.2750  177.5100  142.5400 C   0  0  1  0  0  3  0  0  0  0  0  0
  190.3480  174.3680  141.8220 C   0  0  0  0  0  0  0  0  0  0  0  0
  189.5900  176.4890  142.9580 C   0  0  0  0  0  0  0  0  0  0  0  0
  190.7330  176.6480  143.6060 C   0  0  0  0  0  3  0  0  0  0  0  0
  187.1660  177.6940  140.9900 C   0  0  0  0  0  2  0  0  0  0  0  0
  189.4940  172.1520  141.3730 N   0  0  0  0  0  1  0  0  0  0  0  0
  190.0230  173.2380  140.9130 C   0  0  0  0  0  0  0  0  0  0  0  0
  190.4100  173.2850  139.5430 N   0  0  0  0  0  2  0  0  0  0  0  0
  184.6820  178.0170  144.9390 N   0  0  0  0  0  2  0  0  0  0  0  0
  185.6460  179.6440  143.5680 O   0  0  0  0  0  0  0  0  0  0  0  0
  185.2200  178.4620  143.6940 C   0  0  0  0  0  0  0  0  0  0  0  0
  184.6080  178.8880  146.1010 C   0  0  0  0  0  2  0  0  0  0  0  0
  185.9720  177.8300  148.0760 N   0  0  0  0  0  0  0  0  0  0  0  0
  185.3710  178.2960  147.2020 C   0  0  0  0  0  0  0  0  0  0  0  0
  193.0470  176.4380  142.7610 C   0  0  0  0  0  2  0  0  0  0  0  0
  194.1090  175.5740  142.4700 O   0  0  0  0  0  0  0  0  0  0  0  0
  195.1400  175.9730  143.3250 C   0  0  1  0  0  3  0  0  0  0  0  0
  194.9970  175.4810  146.2490 N   0  0  0  0  0  1  0  0  0  0  0  0
  195.6580  174.8240  144.0660 N   0  0  0  0  0  0  0  0  0  0  0  0
  195.4990  174.6010  145.4470 C   0  0  0  0  0  0  0  0  0  0  0  0
  196.8480  172.8740  144.7350 C   0  0  0  0  0  3  0  0  0  0  0  0
  196.2220  173.4810  145.9060 N   0  0  0  0  0  0  0  0  0  0  0  0
  196.5390  173.7970  143.5390 C   0  0  0  0  0  3  0  0  0  0  0  0
  196.2300  176.6410  142.5510 C   0  0  0  0  0  0  0  0  0  0  0  0
  196.1610  176.7230  141.2950 O   0  0  0  0  0  0  0  0  0  0  0  0
  197.3340  177.1530  143.2170 O   0  0  0  0  0  1  0  0  0  0  0  0
  1 16  1  6  0  0  0
  1 10  1  0  0  0  0
  1  6  1  0  0  0  0
  2 15  1  0  0  0  0
  2  4  1  1  0  0  0
  3  8  1  0  0  0  0
  7  5  1  6  0  0  0
  7 12  1  0  0  0  0
  8  2  1  0  0  0  0
  9 14  1  0  0  0  0
 11  9  2  0  0  0  0
 11  1  1  0  0  0  0
 12 10  1  0  0  0  0
 12 22  1  1  0  0  0
 13  9  1  0  0  0  0
 13  8  2  0  0  0  0
 14  6  1  0  0  0  0
 14 15  2  0  0  0  0
 16  7  1  0  0  0  0
 18 17  1  0  0  0  0
 18 13  1  0  0  0  0
 19 18  2  0  0  0  0
 20 23  1  0  0  0  0
 21 22  2  0  0  0  0
 22 20  1  0  0  0  0
 23 25  1  0  0  0  0
 25 24  3  0  0  0  0
 26  2  1  0  0  0  0
 27 26  1  0  0  0  0
 28 27  1  6  0  0  0
 28 30  1  0  0  0  0
 30 31  1  0  0  0  0
 31 33  2  0  0  0  0
 31 29  1  0  0  0  0
 32 33  1  0  0  0  0
 34 30  1  0  0  0  0
 34 32  2  0  0  0  0
 35 37  1  0  0  0  0
 35 28  1  0  0  0  0
 36 35  2  0  0  0  0
M  END
>  <MODEL>
3

>  <REMARK>
 VINA RESULT:      -7.1      1.390      1.989
  Name = 
  9 active torsions:
  status: ('A' for Active; 'I' for Inactive)
    1  A    between atoms: N_4  and  C_31
    2  A    between atoms: C_5  and  C_35
    3  A    between atoms: N_9  and  C_13
    4  A    between atoms: C_13  and  C_24
    5  A    between atoms: C_20  and  C_29
    6  A    between atoms: C_25  and  C_31
    7  A    between atoms: C_27  and  C_30
    8  A    between atoms: C_31  and  O_36
    9  A    between atoms: C_35  and  O_36
                            x       y       z     vdW  Elec       q    Type
                         _______ _______ _______ _____ _____    ______ ____

>  <TORSDO>
F 9

$$$$
=
 OpenBabel11062421563D

 37 40  0  0  1  0  0  0  0  0999 V2000
  187.8420  176.0750  143.1050 C   0  0  2  0  0  0  0  0  0  0  0  0
  191.0090  172.8140  144.1310 C   0  0  1  0  0  0  0  0  0  0  0  0
  191.5920  171.4490  142.0170 C   0  0  0  0  0  1  0  0  0  0  0  0
  190.7670  171.6200  144.7900 F   0  0  0  0  0  0  0  0  0  0  0  0
  186.5140  179.0410  142.0550 O   0  0  0  0  0  1  0  0  0  0  0  0
  188.4490  175.6010  144.3110 O   0  0  0  0  0  0  0  0  0  0  0  0
  186.9000  178.3280  143.1900 C   0  0  1  0  0  3  0  0  0  0  0  0
  190.8250  172.5880  142.6200 C   0  0  0  0  0  0  0  0  0  0  0  0
  189.2160  174.3980  142.5470 C   0  0  0  0  0  0  0  0  0  0  0  0
  186.3340  175.9490  143.1780 C   0  0  0  0  0  2  0  0  0  0  0  0
  188.3920  175.2430  142.0220 N   0  0  0  0  0  0  0  0  0  0  0  0
  185.8160  177.3260  143.5540 C   0  0  1  0  0  3  0  0  0  0  0  0
  190.0040  173.3630  141.8540 C   0  0  0  0  0  0  0  0  0  0  0  0
  189.2990  174.5790  143.9490 C   0  0  0  0  0  0  0  0  0  0  0  0
  190.0940  173.8640  144.7300 C   0  0  0  0  0  3  0  0  0  0  0  0
  188.1630  177.5400  142.8810 C   0  0  0  0  0  2  0  0  0  0  0  0
  190.7060  173.6950  139.5650 N   0  0  0  0  0  2  0  0  0  0  0  0
  189.8480  173.1850  140.3860 C   0  0  0  0  0  0  0  0  0  0  0  0
  188.6820  172.5600  139.8590 N   0  0  0  0  0  1  0  0  0  0  0  0
  185.1650  178.6580  145.5950 N   0  0  0  0  0  2  0  0  0  0  0  0
  185.5200  176.3540  145.7260 O   0  0  0  0  0  0  0  0  0  0  0  0
  185.4970  177.3960  145.0150 C   0  0  0  0  0  0  0  0  0  0  0  0
  184.8360  178.7950  147.0050 C   0  0  0  0  0  2  0  0  0  0  0  0
  187.0390  179.1130  148.3920 N   0  0  0  0  0  0  0  0  0  0  0  0
  186.0670  178.9730  147.7770 C   0  0  0  0  0  0  0  0  0  0  0  0
  192.4580  173.2280  144.3850 C   0  0  0  0  0  2  0  0  0  0  0  0
  192.6420  174.5920  144.1270 O   0  0  0  0  0  0  0  0  0  0  0  0
  193.6150  175.0020  145.0430 C   0  0  1  0  0  3  0  0  0  0  0  0
  196.3180  174.1350  145.9110 N   0  0  0  0  0  1  0  0  0  0  0  0
  194.8880  175.2290  144.3640 N   0  0  0  0  0  0  0  0  0  0  0  0
  196.1390  174.7320  144.7790 C   0  0  0  0  0  0  0  0  0  0  0  0
  196.6210  176.0530  142.9540 C   0  0  0  0  0  3  0  0  0  0  0  0
  197.2080  175.2260  144.0040 N   0  0  0  0  0  0  0  0  0  0  0  0
  195.1060  176.1160  143.2340 C   0  0  0  0  0  3  0  0  0  0  0  0
  193.1680  176.2350  145.7600 C   0  0  0  0  0  0  0  0  0  0  0  0
  192.0730  176.7830  145.4630 O   0  0  0  0  0  0  0  0  0  0  0  0
  193.9740  176.7900  146.7440 O   0  0  0  0  0  1  0  0  0  0  0  0
  1 16  1  6  0  0  0
  1 10  1  0  0  0  0
  1  6  1  0  0  0  0
  2 26  1  0  0  0  0
  2 15  1  0  0  0  0
  2  4  1  1  0  0  0
  3  8  1  0  0  0  0
  7  5  1  6  0  0  0
  7 12  1  0  0  0  0
  8  2  1  0  0  0  0
  9 14  1  0  0  0  0
 10 12  1  0  0  0  0
 11  9  2  0  0  0  0
 11  1  1  0  0  0  0
 12 22  1  1  0  0  0
 13  9  1  0  0  0  0
 13  8  2  0  0  0  0
 14  6  1  0  0  0  0
 14 15  2  0  0  0  0
 16  7  1  0  0  0  0
 17 18  2  0  0  0  0
 18 13  1  0  0  0  0
 19 18  1  0  0  0  0
 20 23  1  0  0  0  0
 22 20  1  0  0  0  0
 22 21  2  0  0  0  0
 23 25  1  0  0  0  0
 25 24  3  0  0  0  0
 27 26  1  0  0  0  0
 28 27  1  6  0  0  0
 28 35  1  0  0  0  0
 30 31  1  0  0  0  0
 30 28  1  0  0  0  0
 31 29  1  0  0  0  0
 32 34  2  0  0  0  0
 32 33  1  0  0  0  0
 33 31  2  0  0  0  0
 34 30  1  0  0  0  0
 35 37  1  0  0  0  0
 36 35  2  0  0  0  0
M  END
>  <MODEL>
4

>  <REMARK>
 VINA RESULT:      -7.1      1.708      2.040
  Name = 
  9 active torsions:
  status: ('A' for Active; 'I' for Inactive)
    1  A    between atoms: N_4  and  C_31
    2  A    between atoms: C_5  and  C_35
    3  A    between atoms: N_9  and  C_13
    4  A    between atoms: C_13  and  C_24
    5  A    between atoms: C_20  and  C_29
    6  A    between atoms: C_25  and  C_31
    7  A    between atoms: C_27  and  C_30
    8  A    between atoms: C_31  and  O_36
    9  A    between atoms: C_35  and  O_36
                            x       y       z     vdW  Elec       q    Type
                         _______ _______ _______ _____ _____    ______ ____

>  <TORSDO>
F 9

$$$$
=
 OpenBabel11062421563D

 37 40  0  0  1  0  0  0  0  0999 V2000
  187.6180  177.2960  145.6750 C   0  0  2  0  0  0  0  0  0  0  0  0
  191.9150  176.4760  144.0640 C   0  0  1  0  0  0  0  0  0  0  0  0
  193.5580  176.1860  146.0350 C   0  0  0  0  0  1  0  0  0  0  0  0
  192.7790  177.4160  143.5300 F   0  0  0  0  0  0  0  0  0  0  0  0
  184.4800  176.7130  146.8880 O   0  0  0  0  0  1  0  0  0  0  0  0
  188.2280  177.2920  144.3800 O   0  0  0  0  0  0  0  0  0  0  0  0
  185.1950  176.9940  145.7230 C   0  0  1  0  0  3  0  0  0  0  0  0
  192.1450  176.4030  145.5850 C   0  0  0  0  0  0  0  0  0  0  0  0
  189.7930  176.8450  145.9610 C   0  0  0  0  0  0  0  0  0  0  0  0
  186.9850  178.6420  145.9640 C   0  0  0  0  0  2  0  0  0  0  0  0
  188.6990  177.0020  146.6310 N   0  0  0  0  0  0  0  0  0  0  0  0
  185.5060  178.4820  145.6660 C   0  0  1  0  0  3  0  0  0  0  0  0
  191.1330  176.5380  146.4900 C   0  0  0  0  0  0  0  0  0  0  0  0
  189.5600  177.0000  144.5730 C   0  0  0  0  0  0  0  0  0  0  0  0
  190.5050  176.8600  143.6570 C   0  0  0  0  0  3  0  0  0  0  0  0
  186.5210  176.2530  145.7580 C   0  0  0  0  0  2  0  0  0  0  0  0
  191.1910  175.2920  148.5610 N   0  0  0  0  0  2  0  0  0  0  0  0
  191.3340  176.4270  147.9590 C   0  0  0  0  0  0  0  0  0  0  0  0
  191.5560  177.5960  148.7430 N   0  0  0  0  0  1  0  0  0  0  0  0
  184.6070  178.1830  143.3280 N   0  0  0  0  0  2  0  0  0  0  0  0
  185.3760  180.2610  144.0650 O   0  0  0  0  0  0  0  0  0  0  0  0
  185.1680  179.0430  144.3200 C   0  0  0  0  0  0  0  0  0  0  0  0
  184.2480  178.6660  142.0040 C   0  0  0  0  0  2  0  0  0  0  0  0
  186.0660  177.9060  140.2740 N   0  0  0  0  0  0  0  0  0  0  0  0
  185.2620  178.2390  141.0380 C   0  0  0  0  0  0  0  0  0  0  0  0
  192.2410  175.1100  143.4600 C   0  0  0  0  0  2  0  0  0  0  0  0
  192.0510  175.1180  142.0730 O   0  0  0  0  0  0  0  0  0  0  0  0
  191.6660  173.8120  141.7570 C   0  0  1  0  0  3  0  0  0  0  0  0
  190.1740  171.5420  142.9560 N   0  0  0  0  0  1  0  0  0  0  0  0
  190.2190  173.6630  141.8900 N   0  0  0  0  0  0  0  0  0  0  0  0
  189.5600  172.5980  142.5350 C   0  0  0  0  0  0  0  0  0  0  0  0
  187.8590  173.8790  141.6540 C   0  0  0  0  0  3  0  0  0  0  0  0
  188.1580  172.6530  142.3870 N   0  0  0  0  0  0  0  0  0  0  0  0
  189.2130  174.5030  141.2630 C   0  0  0  0  0  3  0  0  0  0  0  0
  192.1120  173.4570  140.3760 C   0  0  0  0  0  0  0  0  0  0  0  0
  192.9580  174.1730  139.7760 O   0  0  0  0  0  1  0  0  0  0  0  0
  191.5750  172.3450  139.7420 O   0  0  0  0  0  0  0  0  0  0  0  0
  1 16  1  1  0  0  0
  1 10  1  0  0  0  0
  1 11  1  0  0  0  0
  2  4  1  6  0  0  0
  2  8  1  0  0  0  0
  6 14  1  0  0  0  0
  6  1  1  0  0  0  0
  7 16  1  0  0  0  0
  7  5  1  1  0  0  0
  8  3  1  0  0  0  0
  8 13  2  0  0  0  0
  9 13  1  0  0  0  0
  9 11  2  0  0  0  0
 12 22  1  6  0  0  0
 12  7  1  0  0  0  0
 12 10  1  0  0  0  0
 13 18  1  0  0  0  0
 14  9  1  0  0  0  0
 15  2  1  0  0  0  0
 15 14  2  0  0  0  0
 18 17  2  0  0  0  0
 18 19  1  0  0  0  0
 20 22  1  0  0  0  0
 21 22  2  0  0  0  0
 23 20  1  0  0  0  0
 24 25  3  0  0  0  0
 25 23  1  0  0  0  0
 26  2  1  0  0  0  0
 27 26  1  0  0  0  0
 28 35  1  6  0  0  0
 28 30  1  0  0  0  0
 28 27  1  0  0  0  0
 30 31  1  0  0  0  0
 31 29  1  0  0  0  0
 32 33  1  0  0  0  0
 33 31  2  0  0  0  0
 34 32  2  0  0  0  0
 34 30  1  0  0  0  0
 36 35  1  0  0  0  0
 37 35  2  0  0  0  0
M  END
>  <MODEL>
5

>  <REMARK>
 VINA RESULT:      -7.0      3.060      5.573
  Name = 
  9 active torsions:
  status: ('A' for Active; 'I' for Inactive)
    1  A    between atoms: N_4  and  C_31
    2  A    between atoms: C_5  and  C_35
    3  A    between atoms: N_9  and  C_13
    4  A    between atoms: C_13  and  C_24
    5  A    between atoms: C_20  and  C_29
    6  A    between atoms: C_25  and  C_31
    7  A    between atoms: C_27  and  C_30
    8  A    between atoms: C_31  and  O_36
    9  A    between atoms: C_35  and  O_36
                            x       y       z     vdW  Elec       q    Type
                         _______ _______ _______ _____ _____    ______ ____

>  <TORSDO>
F 9

$$$$
=
 OpenBabel11062421563D

 37 40  0  0  1  0  0  0  0  0999 V2000
  191.9480  173.6830  143.2300 C   0  0  2  0  0  0  0  0  0  0  0  0
  188.9270  177.1770  142.6050 C   0  0  1  0  0  0  0  0  0  0  0  0
  187.1880  176.5330  140.8080 C   0  0  0  0  0  1  0  0  0  0  0  0
  189.1660  178.3460  141.9020 F   0  0  0  0  0  0  0  0  0  0  0  0
  193.2940  170.7780  144.4170 O   0  0  0  0  0  1  0  0  0  0  0  0
  191.8480  175.0290  143.7060 O   0  0  0  0  0  0  0  0  0  0  0  0
  193.3010  172.1640  144.5820 C   0  0  1  0  0  3  0  0  0  0  0  0
  188.3720  176.1220  141.6310 C   0  0  0  0  0  0  0  0  0  0  0  0
  190.1370  174.5960  142.2800 C   0  0  0  0  0  0  0  0  0  0  0  0
  193.2650  173.4660  142.5130 C   0  0  0  0  0  2  0  0  0  0  0  0
  190.8090  173.4920  142.3170 N   0  0  0  0  0  0  0  0  0  0  0  0
  194.1840  172.7960  143.5180 C   0  0  1  0  0  3  0  0  0  0  0  0
  188.9190  174.8790  141.5020 C   0  0  0  0  0  0  0  0  0  0  0  0
  190.7240  175.5710  143.1230 C   0  0  0  0  0  0  0  0  0  0  0  0
  190.2190  176.7820  143.2950 C   0  0  0  0  0  3  0  0  0  0  0  0
  191.8920  172.6990  144.3820 C   0  0  0  0  0  2  0  0  0  0  0  0
  187.6850  172.8450  141.0720 N   0  0  0  0  0  1  0  0  0  0  0  0
  188.3670  173.8350  140.5980 C   0  0  0  0  0  0  0  0  0  0  0  0
  188.6940  173.8410  139.2110 N   0  0  0  0  0  2  0  0  0  0  0  0
  195.2370  175.0890  143.5490 N   0  0  0  0  0  2  0  0  0  0  0  0
  195.8010  173.4850  145.1490 O   0  0  0  0  0  0  0  0  0  0  0  0
  195.1210  173.7900  144.1300 C   0  0  0  0  0  0  0  0  0  0  0  0
  196.1210  176.1040  144.0990 C   0  0  0  0  0  2  0  0  0  0  0  0
  194.7630  177.6440  145.7310 N   0  0  0  0  0  0  0  0  0  0  0  0
  195.3650  176.9650  145.0110 C   0  0  0  0  0  0  0  0  0  0  0  0
  187.8700  177.4550  143.6730 C   0  0  0  0  0  2  0  0  0  0  0  0
  188.4590  177.9230  144.8520 O   0  0  0  0  0  0  0  0  0  0  0  0
  188.1740  176.9450  145.8090 C   0  0  1  0  0  3  0  0  0  0  0  0
  189.3590  174.2960  146.4320 N   0  0  0  0  0  1  0  0  0  0  0  0
  189.3590  176.6620  146.6150 N   0  0  0  0  0  0  0  0  0  0  0  0
  189.9260  175.3890  146.8210 C   0  0  0  0  0  0  0  0  0  0  0  0
  191.1800  176.8000  148.1430 C   0  0  0  0  0  3  0  0  0  0  0  0
  190.9830  175.4060  147.7540 N   0  0  0  0  0  0  0  0  0  0  0  0
  190.0670  177.6140  147.4530 C   0  0  0  0  0  3  0  0  0  0  0  0
  187.0340  177.3780  146.6730 C   0  0  0  0  0  0  0  0  0  0  0  0
  186.6240  178.5690  146.6380 O   0  0  0  0  0  0  0  0  0  0  0  0
  186.4370  176.4680  147.5340 O   0  0  0  0  0  1  0  0  0  0  0  0
  1 10  1  6  0  0  0
  1  6  1  0  0  0  0
  1 16  1  0  0  0  0
  2  4  1  6  0  0  0
  2 15  1  0  0  0  0
  2 26  1  0  0  0  0
  3  8  1  0  0  0  0
  7  5  1  6  0  0  0
  8  2  1  0  0  0  0
  9 11  2  0  0  0  0
  9 14  1  0  0  0  0
 10 12  1  0  0  0  0
 11  1  1  0  0  0  0
 12 22  1  1  0  0  0
 12  7  1  0  0  0  0
 13  8  2  0  0  0  0
 13  9  1  0  0  0  0
 14 15  2  0  0  0  0
 14  6  1  0  0  0  0
 16  7  1  0  0  0  0
 18 17  1  0  0  0  0
 18 13  1  0  0  0  0
 19 18  2  0  0  0  0
 20 23  1  0  0  0  0
 20 22  1  0  0  0  0
 22 21  2  0  0  0  0
 23 25  1  0  0  0  0
 25 24  3  0  0  0  0
 26 27  1  0  0  0  0
 28 27  1  6  0  0  0
 28 30  1  0  0  0  0
 28 35  1  0  0  0  0
 29 31  1  0  0  0  0
 30 31  1  0  0  0  0
 30 34  1  0  0  0  0
 31 33  2  0  0  0  0
 33 32  1  0  0  0  0
 34 32  2  0  0  0  0
 35 37  1  0  0  0  0
 36 35  2  0  0  0  0
M  END
>  <MODEL>
6

>  <REMARK>
 VINA RESULT:      -6.8      2.710      7.450
  Name = 
  9 active torsions:
  status: ('A' for Active; 'I' for Inactive)
    1  A    between atoms: N_4  and  C_31
    2  A    between atoms: C_5  and  C_35
    3  A    between atoms: N_9  and  C_13
    4  A    between atoms: C_13  and  C_24
    5  A    between atoms: C_20  and  C_29
    6  A    between atoms: C_25  and  C_31
    7  A    between atoms: C_27  and  C_30
    8  A    between atoms: C_31  and  O_36
    9  A    between atoms: C_35  and  O_36
                            x       y       z     vdW  Elec       q    Type
                         _______ _______ _______ _____ _____    ______ ____

>  <TORSDO>
F 9

$$$$
=
 OpenBabel11062421563D

 37 40  0  0  1  0  0  0  0  0999 V2000
  187.6640  177.2980  145.6520 C   0  0  2  0  0  0  0  0  0  0  0  0
  191.9510  176.3330  144.0980 C   0  0  1  0  0  0  0  0  0  0  0  0
  193.5740  176.0620  146.0890 C   0  0  0  0  0  1  0  0  0  0  0  0
  192.8410  177.2380  143.5440 F   0  0  0  0  0  0  0  0  0  0  0  0
  184.5050  176.8220  146.8570 O   0  0  0  0  0  1  0  0  0  0  0  0
  188.2820  177.2430  144.3630 O   0  0  0  0  0  0  0  0  0  0  0  0
  185.2340  177.0540  145.6900 C   0  0  1  0  0  3  0  0  0  0  0  0
  192.1690  176.2990  145.6210 C   0  0  0  0  0  0  0  0  0  0  0  0
  189.8260  176.8050  145.9670 C   0  0  0  0  0  0  0  0  0  0  0  0
  187.0610  178.6650  145.8980 C   0  0  0  0  0  2  0  0  0  0  0  0
  188.7310  177.0060  146.6240 N   0  0  0  0  0  0  0  0  0  0  0  0
  185.5800  178.5310  145.5930 C   0  0  1  0  0  3  0  0  0  0  0  0
  191.1550  176.4830  146.5150 C   0  0  0  0  0  0  0  0  0  0  0  0
  189.6070  176.9260  144.5730 C   0  0  0  0  0  0  0  0  0  0  0  0
  190.5540  176.7390  143.6690 C   0  0  0  0  0  3  0  0  0  0  0  0
  186.5430  176.2830  145.7570 C   0  0  0  0  0  2  0  0  0  0  0  0
  191.1910  175.2900  148.6180 N   0  0  0  0  0  2  0  0  0  0  0  0
  191.3420  176.4090  147.9880 C   0  0  0  0  0  0  0  0  0  0  0  0
  191.5620  177.5970  148.7430 N   0  0  0  0  0  1  0  0  0  0  0  0
  184.6190  178.2100  143.2830 N   0  0  0  0  0  2  0  0  0  0  0  0
  185.5660  180.2470  143.9190 O   0  0  0  0  0  0  0  0  0  0  0  0
  185.2650  179.0610  144.2290 C   0  0  0  0  0  0  0  0  0  0  0  0
  184.2760  178.6640  141.9450 C   0  0  0  0  0  2  0  0  0  0  0  0
  186.0950  177.8340  140.2480 N   0  0  0  0  0  0  0  0  0  0  0  0
  185.2940  178.2030  140.9990 C   0  0  0  0  0  0  0  0  0  0  0  0
  192.2500  174.9440  143.5350 C   0  0  0  0  0  2  0  0  0  0  0  0
  191.5580  173.9560  144.2440 O   0  0  0  0  0  0  0  0  0  0  0  0
  190.8090  173.2780  143.2770 C   0  0  1  0  0  3  0  0  0  0  0  0
  191.0500  173.1400  140.3220 N   0  0  0  0  0  1  0  0  0  0  0  0
  191.6730  172.4010  142.4900 N   0  0  0  0  0  0  0  0  0  0  0  0
  191.8060  172.4250  141.0880 C   0  0  0  0  0  0  0  0  0  0  0  0
  193.0990  170.6400  141.7590 C   0  0  0  0  0  3  0  0  0  0  0  0
  192.6060  171.3730  140.5970 N   0  0  0  0  0  0  0  0  0  0  0  0
  192.4270  171.2680  142.9970 C   0  0  0  0  0  3  0  0  0  0  0  0
  189.7080  172.5020  143.9220 C   0  0  0  0  0  0  0  0  0  0  0  0
  189.6770  172.3570  145.1730 O   0  0  0  0  0  1  0  0  0  0  0  0
  188.7250  171.9170  143.1340 O   0  0  0  0  0  0  0  0  0  0  0  0
  1 16  1  1  0  0  0
  1 10  1  0  0  0  0
  1 11  1  0  0  0  0
  2  4  1  6  0  0  0
  2  8  1  0  0  0  0
  6 14  1  0  0  0  0
  6  1  1  0  0  0  0
  7 16  1  0  0  0  0
  7  5  1  1  0  0  0
  8  3  1  0  0  0  0
  8 13  2  0  0  0  0
  9 13  1  0  0  0  0
  9 11  2  0  0  0  0
 12 22  1  6  0  0  0
 12  7  1  0  0  0  0
 12 10  1  0  0  0  0
 13 18  1  0  0  0  0
 14  9  1  0  0  0  0
 15  2  1  0  0  0  0
 15 14  2  0  0  0  0
 18 17  2  0  0  0  0
 18 19  1  0  0  0  0
 20 22  1  0  0  0  0
 21 22  2  0  0  0  0
 23 20  1  0  0  0  0
 24 25  3  0  0  0  0
 25 23  1  0  0  0  0
 26  2  1  0  0  0  0
 26 27  1  0  0  0  0
 28 35  1  1  0  0  0
 28 27  1  0  0  0  0
 29 31  1  0  0  0  0
 30 34  1  0  0  0  0
 30 28  1  0  0  0  0
 31 30  1  0  0  0  0
 32 34  2  0  0  0  0
 33 31  2  0  0  0  0
 33 32  1  0  0  0  0
 35 36  1  0  0  0  0
 37 35  2  0  0  0  0
M  END
>  <MODEL>
7

>  <REMARK>
 VINA RESULT:      -6.8      2.864      5.155
  Name = 
  9 active torsions:
  status: ('A' for Active; 'I' for Inactive)
    1  A    between atoms: N_4  and  C_31
    2  A    between atoms: C_5  and  C_35
    3  A    between atoms: N_9  and  C_13
    4  A    between atoms: C_13  and  C_24
    5  A    between atoms: C_20  and  C_29
    6  A    between atoms: C_25  and  C_31
    7  A    between atoms: C_27  and  C_30
    8  A    between atoms: C_31  and  O_36
    9  A    between atoms: C_35  and  O_36
                            x       y       z     vdW  Elec       q    Type
                         _______ _______ _______ _____ _____    ______ ____

>  <TORSDO>
F 9

$$$$
=
 OpenBabel11062421563D

 37 40  0  0  1  0  0  0  0  0999 V2000
  187.5070  176.8320  144.8150 C   0  0  2  0  0  0  0  0  0  0  0  0
  190.8260  173.8430  143.4840 C   0  0  1  0  0  0  0  0  0  0  0  0
  192.7570  173.8420  145.1990 C   0  0  0  0  0  1  0  0  0  0  0  0
  191.7630  174.0550  142.4850 F   0  0  0  0  0  0  0  0  0  0  0  0
  184.7470  178.0630  146.4060 O   0  0  0  0  0  1  0  0  0  0  0  0
  187.7410  176.0360  143.6490 O   0  0  0  0  0  0  0  0  0  0  0  0
  185.1950  177.5180  145.2010 C   0  0  1  0  0  3  0  0  0  0  0  0
  191.4020  174.3570  144.8160 C   0  0  0  0  0  0  0  0  0  0  0  0
  189.4550  175.7670  145.1110 C   0  0  0  0  0  0  0  0  0  0  0  0
  187.3870  178.2960  144.4490 C   0  0  0  0  0  2  0  0  0  0  0  0
  188.6600  176.5990  145.7010 N   0  0  0  0  0  0  0  0  0  0  0  0
  185.8990  178.5940  144.3900 C   0  0  1  0  0  3  0  0  0  0  0  0
  190.7360  175.2420  145.6130 C   0  0  0  0  0  0  0  0  0  0  0  0
  188.9350  175.3800  143.8520 C   0  0  0  0  0  0  0  0  0  0  0  0
  189.5340  174.5120  143.0540 C   0  0  0  0  0  3  0  0  0  0  0  0
  186.2120  176.4270  145.4930 C   0  0  0  0  0  2  0  0  0  0  0  0
  190.7920  175.2380  148.0300 N   0  0  0  0  0  1  0  0  0  0  0  0
  191.2600  175.7130  146.9220 C   0  0  0  0  0  0  0  0  0  0  0  0
  192.1910  176.7890  146.9770 N   0  0  0  0  0  2  0  0  0  0  0  0
  184.0410  178.2950  142.7100 N   0  0  0  0  0  2  0  0  0  0  0  0
  186.2010  178.8600  142.0260 O   0  0  0  0  0  0  0  0  0  0  0  0
  185.4110  178.5950  142.9750 C   0  0  0  0  0  0  0  0  0  0  0  0
  183.5000  178.2890  141.3610 C   0  0  0  0  0  2  0  0  0  0  0  0
  180.8790  178.3020  141.4680 N   0  0  0  0  0  0  0  0  0  0  0  0
  182.0370  178.2940  141.4220 C   0  0  0  0  0  0  0  0  0  0  0  0
  190.5780  172.3400  143.6110 C   0  0  0  0  0  2  0  0  0  0  0  0
  191.4460  171.6170  142.7850 O   0  0  0  0  0  0  0  0  0  0  0  0
  190.6360  171.1310  141.7540 C   0  0  1  0  0  3  0  0  0  0  0  0
  188.6120  172.5600  140.1190 N   0  0  0  0  0  1  0  0  0  0  0  0
  190.8550  171.9010  140.5320 N   0  0  0  0  0  0  0  0  0  0  0  0
  189.8700  172.6250  139.8320 C   0  0  0  0  0  0  0  0  0  0  0  0
  191.7630  172.8240  138.5330 C   0  0  0  0  0  3  0  0  0  0  0  0
  190.3440  173.1570  138.6140 N   0  0  0  0  0  0  0  0  0  0  0  0
  192.0810  171.9380  139.7540 C   0  0  0  0  0  3  0  0  0  0  0  0
  190.9030  169.6790  141.5220 C   0  0  0  0  0  0  0  0  0  0  0  0
  191.5630  169.0100  142.3620 O   0  0  0  0  0  1  0  0  0  0  0  0
  190.4410  169.0700  140.3630 O   0  0  0  0  0  0  0  0  0  0  0  0
  1 10  1  6  0  0  0
  1 16  1  0  0  0  0
  1 11  1  0  0  0  0
  2  4  1  6  0  0  0
  2 26  1  0  0  0  0
  2  8  1  0  0  0  0
  6 14  1  0  0  0  0
  6  1  1  0  0  0  0
  7 16  1  0  0  0  0
  7  5  1  1  0  0  0
  8  3  1  0  0  0  0
  8 13  2  0  0  0  0
  9 13  1  0  0  0  0
  9 11  2  0  0  0  0
 12 22  1  6  0  0  0
 12 10  1  0  0  0  0
 12  7  1  0  0  0  0
 13 18  1  0  0  0  0
 14  9  1  0  0  0  0
 15  2  1  0  0  0  0
 15 14  2  0  0  0  0
 18 19  2  0  0  0  0
 18 17  1  0  0  0  0
 20 22  1  0  0  0  0
 21 22  2  0  0  0  0
 23 25  1  0  0  0  0
 23 20  1  0  0  0  0
 25 24  3  0  0  0  0
 27 26  1  0  0  0  0
 28 35  1  6  0  0  0
 28 27  1  0  0  0  0
 30 28  1  0  0  0  0
 31 29  1  0  0  0  0
 31 30  1  0  0  0  0
 32 33  1  0  0  0  0
 32 34  2  0  0  0  0
 33 31  2  0  0  0  0
 34 30  1  0  0  0  0
 35 36  1  0  0  0  0
 37 35  2  0  0  0  0
M  END
>  <MODEL>
8

>  <REMARK>
 VINA RESULT:      -6.7      3.391      5.600
  Name = 
  9 active torsions:
  status: ('A' for Active; 'I' for Inactive)
    1  A    between atoms: N_4  and  C_31
    2  A    between atoms: C_5  and  C_35
    3  A    between atoms: N_9  and  C_13
    4  A    between atoms: C_13  and  C_24
    5  A    between atoms: C_20  and  C_29
    6  A    between atoms: C_25  and  C_31
    7  A    between atoms: C_27  and  C_30
    8  A    between atoms: C_31  and  O_36
    9  A    between atoms: C_35  and  O_36
                            x       y       z     vdW  Elec       q    Type
                         _______ _______ _______ _____ _____    ______ ____

>  <TORSDO>
F 9

$$$$
=
 OpenBabel11062421563D

 37 40  0  0  1  0  0  0  0  0999 V2000
  190.1250  176.4180  144.7950 C   0  0  2  0  0  0  0  0  0  0  0  0
  193.6400  175.2800  141.9520 C   0  0  1  0  0  0  0  0  0  0  0  0
  195.9010  175.7840  143.0950 C   0  0  0  0  0  1  0  0  0  0  0  0
  194.0730  176.0100  140.8580 F   0  0  0  0  0  0  0  0  0  0  0  0
  187.7840  176.1560  147.2670 O   0  0  0  0  0  1  0  0  0  0  0  0
  190.2250  175.9830  143.4350 O   0  0  0  0  0  0  0  0  0  0  0  0
  187.9750  176.0400  145.8890 C   0  0  1  0  0  3  0  0  0  0  0  0
  194.4050  175.7620  143.1980 C   0  0  0  0  0  0  0  0  0  0  0  0
  192.3030  176.1980  144.3190 C   0  0  0  0  0  0  0  0  0  0  0  0
  189.4050  177.7470  144.8810 C   0  0  0  0  0  2  0  0  0  0  0  0
  191.5100  176.5310  145.2840 N   0  0  0  0  0  0  0  0  0  0  0  0
  187.9710  177.4240  145.2580 C   0  0  1  0  0  3  0  0  0  0  0  0
  193.7750  176.1620  144.3410 C   0  0  0  0  0  0  0  0  0  0  0  0
  191.5680  175.8410  143.1630 C   0  0  0  0  0  0  0  0  0  0  0  0
  192.1330  175.4300  142.0390 C   0  0  0  0  0  3  0  0  0  0  0  0
  189.3380  175.4210  145.6230 C   0  0  0  0  0  2  0  0  0  0  0  0
  194.8500  177.8220  145.7320 N   0  0  0  0  0  2  0  0  0  0  0  0
  194.5020  176.5870  145.5660 C   0  0  0  0  0  0  0  0  0  0  0  0
  194.9390  175.6180  146.5140 N   0  0  0  0  0  1  0  0  0  0  0  0
  187.4680  178.2350  142.9230 N   0  0  0  0  0  2  0  0  0  0  0  0
  186.0030  176.8000  144.0400 O   0  0  0  0  0  0  0  0  0  0  0  0
  187.0810  177.4550  144.0550 C   0  0  0  0  0  0  0  0  0  0  0  0
  186.6550  178.3010  141.7190 C   0  0  0  0  0  2  0  0  0  0  0  0
  187.3830  176.3960  140.0700 N   0  0  0  0  0  0  0  0  0  0  0  0
  187.0590  177.2360  140.8000 C   0  0  0  0  0  0  0  0  0  0  0  0
  193.9710  173.8060  141.7200 C   0  0  0  0  0  2  0  0  0  0  0  0
  192.9080  173.1470  141.0930 O   0  0  0  0  0  0  0  0  0  0  0  0
  192.7370  171.9660  141.8220 C   0  0  1  0  0  3  0  0  0  0  0  0
  192.6020  172.3960  144.7560 N   0  0  0  0  0  1  0  0  0  0  0  0
  191.5430  172.0550  142.6590 N   0  0  0  0  0  0  0  0  0  0  0  0
  191.5290  172.3350  144.0390 C   0  0  0  0  0  0  0  0  0  0  0  0
  189.3250  171.9150  143.5140 C   0  0  0  0  0  3  0  0  0  0  0  0
  190.2430  172.2210  144.6070 N   0  0  0  0  0  0  0  0  0  0  0  0
  190.1880  171.7320  142.2490 C   0  0  0  0  0  3  0  0  0  0  0  0
  192.6550  170.7930  140.9010 C   0  0  0  0  0  0  0  0  0  0  0  0
  192.4580  170.9620  139.6680 O   0  0  0  0  0  0  0  0  0  0  0  0
  192.7740  169.5070  141.4110 O   0  0  0  0  0  1  0  0  0  0  0  0
  1 10  1  1  0  0  0
  1 11  1  0  0  0  0
  1 16  1  0  0  0  0
  2  4  1  6  0  0  0
  2 15  1  0  0  0  0
  2  8  1  0  0  0  0
  3  8  1  0  0  0  0
  6  1  1  0  0  0  0
  7  5  1  1  0  0  0
  8 13  2  0  0  0  0
  9 13  1  0  0  0  0
  9 11  2  0  0  0  0
 10 12  1  0  0  0  0
 12 22  1  6  0  0  0
 12  7  1  0  0  0  0
 13 18  1  0  0  0  0
 14  6  1  0  0  0  0
 14  9  1  0  0  0  0
 15 14  2  0  0  0  0
 16  7  1  0  0  0  0
 18 17  2  0  0  0  0
 18 19  1  0  0  0  0
 20 22  1  0  0  0  0
 21 22  2  0  0  0  0
 23 20  1  0  0  0  0
 24 25  3  0  0  0  0
 25 23  1  0  0  0  0
 26  2  1  0  0  0  0
 27 26  1  0  0  0  0
 27 28  1  0  0  0  0
 28 35  1  6  0  0  0
 28 30  1  0  0  0  0
 30 31  1  0  0  0  0
 31 33  2  0  0  0  0
 31 29  1  0  0  0  0
 32 33  1  0  0  0  0
 34 30  1  0  0  0  0
 34 32  2  0  0  0  0
 35 37  1  0  0  0  0
 36 35  2  0  0  0  0
M  END
>  <MODEL>
9

>  <REMARK>
 VINA RESULT:      -6.7      3.060      5.777
  Name = 
  9 active torsions:
  status: ('A' for Active; 'I' for Inactive)
    1  A    between atoms: N_4  and  C_31
    2  A    between atoms: C_5  and  C_35
    3  A    between atoms: N_9  and  C_13
    4  A    between atoms: C_13  and  C_24
    5  A    between atoms: C_20  and  C_29
    6  A    between atoms: C_25  and  C_31
    7  A    between atoms: C_27  and  C_30
    8  A    between atoms: C_31  and  O_36
    9  A    between atoms: C_35  and  O_36
                            x       y       z     vdW  Elec       q    Type
                         _______ _______ _______ _____ _____    ______ ____

>  <TORSDO>
F 9

$$$$
