=
 OpenBabel11062419043D

 32 37  0  0  1  0  0  0  0  0999 V2000
  191.7190  177.6090  144.0390 N   0  0  0  0  0  0  0  0  0  0  0  0
  191.5750  176.3410  143.8250 C   0  0  0  0  0  0  0  0  0  0  0  0
  192.5240  174.2420  144.4340 C   0  0  0  0  0  3  0  0  0  0  0  0
  189.5950  176.9460  144.7070 C   0  0  1  0  0  3  0  0  0  0  0  0
  190.2710  175.8990  144.1930 C   0  0  2  0  0  3  0  0  0  0  0  0
  188.9940  176.5640  145.8560 N   0  0  0  0  0  0  0  0  0  0  0  0
  190.1280  174.8130  145.0080 C   0  0  2  0  0  3  0  0  0  0  0  0
  192.6690  175.4190  143.8790 N   0  0  0  0  0  0  0  0  0  0  0  0
  189.3090  175.2560  146.0390 C   0  0  1  0  0  3  0  0  0  0  0  0
  191.2240  173.7770  145.1050 C   0  0  1  0  0  3  0  0  0  0  0  0
  189.0810  174.5160  147.3160 C   0  0  0  0  0  1  0  0  0  0  0  0
  190.4450  178.1690  144.5160 C   0  0  0  0  0  2  0  0  0  0  0  0
  190.7470  172.4720  144.4910 C   0  0  0  0  0  2  0  0  0  0  0  0
  189.5890  172.7250  143.5410 C   0  0  0  0  0  2  0  0  0  0  0  0
  190.0790  172.7290  142.1010 C   0  0  0  0  0  2  0  0  0  0  0  0
  188.9960  172.5180  139.8400 C   0  0  0  0  0  0  0  0  0  0  0  0
  188.0410  172.7660  139.0590 O   0  0  0  0  0  0  0  0  0  0  0  0
  188.9860  173.0300  141.1830 N   0  0  0  0  0  0  0  0  0  0  0  0
  190.0710  171.7630  139.3840 O   0  0  0  0  0  1  0  0  0  0  0  0
  187.9090  173.8070  141.6410 N   0  0  0  0  0  2  0  0  0  0  0  0
  188.1550  175.1830  141.2330 C   0  0  0  0  0  2  0  0  0  0  0  0
  187.4020  177.8880  140.5510 O   0  0  0  0  0  0  0  0  0  0  0  0
  187.7080  177.5130  141.8510 N   0  0  1  0  0  0  0  0  0  0  0  0
  186.5400  177.0110  141.1320 C   0  0  2  0  0  3  0  0  0  0  0  0
  187.2620  176.1210  142.0300 C   0  0  1  0  0  3  0  0  0  0  0  0
  188.4700  177.4570  146.8850 C   0  0  0  0  0  2  0  0  0  0  0  0
  184.3060  178.2670  146.2250 C   0  0  0  0  0  3  0  0  0  0  0  0
  186.2530  178.3210  147.6680 C   0  0  0  0  0  3  0  0  0  0  0  0
  184.8970  178.5920  147.4500 C   0  0  0  0  0  3  0  0  0  0  0  0
  187.0190  177.7220  146.6580 C   0  0  0  0  0  0  0  0  0  0  0  0
  186.4270  177.4000  145.4300 C   0  0  0  0  0  3  0  0  0  0  0  0
  185.0700  177.6710  145.2140 C   0  0  0  0  0  3  0  0  0  0  0  0
  1 12  1  0  0  0  0
  2  8  1  0  0  0  0
  2  1  2  0  0  0  0
  3 10  1  0  0  0  0
  4 12  1  1  0  0  0
  4  6  1  0  0  0  0
  5  2  1  1  0  0  0
  5  4  1  0  0  0  0
  5  7  1  0  0  0  0
  6  9  1  0  0  0  0
  6 26  1  0  0  0  0
  7 10  1  0  0  0  0
  7  9  1  0  0  0  0
  8  3  2  0  0  0  0
  9 11  1  0  0  0  0
 13 10  1  0  0  0  0
 14 13  1  0  0  0  0
 15 14  1  0  0  0  0
 16 18  1  0  0  0  0
 17 16  2  0  0  0  0
 18 20  1  0  0  0  0
 18 15  1  0  0  0  0
 19 16  1  0  0  0  0
 21 20  1  0  0  0  0
 21 25  1  0  0  0  0
 22 24  1  0  0  0  0
 22 23  1  0  0  0  0
 23 25  1  0  0  0  0
 24 23  1  0  0  0  0
 24 25  1  0  0  0  0
 27 29  1  0  0  0  0
 29 28  2  0  0  0  0
 30 26  1  0  0  0  0
 30 28  1  0  0  0  0
 31 30  2  0  0  0  0
 32 31  1  0  0  0  0
 32 27  2  0  0  0  0
M  END
>  <MODEL>
1

>  <REMARK>
 VINA RESULT:      -7.1      0.000      0.000
  Name = 
  9 active torsions:
  status: ('A' for Active; 'I' for Inactive)
    1  A    between atoms: C_1  and  N_11
    2  A    between atoms: C_1  and  C_31
    3  A    between atoms: C_10  and  C_23
    4  A    between atoms: N_11  and  N_28
    5  A    between atoms: C_13  and  C_27
    6  A    between atoms: C_13  and  N_28
    7  A    between atoms: N_17  and  C_23
    8  A    between atoms: C_21  and  C_26
    9  A    between atoms: C_21  and  C_27
                            x       y       z     vdW  Elec       q    Type
                         _______ _______ _______ _____ _____    ______ ____

>  <TORSDO>
F 9

$$$$
=
 OpenBabel11062419043D

 32 37  0  0  1  0  0  0  0  0999 V2000
  190.4140  175.2890  147.7660 N   0  0  0  0  0  0  0  0  0  0  0  0
  189.6510  175.1500  146.7300 C   0  0  0  0  0  0  0  0  0  0  0  0
  187.8460  176.2240  145.6030 C   0  0  0  0  0  3  0  0  0  0  0  0
  191.7160  175.2560  145.8430 C   0  0  1  0  0  3  0  0  0  0  0  0
  190.4150  175.0920  145.5280 C   0  0  2  0  0  3  0  0  0  0  0  0
  192.2630  176.1620  145.0030 N   0  0  0  0  0  0  0  0  0  0  0  0
  190.0890  175.9030  144.4790 C   0  0  2  0  0  3  0  0  0  0  0  0
  188.3100  175.6500  146.6850 N   0  0  0  0  0  0  0  0  0  0  0  0
  191.2740  176.5550  144.1600 C   0  0  1  0  0  3  0  0  0  0  0  0
  188.6890  176.4540  144.3400 C   0  0  1  0  0  3  0  0  0  0  0  0
  191.3720  177.7390  143.2560 C   0  0  0  0  0  1  0  0  0  0  0  0
  191.8210  175.2570  147.3400 C   0  0  0  0  0  2  0  0  0  0  0  0
  188.0130  175.8310  143.1310 C   0  0  0  0  0  2  0  0  0  0  0  0
  186.5760  176.3080  143.0210 C   0  0  0  0  0  2  0  0  0  0  0  0
  186.5340  177.8150  142.8240 C   0  0  0  0  0  2  0  0  0  0  0  0
  184.9280  178.2020  140.9250 C   0  0  0  0  0  0  0  0  0  0  0  0
  183.7930  178.5480  140.5090 O   0  0  0  0  0  1  0  0  0  0  0  0
  185.2270  178.2370  142.3310 N   0  0  0  0  0  0  0  0  0  0  0  0
  185.8980  177.8050  140.0110 O   0  0  0  0  0  0  0  0  0  0  0  0
  184.2540  178.6540  143.2550 N   0  0  0  0  0  2  0  0  0  0  0  0
  184.9340  178.9330  144.5120 C   0  0  0  0  0  2  0  0  0  0  0  0
  185.6690  177.9970  147.1450 O   0  0  0  0  0  0  0  0  0  0  0  0
  184.5490  177.5200  146.4790 N   0  0  1  0  0  0  0  0  0  0  0  0
  184.6740  178.9010  146.9390 C   0  0  2  0  0  3  0  0  0  0  0  0
  184.0050  178.6270  145.6760 C   0  0  1  0  0  3  0  0  0  0  0  0
  193.5220  176.8730  145.2140 C   0  0  0  0  0  2  0  0  0  0  0  0
  196.8880  174.3360  144.3980 C   0  0  0  0  0  3  0  0  0  0  0  0
  195.2420  175.9500  143.6460 C   0  0  0  0  0  3  0  0  0  0  0  0
  196.3450  175.1290  143.3810 C   0  0  0  0  0  3  0  0  0  0  0  0
  194.6810  175.9780  144.9300 C   0  0  0  0  0  0  0  0  0  0  0  0
  195.2290  175.1860  145.9490 C   0  0  0  0  0  3  0  0  0  0  0  0
  196.3300  174.3640  145.6820 C   0  0  0  0  0  3  0  0  0  0  0  0
  2  1  2  0  0  0  0
  3  8  2  0  0  0  0
  4 12  1  1  0  0  0
  5  4  1  0  0  0  0
  5  2  1  1  0  0  0
  6 26  1  0  0  0  0
  6  4  1  0  0  0  0
  7  5  1  0  0  0  0
  8  2  1  0  0  0  0
  9  7  1  0  0  0  0
  9  6  1  0  0  0  0
 10  7  1  0  0  0  0
 10  3  1  0  0  0  0
 11  9  1  0  0  0  0
 12  1  1  0  0  0  0
 13 10  1  0  0  0  0
 14 13  1  0  0  0  0
 15 14  1  0  0  0  0
 16 18  1  0  0  0  0
 17 16  1  0  0  0  0
 18 15  1  0  0  0  0
 18 20  1  0  0  0  0
 19 16  2  0  0  0  0
 20 21  1  0  0  0  0
 21 25  1  0  0  0  0
 23 24  1  0  0  0  0
 23 22  1  0  0  0  0
 24 22  1  0  0  0  0
 25 23  1  0  0  0  0
 25 24  1  0  0  0  0
 27 32  1  0  0  0  0
 28 30  2  0  0  0  0
 29 28  1  0  0  0  0
 29 27  2  0  0  0  0
 30 26  1  0  0  0  0
 30 31  1  0  0  0  0
 32 31  2  0  0  0  0
M  END
>  <MODEL>
2

>  <REMARK>
 VINA RESULT:      -7.0      2.847      6.721
  Name = 
  9 active torsions:
  status: ('A' for Active; 'I' for Inactive)
    1  A    between atoms: C_1  and  N_11
    2  A    between atoms: C_1  and  C_31
    3  A    between atoms: C_10  and  C_23
    4  A    between atoms: N_11  and  N_28
    5  A    between atoms: C_13  and  C_27
    6  A    between atoms: C_13  and  N_28
    7  A    between atoms: N_17  and  C_23
    8  A    between atoms: C_21  and  C_26
    9  A    between atoms: C_21  and  C_27
                            x       y       z     vdW  Elec       q    Type
                         _______ _______ _______ _____ _____    ______ ____

>  <TORSDO>
F 9

$$$$
=
 OpenBabel11062419043D

 32 37  0  0  1  0  0  0  0  0999 V2000
  187.7930  176.0270  140.4960 N   0  0  0  0  0  0  0  0  0  0  0  0
  188.1870  174.8720  140.9270 C   0  0  0  0  0  0  0  0  0  0  0  0
  190.1440  173.5200  141.0710 C   0  0  0  0  0  3  0  0  0  0  0  0
  187.4130  175.8830  142.7840 C   0  0  1  0  0  3  0  0  0  0  0  0
  187.9420  174.7300  142.3240 C   0  0  2  0  0  3  0  0  0  0  0  0
  188.0550  176.2430  143.9170 N   0  0  0  0  0  0  0  0  0  0  0  0
  188.9500  174.3230  143.1510 C   0  0  2  0  0  3  0  0  0  0  0  0
  189.2700  174.1530  140.3280 N   0  0  0  0  0  0  0  0  0  0  0  0
  188.9900  175.2870  144.1520 C   0  0  1  0  0  3  0  0  0  0  0  0
  190.1190  173.5360  142.6060 C   0  0  1  0  0  3  0  0  0  0  0  0
  190.0970  175.4310  145.1430 C   0  0  0  0  0  1  0  0  0  0  0  0
  187.1500  176.7620  141.5960 C   0  0  0  0  0  2  0  0  0  0  0  0
  190.0770  172.1190  143.1510 C   0  0  0  0  0  2  0  0  0  0  0  0
  191.0800  171.9540  144.2790 C   0  0  0  0  0  2  0  0  0  0  0  0
  192.4830  172.2740  143.7870 C   0  0  0  0  0  2  0  0  0  0  0  0
  194.2330  171.0560  145.1230 C   0  0  0  0  0  0  0  0  0  0  0  0
  195.0700  171.0320  146.0630 O   0  0  0  0  0  1  0  0  0  0  0  0
  193.4400  172.2310  144.8890 N   0  0  0  0  0  0  0  0  0  0  0  0
  194.0690  169.9270  144.3280 O   0  0  0  0  0  0  0  0  0  0  0  0
  193.5920  173.3670  145.7010 N   0  0  0  0  0  2  0  0  0  0  0  0
  194.4380  174.3100  144.9850 C   0  0  0  0  0  2  0  0  0  0  0  0
  193.5180  177.0060  145.4660 O   0  0  0  0  0  0  0  0  0  0  0  0
  194.8670  176.6840  145.4220 N   0  0  1  0  0  0  0  0  0  0  0  0
  193.9650  176.1950  146.4620 C   0  0  2  0  0  3  0  0  0  0  0  0
  195.0170  175.3220  145.9610 C   0  0  1  0  0  3  0  0  0  0  0  0
  188.0350  177.5700  144.5260 C   0  0  0  0  0  2  0  0  0  0  0  0
  184.1460  178.4800  146.0990 C   0  0  0  0  0  3  0  0  0  0  0  0
  186.0940  177.0400  146.0180 C   0  0  0  0  0  3  0  0  0  0  0  0
  184.8290  177.3410  146.5370 C   0  0  0  0  0  3  0  0  0  0  0  0
  186.6770  177.8800  145.0590 C   0  0  0  0  0  0  0  0  0  0  0  0
  185.9920  179.0230  144.6230 C   0  0  0  0  0  3  0  0  0  0  0  0
  184.7260  179.3220  145.1420 C   0  0  0  0  0  3  0  0  0  0  0  0
  1  2  2  0  0  0  0
  1 12  1  0  0  0  0
  3 10  1  0  0  0  0
  4 12  1  6  0  0  0
  4  6  1  0  0  0  0
  5  2  1  6  0  0  0
  5  4  1  0  0  0  0
  5  7  1  0  0  0  0
  6  9  1  0  0  0  0
  6 26  1  0  0  0  0
  7  9  1  0  0  0  0
  8  2  1  0  0  0  0
  8  3  2  0  0  0  0
  9 11  1  0  0  0  0
 10  7  1  0  0  0  0
 10 13  1  0  0  0  0
 13 14  1  0  0  0  0
 15 14  1  0  0  0  0
 15 18  1  0  0  0  0
 16 17  1  0  0  0  0
 18 16  1  0  0  0  0
 18 20  1  0  0  0  0
 19 16  2  0  0  0  0
 21 20  1  0  0  0  0
 21 25  1  0  0  0  0
 22 24  1  0  0  0  0
 23 22  1  0  0  0  0
 23 25  1  0  0  0  0
 23 24  1  0  0  0  0
 25 24  1  0  0  0  0
 26 30  1  0  0  0  0
 27 29  1  0  0  0  0
 28 29  2  0  0  0  0
 30 28  1  0  0  0  0
 31 30  2  0  0  0  0
 31 32  1  0  0  0  0
 32 27  2  0  0  0  0
M  END
>  <MODEL>
3

>  <REMARK>
 VINA RESULT:      -6.9      2.957      5.089
  Name = 
  9 active torsions:
  status: ('A' for Active; 'I' for Inactive)
    1  A    between atoms: C_1  and  N_11
    2  A    between atoms: C_1  and  C_31
    3  A    between atoms: C_10  and  C_23
    4  A    between atoms: N_11  and  N_28
    5  A    between atoms: C_13  and  C_27
    6  A    between atoms: C_13  and  N_28
    7  A    between atoms: N_17  and  C_23
    8  A    between atoms: C_21  and  C_26
    9  A    between atoms: C_21  and  C_27
                            x       y       z     vdW  Elec       q    Type
                         _______ _______ _______ _____ _____    ______ ____

>  <TORSDO>
F 9

$$$$
=
 OpenBabel11062419043D

 32 37  0  0  1  0  0  0  0  0999 V2000
  184.1600  178.4450  143.8680 N   0  0  0  0  0  0  0  0  0  0  0  0
  184.6830  177.7900  142.8810 C   0  0  0  0  0  0  0  0  0  0  0  0
  185.7400  178.1490  140.7750 C   0  0  0  0  0  3  0  0  0  0  0  0
  185.9340  177.1590  144.6420 C   0  0  1  0  0  3  0  0  0  0  0  0
  185.7570  176.9620  143.3200 C   0  0  2  0  0  3  0  0  0  0  0  0
  187.2500  177.3380  144.8900 N   0  0  0  0  0  0  0  0  0  0  0  0
  186.9620  177.0200  142.6800 C   0  0  2  0  0  3  0  0  0  0  0  0
  184.6840  178.2870  141.5380 N   0  0  0  0  0  0  0  0  0  0  0  0
  187.8850  177.2440  143.6940 C   0  0  1  0  0  3  0  0  0  0  0  0
  187.0510  177.5080  141.2530 C   0  0  1  0  0  3  0  0  0  0  0  0
  189.3050  177.6480  143.4720 C   0  0  0  0  0  1  0  0  0  0  0  0
  184.8140  178.0370  145.1210 C   0  0  0  0  0  2  0  0  0  0  0  0
  187.4400  176.3550  140.3430 C   0  0  0  0  0  2  0  0  0  0  0  0
  187.8130  175.1340  141.1660 C   0  0  0  0  0  2  0  0  0  0  0  0
  189.1340  174.5560  140.6810 C   0  0  0  0  0  2  0  0  0  0  0  0
  189.8800  172.2190  141.2420 C   0  0  0  0  0  0  0  0  0  0  0  0
  190.3470  171.3890  142.0650 O   0  0  0  0  0  1  0  0  0  0  0  0
  189.6540  173.5830  141.6360 N   0  0  0  0  0  0  0  0  0  0  0  0
  189.5640  171.7990  139.9540 O   0  0  0  0  0  0  0  0  0  0  0  0
  189.9560  174.0070  142.9410 N   0  0  0  0  0  2  0  0  0  0  0  0
  191.2760  174.6210  142.9100 C   0  0  0  0  0  2  0  0  0  0  0  0
  193.7350  175.9010  143.7220 O   0  0  0  0  0  0  0  0  0  0  0  0
  193.1940  174.8320  144.4220 N   0  0  1  0  0  0  0  0  0  0  0  0
  192.5460  176.1390  144.3380 C   0  0  2  0  0  3  0  0  0  0  0  0
  191.7280  174.9350  144.3270 C   0  0  1  0  0  3  0  0  0  0  0  0
  187.8210  177.9160  146.1040 C   0  0  0  0  0  2  0  0  0  0  0  0
  190.7420  175.2910  147.8380 C   0  0  0  0  0  3  0  0  0  0  0  0
  190.0640  177.5120  147.1410 C   0  0  0  0  0  3  0  0  0  0  0  0
  191.0140  176.6570  147.7130 C   0  0  0  0  0  3  0  0  0  0  0  0
  188.8400  176.9980  146.6920 C   0  0  0  0  0  0  0  0  0  0  0  0
  188.5670  175.6300  146.8200 C   0  0  0  0  0  3  0  0  0  0  0  0
  189.5190  174.7760  147.3910 C   0  0  0  0  0  3  0  0  0  0  0  0
  1 12  1  0  0  0  0
  2  1  2  0  0  0  0
  3 10  1  0  0  0  0
  3  8  2  0  0  0  0
  4  6  1  0  0  0  0
  4 12  1  6  0  0  0
  5  2  1  6  0  0  0
  5  4  1  0  0  0  0
  6 26  1  0  0  0  0
  7  5  1  0  0  0  0
  7  9  1  0  0  0  0
  8  2  1  0  0  0  0
  9  6  1  0  0  0  0
 10  7  1  0  0  0  0
 11  9  1  0  0  0  0
 13 14  1  0  0  0  0
 13 10  1  0  0  0  0
 15 14  1  0  0  0  0
 15 18  1  0  0  0  0
 16 18  1  0  0  0  0
 16 17  1  0  0  0  0
 18 20  1  0  0  0  0
 19 16  2  0  0  0  0
 21 20  1  0  0  0  0
 21 25  1  0  0  0  0
 22 24  1  0  0  0  0
 22 23  1  0  0  0  0
 24 23  1  0  0  0  0
 25 24  1  0  0  0  0
 25 23  1  0  0  0  0
 26 30  1  0  0  0  0
 28 29  2  0  0  0  0
 29 27  1  0  0  0  0
 30 31  2  0  0  0  0
 30 28  1  0  0  0  0
 31 32  1  0  0  0  0
 32 27  2  0  0  0  0
M  END
>  <MODEL>
4

>  <REMARK>
 VINA RESULT:      -6.9      2.131      5.208
  Name = 
  9 active torsions:
  status: ('A' for Active; 'I' for Inactive)
    1  A    between atoms: C_1  and  N_11
    2  A    between atoms: C_1  and  C_31
    3  A    between atoms: C_10  and  C_23
    4  A    between atoms: N_11  and  N_28
    5  A    between atoms: C_13  and  C_27
    6  A    between atoms: C_13  and  N_28
    7  A    between atoms: N_17  and  C_23
    8  A    between atoms: C_21  and  C_26
    9  A    between atoms: C_21  and  C_27
                            x       y       z     vdW  Elec       q    Type
                         _______ _______ _______ _____ _____    ______ ____

>  <TORSDO>
F 9

$$$$
=
 OpenBabel11062419043D

 32 37  0  0  1  0  0  0  0  0999 V2000
  189.6220  172.9580  140.5220 N   0  0  0  0  0  0  0  0  0  0  0  0
  189.9460  172.9630  141.7750 C   0  0  0  0  0  0  0  0  0  0  0  0
  191.8110  173.3620  143.2040 C   0  0  0  0  0  3  0  0  0  0  0  0
  188.3060  174.5000  141.6580 C   0  0  1  0  0  3  0  0  0  0  0  0
  189.1380  173.8740  142.5150 C   0  0  2  0  0  3  0  0  0  0  0  0
  188.3310  175.8280  141.9070 N   0  0  0  0  0  0  0  0  0  0  0  0
  189.7300  174.7920  143.3360 C   0  0  2  0  0  3  0  0  0  0  0  0
  191.2710  172.6690  142.2320 N   0  0  0  0  0  0  0  0  0  0  0  0
  189.1930  176.0110  142.9400 C   0  0  1  0  0  3  0  0  0  0  0  0
  191.1160  174.5490  143.8840 C   0  0  1  0  0  3  0  0  0  0  0  0
  189.7230  177.3430  143.3550 C   0  0  0  0  0  1  0  0  0  0  0  0
  188.4680  173.8460  140.3160 C   0  0  0  0  0  2  0  0  0  0  0  0
  191.0390  174.3290  145.3850 C   0  0  0  0  0  2  0  0  0  0  0  0
  189.6380  173.9030  145.7880 C   0  0  0  0  0  2  0  0  0  0  0  0
  189.2370  174.5730  147.0920 C   0  0  0  0  0  2  0  0  0  0  0  0
  189.7270  177.0360  147.2570 C   0  0  0  0  0  0  0  0  0  0  0  0
  189.4010  178.2320  147.0400 O   0  0  0  0  0  0  0  0  0  0  0  0
  188.8550  175.9630  146.8630 N   0  0  0  0  0  0  0  0  0  0  0  0
  190.9290  176.7630  147.9000 O   0  0  0  0  0  1  0  0  0  0  0  0
  187.6320  176.2360  146.2290 N   0  0  0  0  0  2  0  0  0  0  0  0
  186.6770  176.6200  147.2590 C   0  0  0  0  0  2  0  0  0  0  0  0
  185.8870  179.3850  147.5320 O   0  0  0  0  0  0  0  0  0  0  0  0
  184.9610  178.3520  147.5140 N   0  0  1  0  0  0  0  0  0  0  0  0
  185.7830  178.7050  146.3590 C   0  0  2  0  0  3  0  0  0  0  0  0
  185.4810  177.3050  146.6190 C   0  0  1  0  0  3  0  0  0  0  0  0
  187.8610  176.8760  141.0050 C   0  0  0  0  0  2  0  0  0  0  0  0
  183.9350  178.1940  142.1310 C   0  0  0  0  0  3  0  0  0  0  0  0
  186.0430  177.1450  142.7060 C   0  0  0  0  0  3  0  0  0  0  0  0
  184.7650  177.5820  143.0750 C   0  0  0  0  0  3  0  0  0  0  0  0
  186.4900  177.3210  141.3890 C   0  0  0  0  0  0  0  0  0  0  0  0
  185.6580  177.9380  140.4450 C   0  0  0  0  0  3  0  0  0  0  0  0
  184.3800  178.3720  140.8160 C   0  0  0  0  0  3  0  0  0  0  0  0
  1  2  2  0  0  0  0
  2  8  1  0  0  0  0
  3 10  1  0  0  0  0
  4 12  1  6  0  0  0
  4  6  1  0  0  0  0
  4  5  1  0  0  0  0
  5  2  1  6  0  0  0
  5  7  1  0  0  0  0
  6  9  1  0  0  0  0
  7 10  1  0  0  0  0
  8  3  2  0  0  0  0
  9  7  1  0  0  0  0
  9 11  1  0  0  0  0
 10 13  1  0  0  0  0
 12  1  1  0  0  0  0
 13 14  1  0  0  0  0
 14 15  1  0  0  0  0
 16 19  1  0  0  0  0
 17 16  2  0  0  0  0
 18 15  1  0  0  0  0
 18 16  1  0  0  0  0
 20 18  1  0  0  0  0
 20 21  1  0  0  0  0
 23 22  1  0  0  0  0
 24 25  1  0  0  0  0
 24 23  1  0  0  0  0
 24 22  1  0  0  0  0
 25 21  1  0  0  0  0
 25 23  1  0  0  0  0
 26 30  1  0  0  0  0
 26  6  1  0  0  0  0
 27 29  1  0  0  0  0
 28 29  2  0  0  0  0
 30 28  1  0  0  0  0
 31 32  1  0  0  0  0
 31 30  2  0  0  0  0
 32 27  2  0  0  0  0
M  END
>  <MODEL>
5

>  <REMARK>
 VINA RESULT:      -6.8      3.176      5.401
  Name = 
  9 active torsions:
  status: ('A' for Active; 'I' for Inactive)
    1  A    between atoms: C_1  and  N_11
    2  A    between atoms: C_1  and  C_31
    3  A    between atoms: C_10  and  C_23
    4  A    between atoms: N_11  and  N_28
    5  A    between atoms: C_13  and  C_27
    6  A    between atoms: C_13  and  N_28
    7  A    between atoms: N_17  and  C_23
    8  A    between atoms: C_21  and  C_26
    9  A    between atoms: C_21  and  C_27
                            x       y       z     vdW  Elec       q    Type
                         _______ _______ _______ _____ _____    ______ ____

>  <TORSDO>
F 9

$$$$
=
 OpenBabel11062419043D

 32 37  0  0  1  0  0  0  0  0999 V2000
  188.8110  174.2180  140.5280 N   0  0  0  0  0  0  0  0  0  0  0  0
  189.8580  173.9790  141.2510 C   0  0  0  0  0  0  0  0  0  0  0  0
  192.2350  174.1240  141.1710 C   0  0  0  0  0  3  0  0  0  0  0  0
  188.7090  175.4730  142.4810 C   0  0  1  0  0  3  0  0  0  0  0  0
  189.8180  174.7060  142.4760 C   0  0  2  0  0  3  0  0  0  0  0  0
  189.0380  176.7240  142.8710 N   0  0  0  0  0  0  0  0  0  0  0  0
  190.8970  175.4540  142.8550 C   0  0  2  0  0  3  0  0  0  0  0  0
  191.1250  173.6280  140.6840 N   0  0  0  0  0  0  0  0  0  0  0  0
  190.3740  176.7160  143.1100 C   0  0  1  0  0  3  0  0  0  0  0  0
  192.2750  175.1360  142.3240 C   0  0  1  0  0  3  0  0  0  0  0  0
  191.1940  177.9490  143.2970 C   0  0  0  0  0  1  0  0  0  0  0  0
  187.9010  175.1050  141.2700 C   0  0  0  0  0  2  0  0  0  0  0  0
  193.1490  174.6190  143.4540 C   0  0  0  0  0  2  0  0  0  0  0  0
  192.2960  173.9690  144.5290 C   0  0  0  0  0  2  0  0  0  0  0  0
  192.9290  174.1700  145.8970 C   0  0  0  0  0  2  0  0  0  0  0  0
  194.4220  176.1750  146.1860 C   0  0  0  0  0  0  0  0  0  0  0  0
  194.5690  177.4040  146.4130 O   0  0  0  0  0  1  0  0  0  0  0  0
  193.1090  175.5900  146.1810 N   0  0  0  0  0  0  0  0  0  0  0  0
  195.5440  175.3850  145.9610 O   0  0  0  0  0  0  0  0  0  0  0  0
  191.9750  176.3830  146.4250 N   0  0  0  0  0  2  0  0  0  0  0  0
  191.1950  175.7270  147.4640 C   0  0  0  0  0  2  0  0  0  0  0  0
  189.3130  173.7570  146.5020 O   0  0  0  0  0  0  0  0  0  0  0  0
  189.2900  175.0740  146.0650 N   0  0  1  0  0  0  0  0  0  0  0  0
  188.9870  174.6850  147.4410 C   0  0  2  0  0  3  0  0  0  0  0  0
  189.7120  175.9230  147.1920 C   0  0  1  0  0  3  0  0  0  0  0  0
  188.2240  177.9220  142.6780 C   0  0  0  0  0  2  0  0  0  0  0  0
  184.9800  178.0420  145.4870 C   0  0  0  0  0  3  0  0  0  0  0  0
  187.3570  177.9160  145.0270 C   0  0  0  0  0  3  0  0  0  0  0  0
  186.3000  177.9630  145.9440 C   0  0  0  0  0  3  0  0  0  0  0  0
  187.0930  177.9470  143.6510 C   0  0  0  0  0  0  0  0  0  0  0  0
  185.7710  178.0300  143.1950 C   0  0  0  0  0  3  0  0  0  0  0  0
  184.7150  178.0750  144.1130 C   0  0  0  0  0  3  0  0  0  0  0  0
  1  2  2  0  0  0  0
  1 12  1  0  0  0  0
  3 10  1  0  0  0  0
  4 12  1  6  0  0  0
  4  6  1  0  0  0  0
  5  2  1  6  0  0  0
  5  4  1  0  0  0  0
  5  7  1  0  0  0  0
  6  9  1  0  0  0  0
  7  9  1  0  0  0  0
  8  3  2  0  0  0  0
  8  2  1  0  0  0  0
  9 11  1  0  0  0  0
 10  7  1  0  0  0  0
 10 13  1  0  0  0  0
 13 14  1  0  0  0  0
 14 15  1  0  0  0  0
 15 18  1  0  0  0  0
 16 17  1  0  0  0  0
 18 16  1  0  0  0  0
 18 20  1  0  0  0  0
 19 16  2  0  0  0  0
 20 21  1  0  0  0  0
 22 24  1  0  0  0  0
 23 22  1  0  0  0  0
 23 25  1  0  0  0  0
 23 24  1  0  0  0  0
 25 24  1  0  0  0  0
 25 21  1  0  0  0  0
 26  6  1  0  0  0  0
 26 30  1  0  0  0  0
 27 29  1  0  0  0  0
 28 29  2  0  0  0  0
 30 28  1  0  0  0  0
 31 30  2  0  0  0  0
 31 32  1  0  0  0  0
 32 27  2  0  0  0  0
M  END
>  <MODEL>
6

>  <REMARK>
 VINA RESULT:      -6.8      3.154      5.225
  Name = 
  9 active torsions:
  status: ('A' for Active; 'I' for Inactive)
    1  A    between atoms: C_1  and  N_11
    2  A    between atoms: C_1  and  C_31
    3  A    between atoms: C_10  and  C_23
    4  A    between atoms: N_11  and  N_28
    5  A    between atoms: C_13  and  C_27
    6  A    between atoms: C_13  and  N_28
    7  A    between atoms: N_17  and  C_23
    8  A    between atoms: C_21  and  C_26
    9  A    between atoms: C_21  and  C_27
                            x       y       z     vdW  Elec       q    Type
                         _______ _______ _______ _____ _____    ______ ____

>  <TORSDO>
F 9

$$$$
=
 OpenBabel11062419043D

 32 37  0  0  1  0  0  0  0  0999 V2000
  188.6190  175.0290  140.9610 N   0  0  0  0  0  0  0  0  0  0  0  0
  189.3510  174.4290  141.8430 C   0  0  0  0  0  0  0  0  0  0  0  0
  191.6260  174.2050  142.5180 C   0  0  0  0  0  3  0  0  0  0  0  0
  187.9550  175.6780  143.0910 C   0  0  1  0  0  3  0  0  0  0  0  0
  188.9540  174.7750  143.1680 C   0  0  2  0  0  3  0  0  0  0  0  0
  188.2140  176.6970  143.9390 N   0  0  0  0  0  0  0  0  0  0  0  0
  189.8910  175.2000  144.0660 C   0  0  2  0  0  3  0  0  0  0  0  0
  190.7100  174.0530  141.5930 N   0  0  0  0  0  0  0  0  0  0  0  0
  189.3930  176.4060  144.5460 C   0  0  1  0  0  3  0  0  0  0  0  0
  191.3450  174.8280  143.8920 C   0  0  1  0  0  3  0  0  0  0  0  0
  190.1800  177.3870  145.3500 C   0  0  0  0  0  1  0  0  0  0  0  0
  187.5720  175.8030  141.6450 C   0  0  0  0  0  2  0  0  0  0  0  0
  191.7640  173.8780  145.0010 C   0  0  0  0  0  2  0  0  0  0  0  0
  193.1850  173.3920  144.7750 C   0  0  0  0  0  2  0  0  0  0  0  0
  194.1490  174.1400  145.6820 C   0  0  0  0  0  2  0  0  0  0  0  0
  195.1150  176.1940  144.5950 C   0  0  0  0  0  0  0  0  0  0  0  0
  196.0300  176.7540  143.9360 O   0  0  0  0  0  0  0  0  0  0  0  0
  195.1950  174.7920  144.9000 N   0  0  0  0  0  0  0  0  0  0  0  0
  194.0160  176.9400  145.0060 O   0  0  0  0  0  1  0  0  0  0  0  0
  196.2960  174.0310  144.4710 N   0  0  0  0  0  2  0  0  0  0  0  0
  196.8550  173.3690  145.6410 C   0  0  0  0  0  2  0  0  0  0  0  0
  195.3910  170.8920  145.8960 O   0  0  0  0  0  0  0  0  0  0  0  0
  196.7470  170.9800  146.1790 N   0  0  1  0  0  0  0  0  0  0  0  0
  196.2010  171.1600  144.8360 C   0  0  2  0  0  3  0  0  0  0  0  0
  197.3290  171.9750  145.2630 C   0  0  1  0  0  3  0  0  0  0  0  0
  187.5850  178.0150  143.9090 C   0  0  0  0  0  2  0  0  0  0  0  0
  184.2050  178.1430  146.5540 C   0  0  0  0  0  3  0  0  0  0  0  0
  186.3690  177.2300  145.9530 C   0  0  0  0  0  3  0  0  0  0  0  0
  185.2710  177.2770  146.8200 C   0  0  0  0  0  3  0  0  0  0  0  0
  186.4020  178.0500  144.8170 C   0  0  0  0  0  0  0  0  0  0  0  0
  185.3350  178.9200  144.5530 C   0  0  0  0  0  3  0  0  0  0  0  0
  184.2360  178.9640  145.4200 C   0  0  0  0  0  3  0  0  0  0  0  0
  1 12  1  0  0  0  0
  1  2  2  0  0  0  0
  3 10  1  0  0  0  0
  4 12  1  6  0  0  0
  4  5  1  0  0  0  0
  4  6  1  0  0  0  0
  5  2  1  6  0  0  0
  5  7  1  0  0  0  0
  6  9  1  0  0  0  0
  7  9  1  0  0  0  0
  8  2  1  0  0  0  0
  8  3  2  0  0  0  0
  9 11  1  0  0  0  0
 10  7  1  0  0  0  0
 10 13  1  0  0  0  0
 14 13  1  0  0  0  0
 14 15  1  0  0  0  0
 16 18  1  0  0  0  0
 16 19  1  0  0  0  0
 17 16  2  0  0  0  0
 18 15  1  0  0  0  0
 20 18  1  0  0  0  0
 20 21  1  0  0  0  0
 22 23  1  0  0  0  0
 24 25  1  0  0  0  0
 24 22  1  0  0  0  0
 24 23  1  0  0  0  0
 25 21  1  0  0  0  0
 25 23  1  0  0  0  0
 26  6  1  0  0  0  0
 26 30  1  0  0  0  0
 27 29  1  0  0  0  0
 28 29  2  0  0  0  0
 30 28  1  0  0  0  0
 31 30  2  0  0  0  0
 31 32  1  0  0  0  0
 32 27  2  0  0  0  0
M  END
>  <MODEL>
7

>  <REMARK>
 VINA RESULT:      -6.8      3.580      6.190
  Name = 
  9 active torsions:
  status: ('A' for Active; 'I' for Inactive)
    1  A    between atoms: C_1  and  N_11
    2  A    between atoms: C_1  and  C_31
    3  A    between atoms: C_10  and  C_23
    4  A    between atoms: N_11  and  N_28
    5  A    between atoms: C_13  and  C_27
    6  A    between atoms: C_13  and  N_28
    7  A    between atoms: N_17  and  C_23
    8  A    between atoms: C_21  and  C_26
    9  A    between atoms: C_21  and  C_27
                            x       y       z     vdW  Elec       q    Type
                         _______ _______ _______ _____ _____    ______ ____

>  <TORSDO>
F 9

$$$$
=
 OpenBabel11062419043D

 32 37  0  0  1  0  0  0  0  0999 V2000
  188.2780  175.2680  140.6810 N   0  0  0  0  0  0  0  0  0  0  0  0
  188.9240  174.4360  141.4340 C   0  0  0  0  0  0  0  0  0  0  0  0
  191.1480  173.7600  141.9590 C   0  0  0  0  0  3  0  0  0  0  0  0
  187.7820  175.6940  142.9100 C   0  0  1  0  0  3  0  0  0  0  0  0
  188.6230  174.6440  142.8110 C   0  0  2  0  0  3  0  0  0  0  0  0
  188.2250  176.5240  143.8810 N   0  0  0  0  0  0  0  0  0  0  0  0
  189.6390  174.7790  143.7140 C   0  0  2  0  0  3  0  0  0  0  0  0
  190.1970  173.8930  141.0680 N   0  0  0  0  0  0  0  0  0  0  0  0
  189.3550  175.9640  144.3820 C   0  0  1  0  0  3  0  0  0  0  0  0
  191.0080  174.2120  143.4200 C   0  0  1  0  0  3  0  0  0  0  0  0
  190.3120  176.6800  145.2780 C   0  0  0  0  0  1  0  0  0  0  0  0
  187.3880  176.0890  141.5170 C   0  0  0  0  0  2  0  0  0  0  0  0
  191.2930  173.0550  144.3620 C   0  0  0  0  0  2  0  0  0  0  0  0
  192.7370  173.0980  144.8320 C   0  0  0  0  0  2  0  0  0  0  0  0
  192.9250  174.2030  145.8590 C   0  0  0  0  0  2  0  0  0  0  0  0
  194.1220  176.4040  146.0930 C   0  0  0  0  0  0  0  0  0  0  0  0
  195.0270  177.1990  145.7290 O   0  0  0  0  0  0  0  0  0  0  0  0
  193.9580  175.1400  145.4290 N   0  0  0  0  0  0  0  0  0  0  0  0
  193.2700  176.7690  147.1290 O   0  0  0  0  0  1  0  0  0  0  0  0
  194.8070  174.7750  144.3700 N   0  0  0  0  0  2  0  0  0  0  0  0
  194.5090  175.6510  143.2460 C   0  0  0  0  0  2  0  0  0  0  0  0
  197.0280  177.0560  143.0850 O   0  0  0  0  0  0  0  0  0  0  0  0
  196.2600  176.7900  141.9610 N   0  0  1  0  0  0  0  0  0  0  0  0
  196.8990  175.7430  142.7560 C   0  0  2  0  0  3  0  0  0  0  0  0
  195.5830  175.5000  142.1810 C   0  0  1  0  0  3  0  0  0  0  0  0
  187.8180  177.9140  144.0670 C   0  0  0  0  0  2  0  0  0  0  0  0
  184.2280  178.1150  146.4110 C   0  0  0  0  0  3  0  0  0  0  0  0
  185.6500  179.0150  144.6670 C   0  0  0  0  0  3  0  0  0  0  0  0
  184.4760  179.0760  145.4260 C   0  0  0  0  0  3  0  0  0  0  0  0
  186.5790  177.9900  144.8940 C   0  0  0  0  0  0  0  0  0  0  0  0
  186.3280  177.0260  145.8800 C   0  0  0  0  0  3  0  0  0  0  0  0
  185.1540  177.0900  146.6390 C   0  0  0  0  0  3  0  0  0  0  0  0
  1  2  2  0  0  0  0
  1 12  1  0  0  0  0
  3 10  1  0  0  0  0
  4 12  1  6  0  0  0
  4  6  1  0  0  0  0
  5  2  1  6  0  0  0
  5  4  1  0  0  0  0
  5  7  1  0  0  0  0
  6 26  1  0  0  0  0
  6  9  1  0  0  0  0
  7  9  1  0  0  0  0
  8  2  1  0  0  0  0
  8  3  2  0  0  0  0
  9 11  1  0  0  0  0
 10  7  1  0  0  0  0
 10 13  1  0  0  0  0
 13 14  1  0  0  0  0
 14 15  1  0  0  0  0
 16 19  1  0  0  0  0
 17 16  2  0  0  0  0
 18 15  1  0  0  0  0
 18 16  1  0  0  0  0
 20 18  1  0  0  0  0
 21 20  1  0  0  0  0
 23 25  1  0  0  0  0
 23 24  1  0  0  0  0
 23 22  1  0  0  0  0
 24 22  1  0  0  0  0
 25 24  1  0  0  0  0
 25 21  1  0  0  0  0
 26 30  1  0  0  0  0
 27 32  1  0  0  0  0
 28 30  2  0  0  0  0
 28 29  1  0  0  0  0
 29 27  2  0  0  0  0
 30 31  1  0  0  0  0
 31 32  2  0  0  0  0
M  END
>  <MODEL>
8

>  <REMARK>
 VINA RESULT:      -6.7      3.446      5.553
  Name = 
  9 active torsions:
  status: ('A' for Active; 'I' for Inactive)
    1  A    between atoms: C_1  and  N_11
    2  A    between atoms: C_1  and  C_31
    3  A    between atoms: C_10  and  C_23
    4  A    between atoms: N_11  and  N_28
    5  A    between atoms: C_13  and  C_27
    6  A    between atoms: C_13  and  N_28
    7  A    between atoms: N_17  and  C_23
    8  A    between atoms: C_21  and  C_26
    9  A    between atoms: C_21  and  C_27
                            x       y       z     vdW  Elec       q    Type
                         _______ _______ _______ _____ _____    ______ ____

>  <TORSDO>
F 9

$$$$
=
 OpenBabel11062419043D

 32 37  0  0  1  0  0  0  0  0999 V2000
  189.2300  172.6010  142.9610 N   0  0  0  0  0  0  0  0  0  0  0  0
  188.9710  173.7560  142.4390 C   0  0  0  0  0  0  0  0  0  0  0  0
  187.2710  175.4260  142.3900 C   0  0  0  0  0  3  0  0  0  0  0  0
  190.8450  174.1340  143.6270 C   0  0  1  0  0  3  0  0  0  0  0  0
  189.9580  174.7200  142.7970 C   0  0  2  0  0  3  0  0  0  0  0  0
  191.0620  174.9440  144.6860 N   0  0  0  0  0  0  0  0  0  0  0  0
  189.5730  175.9250  143.3110 C   0  0  2  0  0  3  0  0  0  0  0  0
  187.6380  174.1910  142.1490 N   0  0  0  0  0  0  0  0  0  0  0  0
  190.2930  176.0460  144.4930 C   0  0  1  0  0  3  0  0  0  0  0  0
  188.1920  176.4720  143.0330 C   0  0  1  0  0  3  0  0  0  0  0  0
  190.0210  177.0670  145.5480 C   0  0  0  0  0  1  0  0  0  0  0  0
  190.5110  172.6710  143.6830 C   0  0  0  0  0  2  0  0  0  0  0  0
  188.2990  177.7010  142.1470 C   0  0  0  0  0  2  0  0  0  0  0  0
  186.9590  178.0090  141.5020 C   0  0  0  0  0  2  0  0  0  0  0  0
  186.1920  179.0220  142.3370 C   0  0  0  0  0  2  0  0  0  0  0  0
  183.9120  178.3430  141.5200 C   0  0  0  0  0  0  0  0  0  0  0  0
  182.7490  177.9210  141.7530 O   0  0  0  0  0  1  0  0  0  0  0  0
  184.8350  178.5550  142.6010 N   0  0  0  0  0  0  0  0  0  0  0  0
  184.2870  178.6200  140.2110 O   0  0  0  0  0  0  0  0  0  0  0  0
  184.4540  178.2920  143.9270 N   0  0  0  0  0  2  0  0  0  0  0  0
  185.5990  178.5780  144.7790 C   0  0  0  0  0  2  0  0  0  0  0  0
  185.1230  178.3080  147.6160 O   0  0  0  0  0  0  0  0  0  0  0  0
  186.2680  177.8120  147.0100 N   0  0  1  0  0  0  0  0  0  0  0  0
  184.9330  177.2850  146.7400 C   0  0  2  0  0  3  0  0  0  0  0  0
  185.8990  177.3720  145.6540 C   0  0  1  0  0  3  0  0  0  0  0  0
  191.6630  174.5480  145.9570 C   0  0  0  0  0  2  0  0  0  0  0  0
  195.9400  174.4780  145.5940 C   0  0  0  0  0  3  0  0  0  0  0  0
  193.8270  173.3020  145.7600 C   0  0  0  0  0  3  0  0  0  0  0  0
  195.2210  173.2790  145.6340 C   0  0  0  0  0  3  0  0  0  0  0  0
  193.1510  174.5270  145.8470 C   0  0  0  0  0  0  0  0  0  0  0  0
  193.8720  175.7280  145.8020 C   0  0  0  0  0  3  0  0  0  0  0  0
  195.2670  175.7030  145.6780 C   0  0  0  0  0  3  0  0  0  0  0  0
  1 12  1  0  0  0  0
  2  1  2  0  0  0  0
  3 10  1  0  0  0  0
  4 12  1  1  0  0  0
  4  6  1  0  0  0  0
  5  2  1  1  0  0  0
  5  7  1  0  0  0  0
  5  4  1  0  0  0  0
  6 26  1  0  0  0  0
  7  9  1  0  0  0  0
  8  3  2  0  0  0  0
  8  2  1  0  0  0  0
  9  6  1  0  0  0  0
  9 11  1  0  0  0  0
 10  7  1  0  0  0  0
 13 10  1  0  0  0  0
 14 13  1  0  0  0  0
 14 15  1  0  0  0  0
 15 18  1  0  0  0  0
 16 17  1  0  0  0  0
 16 18  1  0  0  0  0
 18 20  1  0  0  0  0
 19 16  2  0  0  0  0
 20 21  1  0  0  0  0
 21 25  1  0  0  0  0
 23 22  1  0  0  0  0
 24 23  1  0  0  0  0
 24 22  1  0  0  0  0
 25 24  1  0  0  0  0
 25 23  1  0  0  0  0
 27 29  2  0  0  0  0
 27 32  1  0  0  0  0
 28 30  2  0  0  0  0
 29 28  1  0  0  0  0
 30 26  1  0  0  0  0
 31 30  1  0  0  0  0
 32 31  2  0  0  0  0
M  END
>  <MODEL>
9

>  <REMARK>
 VINA RESULT:      -6.7      2.684      6.622
  Name = 
  9 active torsions:
  status: ('A' for Active; 'I' for Inactive)
    1  A    between atoms: C_1  and  N_11
    2  A    between atoms: C_1  and  C_31
    3  A    between atoms: C_10  and  C_23
    4  A    between atoms: N_11  and  N_28
    5  A    between atoms: C_13  and  C_27
    6  A    between atoms: C_13  and  N_28
    7  A    between atoms: N_17  and  C_23
    8  A    between atoms: C_21  and  C_26
    9  A    between atoms: C_21  and  C_27
                            x       y       z     vdW  Elec       q    Type
                         _______ _______ _______ _____ _____    ______ ____

>  <TORSDO>
F 9

$$$$
