=
 OpenBabel11072408493D

 26 29  0  0  1  0  0  0  0  0999 V2000
  187.7170  177.6130  146.0050 C   0  0  2  0  0  3  0  0  0  0  0  0
  188.3120  176.2950  143.9010 C   0  0  0  0  0  2  0  0  0  0  0  0
  187.4430  176.8850  140.3930 O   0  0  0  0  0  0  0  0  0  0  0  0
  186.1430  175.9390  142.8520 O   0  0  0  0  0  0  0  0  0  0  0  0
  187.0880  178.5080  142.2280 C   0  0  0  0  0  2  0  0  0  0  0  0
  185.6180  177.0790  143.5450 C   0  0  0  0  0  2  0  0  0  0  0  0
  187.5420  176.0700  142.5890 C   0  0  2  0  0  0  0  0  0  0  0  0
  186.0840  179.3410  144.2550 F   0  0  0  0  0  0  0  0  0  0  0  0
  186.6440  178.2190  143.6740 C   0  0  2  0  0  0  0  0  0  0  0  0
  188.0130  174.9530  141.7220 C   0  0  0  0  0  2  0  0  0  0  0  0
  187.8020  175.5180  140.3120 C   0  0  0  0  0  2  0  0  0  0  0  0
  187.8130  177.2590  141.6880 C   0  0  1  0  0  3  0  0  0  0  0  0
  187.8680  177.6670  144.4770 C   0  0  1  0  0  3  0  0  0  0  0  0
  188.9120  177.0870  146.6540 N   0  0  0  0  0  2  0  0  0  0  0  0
  188.5600  175.9340  147.2710 O   0  0  0  0  0  0  0  0  0  0  0  0
  192.0260  174.4570  145.5240 C   0  0  2  0  0  3  0  0  0  0  0  0
  190.9470  176.0470  147.1090 C   0  0  0  0  0  2  0  0  0  0  0  0
  189.6200  174.1400  146.1190 C   0  0  0  0  0  3  0  0  0  0  0  0
  192.1760  175.1810  146.8620 C   0  0  0  0  0  2  0  0  0  0  0  0
  190.6810  173.7890  145.3750 C   0  0  0  0  0  3  0  0  0  0  0  0
  193.0420  173.5150  145.3790 O   0  0  0  0  0  1  0  0  0  0  0  0
  189.7140  175.1500  147.2360 C   0  0  2  0  0  3  0  0  0  0  0  0
  186.4990  176.7880  146.3910 C   0  0  0  0  0  2  0  0  0  0  0  0
  185.5420  177.6050  147.1910 C   0  0  0  0  0  0  0  0  0  0  0  0
  185.8500  177.9820  148.3540 O   0  0  0  0  0  1  0  0  0  0  0  0
  184.2980  177.9210  146.6670 O   0  0  0  0  0  0  0  0  0  0  0  0
  1 23  1  6  0  0  0
  1 14  1  0  0  0  0
  2 13  1  0  0  0  0
  3 12  1  0  0  0  0
  4  6  1  0  0  0  0
  5  9  1  0  0  0  0
  6  9  1  0  0  0  0
  7 10  1  6  0  0  0
  7  4  1  0  0  0  0
  7  2  1  0  0  0  0
  9  8  1  1  0  0  0
  9 13  1  0  0  0  0
 11  3  1  0  0  0  0
 11 10  1  0  0  0  0
 12  5  1  1  0  0  0
 12  7  1  0  0  0  0
 13  1  1  1  0  0  0
 14 15  1  0  0  0  0
 16 21  1  1  0  0  0
 16 19  1  0  0  0  0
 17 22  1  0  0  0  0
 18 22  1  0  0  0  0
 19 17  1  0  0  0  0
 20 16  1  0  0  0  0
 20 18  2  0  0  0  0
 22 15  1  6  0  0  0
 23 24  1  0  0  0  0
 24 25  1  0  0  0  0
 26 24  2  0  0  0  0
M  END
>  <MODEL>
1

>  <REMARK>
 VINA RESULT:      -7.0      0.000      0.000
  Name = 
  6 active torsions:
  status: ('A' for Active; 'I' for Inactive)
    1  A    between atoms: O_2  and  N_16
    2  A    between atoms: O_2  and  C_26
    3  A    between atoms: C_6  and  C_20
    4  A    between atoms: C_8  and  N_16
    5  A    between atoms: C_8  and  C_20
    6  A    between atoms: C_8  and  C_25
                            x       y       z     vdW  Elec       q    Type
                         _______ _______ _______ _____ _____    ______ ____

>  <TORSDO>
F 6

$$$$
=
 OpenBabel11072408493D

 26 29  0  0  1  0  0  0  0  0999 V2000
  187.0320  177.0200  145.6220 C   0  0  2  0  0  3  0  0  0  0  0  0
  189.3070  177.3280  146.7380 C   0  0  0  0  0  2  0  0  0  0  0  0
  192.6280  176.1500  145.7440 O   0  0  0  0  0  0  0  0  0  0  0  0
  190.1540  175.0490  146.8810 O   0  0  0  0  0  0  0  0  0  0  0  0
  190.6150  176.0710  144.3070 C   0  0  0  0  0  2  0  0  0  0  0  0
  189.3000  174.6610  145.7970 C   0  0  0  0  0  2  0  0  0  0  0  0
  190.5470  176.4210  146.7880 C   0  0  2  0  0  0  0  0  0  0  0  0
  188.4210  175.3210  143.6460 F   0  0  0  0  0  0  0  0  0  0  0  0
  189.1650  175.7570  144.7260 C   0  0  2  0  0  0  0  0  0  0  0  0
  191.5660  176.7400  147.8280 C   0  0  0  0  0  2  0  0  0  0  0  0
  192.8830  176.4220  147.1090 C   0  0  0  0  0  2  0  0  0  0  0  0
  191.3490  176.6670  145.5250 C   0  0  1  0  0  3  0  0  0  0  0  0
  188.5540  177.0210  145.4140 C   0  0  1  0  0  3  0  0  0  0  0  0
  186.3790  178.0990  144.8910 N   0  0  0  0  0  2  0  0  0  0  0  0
  187.0370  178.2420  143.7150 O   0  0  0  0  0  0  0  0  0  0  0  0
  184.1300  178.3830  140.7540 C   0  0  2  0  0  3  0  0  0  0  0  0
  186.5360  178.2110  141.3730 C   0  0  0  0  0  2  0  0  0  0  0  0
  184.7470  177.9520  143.1360 C   0  0  0  0  0  3  0  0  0  0  0  0
  185.4740  177.7590  140.3780 C   0  0  0  0  0  2  0  0  0  0  0  0
  183.8050  178.2210  142.2190 C   0  0  0  0  0  3  0  0  0  0  0  0
  183.1160  177.8250  139.9790 O   0  0  0  0  0  1  0  0  0  0  0  0
  186.1840  177.6810  142.7640 C   0  0  2  0  0  3  0  0  0  0  0  0
  186.6950  177.1050  147.1030 C   0  0  0  0  0  2  0  0  0  0  0  0
  185.7760  178.2490  147.3690 C   0  0  0  0  0  0  0  0  0  0  0  0
  186.2260  179.3240  147.8470 O   0  0  0  0  0  1  0  0  0  0  0  0
  184.4180  178.1160  147.1210 O   0  0  0  0  0  0  0  0  0  0  0  0
  1 23  1  1  0  0  0
  3 11  1  0  0  0  0
  5  9  1  0  0  0  0
  6  4  1  0  0  0  0
  7  2  1  1  0  0  0
  7  4  1  0  0  0  0
  7 10  1  0  0  0  0
  9  8  1  6  0  0  0
  9 13  1  0  0  0  0
  9  6  1  0  0  0  0
 11 10  1  0  0  0  0
 12  5  1  6  0  0  0
 12  3  1  0  0  0  0
 12  7  1  0  0  0  0
 13  1  1  1  0  0  0
 13  2  1  0  0  0  0
 14  1  1  0  0  0  0
 15 14  1  0  0  0  0
 16 21  1  6  0  0  0
 16 20  1  0  0  0  0
 17 22  1  0  0  0  0
 19 16  1  0  0  0  0
 19 17  1  0  0  0  0
 20 18  2  0  0  0  0
 22 18  1  0  0  0  0
 22 15  1  1  0  0  0
 23 24  1  0  0  0  0
 24 25  1  0  0  0  0
 26 24  2  0  0  0  0
M  END
>  <MODEL>
2

>  <REMARK>
 VINA RESULT:      -6.9      2.163      6.076
  Name = 
  6 active torsions:
  status: ('A' for Active; 'I' for Inactive)
    1  A    between atoms: O_2  and  N_16
    2  A    between atoms: O_2  and  C_26
    3  A    between atoms: C_6  and  C_20
    4  A    between atoms: C_8  and  N_16
    5  A    between atoms: C_8  and  C_20
    6  A    between atoms: C_8  and  C_25
                            x       y       z     vdW  Elec       q    Type
                         _______ _______ _______ _____ _____    ______ ____

>  <TORSDO>
F 6

$$$$
=
 OpenBabel11072408493D

 26 29  0  0  1  0  0  0  0  0999 V2000
  188.5840  176.5330  142.0110 C   0  0  2  0  0  3  0  0  0  0  0  0
  188.7050  175.7130  144.4260 C   0  0  0  0  0  2  0  0  0  0  0  0
  191.1850  176.3590  147.0410 O   0  0  0  0  0  0  0  0  0  0  0  0
  190.9520  174.7860  144.5710 O   0  0  0  0  0  0  0  0  0  0  0  0
  191.0550  177.5740  144.8880 C   0  0  0  0  0  2  0  0  0  0  0  0
  191.3670  175.6120  143.4760 C   0  0  0  0  0  2  0  0  0  0  0  0
  189.9040  175.3920  145.3320 C   0  0  2  0  0  0  0  0  0  0  0  0
  191.2000  177.8130  142.4930 F   0  0  0  0  0  0  0  0  0  0  0  0
  190.7080  177.0020  143.4990 C   0  0  2  0  0  0  0  0  0  0  0  0
  189.6210  174.5880  146.5550 C   0  0  0  0  0  2  0  0  0  0  0  0
  190.5790  175.2010  147.5830 C   0  0  0  0  0  2  0  0  0  0  0  0
  190.3720  176.6930  145.9540 C   0  0  1  0  0  3  0  0  0  0  0  0
  189.1610  176.7970  143.4100 C   0  0  1  0  0  3  0  0  0  0  0  0
  187.5310  177.4810  141.6660 N   0  0  0  0  0  2  0  0  0  0  0  0
  186.3550  176.8110  141.7190 O   0  0  0  0  0  0  0  0  0  0  0  0
  185.7030  178.8200  145.2940 C   0  0  2  0  0  3  0  0  0  0  0  0
  186.1910  178.9140  142.8530 C   0  0  0  0  0  2  0  0  0  0  0  0
  185.4520  176.7480  143.9210 C   0  0  0  0  0  3  0  0  0  0  0  0
  185.4680  179.6050  144.0030 C   0  0  0  0  0  2  0  0  0  0  0  0
  185.4560  177.3410  145.1250 C   0  0  0  0  0  3  0  0  0  0  0  0
  184.8900  179.3230  146.3070 O   0  0  0  0  0  1  0  0  0  0  0  0
  185.5840  177.5270  142.6350 C   0  0  2  0  0  3  0  0  0  0  0  0
  188.0660  175.1070  141.9080 C   0  0  0  0  0  2  0  0  0  0  0  0
  188.7630  174.3710  140.8140 C   0  0  0  0  0  0  0  0  0  0  0  0
  189.7300  173.6100  141.0790 O   0  0  0  0  0  1  0  0  0  0  0  0
  188.3650  174.5530  139.4970 O   0  0  0  0  0  0  0  0  0  0  0  0
  1 23  1  1  0  0  0
  3 11  1  0  0  0  0
  4  7  1  0  0  0  0
  6  9  1  0  0  0  0
  6  4  1  0  0  0  0
  7  2  1  6  0  0  0
  7 12  1  0  0  0  0
  7 10  1  0  0  0  0
  9  8  1  6  0  0  0
  9  5  1  0  0  0  0
 10 11  1  0  0  0  0
 12  5  1  6  0  0  0
 12  3  1  0  0  0  0
 13  1  1  6  0  0  0
 13  9  1  0  0  0  0
 13  2  1  0  0  0  0
 14 15  1  0  0  0  0
 14  1  1  0  0  0  0
 16 21  1  1  0  0  0
 17 19  1  0  0  0  0
 18 20  2  0  0  0  0
 19 16  1  0  0  0  0
 20 16  1  0  0  0  0
 22 15  1  6  0  0  0
 22 17  1  0  0  0  0
 22 18  1  0  0  0  0
 24 25  1  0  0  0  0
 24 23  1  0  0  0  0
 26 24  2  0  0  0  0
M  END
>  <MODEL>
3

>  <REMARK>
 VINA RESULT:      -6.9      2.347      6.365
  Name = 
  6 active torsions:
  status: ('A' for Active; 'I' for Inactive)
    1  A    between atoms: O_2  and  N_16
    2  A    between atoms: O_2  and  C_26
    3  A    between atoms: C_6  and  C_20
    4  A    between atoms: C_8  and  N_16
    5  A    between atoms: C_8  and  C_20
    6  A    between atoms: C_8  and  C_25
                            x       y       z     vdW  Elec       q    Type
                         _______ _______ _______ _____ _____    ______ ____

>  <TORSDO>
F 6

$$$$
=
 OpenBabel11072408493D

 26 29  0  0  1  0  0  0  0  0999 V2000
  187.0990  176.8440  145.4370 C   0  0  2  0  0  3  0  0  0  0  0  0
  185.1970  177.0240  143.7430 C   0  0  0  0  0  2  0  0  0  0  0  0
  185.1700  178.3150  140.3170 O   0  0  0  0  0  0  0  0  0  0  0  0
  185.2980  179.3590  143.0600 O   0  0  0  0  0  0  0  0  0  0  0  0
  187.2130  177.8740  141.6430 C   0  0  0  0  0  2  0  0  0  0  0  0
  186.6760  179.4160  143.4510 C   0  0  0  0  0  2  0  0  0  0  0  0
  184.9170  178.0490  142.6320 C   0  0  2  0  0  0  0  0  0  0  0  0
  188.7790  178.2280  143.4420 F   0  0  0  0  0  0  0  0  0  0  0  0
  187.4330  178.1120  143.1490 C   0  0  2  0  0  0  0  0  0  0  0  0
  183.5350  178.0670  142.0740 C   0  0  0  0  0  2  0  0  0  0  0  0
  183.7820  178.3650  140.5900 C   0  0  0  0  0  2  0  0  0  0  0  0
  185.7090  177.6290  141.4090 C   0  0  1  0  0  3  0  0  0  0  0  0
  186.7350  176.9620  143.9480 C   0  0  1  0  0  3  0  0  0  0  0  0
  187.9150  175.6680  145.7090 N   0  0  0  0  0  2  0  0  0  0  0  0
  188.1560  175.6450  147.0420 O   0  0  0  0  0  0  0  0  0  0  0  0
  192.0890  174.9450  145.9080 C   0  0  2  0  0  3  0  0  0  0  0  0
  190.4770  176.1170  147.4020 C   0  0  0  0  0  2  0  0  0  0  0  0
  189.7020  174.2080  145.9410 C   0  0  0  0  0  3  0  0  0  0  0  0
  191.8580  175.4790  147.3220 C   0  0  0  0  0  2  0  0  0  0  0  0
  190.9290  174.1230  145.4030 C   0  0  0  0  0  3  0  0  0  0  0  0
  193.2570  174.1870  145.8740 O   0  0  0  0  0  1  0  0  0  0  0  0
  189.4110  175.0470  147.1620 C   0  0  2  0  0  3  0  0  0  0  0  0
  185.8420  176.8250  146.2930 C   0  0  0  0  0  2  0  0  0  0  0  0
  185.6840  178.1140  147.0250 C   0  0  0  0  0  0  0  0  0  0  0  0
  184.7610  178.9120  146.7120 O   0  0  0  0  0  0  0  0  0  0  0  0
  186.5780  178.4500  148.0320 O   0  0  0  0  0  1  0  0  0  0  0  0
  1 14  1  0  0  0  0
  1 23  1  1  0  0  0
  2 13  1  0  0  0  0
  3 11  1  0  0  0  0
  3 12  1  0  0  0  0
  4  6  1  0  0  0  0
  5  9  1  0  0  0  0
  7 10  1  6  0  0  0
  7  4  1  0  0  0  0
  7  2  1  0  0  0  0
  9  8  1  1  0  0  0
  9  6  1  0  0  0  0
  9 13  1  0  0  0  0
 11 10  1  0  0  0  0
 12  5  1  1  0  0  0
 12  7  1  0  0  0  0
 13  1  1  1  0  0  0
 14 15  1  0  0  0  0
 16 21  1  1  0  0  0
 16 19  1  0  0  0  0
 18 22  1  0  0  0  0
 19 17  1  0  0  0  0
 20 16  1  0  0  0  0
 20 18  2  0  0  0  0
 22 15  1  6  0  0  0
 22 17  1  0  0  0  0
 23 24  1  0  0  0  0
 24 26  1  0  0  0  0
 25 24  2  0  0  0  0
M  END
>  <MODEL>
4

>  <REMARK>
 VINA RESULT:      -6.8      1.650      2.317
  Name = 
  6 active torsions:
  status: ('A' for Active; 'I' for Inactive)
    1  A    between atoms: O_2  and  N_16
    2  A    between atoms: O_2  and  C_26
    3  A    between atoms: C_6  and  C_20
    4  A    between atoms: C_8  and  N_16
    5  A    between atoms: C_8  and  C_20
    6  A    between atoms: C_8  and  C_25
                            x       y       z     vdW  Elec       q    Type
                         _______ _______ _______ _____ _____    ______ ____

>  <TORSDO>
F 6

$$$$
=
 OpenBabel11072408493D

 26 29  0  0  1  0  0  0  0  0999 V2000
  188.9950  176.9140  145.9050 C   0  0  2  0  0  3  0  0  0  0  0  0
  187.3730  177.4460  144.0060 C   0  0  0  0  0  2  0  0  0  0  0  0
  184.1970  179.2670  144.0230 O   0  0  0  0  0  0  0  0  0  0  0  0
  185.2410  176.6570  144.8770 O   0  0  0  0  0  0  0  0  0  0  0  0
  185.8000  179.2080  145.9080 C   0  0  0  0  0  2  0  0  0  0  0  0
  185.7350  176.7920  146.2160 C   0  0  0  0  0  2  0  0  0  0  0  0
  185.8440  177.5990  143.9870 C   0  0  2  0  0  0  0  0  0  0  0  0
  187.0300  178.1800  147.7090 F   0  0  0  0  0  0  0  0  0  0  0  0
  186.6500  178.0160  146.3900 C   0  0  2  0  0  0  0  0  0  0  0  0
  185.1850  177.5460  142.6510 C   0  0  0  0  0  2  0  0  0  0  0  0
  184.0530  178.5710  142.8000 C   0  0  0  0  0  2  0  0  0  0  0  0
  185.5190  179.0210  144.4040 C   0  0  1  0  0  3  0  0  0  0  0  0
  187.8670  177.8410  145.4250 C   0  0  1  0  0  3  0  0  0  0  0  0
  190.3060  177.5410  145.7860 N   0  0  0  0  0  2  0  0  0  0  0  0
  190.7950  177.2200  144.5640 O   0  0  0  0  0  0  0  0  0  0  0  0
  194.2310  175.0510  145.4190 C   0  0  2  0  0  3  0  0  0  0  0  0
  192.7410  176.1040  143.7240 C   0  0  0  0  0  2  0  0  0  0  0  0
  192.4360  176.6140  146.1790 C   0  0  0  0  0  3  0  0  0  0  0  0
  194.1880  175.7840  144.0780 C   0  0  0  0  0  2  0  0  0  0  0  0
  193.4060  175.7360  146.4800 C   0  0  0  0  0  3  0  0  0  0  0  0
  195.5510  174.9300  145.8490 O   0  0  0  0  0  1  0  0  0  0  0  0
  192.1680  177.0680  144.7640 C   0  0  2  0  0  3  0  0  0  0  0  0
  188.9660  175.5990  145.1420 C   0  0  0  0  0  2  0  0  0  0  0  0
  189.5660  174.5040  145.9560 C   0  0  0  0  0  0  0  0  0  0  0  0
  189.2520  174.3740  147.1700 O   0  0  0  0  0  1  0  0  0  0  0  0
  190.4960  173.6490  145.3850 O   0  0  0  0  0  0  0  0  0  0  0  0
  1 23  1  6  0  0  0
  2 13  1  0  0  0  0
  3 12  1  0  0  0  0
  4  6  1  0  0  0  0
  5  9  1  0  0  0  0
  6  9  1  0  0  0  0
  7 10  1  6  0  0  0
  7  2  1  0  0  0  0
  7 12  1  0  0  0  0
  7  4  1  0  0  0  0
  9  8  1  1  0  0  0
 10 11  1  0  0  0  0
 11  3  1  0  0  0  0
 12  5  1  1  0  0  0
 13  1  1  1  0  0  0
 13  9  1  0  0  0  0
 14  1  1  0  0  0  0
 15 14  1  0  0  0  0
 16 21  1  1  0  0  0
 16 20  1  0  0  0  0
 17 19  1  0  0  0  0
 17 22  1  0  0  0  0
 18 20  2  0  0  0  0
 19 16  1  0  0  0  0
 22 15  1  6  0  0  0
 22 18  1  0  0  0  0
 23 24  1  0  0  0  0
 24 25  1  0  0  0  0
 26 24  2  0  0  0  0
M  END
>  <MODEL>
5

>  <REMARK>
 VINA RESULT:      -6.7      2.322      3.788
  Name = 
  6 active torsions:
  status: ('A' for Active; 'I' for Inactive)
    1  A    between atoms: O_2  and  N_16
    2  A    between atoms: O_2  and  C_26
    3  A    between atoms: C_6  and  C_20
    4  A    between atoms: C_8  and  N_16
    5  A    between atoms: C_8  and  C_20
    6  A    between atoms: C_8  and  C_25
                            x       y       z     vdW  Elec       q    Type
                         _______ _______ _______ _____ _____    ______ ____

>  <TORSDO>
F 6

$$$$
=
 OpenBabel11072408493D

 26 29  0  0  1  0  0  0  0  0999 V2000
  188.9750  177.3880  142.8770 C   0  0  2  0  0  3  0  0  0  0  0  0
  187.0050  178.6750  143.8680 C   0  0  0  0  0  2  0  0  0  0  0  0
  184.9220  177.9640  146.7940 O   0  0  0  0  0  0  0  0  0  0  0  0
  185.2790  176.9680  144.0530 O   0  0  0  0  0  0  0  0  0  0  0  0
  187.0290  176.7880  146.2420 C   0  0  0  0  0  2  0  0  0  0  0  0
  186.2870  175.9490  144.0780 C   0  0  0  0  0  2  0  0  0  0  0  0
  185.7490  178.1980  144.6120 C   0  0  2  0  0  0  0  0  0  0  0  0
  188.4590  175.3440  144.9440 F   0  0  0  0  0  0  0  0  0  0  0  0
  187.5470  176.3780  144.8490 C   0  0  2  0  0  0  0  0  0  0  0  0
  184.6290  179.1750  144.7280 C   0  0  0  0  0  2  0  0  0  0  0  0
  184.0700  178.8750  146.1240 C   0  0  0  0  0  2  0  0  0  0  0  0
  186.1180  178.0200  146.0720 C   0  0  1  0  0  3  0  0  0  0  0  0
  188.1320  177.6410  144.1370 C   0  0  1  0  0  3  0  0  0  0  0  0
  190.3640  177.7920  143.0580 N   0  0  0  0  0  2  0  0  0  0  0  0
  190.5720  177.9280  144.3900 O   0  0  0  0  0  0  0  0  0  0  0  0
  193.7910  176.1880  146.3510 C   0  0  2  0  0  3  0  0  0  0  0  0
  191.3380  176.5960  146.2280 C   0  0  0  0  0  2  0  0  0  0  0  0
  192.8230  177.1640  144.2650 C   0  0  0  0  0  3  0  0  0  0  0  0
  192.4110  175.5850  146.6130 C   0  0  0  0  0  2  0  0  0  0  0  0
  193.9020  176.8100  144.9810 C   0  0  0  0  0  3  0  0  0  0  0  0
  194.7710  175.2100  146.5080 O   0  0  0  0  0  1  0  0  0  0  0  0
  191.4160  176.8680  144.7250 C   0  0  2  0  0  3  0  0  0  0  0  0
  188.3690  178.1010  141.6780 C   0  0  0  0  0  2  0  0  0  0  0  0
  187.5020  177.1730  140.8970 C   0  0  0  0  0  0  0  0  0  0  0  0
  186.4730  177.6090  140.3140 O   0  0  0  0  0  0  0  0  0  0  0  0
  187.8120  175.8230  140.8390 O   0  0  0  0  0  1  0  0  0  0  0  0
  1 23  1  6  0  0  0
  1 14  1  0  0  0  0
  2 13  1  0  0  0  0
  4  6  1  0  0  0  0
  4  7  1  0  0  0  0
  6  9  1  0  0  0  0
  7  2  1  6  0  0  0
  7 10  1  0  0  0  0
  7 12  1  0  0  0  0
  9  8  1  1  0  0  0
  9  5  1  0  0  0  0
 10 11  1  0  0  0  0
 11  3  1  0  0  0  0
 12  5  1  6  0  0  0
 12  3  1  0  0  0  0
 13  1  1  6  0  0  0
 13  9  1  0  0  0  0
 14 15  1  0  0  0  0
 16 21  1  6  0  0  0
 16 19  1  0  0  0  0
 17 19  1  0  0  0  0
 18 22  1  0  0  0  0
 18 20  2  0  0  0  0
 20 16  1  0  0  0  0
 22 15  1  1  0  0  0
 22 17  1  0  0  0  0
 24 23  1  0  0  0  0
 25 24  2  0  0  0  0
 26 24  1  0  0  0  0
M  END
>  <MODEL>
6

>  <REMARK>
 VINA RESULT:      -6.6      2.163      4.558
  Name = 
  6 active torsions:
  status: ('A' for Active; 'I' for Inactive)
    1  A    between atoms: O_2  and  N_16
    2  A    between atoms: O_2  and  C_26
    3  A    between atoms: C_6  and  C_20
    4  A    between atoms: C_8  and  N_16
    5  A    between atoms: C_8  and  C_20
    6  A    between atoms: C_8  and  C_25
                            x       y       z     vdW  Elec       q    Type
                         _______ _______ _______ _____ _____    ______ ____

>  <TORSDO>
F 6

$$$$
=
 OpenBabel11072408493D

 26 29  0  0  1  0  0  0  0  0999 V2000
  188.3540  175.5090  142.5650 C   0  0  2  0  0  3  0  0  0  0  0  0
  190.1130  174.6360  144.1970 C   0  0  0  0  0  2  0  0  0  0  0  0
  192.2350  176.4150  146.5920 O   0  0  0  0  0  0  0  0  0  0  0  0
  192.0560  176.0110  143.6870 O   0  0  0  0  0  0  0  0  0  0  0  0
  190.3190  177.4170  145.3870 C   0  0  0  0  0  2  0  0  0  0  0  0
  191.2000  177.0270  143.1490 C   0  0  0  0  0  2  0  0  0  0  0  0
  191.4140  175.2630  144.7220 C   0  0  2  0  0  0  0  0  0  0  0  0
  189.1210  178.2180  143.4550 F   0  0  0  0  0  0  0  0  0  0  0  0
  189.8820  177.1670  143.9310 C   0  0  2  0  0  0  0  0  0  0  0  0
  192.3850  174.3380  145.3730 C   0  0  0  0  0  2  0  0  0  0  0  0
  192.9610  175.2030  146.5010 C   0  0  0  0  0  2  0  0  0  0  0  0
  191.0530  176.1590  145.8920 C   0  0  1  0  0  3  0  0  0  0  0  0
  189.1370  175.7950  143.8570 C   0  0  1  0  0  3  0  0  0  0  0  0
  186.9180  175.6830  142.7460 N   0  0  0  0  0  2  0  0  0  0  0  0
  186.6110  176.9360  142.3330 O   0  0  0  0  0  0  0  0  0  0  0  0
  185.6610  178.7720  145.9350 C   0  0  2  0  0  3  0  0  0  0  0  0
  185.9130  178.9300  143.4620 C   0  0  0  0  0  2  0  0  0  0  0  0
  185.9380  176.6770  144.6020 C   0  0  0  0  0  3  0  0  0  0  0  0
  185.1060  179.4110  144.6620 C   0  0  0  0  0  2  0  0  0  0  0  0
  185.8560  177.2820  145.7980 C   0  0  0  0  0  3  0  0  0  0  0  0
  184.8150  179.0430  147.0080 O   0  0  0  0  0  1  0  0  0  0  0  0
  185.7320  177.4200  143.3040 C   0  0  2  0  0  3  0  0  0  0  0  0
  188.6580  174.1080  142.0570 C   0  0  0  0  0  2  0  0  0  0  0  0
  188.8500  174.1150  140.5780 C   0  0  0  0  0  0  0  0  0  0  0  0
  188.1920  174.9130  139.8580 O   0  0  0  0  0  0  0  0  0  0  0  0
  189.7310  173.2180  139.9920 O   0  0  0  0  0  1  0  0  0  0  0  0
  1 23  1  1  0  0  0
  1 14  1  0  0  0  0
  4  7  1  0  0  0  0
  6  4  1  0  0  0  0
  6  9  1  0  0  0  0
  7  2  1  6  0  0  0
  7 10  1  0  0  0  0
  7 12  1  0  0  0  0
  9  8  1  6  0  0  0
  9  5  1  0  0  0  0
 10 11  1  0  0  0  0
 11  3  1  0  0  0  0
 12  5  1  6  0  0  0
 12  3  1  0  0  0  0
 13  1  1  6  0  0  0
 13  9  1  0  0  0  0
 13  2  1  0  0  0  0
 15 14  1  0  0  0  0
 16 21  1  1  0  0  0
 17 19  1  0  0  0  0
 18 20  2  0  0  0  0
 19 16  1  0  0  0  0
 20 16  1  0  0  0  0
 22 15  1  6  0  0  0
 22 17  1  0  0  0  0
 22 18  1  0  0  0  0
 24 23  1  0  0  0  0
 25 24  2  0  0  0  0
 26 24  1  0  0  0  0
M  END
>  <MODEL>
7

>  <REMARK>
 VINA RESULT:      -6.5      2.160      6.367
  Name = 
  6 active torsions:
  status: ('A' for Active; 'I' for Inactive)
    1  A    between atoms: O_2  and  N_16
    2  A    between atoms: O_2  and  C_26
    3  A    between atoms: C_6  and  C_20
    4  A    between atoms: C_8  and  N_16
    5  A    between atoms: C_8  and  C_20
    6  A    between atoms: C_8  and  C_25
                            x       y       z     vdW  Elec       q    Type
                         _______ _______ _______ _____ _____    ______ ____

>  <TORSDO>
F 6

$$$$
=
 OpenBabel11072408493D

 26 29  0  0  1  0  0  0  0  0999 V2000
  189.9990  174.6850  145.9690 C   0  0  2  0  0  3  0  0  0  0  0  0
  190.4560  174.7280  143.4570 C   0  0  0  0  0  2  0  0  0  0  0  0
  189.9990  172.1410  140.9070 O   0  0  0  0  0  0  0  0  0  0  0  0
  191.8310  172.7460  143.1220 O   0  0  0  0  0  0  0  0  0  0  0  0
  189.1220  172.0140  143.2180 C   0  0  0  0  0  2  0  0  0  0  0  0
  191.2910  172.1670  144.3170 C   0  0  0  0  0  2  0  0  0  0  0  0
  190.8990  173.6230  142.4850 C   0  0  2  0  0  0  0  0  0  0  0  0
  189.2810  171.8420  145.6170 F   0  0  0  0  0  0  0  0  0  0  0  0
  189.8010  172.4950  144.5150 C   0  0  2  0  0  0  0  0  0  0  0  0
  191.4260  174.0690  141.1640 C   0  0  0  0  0  2  0  0  0  0  0  0
  190.8980  172.9870  140.2140 C   0  0  0  0  0  2  0  0  0  0  0  0
  189.6570  172.8680  142.0510 C   0  0  1  0  0  3  0  0  0  0  0  0
  189.6650  174.0500  144.6100 C   0  0  1  0  0  3  0  0  0  0  0  0
  188.7990  175.0740  146.7000 N   0  0  0  0  0  2  0  0  0  0  0  0
  188.6990  176.4230  146.6180 O   0  0  0  0  0  0  0  0  0  0  0  0
  185.3070  178.7240  145.9540 C   0  0  2  0  0  3  0  0  0  0  0  0
  187.4370  177.7670  145.0880 C   0  0  0  0  0  2  0  0  0  0  0  0
  186.4750  176.9570  147.2790 C   0  0  0  0  0  3  0  0  0  0  0  0
  186.0080  178.1500  144.7230 C   0  0  0  0  0  2  0  0  0  0  0  0
  185.4890  177.8630  147.1790 C   0  0  0  0  0  3  0  0  0  0  0  0
  183.9490  178.8910  145.6890 O   0  0  0  0  0  1  0  0  0  0  0  0
  187.4100  176.6510  146.1340 C   0  0  2  0  0  3  0  0  0  0  0  0
  190.9180  175.8820  145.7870 C   0  0  0  0  0  2  0  0  0  0  0  0
  192.1930  175.6850  146.5340 C   0  0  0  0  0  0  0  0  0  0  0  0
  192.6380  176.6000  147.2790 O   0  0  0  0  0  1  0  0  0  0  0  0
  192.9070  174.5060  146.3830 O   0  0  0  0  0  0  0  0  0  0  0  0
  1 23  1  6  0  0  0
  1 14  1  0  0  0  0
  2 13  1  0  0  0  0
  3 12  1  0  0  0  0
  4  6  1  0  0  0  0
  5  9  1  0  0  0  0
  6  9  1  0  0  0  0
  7 10  1  6  0  0  0
  7  4  1  0  0  0  0
  7  2  1  0  0  0  0
  9 13  1  0  0  0  0
  9  8  1  1  0  0  0
 11  3  1  0  0  0  0
 11 10  1  0  0  0  0
 12  7  1  0  0  0  0
 12  5  1  1  0  0  0
 13  1  1  1  0  0  0
 15 14  1  0  0  0  0
 16 21  1  6  0  0  0
 16 20  1  0  0  0  0
 17 22  1  0  0  0  0
 19 17  1  0  0  0  0
 19 16  1  0  0  0  0
 20 18  2  0  0  0  0
 22 15  1  1  0  0  0
 22 18  1  0  0  0  0
 23 24  1  0  0  0  0
 24 25  1  0  0  0  0
 26 24  2  0  0  0  0
M  END
>  <MODEL>
8

>  <REMARK>
 VINA RESULT:      -6.5      2.827      5.960
  Name = 
  6 active torsions:
  status: ('A' for Active; 'I' for Inactive)
    1  A    between atoms: O_2  and  N_16
    2  A    between atoms: O_2  and  C_26
    3  A    between atoms: C_6  and  C_20
    4  A    between atoms: C_8  and  N_16
    5  A    between atoms: C_8  and  C_20
    6  A    between atoms: C_8  and  C_25
                            x       y       z     vdW  Elec       q    Type
                         _______ _______ _______ _____ _____    ______ ____

>  <TORSDO>
F 6

$$$$
=
 OpenBabel11072408493D

 26 29  0  0  1  0  0  0  0  0999 V2000
  189.5370  176.3570  144.8810 C   0  0  2  0  0  3  0  0  0  0  0  0
  187.8660  178.1040  144.0600 C   0  0  0  0  0  2  0  0  0  0  0  0
  184.7980  179.3760  145.6010 O   0  0  0  0  0  0  0  0  0  0  0  0
  185.7330  176.9440  144.2450 O   0  0  0  0  0  0  0  0  0  0  0  0
  186.4760  177.9670  146.7520 C   0  0  0  0  0  2  0  0  0  0  0  0
  186.2920  176.0700  145.2340 C   0  0  0  0  0  2  0  0  0  0  0  0
  186.3480  178.2340  144.2630 C   0  0  2  0  0  0  0  0  0  0  0  0
  187.7250  175.9490  147.1750 F   0  0  0  0  0  0  0  0  0  0  0  0
  187.2790  176.7870  146.1710 C   0  0  2  0  0  0  0  0  0  0  0  0
  185.6290  179.1640  143.3460 C   0  0  0  0  0  2  0  0  0  0  0  0
  184.5630  179.7750  144.2630 C   0  0  0  0  0  2  0  0  0  0  0  0
  186.1200  178.9220  145.5950 C   0  0  1  0  0  3  0  0  0  0  0  0
  188.4420  177.3530  145.2920 C   0  0  1  0  0  3  0  0  0  0  0  0
  190.7270  176.4770  145.7140 N   0  0  0  0  0  2  0  0  0  0  0  0
  190.8350  175.3310  146.4270 O   0  0  0  0  0  0  0  0  0  0  0  0
  194.7480  175.6630  145.0760 C   0  0  2  0  0  3  0  0  0  0  0  0
  192.9750  176.3790  146.6720 C   0  0  0  0  0  2  0  0  0  0  0  0
  192.6330  174.3400  145.2220 C   0  0  0  0  0  3  0  0  0  0  0  0
  194.4670  176.1160  146.5090 C   0  0  0  0  0  2  0  0  0  0  0  0
  193.8100  174.5730  144.6190 C   0  0  0  0  0  3  0  0  0  0  0  0
  196.0670  175.2290  144.9670 O   0  0  0  0  0  1  0  0  0  0  0  0
  192.2060  175.0720  146.4710 C   0  0  2  0  0  3  0  0  0  0  0  0
  189.8980  176.5370  143.4140 C   0  0  0  0  0  2  0  0  0  0  0  0
  189.7300  175.2560  142.6700 C   0  0  0  0  0  0  0  0  0  0  0  0
  190.7030  174.7520  142.0500 O   0  0  0  0  0  0  0  0  0  0  0  0
  188.4890  174.6370  142.6320 O   0  0  0  0  0  1  0  0  0  0  0  0
  1 23  1  6  0  0  0
  1 14  1  0  0  0  0
  2  7  1  0  0  0  0
  2 13  1  0  0  0  0
  4  7  1  0  0  0  0
  4  6  1  0  0  0  0
  6  9  1  0  0  0  0
  7 10  1  6  0  0  0
  7 12  1  0  0  0  0
  9  5  1  0  0  0  0
  9  8  1  1  0  0  0
 10 11  1  0  0  0  0
 11  3  1  0  0  0  0
 12  3  1  0  0  0  0
 12  5  1  1  0  0  0
 13  1  1  6  0  0  0
 13  9  1  0  0  0  0
 14 15  1  0  0  0  0
 16 21  1  1  0  0  0
 16 19  1  0  0  0  0
 18 22  1  0  0  0  0
 19 17  1  0  0  0  0
 20 16  1  0  0  0  0
 20 18  2  0  0  0  0
 22 15  1  6  0  0  0
 22 17  1  0  0  0  0
 24 23  1  0  0  0  0
 25 24  2  0  0  0  0
 26 24  1  0  0  0  0
M  END
>  <MODEL>
9

>  <REMARK>
 VINA RESULT:      -6.4      2.231      4.224
  Name = 
  6 active torsions:
  status: ('A' for Active; 'I' for Inactive)
    1  A    between atoms: O_2  and  N_16
    2  A    between atoms: O_2  and  C_26
    3  A    between atoms: C_6  and  C_20
    4  A    between atoms: C_8  and  N_16
    5  A    between atoms: C_8  and  C_20
    6  A    between atoms: C_8  and  C_25
                            x       y       z     vdW  Elec       q    Type
                         _______ _______ _______ _____ _____    ______ ____

>  <TORSDO>
F 6

$$$$
