=
 OpenBabel11072409313D

 40 43  0  0  1  0  0  0  0  0999 V2000
  192.8880  175.9730  145.1180 C   0  0  2  0  0  3  0  0  0  0  0  0
  195.1890  175.8780  145.7630 O   0  0  0  0  0  0  0  0  0  0  0  0
  194.1080  176.7590  145.5740 C   0  0  1  0  0  3  0  0  0  0  0  0
  195.1940  176.6310  144.5760 C   0  0  0  0  0  2  0  0  0  0  0  0
  191.7260  176.8560  145.0660 N   0  0  0  0  0  2  0  0  0  0  0  0
  191.4150  176.6550  142.7620 O   0  0  0  0  0  0  0  0  0  0  0  0
  191.0360  177.1560  143.8550 C   0  0  0  0  0  0  0  0  0  0  0  0
  189.8470  178.0630  143.8820 C   0  0  0  0  0  2  0  0  0  0  0  0
  186.2640  177.6150  145.3660 C   0  0  1  0  0  0  0  0  0  0  0  0
  186.6300  178.8980  143.1890 C   0  0  0  0  0  2  0  0  0  0  0  0
  187.6520  177.8240  142.8240 C   0  0  0  0  0  2  0  0  0  0  0  0
  185.6260  178.3020  144.1660 C   0  0  2  0  0  3  0  0  0  0  0  0
  187.8130  177.7180  145.3920 C   0  0  2  0  0  3  0  0  0  0  0  0
  188.6530  175.8490  143.8740 C   0  0  0  0  0  1  0  0  0  0  0  0
  184.7850  179.3970  144.7720 C   0  0  0  0  0  2  0  0  0  0  0  0
  185.6490  178.3480  146.5440 C   0  0  0  0  0  2  0  0  0  0  0  0
  184.5100  179.0410  146.1030 O   0  0  0  0  0  0  0  0  0  0  0  0
  185.8660  176.2700  145.3880 O   0  0  0  0  0  1  0  0  0  0  0  0
  188.4880  177.3590  144.0270 C   0  0  2  0  0  0  0  0  0  0  0  0
  188.4250  176.9820  146.5870 C   0  0  0  0  0  2  0  0  0  0  0  0
  189.2900  177.9150  147.4070 C   0  0  0  0  0  1  0  0  0  0  0  0
  191.4350  174.9160  146.7790 O   0  0  0  0  0  1  0  0  0  0  0  0
  192.6290  174.7860  146.0600 C   0  0  1  0  0  3  0  0  0  0  0  0
  192.7350  173.5240  145.4330 O   0  0  0  0  0  0  0  0  0  0  0  0
  190.0580  173.8080  141.0640 C   0  0  0  0  0  1  0  0  0  0  0  0
  192.7940  172.7650  141.7920 C   0  0  1  0  0  3  0  0  0  0  0  0
  193.3810  172.8710  143.2000 C   0  0  2  0  0  3  0  0  0  0  0  0
  191.0060  173.1270  143.8110 C   0  0  0  0  0  2  0  0  0  0  0  0
  192.4050  173.6580  144.0740 C   0  0  1  0  0  3  0  0  0  0  0  0
  194.6440  173.4690  143.1970 O   0  0  0  0  0  1  0  0  0  0  0  0
  191.0150  172.6410  142.0730 P   0  0  1  0  0  4  0  0  0  0  0  0
  193.9580  173.9930  139.8970 C   0  0  0  0  0  0  0  0  0  0  0  0
  193.0710  173.9660  141.0130 N   0  0  0  0  0  2  0  0  0  0  0  0
  194.8600  172.5320  139.3860 S   0  0  0  0  0  1  0  0  0  0  0  0
  194.1170  175.0640  139.2630 O   0  0  0  0  0  0  0  0  0  0  0  0
  190.4410  170.9340  141.8180 C   0  0  0  0  0  2  0  0  0  0  0  0
  191.1960  170.2640  140.6780 C   0  0  1  0  0  3  0  0  0  0  0  0
  191.3000  168.8950  140.9160 O   0  0  0  0  0  1  0  0  0  0  0  0
  190.4650  170.4830  139.3650 C   0  0  0  0  0  2  0  0  0  0  0  0
  191.3140  171.3110  138.4190 C   0  0  0  0  0  1  0  0  0  0  0  0
  1  5  1  1  0  0  0
  1 23  1  0  0  0  0
  3  1  1  6  0  0  0
  3  2  1  0  0  0  0
  4  3  1  0  0  0  0
  4  2  1  0  0  0  0
  6  7  2  0  0  0  0
  7  8  1  0  0  0  0
  7  5  1  0  0  0  0
  8 19  1  0  0  0  0
  9 18  1  1  0  0  0
  9 13  1  0  0  0  0
  9 16  1  0  0  0  0
 11 10  1  0  0  0  0
 11 19  1  0  0  0  0
 12 10  1  6  0  0  0
 12 15  1  0  0  0  0
 12  9  1  0  0  0  0
 13 20  1  1  0  0  0
 15 17  1  0  0  0  0
 17 16  1  0  0  0  0
 19 14  1  6  0  0  0
 19 13  1  0  0  0  0
 20 21  1  0  0  0  0
 23 22  1  6  0  0  0
 24 23  1  0  0  0  0
 26 33  1  6  0  0  0
 26 31  1  0  0  0  0
 26 27  1  0  0  0  0
 27 30  1  6  0  0  0
 27 29  1  0  0  0  0
 28 29  1  0  0  0  0
 29 24  1  1  0  0  0
 31 25  1  6  0  0  0
 31 28  1  0  0  0  0
 32 33  1  0  0  0  0
 34 32  1  0  0  0  0
 35 32  2  0  0  0  0
 36 31  1  0  0  0  0
 37 38  1  1  0  0  0
 37 36  1  0  0  0  0
 39 37  1  0  0  0  0
 40 39  1  0  0  0  0
M  END
>  <MODEL>
1

>  <REMARK>
 VINA RESULT:      -6.6      0.000      0.000
  Name = 
  12 active torsions:
  status: ('A' for Active; 'I' for Inactive)
    1  A    between atoms: C_2  and  C_16
    2  A    between atoms: C_4  and  N_21
    3  A    between atoms: C_13  and  C_20
    4  A    between atoms: C_16  and  C_24
    5  A    between atoms: C_19  and  O_27
    6  A    between atoms: C_23  and  C_39
    7  A    between atoms: C_24  and  P_31
    8  A    between atoms: C_25  and  O_27
    9  A    between atoms: C_25  and  C_39
   10  A    between atoms: N_32  and  C_39
   11  A    between atoms: C_35  and  C_38
   12  A    between atoms: C_37  and  C_38
                            x       y       z     vdW  Elec       q    Type
                         _______ _______ _______ _____ _____    ______ ____

>  <TORSDO>
F 12

$$$$
=
 OpenBabel11072409313D

 40 43  0  0  1  0  0  0  0  0999 V2000
  192.5170  175.7750  145.3350 C   0  0  2  0  0  3  0  0  0  0  0  0
  194.8990  175.9660  145.2460 O   0  0  0  0  0  0  0  0  0  0  0  0
  193.7940  176.0590  146.1120 C   0  0  1  0  0  3  0  0  0  0  0  0
  194.4600  177.2620  145.5670 C   0  0  0  0  0  2  0  0  0  0  0  0
  191.3690  176.3050  146.0670 N   0  0  0  0  0  2  0  0  0  0  0  0
  190.7120  177.7800  144.3820 O   0  0  0  0  0  0  0  0  0  0  0  0
  190.5070  177.3070  145.5330 C   0  0  0  0  0  0  0  0  0  0  0  0
  189.3440  177.7940  146.3390 C   0  0  0  0  0  2  0  0  0  0  0  0
  185.5060  177.5270  145.6810 C   0  0  1  0  0  0  0  0  0  0  0  0
  187.1760  177.4540  143.7500 C   0  0  0  0  0  2  0  0  0  0  0  0
  188.0510  176.5850  144.6490 C   0  0  0  0  0  2  0  0  0  0  0  0
  185.7260  177.3030  144.1910 C   0  0  2  0  0  3  0  0  0  0  0  0
  186.7940  177.9330  146.4460 C   0  0  2  0  0  3  0  0  0  0  0  0
  188.0120  175.7510  146.9530 C   0  0  0  0  0  1  0  0  0  0  0  0
  184.8740  178.3580  143.5300 C   0  0  0  0  0  2  0  0  0  0  0  0
  184.4800  178.6450  145.7090 C   0  0  0  0  0  2  0  0  0  0  0  0
  183.8780  178.7400  144.4440 O   0  0  0  0  0  0  0  0  0  0  0  0
  184.9540  176.3660  146.2410 O   0  0  0  0  0  1  0  0  0  0  0  0
  188.0280  177.0300  146.1200 C   0  0  2  0  0  0  0  0  0  0  0  0
  186.5480  178.1090  147.9480 C   0  0  0  0  0  2  0  0  0  0  0  0
  186.7860  179.5440  148.3670 C   0  0  0  0  0  1  0  0  0  0  0  0
  193.2180  173.4960  145.8820 O   0  0  0  0  0  1  0  0  0  0  0  0
  192.3580  174.2660  145.0910 C   0  0  1  0  0  3  0  0  0  0  0  0
  191.0210  173.8120  145.1650 O   0  0  0  0  0  0  0  0  0  0  0  0
  190.6610  169.9670  141.7850 C   0  0  0  0  0  1  0  0  0  0  0  0
  191.0140  172.9540  141.5450 C   0  0  1  0  0  3  0  0  0  0  0  0
  191.0210  173.8940  142.7520 C   0  0  2  0  0  3  0  0  0  0  0  0
  191.5660  171.8090  143.9520 C   0  0  0  0  0  2  0  0  0  0  0  0
  190.7240  173.0740  144.0070 C   0  0  1  0  0  3  0  0  0  0  0  0
  190.1040  174.9380  142.6080 O   0  0  0  0  0  1  0  0  0  0  0  0
  191.6850  171.4090  142.1960 P   0  0  1  0  0  4  0  0  0  0  0  0
  189.2740  172.8320  139.6980 C   0  0  0  0  0  0  0  0  0  0  0  0
  189.6560  172.7200  141.0670 N   0  0  0  0  0  2  0  0  0  0  0  0
  190.4480  173.3290  138.4390 S   0  0  0  0  0  1  0  0  0  0  0  0
  188.0890  172.5850  139.3670 O   0  0  0  0  0  0  0  0  0  0  0  0
  193.4010  171.1710  141.6450 C   0  0  0  0  0  2  0  0  0  0  0  0
  194.3890  171.6510  142.6990 C   0  0  1  0  0  3  0  0  0  0  0  0
  195.1560  170.5820  143.1560 O   0  0  0  0  0  1  0  0  0  0  0  0
  195.3130  172.7050  142.1120 C   0  0  0  0  0  2  0  0  0  0  0  0
  194.7100  174.0870  142.2780 C   0  0  0  0  0  1  0  0  0  0  0  0
  1  5  1  1  0  0  0
  2  4  1  0  0  0  0
  2  3  1  0  0  0  0
  3  1  1  6  0  0  0
  4  3  1  0  0  0  0
  6  7  2  0  0  0  0
  7  5  1  0  0  0  0
  7  8  1  0  0  0  0
  9 16  1  0  0  0  0
  9 18  1  1  0  0  0
  9 13  1  0  0  0  0
 10 12  1  0  0  0  0
 10 11  1  0  0  0  0
 11 19  1  0  0  0  0
 12 15  1  6  0  0  0
 12  9  1  0  0  0  0
 13 20  1  1  0  0  0
 15 17  1  0  0  0  0
 17 16  1  0  0  0  0
 19  8  1  0  0  0  0
 19 13  1  0  0  0  0
 19 14  1  1  0  0  0
 20 21  1  0  0  0  0
 23 24  1  0  0  0  0
 23  1  1  0  0  0  0
 23 22  1  1  0  0  0
 26 33  1  1  0  0  0
 26 31  1  0  0  0  0
 26 27  1  0  0  0  0
 27 30  1  6  0  0  0
 27 29  1  0  0  0  0
 28 29  1  0  0  0  0
 29 24  1  1  0  0  0
 31 25  1  6  0  0  0
 31 28  1  0  0  0  0
 32 33  1  0  0  0  0
 34 32  1  0  0  0  0
 35 32  2  0  0  0  0
 36 31  1  0  0  0  0
 36 37  1  0  0  0  0
 37 38  1  6  0  0  0
 39 40  1  0  0  0  0
 39 37  1  0  0  0  0
M  END
>  <MODEL>
2

>  <REMARK>
 VINA RESULT:      -6.6      2.043      2.980
  Name = 
  12 active torsions:
  status: ('A' for Active; 'I' for Inactive)
    1  A    between atoms: C_2  and  C_16
    2  A    between atoms: C_4  and  N_21
    3  A    between atoms: C_13  and  C_20
    4  A    between atoms: C_16  and  C_24
    5  A    between atoms: C_19  and  O_27
    6  A    between atoms: C_23  and  C_39
    7  A    between atoms: C_24  and  P_31
    8  A    between atoms: C_25  and  O_27
    9  A    between atoms: C_25  and  C_39
   10  A    between atoms: N_32  and  C_39
   11  A    between atoms: C_35  and  C_38
   12  A    between atoms: C_37  and  C_38
                            x       y       z     vdW  Elec       q    Type
                         _______ _______ _______ _____ _____    ______ ____

>  <TORSDO>
F 12

$$$$
=
 OpenBabel11072409313D

 40 43  0  0  1  0  0  0  0  0999 V2000
  192.6950  176.0650  145.1680 C   0  0  2  0  0  3  0  0  0  0  0  0
  194.9060  175.9640  146.0750 O   0  0  0  0  0  0  0  0  0  0  0  0
  193.7670  176.7840  145.9730 C   0  0  1  0  0  3  0  0  0  0  0  0
  194.9650  177.0060  145.1330 C   0  0  0  0  0  2  0  0  0  0  0  0
  191.5430  176.9450  144.9880 N   0  0  0  0  0  2  0  0  0  0  0  0
  191.2440  176.4330  142.7300 O   0  0  0  0  0  0  0  0  0  0  0  0
  190.8640  177.0830  143.7410 C   0  0  0  0  0  0  0  0  0  0  0  0
  189.6850  177.9980  143.6350 C   0  0  0  0  0  2  0  0  0  0  0  0
  186.1000  177.6550  145.1380 C   0  0  1  0  0  0  0  0  0  0  0  0
  186.4830  178.8730  142.9270 C   0  0  0  0  0  2  0  0  0  0  0  0
  187.4830  177.7720  142.5890 C   0  0  0  0  0  2  0  0  0  0  0  0
  185.4710  178.3220  143.9220 C   0  0  2  0  0  3  0  0  0  0  0  0
  187.6500  177.7300  145.1580 C   0  0  2  0  0  3  0  0  0  0  0  0
  188.4520  175.8070  143.6880 C   0  0  0  0  0  1  0  0  0  0  0  0
  184.6510  179.4480  144.5010 C   0  0  0  0  0  2  0  0  0  0  0  0
  185.5010  178.4300  146.2980 C   0  0  0  0  0  2  0  0  0  0  0  0
  184.3740  179.1320  145.8410 O   0  0  0  0  0  0  0  0  0  0  0  0
  185.6770  176.3190  145.1970 O   0  0  0  0  0  1  0  0  0  0  0  0
  188.3140  177.3230  143.8020 C   0  0  2  0  0  0  0  0  0  0  0  0
  188.2520  177.0150  146.3710 C   0  0  0  0  0  2  0  0  0  0  0  0
  189.0770  177.9720  147.2040 C   0  0  0  0  0  1  0  0  0  0  0  0
  192.0460  174.9320  147.2380 O   0  0  0  0  0  1  0  0  0  0  0  0
  192.2790  174.7610  145.8680 C   0  0  1  0  0  3  0  0  0  0  0  0
  191.2160  174.0820  145.2310 O   0  0  0  0  0  0  0  0  0  0  0  0
  194.1260  169.9470  144.3580 C   0  0  0  0  0  1  0  0  0  0  0  0
  192.4150  171.7210  142.6190 C   0  0  1  0  0  3  0  0  0  0  0  0
  191.5790  172.8770  143.1710 C   0  0  2  0  0  3  0  0  0  0  0  0
  193.1640  172.6860  145.0510 C   0  0  0  0  0  2  0  0  0  0  0  0
  191.6990  172.8770  144.6940 C   0  0  1  0  0  3  0  0  0  0  0  0
  190.2420  172.7930  142.7740 O   0  0  0  0  0  1  0  0  0  0  0  0
  193.8230  171.6280  143.7450 P   0  0  1  0  0  4  0  0  0  0  0  0
  191.1790  169.7930  141.5180 C   0  0  0  0  0  0  0  0  0  0  0  0
  191.6770  170.4640  142.6730 N   0  0  0  0  0  2  0  0  0  0  0  0
  191.3810  170.4840  139.8780 S   0  0  0  0  0  1  0  0  0  0  0  0
  190.5800  168.6990  141.6520 O   0  0  0  0  0  0  0  0  0  0  0  0
  195.3140  172.3190  142.9670 C   0  0  0  0  0  2  0  0  0  0  0  0
  195.5480  173.7580  143.4080 C   0  0  1  0  0  3  0  0  0  0  0  0
  196.6950  173.8340  144.1960 O   0  0  0  0  0  1  0  0  0  0  0  0
  195.7220  174.6570  142.1960 C   0  0  0  0  0  2  0  0  0  0  0  0
  194.4000  175.2950  141.8170 C   0  0  0  0  0  1  0  0  0  0  0  0
  1  5  1  1  0  0  0
  1 23  1  0  0  0  0
  3  1  1  6  0  0  0
  3  2  1  0  0  0  0
  4  3  1  0  0  0  0
  4  2  1  0  0  0  0
  6  7  2  0  0  0  0
  7  5  1  0  0  0  0
  8  7  1  0  0  0  0
  8 19  1  0  0  0  0
  9 13  1  0  0  0  0
  9 18  1  1  0  0  0
  9 16  1  0  0  0  0
 11 10  1  0  0  0  0
 11 19  1  0  0  0  0
 12 10  1  6  0  0  0
 12 15  1  0  0  0  0
 12  9  1  0  0  0  0
 13 20  1  1  0  0  0
 15 17  1  0  0  0  0
 17 16  1  0  0  0  0
 19 14  1  6  0  0  0
 19 13  1  0  0  0  0
 20 21  1  0  0  0  0
 23 22  1  1  0  0  0
 24 23  1  0  0  0  0
 26 33  1  1  0  0  0
 26 27  1  0  0  0  0
 26 31  1  0  0  0  0
 27 30  1  1  0  0  0
 27 29  1  0  0  0  0
 29 28  1  0  0  0  0
 29 24  1  6  0  0  0
 31 25  1  1  0  0  0
 31 28  1  0  0  0  0
 32 35  2  0  0  0  0
 32 33  1  0  0  0  0
 34 32  1  0  0  0  0
 36 37  1  0  0  0  0
 36 31  1  0  0  0  0
 37 38  1  1  0  0  0
 39 37  1  0  0  0  0
 40 39  1  0  0  0  0
M  END
>  <MODEL>
3

>  <REMARK>
 VINA RESULT:      -6.5      1.732      3.290
  Name = 
  12 active torsions:
  status: ('A' for Active; 'I' for Inactive)
    1  A    between atoms: C_2  and  C_16
    2  A    between atoms: C_4  and  N_21
    3  A    between atoms: C_13  and  C_20
    4  A    between atoms: C_16  and  C_24
    5  A    between atoms: C_19  and  O_27
    6  A    between atoms: C_23  and  C_39
    7  A    between atoms: C_24  and  P_31
    8  A    between atoms: C_25  and  O_27
    9  A    between atoms: C_25  and  C_39
   10  A    between atoms: N_32  and  C_39
   11  A    between atoms: C_35  and  C_38
   12  A    between atoms: C_37  and  C_38
                            x       y       z     vdW  Elec       q    Type
                         _______ _______ _______ _____ _____    ______ ____

>  <TORSDO>
F 12

$$$$
=
 OpenBabel11072409313D

 40 43  0  0  1  0  0  0  0  0999 V2000
  191.0570  172.8740  140.9690 C   0  0  2  0  0  3  0  0  0  0  0  0
  189.3540  172.3490  139.3730 O   0  0  0  0  0  0  0  0  0  0  0  0
  190.7470  172.3480  139.5760 C   0  0  1  0  0  3  0  0  0  0  0  0
  190.0760  173.3970  138.7770 C   0  0  0  0  0  2  0  0  0  0  0  0
  192.4590  172.6180  141.2900 N   0  0  0  0  0  2  0  0  0  0  0  0
  193.0130  174.8640  141.6010 O   0  0  0  0  0  0  0  0  0  0  0  0
  193.3840  173.6590  141.5960 C   0  0  0  0  0  0  0  0  0  0  0  0
  194.8040  173.3190  141.9240 C   0  0  0  0  0  2  0  0  0  0  0  0
  194.9570  174.9860  145.4500 C   0  0  1  0  0  0  0  0  0  0  0  0
  193.0180  173.4530  144.8070 C   0  0  0  0  0  2  0  0  0  0  0  0
  194.0560  172.5630  144.1290 C   0  0  0  0  0  2  0  0  0  0  0  0
  193.7060  174.2480  145.9090 C   0  0  2  0  0  3  0  0  0  0  0  0
  195.2460  174.8380  143.9320 C   0  0  2  0  0  3  0  0  0  0  0  0
  196.4640  172.6120  143.6770 C   0  0  0  0  0  1  0  0  0  0  0  0
  192.7920  175.3420  146.4010 C   0  0  0  0  0  2  0  0  0  0  0  0
  194.6510  176.4290  145.8090 C   0  0  0  0  0  2  0  0  0  0  0  0
  193.5880  176.4530  146.7260 O   0  0  0  0  0  0  0  0  0  0  0  0
  196.0530  174.5370  146.2000 O   0  0  0  0  0  1  0  0  0  0  0  0
  195.1600  173.3620  143.4190 C   0  0  2  0  0  0  0  0  0  0  0  0
  196.5310  175.5560  143.5120 C   0  0  0  0  0  2  0  0  0  0  0  0
  196.2480  176.5760  142.4300 C   0  0  0  0  0  1  0  0  0  0  0  0
  190.5510  170.9380  142.3760 O   0  0  0  0  0  1  0  0  0  0  0  0
  190.1330  172.2220  142.0090 C   0  0  1  0  0  3  0  0  0  0  0  0
  189.8740  173.0370  143.1360 O   0  0  0  0  0  0  0  0  0  0  0  0
  189.7270  178.1150  142.4140 C   0  0  0  0  0  1  0  0  0  0  0  0
  187.6290  175.9580  142.6240 C   0  0  1  0  0  3  0  0  0  0  0  0
  187.9680  174.4740  142.7770 C   0  0  2  0  0  3  0  0  0  0  0  0
  190.1180  175.3890  143.5650 C   0  0  0  0  0  2  0  0  0  0  0  0
  189.4850  174.3140  142.6970 C   0  0  1  0  0  3  0  0  0  0  0  0
  187.3310  173.6890  141.8120 O   0  0  0  0  0  1  0  0  0  0  0  0
  189.0020  176.8020  143.4370 P   0  0  1  0  0  4  0  0  0  0  0  0
  186.6480  177.2730  140.6840 C   0  0  0  0  0  0  0  0  0  0  0  0
  187.5930  176.3490  141.2190 N   0  0  0  0  0  2  0  0  0  0  0  0
  185.3720  178.0020  141.7080 S   0  0  0  0  0  1  0  0  0  0  0  0
  186.7060  177.5770  139.4670 O   0  0  0  0  0  0  0  0  0  0  0  0
  188.4930  177.4440  145.0600 C   0  0  0  0  0  2  0  0  0  0  0  0
  189.2590  176.7630  146.1860 C   0  0  1  0  0  3  0  0  0  0  0  0
  189.6800  177.7100  147.1160 O   0  0  0  0  0  1  0  0  0  0  0  0
  188.3730  175.7450  146.8840 C   0  0  0  0  0  2  0  0  0  0  0  0
  189.1640  174.4950  147.2140 C   0  0  0  0  0  1  0  0  0  0  0  0
  1  5  1  1  0  0  0
  1 23  1  0  0  0  0
  2  3  1  0  0  0  0
  3  1  1  1  0  0  0
  4  2  1  0  0  0  0
  4  3  1  0  0  0  0
  5  7  1  0  0  0  0
  7  6  2  0  0  0  0
  7  8  1  0  0  0  0
  8 19  1  0  0  0  0
  9 16  1  0  0  0  0
  9 12  1  0  0  0  0
  9 18  1  1  0  0  0
 11 10  1  0  0  0  0
 12 10  1  6  0  0  0
 12 15  1  0  0  0  0
 13 20  1  1  0  0  0
 13  9  1  0  0  0  0
 15 17  1  0  0  0  0
 16 17  1  0  0  0  0
 19 14  1  1  0  0  0
 19 13  1  0  0  0  0
 19 11  1  0  0  0  0
 21 20  1  0  0  0  0
 23 22  1  1  0  0  0
 23 24  1  0  0  0  0
 26 33  1  6  0  0  0
 26 27  1  0  0  0  0
 26 31  1  0  0  0  0
 27 30  1  6  0  0  0
 29 27  1  0  0  0  0
 29 24  1  1  0  0  0
 29 28  1  0  0  0  0
 31 25  1  6  0  0  0
 31 28  1  0  0  0  0
 31 36  1  0  0  0  0
 32 33  1  0  0  0  0
 32 34  1  0  0  0  0
 35 32  2  0  0  0  0
 36 37  1  0  0  0  0
 37 39  1  0  0  0  0
 37 38  1  1  0  0  0
 39 40  1  0  0  0  0
M  END
>  <MODEL>
4

>  <REMARK>
 VINA RESULT:      -6.5      3.096      7.711
  Name = 
  12 active torsions:
  status: ('A' for Active; 'I' for Inactive)
    1  A    between atoms: C_2  and  C_16
    2  A    between atoms: C_4  and  N_21
    3  A    between atoms: C_13  and  C_20
    4  A    between atoms: C_16  and  C_24
    5  A    between atoms: C_19  and  O_27
    6  A    between atoms: C_23  and  C_39
    7  A    between atoms: C_24  and  P_31
    8  A    between atoms: C_25  and  O_27
    9  A    between atoms: C_25  and  C_39
   10  A    between atoms: N_32  and  C_39
   11  A    between atoms: C_35  and  C_38
   12  A    between atoms: C_37  and  C_38
                            x       y       z     vdW  Elec       q    Type
                         _______ _______ _______ _____ _____    ______ ____

>  <TORSDO>
F 12

$$$$
=
 OpenBabel11072409313D

 40 43  0  0  1  0  0  0  0  0999 V2000
  192.6990  175.9180  145.4730 C   0  0  2  0  0  3  0  0  0  0  0  0
  195.0880  176.0030  145.5470 O   0  0  0  0  0  0  0  0  0  0  0  0
  193.9290  176.2090  146.3190 C   0  0  1  0  0  3  0  0  0  0  0  0
  194.6880  177.3380  145.7340 C   0  0  0  0  0  2  0  0  0  0  0  0
  191.5040  176.3990  146.1610 N   0  0  0  0  0  2  0  0  0  0  0  0
  190.8390  177.8320  144.4430 O   0  0  0  0  0  0  0  0  0  0  0  0
  190.6170  177.3580  145.5900 C   0  0  0  0  0  0  0  0  0  0  0  0
  189.4070  177.7970  146.3520 C   0  0  0  0  0  2  0  0  0  0  0  0
  185.6170  177.4190  145.4950 C   0  0  1  0  0  0  0  0  0  0  0  0
  187.3880  177.3850  143.6550 C   0  0  0  0  0  2  0  0  0  0  0  0
  188.2380  176.5450  144.6030 C   0  0  0  0  0  2  0  0  0  0  0  0
  185.9220  177.1950  144.0190 C   0  0  2  0  0  3  0  0  0  0  0  0
  186.8510  177.8650  146.3240 C   0  0  2  0  0  3  0  0  0  0  0  0
  188.1010  175.7200  146.9070 C   0  0  0  0  0  1  0  0  0  0  0  0
  185.0770  178.2230  143.3080 C   0  0  0  0  0  2  0  0  0  0  0  0
  184.5600  178.5080  145.4620 C   0  0  0  0  0  2  0  0  0  0  0  0
  184.0240  178.5810  144.1660 O   0  0  0  0  0  0  0  0  0  0  0  0
  185.0690  176.2460  146.0310 O   0  0  0  0  0  1  0  0  0  0  0  0
  188.1260  176.9950  146.0680 C   0  0  2  0  0  0  0  0  0  0  0  0
  186.5210  178.0410  147.8090 C   0  0  0  0  0  2  0  0  0  0  0  0
  186.7610  179.4690  148.2480 C   0  0  0  0  0  1  0  0  0  0  0  0
  191.3030  173.9090  145.4070 O   0  0  0  0  0  1  0  0  0  0  0  0
  192.5890  174.4130  145.1810 C   0  0  1  0  0  3  0  0  0  0  0  0
  193.0910  174.0370  143.9130 O   0  0  0  0  0  0  0  0  0  0  0  0
  190.7470  169.9270  141.9260 C   0  0  0  0  0  1  0  0  0  0  0  0
  190.8560  172.8500  141.1870 C   0  0  1  0  0  3  0  0  0  0  0  0
  191.6000  173.8960  142.0190 C   0  0  2  0  0  3  0  0  0  0  0  0
  192.7840  171.9010  142.8560 C   0  0  0  0  0  2  0  0  0  0  0  0
  192.1470  173.2160  143.2740 C   0  0  1  0  0  3  0  0  0  0  0  0
  190.7820  174.9780  142.3540 O   0  0  0  0  0  1  0  0  0  0  0  0
  191.7960  171.3330  141.4560 P   0  0  1  0  0  4  0  0  0  0  0  0
  188.3340  172.9950  140.9150 C   0  0  0  0  0  0  0  0  0  0  0  0
  189.4940  172.6600  141.6740 N   0  0  0  0  0  2  0  0  0  0  0  0
  188.4630  173.7370  139.2900 S   0  0  0  0  0  1  0  0  0  0  0  0
  187.1970  172.7710  141.3980 O   0  0  0  0  0  0  0  0  0  0  0  0
  192.8070  170.9360  139.9980 C   0  0  0  0  0  2  0  0  0  0  0  0
  192.0820  171.3000  138.7090 C   0  0  1  0  0  3  0  0  0  0  0  0
  192.9950  171.7610  137.7630 O   0  0  0  0  0  1  0  0  0  0  0  0
  191.3620  170.0850  138.1500 C   0  0  0  0  0  2  0  0  0  0  0  0
  189.8600  170.2820  138.2200 C   0  0  0  0  0  1  0  0  0  0  0  0
  1  5  1  1  0  0  0
  2  4  1  0  0  0  0
  2  3  1  0  0  0  0
  3  1  1  6  0  0  0
  4  3  1  0  0  0  0
  6  7  2  0  0  0  0
  7  5  1  0  0  0  0
  7  8  1  0  0  0  0
  9 18  1  1  0  0  0
  9 13  1  0  0  0  0
 10 12  1  0  0  0  0
 10 11  1  0  0  0  0
 11 19  1  0  0  0  0
 12 15  1  6  0  0  0
 12  9  1  0  0  0  0
 13 20  1  1  0  0  0
 15 17  1  0  0  0  0
 16  9  1  0  0  0  0
 17 16  1  0  0  0  0
 19 13  1  0  0  0  0
 19  8  1  0  0  0  0
 19 14  1  1  0  0  0
 20 21  1  0  0  0  0
 23 22  1  6  0  0  0
 23  1  1  0  0  0  0
 24 23  1  0  0  0  0
 26 31  1  0  0  0  0
 26 33  1  1  0  0  0
 26 27  1  0  0  0  0
 27 30  1  1  0  0  0
 27 29  1  0  0  0  0
 28 29  1  0  0  0  0
 29 24  1  6  0  0  0
 31 25  1  1  0  0  0
 31 28  1  0  0  0  0
 32 35  2  0  0  0  0
 32 33  1  0  0  0  0
 34 32  1  0  0  0  0
 36 31  1  0  0  0  0
 37 38  1  6  0  0  0
 37 36  1  0  0  0  0
 39 40  1  0  0  0  0
 39 37  1  0  0  0  0
M  END
>  <MODEL>
5

>  <REMARK>
 VINA RESULT:      -6.5      2.046      2.834
  Name = 
  12 active torsions:
  status: ('A' for Active; 'I' for Inactive)
    1  A    between atoms: C_2  and  C_16
    2  A    between atoms: C_4  and  N_21
    3  A    between atoms: C_13  and  C_20
    4  A    between atoms: C_16  and  C_24
    5  A    between atoms: C_19  and  O_27
    6  A    between atoms: C_23  and  C_39
    7  A    between atoms: C_24  and  P_31
    8  A    between atoms: C_25  and  O_27
    9  A    between atoms: C_25  and  C_39
   10  A    between atoms: N_32  and  C_39
   11  A    between atoms: C_35  and  C_38
   12  A    between atoms: C_37  and  C_38
                            x       y       z     vdW  Elec       q    Type
                         _______ _______ _______ _____ _____    ______ ____

>  <TORSDO>
F 12

$$$$
=
 OpenBabel11072409313D

 40 43  0  0  1  0  0  0  0  0999 V2000
  192.7400  176.0080  145.4810 C   0  0  2  0  0  3  0  0  0  0  0  0
  194.9000  176.1240  146.5040 O   0  0  0  0  0  0  0  0  0  0  0  0
  193.6930  176.8300  146.3360 C   0  0  1  0  0  3  0  0  0  0  0  0
  194.9080  177.1650  145.5590 C   0  0  0  0  0  2  0  0  0  0  0  0
  191.5480  176.7960  145.1790 N   0  0  0  0  0  2  0  0  0  0  0  0
  191.9930  176.9760  142.8950 O   0  0  0  0  0  0  0  0  0  0  0  0
  191.2340  177.2490  143.8640 C   0  0  0  0  0  0  0  0  0  0  0  0
  189.9880  178.0450  143.6300 C   0  0  0  0  0  2  0  0  0  0  0  0
  186.2010  177.1520  143.9390 C   0  0  1  0  0  0  0  0  0  0  0  0
  187.0420  178.6690  142.0650 C   0  0  0  0  0  2  0  0  0  0  0  0
  188.2360  177.7270  141.9500 C   0  0  0  0  0  2  0  0  0  0  0  0
  185.8680  177.8980  142.6530 C   0  0  2  0  0  3  0  0  0  0  0  0
  187.6540  177.3820  144.4340 C   0  0  2  0  0  3  0  0  0  0  0  0
  189.0990  175.7490  143.1120 C   0  0  0  0  0  1  0  0  0  0  0  0
  184.7720  178.8530  143.0540 C   0  0  0  0  0  2  0  0  0  0  0  0
  185.1930  177.7110  144.9270 C   0  0  0  0  0  2  0  0  0  0  0  0
  184.1630  178.3460  144.2140 O   0  0  0  0  0  0  0  0  0  0  0  0
  185.9630  175.7830  143.7480 O   0  0  0  0  0  1  0  0  0  0  0  0
  188.7320  177.2170  143.3120 C   0  0  2  0  0  0  0  0  0  0  0  0
  187.9690  176.5860  145.7040 C   0  0  0  0  0  2  0  0  0  0  0  0
  188.3320  177.5130  146.8430 C   0  0  0  0  0  1  0  0  0  0  0  0
  191.4850  174.9060  147.2690 O   0  0  0  0  0  1  0  0  0  0  0  0
  192.3630  174.7030  146.1980 C   0  0  1  0  0  3  0  0  0  0  0  0
  191.9110  173.6820  145.3290 O   0  0  0  0  0  0  0  0  0  0  0  0
  194.5460  173.4230  140.9330 C   0  0  0  0  0  1  0  0  0  0  0  0
  194.2690  171.6130  143.3310 C   0  0  1  0  0  3  0  0  0  0  0  0
  193.4450  171.9810  144.5660 C   0  0  2  0  0  3  0  0  0  0  0  0
  192.3710  173.5310  142.9750 C   0  0  0  0  0  2  0  0  0  0  0  0
  192.9170  173.4040  144.3880 C   0  0  1  0  0  3  0  0  0  0  0  0
  194.1870  171.8660  145.7440 O   0  0  0  0  0  1  0  0  0  0  0  0
  193.4210  172.4530  141.9770 P   0  0  1  0  0  4  0  0  0  0  0  0
  196.7760  171.2930  143.5880 C   0  0  0  0  0  0  0  0  0  0  0  0
  195.6300  172.1270  143.4330 N   0  0  0  0  0  2  0  0  0  0  0  0
  196.6250  169.5140  143.7220 S   0  0  0  0  0  1  0  0  0  0  0  0
  197.9160  171.8170  143.6370 O   0  0  0  0  0  0  0  0  0  0  0  0
  192.4650  171.2670  140.9830 C   0  0  0  0  0  2  0  0  0  0  0  0
  191.0980  171.0080  141.6010 C   0  0  1  0  0  3  0  0  0  0  0  0
  190.1050  171.6110  140.8310 O   0  0  0  0  0  1  0  0  0  0  0  0
  190.8290  169.5140  141.6710 C   0  0  0  0  0  2  0  0  0  0  0  0
  190.8360  168.9100  140.2800 C   0  0  0  0  0  1  0  0  0  0  0  0
  1  5  1  1  0  0  0
  1 23  1  0  0  0  0
  3  1  1  6  0  0  0
  3  2  1  0  0  0  0
  4  3  1  0  0  0  0
  4  2  1  0  0  0  0
  6  7  2  0  0  0  0
  7  5  1  0  0  0  0
  8  7  1  0  0  0  0
  9 18  1  6  0  0  0
  9 13  1  0  0  0  0
  9 16  1  0  0  0  0
 11 10  1  0  0  0  0
 11 19  1  0  0  0  0
 12 10  1  1  0  0  0
 12 15  1  0  0  0  0
 12  9  1  0  0  0  0
 13 20  1  1  0  0  0
 15 17  1  0  0  0  0
 17 16  1  0  0  0  0
 19 14  1  6  0  0  0
 19  8  1  0  0  0  0
 19 13  1  0  0  0  0
 20 21  1  0  0  0  0
 23 22  1  1  0  0  0
 24 23  1  0  0  0  0
 26 33  1  1  0  0  0
 26 27  1  0  0  0  0
 27 30  1  1  0  0  0
 28 29  1  0  0  0  0
 29 27  1  0  0  0  0
 29 24  1  1  0  0  0
 31 25  1  6  0  0  0
 31 28  1  0  0  0  0
 31 26  1  0  0  0  0
 32 35  2  0  0  0  0
 32 34  1  0  0  0  0
 33 32  1  0  0  0  0
 36 37  1  0  0  0  0
 36 31  1  0  0  0  0
 37 38  1  6  0  0  0
 37 39  1  0  0  0  0
 40 39  1  0  0  0  0
M  END
>  <MODEL>
6

>  <REMARK>
 VINA RESULT:      -6.1      1.937      2.390
  Name = 
  12 active torsions:
  status: ('A' for Active; 'I' for Inactive)
    1  A    between atoms: C_2  and  C_16
    2  A    between atoms: C_4  and  N_21
    3  A    between atoms: C_13  and  C_20
    4  A    between atoms: C_16  and  C_24
    5  A    between atoms: C_19  and  O_27
    6  A    between atoms: C_23  and  C_39
    7  A    between atoms: C_24  and  P_31
    8  A    between atoms: C_25  and  O_27
    9  A    between atoms: C_25  and  C_39
   10  A    between atoms: N_32  and  C_39
   11  A    between atoms: C_35  and  C_38
   12  A    between atoms: C_37  and  C_38
                            x       y       z     vdW  Elec       q    Type
                         _______ _______ _______ _____ _____    ______ ____

>  <TORSDO>
F 12

$$$$
=
 OpenBabel11072409313D

 40 43  0  0  1  0  0  0  0  0999 V2000
  192.8250  175.8690  145.2330 C   0  0  2  0  0  3  0  0  0  0  0  0
  194.9130  175.9180  146.3990 O   0  0  0  0  0  0  0  0  0  0  0  0
  193.5750  176.3490  146.4670 C   0  0  1  0  0  3  0  0  0  0  0  0
  194.6690  177.2630  146.0690 C   0  0  0  0  0  2  0  0  0  0  0  0
  191.4560  176.3790  145.2620 N   0  0  0  0  0  2  0  0  0  0  0  0
  191.8140  178.0240  143.6460 O   0  0  0  0  0  0  0  0  0  0  0  0
  191.0160  177.4600  144.4430 C   0  0  0  0  0  0  0  0  0  0  0  0
  189.5950  177.9210  144.5210 C   0  0  0  0  0  2  0  0  0  0  0  0
  186.0940  177.0780  143.0150 C   0  0  1  0  0  0  0  0  0  0  0  0
  187.9780  177.9630  141.5370 C   0  0  0  0  0  2  0  0  0  0  0  0
  188.9150  177.0590  142.3320 C   0  0  0  0  0  2  0  0  0  0  0  0
  186.5720  177.3820  141.6020 C   0  0  2  0  0  3  0  0  0  0  0  0
  187.1090  177.4840  144.1170 C   0  0  2  0  0  3  0  0  0  0  0  0
  188.7730  175.5570  144.2640 C   0  0  0  0  0  1  0  0  0  0  0  0
  185.5750  178.3890  141.0840 C   0  0  0  0  0  2  0  0  0  0  0  0
  184.8160  177.8910  143.1240 C   0  0  0  0  0  2  0  0  0  0  0  0
  184.3950  178.2500  141.8340 O   0  0  0  0  0  0  0  0  0  0  0  0
  185.7920  175.7120  143.1110 O   0  0  0  0  0  1  0  0  0  0  0  0
  188.5700  177.0060  143.8290 C   0  0  2  0  0  0  0  0  0  0  0  0
  186.6160  177.1260  145.5220 C   0  0  0  0  0  2  0  0  0  0  0  0
  186.1390  178.3610  146.2550 C   0  0  0  0  0  1  0  0  0  0  0  0
  191.5600  173.7770  145.3280 O   0  0  0  0  0  1  0  0  0  0  0  0
  192.8330  174.3350  145.1600 C   0  0  1  0  0  3  0  0  0  0  0  0
  193.4910  173.8190  144.0200 O   0  0  0  0  0  0  0  0  0  0  0  0
  190.9590  169.9240  141.8400 C   0  0  0  0  0  1  0  0  0  0  0  0
  191.6560  172.7280  140.9740 C   0  0  1  0  0  3  0  0  0  0  0  0
  192.3820  173.7260  141.8780 C   0  0  2  0  0  3  0  0  0  0  0  0
  193.0640  171.6640  143.0460 C   0  0  0  0  0  2  0  0  0  0  0  0
  192.5710  173.0860  143.2530 C   0  0  1  0  0  3  0  0  0  0  0  0
  191.6930  174.9370  141.9810 O   0  0  0  0  0  1  0  0  0  0  0  0
  192.2830  171.1220  141.5110 P   0  0  1  0  0  4  0  0  0  0  0  0
  189.2720  173.0240  140.1490 C   0  0  0  0  0  0  0  0  0  0  0  0
  190.2140  172.7740  141.1890 N   0  0  0  0  0  2  0  0  0  0  0  0
  189.8000  173.3590  138.4710 S   0  0  0  0  0  1  0  0  0  0  0  0
  188.0450  173.0160  140.4160 O   0  0  0  0  0  0  0  0  0  0  0  0
  193.4780  170.4640  140.3090 C   0  0  0  0  0  2  0  0  0  0  0  0
  194.1320  171.5850  139.5130 C   0  0  1  0  0  3  0  0  0  0  0  0
  195.3080  171.9910  140.1390 O   0  0  0  0  0  1  0  0  0  0  0  0
  194.4600  171.1090  138.1080 C   0  0  0  0  0  2  0  0  0  0  0  0
  195.3190  172.1320  137.3910 C   0  0  0  0  0  1  0  0  0  0  0  0
  1  5  1  1  0  0  0
  2  3  1  0  0  0  0
  3  1  1  6  0  0  0
  4  2  1  0  0  0  0
  4  3  1  0  0  0  0
  6  7  2  0  0  0  0
  7  8  1  0  0  0  0
  7  5  1  0  0  0  0
  9 18  1  1  0  0  0
  9 16  1  0  0  0  0
  9 13  1  0  0  0  0
 10 12  1  0  0  0  0
 10 11  1  0  0  0  0
 11 19  1  0  0  0  0
 12 15  1  1  0  0  0
 12  9  1  0  0  0  0
 13 20  1  1  0  0  0
 15 17  1  0  0  0  0
 17 16  1  0  0  0  0
 19 13  1  0  0  0  0
 19 14  1  1  0  0  0
 19  8  1  0  0  0  0
 20 21  1  0  0  0  0
 23  1  1  0  0  0  0
 23 22  1  6  0  0  0
 24 23  1  0  0  0  0
 26 33  1  1  0  0  0
 26 31  1  0  0  0  0
 26 27  1  0  0  0  0
 27 30  1  1  0  0  0
 27 29  1  0  0  0  0
 28 29  1  0  0  0  0
 29 24  1  1  0  0  0
 31 25  1  1  0  0  0
 31 28  1  0  0  0  0
 32 35  2  0  0  0  0
 32 33  1  0  0  0  0
 34 32  1  0  0  0  0
 36 31  1  0  0  0  0
 37 38  1  1  0  0  0
 37 36  1  0  0  0  0
 39 37  1  0  0  0  0
 40 39  1  0  0  0  0
M  END
>  <MODEL>
7

>  <REMARK>
 VINA RESULT:      -6.1      2.134      2.926
  Name = 
  12 active torsions:
  status: ('A' for Active; 'I' for Inactive)
    1  A    between atoms: C_2  and  C_16
    2  A    between atoms: C_4  and  N_21
    3  A    between atoms: C_13  and  C_20
    4  A    between atoms: C_16  and  C_24
    5  A    between atoms: C_19  and  O_27
    6  A    between atoms: C_23  and  C_39
    7  A    between atoms: C_24  and  P_31
    8  A    between atoms: C_25  and  O_27
    9  A    between atoms: C_25  and  C_39
   10  A    between atoms: N_32  and  C_39
   11  A    between atoms: C_35  and  C_38
   12  A    between atoms: C_37  and  C_38
                            x       y       z     vdW  Elec       q    Type
                         _______ _______ _______ _____ _____    ______ ____

>  <TORSDO>
F 12

$$$$
=
 OpenBabel11072409313D

 40 43  0  0  1  0  0  0  0  0999 V2000
  192.2630  175.9710  144.7480 C   0  0  2  0  0  3  0  0  0  0  0  0
  194.6310  175.6340  144.7240 O   0  0  0  0  0  0  0  0  0  0  0  0
  193.5130  175.7120  145.5760 C   0  0  1  0  0  3  0  0  0  0  0  0
  194.4600  176.8400  145.4260 C   0  0  0  0  0  2  0  0  0  0  0  0
  191.1790  176.4110  145.6220 N   0  0  0  0  0  2  0  0  0  0  0  0
  190.4930  178.1590  144.2360 O   0  0  0  0  0  0  0  0  0  0  0  0
  190.3310  177.5130  145.3060 C   0  0  0  0  0  0  0  0  0  0  0  0
  189.2340  177.9000  146.2470 C   0  0  0  0  0  2  0  0  0  0  0  0
  185.3760  177.5990  145.7370 C   0  0  1  0  0  0  0  0  0  0  0  0
  186.9690  177.5540  143.7420 C   0  0  0  0  0  2  0  0  0  0  0  0
  187.8870  176.6880  144.6000 C   0  0  0  0  0  2  0  0  0  0  0  0
  185.5390  177.3860  144.2380 C   0  0  2  0  0  3  0  0  0  0  0  0
  186.6880  178.0130  146.4540 C   0  0  2  0  0  3  0  0  0  0  0  0
  187.9460  175.8390  146.8990 C   0  0  0  0  0  1  0  0  0  0  0  0
  184.6530  178.4370  143.6170 C   0  0  0  0  0  2  0  0  0  0  0  0
  184.3400  178.7060  145.8120 C   0  0  0  0  0  2  0  0  0  0  0  0
  183.6900  178.8040  144.5710 O   0  0  0  0  0  0  0  0  0  0  0  0
  184.8560  176.4290  146.3100 O   0  0  0  0  0  1  0  0  0  0  0  0
  187.9180  177.1240  146.0740 C   0  0  2  0  0  0  0  0  0  0  0  0
  186.4990  178.1770  147.9650 C   0  0  0  0  0  2  0  0  0  0  0  0
  186.7850  179.6010  148.3910 C   0  0  0  0  0  1  0  0  0  0  0  0
  190.7770  174.0370  144.5540 O   0  0  0  0  0  1  0  0  0  0  0  0
  191.8590  174.7070  143.9730 C   0  0  1  0  0  3  0  0  0  0  0  0
  191.6670  174.9210  142.5880 O   0  0  0  0  0  0  0  0  0  0  0  0
  194.3180  171.2770  140.1320 C   0  0  0  0  0  1  0  0  0  0  0  0
  191.5220  172.3800  139.8760 C   0  0  1  0  0  3  0  0  0  0  0  0
  190.9560  173.4500  140.8110 C   0  0  2  0  0  3  0  0  0  0  0  0
  193.3490  173.8830  141.2210 C   0  0  0  0  0  2  0  0  0  0  0  0
  191.9930  173.7440  141.8940 C   0  0  1  0  0  3  0  0  0  0  0  0
  189.7390  173.0600  141.3780 O   0  0  0  0  0  1  0  0  0  0  0  0
  193.2890  172.7410  139.8230 P   0  0  1  0  0  4  0  0  0  0  0  0
  190.7200  169.9760  139.6960 C   0  0  0  0  0  0  0  0  0  0  0  0
  191.3240  171.0420  140.4240 N   0  0  0  0  0  2  0  0  0  0  0  0
  190.0970  170.2150  138.0340 S   0  0  0  0  0  1  0  0  0  0  0  0
  190.6160  168.8460  140.2330 O   0  0  0  0  0  0  0  0  0  0  0  0
  193.7370  173.5350  138.2490 C   0  0  0  0  0  2  0  0  0  0  0  0
  195.2480  173.6470  138.1000 C   0  0  1  0  0  3  0  0  0  0  0  0
  195.6190  173.3650  136.7870 O   0  0  0  0  0  1  0  0  0  0  0  0
  195.7070  175.0520  138.4520 C   0  0  0  0  0  2  0  0  0  0  0  0
  196.7750  175.0050  139.5280 C   0  0  0  0  0  1  0  0  0  0  0  0
  1  5  1  1  0  0  0
  2  4  1  0  0  0  0
  2  3  1  0  0  0  0
  3  1  1  6  0  0  0
  4  3  1  0  0  0  0
  6  7  2  0  0  0  0
  7  5  1  0  0  0  0
  7  8  1  0  0  0  0
  9 16  1  0  0  0  0
  9 18  1  1  0  0  0
  9 13  1  0  0  0  0
 10 12  1  0  0  0  0
 10 11  1  0  0  0  0
 11 19  1  0  0  0  0
 12 15  1  6  0  0  0
 12  9  1  0  0  0  0
 13 20  1  1  0  0  0
 15 17  1  0  0  0  0
 17 16  1  0  0  0  0
 19  8  1  0  0  0  0
 19 13  1  0  0  0  0
 19 14  1  1  0  0  0
 20 21  1  0  0  0  0
 23 22  1  1  0  0  0
 23  1  1  0  0  0  0
 24 23  1  0  0  0  0
 26 33  1  1  0  0  0
 26 27  1  0  0  0  0
 27 30  1  1  0  0  0
 27 29  1  0  0  0  0
 28 29  1  0  0  0  0
 29 24  1  6  0  0  0
 31 26  1  0  0  0  0
 31 25  1  1  0  0  0
 31 28  1  0  0  0  0
 32 35  2  0  0  0  0
 32 33  1  0  0  0  0
 34 32  1  0  0  0  0
 36 31  1  0  0  0  0
 37 38  1  6  0  0  0
 37 36  1  0  0  0  0
 37 39  1  0  0  0  0
 39 40  1  0  0  0  0
M  END
>  <MODEL>
8

>  <REMARK>
 VINA RESULT:      -6.0      2.047      3.629
  Name = 
  12 active torsions:
  status: ('A' for Active; 'I' for Inactive)
    1  A    between atoms: C_2  and  C_16
    2  A    between atoms: C_4  and  N_21
    3  A    between atoms: C_13  and  C_20
    4  A    between atoms: C_16  and  C_24
    5  A    between atoms: C_19  and  O_27
    6  A    between atoms: C_23  and  C_39
    7  A    between atoms: C_24  and  P_31
    8  A    between atoms: C_25  and  O_27
    9  A    between atoms: C_25  and  C_39
   10  A    between atoms: N_32  and  C_39
   11  A    between atoms: C_35  and  C_38
   12  A    between atoms: C_37  and  C_38
                            x       y       z     vdW  Elec       q    Type
                         _______ _______ _______ _____ _____    ______ ____

>  <TORSDO>
F 12

$$$$
=
 OpenBabel11072409313D

 40 43  0  0  1  0  0  0  0  0999 V2000
  192.7580  176.1470  144.9450 C   0  0  2  0  0  3  0  0  0  0  0  0
  194.9710  175.9200  145.8220 O   0  0  0  0  0  0  0  0  0  0  0  0
  193.8400  176.7570  145.8240 C   0  0  1  0  0  3  0  0  0  0  0  0
  195.0370  177.0650  145.0100 C   0  0  0  0  0  2  0  0  0  0  0  0
  191.5350  176.9390  145.0520 N   0  0  0  0  0  2  0  0  0  0  0  0
  191.2360  177.1700  142.7480 O   0  0  0  0  0  0  0  0  0  0  0  0
  190.8240  177.4200  143.9130 C   0  0  0  0  0  0  0  0  0  0  0  0
  189.5720  178.2180  144.1010 C   0  0  0  0  0  2  0  0  0  0  0  0
  186.0320  177.4290  145.5430 C   0  0  1  0  0  0  0  0  0  0  0  0
  186.3000  178.7720  143.3880 C   0  0  0  0  0  2  0  0  0  0  0  0
  187.4160  177.7990  143.0190 C   0  0  0  0  0  2  0  0  0  0  0  0
  185.3450  178.0740  144.3470 C   0  0  2  0  0  3  0  0  0  0  0  0
  187.5640  177.6700  145.5860 C   0  0  2  0  0  3  0  0  0  0  0  0
  188.5820  175.9060  144.0510 C   0  0  0  0  0  1  0  0  0  0  0  0
  184.4040  179.0800  144.9600 C   0  0  0  0  0  2  0  0  0  0  0  0
  185.3430  178.0870  146.7260 C   0  0  0  0  0  2  0  0  0  0  0  0
  184.1510  178.6820  146.2830 O   0  0  0  0  0  0  0  0  0  0  0  0
  185.7550  176.0540  145.5430 O   0  0  0  0  0  1  0  0  0  0  0  0
  188.2800  177.3920  144.2230 C   0  0  2  0  0  0  0  0  0  0  0  0
  188.2300  176.9740  146.7770 C   0  0  0  0  0  2  0  0  0  0  0  0
  189.0800  177.9490  147.5630 C   0  0  0  0  0  1  0  0  0  0  0  0
  192.2220  174.5390  146.7090 O   0  0  0  0  0  1  0  0  0  0  0  0
  192.4970  174.6870  145.3450 C   0  0  1  0  0  3  0  0  0  0  0  0
  191.5370  174.0340  144.5380 O   0  0  0  0  0  0  0  0  0  0  0  0
  193.4710  172.8310  139.9390 C   0  0  0  0  0  1  0  0  0  0  0  0
  192.3190  171.2300  142.2220 C   0  0  1  0  0  3  0  0  0  0  0  0
  191.8670  171.8600  143.5410 C   0  0  2  0  0  3  0  0  0  0  0  0
  191.7700  173.8940  142.1490 C   0  0  0  0  0  2  0  0  0  0  0  0
  192.1990  173.3510  143.5030 C   0  0  1  0  0  3  0  0  0  0  0  0
  192.4600  171.2440  144.6460 O   0  0  0  0  0  1  0  0  0  0  0  0
  192.0290  172.5260  141.0000 P   0  0  1  0  0  4  0  0  0  0  0  0
  194.2520  169.5830  142.1590 C   0  0  0  0  0  0  0  0  0  0  0  0
  193.7420  170.9110  142.2500 N   0  0  0  0  0  2  0  0  0  0  0  0
  193.1590  168.1680  142.0510 S   0  0  0  0  0  1  0  0  0  0  0  0
  195.4940  169.3990  142.1610 O   0  0  0  0  0  0  0  0  0  0  0  0
  190.5520  172.1550  140.0070 C   0  0  0  0  0  2  0  0  0  0  0  0
  190.0470  173.3980  139.2860 C   0  0  1  0  0  3  0  0  0  0  0  0
  190.2300  173.2580  137.9120 O   0  0  0  0  0  1  0  0  0  0  0  0
  188.5690  173.6050  139.5690 C   0  0  0  0  0  2  0  0  0  0  0  0
  188.3820  174.5710  140.7230 C   0  0  0  0  0  1  0  0  0  0  0  0
  1  5  1  1  0  0  0
  1 23  1  0  0  0  0
  2  3  1  0  0  0  0
  3  1  1  6  0  0  0
  4  2  1  0  0  0  0
  4  3  1  0  0  0  0
  6  7  2  0  0  0  0
  7  8  1  0  0  0  0
  7  5  1  0  0  0  0
  8 19  1  0  0  0  0
  9 18  1  1  0  0  0
  9 13  1  0  0  0  0
  9 16  1  0  0  0  0
 11 10  1  0  0  0  0
 11 19  1  0  0  0  0
 12 10  1  6  0  0  0
 12 15  1  0  0  0  0
 12  9  1  0  0  0  0
 13 20  1  1  0  0  0
 15 17  1  0  0  0  0
 17 16  1  0  0  0  0
 19 14  1  6  0  0  0
 19 13  1  0  0  0  0
 20 21  1  0  0  0  0
 23 22  1  1  0  0  0
 24 23  1  0  0  0  0
 26 33  1  1  0  0  0
 26 27  1  0  0  0  0
 27 30  1  1  0  0  0
 28 29  1  0  0  0  0
 29 27  1  0  0  0  0
 29 24  1  1  0  0  0
 31 25  1  6  0  0  0
 31 28  1  0  0  0  0
 31 26  1  0  0  0  0
 32 35  2  0  0  0  0
 32 33  1  0  0  0  0
 34 32  1  0  0  0  0
 36 31  1  0  0  0  0
 37 38  1  6  0  0  0
 37 39  1  0  0  0  0
 37 36  1  0  0  0  0
 39 40  1  0  0  0  0
M  END
>  <MODEL>
9

>  <REMARK>
 VINA RESULT:      -6.0      1.803      2.438
  Name = 
  12 active torsions:
  status: ('A' for Active; 'I' for Inactive)
    1  A    between atoms: C_2  and  C_16
    2  A    between atoms: C_4  and  N_21
    3  A    between atoms: C_13  and  C_20
    4  A    between atoms: C_16  and  C_24
    5  A    between atoms: C_19  and  O_27
    6  A    between atoms: C_23  and  C_39
    7  A    between atoms: C_24  and  P_31
    8  A    between atoms: C_25  and  O_27
    9  A    between atoms: C_25  and  C_39
   10  A    between atoms: N_32  and  C_39
   11  A    between atoms: C_35  and  C_38
   12  A    between atoms: C_37  and  C_38
                            x       y       z     vdW  Elec       q    Type
                         _______ _______ _______ _____ _____    ______ ____

>  <TORSDO>
F 12

$$$$
