=
 OpenBabel11062422113D

 44 48  0  0  1  0  0  0  0  0999 V2000
  186.3080  177.6320  143.8210 C   0  0  2  0  0  3  0  0  0  0  0  0
  190.4010  171.3130  138.9640 C   0  0  0  0  0  0  0  0  0  0  0  0
  186.4900  178.0740  141.4880 F   0  0  0  0  0  0  0  0  0  0  0  0
  191.3200  171.8370  138.0670 F   0  0  0  0  0  0  0  0  0  0  0  0
  189.0230  171.9580  138.7490 C   0  0  1  0  0  3  0  0  0  0  0  0
  187.4030  175.9660  142.2540 C   0  0  2  0  0  3  0  0  0  0  0  0
  186.3030  177.0500  142.4000 C   0  0  1  0  0  3  0  0  0  0  0  0
  190.2770  176.8790  146.1310 O   0  0  0  0  0  1  0  0  0  0  0  0
  188.1440  171.6630  139.7780 F   0  0  0  0  0  0  0  0  0  0  0  0
  188.5480  174.4050  140.7210 C   0  0  0  0  0  2  0  0  0  0  0  0
  190.1830  177.6010  143.9670 C   0  0  1  0  0  3  0  0  0  0  0  0
  191.9130  176.0010  144.7210 C   0  0  2  0  0  3  0  0  0  0  0  0
  188.4790  176.0640  143.1720 O   0  0  0  0  0  0  0  0  0  0  0  0
  191.2720  170.7030  142.6680 C   0  0  0  0  0  3  0  0  0  0  0  0
  187.9100  175.7760  140.8310 C   0  0  0  0  0  2  0  0  0  0  0  0
  189.0370  173.4530  138.4150 C   0  0  0  0  0  2  0  0  0  0  0  0
  187.7170  178.0740  144.2550 C   0  0  0  0  0  2  0  0  0  0  0  0
  190.9560  174.0390  139.9660 C   0  0  0  0  0  2  0  0  0  0  0  0
  190.5170  176.4700  144.8610 N   0  0  0  0  0  0  0  0  0  0  0  0
  191.2820  173.0830  142.2600 C   0  0  0  0  0  0  0  0  0  0  0  0
  191.1500  177.8120  142.8030 C   0  0  0  0  0  1  0  0  0  0  0  0
  188.7860  177.4230  143.3840 C   0  0  1  0  0  3  0  0  0  0  0  0
  191.0620  172.8500  140.8870 C   0  0  0  0  0  0  0  0  0  0  0  0
  191.2960  172.0040  143.1520 C   0  0  0  0  0  0  0  0  0  0  0  0
  191.3930  172.2320  144.5610 N   0  0  0  0  0  2  0  0  0  0  0  0
  190.2280  169.9810  138.6480 F   0  0  0  0  0  0  0  0  0  0  0  0
  191.1290  170.4410  141.3030 C   0  0  0  0  0  0  0  0  0  0  0  0
  190.9080  171.5230  140.3970 C   0  0  0  0  0  0  0  0  0  0  0  0
  191.2710  173.5760  145.1090 C   0  0  0  0  0  2  0  0  0  0  0  0
  192.0000  174.5620  144.2000 C   0  0  1  0  0  3  0  0  0  0  0  0
  191.4010  174.4920  142.7910 C   0  0  0  0  0  2  0  0  0  0  0  0
  189.5200  174.3550  139.5480 C   0  0  2  0  0  3  0  0  0  0  0  0
  190.4550  168.1660  141.2080 O   0  0  0  0  0  0  0  0  0  0  0  0
  191.3100  169.0350  140.8920 C   0  0  0  0  0  0  0  0  0  0  0  0
  192.5090  168.6300  140.2330 N   0  0  0  0  0  1  0  0  0  0  0  0
  192.8880  176.3730  145.8530 C   0  0  0  0  0  2  0  0  0  0  0  0
  194.3280  176.5400  145.3920 C   0  0  0  0  0  2  0  0  0  0  0  0
  194.8200  177.7740  145.8160 O   0  0  0  0  0  1  0  0  0  0  0  0
  185.8100  176.6840  144.7200 O   0  0  0  0  0  0  0  0  0  0  0  0
  186.4480  176.9570  145.9340 C   0  0  0  0  0  2  0  0  0  0  0  0
  185.4960  178.9120  146.8870 O   0  0  0  0  0  1  0  0  0  0  0  0
  185.7890  177.0960  148.2230 O   0  0  0  0  0  1  0  0  0  0  0  0
  184.1800  177.0920  146.6260 F   0  0  0  0  0  0  0  0  0  0  0  0
  185.4550  177.5210  146.9370 C   0  0  0  0  0  0  0  0  0  0  0  0
  1 17  1  0  0  0  0
  1 39  1  1  0  0  0
  2 28  1  0  0  0  0
  4  2  1  0  0  0  0
  5  2  1  0  0  0  0
  5  9  1  1  0  0  0
  6 15  1  6  0  0  0
  6  7  1  0  0  0  0
  6 13  1  0  0  0  0
  7  3  1  6  0  0  0
  7  1  1  0  0  0  0
 10 15  1  0  0  0  0
 11 21  1  6  0  0  0
 11 19  1  0  0  0  0
 12 19  1  0  0  0  0
 12 36  1  1  0  0  0
 13 22  1  0  0  0  0
 14 24  1  0  0  0  0
 16  5  1  0  0  0  0
 18 23  1  0  0  0  0
 19  8  1  0  0  0  0
 20 31  1  0  0  0  0
 20 24  2  0  0  0  0
 22 11  1  0  0  0  0
 22 17  1  1  0  0  0
 23 20  1  0  0  0  0
 24 25  1  0  0  0  0
 25 29  1  0  0  0  0
 26  2  1  0  0  0  0
 27 14  2  0  0  0  0
 28 23  2  0  0  0  0
 28 27  1  0  0  0  0
 30 31  1  6  0  0  0
 30 12  1  0  0  0  0
 30 29  1  0  0  0  0
 32 16  1  6  0  0  0
 32 18  1  0  0  0  0
 32 10  1  0  0  0  0
 34 33  2  0  0  0  0
 34 27  1  0  0  0  0
 35 34  1  0  0  0  0
 37 38  1  0  0  0  0
 37 36  1  0  0  0  0
 39 40  1  0  0  0  0
 40 44  1  0  0  0  0
 41 44  1  0  0  0  0
 43 44  1  0  0  0  0
 44 42  1  0  0  0  0
M  END
>  <MODEL>
1

>  <REMARK>
 VINA RESULT:      -7.4      0.000      0.000
  Name = 
  6 active torsions:
  status: ('A' for Active; 'I' for Inactive)
    1  A    between atoms: C_1  and  O_35
    2  A    between atoms: C_4  and  C_23
    3  A    between atoms: C_16  and  C_23
    4  A    between atoms: C_19  and  C_37
    5  A    between atoms: C_33  and  C_44
    6  A    between atoms: O_35  and  C_44
                            x       y       z     vdW  Elec       q    Type
                         _______ _______ _______ _____ _____    ______ ____

>  <TORSDO>
F 6

$$$$
=
 OpenBabel11062422113D

 44 48  0  0  1  0  0  0  0  0999 V2000
  197.4700  171.8930  145.3100 C   0  0  2  0  0  3  0  0  0  0  0  0
  189.7490  176.3290  144.3130 C   0  0  0  0  0  0  0  0  0  0  0  0
  197.1720  173.7850  146.7260 F   0  0  0  0  0  0  0  0  0  0  0  0
  189.9220  177.7030  144.2720 F   0  0  0  0  0  0  0  0  0  0  0  0
  190.3770  175.7530  145.5920 C   0  0  1  0  0  3  0  0  0  0  0  0
  195.3460  173.2760  145.2170 C   0  0  2  0  0  3  0  0  0  0  0  0
  196.4850  172.7430  146.1250 C   0  0  1  0  0  3  0  0  0  0  0  0
  197.2260  172.6450  140.7230 O   0  0  0  0  0  1  0  0  0  0  0  0
  190.4600  174.3710  145.5560 F   0  0  0  0  0  0  0  0  0  0  0  0
  193.3300  174.6960  145.0810 C   0  0  0  0  0  2  0  0  0  0  0  0
  197.2610  174.3110  142.2840 C   0  0  1  0  0  3  0  0  0  0  0  0
  195.8680  174.4790  140.2460 C   0  0  2  0  0  3  0  0  0  0  0  0
  195.6560  173.3530  143.8350 O   0  0  0  0  0  0  0  0  0  0  0  0
  190.2440  174.1070  141.2030 C   0  0  0  0  0  3  0  0  0  0  0  0
  194.7040  174.5660  145.7090 C   0  0  0  0  0  2  0  0  0  0  0  0
  191.6960  176.3980  146.0290 C   0  0  0  0  0  2  0  0  0  0  0  0
  197.9410  172.6230  144.0390 C   0  0  0  0  0  2  0  0  0  0  0  0
  192.6140  176.7050  143.6850 C   0  0  0  0  0  2  0  0  0  0  0  0
  196.4380  173.5940  141.2860 N   0  0  0  0  0  0  0  0  0  0  0  0
  192.3820  175.0360  141.8290 C   0  0  0  0  0  0  0  0  0  0  0  0
  197.0530  175.8240  142.3270 C   0  0  0  0  0  1  0  0  0  0  0  0
  196.9950  173.7650  143.6830 C   0  0  1  0  0  3  0  0  0  0  0  0
  191.7570  175.8040  142.8320 C   0  0  0  0  0  0  0  0  0  0  0  0
  191.6260  174.1250  141.0820 C   0  0  0  0  0  0  0  0  0  0  0  0
  192.2660  173.2500  140.1480 N   0  0  0  0  0  2  0  0  0  0  0  0
  188.3970  176.0860  144.4350 F   0  0  0  0  0  0  0  0  0  0  0  0
  189.5880  174.9120  142.1380 C   0  0  0  0  0  0  0  0  0  0  0  0
  190.3550  175.6980  143.0510 C   0  0  0  0  0  0  0  0  0  0  0  0
  193.7180  173.1390  140.1030 C   0  0  0  0  0  2  0  0  0  0  0  0
  194.3370  174.5220  140.2860 C   0  0  1  0  0  3  0  0  0  0  0  0
  193.8770  175.1120  141.6240 C   0  0  0  0  0  2  0  0  0  0  0  0
  192.8700  176.1490  145.0860 C   0  0  2  0  0  3  0  0  0  0  0  0
  187.4370  173.9250  142.3210 O   0  0  0  0  0  0  0  0  0  0  0  0
  188.1160  174.9480  142.0420 C   0  0  0  0  0  0  0  0  0  0  0  0
  187.4600  176.1040  141.5230 N   0  0  0  0  0  1  0  0  0  0  0  0
  196.5110  174.4110  138.8480 C   0  0  0  0  0  2  0  0  0  0  0  0
  195.6890  175.0900  137.7630 C   0  0  0  0  0  2  0  0  0  0  0  0
  195.6220  174.2700  136.6380 O   0  0  0  0  0  1  0  0  0  0  0  0
  196.8700  170.6790  144.9650 O   0  0  0  0  0  0  0  0  0  0  0  0
  196.8120  169.9460  146.1550 C   0  0  0  0  0  2  0  0  0  0  0  0
  195.4000  168.6040  147.5130 O   0  0  0  0  0  1  0  0  0  0  0  0
  195.3400  168.2950  145.2610 O   0  0  0  0  0  1  0  0  0  0  0  0
  194.4470  170.1650  146.1820 F   0  0  0  0  0  0  0  0  0  0  0  0
  195.4710  169.2420  146.2770 C   0  0  0  0  0  0  0  0  0  0  0  0
  1 39  1  6  0  0  0
  1  7  1  0  0  0  0
  2 26  1  0  0  0  0
  2  5  1  0  0  0  0
  4  2  1  0  0  0  0
  5  9  1  6  0  0  0
  5 16  1  0  0  0  0
  6 15  1  1  0  0  0
  6  7  1  0  0  0  0
  7  3  1  6  0  0  0
  8 19  1  0  0  0  0
 10 32  1  0  0  0  0
 10 15  1  0  0  0  0
 11 21  1  1  0  0  0
 11 22  1  0  0  0  0
 12 36  1  6  0  0  0
 12 30  1  0  0  0  0
 12 19  1  0  0  0  0
 13  6  1  0  0  0  0
 14 27  1  0  0  0  0
 17  1  1  0  0  0  0
 19 11  1  0  0  0  0
 20 23  2  0  0  0  0
 22 13  1  0  0  0  0
 22 17  1  6  0  0  0
 23 28  1  0  0  0  0
 23 18  1  0  0  0  0
 24 14  2  0  0  0  0
 24 20  1  0  0  0  0
 25 24  1  0  0  0  0
 27 28  2  0  0  0  0
 28  2  1  0  0  0  0
 29 25  1  0  0  0  0
 30 29  1  1  0  0  0
 30 31  1  0  0  0  0
 31 20  1  0  0  0  0
 32 18  1  6  0  0  0
 32 16  1  0  0  0  0
 34 27  1  0  0  0  0
 34 33  2  0  0  0  0
 35 34  1  0  0  0  0
 37 36  1  0  0  0  0
 38 37  1  0  0  0  0
 39 40  1  0  0  0  0
 40 44  1  0  0  0  0
 42 44  1  0  0  0  0
 43 44  1  0  0  0  0
 44 41  1  0  0  0  0
M  END
>  <MODEL>
2

>  <REMARK>
 VINA RESULT:      -7.3      4.895      8.607
  Name = 
  6 active torsions:
  status: ('A' for Active; 'I' for Inactive)
    1  A    between atoms: C_1  and  O_35
    2  A    between atoms: C_4  and  C_23
    3  A    between atoms: C_16  and  C_23
    4  A    between atoms: C_19  and  C_37
    5  A    between atoms: C_33  and  C_44
    6  A    between atoms: O_35  and  C_44
                            x       y       z     vdW  Elec       q    Type
                         _______ _______ _______ _____ _____    ______ ____

>  <TORSDO>
F 6

$$$$
=
 OpenBabel11062422113D

 44 48  0  0  1  0  0  0  0  0999 V2000
  194.0530  175.2810  145.2330 C   0  0  2  0  0  3  0  0  0  0  0  0
  188.3690  173.1360  138.6480 C   0  0  0  0  0  0  0  0  0  0  0  0
  193.9090  172.9640  144.7030 F   0  0  0  0  0  0  0  0  0  0  0  0
  187.5790  172.0400  138.9580 F   0  0  0  0  0  0  0  0  0  0  0  0
  189.8560  172.7780  138.7980 C   0  0  1  0  0  3  0  0  0  0  0  0
  192.5300  174.4540  143.3820 C   0  0  2  0  0  3  0  0  0  0  0  0
  193.8670  174.2250  144.1340 C   0  0  1  0  0  3  0  0  0  0  0  0
  190.1000  177.4030  146.4690 O   0  0  0  0  0  1  0  0  0  0  0  0
  190.6690  173.8980  138.7540 F   0  0  0  0  0  0  0  0  0  0  0  0
  190.9840  173.6100  141.6500 C   0  0  0  0  0  2  0  0  0  0  0  0
  190.2970  175.1460  146.1890 C   0  0  1  0  0  3  0  0  0  0  0  0
  188.2520  176.3580  145.5040 C   0  0  2  0  0  3  0  0  0  0  0  0
  191.5420  175.1720  144.1040 O   0  0  0  0  0  0  0  0  0  0  0  0
  187.4980  176.6930  139.8460 C   0  0  0  0  0  3  0  0  0  0  0  0
  191.9440  173.1990  142.7490 C   0  0  0  0  0  2  0  0  0  0  0  0
  190.2000  171.8630  139.9780 C   0  0  0  0  0  2  0  0  0  0  0  0
  192.8120  175.3940  146.1370 C   0  0  0  0  0  2  0  0  0  0  0  0
  188.5380  172.8980  141.5900 C   0  0  0  0  0  2  0  0  0  0  0  0
  189.7240  176.3950  145.6430 N   0  0  0  0  0  0  0  0  0  0  0  0
  188.0620  175.3520  141.7730 C   0  0  0  0  0  0  0  0  0  0  0  0
  189.3740  173.9300  146.1250 C   0  0  0  0  0  1  0  0  0  0  0  0
  191.5870  174.7890  145.4590 C   0  0  1  0  0  3  0  0  0  0  0  0
  188.1720  174.2130  140.9500 C   0  0  0  0  0  0  0  0  0  0  0  0
  187.8120  176.6030  141.1960 C   0  0  0  0  0  0  0  0  0  0  0  0
  187.8210  177.7850  142.0010 N   0  0  0  0  0  2  0  0  0  0  0  0
  188.1970  173.4030  137.3050 F   0  0  0  0  0  0  0  0  0  0  0  0
  187.5260  175.5680  139.0190 C   0  0  0  0  0  0  0  0  0  0  0  0
  187.9780  174.3180  139.5440 C   0  0  0  0  0  0  0  0  0  0  0  0
  188.2890  177.7460  143.3800 C   0  0  0  0  0  2  0  0  0  0  0  0
  187.7960  176.4640  144.0450 C   0  0  1  0  0  3  0  0  0  0  0  0
  188.3120  175.2520  143.2590 C   0  0  0  0  0  2  0  0  0  0  0  0
  189.9920  172.4920  141.3540 C   0  0  2  0  0  3  0  0  0  0  0  0
  187.7710  175.8100  136.6700 O   0  0  0  0  0  0  0  0  0  0  0  0
  186.9910  175.7530  137.6570 C   0  0  0  0  0  0  0  0  0  0  0  0
  185.5960  175.9820  137.4600 N   0  0  0  0  0  1  0  0  0  0  0  0
  187.4370  177.1670  146.5310 C   0  0  0  0  0  2  0  0  0  0  0  0
  185.9340  176.9590  146.4210 C   0  0  0  0  0  2  0  0  0  0  0  0
  185.3190  178.1530  146.0490 O   0  0  0  0  0  1  0  0  0  0  0  0
  194.3320  176.5220  144.6520 O   0  0  0  0  0  0  0  0  0  0  0  0
  195.6940  176.7390  144.8820 C   0  0  0  0  0  2  0  0  0  0  0  0
  195.5860  176.6430  142.5120 O   0  0  0  0  0  1  0  0  0  0  0  0
  197.1820  175.4160  143.5680 O   0  0  0  0  0  1  0  0  0  0  0  0
  197.3570  177.6740  143.4670 F   0  0  0  0  0  0  0  0  0  0  0  0
  196.4750  176.6180  143.5830 C   0  0  0  0  0  0  0  0  0  0  0  0
  1 39  1  6  0  0  0
  1 17  1  0  0  0  0
  2  5  1  0  0  0  0
  2  4  1  0  0  0  0
  2 28  1  0  0  0  0
  5  9  1  1  0  0  0
  5 16  1  0  0  0  0
  6 15  1  1  0  0  0
  6 13  1  0  0  0  0
  6  7  1  0  0  0  0
  7  3  1  1  0  0  0
  7  1  1  0  0  0  0
 10 15  1  0  0  0  0
 11 21  1  6  0  0  0
 12 19  1  0  0  0  0
 12 36  1  1  0  0  0
 13 22  1  0  0  0  0
 14 24  1  0  0  0  0
 19 11  1  0  0  0  0
 19  8  1  0  0  0  0
 20 31  1  0  0  0  0
 22 17  1  1  0  0  0
 22 11  1  0  0  0  0
 23 18  1  0  0  0  0
 23 20  1  0  0  0  0
 24 20  2  0  0  0  0
 24 25  1  0  0  0  0
 25 29  1  0  0  0  0
 26  2  1  0  0  0  0
 27 28  1  0  0  0  0
 27 14  2  0  0  0  0
 28 23  2  0  0  0  0
 29 30  1  0  0  0  0
 30 31  1  6  0  0  0
 30 12  1  0  0  0  0
 32 16  1  6  0  0  0
 32 18  1  0  0  0  0
 32 10  1  0  0  0  0
 33 34  2  0  0  0  0
 34 27  1  0  0  0  0
 35 34  1  0  0  0  0
 37 36  1  0  0  0  0
 38 37  1  0  0  0  0
 39 40  1  0  0  0  0
 41 44  1  0  0  0  0
 42 44  1  0  0  0  0
 43 44  1  0  0  0  0
 44 40  1  0  0  0  0
M  END
>  <MODEL>
3

>  <REMARK>
 VINA RESULT:      -7.1      3.123      6.750
  Name = 
  6 active torsions:
  status: ('A' for Active; 'I' for Inactive)
    1  A    between atoms: C_1  and  O_35
    2  A    between atoms: C_4  and  C_23
    3  A    between atoms: C_16  and  C_23
    4  A    between atoms: C_19  and  C_37
    5  A    between atoms: C_33  and  C_44
    6  A    between atoms: O_35  and  C_44
                            x       y       z     vdW  Elec       q    Type
                         _______ _______ _______ _____ _____    ______ ____

>  <TORSDO>
F 6

$$$$
=
 OpenBabel11062422113D

 44 48  0  0  1  0  0  0  0  0999 V2000
  186.8680  176.7460  143.0540 C   0  0  2  0  0  3  0  0  0  0  0  0
  195.2910  174.6850  145.3080 C   0  0  0  0  0  0  0  0  0  0  0  0
  187.1930  176.0290  145.3020 F   0  0  0  0  0  0  0  0  0  0  0  0
  195.3790  173.5020  146.0260 F   0  0  0  0  0  0  0  0  0  0  0  0
  194.3130  175.6510  145.9960 C   0  0  1  0  0  3  0  0  0  0  0  0
  189.1750  176.1410  143.9150 C   0  0  2  0  0  3  0  0  0  0  0  0
  187.7930  176.7440  144.2790 C   0  0  1  0  0  3  0  0  0  0  0  0
  188.2090  173.8110  139.7000 O   0  0  0  0  0  1  0  0  0  0  0  0
  193.9940  176.7310  145.1890 F   0  0  0  0  0  0  0  0  0  0  0  0
  191.3950  175.4560  144.7520 C   0  0  0  0  0  2  0  0  0  0  0  0
  188.1420  173.2640  141.9160 C   0  0  1  0  0  3  0  0  0  0  0  0
  189.9430  172.4370  140.4350 C   0  0  2  0  0  3  0  0  0  0  0  0
  189.1840  175.2760  142.7910 O   0  0  0  0  0  0  0  0  0  0  0  0
  195.0770  174.7350  141.4610 C   0  0  0  0  0  3  0  0  0  0  0  0
  189.9190  175.5220  145.0910 C   0  0  0  0  0  2  0  0  0  0  0  0
  193.0690  175.0050  146.6120 C   0  0  0  0  0  2  0  0  0  0  0  0
  186.8150  175.3670  142.3730 C   0  0  0  0  0  2  0  0  0  0  0  0
  192.7390  173.2900  144.7730 C   0  0  0  0  0  2  0  0  0  0  0  0
  189.0170  173.5440  140.7560 N   0  0  0  0  0  0  0  0  0  0  0  0
  193.0560  173.7380  142.3280 C   0  0  0  0  0  0  0  0  0  0  0  0
  188.6040  172.1150  142.8110 C   0  0  0  0  0  1  0  0  0  0  0  0
  188.0040  174.5060  142.7890 C   0  0  1  0  0  3  0  0  0  0  0  0
  193.5820  173.8040  143.6340 C   0  0  0  0  0  0  0  0  0  0  0  0
  193.7780  174.2880  141.2610 C   0  0  0  0  0  0  0  0  0  0  0  0
  193.2040  174.3410  139.9520 N   0  0  0  0  0  2  0  0  0  0  0  0
  196.5210  175.3060  145.3800 F   0  0  0  0  0  0  0  0  0  0  0  0
  195.6530  174.7430  142.7330 C   0  0  0  0  0  0  0  0  0  0  0  0
  194.8630  174.3770  143.8660 C   0  0  0  0  0  0  0  0  0  0  0  0
  191.7990  174.0210  139.7390 C   0  0  0  0  0  2  0  0  0  0  0  0
  191.4130  172.8300  140.6120 C   0  0  1  0  0  3  0  0  0  0  0  0
  191.6780  173.1710  142.0830 C   0  0  0  0  0  2  0  0  0  0  0  0
  192.0960  174.4030  145.6010 C   0  0  2  0  0  3  0  0  0  0  0  0
  197.9370  174.1350  142.9540 O   0  0  0  0  0  0  0  0  0  0  0  0
  197.0940  175.0550  142.7890 C   0  0  0  0  0  0  0  0  0  0  0  0
  197.5340  176.4120  142.7730 N   0  0  0  0  0  1  0  0  0  0  0  0
  189.6100  171.5920  139.1900 C   0  0  0  0  0  2  0  0  0  0  0  0
  190.5050  170.3740  139.0200 C   0  0  0  0  0  2  0  0  0  0  0  0
  189.8620  169.4230  138.2290 O   0  0  0  0  0  1  0  0  0  0  0  0
  187.2990  177.7110  142.1400 O   0  0  0  0  0  0  0  0  0  0  0  0
  186.4070  177.6260  141.0660 C   0  0  0  0  0  2  0  0  0  0  0  0
  184.1670  177.6020  141.8500 O   0  0  0  0  0  1  0  0  0  0  0  0
  184.7050  179.0420  140.1760 O   0  0  0  0  0  1  0  0  0  0  0  0
  185.4400  179.4180  142.2880 F   0  0  0  0  0  0  0  0  0  0  0  0
  185.1570  178.4430  141.3510 C   0  0  0  0  0  0  0  0  0  0  0  0
  1 39  1  6  0  0  0
  1  7  1  0  0  0  0
  2 26  1  0  0  0  0
  2  5  1  0  0  0  0
  2  4  1  0  0  0  0
  5  9  1  6  0  0  0
  5 16  1  0  0  0  0
  6  7  1  0  0  0  0
  6 15  1  1  0  0  0
  7  3  1  1  0  0  0
  8 19  1  0  0  0  0
 10 15  1  0  0  0  0
 11 22  1  0  0  0  0
 11 21  1  1  0  0  0
 12 36  1  6  0  0  0
 12 30  1  0  0  0  0
 12 19  1  0  0  0  0
 13  6  1  0  0  0  0
 14 27  1  0  0  0  0
 17  1  1  0  0  0  0
 18 32  1  0  0  0  0
 19 11  1  0  0  0  0
 20 23  2  0  0  0  0
 22 17  1  6  0  0  0
 22 13  1  0  0  0  0
 23 28  1  0  0  0  0
 23 18  1  0  0  0  0
 24 14  2  0  0  0  0
 24 20  1  0  0  0  0
 25 24  1  0  0  0  0
 27 34  1  0  0  0  0
 27 28  2  0  0  0  0
 28  2  1  0  0  0  0
 29 25  1  0  0  0  0
 30 29  1  6  0  0  0
 30 31  1  0  0  0  0
 31 20  1  0  0  0  0
 32 10  1  6  0  0  0
 32 16  1  0  0  0  0
 34 33  2  0  0  0  0
 35 34  1  0  0  0  0
 37 36  1  0  0  0  0
 38 37  1  0  0  0  0
 40 44  1  0  0  0  0
 40 39  1  0  0  0  0
 42 44  1  0  0  0  0
 44 41  1  0  0  0  0
 44 43  1  0  0  0  0
M  END
>  <MODEL>
4

>  <REMARK>
 VINA RESULT:      -7.0      3.644      6.555
  Name = 
  6 active torsions:
  status: ('A' for Active; 'I' for Inactive)
    1  A    between atoms: C_1  and  O_35
    2  A    between atoms: C_4  and  C_23
    3  A    between atoms: C_16  and  C_23
    4  A    between atoms: C_19  and  C_37
    5  A    between atoms: C_33  and  C_44
    6  A    between atoms: O_35  and  C_44
                            x       y       z     vdW  Elec       q    Type
                         _______ _______ _______ _____ _____    ______ ____

>  <TORSDO>
F 6

$$$$
=
 OpenBabel11062422113D

 44 48  0  0  1  0  0  0  0  0999 V2000
  187.9570  177.2920  145.2760 C   0  0  2  0  0  3  0  0  0  0  0  0
  189.6400  171.5500  138.6080 C   0  0  0  0  0  0  0  0  0  0  0  0
  187.2280  177.9730  143.1140 F   0  0  0  0  0  0  0  0  0  0  0  0
  190.1500  172.1730  137.4800 F   0  0  0  0  0  0  0  0  0  0  0  0
  188.3070  172.1980  139.0140 C   0  0  1  0  0  3  0  0  0  0  0  0
  188.3030  175.8080  143.2500 C   0  0  2  0  0  3  0  0  0  0  0  0
  187.3810  176.8590  143.9210 C   0  0  1  0  0  3  0  0  0  0  0  0
  192.4890  176.3500  145.7630 O   0  0  0  0  0  1  0  0  0  0  0  0
  187.8900  171.7900  140.2700 F   0  0  0  0  0  0  0  0  0  0  0  0
  188.7130  174.4250  141.2450 C   0  0  0  0  0  2  0  0  0  0  0  0
  191.5800  177.2890  143.8910 C   0  0  1  0  0  3  0  0  0  0  0  0
  193.4170  175.6400  143.7460 C   0  0  2  0  0  3  0  0  0  0  0  0
  189.6550  175.8230  143.6790 O   0  0  0  0  0  0  0  0  0  0  0  0
  191.8680  170.5730  141.5960 C   0  0  0  0  0  3  0  0  0  0  0  0
  188.2100  175.7700  141.7300 C   0  0  0  0  0  2  0  0  0  0  0  0
  188.2340  173.7190  138.8500 C   0  0  0  0  0  2  0  0  0  0  0  0
  189.4360  177.7040  145.1660 C   0  0  0  0  0  2  0  0  0  0  0  0
  190.6220  174.1640  139.5770 C   0  0  0  0  0  2  0  0  0  0  0  0
  192.2020  176.0770  144.4660 N   0  0  0  0  0  0  0  0  0  0  0  0
  191.7890  172.9820  141.4530 C   0  0  0  0  0  0  0  0  0  0  0  0
  192.0220  177.6300  142.4680 C   0  0  0  0  0  1  0  0  0  0  0  0
  190.0610  177.1560  143.8860 C   0  0  1  0  0  3  0  0  0  0  0  0
  191.0440  172.8890  140.2610 C   0  0  0  0  0  0  0  0  0  0  0  0
  192.1180  171.8180  142.1580 C   0  0  0  0  0  0  0  0  0  0  0  0
  192.7630  171.9020  143.4320 N   0  0  0  0  0  2  0  0  0  0  0  0
  189.3170  170.2560  138.2550 F   0  0  0  0  0  0  0  0  0  0  0  0
  191.1960  170.4510  140.3770 C   0  0  0  0  0  0  0  0  0  0  0  0
  190.6710  171.6180  139.7420 C   0  0  0  0  0  0  0  0  0  0  0  0
  192.9050  173.1810  144.1140 C   0  0  0  0  0  2  0  0  0  0  0  0
  193.2510  174.2630  143.0940 C   0  0  1  0  0  3  0  0  0  0  0  0
  192.1480  174.3310  142.0310 C   0  0  0  0  0  2  0  0  0  0  0  0
  189.1470  174.5060  139.7860 C   0  0  2  0  0  3  0  0  0  0  0  0
  190.4310  168.2050  140.3000 O   0  0  0  0  0  0  0  0  0  0  0  0
  191.1600  169.0970  139.7910 C   0  0  0  0  0  0  0  0  0  0  0  0
  192.0350  168.7570  138.7170 N   0  0  0  0  0  1  0  0  0  0  0  0
  194.7680  175.9050  144.4380 C   0  0  0  0  0  2  0  0  0  0  0  0
  195.9730  175.6630  143.5410 C   0  0  0  0  0  2  0  0  0  0  0  0
  196.7750  176.8030  143.5120 O   0  0  0  0  0  1  0  0  0  0  0  0
  187.8210  176.2520  146.2000 O   0  0  0  0  0  0  0  0  0  0  0  0
  188.9700  176.3130  146.9960 C   0  0  0  0  0  2  0  0  0  0  0  0
  190.6700  175.0060  148.0130 O   0  0  0  0  0  1  0  0  0  0  0  0
  189.7310  174.2430  146.0890 O   0  0  0  0  0  1  0  0  0  0  0  0
  188.5530  174.2140  148.0260 F   0  0  0  0  0  0  0  0  0  0  0  0
  189.4860  174.9140  147.2870 C   0  0  0  0  0  0  0  0  0  0  0  0
  1 39  1  1  0  0  0
  2  5  1  0  0  0  0
  2 28  1  0  0  0  0
  4  2  1  0  0  0  0
  5  9  1  1  0  0  0
  6 15  1  6  0  0  0
  6 13  1  0  0  0  0
  6  7  1  0  0  0  0
  7  3  1  6  0  0  0
  7  1  1  0  0  0  0
 10 15  1  0  0  0  0
 11 21  1  6  0  0  0
 11 19  1  0  0  0  0
 12 36  1  1  0  0  0
 12 19  1  0  0  0  0
 13 22  1  0  0  0  0
 14 24  1  0  0  0  0
 16  5  1  0  0  0  0
 17  1  1  0  0  0  0
 18 32  1  0  0  0  0
 18 23  1  0  0  0  0
 19  8  1  0  0  0  0
 20 31  1  0  0  0  0
 20 24  2  0  0  0  0
 22 11  1  0  0  0  0
 22 17  1  1  0  0  0
 23 20  1  0  0  0  0
 24 25  1  0  0  0  0
 25 29  1  0  0  0  0
 26  2  1  0  0  0  0
 27 14  2  0  0  0  0
 28 23  2  0  0  0  0
 28 27  1  0  0  0  0
 30 31  1  6  0  0  0
 30 12  1  0  0  0  0
 30 29  1  0  0  0  0
 32 16  1  6  0  0  0
 32 10  1  0  0  0  0
 34 33  2  0  0  0  0
 34 27  1  0  0  0  0
 35 34  1  0  0  0  0
 37 36  1  0  0  0  0
 38 37  1  0  0  0  0
 39 40  1  0  0  0  0
 40 44  1  0  0  0  0
 42 44  1  0  0  0  0
 44 41  1  0  0  0  0
 44 43  1  0  0  0  0
M  END
>  <MODEL>
5

>  <REMARK>
 VINA RESULT:      -6.8      1.782      2.265
  Name = 
  6 active torsions:
  status: ('A' for Active; 'I' for Inactive)
    1  A    between atoms: C_1  and  O_35
    2  A    between atoms: C_4  and  C_23
    3  A    between atoms: C_16  and  C_23
    4  A    between atoms: C_19  and  C_37
    5  A    between atoms: C_33  and  C_44
    6  A    between atoms: O_35  and  C_44
                            x       y       z     vdW  Elec       q    Type
                         _______ _______ _______ _____ _____    ______ ____

>  <TORSDO>
F 6

$$$$
=
 OpenBabel11062422113D

 44 48  0  0  1  0  0  0  0  0999 V2000
  195.3060  170.2010  144.6410 C   0  0  2  0  0  3  0  0  0  0  0  0
  189.6700  177.1020  145.5860 C   0  0  0  0  0  0  0  0  0  0  0  0
  195.9570  171.8620  146.2180 F   0  0  0  0  0  0  0  0  0  0  0  0
  190.3200  178.3260  145.6070 F   0  0  0  0  0  0  0  0  0  0  0  0
  190.2520  176.1730  146.6630 C   0  0  1  0  0  3  0  0  0  0  0  0
  193.8450  172.2250  145.0900 C   0  0  2  0  0  3  0  0  0  0  0  0
  194.8490  171.2130  145.7010 C   0  0  1  0  0  3  0  0  0  0  0  0
  194.5810  171.6260  140.2700 O   0  0  0  0  0  1  0  0  0  0  0  0
  189.8210  174.8650  146.5120 F   0  0  0  0  0  0  0  0  0  0  0  0
  192.4890  174.2530  145.4770 C   0  0  0  0  0  2  0  0  0  0  0  0
  195.4810  172.9430  141.9040 C   0  0  1  0  0  3  0  0  0  0  0  0
  193.9210  173.8620  140.2170 C   0  0  2  0  0  3  0  0  0  0  0  0
  193.9240  172.3850  143.6820 O   0  0  0  0  0  0  0  0  0  0  0  0
  188.7930  175.3040  142.2920 C   0  0  0  0  0  3  0  0  0  0  0  0
  193.8080  173.5750  145.7940 C   0  0  0  0  0  2  0  0  0  0  0  0
  191.7680  176.2600  146.8610 C   0  0  0  0  0  2  0  0  0  0  0  0
  195.7880  170.8970  143.3550 C   0  0  0  0  0  2  0  0  0  0  0  0
  192.3260  176.5600  144.4050 C   0  0  0  0  0  2  0  0  0  0  0  0
  194.2980  172.6990  141.0500 N   0  0  0  0  0  0  0  0  0  0  0  0
  191.1950  175.3490  142.5250 C   0  0  0  0  0  0  0  0  0  0  0  0
  195.8460  174.4150  142.0960 C   0  0  0  0  0  1  0  0  0  0  0  0
  195.2750  172.3310  143.2850 C   0  0  1  0  0  3  0  0  0  0  0  0
  191.0700  176.1360  143.6870 C   0  0  0  0  0  0  0  0  0  0  0  0
  190.0460  174.8660  141.8870 C   0  0  0  0  0  0  0  0  0  0  0  0
  190.1570  173.9650  140.7820 N   0  0  0  0  0  2  0  0  0  0  0  0
  188.3620  177.3210  145.9690 F   0  0  0  0  0  0  0  0  0  0  0  0
  188.6420  176.1460  143.3970 C   0  0  0  0  0  0  0  0  0  0  0  0
  189.7840  176.4860  144.1850 C   0  0  0  0  0  0  0  0  0  0  0  0
  191.4400  173.3720  140.4290 C   0  0  0  0  0  2  0  0  0  0  0  0
  192.5400  174.4200  140.5760 C   0  0  1  0  0  3  0  0  0  0  0  0
  192.5580  174.9380  142.0190 C   0  0  0  0  0  2  0  0  0  0  0  0
  192.5950  175.7600  145.6790 C   0  0  2  0  0  3  0  0  0  0  0  0
  186.4340  176.0410  144.2640 O   0  0  0  0  0  0  0  0  0  0  0  0
  187.2890  176.6960  143.6110 C   0  0  0  0  0  0  0  0  0  0  0  0
  186.9050  177.9190  142.9850 N   0  0  0  0  0  1  0  0  0  0  0  0
  194.2500  173.7760  138.7140 C   0  0  0  0  0  2  0  0  0  0  0  0
  193.6740  174.9210  137.8950 C   0  0  0  0  0  2  0  0  0  0  0  0
  194.4400  175.1110  136.7460 O   0  0  0  0  0  1  0  0  0  0  0  0
  194.2580  169.3260  144.3430 O   0  0  0  0  0  0  0  0  0  0  0  0
  194.3260  169.1250  142.9610 C   0  0  0  0  0  2  0  0  0  0  0  0
  192.3280  170.1070  142.1360 O   0  0  0  0  0  1  0  0  0  0  0  0
  192.1700  168.1680  143.3120 O   0  0  0  0  0  1  0  0  0  0  0  0
  193.0320  168.1660  141.2150 F   0  0  0  0  0  0  0  0  0  0  0  0
  192.9380  168.8820  142.3930 C   0  0  0  0  0  0  0  0  0  0  0  0
  1 39  1  6  0  0  0
  1  7  1  0  0  0  0
  2  4  1  0  0  0  0
  2 26  1  0  0  0  0
  2  5  1  0  0  0  0
  5  9  1  6  0  0  0
  5 16  1  0  0  0  0
  6  7  1  0  0  0  0
  6 15  1  1  0  0  0
  7  3  1  6  0  0  0
  8 19  1  0  0  0  0
 10 32  1  0  0  0  0
 10 15  1  0  0  0  0
 11 21  1  1  0  0  0
 11 22  1  0  0  0  0
 12 36  1  6  0  0  0
 12 30  1  0  0  0  0
 12 19  1  0  0  0  0
 13  6  1  0  0  0  0
 14 27  1  0  0  0  0
 17  1  1  0  0  0  0
 19 11  1  0  0  0  0
 20 23  2  0  0  0  0
 22 17  1  6  0  0  0
 22 13  1  0  0  0  0
 23 28  1  0  0  0  0
 23 18  1  0  0  0  0
 24 14  2  0  0  0  0
 24 20  1  0  0  0  0
 25 24  1  0  0  0  0
 27 34  1  0  0  0  0
 27 28  2  0  0  0  0
 28  2  1  0  0  0  0
 29 25  1  0  0  0  0
 30 29  1  1  0  0  0
 30 31  1  0  0  0  0
 31 20  1  0  0  0  0
 32 18  1  6  0  0  0
 32 16  1  0  0  0  0
 34 33  2  0  0  0  0
 35 34  1  0  0  0  0
 37 36  1  0  0  0  0
 38 37  1  0  0  0  0
 40 39  1  0  0  0  0
 41 44  1  0  0  0  0
 43 44  1  0  0  0  0
 44 40  1  0  0  0  0
 44 42  1  0  0  0  0
M  END
>  <MODEL>
6

>  <REMARK>
 VINA RESULT:      -6.5      3.829      8.564
  Name = 
  6 active torsions:
  status: ('A' for Active; 'I' for Inactive)
    1  A    between atoms: C_1  and  O_35
    2  A    between atoms: C_4  and  C_23
    3  A    between atoms: C_16  and  C_23
    4  A    between atoms: C_19  and  C_37
    5  A    between atoms: C_33  and  C_44
    6  A    between atoms: O_35  and  C_44
                            x       y       z     vdW  Elec       q    Type
                         _______ _______ _______ _____ _____    ______ ____

>  <TORSDO>
F 6

$$$$
=
 OpenBabel11062422113D

 44 48  0  0  1  0  0  0  0  0999 V2000
  194.2550  176.1740  145.6850 C   0  0  2  0  0  3  0  0  0  0  0  0
  191.2210  169.4730  140.5700 C   0  0  0  0  0  0  0  0  0  0  0  0
  194.5350  173.9830  146.5750 F   0  0  0  0  0  0  0  0  0  0  0  0
  190.4950  168.5370  141.2890 F   0  0  0  0  0  0  0  0  0  0  0  0
  192.6130  169.6610  141.1950 C   0  0  1  0  0  3  0  0  0  0  0  0
  193.4960  174.1290  144.3920 C   0  0  2  0  0  3  0  0  0  0  0  0
  194.5420  174.6950  145.3880 C   0  0  1  0  0  3  0  0  0  0  0  0
  189.9120  177.4780  144.6410 O   0  0  0  0  0  1  0  0  0  0  0  0
  193.2730  170.7620  140.6770 F   0  0  0  0  0  0  0  0  0  0  0  0
  192.6810  172.1270  143.1970 C   0  0  0  0  0  2  0  0  0  0  0  0
  190.4270  175.5580  145.7630 C   0  0  1  0  0  3  0  0  0  0  0  0
  188.5890  175.6330  144.1090 C   0  0  2  0  0  3  0  0  0  0  0  0
  192.2600  174.8230  144.3490 O   0  0  0  0  0  0  0  0  0  0  0  0
  189.6410  172.7460  139.2870 C   0  0  0  0  0  3  0  0  0  0  0  0
  193.2800  172.6260  144.4980 C   0  0  0  0  0  2  0  0  0  0  0  0
  192.6590  169.6290  142.7260 C   0  0  0  0  0  2  0  0  0  0  0  0
  192.7870  176.4050  146.0850 C   0  0  0  0  0  2  0  0  0  0  0  0
  190.4700  170.8640  143.0680 C   0  0  0  0  0  2  0  0  0  0  0  0
  189.9280  176.1300  144.4940 N   0  0  0  0  0  0  0  0  0  0  0  0
  189.7020  172.8180  141.7000 C   0  0  0  0  0  0  0  0  0  0  0  0
  189.7070  174.2930  146.2290 C   0  0  0  0  0  1  0  0  0  0  0  0
  191.9120  175.2330  145.6520 C   0  0  1  0  0  3  0  0  0  0  0  0
  190.1890  171.4960  141.7290 C   0  0  0  0  0  0  0  0  0  0  0  0
  189.5170  173.4620  140.4700 C   0  0  0  0  0  0  0  0  0  0  0  0
  189.1440  174.8420  140.4260 N   0  0  0  0  0  2  0  0  0  0  0  0
  191.4580  168.9420  139.3190 F   0  0  0  0  0  0  0  0  0  0  0  0
  190.0500  171.4100  139.2890 C   0  0  0  0  0  0  0  0  0  0  0  0
  190.4410  170.7940  140.5170 C   0  0  0  0  0  0  0  0  0  0  0  0
  189.1510  175.6560  141.6340 C   0  0  0  0  0  2  0  0  0  0  0  0
  188.6110  174.8340  142.8020 C   0  0  1  0  0  3  0  0  0  0  0  0
  189.4760  173.5810  142.9840 C   0  0  0  0  0  2  0  0  0  0  0  0
  191.9590  170.8020  143.4090 C   0  0  2  0  0  3  0  0  0  0  0  0
  189.2510  169.6680  137.8880 O   0  0  0  0  0  0  0  0  0  0  0  0
  189.9580  170.7040  137.9960 C   0  0  0  0  0  0  0  0  0  0  0  0
  190.7590  171.1240  136.8920 N   0  0  0  0  0  1  0  0  0  0  0  0
  187.4080  176.6060  144.2910 C   0  0  0  0  0  2  0  0  0  0  0  0
  186.6530  176.4160  145.5970 C   0  0  0  0  0  2  0  0  0  0  0  0
  187.2890  177.1210  146.6170 O   0  0  0  0  0  1  0  0  0  0  0  0
  194.5700  176.9490  144.5650 O   0  0  0  0  0  0  0  0  0  0  0  0
  195.8740  176.5810  144.2170 C   0  0  0  0  0  2  0  0  0  0  0  0
  194.6940  176.4160  142.1630 O   0  0  0  0  0  1  0  0  0  0  0  0
  196.4280  174.9910  142.5270 O   0  0  0  0  0  1  0  0  0  0  0  0
  196.8190  177.1880  142.1240 F   0  0  0  0  0  0  0  0  0  0  0  0
  195.9610  176.2900  142.7280 C   0  0  0  0  0  0  0  0  0  0  0  0
  1 39  1  6  0  0  0
  1 17  1  0  0  0  0
  2  5  1  0  0  0  0
  2  4  1  0  0  0  0
  5  9  1  1  0  0  0
  5 16  1  0  0  0  0
  6 15  1  1  0  0  0
  6  7  1  0  0  0  0
  7  1  1  0  0  0  0
  7  3  1  1  0  0  0
 10 32  1  0  0  0  0
 10 15  1  0  0  0  0
 11 21  1  6  0  0  0
 12 36  1  6  0  0  0
 12 19  1  0  0  0  0
 13  6  1  0  0  0  0
 13 22  1  0  0  0  0
 14 27  2  0  0  0  0
 14 24  1  0  0  0  0
 18 32  1  0  0  0  0
 19  8  1  0  0  0  0
 19 11  1  0  0  0  0
 20 23  1  0  0  0  0
 20 31  1  0  0  0  0
 22 11  1  0  0  0  0
 22 17  1  6  0  0  0
 23 18  1  0  0  0  0
 24 20  2  0  0  0  0
 25 24  1  0  0  0  0
 25 29  1  0  0  0  0
 26  2  1  0  0  0  0
 27 28  1  0  0  0  0
 28  2  1  0  0  0  0
 28 23  2  0  0  0  0
 30 29  1  6  0  0  0
 30 31  1  0  0  0  0
 30 12  1  0  0  0  0
 32 16  1  6  0  0  0
 33 34  2  0  0  0  0
 34 27  1  0  0  0  0
 35 34  1  0  0  0  0
 36 37  1  0  0  0  0
 37 38  1  0  0  0  0
 40 39  1  0  0  0  0
 41 44  1  0  0  0  0
 42 44  1  0  0  0  0
 43 44  1  0  0  0  0
 44 40  1  0  0  0  0
M  END
>  <MODEL>
7

>  <REMARK>
 VINA RESULT:      -6.5      3.019      6.281
  Name = 
  6 active torsions:
  status: ('A' for Active; 'I' for Inactive)
    1  A    between atoms: C_1  and  O_35
    2  A    between atoms: C_4  and  C_23
    3  A    between atoms: C_16  and  C_23
    4  A    between atoms: C_19  and  C_37
    5  A    between atoms: C_33  and  C_44
    6  A    between atoms: O_35  and  C_44
                            x       y       z     vdW  Elec       q    Type
                         _______ _______ _______ _____ _____    ______ ____

>  <TORSDO>
F 6

$$$$
=
 OpenBabel11062422113D

 44 48  0  0  1  0  0  0  0  0999 V2000
  196.3060  173.6980  138.3220 C   0  0  2  0  0  3  0  0  0  0  0  0
  188.1850  173.9280  142.0980 C   0  0  0  0  0  0  0  0  0  0  0  0
  194.9590  171.7610  138.0000 F   0  0  0  0  0  0  0  0  0  0  0  0
  187.8690  172.7520  142.7610 F   0  0  0  0  0  0  0  0  0  0  0  0
  188.5660  173.6280  140.6400 C   0  0  1  0  0  3  0  0  0  0  0  0
  193.9620  173.5600  139.2780 C   0  0  2  0  0  3  0  0  0  0  0  0
  194.8920  173.1390  138.1100 C   0  0  1  0  0  3  0  0  0  0  0  0
  197.1820  174.9400  142.7210 O   0  0  0  0  0  1  0  0  0  0  0  0
  189.1350  174.7250  140.0140 F   0  0  0  0  0  0  0  0  0  0  0  0
  191.7120  173.3610  140.2780 C   0  0  0  0  0  2  0  0  0  0  0  0
  196.1670  172.9820  142.1310 C   0  0  1  0  0  3  0  0  0  0  0  0
  195.4730  174.2410  144.1440 C   0  0  2  0  0  3  0  0  0  0  0  0
  194.6180  173.8850  140.4930 O   0  0  0  0  0  0  0  0  0  0  0  0
  190.3220  176.6890  143.7280 C   0  0  0  0  0  3  0  0  0  0  0  0
  192.7930  172.6150  139.5210 C   0  0  0  0  0  2  0  0  0  0  0  0
  189.3830  172.3520  140.4190 C   0  0  0  0  0  2  0  0  0  0  0  0
  196.8450  173.3800  139.7280 C   0  0  0  0  0  2  0  0  0  0  0  0
  190.7840  172.5830  142.5210 C   0  0  0  0  0  2  0  0  0  0  0  0
  195.9820  174.3090  142.7570 N   0  0  0  0  0  0  0  0  0  0  0  0
  191.7120  174.7440  143.3890 C   0  0  0  0  0  0  0  0  0  0  0  0
  195.4390  171.8320  142.8260 C   0  0  0  0  0  1  0  0  0  0  0  0
  195.7090  173.0110  140.6770 C   0  0  1  0  0  3  0  0  0  0  0  0
  190.5900  174.0190  142.9370 C   0  0  0  0  0  0  0  0  0  0  0  0
  191.5810  176.1030  143.6970 C   0  0  0  0  0  0  0  0  0  0  0  0
  192.7320  176.8820  144.0360 N   0  0  0  0  0  2  0  0  0  0  0  0
  187.0320  174.6820  142.0210 F   0  0  0  0  0  0  0  0  0  0  0  0
  189.1810  175.9740  143.3570 C   0  0  0  0  0  0  0  0  0  0  0  0
  189.3170  174.6470  142.8440 C   0  0  0  0  0  0  0  0  0  0  0  0
  194.0740  176.3410  143.8690 C   0  0  0  0  0  2  0  0  0  0  0  0
  194.0850  174.8740  144.2930 C   0  0  1  0  0  3  0  0  0  0  0  0
  193.0740  174.0930  143.4460 C   0  0  0  0  0  2  0  0  0  0  0  0
  190.7920  172.3870  141.0050 C   0  0  2  0  0  3  0  0  0  0  0  0
  187.4350  177.4810  142.7970 O   0  0  0  0  0  0  0  0  0  0  0  0
  187.8890  176.6380  143.6150 C   0  0  0  0  0  0  0  0  0  0  0  0
  187.2010  176.4150  144.8450 N   0  0  0  0  0  1  0  0  0  0  0  0
  196.4810  174.5400  145.2700 C   0  0  0  0  0  2  0  0  0  0  0  0
  196.8160  173.3310  146.1290 C   0  0  0  0  0  2  0  0  0  0  0  0
  197.5670  172.4190  145.3880 O   0  0  0  0  0  1  0  0  0  0  0  0
  196.3010  175.0810  138.1170 O   0  0  0  0  0  0  0  0  0  0  0  0
  197.2770  175.3130  137.1420 C   0  0  0  0  0  2  0  0  0  0  0  0
  195.2730  176.0400  136.0960 O   0  0  0  0  0  1  0  0  0  0  0  0
  196.8700  175.0650  134.8040 O   0  0  0  0  0  1  0  0  0  0  0  0
  197.1900  177.1490  135.6380 F   0  0  0  0  0  0  0  0  0  0  0  0
  196.6440  175.9060  135.8930 C   0  0  0  0  0  0  0  0  0  0  0  0
  1 39  1  1  0  0  0
  1 17  1  0  0  0  0
  2  4  1  0  0  0  0
  2 28  1  0  0  0  0
  5  9  1  1  0  0  0
  5  2  1  0  0  0  0
  6 15  1  1  0  0  0
  6 13  1  0  0  0  0
  7  3  1  1  0  0  0
  7  1  1  0  0  0  0
  7  6  1  0  0  0  0
  8 19  1  0  0  0  0
 11 19  1  0  0  0  0
 11 21  1  1  0  0  0
 12 30  1  0  0  0  0
 12 36  1  1  0  0  0
 13 22  1  0  0  0  0
 15 10  1  0  0  0  0
 16  5  1  0  0  0  0
 16 32  1  0  0  0  0
 18 23  1  0  0  0  0
 19 12  1  0  0  0  0
 20 31  1  0  0  0  0
 20 24  2  0  0  0  0
 22 17  1  6  0  0  0
 22 11  1  0  0  0  0
 23 20  1  0  0  0  0
 24 14  1  0  0  0  0
 24 25  1  0  0  0  0
 26  2  1  0  0  0  0
 27 34  1  0  0  0  0
 27 14  2  0  0  0  0
 28 23  2  0  0  0  0
 28 27  1  0  0  0  0
 29 25  1  0  0  0  0
 29 30  1  0  0  0  0
 30 31  1  6  0  0  0
 32 10  1  6  0  0  0
 32 18  1  0  0  0  0
 33 34  2  0  0  0  0
 34 35  1  0  0  0  0
 36 37  1  0  0  0  0
 38 37  1  0  0  0  0
 40 39  1  0  0  0  0
 42 44  1  0  0  0  0
 43 44  1  0  0  0  0
 44 41  1  0  0  0  0
 44 40  1  0  0  0  0
M  END
>  <MODEL>
8

>  <REMARK>
 VINA RESULT:      -6.4      4.493      8.325
  Name = 
  6 active torsions:
  status: ('A' for Active; 'I' for Inactive)
    1  A    between atoms: C_1  and  O_35
    2  A    between atoms: C_4  and  C_23
    3  A    between atoms: C_16  and  C_23
    4  A    between atoms: C_19  and  C_37
    5  A    between atoms: C_33  and  C_44
    6  A    between atoms: O_35  and  C_44
                            x       y       z     vdW  Elec       q    Type
                         _______ _______ _______ _____ _____    ______ ____

>  <TORSDO>
F 6

$$$$
=
 OpenBabel11062422113D

 44 48  0  0  1  0  0  0  0  0999 V2000
  193.9730  173.8880  139.3230 C   0  0  2  0  0  3  0  0  0  0  0  0
  189.1380  176.1500  146.5190 C   0  0  0  0  0  0  0  0  0  0  0  0
  191.7290  173.0910  139.3560 F   0  0  0  0  0  0  0  0  0  0  0  0
  188.4140  175.0870  147.0330 F   0  0  0  0  0  0  0  0  0  0  0  0
  188.8090  176.3460  145.0300 C   0  0  1  0  0  3  0  0  0  0  0  0
  192.4170  174.4350  141.2490 C   0  0  2  0  0  3  0  0  0  0  0  0
  192.5180  174.1670  139.7250 C   0  0  1  0  0  3  0  0  0  0  0  0
  196.6900  172.6580  142.8950 O   0  0  0  0  0  1  0  0  0  0  0  0
  189.6890  177.2180  144.4110 F   0  0  0  0  0  0  0  0  0  0  0  0
  190.9100  174.8730  143.1560 C   0  0  0  0  0  2  0  0  0  0  0  0
  194.6030  171.8060  142.5340 C   0  0  1  0  0  3  0  0  0  0  0  0
  195.4260  172.2810  144.8180 C   0  0  2  0  0  3  0  0  0  0  0  0
  193.4690  173.8940  142.0320 O   0  0  0  0  0  0  0  0  0  0  0  0
  192.8550  176.7030  147.3730 C   0  0  0  0  0  3  0  0  0  0  0  0
  191.0580  174.1100  141.8540 C   0  0  0  0  0  2  0  0  0  0  0  0
  188.6100  175.0590  144.2230 C   0  0  0  0  0  2  0  0  0  0  0  0
  194.6180  172.8110  140.2150 C   0  0  0  0  0  2  0  0  0  0  0  0
  190.4360  173.7450  145.3930 C   0  0  0  0  0  2  0  0  0  0  0  0
  195.4290  172.6810  143.3940 N   0  0  0  0  0  0  0  0  0  0  0  0
  192.6600  174.6800  146.0700 C   0  0  0  0  0  0  0  0  0  0  0  0
  193.5930  170.9350  143.2790 C   0  0  0  0  0  1  0  0  0  0  0  0
  193.8350  172.6370  141.5120 C   0  0  1  0  0  3  0  0  0  0  0  0
  191.2560  174.7970  146.0950 C   0  0  0  0  0  0  0  0  0  0  0  0
  193.4500  175.6880  146.6360 C   0  0  0  0  0  0  0  0  0  0  0  0
  194.8740  175.6480  146.5100 N   0  0  0  0  0  2  0  0  0  0  0  0
  188.6880  177.2970  147.1400 F   0  0  0  0  0  0  0  0  0  0  0  0
  191.4660  176.8020  147.4780 C   0  0  0  0  0  0  0  0  0  0  0  0
  190.6370  175.9040  146.7390 C   0  0  0  0  0  0  0  0  0  0  0  0
  195.5180  174.6860  145.6250 C   0  0  0  0  0  2  0  0  0  0  0  0
  194.7970  173.3440  145.7260 C   0  0  1  0  0  3  0  0  0  0  0  0
  193.3230  173.5300  145.3490 C   0  0  0  0  0  2  0  0  0  0  0  0
  189.8690  174.2130  144.0530 C   0  0  2  0  0  3  0  0  0  0  0  0
  190.0630  178.6170  148.0940 O   0  0  0  0  0  0  0  0  0  0  0  0
  190.9590  177.8020  148.4390 C   0  0  0  0  0  0  0  0  0  0  0  0
  191.5600  177.9270  149.7270 N   0  0  0  0  0  1  0  0  0  0  0  0
  196.7010  171.6000  145.3510 C   0  0  0  0  0  2  0  0  0  0  0  0
  196.4990  170.1450  145.7430 C   0  0  0  0  0  2  0  0  0  0  0  0
  195.2200  169.9700  146.2690 O   0  0  0  0  0  1  0  0  0  0  0  0
  194.7160  175.0700  139.3930 O   0  0  0  0  0  0  0  0  0  0  0  0
  195.9320  174.7790  138.7640 C   0  0  0  0  0  2  0  0  0  0  0  0
  197.7950  174.2030  140.1180 O   0  0  0  0  0  1  0  0  0  0  0  0
  196.6130  176.0700  140.6510 O   0  0  0  0  0  1  0  0  0  0  0  0
  197.9410  176.0440  138.8140 F   0  0  0  0  0  0  0  0  0  0  0  0
  197.0930  175.2890  139.6010 C   0  0  0  0  0  0  0  0  0  0  0  0
  1 39  1  1  0  0  0
  1  7  1  0  0  0  0
  1 17  1  0  0  0  0
  2 28  1  0  0  0  0
  2  4  1  0  0  0  0
  2 26  1  0  0  0  0
  5  9  1  6  0  0  0
  5  2  1  0  0  0  0
  6 15  1  1  0  0  0
  6 13  1  0  0  0  0
  7  3  1  1  0  0  0
  7  6  1  0  0  0  0
  8 19  1  0  0  0  0
 11 21  1  1  0  0  0
 11 19  1  0  0  0  0
 12 36  1  1  0  0  0
 12 30  1  0  0  0  0
 14 27  1  0  0  0  0
 15 10  1  0  0  0  0
 16  5  1  0  0  0  0
 18 23  1  0  0  0  0
 19 12  1  0  0  0  0
 20 23  2  0  0  0  0
 20 24  1  0  0  0  0
 22 17  1  6  0  0  0
 22 13  1  0  0  0  0
 22 11  1  0  0  0  0
 23 28  1  0  0  0  0
 24 14  2  0  0  0  0
 25 24  1  0  0  0  0
 27 34  1  0  0  0  0
 28 27  2  0  0  0  0
 29 30  1  0  0  0  0
 29 25  1  0  0  0  0
 30 31  1  6  0  0  0
 31 20  1  0  0  0  0
 32 10  1  1  0  0  0
 32 16  1  0  0  0  0
 32 18  1  0  0  0  0
 33 34  2  0  0  0  0
 34 35  1  0  0  0  0
 36 37  1  0  0  0  0
 37 38  1  0  0  0  0
 40 39  1  0  0  0  0
 40 44  1  0  0  0  0
 43 44  1  0  0  0  0
 44 41  1  0  0  0  0
 44 42  1  0  0  0  0
M  END
>  <MODEL>
9

>  <REMARK>
 VINA RESULT:      -6.4      4.094      8.589
  Name = 
  6 active torsions:
  status: ('A' for Active; 'I' for Inactive)
    1  A    between atoms: C_1  and  O_35
    2  A    between atoms: C_4  and  C_23
    3  A    between atoms: C_16  and  C_23
    4  A    between atoms: C_19  and  C_37
    5  A    between atoms: C_33  and  C_44
    6  A    between atoms: O_35  and  C_44
                            x       y       z     vdW  Elec       q    Type
                         _______ _______ _______ _____ _____    ______ ____

>  <TORSDO>
F 6

$$$$
