=
 OpenBabel11062418363D

 55 60  0  0  1  0  0  0  0  0999 V2000
  191.6270  174.6430  144.1810 C   0  0  1  0  0  3  0  0  0  0  0  0
  191.1420  175.9240  144.8960 C   0  0  2  0  0  3  0  0  0  0  0  0
  189.2400  177.6630  147.0890 C   0  0  0  0  0  0  0  0  0  0  0  0
  191.2240  175.5540  146.3810 C   0  0  0  0  0  2  0  0  0  0  0  0
  190.3740  177.5850  147.8320 C   0  0  0  0  0  0  0  0  0  0  0  0
  189.9210  176.5920  144.3030 C   0  0  0  0  0  0  0  0  0  0  0  0
  188.5370  176.6690  145.0460 C   0  0  1  0  0  3  0  0  0  0  0  0
  190.0570  177.1300  143.2070 O   0  0  0  0  0  0  0  0  0  0  0  0
  191.2420  176.4760  147.6430 C   0  0  0  0  0  2  0  0  0  0  0  0
  188.3140  177.5960  146.2390 C   0  0  0  0  0  3  0  0  0  0  0  0
  191.5770  178.1060  149.9170 C   0  0  0  0  0  1  0  0  0  0  0  0
  190.5910  178.3840  148.9270 O   0  0  0  0  0  0  0  0  0  0  0  0
  187.3810  176.7230  144.0130 C   0  0  0  0  0  2  0  0  0  0  0  0
  186.4880  177.9930  144.0440 C   0  0  2  0  0  3  0  0  0  0  0  0
  185.0430  177.9130  144.5040 C   0  0  0  0  0  0  0  0  0  0  0  0
  184.1500  178.4520  143.8380 O   0  0  0  0  0  0  0  0  0  0  0  0
  184.4600  178.4370  146.9750 C   0  0  0  0  0  1  0  0  0  0  0  0
  184.7500  177.5190  145.8890 N   0  0  0  0  0  2  0  0  0  0  0  0
  186.5230  178.7090  142.7900 O   0  0  0  0  0  0  0  0  0  0  0  0
  187.8400  177.8240  140.9090 O   0  0  0  0  0  0  0  0  0  0  0  0
  186.6040  177.9930  141.5220 C   0  0  0  0  0  0  0  0  0  0  0  0
  185.5920  177.4210  141.0670 O   0  0  0  0  0  1  0  0  0  0  0  0
  190.7460  173.5730  144.1840 O   0  0  0  0  0  0  0  0  0  0  0  0
  189.3270  173.5620  142.2630 C   0  0  0  0  0  2  0  0  0  0  0  0
  190.9410  171.6440  142.3400 C   0  0  0  0  0  2  0  0  0  0  0  0
  190.1450  171.6190  141.0520 C   0  0  0  0  0  2  0  0  0  0  0  0
  190.6370  173.0860  142.8310 C   0  0  2  0  0  3  0  0  0  0  0  0
  188.9510  172.5960  141.1980 C   0  0  2  0  0  3  0  0  0  0  0  0
  188.5190  173.2540  139.8770 C   0  0  0  0  0  2  0  0  0  0  0  0
  189.5120  173.0990  138.9090 O   0  0  0  0  0  0  0  0  0  0  0  0
  189.0510  173.9690  137.9110 C   0  0  0  0  0  2  0  0  0  0  0  0
  189.4870  173.4340  136.5700 C   0  0  0  0  0  2  0  0  0  0  0  0
  190.7980  172.7240  136.5790 N   0  0  0  0  0  0  0  0  0  0  0  0
  195.1520  175.4840  136.7730 O   0  0  0  0  0  1  0  0  0  0  0  0
  191.9330  173.8020  136.4540 C   0  0  2  0  0  3  0  0  0  0  0  0
  193.2710  173.8720  137.2960 C   0  0  2  0  0  0  0  0  0  0  0  0
  192.9810  174.5180  138.6000 O   0  0  0  0  0  1  0  0  0  0  0  0
  194.0470  174.7820  136.2940 C   0  0  1  0  0  3  0  0  0  0  0  0
  193.0720  177.0790  135.9090 O   0  0  0  0  0  1  0  0  0  0  0  0
  193.0650  175.7070  135.5200 C   0  0  2  0  0  3  0  0  0  0  0  0
  191.6930  174.9950  135.5620 C   0  0  0  0  0  2  0  0  0  0  0  0
  193.9770  172.5670  137.4920 C   0  0  0  0  0  2  0  0  0  0  0  0
  194.5320  170.7450  135.8650 C   0  0  0  0  0  2  0  0  0  0  0  0
  195.4750  170.8050  136.9770 O   0  0  0  0  0  0  0  0  0  0  0  0
  195.0410  171.9870  136.4320 C   0  0  2  0  0  3  0  0  0  0  0  0
  190.8880  171.6830  135.5650 C   0  0  0  0  0  2  0  0  0  0  0  0
  191.0480  170.2350  137.5540 C   0  0  0  0  0  2  0  0  0  0  0  0
  190.2770  170.4610  136.2840 C   0  0  0  0  0  3  0  0  0  0  0  0
  191.1980  169.2700  136.3850 C   0  0  0  0  0  2  0  0  0  0  0  0
  192.7020  174.6360  143.0760 C   0  0  0  0  0  2  0  0  0  0  0  0
  193.3550  176.0580  142.9640 C   0  0  0  0  0  2  0  0  0  0  0  0
  194.8430  176.0220  144.0060 S   0  0  0  0  0  0  0  0  0  0  0  0
  196.0790  175.8170  142.6710 C   0  0  0  0  0  3  0  0  0  0  0  0
  197.5700  175.4230  143.0700 C   0  0  0  0  0  2  0  0  0  0  0  0
  197.0840  176.8760  143.1530 C   0  0  0  0  0  2  0  0  0  0  0  0
  1 50  1  6  0  0  0
  1 23  1  0  0  0  0
  2  1  1  6  0  0  0
  2  4  1  0  0  0  0
  3  5  2  0  0  0  0
  4  9  1  0  0  0  0
  5 12  1  0  0  0  0
  6  2  1  0  0  0  0
  6  7  1  0  0  0  0
  7 13  1  6  0  0  0
  7 10  1  0  0  0  0
  8  6  2  0  0  0  0
  9  5  1  0  0  0  0
 10  3  2  0  0  0  0
 12 11  1  0  0  0  0
 14 13  1  6  0  0  0
 14 15  1  0  0  0  0
 15 18  1  0  0  0  0
 16 15  2  0  0  0  0
 18 17  1  0  0  0  0
 19 14  1  0  0  0  0
 20 21  2  0  0  0  0
 21 19  1  0  0  0  0
 22 21  1  0  0  0  0
 24 27  1  0  0  0  0
 25 27  1  0  0  0  0
 26 28  1  0  0  0  0
 26 25  1  0  0  0  0
 27 23  1  1  0  0  0
 28 29  1  6  0  0  0
 28 24  1  0  0  0  0
 30 29  1  0  0  0  0
 31 30  1  0  0  0  0
 32 33  1  0  0  0  0
 32 31  1  0  0  0  0
 35 33  1  1  0  0  0
 35 36  1  0  0  0  0
 36 42  1  0  0  0  0
 36 37  1  1  0  0  0
 38 34  1  1  0  0  0
 38 36  1  0  0  0  0
 40 41  1  0  0  0  0
 40 39  1  1  0  0  0
 40 38  1  0  0  0  0
 41 35  1  0  0  0  0
 43 45  1  0  0  0  0
 43 44  1  0  0  0  0
 45 44  1  0  0  0  0
 45 42  1  1  0  0  0
 46 48  1  0  0  0  0
 46 33  1  0  0  0  0
 48 49  1  0  0  0  0
 48 47  1  0  0  0  0
 49 47  1  0  0  0  0
 51 50  1  0  0  0  0
 51 52  1  0  0  0  0
 53 54  1  0  0  0  0
 53 55  1  0  0  0  0
 53 52  1  0  0  0  0
 54 55  1  0  0  0  0
M  END
>  <MODEL>
1

>  <REMARK>
 VINA RESULT:      -5.7      0.000      0.000
  Name = 
  23 active torsions:
  status: ('A' for Active; 'I' for Inactive)
    1  A    between atoms: C_1  and  N_44
    2  A    between atoms: C_1  and  C_46
    3  A    between atoms: C_2  and  C_11
    4  A    between atoms: C_3  and  N_44
    5  A    between atoms: C_3  and  C_50
    6  A    between atoms: C_4  and  C_42
    7  A    between atoms: C_10  and  O_40
    8  A    between atoms: C_11  and  O_20
    9  A    between atoms: C_11  and  C_47
   10  A    between atoms: C_12  and  C_25
   11  A    between atoms: C_12  and  C_51
   12  A    between atoms: C_14  and  C_31
   13  A    between atoms: C_14  and  C_42
   14  A    between atoms: C_17  and  N_44
   15  A    between atoms: O_19  and  C_33
   16  A    between atoms: O_19  and  C_50
   17  A    between atoms: O_20  and  C_22
   18  A    between atoms: C_21  and  C_47
   19  A    between atoms: S_24  and  C_31
   20  A    between atoms: S_24  and  C_36
   21  A    between atoms: C_33  and  C_48
   22  A    between atoms: C_35  and  O_45
   23  A    between atoms: C_42  and  O_45
                            x       y       z     vdW  Elec       q    Type
                         _______ _______ _______ _____ _____    ______ ____

>  <TORSDO>
F 23

$$$$
=
 OpenBabel11062418363D

 55 60  0  0  1  0  0  0  0  0999 V2000
  191.8420  174.7450  144.5950 C   0  0  1  0  0  3  0  0  0  0  0  0
  190.4430  174.5560  143.9680 C   0  0  2  0  0  3  0  0  0  0  0  0
  188.0420  175.0810  141.6420 C   0  0  0  0  0  0  0  0  0  0  0  0
  190.7520  174.1960  142.5110 C   0  0  0  0  0  2  0  0  0  0  0  0
  188.4900  173.8800  141.1930 C   0  0  0  0  0  0  0  0  0  0  0  0
  189.4070  175.5950  144.3340 C   0  0  0  0  0  0  0  0  0  0  0  0
  188.8050  176.6110  143.2950 C   0  0  1  0  0  3  0  0  0  0  0  0
  189.0030  175.5950  145.4940 O   0  0  0  0  0  0  0  0  0  0  0  0
  189.8440  173.5230  141.4310 C   0  0  0  0  0  2  0  0  0  0  0  0
  187.8080  176.1720  142.2240 C   0  0  0  0  0  3  0  0  0  0  0  0
  188.3290  172.5850  139.1040 C   0  0  0  0  0  1  0  0  0  0  0  0
  187.7750  173.1150  140.3060 O   0  0  0  0  0  0  0  0  0  0  0  0
  188.3830  177.9200  144.0140 C   0  0  0  0  0  2  0  0  0  0  0  0
  186.8810  178.0480  144.3870 C   0  0  2  0  0  3  0  0  0  0  0  0
  185.9790  179.0200  143.6450 C   0  0  0  0  0  0  0  0  0  0  0  0
  185.5930  180.0550  144.2040 O   0  0  0  0  0  0  0  0  0  0  0  0
  183.9120  178.1200  142.3680 C   0  0  0  0  0  1  0  0  0  0  0  0
  185.2890  178.5740  142.4280 N   0  0  0  0  0  2  0  0  0  0  0  0
  186.6910  178.2490  145.8040 O   0  0  0  0  0  0  0  0  0  0  0  0
  184.5780  177.1010  146.3310 O   0  0  0  0  0  0  0  0  0  0  0  0
  185.9280  177.2910  146.5990 C   0  0  0  0  0  0  0  0  0  0  0  0
  186.5180  176.5540  147.4160 O   0  0  0  0  0  1  0  0  0  0  0  0
  192.2310  173.7880  145.5190 O   0  0  0  0  0  0  0  0  0  0  0  0
  192.7320  171.7650  144.3500 C   0  0  0  0  0  2  0  0  0  0  0  0
  194.6880  172.7300  145.5910 C   0  0  0  0  0  2  0  0  0  0  0  0
  195.1070  171.5060  144.8030 C   0  0  0  0  0  2  0  0  0  0  0  0
  193.3090  173.0250  144.9390 C   0  0  2  0  0  3  0  0  0  0  0  0
  193.8290  170.7620  144.3410 C   0  0  2  0  0  3  0  0  0  0  0  0
  193.9890  170.0190  143.0040 C   0  0  0  0  0  2  0  0  0  0  0  0
  192.7440  169.6140  142.5210 O   0  0  0  0  0  0  0  0  0  0  0  0
  193.0120  169.5090  141.1490 C   0  0  0  0  0  2  0  0  0  0  0  0
  193.9730  170.6060  140.7630 C   0  0  0  0  0  2  0  0  0  0  0  0
  193.5780  171.3840  139.5540 N   0  0  0  0  0  0  0  0  0  0  0  0
  196.8530  175.3700  139.5470 O   0  0  0  0  0  1  0  0  0  0  0  0
  194.2830  172.7850  139.6290 C   0  0  2  0  0  3  0  0  0  0  0  0
  195.8370  173.0600  139.7500 C   0  0  2  0  0  0  0  0  0  0  0  0
  196.2360  172.9290  141.1730 O   0  0  0  0  0  1  0  0  0  0  0  0
  195.7830  174.5320  139.2380 C   0  0  1  0  0  3  0  0  0  0  0  0
  194.4430  176.1420  140.6490 O   0  0  0  0  0  1  0  0  0  0  0  0
  194.4160  175.1860  139.5910 C   0  0  2  0  0  3  0  0  0  0  0  0
  193.4190  174.0160  139.7580 C   0  0  0  0  0  2  0  0  0  0  0  0
  196.7100  172.2190  138.8720 C   0  0  0  0  0  2  0  0  0  0  0  0
  196.1410  170.6520  137.0010 C   0  0  0  0  0  2  0  0  0  0  0  0
  197.4660  171.2460  136.8480 O   0  0  0  0  0  0  0  0  0  0  0  0
  196.4450  172.0480  137.2930 C   0  0  2  0  0  3  0  0  0  0  0  0
  192.1360  171.4800  139.3850 C   0  0  0  0  0  2  0  0  0  0  0  0
  191.0480  170.0030  137.7390 C   0  0  0  0  0  2  0  0  0  0  0  0
  191.9530  171.1940  137.8800 C   0  0  0  0  0  3  0  0  0  0  0  0
  192.5310  169.8790  137.4180 C   0  0  0  0  0  2  0  0  0  0  0  0
  192.9770  175.5450  143.9260 C   0  0  0  0  0  2  0  0  0  0  0  0
  193.2840  176.8340  144.7650 C   0  0  0  0  0  2  0  0  0  0  0  0
  195.0410  176.7430  145.2200 S   0  0  0  0  0  0  0  0  0  0  0  0
  195.6200  175.7610  143.7880 C   0  0  0  0  0  3  0  0  0  0  0  0
  197.1520  175.3280  143.7330 C   0  0  0  0  0  2  0  0  0  0  0  0
  196.7080  176.7310  143.2970 C   0  0  0  0  0  2  0  0  0  0  0  0
  1 50  1  6  0  0  0
  1 23  1  0  0  0  0
  2  6  1  0  0  0  0
  2  1  1  6  0  0  0
  3 10  2  0  0  0  0
  4  2  1  0  0  0  0
  5  9  1  0  0  0  0
  5  3  2  0  0  0  0
  6  8  2  0  0  0  0
  7 13  1  1  0  0  0
  7  6  1  0  0  0  0
  9  4  1  0  0  0  0
 10  7  1  0  0  0  0
 11 12  1  0  0  0  0
 12  5  1  0  0  0  0
 14 13  1  1  0  0  0
 14 19  1  0  0  0  0
 15 16  2  0  0  0  0
 15 14  1  0  0  0  0
 17 18  1  0  0  0  0
 18 15  1  0  0  0  0
 19 21  1  0  0  0  0
 20 21  2  0  0  0  0
 21 22  1  0  0  0  0
 24 27  1  0  0  0  0
 26 25  1  0  0  0  0
 27 23  1  1  0  0  0
 27 25  1  0  0  0  0
 28 29  1  6  0  0  0
 28 24  1  0  0  0  0
 28 26  1  0  0  0  0
 30 29  1  0  0  0  0
 31 30  1  0  0  0  0
 32 31  1  0  0  0  0
 33 32  1  0  0  0  0
 35 33  1  1  0  0  0
 35 36  1  0  0  0  0
 35 41  1  0  0  0  0
 36 37  1  1  0  0  0
 38 34  1  1  0  0  0
 38 40  1  0  0  0  0
 38 36  1  0  0  0  0
 40 41  1  0  0  0  0
 40 39  1  1  0  0  0
 42 36  1  0  0  0  0
 43 45  1  0  0  0  0
 44 43  1  0  0  0  0
 44 45  1  0  0  0  0
 45 42  1  1  0  0  0
 46 33  1  0  0  0  0
 47 48  1  0  0  0  0
 48 46  1  0  0  0  0
 49 47  1  0  0  0  0
 49 48  1  0  0  0  0
 50 51  1  0  0  0  0
 51 52  1  0  0  0  0
 53 52  1  0  0  0  0
 54 53  1  0  0  0  0
 55 54  1  0  0  0  0
 55 53  1  0  0  0  0
M  END
>  <MODEL>
2

>  <REMARK>
 VINA RESULT:      -5.6      2.664      4.587
  Name = 
  23 active torsions:
  status: ('A' for Active; 'I' for Inactive)
    1  A    between atoms: C_1  and  N_44
    2  A    between atoms: C_1  and  C_46
    3  A    between atoms: C_2  and  C_11
    4  A    between atoms: C_3  and  N_44
    5  A    between atoms: C_3  and  C_50
    6  A    between atoms: C_4  and  C_42
    7  A    between atoms: C_10  and  O_40
    8  A    between atoms: C_11  and  O_20
    9  A    between atoms: C_11  and  C_47
   10  A    between atoms: C_12  and  C_25
   11  A    between atoms: C_12  and  C_51
   12  A    between atoms: C_14  and  C_31
   13  A    between atoms: C_14  and  C_42
   14  A    between atoms: C_17  and  N_44
   15  A    between atoms: O_19  and  C_33
   16  A    between atoms: O_19  and  C_50
   17  A    between atoms: O_20  and  C_22
   18  A    between atoms: C_21  and  C_47
   19  A    between atoms: S_24  and  C_31
   20  A    between atoms: S_24  and  C_36
   21  A    between atoms: C_33  and  C_48
   22  A    between atoms: C_35  and  O_45
   23  A    between atoms: C_42  and  O_45
                            x       y       z     vdW  Elec       q    Type
                         _______ _______ _______ _____ _____    ______ ____

>  <TORSDO>
F 23

$$$$
=
 OpenBabel11062418363D

 55 60  0  0  1  0  0  0  0  0999 V2000
  192.2380  174.8840  144.6950 C   0  0  1  0  0  3  0  0  0  0  0  0
  191.8720  176.1590  145.4890 C   0  0  2  0  0  3  0  0  0  0  0  0
  190.0180  177.9810  147.6540 C   0  0  0  0  0  0  0  0  0  0  0  0
  191.7300  175.6520  146.9280 C   0  0  0  0  0  2  0  0  0  0  0  0
  191.0360  177.6590  148.4920 C   0  0  0  0  0  0  0  0  0  0  0  0
  190.8410  177.0620  144.8510 C   0  0  0  0  0  0  0  0  0  0  0  0
  189.4090  177.2940  145.4600 C   0  0  1  0  0  3  0  0  0  0  0  0
  191.1780  177.6650  143.8360 O   0  0  0  0  0  0  0  0  0  0  0  0
  191.7440  176.4450  148.2750 C   0  0  0  0  0  2  0  0  0  0  0  0
  189.1940  178.1370  146.7150 C   0  0  0  0  0  3  0  0  0  0  0  0
  191.6140  177.6510  150.8870 C   0  0  0  0  0  1  0  0  0  0  0  0
  191.2460  178.3140  149.6800 O   0  0  0  0  0  0  0  0  0  0  0  0
  188.3970  177.6220  144.3300 C   0  0  0  0  0  2  0  0  0  0  0  0
  187.1400  176.7150  144.2460 C   0  0  2  0  0  3  0  0  0  0  0  0
  186.6870  176.1420  142.9140 C   0  0  0  0  0  0  0  0  0  0  0  0
  187.2190  175.1170  142.4680 O   0  0  0  0  0  0  0  0  0  0  0  0
  186.4200  177.7170  140.8730 C   0  0  0  0  0  1  0  0  0  0  0  0
  185.8920  176.9790  142.0050 N   0  0  0  0  0  2  0  0  0  0  0  0
  185.9960  177.3140  144.8910 O   0  0  0  0  0  0  0  0  0  0  0  0
  185.7580  179.5980  144.0060 O   0  0  0  0  0  0  0  0  0  0  0  0
  185.9240  178.7560  145.0990 C   0  0  0  0  0  0  0  0  0  0  0  0
  185.8750  179.2140  146.2590 O   0  0  0  0  0  1  0  0  0  0  0  0
  192.8350  173.8650  145.4210 O   0  0  0  0  0  0  0  0  0  0  0  0
  194.8480  172.5940  145.2290 C   0  0  0  0  0  2  0  0  0  0  0  0
  195.2080  174.9490  146.0170 C   0  0  0  0  0  2  0  0  0  0  0  0
  196.5340  174.2400  145.8310 C   0  0  0  0  0  2  0  0  0  0  0  0
  194.2630  173.9800  145.2530 C   0  0  2  0  0  3  0  0  0  0  0  0
  196.2580  172.7230  145.6810 C   0  0  2  0  0  3  0  0  0  0  0  0
  197.2740  171.9910  144.7860 C   0  0  0  0  0  2  0  0  0  0  0  0
  196.7450  171.7960  143.5100 O   0  0  0  0  0  0  0  0  0  0  0  0
  197.9070  171.8610  142.7270 C   0  0  0  0  0  2  0  0  0  0  0  0
  197.5230  172.3000  141.3350 C   0  0  0  0  0  2  0  0  0  0  0  0
  196.2380  173.0520  141.2510 N   0  0  0  0  0  0  0  0  0  0  0  0
  192.7340  170.0180  138.9870 O   0  0  0  0  0  1  0  0  0  0  0  0
  195.2910  172.2810  140.2640 C   0  0  2  0  0  3  0  0  0  0  0  0
  194.4580  170.9720  140.5750 C   0  0  2  0  0  0  0  0  0  0  0  0
  195.3490  169.7940  140.4330 O   0  0  0  0  0  1  0  0  0  0  0  0
  193.4400  171.1440  139.4070 C   0  0  1  0  0  3  0  0  0  0  0  0
  194.4150  171.0900  137.0780 O   0  0  0  0  0  1  0  0  0  0  0  0
  194.0970  171.8930  138.2130 C   0  0  2  0  0  3  0  0  0  0  0  0
  195.2630  172.7090  138.8170 C   0  0  0  0  0  2  0  0  0  0  0  0
  193.7580  170.9550  141.8980 C   0  0  0  0  0  2  0  0  0  0  0  0
  192.3090  169.0700  142.6890 C   0  0  0  0  0  2  0  0  0  0  0  0
  192.7340  169.9420  143.7790 O   0  0  0  0  0  0  0  0  0  0  0  0
  193.6490  169.6290  142.8060 C   0  0  2  0  0  3  0  0  0  0  0  0
  196.4200  174.4500  140.8910 C   0  0  0  0  0  2  0  0  0  0  0  0
  196.4170  176.6460  142.0120 C   0  0  0  0  0  2  0  0  0  0  0  0
  196.2590  175.1700  142.2470 C   0  0  0  0  0  3  0  0  0  0  0  0
  197.5040  175.8660  142.7380 C   0  0  0  0  0  2  0  0  0  0  0  0
  191.5500  174.4700  143.3800 C   0  0  0  0  0  2  0  0  0  0  0  0
  190.1930  173.7490  143.6950 C   0  0  0  0  0  2  0  0  0  0  0  0
  190.1520  172.2580  142.6570 S   0  0  0  0  0  0  0  0  0  0  0  0
  190.5730  173.0520  141.0620 C   0  0  0  0  0  3  0  0  0  0  0  0
  189.3910  173.4180  140.0590 C   0  0  0  0  0  2  0  0  0  0  0  0
  189.9570  171.9930  140.1330 C   0  0  0  0  0  2  0  0  0  0  0  0
  1 50  1  1  0  0  0
  1 23  1  0  0  0  0
  2  1  1  6  0  0  0
  2  4  1  0  0  0  0
  3  5  2  0  0  0  0
  4  9  1  0  0  0  0
  5 12  1  0  0  0  0
  6  7  1  0  0  0  0
  6  2  1  0  0  0  0
  7 13  1  6  0  0  0
  7 10  1  0  0  0  0
  8  6  2  0  0  0  0
  9  5  1  0  0  0  0
 10  3  2  0  0  0  0
 12 11  1  0  0  0  0
 14 13  1  6  0  0  0
 14 19  1  0  0  0  0
 15 14  1  0  0  0  0
 16 15  2  0  0  0  0
 17 18  1  0  0  0  0
 18 15  1  0  0  0  0
 19 21  1  0  0  0  0
 20 21  2  0  0  0  0
 21 22  1  0  0  0  0
 24 27  1  0  0  0  0
 24 28  1  0  0  0  0
 26 25  1  0  0  0  0
 27 23  1  1  0  0  0
 27 25  1  0  0  0  0
 28 29  1  6  0  0  0
 28 26  1  0  0  0  0
 30 29  1  0  0  0  0
 31 30  1  0  0  0  0
 32 31  1  0  0  0  0
 33 32  1  0  0  0  0
 35 36  1  0  0  0  0
 35 33  1  6  0  0  0
 36 37  1  6  0  0  0
 36 42  1  0  0  0  0
 38 34  1  6  0  0  0
 38 36  1  0  0  0  0
 40 39  1  6  0  0  0
 40 41  1  0  0  0  0
 40 38  1  0  0  0  0
 41 35  1  0  0  0  0
 43 45  1  0  0  0  0
 43 44  1  0  0  0  0
 45 42  1  6  0  0  0
 45 44  1  0  0  0  0
 46 33  1  0  0  0  0
 46 48  1  0  0  0  0
 47 48  1  0  0  0  0
 47 49  1  0  0  0  0
 48 49  1  0  0  0  0
 50 51  1  0  0  0  0
 52 51  1  0  0  0  0
 53 52  1  0  0  0  0
 54 55  1  0  0  0  0
 54 53  1  0  0  0  0
 55 53  1  0  0  0  0
M  END
>  <MODEL>
3

>  <REMARK>
 VINA RESULT:      -5.4      2.842      5.872
  Name = 
  23 active torsions:
  status: ('A' for Active; 'I' for Inactive)
    1  A    between atoms: C_1  and  N_44
    2  A    between atoms: C_1  and  C_46
    3  A    between atoms: C_2  and  C_11
    4  A    between atoms: C_3  and  N_44
    5  A    between atoms: C_3  and  C_50
    6  A    between atoms: C_4  and  C_42
    7  A    between atoms: C_10  and  O_40
    8  A    between atoms: C_11  and  O_20
    9  A    between atoms: C_11  and  C_47
   10  A    between atoms: C_12  and  C_25
   11  A    between atoms: C_12  and  C_51
   12  A    between atoms: C_14  and  C_31
   13  A    between atoms: C_14  and  C_42
   14  A    between atoms: C_17  and  N_44
   15  A    between atoms: O_19  and  C_33
   16  A    between atoms: O_19  and  C_50
   17  A    between atoms: O_20  and  C_22
   18  A    between atoms: C_21  and  C_47
   19  A    between atoms: S_24  and  C_31
   20  A    between atoms: S_24  and  C_36
   21  A    between atoms: C_33  and  C_48
   22  A    between atoms: C_35  and  O_45
   23  A    between atoms: C_42  and  O_45
                            x       y       z     vdW  Elec       q    Type
                         _______ _______ _______ _____ _____    ______ ____

>  <TORSDO>
F 23

$$$$
=
 OpenBabel11062418363D

 55 60  0  0  1  0  0  0  0  0999 V2000
  195.1830  171.5700  142.4230 C   0  0  1  0  0  3  0  0  0  0  0  0
  195.4120  171.9250  140.9360 C   0  0  2  0  0  3  0  0  0  0  0  0
  195.0220  173.8080  138.1510 C   0  0  0  0  0  0  0  0  0  0  0  0
  195.8470  173.3940  140.9860 C   0  0  0  0  0  2  0  0  0  0  0  0
  196.2430  174.2680  138.5290 C   0  0  0  0  0  0  0  0  0  0  0  0
  194.3600  171.4330  139.9680 C   0  0  0  0  0  0  0  0  0  0  0  0
  193.4030  172.3990  139.1760 C   0  0  1  0  0  3  0  0  0  0  0  0
  194.3000  170.2220  139.7770 O   0  0  0  0  0  0  0  0  0  0  0  0
  196.5810  174.2580  139.9090 C   0  0  0  0  0  2  0  0  0  0  0  0
  193.9030  173.2500  138.0110 C   0  0  0  0  0  3  0  0  0  0  0  0
  196.5770  175.6740  136.5350 C   0  0  0  0  0  1  0  0  0  0  0  0
  197.0570  174.9730  137.6790 O   0  0  0  0  0  0  0  0  0  0  0  0
  192.0600  171.6840  138.8710 C   0  0  0  0  0  2  0  0  0  0  0  0
  190.8160  172.1950  139.6470 C   0  0  2  0  0  3  0  0  0  0  0  0
  190.0920  173.4560  139.2060 C   0  0  0  0  0  0  0  0  0  0  0  0
  189.1980  173.9360  139.9140 O   0  0  0  0  0  0  0  0  0  0  0  0
  189.2090  173.6350  136.7760 C   0  0  0  0  0  1  0  0  0  0  0  0
  190.1970  173.8920  137.8070 N   0  0  0  0  0  2  0  0  0  0  0  0
  191.0650  172.2920  141.0660 O   0  0  0  0  0  0  0  0  0  0  0  0
  191.0110  170.1810  142.3300 O   0  0  0  0  0  0  0  0  0  0  0  0
  190.4070  171.3890  142.0040 C   0  0  0  0  0  0  0  0  0  0  0  0
  189.3820  171.7630  142.6100 O   0  0  0  0  0  1  0  0  0  0  0  0
  193.8940  171.7460  142.8990 O   0  0  0  0  0  0  0  0  0  0  0  0
  193.2670  174.0110  143.3300 C   0  0  0  0  0  2  0  0  0  0  0  0
  195.1530  173.1900  144.7670 C   0  0  0  0  0  2  0  0  0  0  0  0
  194.7540  174.5960  145.1640 C   0  0  0  0  0  2  0  0  0  0  0  0
  193.9300  172.7850  143.9000 C   0  0  2  0  0  3  0  0  0  0  0  0
  193.8430  175.1760  144.0520 C   0  0  2  0  0  3  0  0  0  0  0  0
  192.7940  176.1770  144.5660 C   0  0  0  0  0  2  0  0  0  0  0  0
  192.6950  177.2650  143.6970 O   0  0  0  0  0  0  0  0  0  0  0  0
  191.3930  177.0950  143.2050 C   0  0  0  0  0  2  0  0  0  0  0  0
  190.4470  177.8940  144.0690 C   0  0  0  0  0  2  0  0  0  0  0  0
  189.2710  177.1310  144.5750 N   0  0  0  0  0  0  0  0  0  0  0  0
  184.6290  178.8750  143.1510 O   0  0  0  0  0  1  0  0  0  0  0  0
  187.9970  177.6460  143.8140 C   0  0  2  0  0  3  0  0  0  0  0  0
  186.5230  177.7330  144.3830 C   0  0  2  0  0  0  0  0  0  0  0  0
  185.8880  176.3970  144.2720 O   0  0  0  0  0  1  0  0  0  0  0  0
  186.0060  178.7720  143.3410 C   0  0  1  0  0  3  0  0  0  0  0  0
  186.0270  178.0170  140.9310 O   0  0  0  0  0  1  0  0  0  0  0  0
  186.7650  178.6190  141.9920 C   0  0  2  0  0  3  0  0  0  0  0  0
  188.1170  177.9540  142.3410 C   0  0  0  0  0  2  0  0  0  0  0  0
  186.4010  178.2670  145.7770 C   0  0  0  0  0  2  0  0  0  0  0  0
  184.0480  178.2900  146.6370 C   0  0  0  0  0  2  0  0  0  0  0  0
  185.0110  178.7430  147.6350 O   0  0  0  0  0  0  0  0  0  0  0  0
  185.3530  177.6750  146.8450 C   0  0  2  0  0  3  0  0  0  0  0  0
  189.1330  177.1930  146.0230 C   0  0  0  0  0  2  0  0  0  0  0  0
  189.4610  174.7730  145.6880 C   0  0  0  0  0  2  0  0  0  0  0  0
  189.9290  175.9550  146.4890 C   0  0  0  0  0  3  0  0  0  0  0  0
  189.0960  174.8920  147.1610 C   0  0  0  0  0  2  0  0  0  0  0  0
  196.0740  170.5920  143.2140 C   0  0  0  0  0  2  0  0  0  0  0  0
  195.6590  169.1150  142.8890 C   0  0  0  0  0  2  0  0  0  0  0  0
  195.9000  168.1660  144.4200 S   0  0  0  0  0  0  0  0  0  0  0  0
  195.5860  169.5230  145.6080 C   0  0  0  0  0  3  0  0  0  0  0  0
  196.6000  169.7220  146.8200 C   0  0  0  0  0  2  0  0  0  0  0  0
  195.4880  168.6660  146.8810 C   0  0  0  0  0  2  0  0  0  0  0  0
  1 23  1  0  0  0  0
  1 50  1  6  0  0  0
  2  4  1  0  0  0  0
  2  1  1  1  0  0  0
  3  5  2  0  0  0  0
  5  9  1  0  0  0  0
  6  2  1  0  0  0  0
  7 13  1  6  0  0  0
  7  6  1  0  0  0  0
  8  6  2  0  0  0  0
  9  4  1  0  0  0  0
 10  3  2  0  0  0  0
 10  7  1  0  0  0  0
 11 12  1  0  0  0  0
 12  5  1  0  0  0  0
 14 13  1  6  0  0  0
 14 19  1  0  0  0  0
 15 14  1  0  0  0  0
 15 16  2  0  0  0  0
 17 18  1  0  0  0  0
 18 15  1  0  0  0  0
 19 21  1  0  0  0  0
 21 20  2  0  0  0  0
 21 22  1  0  0  0  0
 24 27  1  0  0  0  0
 24 28  1  0  0  0  0
 25 26  1  0  0  0  0
 27 23  1  6  0  0  0
 27 25  1  0  0  0  0
 28 29  1  1  0  0  0
 28 26  1  0  0  0  0
 30 29  1  0  0  0  0
 31 30  1  0  0  0  0
 31 32  1  0  0  0  0
 32 33  1  0  0  0  0
 33 46  1  0  0  0  0
 35 36  1  0  0  0  0
 35 33  1  6  0  0  0
 36 37  1  6  0  0  0
 36 42  1  0  0  0  0
 38 34  1  6  0  0  0
 38 36  1  0  0  0  0
 40 39  1  6  0  0  0
 40 41  1  0  0  0  0
 40 38  1  0  0  0  0
 41 35  1  0  0  0  0
 43 45  1  0  0  0  0
 43 44  1  0  0  0  0
 45 42  1  6  0  0  0
 45 44  1  0  0  0  0
 46 48  1  0  0  0  0
 47 48  1  0  0  0  0
 47 49  1  0  0  0  0
 48 49  1  0  0  0  0
 51 50  1  0  0  0  0
 51 52  1  0  0  0  0
 52 53  1  0  0  0  0
 53 54  1  0  0  0  0
 53 55  1  0  0  0  0
 54 55  1  0  0  0  0
M  END
>  <MODEL>
4

>  <REMARK>
 VINA RESULT:      -5.4      3.081      9.595
  Name = 
  23 active torsions:
  status: ('A' for Active; 'I' for Inactive)
    1  A    between atoms: C_1  and  N_44
    2  A    between atoms: C_1  and  C_46
    3  A    between atoms: C_2  and  C_11
    4  A    between atoms: C_3  and  N_44
    5  A    between atoms: C_3  and  C_50
    6  A    between atoms: C_4  and  C_42
    7  A    between atoms: C_10  and  O_40
    8  A    between atoms: C_11  and  O_20
    9  A    between atoms: C_11  and  C_47
   10  A    between atoms: C_12  and  C_25
   11  A    between atoms: C_12  and  C_51
   12  A    between atoms: C_14  and  C_31
   13  A    between atoms: C_14  and  C_42
   14  A    between atoms: C_17  and  N_44
   15  A    between atoms: O_19  and  C_33
   16  A    between atoms: O_19  and  C_50
   17  A    between atoms: O_20  and  C_22
   18  A    between atoms: C_21  and  C_47
   19  A    between atoms: S_24  and  C_31
   20  A    between atoms: S_24  and  C_36
   21  A    between atoms: C_33  and  C_48
   22  A    between atoms: C_35  and  O_45
   23  A    between atoms: C_42  and  O_45
                            x       y       z     vdW  Elec       q    Type
                         _______ _______ _______ _____ _____    ______ ____

>  <TORSDO>
F 23

$$$$
=
 OpenBabel11062418363D

 55 60  0  0  1  0  0  0  0  0999 V2000
  196.0780  172.6420  142.4680 C   0  0  1  0  0  3  0  0  0  0  0  0
  195.9850  172.8130  140.9350 C   0  0  2  0  0  3  0  0  0  0  0  0
  194.7510  174.1470  138.0810 C   0  0  0  0  0  0  0  0  0  0  0  0
  196.0820  174.3300  140.7410 C   0  0  0  0  0  2  0  0  0  0  0  0
  195.8810  174.8940  138.1730 C   0  0  0  0  0  0  0  0  0  0  0  0
  194.9300  171.9830  140.2390 C   0  0  0  0  0  0  0  0  0  0  0  0
  193.6690  172.6080  139.5360 C   0  0  1  0  0  3  0  0  0  0  0  0
  195.1140  170.7690  140.1970 O   0  0  0  0  0  0  0  0  0  0  0  0
  196.4260  175.1560  139.4590 C   0  0  0  0  0  2  0  0  0  0  0  0
  193.7760  173.3620  138.2120 C   0  0  0  0  0  3  0  0  0  0  0  0
  196.1010  175.2940  135.7520 C   0  0  0  0  0  1  0  0  0  0  0  0
  196.3730  175.6150  137.1140 O   0  0  0  0  0  0  0  0  0  0  0  0
  192.4890  171.6010  139.5660 C   0  0  0  0  0  2  0  0  0  0  0  0
  191.5660  171.6590  140.8140 C   0  0  2  0  0  3  0  0  0  0  0  0
  191.5020  170.4920  141.7840 C   0  0  0  0  0  0  0  0  0  0  0  0
  190.4630  169.8280  141.8870 O   0  0  0  0  0  0  0  0  0  0  0  0
  192.3550  170.8040  144.2120 C   0  0  0  0  0  1  0  0  0  0  0  0
  192.5220  170.3750  142.8360 N   0  0  0  0  0  2  0  0  0  0  0  0
  190.2140  172.0330  140.4700 O   0  0  0  0  0  0  0  0  0  0  0  0
  189.9550  173.7760  138.7510 O   0  0  0  0  0  0  0  0  0  0  0  0
  189.8930  173.4040  140.0890 C   0  0  0  0  0  0  0  0  0  0  0  0
  189.4340  174.1940  140.9400 O   0  0  0  0  0  1  0  0  0  0  0  0
  194.8730  172.6260  143.1540 O   0  0  0  0  0  0  0  0  0  0  0  0
  193.5090  174.5120  143.6900 C   0  0  0  0  0  2  0  0  0  0  0  0
  195.9470  174.8570  144.1690 C   0  0  0  0  0  2  0  0  0  0  0  0
  195.1410  176.0570  144.6210 C   0  0  0  0  0  2  0  0  0  0  0  0
  194.8130  173.8150  143.9690 C   0  0  2  0  0  3  0  0  0  0  0  0
  193.7220  175.9490  144.0070 C   0  0  2  0  0  3  0  0  0  0  0  0
  192.6170  176.5700  144.8790 C   0  0  0  0  0  2  0  0  0  0  0  0
  192.3080  177.8540  144.4300 O   0  0  0  0  0  0  0  0  0  0  0  0
  191.3430  177.5700  143.4530 C   0  0  0  0  0  2  0  0  0  0  0  0
  190.0120  177.3730  144.1380 C   0  0  0  0  0  2  0  0  0  0  0  0
  189.1250  176.3610  143.4970 N   0  0  0  0  0  0  0  0  0  0  0  0
  184.7870  179.0230  142.6560 O   0  0  0  0  0  1  0  0  0  0  0  0
  187.8850  177.1150  142.8990 C   0  0  2  0  0  3  0  0  0  0  0  0
  186.5690  177.5390  143.6700 C   0  0  2  0  0  0  0  0  0  0  0  0
  185.6590  176.3690  143.7400 O   0  0  0  0  0  1  0  0  0  0  0  0
  186.1240  178.6300  142.6490 C   0  0  1  0  0  3  0  0  0  0  0  0
  185.6090  177.8110  140.3160 O   0  0  0  0  0  1  0  0  0  0  0  0
  186.6140  178.2720  141.2160 C   0  0  2  0  0  3  0  0  0  0  0  0
  187.8340  177.3410  141.4080 C   0  0  0  0  0  2  0  0  0  0  0  0
  186.7820  178.1310  145.0280 C   0  0  0  0  0  2  0  0  0  0  0  0
  186.0710  178.6040  147.3840 C   0  0  0  0  0  2  0  0  0  0  0  0
  185.4570  177.3920  146.8490 O   0  0  0  0  0  0  0  0  0  0  0  0
  185.5650  178.4830  146.0220 C   0  0  2  0  0  3  0  0  0  0  0  0
  188.7540  175.2790  144.3980 C   0  0  0  0  0  2  0  0  0  0  0  0
  189.3930  174.5610  146.6680 C   0  0  0  0  0  2  0  0  0  0  0  0
  189.3420  175.7470  145.7460 C   0  0  0  0  0  3  0  0  0  0  0  0
  188.3810  175.6740  146.9070 C   0  0  0  0  0  2  0  0  0  0  0  0
  197.2760  171.9880  143.1840 C   0  0  0  0  0  2  0  0  0  0  0  0
  197.3250  170.4570  142.8450 C   0  0  0  0  0  2  0  0  0  0  0  0
  197.9310  169.6220  144.3410 S   0  0  0  0  0  0  0  0  0  0  0  0
  196.3130  169.3680  145.1600 C   0  0  0  0  0  3  0  0  0  0  0  0
  195.7710  170.5010  146.1400 C   0  0  0  0  0  2  0  0  0  0  0  0
  196.7990  169.4650  146.6150 C   0  0  0  0  0  2  0  0  0  0  0  0
  1 23  1  0  0  0  0
  1 50  1  6  0  0  0
  2  1  1  1  0  0  0
  3  5  2  0  0  0  0
  3 10  2  0  0  0  0
  4  2  1  0  0  0  0
  5  9  1  0  0  0  0
  6  2  1  0  0  0  0
  7 13  1  6  0  0  0
  7  6  1  0  0  0  0
  8  6  2  0  0  0  0
  9  4  1  0  0  0  0
 10  7  1  0  0  0  0
 11 12  1  0  0  0  0
 12  5  1  0  0  0  0
 14 13  1  6  0  0  0
 14 15  1  0  0  0  0
 15 16  2  0  0  0  0
 15 18  1  0  0  0  0
 18 17  1  0  0  0  0
 19 14  1  0  0  0  0
 20 21  2  0  0  0  0
 21 19  1  0  0  0  0
 21 22  1  0  0  0  0
 24 27  1  0  0  0  0
 24 28  1  0  0  0  0
 25 26  1  0  0  0  0
 27 23  1  6  0  0  0
 27 25  1  0  0  0  0
 28 26  1  0  0  0  0
 28 29  1  1  0  0  0
 30 29  1  0  0  0  0
 31 32  1  0  0  0  0
 31 30  1  0  0  0  0
 33 32  1  0  0  0  0
 33 46  1  0  0  0  0
 35 33  1  6  0  0  0
 35 36  1  0  0  0  0
 36 37  1  1  0  0  0
 36 42  1  0  0  0  0
 38 34  1  6  0  0  0
 38 36  1  0  0  0  0
 40 39  1  6  0  0  0
 40 41  1  0  0  0  0
 40 38  1  0  0  0  0
 41 35  1  0  0  0  0
 44 43  1  0  0  0  0
 45 42  1  6  0  0  0
 45 44  1  0  0  0  0
 45 43  1  0  0  0  0
 46 48  1  0  0  0  0
 47 49  1  0  0  0  0
 48 47  1  0  0  0  0
 48 49  1  0  0  0  0
 51 50  1  0  0  0  0
 51 52  1  0  0  0  0
 52 53  1  0  0  0  0
 53 54  1  0  0  0  0
 53 55  1  0  0  0  0
 54 55  1  0  0  0  0
M  END
>  <MODEL>
5

>  <REMARK>
 VINA RESULT:      -5.3      3.052      9.382
  Name = 
  23 active torsions:
  status: ('A' for Active; 'I' for Inactive)
    1  A    between atoms: C_1  and  N_44
    2  A    between atoms: C_1  and  C_46
    3  A    between atoms: C_2  and  C_11
    4  A    between atoms: C_3  and  N_44
    5  A    between atoms: C_3  and  C_50
    6  A    between atoms: C_4  and  C_42
    7  A    between atoms: C_10  and  O_40
    8  A    between atoms: C_11  and  O_20
    9  A    between atoms: C_11  and  C_47
   10  A    between atoms: C_12  and  C_25
   11  A    between atoms: C_12  and  C_51
   12  A    between atoms: C_14  and  C_31
   13  A    between atoms: C_14  and  C_42
   14  A    between atoms: C_17  and  N_44
   15  A    between atoms: O_19  and  C_33
   16  A    between atoms: O_19  and  C_50
   17  A    between atoms: O_20  and  C_22
   18  A    between atoms: C_21  and  C_47
   19  A    between atoms: S_24  and  C_31
   20  A    between atoms: S_24  and  C_36
   21  A    between atoms: C_33  and  C_48
   22  A    between atoms: C_35  and  O_45
   23  A    between atoms: C_42  and  O_45
                            x       y       z     vdW  Elec       q    Type
                         _______ _______ _______ _____ _____    ______ ____

>  <TORSDO>
F 23

$$$$
=
 OpenBabel11062418363D

 55 60  0  0  1  0  0  0  0  0999 V2000
  192.3010  171.9880  137.6890 C   0  0  1  0  0  3  0  0  0  0  0  0
  193.0850  173.3190  137.7260 C   0  0  2  0  0  3  0  0  0  0  0  0
  195.8890  175.2110  137.8210 C   0  0  0  0  0  0  0  0  0  0  0  0
  194.1050  173.1610  136.5940 C   0  0  0  0  0  2  0  0  0  0  0  0
  195.6300  175.3110  136.4920 C   0  0  0  0  0  0  0  0  0  0  0  0
  193.4800  173.8160  139.0980 C   0  0  0  0  0  0  0  0  0  0  0  0
  194.9740  173.9010  139.5830 C   0  0  1  0  0  3  0  0  0  0  0  0
  192.5760  174.2070  139.8320 O   0  0  0  0  0  0  0  0  0  0  0  0
  194.9460  174.2460  135.8450 C   0  0  0  0  0  2  0  0  0  0  0  0
  195.9340  174.9660  139.0550 C   0  0  0  0  0  3  0  0  0  0  0  0
  195.4790  177.1930  134.9110 C   0  0  0  0  0  1  0  0  0  0  0  0
  196.2180  176.2650  135.6990 O   0  0  0  0  0  0  0  0  0  0  0  0
  195.0430  173.7360  141.1250 C   0  0  0  0  0  2  0  0  0  0  0  0
  196.4460  173.8920  141.7720 C   0  0  2  0  0  3  0  0  0  0  0  0
  196.8320  173.0720  142.9910 C   0  0  0  0  0  0  0  0  0  0  0  0
  197.8930  173.3050  143.5840 O   0  0  0  0  0  0  0  0  0  0  0  0
  196.6590  170.4870  142.8950 C   0  0  0  0  0  1  0  0  0  0  0  0
  196.1460  171.7980  143.2460 N   0  0  0  0  0  2  0  0  0  0  0  0
  196.7680  175.2750  142.0400 O   0  0  0  0  0  0  0  0  0  0  0  0
  196.0820  176.5860  144.0060 O   0  0  0  0  0  1  0  0  0  0  0  0
  195.8140  176.1470  142.7160 C   0  0  0  0  0  0  0  0  0  0  0  0
  194.8360  176.6030  142.0870 O   0  0  0  0  0  0  0  0  0  0  0  0
  191.0330  172.0420  137.1310 O   0  0  0  0  0  0  0  0  0  0  0  0
  189.7020  172.0210  139.1140 C   0  0  0  0  0  2  0  0  0  0  0  0
  189.1110  173.8640  137.5170 C   0  0  0  0  0  2  0  0  0  0  0  0
  188.2910  173.9740  138.7860 C   0  0  0  0  0  2  0  0  0  0  0  0
  190.2120  172.8700  137.9800 C   0  0  2  0  0  3  0  0  0  0  0  0
  188.4380  172.6510  139.5780 C   0  0  2  0  0  3  0  0  0  0  0  0
  188.3450  172.8240  141.1030 C   0  0  0  0  0  2  0  0  0  0  0  0
  189.3320  173.7030  141.5530 O   0  0  0  0  0  0  0  0  0  0  0  0
  189.1180  173.6570  142.9380 C   0  0  0  0  0  2  0  0  0  0  0  0
  190.0350  174.6580  143.5980 C   0  0  0  0  0  2  0  0  0  0  0  0
  189.3500  175.6410  144.4840 N   0  0  0  0  0  0  0  0  0  0  0  0
  185.5740  178.4560  142.3790 O   0  0  0  0  0  1  0  0  0  0  0  0
  188.4390  176.5500  143.5840 C   0  0  2  0  0  3  0  0  0  0  0  0
  186.8690  176.7220  143.6910 C   0  0  2  0  0  0  0  0  0  0  0  0
  186.2160  175.5920  142.9850 O   0  0  0  0  0  1  0  0  0  0  0  0
  186.8000  178.0770  142.9240 C   0  0  1  0  0  3  0  0  0  0  0  0
  187.5650  178.0220  140.5180 O   0  0  0  0  0  1  0  0  0  0  0  0
  187.9500  178.1770  141.8810 C   0  0  2  0  0  3  0  0  0  0  0  0
  189.0600  177.2260  142.3860 C   0  0  0  0  0  2  0  0  0  0  0  0
  186.3310  176.8650  145.0810 C   0  0  0  0  0  2  0  0  0  0  0  0
  185.9820  177.9850  147.2940 C   0  0  0  0  0  2  0  0  0  0  0  0
  185.4550  178.7700  146.1820 O   0  0  0  0  0  0  0  0  0  0  0  0
  186.6600  178.1360  146.0130 C   0  0  2  0  0  3  0  0  0  0  0  0
  190.2760  176.4040  145.3100 C   0  0  0  0  0  2  0  0  0  0  0  0
  190.7860  175.9690  147.6820 C   0  0  0  0  0  2  0  0  0  0  0  0
  189.6670  176.2550  146.7200 C   0  0  0  0  0  3  0  0  0  0  0  0
  189.7930  174.8740  147.3140 C   0  0  0  0  0  2  0  0  0  0  0  0
  192.9720  170.6000  137.7190 C   0  0  0  0  0  2  0  0  0  0  0  0
  192.4920  169.8080  138.9850 C   0  0  0  0  0  2  0  0  0  0  0  0
  193.7100  170.1430  140.2920 S   0  0  0  0  0  0  0  0  0  0  0  0
  192.5920  170.9950  141.4640 C   0  0  0  0  0  3  0  0  0  0  0  0
  192.2590  170.2840  142.8500 C   0  0  0  0  0  2  0  0  0  0  0  0
  191.5180  169.8990  141.5620 C   0  0  0  0  0  2  0  0  0  0  0  0
  1 50  1  6  0  0  0
  2  1  1  1  0  0  0
  2  6  1  0  0  0  0
  3 10  2  0  0  0  0
  4  2  1  0  0  0  0
  5  3  2  0  0  0  0
  6  7  1  0  0  0  0
  6  8  2  0  0  0  0
  7 13  1  1  0  0  0
  9  5  1  0  0  0  0
  9  4  1  0  0  0  0
 10  7  1  0  0  0  0
 11 12  1  0  0  0  0
 12  5  1  0  0  0  0
 14 13  1  1  0  0  0
 14 19  1  0  0  0  0
 14 15  1  0  0  0  0
 15 18  1  0  0  0  0
 15 16  2  0  0  0  0
 17 18  1  0  0  0  0
 19 21  1  0  0  0  0
 21 20  1  0  0  0  0
 22 21  2  0  0  0  0
 23  1  1  0  0  0  0
 24 28  1  0  0  0  0
 25 27  1  0  0  0  0
 25 26  1  0  0  0  0
 26 28  1  0  0  0  0
 27 23  1  6  0  0  0
 27 24  1  0  0  0  0
 28 29  1  1  0  0  0
 29 30  1  0  0  0  0
 30 31  1  0  0  0  0
 31 32  1  0  0  0  0
 32 33  1  0  0  0  0
 33 46  1  0  0  0  0
 35 36  1  0  0  0  0
 35 33  1  6  0  0  0
 36 37  1  6  0  0  0
 36 42  1  0  0  0  0
 38 34  1  6  0  0  0
 38 36  1  0  0  0  0
 40 39  1  6  0  0  0
 40 41  1  0  0  0  0
 40 38  1  0  0  0  0
 41 35  1  0  0  0  0
 44 43  1  0  0  0  0
 45 42  1  6  0  0  0
 45 44  1  0  0  0  0
 45 43  1  0  0  0  0
 46 48  1  0  0  0  0
 48 49  1  0  0  0  0
 48 47  1  0  0  0  0
 49 47  1  0  0  0  0
 50 51  1  0  0  0  0
 51 52  1  0  0  0  0
 52 53  1  0  0  0  0
 53 55  1  0  0  0  0
 53 54  1  0  0  0  0
 55 54  1  0  0  0  0
M  END
>  <MODEL>
6

>  <REMARK>
 VINA RESULT:      -5.1      2.908      9.913
  Name = 
  23 active torsions:
  status: ('A' for Active; 'I' for Inactive)
    1  A    between atoms: C_1  and  N_44
    2  A    between atoms: C_1  and  C_46
    3  A    between atoms: C_2  and  C_11
    4  A    between atoms: C_3  and  N_44
    5  A    between atoms: C_3  and  C_50
    6  A    between atoms: C_4  and  C_42
    7  A    between atoms: C_10  and  O_40
    8  A    between atoms: C_11  and  O_20
    9  A    between atoms: C_11  and  C_47
   10  A    between atoms: C_12  and  C_25
   11  A    between atoms: C_12  and  C_51
   12  A    between atoms: C_14  and  C_31
   13  A    between atoms: C_14  and  C_42
   14  A    between atoms: C_17  and  N_44
   15  A    between atoms: O_19  and  C_33
   16  A    between atoms: O_19  and  C_50
   17  A    between atoms: O_20  and  C_22
   18  A    between atoms: C_21  and  C_47
   19  A    between atoms: S_24  and  C_31
   20  A    between atoms: S_24  and  C_36
   21  A    between atoms: C_33  and  C_48
   22  A    between atoms: C_35  and  O_45
   23  A    between atoms: C_42  and  O_45
                            x       y       z     vdW  Elec       q    Type
                         _______ _______ _______ _____ _____    ______ ____

>  <TORSDO>
F 23

$$$$
=
 OpenBabel11062418363D

 55 60  0  0  1  0  0  0  0  0999 V2000
  192.0400  174.0590  143.5890 C   0  0  1  0  0  3  0  0  0  0  0  0
  191.6350  175.2250  144.5190 C   0  0  2  0  0  3  0  0  0  0  0  0
  189.9820  176.6240  147.1190 C   0  0  0  0  0  0  0  0  0  0  0  0
  191.8770  174.6590  145.9230 C   0  0  0  0  0  2  0  0  0  0  0  0
  191.1890  176.4640  147.7190 C   0  0  0  0  0  0  0  0  0  0  0  0
  190.3570  175.9480  144.1560 C   0  0  0  0  0  0  0  0  0  0  0  0
  189.0620  175.9030  145.0480 C   0  0  1  0  0  3  0  0  0  0  0  0
  190.3730  176.6300  143.1350 O   0  0  0  0  0  0  0  0  0  0  0  0
  192.0310  175.4030  147.2890 C   0  0  0  0  0  2  0  0  0  0  0  0
  188.9690  176.6570  146.3720 C   0  0  0  0  0  3  0  0  0  0  0  0
  191.0350  178.4050  149.2280 C   0  0  0  0  0  1  0  0  0  0  0  0
  191.5230  177.1110  148.8820 O   0  0  0  0  0  0  0  0  0  0  0  0
  187.8000  176.0790  144.1620 C   0  0  0  0  0  2  0  0  0  0  0  0
  187.0100  177.4030  144.3430 C   0  0  2  0  0  3  0  0  0  0  0  0
  185.5100  177.3830  144.5840 C   0  0  0  0  0  0  0  0  0  0  0  0
  184.7320  177.6800  143.6700 O   0  0  0  0  0  0  0  0  0  0  0  0
  184.5440  178.5250  146.7010 C   0  0  0  0  0  1  0  0  0  0  0  0
  185.0050  177.3640  145.9640 N   0  0  0  0  0  2  0  0  0  0  0  0
  187.2820  178.3450  143.2830 O   0  0  0  0  0  0  0  0  0  0  0  0
  186.5200  177.1760  141.2560 O   0  0  0  0  0  0  0  0  0  0  0  0
  187.5130  177.8880  141.9170 C   0  0  0  0  0  0  0  0  0  0  0  0
  188.5380  178.2540  141.3050 O   0  0  0  0  0  1  0  0  0  0  0  0
  191.1240  173.0260  143.4730 O   0  0  0  0  0  0  0  0  0  0  0  0
  190.9270  171.2370  141.9020 C   0  0  0  0  0  2  0  0  0  0  0  0
  192.5730  170.7920  143.7440 C   0  0  0  0  0  2  0  0  0  0  0  0
  192.5750  169.6570  142.7420 C   0  0  0  0  0  2  0  0  0  0  0  0
  191.8150  171.8800  142.9340 C   0  0  2  0  0  3  0  0  0  0  0  0
  191.3290  169.8070  141.8320 C   0  0  2  0  0  3  0  0  0  0  0  0
  191.5360  169.2830  140.4010 C   0  0  0  0  0  2  0  0  0  0  0  0
  191.3350  170.3070  139.4740 O   0  0  0  0  0  0  0  0  0  0  0  0
  191.4520  169.6020  138.2680 C   0  0  0  0  0  2  0  0  0  0  0  0
  192.5940  170.1920  137.4770 C   0  0  0  0  0  2  0  0  0  0  0  0
  193.3630  171.2510  138.1890 N   0  0  0  0  0  0  0  0  0  0  0  0
  191.7820  175.7180  136.1510 O   0  0  0  0  0  1  0  0  0  0  0  0
  193.1910  172.5930  137.3920 C   0  0  2  0  0  3  0  0  0  0  0  0
  191.8520  173.4130  137.1940 C   0  0  2  0  0  0  0  0  0  0  0  0
  191.0790  172.8060  136.0830 O   0  0  0  0  0  1  0  0  0  0  0  0
  192.5400  174.7640  136.8270 C   0  0  1  0  0  3  0  0  0  0  0  0
  193.9390  174.7520  134.7250 O   0  0  0  0  0  1  0  0  0  0  0  0
  193.9070  174.5110  136.1300 C   0  0  2  0  0  3  0  0  0  0  0  0
  194.3610  173.1060  136.5890 C   0  0  0  0  0  2  0  0  0  0  0  0
  191.0010  173.5610  138.4170 C   0  0  0  0  0  2  0  0  0  0  0  0
  188.8330  173.6440  139.6710 C   0  0  0  0  0  2  0  0  0  0  0  0
  188.8460  172.6020  138.6480 O   0  0  0  0  0  0  0  0  0  0  0  0
  189.4130  173.8150  138.3440 C   0  0  2  0  0  3  0  0  0  0  0  0
  194.7580  170.8930  138.4060 C   0  0  0  0  0  2  0  0  0  0  0  0
  196.2400  172.0070  140.0300 C   0  0  0  0  0  2  0  0  0  0  0  0
  194.9620  171.2270  139.8990 C   0  0  0  0  0  3  0  0  0  0  0  0
  196.1660  170.5690  140.5280 C   0  0  0  0  0  2  0  0  0  0  0  0
  193.0600  174.1970  142.4420 C   0  0  0  0  0  2  0  0  0  0  0  0
  194.1400  175.2690  142.8190 C   0  0  0  0  0  2  0  0  0  0  0  0
  195.7570  174.5010  142.5050 S   0  0  0  0  0  0  0  0  0  0  0  0
  196.6120  175.0890  144.0130 C   0  0  0  0  0  3  0  0  0  0  0  0
  196.5320  174.1970  145.3300 C   0  0  0  0  0  2  0  0  0  0  0  0
  195.3870  175.1420  144.9400 C   0  0  0  0  0  2  0  0  0  0  0  0
  1 50  1  6  0  0  0
  2  1  1  6  0  0  0
  2  4  1  0  0  0  0
  3  5  2  0  0  0  0
  4  9  1  0  0  0  0
  5 12  1  0  0  0  0
  6  2  1  0  0  0  0
  6  7  1  0  0  0  0
  7 13  1  6  0  0  0
  7 10  1  0  0  0  0
  8  6  2  0  0  0  0
  9  5  1  0  0  0  0
 10  3  2  0  0  0  0
 12 11  1  0  0  0  0
 14 13  1  6  0  0  0
 14 15  1  0  0  0  0
 15 18  1  0  0  0  0
 16 15  2  0  0  0  0
 18 17  1  0  0  0  0
 19 14  1  0  0  0  0
 20 21  2  0  0  0  0
 21 19  1  0  0  0  0
 22 21  1  0  0  0  0
 23  1  1  0  0  0  0
 24 27  1  0  0  0  0
 26 25  1  0  0  0  0
 27 23  1  1  0  0  0
 27 25  1  0  0  0  0
 28 29  1  6  0  0  0
 28 24  1  0  0  0  0
 28 26  1  0  0  0  0
 30 29  1  0  0  0  0
 31 30  1  0  0  0  0
 32 33  1  0  0  0  0
 32 31  1  0  0  0  0
 33 46  1  0  0  0  0
 35 33  1  6  0  0  0
 36 37  1  6  0  0  0
 36 35  1  0  0  0  0
 36 42  1  0  0  0  0
 38 34  1  6  0  0  0
 38 36  1  0  0  0  0
 40 39  1  6  0  0  0
 40 41  1  0  0  0  0
 40 38  1  0  0  0  0
 41 35  1  0  0  0  0
 44 43  1  0  0  0  0
 45 42  1  1  0  0  0
 45 44  1  0  0  0  0
 45 43  1  0  0  0  0
 46 48  1  0  0  0  0
 47 49  1  0  0  0  0
 48 47  1  0  0  0  0
 48 49  1  0  0  0  0
 50 51  1  0  0  0  0
 52 51  1  0  0  0  0
 52 53  1  0  0  0  0
 53 55  1  0  0  0  0
 53 54  1  0  0  0  0
 55 54  1  0  0  0  0
M  END
>  <MODEL>
7

>  <REMARK>
 VINA RESULT:      -5.0      1.744      3.148
  Name = 
  23 active torsions:
  status: ('A' for Active; 'I' for Inactive)
    1  A    between atoms: C_1  and  N_44
    2  A    between atoms: C_1  and  C_46
    3  A    between atoms: C_2  and  C_11
    4  A    between atoms: C_3  and  N_44
    5  A    between atoms: C_3  and  C_50
    6  A    between atoms: C_4  and  C_42
    7  A    between atoms: C_10  and  O_40
    8  A    between atoms: C_11  and  O_20
    9  A    between atoms: C_11  and  C_47
   10  A    between atoms: C_12  and  C_25
   11  A    between atoms: C_12  and  C_51
   12  A    between atoms: C_14  and  C_31
   13  A    between atoms: C_14  and  C_42
   14  A    between atoms: C_17  and  N_44
   15  A    between atoms: O_19  and  C_33
   16  A    between atoms: O_19  and  C_50
   17  A    between atoms: O_20  and  C_22
   18  A    between atoms: C_21  and  C_47
   19  A    between atoms: S_24  and  C_31
   20  A    between atoms: S_24  and  C_36
   21  A    between atoms: C_33  and  C_48
   22  A    between atoms: C_35  and  O_45
   23  A    between atoms: C_42  and  O_45
                            x       y       z     vdW  Elec       q    Type
                         _______ _______ _______ _____ _____    ______ ____

>  <TORSDO>
F 23

$$$$
=
 OpenBabel11062418363D

 55 60  0  0  1  0  0  0  0  0999 V2000
  188.7560  175.7240  146.0730 C   0  0  1  0  0  3  0  0  0  0  0  0
  188.4910  176.8000  144.9970 C   0  0  2  0  0  3  0  0  0  0  0  0
  188.3410  177.9780  141.8280 C   0  0  0  0  0  0  0  0  0  0  0  0
  187.5720  176.0870  143.9990 C   0  0  0  0  0  2  0  0  0  0  0  0
  187.0200  177.7190  142.0030 C   0  0  0  0  0  0  0  0  0  0  0  0
  189.6960  177.5970  144.5480 C   0  0  0  0  0  0  0  0  0  0  0  0
  190.2960  177.5030  143.0970 C   0  0  1  0  0  3  0  0  0  0  0  0
  190.1810  178.3800  145.3600 O   0  0  0  0  0  0  0  0  0  0  0  0
  186.6380  176.6810  142.8960 C   0  0  0  0  0  2  0  0  0  0  0  0
  189.5900  178.1210  141.8910 C   0  0  0  0  0  3  0  0  0  0  0  0
  184.6730  178.2900  141.5200 C   0  0  0  0  0  1  0  0  0  0  0  0
  186.0550  178.2320  141.1740 O   0  0  0  0  0  0  0  0  0  0  0  0
  191.8170  177.8090  143.1300 C   0  0  0  0  0  2  0  0  0  0  0  0
  192.7560  176.6040  143.4080 C   0  0  2  0  0  3  0  0  0  0  0  0
  193.4420  176.4510  144.7550 C   0  0  0  0  0  0  0  0  0  0  0  0
  192.7660  176.3240  145.7830 O   0  0  0  0  0  0  0  0  0  0  0  0
  195.3640  178.0680  145.3970 C   0  0  0  0  0  1  0  0  0  0  0  0
  194.8620  176.8080  144.8820 N   0  0  0  0  0  2  0  0  0  0  0  0
  193.7520  176.4440  142.3740 O   0  0  0  0  0  0  0  0  0  0  0  0
  194.7170  175.0340  140.6020 O   0  0  0  0  0  0  0  0  0  0  0  0
  193.6110  175.4090  141.3550 C   0  0  0  0  0  0  0  0  0  0  0  0
  192.5400  174.7750  141.2580 O   0  0  0  0  0  1  0  0  0  0  0  0
  190.0720  175.3110  146.2120 O   0  0  0  0  0  0  0  0  0  0  0  0
  190.4950  174.1230  144.1830 C   0  0  0  0  0  2  0  0  0  0  0  0
  189.2080  172.8000  145.8830 C   0  0  0  0  0  2  0  0  0  0  0  0
  189.5160  171.9500  144.6680 C   0  0  0  0  0  2  0  0  0  0  0  0
  190.1820  173.9870  145.6490 C   0  0  2  0  0  3  0  0  0  0  0  0
  189.9980  172.8840  143.5290 C   0  0  2  0  0  3  0  0  0  0  0  0
  191.0100  172.2290  142.5730 C   0  0  0  0  0  2  0  0  0  0  0  0
  190.9870  170.8420  142.7170 O   0  0  0  0  0  0  0  0  0  0  0  0
  190.4480  170.4540  141.4820 C   0  0  0  0  0  2  0  0  0  0  0  0
  191.5710  169.9620  140.6030 C   0  0  0  0  0  2  0  0  0  0  0  0
  192.3720  171.0380  139.9540 N   0  0  0  0  0  0  0  0  0  0  0  0
  189.7010  172.6090  135.8290 O   0  0  0  0  0  1  0  0  0  0  0  0
  191.7730  171.2910  138.5250 C   0  0  2  0  0  3  0  0  0  0  0  0
  190.3940  171.9880  138.1840 C   0  0  2  0  0  0  0  0  0  0  0  0
  189.3070  170.9860  138.3180 O   0  0  0  0  0  1  0  0  0  0  0  0
  190.7500  172.3450  136.7080 C   0  0  1  0  0  3  0  0  0  0  0  0
  191.2040  170.3860  135.1800 O   0  0  0  0  0  1  0  0  0  0  0  0
  191.7500  171.3080  136.1200 C   0  0  2  0  0  3  0  0  0  0  0  0
  192.4790  170.6890  137.3340 C   0  0  0  0  0  2  0  0  0  0  0  0
  190.0830  173.2210  138.9730 C   0  0  0  0  0  2  0  0  0  0  0  0
  188.5640  174.5030  140.4990 C   0  0  0  0  0  2  0  0  0  0  0  0
  188.2490  173.0780  140.4670 O   0  0  0  0  0  0  0  0  0  0  0  0
  188.5760  173.6950  139.2850 C   0  0  2  0  0  3  0  0  0  0  0  0
  193.7990  170.7500  139.9310 C   0  0  0  0  0  2  0  0  0  0  0  0
  195.8290  171.5700  141.0650 C   0  0  0  0  0  2  0  0  0  0  0  0
  194.3270  171.5720  141.1260 C   0  0  0  0  0  3  0  0  0  0  0  0
  195.1050  170.7710  142.1410 C   0  0  0  0  0  2  0  0  0  0  0  0
  187.8370  175.4860  147.2870 C   0  0  0  0  0  2  0  0  0  0  0  0
  187.0480  176.8000  147.6200 C   0  0  0  0  0  2  0  0  0  0  0  0
  185.4460  176.6650  146.7730 S   0  0  0  0  0  0  0  0  0  0  0  0
  184.9520  178.4240  146.8870 C   0  0  0  0  0  3  0  0  0  0  0  0
  184.0550  179.0380  145.7230 C   0  0  0  0  0  2  0  0  0  0  0  0
  185.5750  178.9000  145.5640 C   0  0  0  0  0  2  0  0  0  0  0  0
  1 23  1  0  0  0  0
  1 50  1  1  0  0  0
  2  1  1  1  0  0  0
  3 10  2  0  0  0  0
  3  5  2  0  0  0  0
  4  2  1  0  0  0  0
  5  9  1  0  0  0  0
  6  2  1  0  0  0  0
  6  8  2  0  0  0  0
  7 13  1  1  0  0  0
  7  6  1  0  0  0  0
  9  4  1  0  0  0  0
 10  7  1  0  0  0  0
 12 11  1  0  0  0  0
 12  5  1  0  0  0  0
 14 13  1  1  0  0  0
 14 15  1  0  0  0  0
 15 18  1  0  0  0  0
 15 16  2  0  0  0  0
 18 17  1  0  0  0  0
 19 14  1  0  0  0  0
 20 21  2  0  0  0  0
 21 19  1  0  0  0  0
 22 21  1  0  0  0  0
 24 27  1  0  0  0  0
 26 25  1  0  0  0  0
 27 25  1  0  0  0  0
 27 23  1  6  0  0  0
 28 29  1  1  0  0  0
 28 24  1  0  0  0  0
 28 26  1  0  0  0  0
 29 30  1  0  0  0  0
 31 30  1  0  0  0  0
 32 31  1  0  0  0  0
 33 32  1  0  0  0  0
 35 33  1  1  0  0  0
 36 37  1  1  0  0  0
 36 35  1  0  0  0  0
 36 42  1  0  0  0  0
 38 34  1  6  0  0  0
 38 36  1  0  0  0  0
 40 39  1  1  0  0  0
 40 38  1  0  0  0  0
 40 41  1  0  0  0  0
 41 35  1  0  0  0  0
 44 43  1  0  0  0  0
 45 42  1  1  0  0  0
 45 44  1  0  0  0  0
 45 43  1  0  0  0  0
 46 33  1  0  0  0  0
 46 48  1  0  0  0  0
 47 48  1  0  0  0  0
 47 49  1  0  0  0  0
 48 49  1  0  0  0  0
 50 51  1  0  0  0  0
 52 53  1  0  0  0  0
 52 51  1  0  0  0  0
 54 53  1  0  0  0  0
 55 54  1  0  0  0  0
 55 53  1  0  0  0  0
M  END
>  <MODEL>
8

>  <REMARK>
 VINA RESULT:      -5.0      3.172      6.731
  Name = 
  23 active torsions:
  status: ('A' for Active; 'I' for Inactive)
    1  A    between atoms: C_1  and  N_44
    2  A    between atoms: C_1  and  C_46
    3  A    between atoms: C_2  and  C_11
    4  A    between atoms: C_3  and  N_44
    5  A    between atoms: C_3  and  C_50
    6  A    between atoms: C_4  and  C_42
    7  A    between atoms: C_10  and  O_40
    8  A    between atoms: C_11  and  O_20
    9  A    between atoms: C_11  and  C_47
   10  A    between atoms: C_12  and  C_25
   11  A    between atoms: C_12  and  C_51
   12  A    between atoms: C_14  and  C_31
   13  A    between atoms: C_14  and  C_42
   14  A    between atoms: C_17  and  N_44
   15  A    between atoms: O_19  and  C_33
   16  A    between atoms: O_19  and  C_50
   17  A    between atoms: O_20  and  C_22
   18  A    between atoms: C_21  and  C_47
   19  A    between atoms: S_24  and  C_31
   20  A    between atoms: S_24  and  C_36
   21  A    between atoms: C_33  and  C_48
   22  A    between atoms: C_35  and  O_45
   23  A    between atoms: C_42  and  O_45
                            x       y       z     vdW  Elec       q    Type
                         _______ _______ _______ _____ _____    ______ ____

>  <TORSDO>
F 23

$$$$
=
 OpenBabel11062418363D

 55 60  0  0  1  0  0  0  0  0999 V2000
  196.2660  173.7310  143.5410 C   0  0  1  0  0  3  0  0  0  0  0  0
  195.5620  172.4770  144.1070 C   0  0  2  0  0  3  0  0  0  0  0  0
  195.0710  169.1480  144.4600 C   0  0  0  0  0  0  0  0  0  0  0  0
  196.7230  171.6240  144.6290 C   0  0  0  0  0  2  0  0  0  0  0  0
  195.7730  169.3640  145.6020 C   0  0  0  0  0  0  0  0  0  0  0  0
  194.4590  171.8950  143.2520 C   0  0  0  0  0  0  0  0  0  0  0  0
  194.5630  170.4860  142.5600 C   0  0  1  0  0  3  0  0  0  0  0  0
  193.4280  172.5530  143.1460 O   0  0  0  0  0  0  0  0  0  0  0  0
  196.7130  170.4290  145.6370 C   0  0  0  0  0  2  0  0  0  0  0  0
  194.4640  169.1870  143.3580 C   0  0  0  0  0  3  0  0  0  0  0  0
  194.7790  168.3490  147.6140 C   0  0  0  0  0  1  0  0  0  0  0  0
  195.8030  168.4540  146.6290 O   0  0  0  0  0  0  0  0  0  0  0  0
  193.7100  170.4660  141.2640 C   0  0  0  0  0  2  0  0  0  0  0  0
  192.4300  171.3450  141.2680 C   0  0  2  0  0  3  0  0  0  0  0  0
  191.0570  170.7120  141.4130 C   0  0  0  0  0  0  0  0  0  0  0  0
  190.4840  170.2410  140.4230 O   0  0  0  0  0  0  0  0  0  0  0  0
  189.2120  171.9610  142.7370 C   0  0  0  0  0  1  0  0  0  0  0  0
  190.2690  170.9750  142.6260 N   0  0  0  0  0  2  0  0  0  0  0  0
  192.3920  172.2510  140.1430 O   0  0  0  0  0  0  0  0  0  0  0  0
  190.6110  173.6330  139.1570 O   0  0  0  0  0  0  0  0  0  0  0  0
  191.5440  173.4370  140.1680 C   0  0  0  0  0  0  0  0  0  0  0  0
  191.5640  174.1940  141.1610 O   0  0  0  0  0  1  0  0  0  0  0  0
  196.4670  174.7720  144.4350 O   0  0  0  0  0  0  0  0  0  0  0  0
  194.5700  176.2060  144.2040 C   0  0  0  0  0  2  0  0  0  0  0  0
  194.8970  175.3240  146.5300 C   0  0  0  0  0  2  0  0  0  0  0  0
  193.6270  176.1450  146.4450 C   0  0  0  0  0  2  0  0  0  0  0  0
  195.1910  175.1050  145.0210 C   0  0  2  0  0  3  0  0  0  0  0  0
  193.6460  176.9350  145.1120 C   0  0  2  0  0  3  0  0  0  0  0  0
  192.2500  177.1870  144.5170 C   0  0  0  0  0  2  0  0  0  0  0  0
  192.2740  177.0170  143.1330 O   0  0  0  0  0  0  0  0  0  0  0  0
  190.9510  177.3390  142.8010 C   0  0  0  0  0  2  0  0  0  0  0  0
  190.3330  178.0790  143.9630 C   0  0  0  0  0  2  0  0  0  0  0  0
  188.8490  177.9630  144.0570 N   0  0  0  0  0  0  0  0  0  0  0  0
  186.9570  175.8980  148.3890 O   0  0  0  0  0  1  0  0  0  0  0  0
  188.5120  177.0780  145.3090 C   0  0  2  0  0  3  0  0  0  0  0  0
  187.6900  177.5190  146.5880 C   0  0  2  0  0  0  0  0  0  0  0  0
  188.5960  178.2480  147.5100 O   0  0  0  0  0  1  0  0  0  0  0  0
  187.3320  176.0760  147.0580 C   0  0  1  0  0  3  0  0  0  0  0  0
  189.2860  174.6000  147.6740 O   0  0  0  0  0  1  0  0  0  0  0  0
  188.4370  175.0690  146.6290 C   0  0  2  0  0  3  0  0  0  0  0  0
  189.1460  175.7130  145.4150 C   0  0  0  0  0  2  0  0  0  0  0  0
  186.4530  178.3170  146.3150 C   0  0  0  0  0  2  0  0  0  0  0  0
  184.0610  178.3950  145.5750 C   0  0  0  0  0  2  0  0  0  0  0  0
  184.2200  178.7350  146.9850 O   0  0  0  0  0  0  0  0  0  0  0  0
  184.9730  177.7060  146.4790 C   0  0  2  0  0  3  0  0  0  0  0  0
  188.2380  177.4700  142.8310 C   0  0  0  0  0  2  0  0  0  0  0  0
  185.9910  176.4590  142.8960 C   0  0  0  0  0  2  0  0  0  0  0  0
  186.7390  177.7520  143.0660 C   0  0  0  0  0  3  0  0  0  0  0  0
  185.8670  177.5600  141.8500 C   0  0  0  0  0  2  0  0  0  0  0  0
  197.1820  173.7110  142.3030 C   0  0  0  0  0  2  0  0  0  0  0  0
  197.8130  175.1310  142.0870 C   0  0  0  0  0  2  0  0  0  0  0  0
  197.5020  175.5700  140.3510 S   0  0  0  0  0  0  0  0  0  0  0  0
  196.3660  174.1950  139.9440 C   0  0  0  0  0  3  0  0  0  0  0  0
  195.3230  174.3960  138.7560 C   0  0  0  0  0  2  0  0  0  0  0  0
  195.0420  174.9470  140.1610 C   0  0  0  0  0  2  0  0  0  0  0  0
  1 50  1  1  0  0  0
  1 23  1  0  0  0  0
  2  1  1  6  0  0  0
  2  4  1  0  0  0  0
  3  5  2  0  0  0  0
  4  9  1  0  0  0  0
  5  9  1  0  0  0  0
  5 12  1  0  0  0  0
  6  2  1  0  0  0  0
  7 13  1  6  0  0  0
  7  6  1  0  0  0  0
  7 10  1  0  0  0  0
  8  6  2  0  0  0  0
 10  3  2  0  0  0  0
 12 11  1  0  0  0  0
 14 13  1  6  0  0  0
 14 15  1  0  0  0  0
 15 18  1  0  0  0  0
 16 15  2  0  0  0  0
 18 17  1  0  0  0  0
 19 21  1  0  0  0  0
 19 14  1  0  0  0  0
 20 21  2  0  0  0  0
 21 22  1  0  0  0  0
 24 27  1  0  0  0  0
 24 28  1  0  0  0  0
 26 25  1  0  0  0  0
 27 23  1  1  0  0  0
 27 25  1  0  0  0  0
 28 29  1  6  0  0  0
 28 26  1  0  0  0  0
 30 29  1  0  0  0  0
 31 30  1  0  0  0  0
 31 32  1  0  0  0  0
 32 33  1  0  0  0  0
 35 33  1  1  0  0  0
 35 41  1  0  0  0  0
 35 36  1  0  0  0  0
 36 38  1  0  0  0  0
 36 37  1  1  0  0  0
 38 34  1  1  0  0  0
 40 38  1  0  0  0  0
 40 39  1  1  0  0  0
 41 40  1  0  0  0  0
 42 36  1  0  0  0  0
 43 45  1  0  0  0  0
 43 44  1  0  0  0  0
 45 42  1  6  0  0  0
 45 44  1  0  0  0  0
 46 48  1  0  0  0  0
 46 33  1  0  0  0  0
 47 48  1  0  0  0  0
 49 47  1  0  0  0  0
 49 48  1  0  0  0  0
 51 50  1  0  0  0  0
 52 51  1  0  0  0  0
 53 55  1  0  0  0  0
 53 52  1  0  0  0  0
 54 53  1  0  0  0  0
 54 55  1  0  0  0  0
M  END
>  <MODEL>
9

>  <REMARK>
 VINA RESULT:      -4.9      3.372      9.381
  Name = 
  23 active torsions:
  status: ('A' for Active; 'I' for Inactive)
    1  A    between atoms: C_1  and  N_44
    2  A    between atoms: C_1  and  C_46
    3  A    between atoms: C_2  and  C_11
    4  A    between atoms: C_3  and  N_44
    5  A    between atoms: C_3  and  C_50
    6  A    between atoms: C_4  and  C_42
    7  A    between atoms: C_10  and  O_40
    8  A    between atoms: C_11  and  O_20
    9  A    between atoms: C_11  and  C_47
   10  A    between atoms: C_12  and  C_25
   11  A    between atoms: C_12  and  C_51
   12  A    between atoms: C_14  and  C_31
   13  A    between atoms: C_14  and  C_42
   14  A    between atoms: C_17  and  N_44
   15  A    between atoms: O_19  and  C_33
   16  A    between atoms: O_19  and  C_50
   17  A    between atoms: O_20  and  C_22
   18  A    between atoms: C_21  and  C_47
   19  A    between atoms: S_24  and  C_31
   20  A    between atoms: S_24  and  C_36
   21  A    between atoms: C_33  and  C_48
   22  A    between atoms: C_35  and  O_45
   23  A    between atoms: C_42  and  O_45
                            x       y       z     vdW  Elec       q    Type
                         _______ _______ _______ _____ _____    ______ ____

>  <TORSDO>
F 23

$$$$
