=
 OpenBabel11062422493D

 67 74  0  0  1  0  0  0  0  0999 V2000
  193.6660  171.5180  142.6830 C   0  0  0  0  0  3  0  0  0  0  0  0
  192.7850  171.0760  141.8410 N   0  0  0  0  0  0  0  0  0  0  0  0
  193.2850  175.1340  145.5860 C   0  0  0  0  0  2  0  0  0  0  0  0
  192.4570  176.0170  142.2940 C   0  0  0  0  0  1  0  0  0  0  0  0
  196.5480  174.5690  143.4730 C   0  0  1  0  0  3  0  0  0  0  0  0
  194.7050  176.1440  143.1970 O   0  0  0  0  0  0  0  0  0  0  0  0
  193.6330  175.2710  142.9160 C   0  0  1  0  0  0  0  0  0  0  0  0
  195.0830  176.7700  145.7260 O   0  0  0  0  0  1  0  0  0  0  0  0
  197.5050  175.4340  144.0180 O   0  0  0  0  0  1  0  0  0  0  0  0
  192.4550  173.1780  144.0760 C   0  0  0  0  0  2  0  0  0  0  0  0
  194.5040  171.8720  145.0500 C   0  0  2  0  0  3  0  0  0  0  0  0
  193.2250  174.4920  144.1880 C   0  0  2  0  0  3  0  0  0  0  0  0
  195.8210  174.4680  145.8730 C   0  0  0  0  0  2  0  0  0  0  0  0
  194.4930  174.4140  141.9820 C   0  0  2  0  0  3  0  0  0  0  0  0
  194.7800  170.5790  145.5050 O   0  0  0  0  0  1  0  0  0  0  0  0
  193.2750  171.8660  144.0870 C   0  0  2  0  0  0  0  0  0  0  0  0
  192.3860  170.8800  144.5270 O   0  0  0  0  0  1  0  0  0  0  0  0
  195.8100  172.4720  144.4930 C   0  0  0  0  0  2  0  0  0  0  0  0
  194.6960  175.4890  146.1160 C   0  0  2  0  0  3  0  0  0  0  0  0
  195.7440  173.9220  144.5200 N   0  0  2  0  0  0  0  0  0  0  0  0
  195.6140  175.3270  142.4910 C   0  0  2  0  0  0  0  0  0  0  0  0
  197.4810  175.4470  140.9630 O   0  0  0  0  0  1  0  0  0  0  0  0
  196.3770  176.1530  141.4450 C   0  0  0  0  0  2  0  0  0  0  0  0
  194.1430  174.5740  140.4960 C   0  0  0  0  0  2  0  0  0  0  0  0
  195.4430  173.8050  138.4740 C   0  0  0  0  0  0  0  0  0  0  0  0
  194.7890  173.5320  139.7160 N   0  0  0  0  0  2  0  0  0  0  0  0
  195.2600  174.9120  137.8950 O   0  0  0  0  0  0  0  0  0  0  0  0
  197.5830  173.2420  137.4540 N   0  0  0  0  0  1  0  0  0  0  0  0
  196.2660  172.7330  137.8130 C   0  0  2  0  0  3  0  0  0  0  0  0
  194.0820  171.4850  135.1780 C   0  0  0  0  0  3  0  0  0  0  0  0
  195.6150  172.1850  136.6260 N   0  0  0  0  0  0  0  0  0  0  0  0
  196.2450  171.9080  135.4730 C   0  0  0  0  0  3  0  0  0  0  0  0
  195.3180  171.4630  134.5490 C   0  0  0  0  0  3  0  0  0  0  0  0
  194.2980  171.9460  136.4630 C   0  0  0  0  0  3  0  0  0  0  0  0
  194.0480  169.9090  140.1460 C   0  0  0  0  0  2  0  0  0  0  0  0
  193.0720  170.7540  140.4720 C   0  0  0  0  0  0  0  0  0  0  0  0
  192.3210  171.3340  139.4450 O   0  0  0  0  0  0  0  0  0  0  0  0
  190.2580  171.7060  138.2690 C   0  0  2  0  0  3  0  0  0  0  0  0
  190.9550  171.7060  139.6080 C   0  0  2  0  0  3  0  0  0  0  0  0
  189.4620  172.8660  138.1350 O   0  0  0  0  0  0  0  0  0  0  0  0
  189.4220  170.5200  138.1420 N   0  0  0  0  0  1  0  0  0  0  0  0
  190.8350  173.1310  140.0530 C   0  0  0  0  0  2  0  0  0  0  0  0
  189.6060  173.6140  139.3210 C   0  0  2  0  0  3  0  0  0  0  0  0
  188.3600  173.4320  140.1800 C   0  0  0  0  0  2  0  0  0  0  0  0
  188.6770  173.6570  141.6500 C   0  0  0  0  0  2  0  0  0  0  0  0
  187.5950  174.4160  142.2520 N   0  0  0  0  0  2  0  0  0  0  0  0
  188.4650  175.6310  144.2020 N   0  0  0  0  0  0  0  0  0  0  0  0
  189.4180  175.4970  143.1970 O   0  0  0  0  0  0  0  0  0  0  0  0
  188.1350  175.6610  142.7860 C   0  0  1  0  0  0  0  0  0  0  0  0
  187.7210  178.1730  144.4720 O   0  0  0  0  0  0  0  0  0  0  0  0
  188.7510  177.1860  144.9450 S   0  0  0  0  0  0  0  0  0  0  0  0
  190.1290  177.7030  144.6270 O   0  0  0  0  0  0  0  0  0  0  0  0
  188.6170  177.0130  146.7160 C   0  0  0  0  0  2  0  0  0  0  0  0
  185.3710  178.7350  147.8420 C   0  0  0  0  0  2  0  0  0  0  0  0
  186.8540  178.5990  147.5110 C   0  0  0  0  0  2  0  0  0  0  0  0
  187.1710  177.1440  147.1690 C   0  0  0  0  0  3  0  0  0  0  0  0
  186.2440  176.6530  146.0610 C   0  0  0  0  0  2  0  0  0  0  0  0
  184.5660  178.3220  146.6920 N   0  0  0  0  0  2  0  0  0  0  0  0
  184.7870  176.8960  146.4580 C   0  0  0  0  0  2  0  0  0  0  0  0
  188.8670  177.6730  141.7220 O   0  0  0  0  0  0  0  0  0  0  0  0
  187.8830  176.9450  142.0320 C   0  0  0  0  0  0  0  0  0  0  0  0
  183.9280  178.3050  141.0830 C   0  0  0  0  0  3  0  0  0  0  0  0
  184.9180  178.2810  140.0970 C   0  0  0  0  0  3  0  0  0  0  0  0
  186.5140  177.3980  141.7090 C   0  0  0  0  0  0  0  0  0  0  0  0
  184.2220  177.8730  142.3780 C   0  0  0  0  0  3  0  0  0  0  0  0
  185.5090  177.4180  142.6890 C   0  0  0  0  0  3  0  0  0  0  0  0
  186.2040  177.8260  140.4080 C   0  0  0  0  0  3  0  0  0  0  0  0
  1 16  1  0  0  0  0
  2  1  2  0  0  0  0
  3 19  1  0  0  0  0
  5  9  1  1  0  0  0
  5 20  1  0  0  0  0
  7  4  1  6  0  0  0
  7  6  1  0  0  0  0
  7 12  1  0  0  0  0
 10 16  1  0  0  0  0
 11 15  1  6  0  0  0
 12 10  1  6  0  0  0
 12  3  1  0  0  0  0
 13 19  1  0  0  0  0
 14 24  1  6  0  0  0
 14 21  1  0  0  0  0
 14  7  1  0  0  0  0
 16 17  1  1  0  0  0
 16 11  1  0  0  0  0
 18 11  1  0  0  0  0
 19  8  1  6  0  0  0
 20 18  1  1  0  0  0
 20 13  1  0  0  0  0
 21 23  1  6  0  0  0
 21  6  1  0  0  0  0
 21  5  1  0  0  0  0
 22 23  1  0  0  0  0
 25 26  1  0  0  0  0
 26 24  1  0  0  0  0
 27 25  2  0  0  0  0
 29 28  1  6  0  0  0
 29 25  1  0  0  0  0
 30 34  2  0  0  0  0
 31 29  1  0  0  0  0
 32 31  1  0  0  0  0
 33 30  1  0  0  0  0
 33 32  2  0  0  0  0
 34 31  1  0  0  0  0
 35 36  2  0  0  0  0
 36  2  1  0  0  0  0
 37 36  1  0  0  0  0
 38 41  1  1  0  0  0
 38 39  1  0  0  0  0
 39 37  1  6  0  0  0
 39 42  1  0  0  0  0
 40 38  1  0  0  0  0
 40 43  1  0  0  0  0
 43 42  1  0  0  0  0
 43 44  1  1  0  0  0
 44 45  1  0  0  0  0
 45 46  1  0  0  0  0
 46 49  1  0  0  0  0
 47 51  1  0  0  0  0
 48 47  1  0  0  0  0
 49 61  1  6  0  0  0
 49 48  1  0  0  0  0
 49 47  1  0  0  0  0
 50 51  2  0  0  0  0
 51 53  1  0  0  0  0
 52 51  2  0  0  0  0
 53 56  1  0  0  0  0
 55 54  1  0  0  0  0
 56 55  1  0  0  0  0
 57 59  1  0  0  0  0
 57 56  1  0  0  0  0
 58 54  1  0  0  0  0
 59 58  1  0  0  0  0
 60 61  2  0  0  0  0
 62 65  1  0  0  0  0
 63 67  1  0  0  0  0
 63 62  2  0  0  0  0
 64 61  1  0  0  0  0
 64 66  1  0  0  0  0
 65 66  2  0  0  0  0
 67 64  2  0  0  0  0
M  END
>  <MODEL>
1

>  <REMARK>
 VINA RESULT:      -7.4      0.000      0.000
  Name = 
  18 active torsions:
  status: ('A' for Active; 'I' for Inactive)
    1  A    between atoms: C_3  and  C_30
    2  A    between atoms: C_3  and  S_31
    3  A    between atoms: N_5  and  C_53
    4  A    between atoms: C_10  and  C_53
    5  A    between atoms: C_13  and  O_60
    6  A    between atoms: N_16  and  S_31
    7  A    between atoms: C_17  and  C_55
    8  A    between atoms: N_21  and  C_32
    9  A    between atoms: C_25  and  C_42
   10  A    between atoms: C_25  and  N_46
   11  A    between atoms: C_32  and  O_60
   12  A    between atoms: C_39  and  C_48
   13  A    between atoms: C_40  and  C_54
   14  A    between atoms: C_42  and  C_52
   15  A    between atoms: C_44  and  N_46
   16  A    between atoms: C_44  and  C_54
   17  A    between atoms: C_48  and  N_63
   18  A    between atoms: C_51  and  C_65
                            x       y       z     vdW  Elec       q    Type
                         _______ _______ _______ _____ _____    ______ ____

>  <TORSDO>
F 18

$$$$
=
 OpenBabel11062422493D

 67 74  0  0  1  0  0  0  0  0999 V2000
  195.6860  173.9960  140.1350 C   0  0  0  0  0  3  0  0  0  0  0  0
  194.9740  174.7080  139.3190 N   0  0  0  0  0  0  0  0  0  0  0  0
  197.9410  173.5440  144.1790 C   0  0  0  0  0  2  0  0  0  0  0  0
  197.1330  170.4290  142.7870 C   0  0  0  0  0  1  0  0  0  0  0  0
  194.0190  173.4280  144.0250 C   0  0  1  0  0  3  0  0  0  0  0  0
  195.6720  171.6530  144.2890 O   0  0  0  0  0  0  0  0  0  0  0  0
  196.3340  171.7020  143.0430 C   0  0  1  0  0  0  0  0  0  0  0  0
  196.6900  173.1180  146.2240 O   0  0  0  0  0  1  0  0  0  0  0  0
  193.5850  173.5320  145.3530 O   0  0  0  0  0  1  0  0  0  0  0  0
  197.6400  173.5180  141.5910 C   0  0  0  0  0  2  0  0  0  0  0  0
  196.1930  175.6660  141.9760 C   0  0  2  0  0  3  0  0  0  0  0  0
  197.2120  172.9720  142.9500 C   0  0  2  0  0  3  0  0  0  0  0  0
  195.8220  174.9430  144.8900 C   0  0  0  0  0  2  0  0  0  0  0  0
  195.0170  171.8710  142.2790 C   0  0  2  0  0  3  0  0  0  0  0  0
  196.0100  176.9070  141.3610 O   0  0  0  0  0  1  0  0  0  0  0  0
  196.7670  174.6280  140.9590 C   0  0  2  0  0  0  0  0  0  0  0  0
  197.6150  175.3090  140.0800 O   0  0  0  0  0  1  0  0  0  0  0  0
  194.8770  175.2810  142.6800 C   0  0  0  0  0  2  0  0  0  0  0  0
  197.0440  174.1080  145.3080 C   0  0  2  0  0  3  0  0  0  0  0  0
  195.1420  174.3350  143.7490 N   0  0  2  0  0  0  0  0  0  0  0  0
  194.4320  171.9680  143.6920 C   0  0  2  0  0  0  0  0  0  0  0  0
  192.0830  171.4520  143.9190 O   0  0  0  0  0  1  0  0  0  0  0  0
  193.3690  170.9320  144.0850 C   0  0  0  0  0  2  0  0  0  0  0  0
  194.6000  170.6270  141.4830 C   0  0  0  0  0  2  0  0  0  0  0  0
  195.6820  169.6210  139.4370 C   0  0  0  0  0  0  0  0  0  0  0  0
  195.0800  170.7260  140.1150 N   0  0  0  0  0  2  0  0  0  0  0  0
  196.0450  168.6020  140.0900 O   0  0  0  0  0  0  0  0  0  0  0  0
  197.0590  170.6570  137.7140 N   0  0  0  0  0  1  0  0  0  0  0  0
  195.9740  169.7180  137.9640 C   0  0  2  0  0  3  0  0  0  0  0  0
  192.7120  170.3320  136.4640 C   0  0  0  0  0  3  0  0  0  0  0  0
  194.8000  170.1120  137.1890 N   0  0  0  0  0  0  0  0  0  0  0  0
  194.8030  171.0510  136.2300 C   0  0  0  0  0  3  0  0  0  0  0  0
  193.5150  171.2100  135.7520 C   0  0  0  0  0  3  0  0  0  0  0  0
  193.5370  169.6710  137.3550 C   0  0  0  0  0  3  0  0  0  0  0  0
  193.7530  174.6350  137.2380 C   0  0  0  0  0  2  0  0  0  0  0  0
  193.9470  174.1720  138.4720 C   0  0  0  0  0  0  0  0  0  0  0  0
  193.1220  173.1430  138.9370 O   0  0  0  0  0  0  0  0  0  0  0  0
  191.6900  173.2200  140.8650 C   0  0  2  0  0  3  0  0  0  0  0  0
  191.7820  173.3670  139.3650 C   0  0  2  0  0  3  0  0  0  0  0  0
  190.5550  172.4510  141.2100 O   0  0  0  0  0  0  0  0  0  0  0  0
  191.6000  174.5340  141.4900 N   0  0  0  0  0  1  0  0  0  0  0  0
  190.8710  172.2900  138.8630 C   0  0  0  0  0  2  0  0  0  0  0  0
  189.9070  172.0960  140.0100 C   0  0  2  0  0  3  0  0  0  0  0  0
  188.6720  172.9710  139.8300 C   0  0  0  0  0  2  0  0  0  0  0  0
  188.4430  173.8450  141.0530 C   0  0  0  0  0  2  0  0  0  0  0  0
  188.3600  175.2320  140.6280 N   0  0  0  0  0  2  0  0  0  0  0  0
  186.3990  176.3250  141.6250 N   0  0  0  0  0  0  0  0  0  0  0  0
  186.9070  175.3160  142.4370 O   0  0  0  0  0  0  0  0  0  0  0  0
  187.8180  176.0270  141.7240 C   0  0  1  0  0  0  0  0  0  0  0  0
  184.5050  178.1120  142.1840 O   0  0  0  0  0  0  0  0  0  0  0  0
  185.8090  177.5690  142.7000 S   0  0  0  0  0  0  0  0  0  0  0  0
  186.8030  178.6910  142.8410 O   0  0  0  0  0  0  0  0  0  0  0  0
  185.5410  176.8570  144.3150 C   0  0  0  0  0  2  0  0  0  0  0  0
  185.6590  179.7590  146.8320 C   0  0  0  0  0  2  0  0  0  0  0  0
  185.1530  178.9350  145.6520 C   0  0  0  0  0  2  0  0  0  0  0  0
  186.0970  177.7590  145.4070 C   0  0  0  0  0  3  0  0  0  0  0  0
  186.2730  176.9530  146.6910 C   0  0  0  0  0  2  0  0  0  0  0  0
  185.7130  178.9250  148.0330 N   0  0  0  0  0  2  0  0  0  0  0  0
  186.7130  177.8790  147.8270 C   0  0  0  0  0  2  0  0  0  0  0  0
  189.2740  177.8910  142.0790 O   0  0  0  0  0  0  0  0  0  0  0  0
  188.7670  176.8430  142.5690 C   0  0  0  0  0  0  0  0  0  0  0  0
  189.9650  175.6040  146.4970 C   0  0  0  0  0  3  0  0  0  0  0  0
  189.9260  176.9620  146.1700 C   0  0  0  0  0  3  0  0  0  0  0  0
  189.1640  176.4090  143.9260 C   0  0  0  0  0  0  0  0  0  0  0  0
  189.6010  174.6460  145.5470 C   0  0  0  0  0  3  0  0  0  0  0  0
  189.2000  175.0480  144.2670 C   0  0  0  0  0  3  0  0  0  0  0  0
  189.5240  177.3620  144.8910 C   0  0  0  0  0  3  0  0  0  0  0  0
  1 16  1  0  0  0  0
  2  1  2  0  0  0  0
  3 19  1  0  0  0  0
  5  9  1  1  0  0  0
  7  4  1  6  0  0  0
  7  6  1  0  0  0  0
 11 15  1  6  0  0  0
 11 18  1  0  0  0  0
 12 10  1  6  0  0  0
 12  7  1  0  0  0  0
 12  3  1  0  0  0  0
 13 19  1  0  0  0  0
 14 24  1  1  0  0  0
 14  7  1  0  0  0  0
 14 21  1  0  0  0  0
 16 17  1  6  0  0  0
 16 10  1  0  0  0  0
 16 11  1  0  0  0  0
 19  8  1  6  0  0  0
 20 18  1  6  0  0  0
 20  5  1  0  0  0  0
 20 13  1  0  0  0  0
 21  5  1  0  0  0  0
 21 23  1  1  0  0  0
 21  6  1  0  0  0  0
 22 23  1  0  0  0  0
 25 27  2  0  0  0  0
 25 26  1  0  0  0  0
 26 24  1  0  0  0  0
 29 28  1  1  0  0  0
 29 25  1  0  0  0  0
 30 34  2  0  0  0  0
 31 34  1  0  0  0  0
 31 29  1  0  0  0  0
 32 31  1  0  0  0  0
 33 32  2  0  0  0  0
 33 30  1  0  0  0  0
 35 36  2  0  0  0  0
 36 37  1  0  0  0  0
 36  2  1  0  0  0  0
 38 40  1  0  0  0  0
 38 41  1  1  0  0  0
 39 37  1  6  0  0  0
 39 38  1  0  0  0  0
 42 39  1  0  0  0  0
 42 43  1  0  0  0  0
 43 44  1  6  0  0  0
 43 40  1  0  0  0  0
 44 45  1  0  0  0  0
 46 45  1  0  0  0  0
 47 49  1  0  0  0  0
 47 48  1  0  0  0  0
 47 51  1  0  0  0  0
 49 46  1  6  0  0  0
 49 48  1  0  0  0  0
 49 61  1  0  0  0  0
 50 51  2  0  0  0  0
 51 52  2  0  0  0  0
 51 53  1  0  0  0  0
 53 56  1  0  0  0  0
 54 58  1  0  0  0  0
 55 54  1  0  0  0  0
 56 55  1  0  0  0  0
 56 57  1  0  0  0  0
 57 59  1  0  0  0  0
 59 58  1  0  0  0  0
 60 61  2  0  0  0  0
 61 64  1  0  0  0  0
 63 62  1  0  0  0  0
 64 66  2  0  0  0  0
 64 67  1  0  0  0  0
 65 62  2  0  0  0  0
 66 65  1  0  0  0  0
 67 63  2  0  0  0  0
M  END
>  <MODEL>
2

>  <REMARK>
 VINA RESULT:      -7.3      2.090      4.212
  Name = 
  18 active torsions:
  status: ('A' for Active; 'I' for Inactive)
    1  A    between atoms: C_3  and  C_30
    2  A    between atoms: C_3  and  S_31
    3  A    between atoms: N_5  and  C_53
    4  A    between atoms: C_10  and  C_53
    5  A    between atoms: C_13  and  O_60
    6  A    between atoms: N_16  and  S_31
    7  A    between atoms: C_17  and  C_55
    8  A    between atoms: N_21  and  C_32
    9  A    between atoms: C_25  and  C_42
   10  A    between atoms: C_25  and  N_46
   11  A    between atoms: C_32  and  O_60
   12  A    between atoms: C_39  and  C_48
   13  A    between atoms: C_40  and  C_54
   14  A    between atoms: C_42  and  C_52
   15  A    between atoms: C_44  and  N_46
   16  A    between atoms: C_44  and  C_54
   17  A    between atoms: C_48  and  N_63
   18  A    between atoms: C_51  and  C_65
                            x       y       z     vdW  Elec       q    Type
                         _______ _______ _______ _____ _____    ______ ____

>  <TORSDO>
F 18

$$$$
=
 OpenBabel11062422493D

 67 74  0  0  1  0  0  0  0  0999 V2000
  192.0160  171.7770  136.7230 C   0  0  0  0  0  3  0  0  0  0  0  0
  190.7930  171.3760  136.8730 N   0  0  0  0  0  0  0  0  0  0  0  0
  195.5320  174.4330  135.2330 C   0  0  0  0  0  2  0  0  0  0  0  0
  196.6580  171.3270  136.4100 C   0  0  0  0  0  1  0  0  0  0  0  0
  194.5570  174.3130  139.0350 C   0  0  1  0  0  3  0  0  0  0  0  0
  196.4040  173.2880  137.8150 O   0  0  0  0  0  0  0  0  0  0  0  0
  195.7170  172.3850  136.9760 C   0  0  1  0  0  0  0  0  0  0  0  0
  196.8680  175.6880  136.8360 O   0  0  0  0  0  1  0  0  0  0  0  0
  195.2440  175.3760  139.6350 O   0  0  0  0  0  1  0  0  0  0  0  0
  193.7860  172.5010  135.1410 C   0  0  0  0  0  2  0  0  0  0  0  0
  192.1460  174.2520  136.1860 C   0  0  2  0  0  3  0  0  0  0  0  0
  194.9610  173.1510  135.8660 C   0  0  2  0  0  3  0  0  0  0  0  0
  194.4770  175.9370  137.1240 C   0  0  0  0  0  2  0  0  0  0  0  0
  194.7760  171.9560  138.1060 C   0  0  2  0  0  3  0  0  0  0  0  0
  190.8100  174.6320  136.0310 O   0  0  0  0  0  1  0  0  0  0  0  0
  192.3650  172.7920  135.6770 C   0  0  2  0  0  0  0  0  0  0  0  0
  191.5100  172.5800  134.5900 O   0  0  0  0  0  1  0  0  0  0  0  0
  192.5600  174.5410  137.6420 C   0  0  0  0  0  2  0  0  0  0  0  0
  195.6470  175.6650  136.1640 C   0  0  2  0  0  3  0  0  0  0  0  0
  194.0000  174.6950  137.7290 N   0  0  2  0  0  0  0  0  0  0  0  0
  195.4860  173.0800  138.8660 C   0  0  2  0  0  0  0  0  0  0  0  0
  195.3680  172.7570  141.2580 O   0  0  0  0  0  1  0  0  0  0  0  0
  196.2250  172.6970  140.1570 C   0  0  0  0  0  2  0  0  0  0  0  0
  195.0450  170.5390  138.6310 C   0  0  0  0  0  2  0  0  0  0  0  0
  194.2020  169.2270  140.6160 C   0  0  0  0  0  0  0  0  0  0  0  0
  193.9780  170.1290  139.5290 N   0  0  0  0  0  2  0  0  0  0  0  0
  195.2750  168.5640  140.6750 O   0  0  0  0  0  0  0  0  0  0  0  0
  191.8010  169.0830  141.0080 N   0  0  0  0  0  1  0  0  0  0  0  0
  193.1150  168.9970  141.6310 C   0  0  2  0  0  3  0  0  0  0  0  0
  192.6410  171.3750  144.3490 C   0  0  0  0  0  3  0  0  0  0  0  0
  193.1880  169.9370  142.7460 N   0  0  0  0  0  0  0  0  0  0  0  0
  194.2910  170.1680  143.4750 C   0  0  0  0  0  3  0  0  0  0  0  0
  193.9860  171.0650  144.4820 C   0  0  0  0  0  3  0  0  0  0  0  0
  192.1710  170.6520  143.2690 C   0  0  0  0  0  3  0  0  0  0  0  0
  190.4020  169.0860  137.5290 C   0  0  0  0  0  2  0  0  0  0  0  0
  190.3830  170.3840  137.8260 C   0  0  0  0  0  0  0  0  0  0  0  0
  189.9500  170.7720  139.0980 O   0  0  0  0  0  0  0  0  0  0  0  0
  190.3150  172.3930  140.8340 C   0  0  2  0  0  3  0  0  0  0  0  0
  189.7500  172.1350  139.4580 C   0  0  2  0  0  3  0  0  0  0  0  0
  189.4030  173.1530  141.6010 O   0  0  0  0  0  0  0  0  0  0  0  0
  191.5810  173.1060  140.7280 N   0  0  0  0  0  1  0  0  0  0  0  0
  188.2930  172.4380  139.6280 C   0  0  0  0  0  2  0  0  0  0  0  0
  188.2790  173.4040  140.7890 C   0  0  2  0  0  3  0  0  0  0  0  0
  188.3320  174.8440  140.2920 C   0  0  0  0  0  2  0  0  0  0  0  0
  187.4510  175.7460  141.1430 C   0  0  0  0  0  2  0  0  0  0  0  0
  187.5390  175.3150  142.5270 N   0  0  0  0  0  2  0  0  0  0  0  0
  189.3720  175.7650  144.0980 N   0  0  0  0  0  0  0  0  0  0  0  0
  189.5890  176.3520  142.8560 O   0  0  0  0  0  0  0  0  0  0  0  0
  188.3000  176.3050  143.2800 C   0  0  1  0  0  0  0  0  0  0  0  0
  189.0240  177.1510  146.3450 O   0  0  0  0  0  0  0  0  0  0  0  0
  190.0460  176.8580  145.2820 S   0  0  0  0  0  0  0  0  0  0  0  0
  190.4970  178.1470  144.6470 O   0  0  0  0  0  0  0  0  0  0  0  0
  191.4650  176.0860  146.0400 C   0  0  0  0  0  2  0  0  0  0  0  0
  195.1060  176.9550  145.1680 C   0  0  0  0  0  2  0  0  0  0  0  0
  193.8320  176.8960  146.0040 C   0  0  0  0  0  2  0  0  0  0  0  0
  192.7080  176.2670  145.1820 C   0  0  0  0  0  3  0  0  0  0  0  0
  193.1530  174.9110  144.6390 C   0  0  0  0  0  2  0  0  0  0  0  0
  195.5000  175.6040  144.7660 N   0  0  0  0  0  2  0  0  0  0  0  0
  194.4710  175.0650  143.8780 C   0  0  0  0  0  2  0  0  0  0  0  0
  188.1440  178.6650  142.9270 O   0  0  0  0  0  0  0  0  0  0  0  0
  187.6810  177.6600  143.5340 C   0  0  0  0  0  0  0  0  0  0  0  0
  184.5010  178.1510  146.3710 C   0  0  0  0  0  3  0  0  0  0  0  0
  185.1510  176.9190  146.2500 C   0  0  0  0  0  3  0  0  0  0  0  0
  186.5940  177.8410  144.5200 C   0  0  0  0  0  0  0  0  0  0  0  0
  184.8960  179.2290  145.5750 C   0  0  0  0  0  3  0  0  0  0  0  0
  185.9400  179.0760  144.6550 C   0  0  0  0  0  3  0  0  0  0  0  0
  186.1950  176.7670  145.3310 C   0  0  0  0  0  3  0  0  0  0  0  0
  1  2  2  0  0  0  0
  2 36  1  0  0  0  0
  3 12  1  0  0  0  0
  3 19  1  0  0  0  0
  5  9  1  6  0  0  0
  6 21  1  0  0  0  0
  7  4  1  6  0  0  0
  7  6  1  0  0  0  0
  7 14  1  0  0  0  0
 10 16  1  0  0  0  0
 11 15  1  1  0  0  0
 11 18  1  0  0  0  0
 12 10  1  6  0  0  0
 12  7  1  0  0  0  0
 14 24  1  1  0  0  0
 14 21  1  0  0  0  0
 16 17  1  6  0  0  0
 16 11  1  0  0  0  0
 16  1  1  0  0  0  0
 18 20  1  0  0  0  0
 19  8  1  1  0  0  0
 19 13  1  0  0  0  0
 20 13  1  1  0  0  0
 20  5  1  0  0  0  0
 21  5  1  0  0  0  0
 21 23  1  1  0  0  0
 23 22  1  0  0  0  0
 24 26  1  0  0  0  0
 25 27  2  0  0  0  0
 25 29  1  0  0  0  0
 26 25  1  0  0  0  0
 29 28  1  6  0  0  0
 29 31  1  0  0  0  0
 30 33  1  0  0  0  0
 31 34  1  0  0  0  0
 31 32  1  0  0  0  0
 32 33  2  0  0  0  0
 34 30  2  0  0  0  0
 35 36  2  0  0  0  0
 36 37  1  0  0  0  0
 38 41  1  6  0  0  0
 38 40  1  0  0  0  0
 39 37  1  1  0  0  0
 39 42  1  0  0  0  0
 39 38  1  0  0  0  0
 42 43  1  0  0  0  0
 43 44  1  6  0  0  0
 43 40  1  0  0  0  0
 44 45  1  0  0  0  0
 45 46  1  0  0  0  0
 47 51  1  0  0  0  0
 48 49  1  0  0  0  0
 48 47  1  0  0  0  0
 49 46  1  6  0  0  0
 49 61  1  0  0  0  0
 49 47  1  0  0  0  0
 51 53  1  0  0  0  0
 51 50  2  0  0  0  0
 52 51  2  0  0  0  0
 54 55  1  0  0  0  0
 56 55  1  0  0  0  0
 56 53  1  0  0  0  0
 57 56  1  0  0  0  0
 58 54  1  0  0  0  0
 59 57  1  0  0  0  0
 59 58  1  0  0  0  0
 60 61  2  0  0  0  0
 61 64  1  0  0  0  0
 63 62  1  0  0  0  0
 64 66  2  0  0  0  0
 64 67  1  0  0  0  0
 65 62  2  0  0  0  0
 66 65  1  0  0  0  0
 67 63  2  0  0  0  0
M  END
>  <MODEL>
3

>  <REMARK>
 VINA RESULT:      -7.1      2.362      6.313
  Name = 
  18 active torsions:
  status: ('A' for Active; 'I' for Inactive)
    1  A    between atoms: C_3  and  C_30
    2  A    between atoms: C_3  and  S_31
    3  A    between atoms: N_5  and  C_53
    4  A    between atoms: C_10  and  C_53
    5  A    between atoms: C_13  and  O_60
    6  A    between atoms: N_16  and  S_31
    7  A    between atoms: C_17  and  C_55
    8  A    between atoms: N_21  and  C_32
    9  A    between atoms: C_25  and  C_42
   10  A    between atoms: C_25  and  N_46
   11  A    between atoms: C_32  and  O_60
   12  A    between atoms: C_39  and  C_48
   13  A    between atoms: C_40  and  C_54
   14  A    between atoms: C_42  and  C_52
   15  A    between atoms: C_44  and  N_46
   16  A    between atoms: C_44  and  C_54
   17  A    between atoms: C_48  and  N_63
   18  A    between atoms: C_51  and  C_65
                            x       y       z     vdW  Elec       q    Type
                         _______ _______ _______ _____ _____    ______ ____

>  <TORSDO>
F 18

$$$$
=
 OpenBabel11062422493D

 67 74  0  0  1  0  0  0  0  0999 V2000
  192.8690  171.7440  140.5900 C   0  0  0  0  0  3  0  0  0  0  0  0
  192.1010  171.7740  141.6340 N   0  0  0  0  0  0  0  0  0  0  0  0
  194.0790  171.7280  136.0980 C   0  0  0  0  0  2  0  0  0  0  0  0
  196.4190  170.0270  138.0810 C   0  0  0  0  0  1  0  0  0  0  0  0
  195.5300  174.4080  138.5750 C   0  0  1  0  0  3  0  0  0  0  0  0
  196.5300  172.4050  137.6060 O   0  0  0  0  0  0  0  0  0  0  0  0
  195.7430  171.3900  138.1920 C   0  0  1  0  0  0  0  0  0  0  0  0
  195.7200  173.3290  135.2780 O   0  0  0  0  0  1  0  0  0  0  0  0
  196.1390  175.3780  137.7680 O   0  0  0  0  0  1  0  0  0  0  0  0
  193.1570  170.7530  138.3320 C   0  0  0  0  0  2  0  0  0  0  0  0
  192.0330  173.1010  138.6160 C   0  0  2  0  0  3  0  0  0  0  0  0
  194.3230  171.3890  137.5800 C   0  0  2  0  0  3  0  0  0  0  0  0
  193.9590  174.3090  136.6210 C   0  0  0  0  0  2  0  0  0  0  0  0
  195.7660  172.0760  139.5610 C   0  0  2  0  0  3  0  0  0  0  0  0
  190.8070  173.6090  139.0540 O   0  0  0  0  0  1  0  0  0  0  0  0
  192.2830  171.6790  139.2110 C   0  0  2  0  0  0  0  0  0  0  0  0
  191.0480  171.0300  139.3150 O   0  0  0  0  0  1  0  0  0  0  0  0
  193.1170  174.1600  138.8920 C   0  0  0  0  0  2  0  0  0  0  0  0
  194.3890  173.1820  135.6670 C   0  0  2  0  0  3  0  0  0  0  0  0
  194.2500  173.9570  138.0080 N   0  0  2  0  0  0  0  0  0  0  0  0
  196.4700  173.1880  138.7780 C   0  0  2  0  0  0  0  0  0  0  0  0
  197.8370  174.6490  140.1330 O   0  0  0  0  0  1  0  0  0  0  0  0
  197.8830  173.5820  139.2330 C   0  0  0  0  0  2  0  0  0  0  0  0
  196.6360  171.3550  140.6000 C   0  0  0  0  0  2  0  0  0  0  0  0
  196.2710  169.2710  141.9760 C   0  0  0  0  0  0  0  0  0  0  0  0
  195.8080  170.5170  141.4510 N   0  0  0  0  0  2  0  0  0  0  0  0
  197.3180  168.7410  141.5110 O   0  0  0  0  0  0  0  0  0  0  0  0
  194.0540  168.4830  142.6090 N   0  0  0  0  0  1  0  0  0  0  0  0
  195.4520  168.5460  143.0110 C   0  0  2  0  0  3  0  0  0  0  0  0
  196.2840  170.3090  146.0880 C   0  0  0  0  0  3  0  0  0  0  0  0
  195.5530  169.1630  144.3310 N   0  0  0  0  0  0  0  0  0  0  0  0
  194.5490  169.2220  145.2200 C   0  0  0  0  0  3  0  0  0  0  0  0
  194.9740  169.9260  146.3320 C   0  0  0  0  0  3  0  0  0  0  0  0
  196.6120  169.8280  144.8340 C   0  0  0  0  0  3  0  0  0  0  0  0
  191.9030  171.2320  143.9780 C   0  0  0  0  0  2  0  0  0  0  0  0
  192.5840  171.8020  142.9850 C   0  0  0  0  0  0  0  0  0  0  0  0
  193.7930  172.4380  143.2830 O   0  0  0  0  0  0  0  0  0  0  0  0
  195.1740  174.2470  144.0550 C   0  0  2  0  0  3  0  0  0  0  0  0
  193.9340  173.8550  143.2870 C   0  0  2  0  0  3  0  0  0  0  0  0
  194.8890  175.3290  144.9190 O   0  0  0  0  0  0  0  0  0  0  0  0
  196.2350  174.6240  143.1310 N   0  0  0  0  0  1  0  0  0  0  0  0
  192.8320  174.5040  144.0680 C   0  0  0  0  0  2  0  0  0  0  0  0
  193.5300  175.6590  144.7460 C   0  0  2  0  0  3  0  0  0  0  0  0
  193.4260  176.9230  143.9000 C   0  0  0  0  0  2  0  0  0  0  0  0
  192.2830  176.8160  142.9030 C   0  0  0  0  0  2  0  0  0  0  0  0
  191.3100  177.8550  143.1920 N   0  0  0  0  0  2  0  0  0  0  0  0
  188.9610  178.3250  142.6510 N   0  0  0  0  0  0  0  0  0  0  0  0
  189.5810  177.5530  141.6740 O   0  0  0  0  0  0  0  0  0  0  0  0
  189.9730  177.3260  142.9550 C   0  0  1  0  0  0  0  0  0  0  0  0
  187.0690  176.7130  141.6950 O   0  0  0  0  0  0  0  0  0  0  0  0
  187.3050  177.7750  142.7330 S   0  0  0  0  0  0  0  0  0  0  0  0
  186.3370  178.9090  142.5230 O   0  0  0  0  0  0  0  0  0  0  0  0
  187.0060  177.0800  144.3500 C   0  0  0  0  0  2  0  0  0  0  0  0
  184.0530  178.7380  146.1660 C   0  0  0  0  0  2  0  0  0  0  0  0
  184.7650  177.8240  145.1750 C   0  0  0  0  0  2  0  0  0  0  0  0
  186.2710  178.0700  145.2410 C   0  0  0  0  0  3  0  0  0  0  0  0
  186.7630  177.9230  146.6780 C   0  0  0  0  0  2  0  0  0  0  0  0
  184.5280  178.4650  147.5230 N   0  0  0  0  0  2  0  0  0  0  0  0
  185.9420  178.8260  147.6010 C   0  0  0  0  0  2  0  0  0  0  0  0
  189.2410  175.0690  142.6560 O   0  0  0  0  0  0  0  0  0  0  0  0
  189.6320  175.9490  143.4730 C   0  0  0  0  0  0  0  0  0  0  0  0
  189.8320  175.0330  147.6590 C   0  0  0  0  0  3  0  0  0  0  0  0
  190.1920  176.3030  147.1990 C   0  0  0  0  0  3  0  0  0  0  0  0
  189.6830  175.6300  144.9160 C   0  0  0  0  0  0  0  0  0  0  0  0
  189.3930  174.0620  146.7550 C   0  0  0  0  0  3  0  0  0  0  0  0
  189.3160  174.3610  145.3890 C   0  0  0  0  0  3  0  0  0  0  0  0
  190.1150  176.6010  145.8340 C   0  0  0  0  0  3  0  0  0  0  0  0
  1  2  2  0  0  0  0
  2 36  1  0  0  0  0
  5  9  1  6  0  0  0
  5 21  1  0  0  0  0
  6  7  1  0  0  0  0
  6 21  1  0  0  0  0
  7  4  1  6  0  0  0
  7 14  1  0  0  0  0
 10 16  1  0  0  0  0
 11 18  1  0  0  0  0
 11 15  1  1  0  0  0
 11 16  1  0  0  0  0
 12  3  1  6  0  0  0
 12  7  1  0  0  0  0
 12 10  1  0  0  0  0
 14 24  1  1  0  0  0
 16 17  1  1  0  0  0
 16  1  1  0  0  0  0
 19  8  1  1  0  0  0
 19  3  1  0  0  0  0
 19 13  1  0  0  0  0
 20 13  1  6  0  0  0
 20  5  1  0  0  0  0
 20 18  1  0  0  0  0
 21 23  1  1  0  0  0
 21 14  1  0  0  0  0
 23 22  1  0  0  0  0
 24 26  1  0  0  0  0
 25 29  1  0  0  0  0
 26 25  1  0  0  0  0
 27 25  2  0  0  0  0
 29 28  1  6  0  0  0
 29 31  1  0  0  0  0
 30 33  1  0  0  0  0
 31 34  1  0  0  0  0
 31 32  1  0  0  0  0
 32 33  2  0  0  0  0
 34 30  2  0  0  0  0
 36 37  1  0  0  0  0
 36 35  2  0  0  0  0
 38 41  1  6  0  0  0
 38 40  1  0  0  0  0
 39 37  1  1  0  0  0
 39 38  1  0  0  0  0
 39 42  1  0  0  0  0
 42 43  1  0  0  0  0
 43 44  1  6  0  0  0
 43 40  1  0  0  0  0
 45 46  1  0  0  0  0
 45 44  1  0  0  0  0
 47 51  1  0  0  0  0
 47 49  1  0  0  0  0
 48 47  1  0  0  0  0
 48 49  1  0  0  0  0
 49 46  1  1  0  0  0
 49 61  1  0  0  0  0
 50 51  2  0  0  0  0
 51 53  1  0  0  0  0
 52 51  2  0  0  0  0
 53 56  1  0  0  0  0
 54 58  1  0  0  0  0
 55 56  1  0  0  0  0
 55 54  1  0  0  0  0
 56 57  1  0  0  0  0
 57 59  1  0  0  0  0
 58 59  1  0  0  0  0
 60 61  2  0  0  0  0
 61 64  1  0  0  0  0
 63 62  1  0  0  0  0
 64 66  2  0  0  0  0
 64 67  1  0  0  0  0
 65 62  2  0  0  0  0
 66 65  1  0  0  0  0
 67 63  2  0  0  0  0
M  END
>  <MODEL>
4

>  <REMARK>
 VINA RESULT:      -6.9      2.262      6.380
  Name = 
  18 active torsions:
  status: ('A' for Active; 'I' for Inactive)
    1  A    between atoms: C_3  and  C_30
    2  A    between atoms: C_3  and  S_31
    3  A    between atoms: N_5  and  C_53
    4  A    between atoms: C_10  and  C_53
    5  A    between atoms: C_13  and  O_60
    6  A    between atoms: N_16  and  S_31
    7  A    between atoms: C_17  and  C_55
    8  A    between atoms: N_21  and  C_32
    9  A    between atoms: C_25  and  C_42
   10  A    between atoms: C_25  and  N_46
   11  A    between atoms: C_32  and  O_60
   12  A    between atoms: C_39  and  C_48
   13  A    between atoms: C_40  and  C_54
   14  A    between atoms: C_42  and  C_52
   15  A    between atoms: C_44  and  N_46
   16  A    between atoms: C_44  and  C_54
   17  A    between atoms: C_48  and  N_63
   18  A    between atoms: C_51  and  C_65
                            x       y       z     vdW  Elec       q    Type
                         _______ _______ _______ _____ _____    ______ ____

>  <TORSDO>
F 18

$$$$
=
 OpenBabel11062422493D

 67 74  0  0  1  0  0  0  0  0999 V2000
  192.3150  170.4820  142.4700 C   0  0  0  0  0  3  0  0  0  0  0  0
  191.2250  169.8660  142.1400 N   0  0  0  0  0  0  0  0  0  0  0  0
  195.4900  172.5220  145.1910 C   0  0  0  0  0  2  0  0  0  0  0  0
  195.0330  174.2750  142.1880 C   0  0  0  0  0  1  0  0  0  0  0  0
  196.5620  170.0480  142.3360 C   0  0  1  0  0  3  0  0  0  0  0  0
  196.6440  172.4820  142.4700 O   0  0  0  0  0  0  0  0  0  0  0  0
  195.2710  172.8050  142.5190 C   0  0  1  0  0  0  0  0  0  0  0  0
  197.8610  172.1460  144.7800 O   0  0  0  0  0  1  0  0  0  0  0  0
  197.9120  169.7620  142.5700 O   0  0  0  0  0  1  0  0  0  0  0  0
  193.1710  172.1980  144.0470 C   0  0  0  0  0  2  0  0  0  0  0  0
  193.5590  169.6530  144.5190 C   0  0  2  0  0  3  0  0  0  0  0  0
  194.6750  172.4110  143.8900 C   0  0  2  0  0  3  0  0  0  0  0  0
  196.5300  170.1240  144.8430 C   0  0  0  0  0  2  0  0  0  0  0  0
  194.9270  171.7770  141.4370 C   0  0  2  0  0  3  0  0  0  0  0  0
  192.8040  168.5590  144.9500 O   0  0  0  0  0  1  0  0  0  0  0  0
  192.6350  170.7540  143.9090 C   0  0  2  0  0  0  0  0  0  0  0  0
  191.4260  170.7410  144.6130 O   0  0  0  0  0  1  0  0  0  0  0  0
  194.6900  169.1270  143.6140 C   0  0  0  0  0  2  0  0  0  0  0  0
  196.7080  171.5760  145.3200 C   0  0  2  0  0  3  0  0  0  0  0  0
  195.7880  170.0760  143.5860 N   0  0  2  0  0  0  0  0  0  0  0  0
  196.4040  171.4030  141.5930 C   0  0  2  0  0  0  0  0  0  0  0  0
  197.5410  170.2570  139.7950 O   0  0  0  0  0  1  0  0  0  0  0  0
  197.2930  171.5170  140.3450 C   0  0  0  0  0  2  0  0  0  0  0  0
  194.5480  172.4010  140.0870 C   0  0  0  0  0  2  0  0  0  0  0  0
  194.8290  171.3440  137.8130 C   0  0  0  0  0  0  0  0  0  0  0  0
  194.2510  171.3570  139.1200 N   0  0  0  0  0  2  0  0  0  0  0  0
  195.4150  172.3710  137.3710 O   0  0  0  0  0  0  0  0  0  0  0  0
  195.4480  170.2620  135.7190 N   0  0  0  0  0  1  0  0  0  0  0  0
  194.6480  170.1380  136.9300 C   0  0  2  0  0  3  0  0  0  0  0  0
  191.0760  170.2140  136.2200 C   0  0  0  0  0  3  0  0  0  0  0  0
  193.2500  169.9180  136.5700 N   0  0  0  0  0  0  0  0  0  0  0  0
  192.7940  168.8340  135.9220 C   0  0  0  0  0  3  0  0  0  0  0  0
  191.4390  168.9840  135.6920 C   0  0  0  0  0  3  0  0  0  0  0  0
  192.2240  170.7740  136.7500 C   0  0  0  0  0  3  0  0  0  0  0  0
  190.5250  168.3680  140.3800 C   0  0  0  0  0  2  0  0  0  0  0  0
  190.8300  169.5990  140.7860 C   0  0  0  0  0  0  0  0  0  0  0  0
  190.7610  170.6440  139.8590 O   0  0  0  0  0  0  0  0  0  0  0  0
  189.6340  172.4540  138.7490 C   0  0  2  0  0  3  0  0  0  0  0  0
  189.9710  171.8100  140.0730 C   0  0  2  0  0  3  0  0  0  0  0  0
  189.8250  173.8520  138.8260 O   0  0  0  0  0  0  0  0  0  0  0  0
  188.2520  172.1650  138.3910 N   0  0  0  0  0  1  0  0  0  0  0  0
  190.7580  172.8720  140.7760 C   0  0  0  0  0  2  0  0  0  0  0  0
  190.2630  174.1460  140.1330 C   0  0  2  0  0  3  0  0  0  0  0  0
  189.1040  174.7360  140.9280 C   0  0  0  0  0  2  0  0  0  0  0  0
  189.2230  174.3840  142.4030 C   0  0  0  0  0  2  0  0  0  0  0  0
  190.0850  175.3580  143.0480 N   0  0  0  0  0  2  0  0  0  0  0  0
  188.6680  176.3160  144.8110 N   0  0  0  0  0  0  0  0  0  0  0  0
  188.5010  174.9400  144.6920 O   0  0  0  0  0  0  0  0  0  0  0  0
  189.7540  175.4130  144.4670 C   0  0  1  0  0  0  0  0  0  0  0  0
  189.7370  177.3780  147.0060 O   0  0  0  0  0  0  0  0  0  0  0  0
  188.4990  176.6840  146.5110 S   0  0  0  0  0  0  0  0  0  0  0  0
  188.2590  175.4390  147.3220 O   0  0  0  0  0  0  0  0  0  0  0  0
  187.0990  177.7700  146.7300 C   0  0  0  0  0  2  0  0  0  0  0  0
  185.0150  177.5120  143.5110 C   0  0  0  0  0  2  0  0  0  0  0  0
  185.6950  177.0410  144.7920 C   0  0  0  0  0  2  0  0  0  0  0  0
  186.5150  178.1840  145.3880 C   0  0  0  0  0  3  0  0  0  0  0  0
  185.6340  179.4170  145.5750 C   0  0  0  0  0  2  0  0  0  0  0  0
  184.1290  178.6390  143.8060 N   0  0  0  0  0  2  0  0  0  0  0  0
  184.9450  179.7660  144.2550 C   0  0  0  0  0  2  0  0  0  0  0  0
  190.4610  174.0530  146.3030 O   0  0  0  0  0  0  0  0  0  0  0  0
  190.7810  174.9490  145.4730 C   0  0  0  0  0  0  0  0  0  0  0  0
  194.6840  176.7200  145.6420 C   0  0  0  0  0  3  0  0  0  0  0  0
  193.7340  177.1970  144.7340 C   0  0  0  0  0  3  0  0  0  0  0  0
  192.1230  175.5650  145.5480 C   0  0  0  0  0  0  0  0  0  0  0  0
  194.3580  175.6730  146.5070 C   0  0  0  0  0  3  0  0  0  0  0  0
  193.0820  175.0990  146.4620 C   0  0  0  0  0  3  0  0  0  0  0  0
  192.4590  176.6240  144.6890 C   0  0  0  0  0  3  0  0  0  0  0  0
  1 16  1  0  0  0  0
  2  1  2  0  0  0  0
  3 19  1  0  0  0  0
  5  9  1  1  0  0  0
  5 20  1  0  0  0  0
  6  7  1  0  0  0  0
  7  4  1  6  0  0  0
  7 12  1  0  0  0  0
 11 15  1  6  0  0  0
 12 10  1  1  0  0  0
 12  3  1  0  0  0  0
 13 19  1  0  0  0  0
 14 24  1  6  0  0  0
 14 21  1  0  0  0  0
 14  7  1  0  0  0  0
 16 10  1  0  0  0  0
 16 11  1  0  0  0  0
 16 17  1  1  0  0  0
 18 11  1  0  0  0  0
 19  8  1  6  0  0  0
 20 18  1  1  0  0  0
 20 13  1  0  0  0  0
 21 23  1  6  0  0  0
 21  5  1  0  0  0  0
 21  6  1  0  0  0  0
 22 23  1  0  0  0  0
 25 26  1  0  0  0  0
 26 24  1  0  0  0  0
 27 25  2  0  0  0  0
 29 28  1  6  0  0  0
 29 25  1  0  0  0  0
 30 34  2  0  0  0  0
 31 34  1  0  0  0  0
 31 29  1  0  0  0  0
 32 31  1  0  0  0  0
 33 32  2  0  0  0  0
 33 30  1  0  0  0  0
 35 36  2  0  0  0  0
 36  2  1  0  0  0  0
 37 36  1  0  0  0  0
 38 41  1  1  0  0  0
 38 40  1  0  0  0  0
 38 39  1  0  0  0  0
 39 37  1  6  0  0  0
 39 42  1  0  0  0  0
 40 43  1  0  0  0  0
 43 42  1  0  0  0  0
 43 44  1  1  0  0  0
 44 45  1  0  0  0  0
 45 46  1  0  0  0  0
 47 51  1  0  0  0  0
 48 47  1  0  0  0  0
 49 46  1  6  0  0  0
 49 48  1  0  0  0  0
 49 47  1  0  0  0  0
 49 61  1  0  0  0  0
 51 53  1  0  0  0  0
 51 50  2  0  0  0  0
 51 52  2  0  0  0  0
 54 58  1  0  0  0  0
 54 55  1  0  0  0  0
 55 56  1  0  0  0  0
 56 57  1  0  0  0  0
 56 53  1  0  0  0  0
 58 59  1  0  0  0  0
 59 57  1  0  0  0  0
 61 64  1  0  0  0  0
 61 60  2  0  0  0  0
 62 65  1  0  0  0  0
 63 62  2  0  0  0  0
 64 66  1  0  0  0  0
 66 65  2  0  0  0  0
 67 63  1  0  0  0  0
 67 64  2  0  0  0  0
M  END
>  <MODEL>
5

>  <REMARK>
 VINA RESULT:      -6.5      2.336      4.232
  Name = 
  18 active torsions:
  status: ('A' for Active; 'I' for Inactive)
    1  A    between atoms: C_3  and  C_30
    2  A    between atoms: C_3  and  S_31
    3  A    between atoms: N_5  and  C_53
    4  A    between atoms: C_10  and  C_53
    5  A    between atoms: C_13  and  O_60
    6  A    between atoms: N_16  and  S_31
    7  A    between atoms: C_17  and  C_55
    8  A    between atoms: N_21  and  C_32
    9  A    between atoms: C_25  and  C_42
   10  A    between atoms: C_25  and  N_46
   11  A    between atoms: C_32  and  O_60
   12  A    between atoms: C_39  and  C_48
   13  A    between atoms: C_40  and  C_54
   14  A    between atoms: C_42  and  C_52
   15  A    between atoms: C_44  and  N_46
   16  A    between atoms: C_44  and  C_54
   17  A    between atoms: C_48  and  N_63
   18  A    between atoms: C_51  and  C_65
                            x       y       z     vdW  Elec       q    Type
                         _______ _______ _______ _____ _____    ______ ____

>  <TORSDO>
F 18

$$$$
=
 OpenBabel11062422493D

 67 74  0  0  1  0  0  0  0  0999 V2000
  195.5200  173.5220  142.9120 C   0  0  0  0  0  3  0  0  0  0  0  0
  194.2310  173.5810  143.0380 N   0  0  0  0  0  0  0  0  0  0  0  0
  197.5710  170.1600  145.3890 C   0  0  0  0  0  2  0  0  0  0  0  0
  197.4980  169.3940  141.9670 C   0  0  0  0  0  1  0  0  0  0  0  0
  193.7700  169.9320  144.4250 C   0  0  1  0  0  3  0  0  0  0  0  0
  195.7310  168.7970  143.5190 O   0  0  0  0  0  0  0  0  0  0  0  0
  196.4430  169.8780  142.9570 C   0  0  1  0  0  0  0  0  0  0  0  0
  196.3110  168.1710  146.0090 O   0  0  0  0  0  1  0  0  0  0  0  0
  193.2450  168.8920  145.2020 O   0  0  0  0  0  1  0  0  0  0  0  0
  197.4380  172.2090  143.7840 C   0  0  0  0  0  2  0  0  0  0  0  0
  195.5640  173.0560  145.4040 C   0  0  2  0  0  3  0  0  0  0  0  0
  197.0480  170.7620  144.0710 C   0  0  2  0  0  3  0  0  0  0  0  0
  195.1720  170.2560  146.4800 C   0  0  0  0  0  2  0  0  0  0  0  0
  195.1680  170.4970  142.3760 C   0  0  2  0  0  3  0  0  0  0  0  0
  195.1700  174.2670  145.9790 O   0  0  0  0  0  1  0  0  0  0  0  0
  196.3970  173.3070  144.1080 C   0  0  2  0  0  0  0  0  0  0  0  0
  197.1410  174.4770  144.2920 O   0  0  0  0  0  1  0  0  0  0  0  0
  194.3140  172.1670  145.2550 C   0  0  0  0  0  2  0  0  0  0  0  0
  196.5110  169.5170  146.3160 C   0  0  2  0  0  3  0  0  0  0  0  0
  194.7000  170.7690  145.1960 N   0  0  2  0  0  0  0  0  0  0  0  0
  194.4910  169.3730  143.1670 C   0  0  2  0  0  0  0  0  0  0  0  0
  192.3090  168.7930  142.3080 O   0  0  0  0  0  1  0  0  0  0  0  0
  193.6390  168.3710  142.3750 C   0  0  0  0  0  2  0  0  0  0  0  0
  195.0610  170.3780  140.8500 C   0  0  0  0  0  2  0  0  0  0  0  0
  195.7410  171.7140  138.8190 C   0  0  0  0  0  0  0  0  0  0  0  0
  195.4820  171.6190  140.2220 N   0  0  0  0  0  2  0  0  0  0  0  0
  195.8570  170.6640  138.1270 O   0  0  0  0  0  0  0  0  0  0  0  0
  196.8380  172.9460  137.0250 N   0  0  0  0  0  1  0  0  0  0  0  0
  195.9740  173.0620  138.1920 C   0  0  2  0  0  3  0  0  0  0  0  0
  197.8850  175.0000  140.6120 C   0  0  0  0  0  3  0  0  0  0  0  0
  196.5500  174.0200  139.1320 N   0  0  0  0  0  0  0  0  0  0  0  0
  196.1180  175.2810  139.2920 C   0  0  0  0  0  3  0  0  0  0  0  0
  196.9260  175.9200  140.2140 C   0  0  0  0  0  3  0  0  0  0  0  0
  197.6310  173.8330  139.9160 C   0  0  0  0  0  3  0  0  0  0  0  0
  193.3950  174.9290  141.2180 C   0  0  0  0  0  2  0  0  0  0  0  0
  193.3270  173.8180  141.9490 C   0  0  0  0  0  0  0  0  0  0  0  0
  192.3440  172.8730  141.6380 O   0  0  0  0  0  0  0  0  0  0  0  0
  190.7900  171.7710  143.1030 C   0  0  2  0  0  3  0  0  0  0  0  0
  191.0240  172.9340  142.1680 C   0  0  2  0  0  3  0  0  0  0  0  0
  189.5280  171.1880  142.8480 O   0  0  0  0  0  0  0  0  0  0  0  0
  190.8510  172.2230  144.4860 N   0  0  0  0  0  1  0  0  0  0  0  0
  190.0020  172.7160  141.0940 C   0  0  0  0  0  2  0  0  0  0  0  0
  188.9320  171.9170  141.7990 C   0  0  2  0  0  3  0  0  0  0  0  0
  187.8630  172.8380  142.3740 C   0  0  0  0  0  2  0  0  0  0  0  0
  187.7970  174.1450  141.5990 C   0  0  0  0  0  2  0  0  0  0  0  0
  187.0220  175.1050  142.3650 N   0  0  0  0  0  2  0  0  0  0  0  0
  189.2100  176.1900  142.6200 N   0  0  0  0  0  0  0  0  0  0  0  0
  188.6130  176.4910  141.4000 O   0  0  0  0  0  0  0  0  0  0  0  0
  187.7740  176.3500  142.4580 C   0  0  1  0  0  0  0  0  0  0  0  0
  189.4900  178.8320  142.4320 O   0  0  0  0  0  0  0  0  0  0  0  0
  190.0820  177.6250  143.1050 S   0  0  0  0  0  0  0  0  0  0  0  0
  191.5440  177.5220  142.7630 O   0  0  0  0  0  0  0  0  0  0  0  0
  189.9360  177.8180  144.8740 C   0  0  0  0  0  2  0  0  0  0  0  0
  192.0840  175.3310  146.8660 C   0  0  0  0  0  2  0  0  0  0  0  0
  191.7660  176.5710  146.0370 C   0  0  0  0  0  2  0  0  0  0  0  0
  190.3040  176.5300  145.5950 C   0  0  0  0  0  3  0  0  0  0  0  0
  189.3960  176.3500  146.8080 C   0  0  0  0  0  2  0  0  0  0  0  0
  191.2240  175.2900  148.0490 N   0  0  0  0  0  2  0  0  0  0  0  0
  189.8390  175.1240  147.6090 C   0  0  0  0  0  2  0  0  0  0  0  0
  187.1150  178.6170  142.0780 O   0  0  0  0  0  0  0  0  0  0  0  0
  187.0440  177.6150  142.8430 C   0  0  0  0  0  0  0  0  0  0  0  0
  184.9340  177.9750  146.5600 C   0  0  0  0  0  3  0  0  0  0  0  0
  184.8880  179.0110  145.6230 C   0  0  0  0  0  3  0  0  0  0  0  0
  186.3070  177.7250  144.1200 C   0  0  0  0  0  0  0  0  0  0  0  0
  185.6580  176.8120  146.2810 C   0  0  0  0  0  3  0  0  0  0  0  0
  186.3390  176.6870  145.0640 C   0  0  0  0  0  3  0  0  0  0  0  0
  185.5690  178.8850  144.4070 C   0  0  0  0  0  3  0  0  0  0  0  0
  1  2  2  0  0  0  0
  1 16  1  0  0  0  0
  3 19  1  0  0  0  0
  5 20  1  0  0  0  0
  5  9  1  1  0  0  0
  7  4  1  6  0  0  0
  7  6  1  0  0  0  0
  7 12  1  0  0  0  0
 10 16  1  0  0  0  0
 11 15  1  6  0  0  0
 12 10  1  6  0  0  0
 12  3  1  0  0  0  0
 14 24  1  6  0  0  0
 14  7  1  0  0  0  0
 14 21  1  0  0  0  0
 16 17  1  1  0  0  0
 16 11  1  0  0  0  0
 18 11  1  0  0  0  0
 19  8  1  6  0  0  0
 19 13  1  0  0  0  0
 20 18  1  1  0  0  0
 20 13  1  0  0  0  0
 21 23  1  6  0  0  0
 21  6  1  0  0  0  0
 21  5  1  0  0  0  0
 22 23  1  0  0  0  0
 25 26  1  0  0  0  0
 26 24  1  0  0  0  0
 27 25  2  0  0  0  0
 29 28  1  6  0  0  0
 29 25  1  0  0  0  0
 29 31  1  0  0  0  0
 31 32  1  0  0  0  0
 31 34  1  0  0  0  0
 32 33  2  0  0  0  0
 33 30  1  0  0  0  0
 34 30  2  0  0  0  0
 35 36  2  0  0  0  0
 36  2  1  0  0  0  0
 37 36  1  0  0  0  0
 38 41  1  1  0  0  0
 39 37  1  6  0  0  0
 39 38  1  0  0  0  0
 40 38  1  0  0  0  0
 42 43  1  0  0  0  0
 42 39  1  0  0  0  0
 43 44  1  1  0  0  0
 43 40  1  0  0  0  0
 45 46  1  0  0  0  0
 45 44  1  0  0  0  0
 47 51  1  0  0  0  0
 48 49  1  0  0  0  0
 48 47  1  0  0  0  0
 49 46  1  1  0  0  0
 49 47  1  0  0  0  0
 49 61  1  0  0  0  0
 50 51  2  0  0  0  0
 51 53  1  0  0  0  0
 52 51  2  0  0  0  0
 53 56  1  0  0  0  0
 54 58  1  0  0  0  0
 55 54  1  0  0  0  0
 56 55  1  0  0  0  0
 56 57  1  0  0  0  0
 57 59  1  0  0  0  0
 59 58  1  0  0  0  0
 60 61  2  0  0  0  0
 61 64  1  0  0  0  0
 63 62  2  0  0  0  0
 64 67  2  0  0  0  0
 64 66  1  0  0  0  0
 65 62  1  0  0  0  0
 66 65  2  0  0  0  0
 67 63  1  0  0  0  0
M  END
>  <MODEL>
6

>  <REMARK>
 VINA RESULT:      -6.5      2.429      4.746
  Name = 
  18 active torsions:
  status: ('A' for Active; 'I' for Inactive)
    1  A    between atoms: C_3  and  C_30
    2  A    between atoms: C_3  and  S_31
    3  A    between atoms: N_5  and  C_53
    4  A    between atoms: C_10  and  C_53
    5  A    between atoms: C_13  and  O_60
    6  A    between atoms: N_16  and  S_31
    7  A    between atoms: C_17  and  C_55
    8  A    between atoms: N_21  and  C_32
    9  A    between atoms: C_25  and  C_42
   10  A    between atoms: C_25  and  N_46
   11  A    between atoms: C_32  and  O_60
   12  A    between atoms: C_39  and  C_48
   13  A    between atoms: C_40  and  C_54
   14  A    between atoms: C_42  and  C_52
   15  A    between atoms: C_44  and  N_46
   16  A    between atoms: C_44  and  C_54
   17  A    between atoms: C_48  and  N_63
   18  A    between atoms: C_51  and  C_65
                            x       y       z     vdW  Elec       q    Type
                         _______ _______ _______ _____ _____    ______ ____

>  <TORSDO>
F 18

$$$$
=
 OpenBabel11062422493D

 67 74  0  0  1  0  0  0  0  0999 V2000
  195.1050  174.0020  140.5980 C   0  0  0  0  0  3  0  0  0  0  0  0
  195.2720  174.0340  141.8830 N   0  0  0  0  0  0  0  0  0  0  0  0
  195.3660  175.3940  136.1670 C   0  0  0  0  0  2  0  0  0  0  0  0
  192.7700  173.0860  136.6540 C   0  0  0  0  0  1  0  0  0  0  0  0
  197.0960  172.0720  137.3500 C   0  0  1  0  0  3  0  0  0  0  0  0
  195.0440  172.4560  136.0870 O   0  0  0  0  0  0  0  0  0  0  0  0
  194.2430  173.1080  137.0490 C   0  0  1  0  0  0  0  0  0  0  0  0
  196.4940  173.9970  134.5210 O   0  0  0  0  0  1  0  0  0  0  0  0
  197.9400  171.6910  136.2990 O   0  0  0  0  0  1  0  0  0  0  0  0
  194.4080  175.2800  138.5870 C   0  0  0  0  0  2  0  0  0  0  0  0
  196.9190  175.2350  139.3250 C   0  0  2  0  0  3  0  0  0  0  0  0
  194.7610  174.5430  137.2980 C   0  0  2  0  0  3  0  0  0  0  0  0
  197.7590  174.3580  136.5540 C   0  0  0  0  0  2  0  0  0  0  0  0
  194.6850  172.1490  138.1590 C   0  0  2  0  0  3  0  0  0  0  0  0
  197.7070  175.8030  140.3300 O   0  0  0  0  0  1  0  0  0  0  0  0
  195.4180  175.2020  139.7560 C   0  0  2  0  0  0  0  0  0  0  0  0
  195.1670  176.3350  140.5370 O   0  0  0  0  0  1  0  0  0  0  0  0
  197.5490  173.8870  138.9260 C   0  0  0  0  0  2  0  0  0  0  0  0
  196.7030  174.8910  135.5710 C   0  0  2  0  0  3  0  0  0  0  0  0
  197.1400  173.5230  137.5820 N   0  0  2  0  0  0  0  0  0  0  0  0
  195.6320  171.6320  137.0700 C   0  0  2  0  0  0  0  0  0  0  0  0
  196.3590  169.3590  137.4490 O   0  0  0  0  0  1  0  0  0  0  0  0
  195.5090  170.1530  136.6760 C   0  0  0  0  0  2  0  0  0  0  0  0
  193.5940  171.1630  138.5980 C   0  0  0  0  0  2  0  0  0  0  0  0
  191.6510  171.5080  140.1710 C   0  0  0  0  0  0  0  0  0  0  0  0
  192.4070  171.8880  139.0180 N   0  0  0  0  0  2  0  0  0  0  0  0
  191.8460  170.3840  140.7110 O   0  0  0  0  0  0  0  0  0  0  0  0
  190.8430  173.8000  140.3510 N   0  0  0  0  0  1  0  0  0  0  0  0
  190.5560  172.4100  140.6760 C   0  0  2  0  0  3  0  0  0  0  0  0
  189.4330  171.8710  144.0990 C   0  0  0  0  0  3  0  0  0  0  0  0
  190.3470  172.2780  142.1160 N   0  0  0  0  0  0  0  0  0  0  0  0
  191.3150  172.3970  143.0380 C   0  0  0  0  0  3  0  0  0  0  0  0
  190.7780  172.1540  144.2880 C   0  0  0  0  0  3  0  0  0  0  0  0
  189.1980  171.9470  142.7390 C   0  0  0  0  0  3  0  0  0  0  0  0
  194.8160  171.7010  142.3020 C   0  0  0  0  0  2  0  0  0  0  0  0
  194.9630  172.9420  142.7610 C   0  0  0  0  0  0  0  0  0  0  0  0
  194.8080  173.1700  144.1320 O   0  0  0  0  0  0  0  0  0  0  0  0
  195.1400  175.3300  145.1310 C   0  0  2  0  0  3  0  0  0  0  0  0
  194.1340  174.3120  144.6500 C   0  0  2  0  0  3  0  0  0  0  0  0
  194.7520  175.8400  146.3900 O   0  0  0  0  0  0  0  0  0  0  0  0
  195.2440  176.4210  144.1710 N   0  0  0  0  0  1  0  0  0  0  0  0
  193.3750  173.9710  145.8950 C   0  0  0  0  0  2  0  0  0  0  0  0
  193.5450  175.2070  146.7470 C   0  0  2  0  0  3  0  0  0  0  0  0
  192.3880  176.1750  146.5280 C   0  0  0  0  0  2  0  0  0  0  0  0
  191.4300  176.1530  147.7080 C   0  0  0  0  0  2  0  0  0  0  0  0
  190.2770  175.3420  147.3590 N   0  0  0  0  0  2  0  0  0  0  0  0
  189.8130  175.6960  144.9730 N   0  0  0  0  0  0  0  0  0  0  0  0
  188.7130  175.1820  145.6520 O   0  0  0  0  0  0  0  0  0  0  0  0
  189.4960  176.0460  146.3480 C   0  0  1  0  0  0  0  0  0  0  0  0
  190.1050  176.8030  142.5690 O   0  0  0  0  0  0  0  0  0  0  0  0
  189.1780  176.7720  143.7520 S   0  0  0  0  0  0  0  0  0  0  0  0
  188.9970  178.1670  144.2880 O   0  0  0  0  0  0  0  0  0  0  0  0
  187.5840  176.1680  143.2240 C   0  0  0  0  0  2  0  0  0  0  0  0
  185.7570  178.1770  140.5030 C   0  0  0  0  0  2  0  0  0  0  0  0
  186.6920  177.1250  141.0910 C   0  0  0  0  0  2  0  0  0  0  0  0
  186.7540  177.2860  142.6100 C   0  0  0  0  0  3  0  0  0  0  0  0
  185.3450  177.2550  143.1960 C   0  0  0  0  0  2  0  0  0  0  0  0
  184.4130  178.0140  141.0610 N   0  0  0  0  0  2  0  0  0  0  0  0
  184.4690  178.2950  142.4950 C   0  0  0  0  0  2  0  0  0  0  0  0
  189.5150  178.3070  147.1250 O   0  0  0  0  0  0  0  0  0  0  0  0
  188.8120  177.3380  146.7260 C   0  0  0  0  0  0  0  0  0  0  0  0
  184.5390  177.6980  146.6040 C   0  0  0  0  0  3  0  0  0  0  0  0
  185.1380  176.4350  146.6030 C   0  0  0  0  0  3  0  0  0  0  0  0
  187.3390  177.4700  146.7000 C   0  0  0  0  0  0  0  0  0  0  0  0
  185.3320  178.8470  146.6580 C   0  0  0  0  0  3  0  0  0  0  0  0
  186.7270  178.7330  146.7080 C   0  0  0  0  0  3  0  0  0  0  0  0
  186.5320  176.3220  146.6540 C   0  0  0  0  0  3  0  0  0  0  0  0
  1  2  2  0  0  0  0
  2 36  1  0  0  0  0
  5  9  1  6  0  0  0
  5 20  1  0  0  0  0
  6  7  1  0  0  0  0
  6 21  1  0  0  0  0
  7  4  1  6  0  0  0
  7 12  1  0  0  0  0
  7 14  1  0  0  0  0
 10 16  1  0  0  0  0
 11 16  1  0  0  0  0
 11 15  1  1  0  0  0
 12  3  1  6  0  0  0
 12 10  1  0  0  0  0
 14 24  1  6  0  0  0
 16 17  1  1  0  0  0
 16  1  1  0  0  0  0
 18 11  1  0  0  0  0
 19  8  1  6  0  0  0
 19  3  1  0  0  0  0
 19 13  1  0  0  0  0
 20 13  1  6  0  0  0
 20 18  1  0  0  0  0
 21 23  1  6  0  0  0
 21  5  1  0  0  0  0
 21 14  1  0  0  0  0
 23 22  1  0  0  0  0
 24 26  1  0  0  0  0
 25 29  1  0  0  0  0
 25 27  2  0  0  0  0
 26 25  1  0  0  0  0
 29 28  1  1  0  0  0
 29 31  1  0  0  0  0
 30 33  1  0  0  0  0
 31 34  1  0  0  0  0
 31 32  1  0  0  0  0
 32 33  2  0  0  0  0
 34 30  2  0  0  0  0
 35 36  2  0  0  0  0
 36 37  1  0  0  0  0
 38 41  1  6  0  0  0
 38 40  1  0  0  0  0
 39 37  1  1  0  0  0
 39 38  1  0  0  0  0
 39 42  1  0  0  0  0
 40 43  1  0  0  0  0
 42 43  1  0  0  0  0
 43 44  1  6  0  0  0
 44 45  1  0  0  0  0
 46 45  1  0  0  0  0
 47 48  1  0  0  0  0
 47 49  1  0  0  0  0
 48 49  1  0  0  0  0
 49 61  1  1  0  0  0
 49 46  1  0  0  0  0
 50 51  2  0  0  0  0
 51 52  2  0  0  0  0
 51 47  1  0  0  0  0
 53 51  1  0  0  0  0
 54 58  1  0  0  0  0
 54 55  1  0  0  0  0
 55 56  1  0  0  0  0
 56 57  1  0  0  0  0
 56 53  1  0  0  0  0
 58 59  1  0  0  0  0
 59 57  1  0  0  0  0
 61 60  2  0  0  0  0
 62 65  1  0  0  0  0
 63 62  2  0  0  0  0
 63 67  1  0  0  0  0
 64 66  1  0  0  0  0
 64 61  1  0  0  0  0
 65 66  2  0  0  0  0
 67 64  2  0  0  0  0
M  END
>  <MODEL>
7

>  <REMARK>
 VINA RESULT:      -6.4      2.132      6.687
  Name = 
  18 active torsions:
  status: ('A' for Active; 'I' for Inactive)
    1  A    between atoms: C_3  and  C_30
    2  A    between atoms: C_3  and  S_31
    3  A    between atoms: N_5  and  C_53
    4  A    between atoms: C_10  and  C_53
    5  A    between atoms: C_13  and  O_60
    6  A    between atoms: N_16  and  S_31
    7  A    between atoms: C_17  and  C_55
    8  A    between atoms: N_21  and  C_32
    9  A    between atoms: C_25  and  C_42
   10  A    between atoms: C_25  and  N_46
   11  A    between atoms: C_32  and  O_60
   12  A    between atoms: C_39  and  C_48
   13  A    between atoms: C_40  and  C_54
   14  A    between atoms: C_42  and  C_52
   15  A    between atoms: C_44  and  N_46
   16  A    between atoms: C_44  and  C_54
   17  A    between atoms: C_48  and  N_63
   18  A    between atoms: C_51  and  C_65
                            x       y       z     vdW  Elec       q    Type
                         _______ _______ _______ _____ _____    ______ ____

>  <TORSDO>
F 18

$$$$
=
 OpenBabel11062422493D

 67 74  0  0  1  0  0  0  0  0999 V2000
  193.2290  171.4760  140.5410 C   0  0  0  0  0  3  0  0  0  0  0  0
  192.0840  171.5440  141.1430 N   0  0  0  0  0  0  0  0  0  0  0  0
  196.2170  171.3740  136.9770 C   0  0  0  0  0  2  0  0  0  0  0  0
  197.7490  170.4220  139.9850 C   0  0  0  0  0  1  0  0  0  0  0  0
  195.9850  174.5070  139.3330 C   0  0  1  0  0  3  0  0  0  0  0  0
  197.6340  172.7150  139.1980 O   0  0  0  0  0  0  0  0  0  0  0  0
  196.8630  171.5970  139.5840 C   0  0  1  0  0  0  0  0  0  0  0  0
  197.7440  173.2370  136.6200 O   0  0  0  0  0  1  0  0  0  0  0  0
  196.7000  175.5220  138.6840 O   0  0  0  0  0  1  0  0  0  0  0  0
  194.6180  170.3980  138.7880 C   0  0  0  0  0  2  0  0  0  0  0  0
  193.0900  172.4410  138.1990 C   0  0  2  0  0  3  0  0  0  0  0  0
  195.8620  171.2220  138.4670 C   0  0  2  0  0  3  0  0  0  0  0  0
  195.4380  173.8930  136.9630 C   0  0  0  0  0  2  0  0  0  0  0  0
  196.1820  172.3790  140.7120 C   0  0  2  0  0  3  0  0  0  0  0  0
  191.7270  172.6880  138.0190 O   0  0  0  0  0  1  0  0  0  0  0  0
  193.3070  171.1670  139.0760 C   0  0  2  0  0  0  0  0  0  0  0  0
  192.2790  170.2630  138.7880 O   0  0  0  0  0  1  0  0  0  0  0  0
  193.7510  173.7400  138.7000 C   0  0  0  0  0  2  0  0  0  0  0  0
  196.4220  172.8200  136.4650 C   0  0  2  0  0  3  0  0  0  0  0  0
  195.1680  173.7300  138.3890 N   0  0  2  0  0  0  0  0  0  0  0  0
  196.9460  173.5560  140.0980 C   0  0  2  0  0  0  0  0  0  0  0  0
  197.3950  175.5040  141.4550 O   0  0  0  0  0  1  0  0  0  0  0  0
  197.9390  174.2990  141.0040 C   0  0  0  0  0  2  0  0  0  0  0  0
  196.6390  171.9640  142.1170 C   0  0  0  0  0  2  0  0  0  0  0  0
  196.2960  169.8070  143.3830 C   0  0  0  0  0  0  0  0  0  0  0  0
  195.7820  170.9080  142.6290 N   0  0  0  0  0  2  0  0  0  0  0  0
  197.5390  169.5870  143.4100 O   0  0  0  0  0  0  0  0  0  0  0  0
  193.9670  169.1650  143.7020 N   0  0  0  0  0  1  0  0  0  0  0  0
  195.3450  168.8560  144.0590 C   0  0  2  0  0  3  0  0  0  0  0  0
  196.2390  169.2440  147.5690 C   0  0  0  0  0  3  0  0  0  0  0  0
  195.4860  168.8680  145.5130 N   0  0  0  0  0  0  0  0  0  0  0  0
  194.5500  168.4350  146.3710 C   0  0  0  0  0  3  0  0  0  0  0  0
  194.9900  168.6500  147.6640 C   0  0  0  0  0  3  0  0  0  0  0  0
  196.5160  169.3750  146.2210 C   0  0  0  0  0  3  0  0  0  0  0  0
  190.7910  171.5200  143.1820 C   0  0  0  0  0  2  0  0  0  0  0  0
  191.9270  171.8000  142.5470 C   0  0  0  0  0  0  0  0  0  0  0  0
  192.9810  172.3590  143.2770 O   0  0  0  0  0  0  0  0  0  0  0  0
  194.1800  174.0310  144.5180 C   0  0  2  0  0  3  0  0  0  0  0  0
  193.1150  173.7620  143.4830 C   0  0  2  0  0  3  0  0  0  0  0  0
  193.7290  175.0050  145.4380 O   0  0  0  0  0  0  0  0  0  0  0  0
  195.4000  174.4950  143.8700 N   0  0  0  0  0  1  0  0  0  0  0  0
  191.8800  174.3330  144.1090 C   0  0  0  0  0  2  0  0  0  0  0  0
  192.4290  175.3830  145.0470 C   0  0  2  0  0  3  0  0  0  0  0  0
  192.4880  176.7420  144.3600 C   0  0  0  0  0  2  0  0  0  0  0  0
  191.5270  176.7970  143.1820 C   0  0  0  0  0  2  0  0  0  0  0  0
  190.4840  177.7650  143.4740 N   0  0  0  0  0  2  0  0  0  0  0  0
  188.2400  178.2600  142.6060 N   0  0  0  0  0  0  0  0  0  0  0  0
  189.0220  177.5750  141.6820 O   0  0  0  0  0  0  0  0  0  0  0  0
  189.2120  177.2470  142.9860 C   0  0  1  0  0  0  0  0  0  0  0  0
  186.5530  176.7330  141.2240 O   0  0  0  0  0  0  0  0  0  0  0  0
  186.6040  177.6920  142.3810 S   0  0  0  0  0  0  0  0  0  0  0  0
  185.6550  178.8340  142.1310 O   0  0  0  0  0  0  0  0  0  0  0  0
  186.0770  176.8450  143.8600 C   0  0  0  0  0  2  0  0  0  0  0  0
  184.7270  178.7840  146.8910 C   0  0  0  0  0  2  0  0  0  0  0  0
  184.6790  177.9460  145.6180 C   0  0  0  0  0  2  0  0  0  0  0  0
  186.0910  177.7810  145.0590 C   0  0  0  0  0  3  0  0  0  0  0  0
  187.0160  177.2170  146.1340 C   0  0  0  0  0  2  0  0  0  0  0  0
  185.5670  178.1220  147.8900 N   0  0  0  0  0  2  0  0  0  0  0  0
  186.9410  178.0860  147.3910 C   0  0  0  0  0  2  0  0  0  0  0  0
  188.6530  175.5220  144.5440 O   0  0  0  0  0  0  0  0  0  0  0  0
  188.8220  175.8290  143.3320 C   0  0  0  0  0  0  0  0  0  0  0  0
  188.4700  172.7630  140.3530 C   0  0  0  0  0  3  0  0  0  0  0  0
  187.5230  172.8610  141.3760 C   0  0  0  0  0  3  0  0  0  0  0  0
  188.6990  174.7850  142.2920 C   0  0  0  0  0  0  0  0  0  0  0  0
  189.5270  173.6750  140.2910 C   0  0  0  0  0  3  0  0  0  0  0  0
  189.6400  174.6830  141.2550 C   0  0  0  0  0  3  0  0  0  0  0  0
  187.6360  173.8690  142.3390 C   0  0  0  0  0  3  0  0  0  0  0  0
  1  2  2  0  0  0  0
  2 36  1  0  0  0  0
  5  9  1  6  0  0  0
  5 21  1  0  0  0  0
  6  7  1  0  0  0  0
  6 21  1  0  0  0  0
  7  4  1  1  0  0  0
  7 14  1  0  0  0  0
 10 16  1  0  0  0  0
 11 15  1  1  0  0  0
 11 18  1  0  0  0  0
 11 16  1  0  0  0  0
 12  3  1  6  0  0  0
 12 10  1  0  0  0  0
 12  7  1  0  0  0  0
 14 24  1  1  0  0  0
 16 17  1  6  0  0  0
 16  1  1  0  0  0  0
 19  8  1  1  0  0  0
 19 13  1  0  0  0  0
 19  3  1  0  0  0  0
 20 13  1  6  0  0  0
 20 18  1  0  0  0  0
 20  5  1  0  0  0  0
 21 14  1  0  0  0  0
 21 23  1  1  0  0  0
 23 22  1  0  0  0  0
 24 26  1  0  0  0  0
 25 27  2  0  0  0  0
 25 29  1  0  0  0  0
 26 25  1  0  0  0  0
 29 28  1  1  0  0  0
 29 31  1  0  0  0  0
 30 33  1  0  0  0  0
 31 34  1  0  0  0  0
 31 32  1  0  0  0  0
 32 33  2  0  0  0  0
 34 30  2  0  0  0  0
 36 35  2  0  0  0  0
 36 37  1  0  0  0  0
 38 41  1  6  0  0  0
 38 40  1  0  0  0  0
 39 37  1  1  0  0  0
 39 42  1  0  0  0  0
 39 38  1  0  0  0  0
 42 43  1  0  0  0  0
 43 44  1  6  0  0  0
 43 40  1  0  0  0  0
 45 46  1  0  0  0  0
 45 44  1  0  0  0  0
 47 49  1  0  0  0  0
 48 47  1  0  0  0  0
 48 49  1  0  0  0  0
 49 61  1  1  0  0  0
 49 46  1  0  0  0  0
 50 51  2  0  0  0  0
 51 47  1  0  0  0  0
 51 53  1  0  0  0  0
 52 51  2  0  0  0  0
 53 56  1  0  0  0  0
 54 58  1  0  0  0  0
 55 54  1  0  0  0  0
 56 55  1  0  0  0  0
 56 57  1  0  0  0  0
 57 59  1  0  0  0  0
 59 58  1  0  0  0  0
 61 60  2  0  0  0  0
 62 63  1  0  0  0  0
 63 67  2  0  0  0  0
 64 67  1  0  0  0  0
 64 61  1  0  0  0  0
 65 62  2  0  0  0  0
 65 66  1  0  0  0  0
 66 64  2  0  0  0  0
M  END
>  <MODEL>
8

>  <REMARK>
 VINA RESULT:      -6.4      2.248      6.285
  Name = 
  18 active torsions:
  status: ('A' for Active; 'I' for Inactive)
    1  A    between atoms: C_3  and  C_30
    2  A    between atoms: C_3  and  S_31
    3  A    between atoms: N_5  and  C_53
    4  A    between atoms: C_10  and  C_53
    5  A    between atoms: C_13  and  O_60
    6  A    between atoms: N_16  and  S_31
    7  A    between atoms: C_17  and  C_55
    8  A    between atoms: N_21  and  C_32
    9  A    between atoms: C_25  and  C_42
   10  A    between atoms: C_25  and  N_46
   11  A    between atoms: C_32  and  O_60
   12  A    between atoms: C_39  and  C_48
   13  A    between atoms: C_40  and  C_54
   14  A    between atoms: C_42  and  C_52
   15  A    between atoms: C_44  and  N_46
   16  A    between atoms: C_44  and  C_54
   17  A    between atoms: C_48  and  N_63
   18  A    between atoms: C_51  and  C_65
                            x       y       z     vdW  Elec       q    Type
                         _______ _______ _______ _____ _____    ______ ____

>  <TORSDO>
F 18

$$$$
=
 OpenBabel11062422493D

 67 74  0  0  1  0  0  0  0  0999 V2000
  192.7650  171.5710  141.1460 C   0  0  0  0  0  3  0  0  0  0  0  0
  192.3890  171.7240  142.3760 N   0  0  0  0  0  0  0  0  0  0  0  0
  192.4080  171.6800  136.5090 C   0  0  0  0  0  2  0  0  0  0  0  0
  195.3310  170.0440  137.5490 C   0  0  0  0  0  1  0  0  0  0  0  0
  194.5120  174.3760  138.4400 C   0  0  1  0  0  3  0  0  0  0  0  0
  195.1980  172.4320  137.1360 O   0  0  0  0  0  0  0  0  0  0  0  0
  194.6850  171.3760  137.9190 C   0  0  1  0  0  0  0  0  0  0  0  0
  193.6280  173.3610  135.2380 O   0  0  0  0  0  1  0  0  0  0  0  0
  194.7840  175.3830  137.5060 O   0  0  0  0  0  1  0  0  0  0  0  0
  192.3170  170.6310  138.8930 C   0  0  0  0  0  2  0  0  0  0  0  0
  191.2750  172.9250  139.6040 C   0  0  2  0  0  3  0  0  0  0  0  0
  193.1430  171.3270  137.8150 C   0  0  2  0  0  3  0  0  0  0  0  0
  192.3840  174.2460  137.1180 C   0  0  0  0  0  2  0  0  0  0  0  0
  195.1410  172.0390  139.2230 C   0  0  2  0  0  3  0  0  0  0  0  0
  190.2490  173.3750  140.4390 O   0  0  0  0  0  1  0  0  0  0  0  0
  191.7570  171.5050  140.0400 C   0  0  2  0  0  0  0  0  0  0  0  0
  190.6490  170.8040  140.5290 O   0  0  0  0  0  1  0  0  0  0  0  0
  192.3530  174.0240  139.5350 C   0  0  0  0  0  2  0  0  0  0  0  0
  192.5080  173.1530  136.0430 C   0  0  2  0  0  3  0  0  0  0  0  0
  193.1330  173.8820  138.3190 N   0  0  2  0  0  0  0  0  0  0  0  0
  195.5060  173.1930  138.2830 C   0  0  2  0  0  0  0  0  0  0  0  0
  197.2520  174.5160  139.3040 O   0  0  0  0  0  1  0  0  0  0  0  0
  196.9760  173.6360  138.2540 C   0  0  0  0  0  2  0  0  0  0  0  0
  196.3310  171.3370  139.8910 C   0  0  0  0  0  2  0  0  0  0  0  0
  196.7490  169.5970  141.6700 C   0  0  0  0  0  0  0  0  0  0  0  0
  195.8620  170.4470  140.9390 N   0  0  0  0  0  2  0  0  0  0  0  0
  197.9270  169.4100  141.2570 O   0  0  0  0  0  0  0  0  0  0  0  0
  194.8250  168.5480  142.7360 N   0  0  0  0  0  1  0  0  0  0  0  0
  196.2430  168.8500  142.8760 C   0  0  2  0  0  3  0  0  0  0  0  0
  196.5260  170.1550  146.2650 C   0  0  0  0  0  3  0  0  0  0  0  0
  196.4650  169.5850  144.1180 N   0  0  0  0  0  0  0  0  0  0  0  0
  197.1820  170.7150  144.2160 C   0  0  0  0  0  3  0  0  0  0  0  0
  197.2350  171.1020  145.5420 C   0  0  0  0  0  3  0  0  0  0  0  0
  196.0670  169.2210  145.3550 C   0  0  0  0  0  3  0  0  0  0  0  0
  193.0210  171.1120  144.6240 C   0  0  0  0  0  2  0  0  0  0  0  0
  193.2890  171.7620  143.4940 C   0  0  0  0  0  0  0  0  0  0  0  0
  194.4770  172.4960  143.4100 O   0  0  0  0  0  0  0  0  0  0  0  0
  195.9850  174.2060  144.1700 C   0  0  2  0  0  3  0  0  0  0  0  0
  194.5630  173.8650  143.7930 C   0  0  2  0  0  3  0  0  0  0  0  0
  196.0040  174.9630  145.3620 O   0  0  0  0  0  0  0  0  0  0  0  0
  196.6180  174.9630  143.0980 N   0  0  0  0  0  1  0  0  0  0  0  0
  193.8060  174.1180  145.0600 C   0  0  0  0  0  2  0  0  0  0  0  0
  194.6670  175.1340  145.7740 C   0  0  2  0  0  3  0  0  0  0  0  0
  194.2170  176.5510  145.4390 C   0  0  0  0  0  2  0  0  0  0  0  0
  193.2190  176.5470  144.2910 C   0  0  0  0  0  2  0  0  0  0  0  0
  192.1860  177.5300  144.5660 N   0  0  0  0  0  2  0  0  0  0  0  0
  190.3320  176.6280  145.9010 N   0  0  0  0  0  0  0  0  0  0  0  0
  189.9280  177.6750  145.0800 O   0  0  0  0  0  0  0  0  0  0  0  0
  190.8910  176.8600  144.5790 C   0  0  1  0  0  0  0  0  0  0  0  0
  188.5920  175.2830  147.4020 O   0  0  0  0  0  0  0  0  0  0  0  0
  188.9900  175.5120  145.9700 S   0  0  0  0  0  0  0  0  0  0  0  0
  189.3340  174.1960  145.3260 O   0  0  0  0  0  0  0  0  0  0  0  0
  187.6070  176.2180  145.0900 C   0  0  0  0  0  2  0  0  0  0  0  0
  186.2120  178.3310  147.9820 C   0  0  0  0  0  2  0  0  0  0  0  0
  187.2650  177.6680  147.0990 C   0  0  0  0  0  2  0  0  0  0  0  0
  186.5790  176.7870  146.0560 C   0  0  0  0  0  3  0  0  0  0  0  0
  185.5480  177.6020  145.2800 C   0  0  0  0  0  2  0  0  0  0  0  0
  185.3240  179.1560  147.1610 N   0  0  0  0  0  2  0  0  0  0  0  0
  184.5830  178.2800  146.2550 C   0  0  0  0  0  2  0  0  0  0  0  0
  191.1340  175.0540  143.0320 O   0  0  0  0  0  0  0  0  0  0  0  0
  190.4660  176.0720  143.3620 C   0  0  0  0  0  0  0  0  0  0  0  0
  187.1540  177.3490  140.9540 C   0  0  0  0  0  3  0  0  0  0  0  0
  188.0010  178.2930  141.5420 C   0  0  0  0  0  3  0  0  0  0  0  0
  189.3320  176.5040  142.5180 C   0  0  0  0  0  0  0  0  0  0  0  0
  187.3940  175.9850  141.1400 C   0  0  0  0  0  3  0  0  0  0  0  0
  188.4800  175.5640  141.9170 C   0  0  0  0  0  3  0  0  0  0  0  0
  189.0860  177.8720  142.3180 C   0  0  0  0  0  3  0  0  0  0  0  0
  1  2  2  0  0  0  0
  2 36  1  0  0  0  0
  5  9  1  6  0  0  0
  6  7  1  0  0  0  0
  6 21  1  0  0  0  0
  7  4  1  6  0  0  0
  7 14  1  0  0  0  0
 10 16  1  0  0  0  0
 11 16  1  0  0  0  0
 11 15  1  1  0  0  0
 12  3  1  6  0  0  0
 12  7  1  0  0  0  0
 12 10  1  0  0  0  0
 14 24  1  6  0  0  0
 16 17  1  1  0  0  0
 16  1  1  0  0  0  0
 18 11  1  0  0  0  0
 19  8  1  1  0  0  0
 19  3  1  0  0  0  0
 19 13  1  0  0  0  0
 20 13  1  6  0  0  0
 20  5  1  0  0  0  0
 20 18  1  0  0  0  0
 21 23  1  1  0  0  0
 21  5  1  0  0  0  0
 21 14  1  0  0  0  0
 23 22  1  0  0  0  0
 24 26  1  0  0  0  0
 25 29  1  0  0  0  0
 26 25  1  0  0  0  0
 27 25  2  0  0  0  0
 29 28  1  6  0  0  0
 29 31  1  0  0  0  0
 31 32  1  0  0  0  0
 31 34  1  0  0  0  0
 32 33  2  0  0  0  0
 33 30  1  0  0  0  0
 34 30  2  0  0  0  0
 36 35  2  0  0  0  0
 37 36  1  0  0  0  0
 38 41  1  6  0  0  0
 38 40  1  0  0  0  0
 39 37  1  1  0  0  0
 39 38  1  0  0  0  0
 39 42  1  0  0  0  0
 40 43  1  0  0  0  0
 42 43  1  0  0  0  0
 43 44  1  6  0  0  0
 45 46  1  0  0  0  0
 45 44  1  0  0  0  0
 46 49  1  0  0  0  0
 47 51  1  0  0  0  0
 48 47  1  0  0  0  0
 49 61  1  6  0  0  0
 49 48  1  0  0  0  0
 49 47  1  0  0  0  0
 51 50  2  0  0  0  0
 52 51  2  0  0  0  0
 53 51  1  0  0  0  0
 53 56  1  0  0  0  0
 55 54  1  0  0  0  0
 56 55  1  0  0  0  0
 57 56  1  0  0  0  0
 57 59  1  0  0  0  0
 58 54  1  0  0  0  0
 59 58  1  0  0  0  0
 60 61  2  0  0  0  0
 62 65  2  0  0  0  0
 62 63  1  0  0  0  0
 63 67  2  0  0  0  0
 64 61  1  0  0  0  0
 65 66  1  0  0  0  0
 66 64  2  0  0  0  0
 67 64  1  0  0  0  0
M  END
>  <MODEL>
9

>  <REMARK>
 VINA RESULT:      -6.4      2.216      6.096
  Name = 
  18 active torsions:
  status: ('A' for Active; 'I' for Inactive)
    1  A    between atoms: C_3  and  C_30
    2  A    between atoms: C_3  and  S_31
    3  A    between atoms: N_5  and  C_53
    4  A    between atoms: C_10  and  C_53
    5  A    between atoms: C_13  and  O_60
    6  A    between atoms: N_16  and  S_31
    7  A    between atoms: C_17  and  C_55
    8  A    between atoms: N_21  and  C_32
    9  A    between atoms: C_25  and  C_42
   10  A    between atoms: C_25  and  N_46
   11  A    between atoms: C_32  and  O_60
   12  A    between atoms: C_39  and  C_48
   13  A    between atoms: C_40  and  C_54
   14  A    between atoms: C_42  and  C_52
   15  A    between atoms: C_44  and  N_46
   16  A    between atoms: C_44  and  C_54
   17  A    between atoms: C_48  and  N_63
   18  A    between atoms: C_51  and  C_65
                            x       y       z     vdW  Elec       q    Type
                         _______ _______ _______ _____ _____    ______ ____

>  <TORSDO>
F 18

$$$$
