=
 OpenBabel11062423103D

 28 29  0  0  1  0  0  0  0  0999 V2000
  190.5500  176.3940  147.0800 C   0  0  0  0  0  3  0  0  0  0  0  0
  192.9480  176.5120  146.9280 O   0  0  0  0  0  1  0  0  0  0  0  0
  190.5450  174.0660  145.5140 C   0  0  0  0  0  0  0  0  0  0  0  0
  193.0550  174.1470  145.3270 C   0  0  0  0  0  1  0  0  0  0  0  0
  191.7610  174.7020  145.8260 C   0  0  0  0  0  0  0  0  0  0  0  0
  189.3430  174.6060  145.9930 C   0  0  0  0  0  3  0  0  0  0  0  0
  191.7570  175.8690  146.6110 C   0  0  0  0  0  0  0  0  0  0  0  0
  189.3410  175.7660  146.7770 C   0  0  0  0  0  0  0  0  0  0  0  0
  190.5400  172.8800  144.7090 N   0  0  0  0  0  2  0  0  0  0  0  0
  189.7960  172.7520  143.4600 C   0  0  0  0  0  2  0  0  0  0  0  0
  190.3680  173.6790  142.3960 C   0  0  0  0  0  2  0  0  0  0  0  0
  188.0520  174.1910  142.1520 O   0  0  0  0  0  1  0  0  0  0  0  0
  189.3330  174.6950  141.9300 C   0  0  1  0  0  3  0  0  0  0  0  0
  188.3870  176.8850  143.1120 C   0  0  1  0  0  3  0  0  0  0  0  0
  190.6600  176.4620  142.9490 N   0  0  0  0  0  0  0  0  0  0  0  0
  189.5010  176.0030  142.6390 C   0  0  0  0  0  0  0  0  0  0  0  0
  189.1550  178.0040  143.8110 C   0  0  0  0  0  2  0  0  0  0  0  0
  190.5140  177.6420  143.6270 O   0  0  0  0  0  0  0  0  0  0  0  0
  187.6290  177.4650  141.9320 C   0  0  0  0  0  1  0  0  0  0  0  0
  188.1500  176.3080  147.2580 O   0  0  0  0  0  0  0  0  0  0  0  0
  187.0460  176.4380  146.4440 N   0  0  0  0  0  2  0  0  0  0  0  0
  185.9010  177.7580  147.9800 O   0  0  0  0  0  0  0  0  0  0  0  0
  185.9040  177.1870  146.8580 C   0  0  0  0  0  0  0  0  0  0  0  0
  184.7850  177.2960  146.0310 O   0  0  0  0  0  0  0  0  0  0  0  0
  184.2190  178.5510  145.6700 C   0  0  0  0  0  2  0  0  0  0  0  0
  184.6670  178.9620  144.3030 C   0  0  0  0  0  0  0  0  0  0  0  0
  184.1670  178.2370  143.1000 C   0  0  0  0  0  1  0  0  0  0  0  0
  185.5760  179.9210  144.1650 C   0  0  0  0  0  2  0  0  0  0  0  0
  3  5  2  0  0  0  0
  3  6  1  0  0  0  0
  4  5  1  0  0  0  0
  5  7  1  0  0  0  0
  6  8  2  0  0  0  0
  7  2  1  0  0  0  0
  7  1  2  0  0  0  0
  8  1  1  0  0  0  0
  8 20  1  0  0  0  0
  9  3  1  0  0  0  0
 10  9  1  0  0  0  0
 11 10  1  0  0  0  0
 13 12  1  1  0  0  0
 13 11  1  0  0  0  0
 13 16  1  0  0  0  0
 14 19  1  6  0  0  0
 14 17  1  0  0  0  0
 15 18  1  0  0  0  0
 16 15  2  0  0  0  0
 16 14  1  0  0  0  0
 18 17  1  0  0  0  0
 21 23  1  0  0  0  0
 21 20  1  0  0  0  0
 23 22  2  0  0  0  0
 24 23  1  0  0  0  0
 25 24  1  0  0  0  0
 26 25  1  0  0  0  0
 27 26  1  0  0  0  0
 28 26  2  0  0  0  0
M  END
>  <MODEL>
1

>  <REMARK>
 VINA RESULT:      -6.0      0.000      0.000
  Name = 
  10 active torsions:
  status: ('A' for Active; 'I' for Inactive)
    1  A    between atoms: N_2  and  O_17
    2  A    between atoms: C_3  and  C_22
    3  A    between atoms: N_4  and  C_6
    4  A    between atoms: N_4  and  C_10
    5  A    between atoms: C_6  and  C_7
    6  A    between atoms: C_7  and  C_25
    7  A    between atoms: C_12  and  O_24
    8  A    between atoms: C_16  and  C_25
    9  A    between atoms: O_17  and  C_28
   10  A    between atoms: C_22  and  O_24
                            x       y       z     vdW  Elec       q    Type
                         _______ _______ _______ _____ _____    ______ ____

>  <TORSDO>
F 10

$$$$
=
 OpenBabel11062423103D

 28 29  0  0  1  0  0  0  0  0999 V2000
  187.4830  176.0390  141.5140 C   0  0  0  0  0  3  0  0  0  0  0  0
  188.0810  173.7180  141.3000 O   0  0  0  0  0  1  0  0  0  0  0  0
  189.9510  176.5850  142.7300 C   0  0  0  0  0  0  0  0  0  0  0  0
  190.6240  174.1670  142.5270 C   0  0  0  0  0  1  0  0  0  0  0  0
  189.6430  175.2750  142.3190 C   0  0  0  0  0  0  0  0  0  0  0  0
  189.0150  177.6080  142.5260 C   0  0  0  0  0  3  0  0  0  0  0  0
  188.4040  175.0070  141.7110 C   0  0  0  0  0  0  0  0  0  0  0  0
  187.7830  177.3410  141.9170 C   0  0  0  0  0  0  0  0  0  0  0  0
  191.2100  176.8640  143.3570 N   0  0  0  0  0  2  0  0  0  0  0  0
  191.3400  177.4030  144.7070 C   0  0  0  0  0  2  0  0  0  0  0  0
  190.8370  176.4000  145.7370 C   0  0  0  0  0  2  0  0  0  0  0  0
  191.3020  175.3980  147.8510 O   0  0  0  0  0  1  0  0  0  0  0  0
  191.8640  176.1740  146.8380 C   0  0  1  0  0  3  0  0  0  0  0  0
  194.4970  176.0070  146.4740 C   0  0  1  0  0  3  0  0  0  0  0  0
  193.0410  174.3900  145.6740 N   0  0  0  0  0  0  0  0  0  0  0  0
  193.0950  175.5090  146.3040 C   0  0  0  0  0  0  0  0  0  0  0  0
  195.3020  174.8970  145.8000 C   0  0  0  0  0  2  0  0  0  0  0  0
  194.3090  173.9930  145.3450 O   0  0  0  0  0  0  0  0  0  0  0  0
  194.6990  177.3020  145.7090 C   0  0  0  0  0  1  0  0  0  0  0  0
  186.8470  178.3540  141.7090 O   0  0  0  0  0  0  0  0  0  0  0  0
  186.3210  179.0650  142.7650 N   0  0  0  0  0  2  0  0  0  0  0  0
  184.3720  177.7940  142.8240 O   0  0  0  0  0  0  0  0  0  0  0  0
  185.0370  178.7500  143.3030 C   0  0  0  0  0  0  0  0  0  0  0  0
  184.5070  179.4910  144.3610 O   0  0  0  0  0  0  0  0  0  0  0  0
  183.9270  178.8800  145.5090 C   0  0  0  0  0  2  0  0  0  0  0  0
  184.9820  178.2830  146.3830 C   0  0  0  0  0  0  0  0  0  0  0  0
  185.1740  176.8050  146.4260 C   0  0  0  0  0  1  0  0  0  0  0  0
  185.6960  179.0640  147.1870 C   0  0  0  0  0  2  0  0  0  0  0  0
  1  7  2  0  0  0  0
  1  8  1  0  0  0  0
  2  7  1  0  0  0  0
  3  9  1  0  0  0  0
  5  4  1  0  0  0  0
  5  3  2  0  0  0  0
  6  3  1  0  0  0  0
  7  5  1  0  0  0  0
  8  6  2  0  0  0  0
  9 10  1  0  0  0  0
 10 11  1  0  0  0  0
 11 13  1  0  0  0  0
 13 12  1  1  0  0  0
 14 19  1  6  0  0  0
 15 16  2  0  0  0  0
 16 14  1  0  0  0  0
 16 13  1  0  0  0  0
 17 14  1  0  0  0  0
 18 15  1  0  0  0  0
 18 17  1  0  0  0  0
 20  8  1  0  0  0  0
 20 21  1  0  0  0  0
 21 23  1  0  0  0  0
 22 23  2  0  0  0  0
 23 24  1  0  0  0  0
 24 25  1  0  0  0  0
 25 26  1  0  0  0  0
 26 27  1  0  0  0  0
 26 28  2  0  0  0  0
M  END
>  <MODEL>
2

>  <REMARK>
 VINA RESULT:      -5.9      2.161      5.187
  Name = 
  10 active torsions:
  status: ('A' for Active; 'I' for Inactive)
    1  A    between atoms: N_2  and  O_17
    2  A    between atoms: C_3  and  C_22
    3  A    between atoms: N_4  and  C_6
    4  A    between atoms: N_4  and  C_10
    5  A    between atoms: C_6  and  C_7
    6  A    between atoms: C_7  and  C_25
    7  A    between atoms: C_12  and  O_24
    8  A    between atoms: C_16  and  C_25
    9  A    between atoms: O_17  and  C_28
   10  A    between atoms: C_22  and  O_24
                            x       y       z     vdW  Elec       q    Type
                         _______ _______ _______ _____ _____    ______ ____

>  <TORSDO>
F 10

$$$$
=
 OpenBabel11062423103D

 28 29  0  0  1  0  0  0  0  0999 V2000
  186.3760  177.0750  147.2910 C   0  0  0  0  0  3  0  0  0  0  0  0
  184.4470  178.4690  147.6420 O   0  0  0  0  0  1  0  0  0  0  0  0
  186.1430  177.4130  144.5160 C   0  0  0  0  0  0  0  0  0  0  0  0
  184.1200  178.8800  144.8320 C   0  0  0  0  0  1  0  0  0  0  0  0
  185.2250  178.0360  145.3810 C   0  0  0  0  0  0  0  0  0  0  0  0
  187.1700  176.6260  145.0540 C   0  0  0  0  0  3  0  0  0  0  0  0
  185.3460  177.8630  146.7710 C   0  0  0  0  0  0  0  0  0  0  0  0
  187.2920  176.4560  146.4390 C   0  0  0  0  0  0  0  0  0  0  0  0
  186.0210  177.5800  143.0980 N   0  0  0  0  0  2  0  0  0  0  0  0
  186.7980  178.5430  142.3250 C   0  0  0  0  0  2  0  0  0  0  0  0
  187.9320  177.8480  141.5830 C   0  0  0  0  0  2  0  0  0  0  0  0
  187.3520  176.1970  139.9630 O   0  0  0  0  0  1  0  0  0  0  0  0
  187.6080  176.3840  141.3210 C   0  0  1  0  0  3  0  0  0  0  0  0
  188.9370  174.0770  141.3200 C   0  0  1  0  0  3  0  0  0  0  0  0
  189.6590  175.9100  142.5420 N   0  0  0  0  0  0  0  0  0  0  0  0
  188.7290  175.4930  141.7600 C   0  0  0  0  0  0  0  0  0  0  0  0
  190.2500  173.7270  142.0190 C   0  0  0  0  0  2  0  0  0  0  0  0
  190.5710  174.9080  142.7360 O   0  0  0  0  0  0  0  0  0  0  0  0
  187.8350  173.1830  141.8570 C   0  0  0  0  0  1  0  0  0  0  0  0
  188.3120  175.6760  146.9820 O   0  0  0  0  0  0  0  0  0  0  0  0
  189.3320  175.1880  146.1940 N   0  0  0  0  0  2  0  0  0  0  0  0
  190.8890  175.2750  147.9220 O   0  0  0  0  0  0  0  0  0  0  0  0
  190.6480  175.0050  146.7160 C   0  0  0  0  0  0  0  0  0  0  0  0
  191.6770  174.5270  145.9020 O   0  0  0  0  0  0  0  0  0  0  0  0
  193.0520  174.7510  146.1960 C   0  0  0  0  0  2  0  0  0  0  0  0
  193.4640  176.1290  145.7860 C   0  0  0  0  0  0  0  0  0  0  0  0
  193.1740  176.6210  144.4090 C   0  0  0  0  0  1  0  0  0  0  0  0
  194.1630  176.8870  146.6240 C   0  0  0  0  0  2  0  0  0  0  0  0
  3  6  2  0  0  0  0
  3  5  1  0  0  0  0
  4  5  1  0  0  0  0
  5  7  2  0  0  0  0
  6  8  1  0  0  0  0
  7  1  1  0  0  0  0
  7  2  1  0  0  0  0
  8 20  1  0  0  0  0
  8  1  2  0  0  0  0
  9  3  1  0  0  0  0
 10  9  1  0  0  0  0
 11 10  1  0  0  0  0
 13 12  1  6  0  0  0
 13 11  1  0  0  0  0
 13 16  1  0  0  0  0
 14 16  1  0  0  0  0
 14 19  1  1  0  0  0
 14 17  1  0  0  0  0
 15 18  1  0  0  0  0
 16 15  2  0  0  0  0
 17 18  1  0  0  0  0
 21 23  1  0  0  0  0
 21 20  1  0  0  0  0
 23 22  2  0  0  0  0
 24 25  1  0  0  0  0
 24 23  1  0  0  0  0
 26 25  1  0  0  0  0
 26 28  2  0  0  0  0
 27 26  1  0  0  0  0
M  END
>  <MODEL>
3

>  <REMARK>
 VINA RESULT:      -5.9      1.906      6.006
  Name = 
  10 active torsions:
  status: ('A' for Active; 'I' for Inactive)
    1  A    between atoms: N_2  and  O_17
    2  A    between atoms: C_3  and  C_22
    3  A    between atoms: N_4  and  C_6
    4  A    between atoms: N_4  and  C_10
    5  A    between atoms: C_6  and  C_7
    6  A    between atoms: C_7  and  C_25
    7  A    between atoms: C_12  and  O_24
    8  A    between atoms: C_16  and  C_25
    9  A    between atoms: O_17  and  C_28
   10  A    between atoms: C_22  and  O_24
                            x       y       z     vdW  Elec       q    Type
                         _______ _______ _______ _____ _____    ______ ____

>  <TORSDO>
F 10

$$$$
=
 OpenBabel11062423103D

 28 29  0  0  1  0  0  0  0  0999 V2000
  183.9430  177.9650  140.4180 C   0  0  0  0  0  3  0  0  0  0  0  0
  186.1690  177.8060  139.5180 O   0  0  0  0  0  1  0  0  0  0  0  0
  184.9900  178.4360  142.9780 C   0  0  0  0  0  0  0  0  0  0  0  0
  187.3380  178.2790  142.0830 C   0  0  0  0  0  1  0  0  0  0  0  0
  185.8570  178.2400  141.8870 C   0  0  0  0  0  0  0  0  0  0  0  0
  183.6040  178.3940  142.7710 C   0  0  0  0  0  3  0  0  0  0  0  0
  185.3270  178.0030  140.6070 C   0  0  0  0  0  0  0  0  0  0  0  0
  183.0770  178.1620  141.4950 C   0  0  0  0  0  0  0  0  0  0  0  0
  185.5230  178.6700  144.2880 N   0  0  0  0  0  2  0  0  0  0  0  0
  184.8200  178.3340  145.5210 C   0  0  0  0  0  2  0  0  0  0  0  0
  185.6120  177.3140  146.3300 C   0  0  0  0  0  2  0  0  0  0  0  0
  186.6880  178.3960  148.1630 O   0  0  0  0  0  1  0  0  0  0  0  0
  186.9010  177.9160  146.8710 C   0  0  1  0  0  3  0  0  0  0  0  0
  189.4390  177.1900  146.5240 C   0  0  1  0  0  3  0  0  0  0  0  0
  187.8190  175.6920  147.2350 N   0  0  0  0  0  0  0  0  0  0  0  0
  188.0110  176.9100  146.8730 C   0  0  0  0  0  0  0  0  0  0  0  0
  190.0910  175.8320  146.7800 C   0  0  0  0  0  2  0  0  0  0  0  0
  189.0070  175.0130  147.1860 O   0  0  0  0  0  0  0  0  0  0  0  0
  189.5710  177.5350  145.0520 C   0  0  0  0  0  1  0  0  0  0  0  0
  181.7000  178.1200  141.2800 O   0  0  0  0  0  0  0  0  0  0  0  0
  181.0260  179.2050  140.7640 N   0  0  0  0  0  2  0  0  0  0  0  0
  179.1050  178.7730  142.0040 O   0  0  0  0  0  0  0  0  0  0  0  0
  179.6860  179.5000  141.1570 C   0  0  0  0  0  0  0  0  0  0  0  0
  179.0080  180.5920  140.6110 O   0  0  0  0  0  0  0  0  0  0  0  0
  179.4340  181.2370  139.4150 C   0  0  0  0  0  2  0  0  0  0  0  0
  178.9600  182.6550  139.3800 C   0  0  0  0  0  0  0  0  0  0  0  0
  179.5700  183.6270  138.4280 C   0  0  0  0  0  1  0  0  0  0  0  0
  178.0510  183.0720  140.2560 C   0  0  0  0  0  2  0  0  0  0  0  0
  1  7  2  0  0  0  0
  1  8  1  0  0  0  0
  2  7  1  0  0  0  0
  3  9  1  0  0  0  0
  5  4  1  0  0  0  0
  5  3  2  0  0  0  0
  6  3  1  0  0  0  0
  7  5  1  0  0  0  0
  8  6  2  0  0  0  0
  9 10  1  0  0  0  0
 10 11  1  0  0  0  0
 11 13  1  0  0  0  0
 13 16  1  0  0  0  0
 13 12  1  1  0  0  0
 14 19  1  6  0  0  0
 14 17  1  0  0  0  0
 14 16  1  0  0  0  0
 16 15  2  0  0  0  0
 17 18  1  0  0  0  0
 18 15  1  0  0  0  0
 20  8  1  0  0  0  0
 21 23  1  0  0  0  0
 21 20  1  0  0  0  0
 23 22  2  0  0  0  0
 24 23  1  0  0  0  0
 25 24  1  0  0  0  0
 26 25  1  0  0  0  0
 26 28  2  0  0  0  0
 27 26  1  0  0  0  0
M  END
>  <MODEL>
4

>  <REMARK>
 VINA RESULT:      -5.8      4.551      7.667
  Name = 
  10 active torsions:
  status: ('A' for Active; 'I' for Inactive)
    1  A    between atoms: N_2  and  O_17
    2  A    between atoms: C_3  and  C_22
    3  A    between atoms: N_4  and  C_6
    4  A    between atoms: N_4  and  C_10
    5  A    between atoms: C_6  and  C_7
    6  A    between atoms: C_7  and  C_25
    7  A    between atoms: C_12  and  O_24
    8  A    between atoms: C_16  and  C_25
    9  A    between atoms: O_17  and  C_28
   10  A    between atoms: C_22  and  O_24
                            x       y       z     vdW  Elec       q    Type
                         _______ _______ _______ _____ _____    ______ ____

>  <TORSDO>
F 10

$$$$
=
 OpenBabel11062423103D

 28 29  0  0  1  0  0  0  0  0999 V2000
  185.5200  177.1960  142.7120 C   0  0  0  0  0  3  0  0  0  0  0  0
  183.7980  178.6660  143.5270 O   0  0  0  0  0  1  0  0  0  0  0  0
  186.5890  176.9800  145.2960 C   0  0  0  0  0  0  0  0  0  0  0  0
  184.8060  178.5140  146.1970 C   0  0  0  0  0  1  0  0  0  0  0  0
  185.4520  177.7770  145.0690 C   0  0  0  0  0  0  0  0  0  0  0  0
  187.1780  176.2990  144.2230 C   0  0  0  0  0  3  0  0  0  0  0  0
  184.9210  177.8820  143.7720 C   0  0  0  0  0  0  0  0  0  0  0  0
  186.6460  176.4020  142.9310 C   0  0  0  0  0  0  0  0  0  0  0  0
  187.1400  176.8750  146.6160 N   0  0  0  0  0  2  0  0  0  0  0  0
  188.4210  176.2420  146.9100 C   0  0  0  0  0  2  0  0  0  0  0  0
  189.5430  177.2720  146.9110 C   0  0  0  0  0  2  0  0  0  0  0  0
  190.6780  175.3880  147.8310 O   0  0  0  0  0  1  0  0  0  0  0  0
  190.8850  176.6300  147.2320 C   0  0  1  0  0  3  0  0  0  0  0  0
  193.0970  175.8850  145.9510 C   0  0  1  0  0  3  0  0  0  0  0  0
  191.2830  176.8040  144.8380 N   0  0  0  0  0  0  0  0  0  0  0  0
  191.7210  176.4740  145.9990 C   0  0  0  0  0  0  0  0  0  0  0  0
  193.3930  175.9190  144.4520 C   0  0  0  0  0  2  0  0  0  0  0  0
  192.2310  176.5110  143.8950 O   0  0  0  0  0  0  0  0  0  0  0  0
  194.0860  176.7800  146.6730 C   0  0  0  0  0  1  0  0  0  0  0  0
  187.2260  175.7260  141.8580 O   0  0  0  0  0  0  0  0  0  0  0  0
  188.4040  175.0280  142.0080 N   0  0  0  0  0  2  0  0  0  0  0  0
  187.3710  172.9610  141.7380 O   0  0  0  0  0  0  0  0  0  0  0  0
  188.4330  173.6020  141.9480 C   0  0  0  0  0  0  0  0  0  0  0  0
  189.6320  172.9070  142.1200 O   0  0  0  0  0  0  0  0  0  0  0  0
  190.7870  173.5040  142.7010 C   0  0  0  0  0  2  0  0  0  0  0  0
  190.9630  173.0510  144.1150 C   0  0  0  0  0  0  0  0  0  0  0  0
  189.9220  173.3560  145.1370 C   0  0  0  0  0  1  0  0  0  0  0  0
  192.0890  172.4460  144.4810 C   0  0  0  0  0  2  0  0  0  0  0  0
  1  8  2  0  0  0  0
  1  7  1  0  0  0  0
  2  7  1  0  0  0  0
  3  9  1  0  0  0  0
  5  3  1  0  0  0  0
  5  4  1  0  0  0  0
  6  3  2  0  0  0  0
  7  5  2  0  0  0  0
  8  6  1  0  0  0  0
  9 10  1  0  0  0  0
 10 11  1  0  0  0  0
 11 13  1  0  0  0  0
 13 12  1  6  0  0  0
 14 16  1  0  0  0  0
 14 19  1  1  0  0  0
 15 16  2  0  0  0  0
 16 13  1  0  0  0  0
 17 14  1  0  0  0  0
 18 17  1  0  0  0  0
 18 15  1  0  0  0  0
 20 21  1  0  0  0  0
 20  8  1  0  0  0  0
 22 23  2  0  0  0  0
 23 21  1  0  0  0  0
 23 24  1  0  0  0  0
 24 25  1  0  0  0  0
 25 26  1  0  0  0  0
 26 28  2  0  0  0  0
 26 27  1  0  0  0  0
M  END
>  <MODEL>
5

>  <REMARK>
 VINA RESULT:      -5.8      2.101      6.652
  Name = 
  10 active torsions:
  status: ('A' for Active; 'I' for Inactive)
    1  A    between atoms: N_2  and  O_17
    2  A    between atoms: C_3  and  C_22
    3  A    between atoms: N_4  and  C_6
    4  A    between atoms: N_4  and  C_10
    5  A    between atoms: C_6  and  C_7
    6  A    between atoms: C_7  and  C_25
    7  A    between atoms: C_12  and  O_24
    8  A    between atoms: C_16  and  C_25
    9  A    between atoms: O_17  and  C_28
   10  A    between atoms: C_22  and  O_24
                            x       y       z     vdW  Elec       q    Type
                         _______ _______ _______ _____ _____    ______ ____

>  <TORSDO>
F 10

$$$$
=
 OpenBabel11062423103D

 28 29  0  0  1  0  0  0  0  0999 V2000
  185.7650  177.9860  146.2040 C   0  0  0  0  0  3  0  0  0  0  0  0
  183.6970  179.0490  145.5860 O   0  0  0  0  0  1  0  0  0  0  0  0
  186.1330  177.1170  143.5620 C   0  0  0  0  0  0  0  0  0  0  0  0
  183.9760  178.2150  142.8660 C   0  0  0  0  0  1  0  0  0  0  0  0
  184.9950  177.8710  143.9030 C   0  0  0  0  0  0  0  0  0  0  0  0
  187.0750  176.8060  144.5520 C   0  0  0  0  0  3  0  0  0  0  0  0
  184.8160  178.3040  145.2290 C   0  0  0  0  0  0  0  0  0  0  0  0
  186.8970  177.2400  145.8710 C   0  0  0  0  0  0  0  0  0  0  0  0
  186.3180  176.6670  142.2130 N   0  0  0  0  0  2  0  0  0  0  0  0
  187.5830  176.7660  141.4930 C   0  0  0  0  0  2  0  0  0  0  0  0
  188.1440  175.3810  141.1980 C   0  0  0  0  0  2  0  0  0  0  0  0
  188.6300  173.4460  142.5050 O   0  0  0  0  0  1  0  0  0  0  0  0
  188.8830  174.8130  142.4020 C   0  0  1  0  0  3  0  0  0  0  0  0
  191.1670  175.8970  143.2350 C   0  0  1  0  0  3  0  0  0  0  0  0
  191.0720  174.5020  141.3860 N   0  0  0  0  0  0  0  0  0  0  0  0
  190.3570  175.0570  142.2980 C   0  0  0  0  0  0  0  0  0  0  0  0
  192.5770  175.7070  142.6790 C   0  0  0  0  0  2  0  0  0  0  0  0
  192.3820  174.8610  141.5570 O   0  0  0  0  0  0  0  0  0  0  0  0
  190.7790  177.3590  143.1130 C   0  0  0  0  0  1  0  0  0  0  0  0
  187.8310  176.9370  146.8610 O   0  0  0  0  0  0  0  0  0  0  0  0
  189.1030  176.5180  146.5370 N   0  0  0  0  0  2  0  0  0  0  0  0
  188.8500  174.4720  147.6160 O   0  0  0  0  0  0  0  0  0  0  0  0
  189.5920  175.2440  146.9540 C   0  0  0  0  0  0  0  0  0  0  0  0
  190.8900  174.8400  146.6340 O   0  0  0  0  0  0  0  0  0  0  0  0
  192.0390  175.3650  147.2920 C   0  0  0  0  0  2  0  0  0  0  0  0
  193.2460  175.2570  146.4170 C   0  0  0  0  0  0  0  0  0  0  0  0
  193.5810  173.9640  145.7550 C   0  0  0  0  0  1  0  0  0  0  0  0
  194.0700  176.2930  146.2940 C   0  0  0  0  0  2  0  0  0  0  0  0
  3  5  2  0  0  0  0
  3  6  1  0  0  0  0
  4  5  1  0  0  0  0
  5  7  1  0  0  0  0
  6  8  2  0  0  0  0
  7  2  1  0  0  0  0
  7  1  2  0  0  0  0
  8  1  1  0  0  0  0
  8 20  1  0  0  0  0
  9  3  1  0  0  0  0
 10  9  1  0  0  0  0
 11 10  1  0  0  0  0
 11 13  1  0  0  0  0
 13 12  1  6  0  0  0
 14 19  1  6  0  0  0
 15 18  1  0  0  0  0
 15 16  2  0  0  0  0
 16 13  1  0  0  0  0
 16 14  1  0  0  0  0
 17 14  1  0  0  0  0
 18 17  1  0  0  0  0
 21 20  1  0  0  0  0
 21 23  1  0  0  0  0
 23 22  2  0  0  0  0
 24 23  1  0  0  0  0
 24 25  1  0  0  0  0
 26 25  1  0  0  0  0
 27 26  1  0  0  0  0
 28 26  2  0  0  0  0
M  END
>  <MODEL>
6

>  <REMARK>
 VINA RESULT:      -5.7      1.948      5.932
  Name = 
  10 active torsions:
  status: ('A' for Active; 'I' for Inactive)
    1  A    between atoms: N_2  and  O_17
    2  A    between atoms: C_3  and  C_22
    3  A    between atoms: N_4  and  C_6
    4  A    between atoms: N_4  and  C_10
    5  A    between atoms: C_6  and  C_7
    6  A    between atoms: C_7  and  C_25
    7  A    between atoms: C_12  and  O_24
    8  A    between atoms: C_16  and  C_25
    9  A    between atoms: O_17  and  C_28
   10  A    between atoms: C_22  and  O_24
                            x       y       z     vdW  Elec       q    Type
                         _______ _______ _______ _____ _____    ______ ____

>  <TORSDO>
F 10

$$$$
=
 OpenBabel11062423103D

 28 29  0  0  1  0  0  0  0  0999 V2000
  187.8370  175.2230  142.1370 C   0  0  0  0  0  3  0  0  0  0  0  0
  187.9790  172.8540  141.7410 O   0  0  0  0  0  1  0  0  0  0  0  0
  190.6120  175.3470  142.5230 C   0  0  0  0  0  0  0  0  0  0  0  0
  190.8130  172.8700  142.1160 C   0  0  0  0  0  1  0  0  0  0  0  0
  189.9970  174.1170  142.2260 C   0  0  0  0  0  0  0  0  0  0  0  0
  189.8260  176.5030  142.6230 C   0  0  0  0  0  3  0  0  0  0  0  0
  188.6060  174.0600  142.0340 C   0  0  0  0  0  0  0  0  0  0  0  0
  188.4410  176.4460  142.4280 C   0  0  0  0  0  0  0  0  0  0  0  0
  192.0300  175.4100  142.7280 N   0  0  0  0  0  2  0  0  0  0  0  0
  192.6780  175.1270  144.0040 C   0  0  0  0  0  2  0  0  0  0  0  0
  192.6240  176.3460  144.9160 C   0  0  0  0  0  2  0  0  0  0  0  0
  192.7290  176.8010  147.2550 O   0  0  0  0  0  1  0  0  0  0  0  0
  192.1250  175.9770  146.3060 C   0  0  1  0  0  3  0  0  0  0  0  0
  189.6990  175.0090  146.8240 C   0  0  1  0  0  3  0  0  0  0  0  0
  190.0280  177.2020  146.1470 N   0  0  0  0  0  0  0  0  0  0  0  0
  190.6350  176.0970  146.3960 C   0  0  0  0  0  0  0  0  0  0  0  0
  188.3530  175.7310  146.7940 C   0  0  0  0  0  2  0  0  0  0  0  0
  188.6850  177.0380  146.3540 O   0  0  0  0  0  0  0  0  0  0  0  0
  189.6840  173.8870  145.8040 C   0  0  0  0  0  1  0  0  0  0  0  0
  187.6520  177.5920  142.5240 O   0  0  0  0  0  0  0  0  0  0  0  0
  186.6850  177.7130  143.4980 N   0  0  0  0  0  2  0  0  0  0  0  0
  185.0390  178.3350  141.9750 O   0  0  0  0  0  0  0  0  0  0  0  0
  185.3530  178.1070  143.1730 C   0  0  0  0  0  0  0  0  0  0  0  0
  184.3870  178.2430  144.1730 O   0  0  0  0  0  0  0  0  0  0  0  0
  184.5790  179.0700  145.3150 C   0  0  0  0  0  2  0  0  0  0  0  0
  185.0640  178.2640  146.4780 C   0  0  0  0  0  0  0  0  0  0  0  0
  184.8390  176.7910  146.5160 C   0  0  0  0  0  1  0  0  0  0  0  0
  185.6240  178.8740  147.5180 C   0  0  0  0  0  2  0  0  0  0  0  0
  1  8  1  0  0  0  0
  2  7  1  0  0  0  0
  3  6  1  0  0  0  0
  3  9  1  0  0  0  0
  4  5  1  0  0  0  0
  5  3  2  0  0  0  0
  7  1  2  0  0  0  0
  7  5  1  0  0  0  0
  8 20  1  0  0  0  0
  8  6  2  0  0  0  0
  9 10  1  0  0  0  0
 10 11  1  0  0  0  0
 11 13  1  0  0  0  0
 13 16  1  0  0  0  0
 13 12  1  1  0  0  0
 14 19  1  6  0  0  0
 15 18  1  0  0  0  0
 15 16  2  0  0  0  0
 16 14  1  0  0  0  0
 17 14  1  0  0  0  0
 18 17  1  0  0  0  0
 20 21  1  0  0  0  0
 22 23  2  0  0  0  0
 23 21  1  0  0  0  0
 23 24  1  0  0  0  0
 24 25  1  0  0  0  0
 25 26  1  0  0  0  0
 26 27  1  0  0  0  0
 26 28  2  0  0  0  0
M  END
>  <MODEL>
7

>  <REMARK>
 VINA RESULT:      -5.6      1.731      4.501
  Name = 
  10 active torsions:
  status: ('A' for Active; 'I' for Inactive)
    1  A    between atoms: N_2  and  O_17
    2  A    between atoms: C_3  and  C_22
    3  A    between atoms: N_4  and  C_6
    4  A    between atoms: N_4  and  C_10
    5  A    between atoms: C_6  and  C_7
    6  A    between atoms: C_7  and  C_25
    7  A    between atoms: C_12  and  O_24
    8  A    between atoms: C_16  and  C_25
    9  A    between atoms: O_17  and  C_28
   10  A    between atoms: C_22  and  O_24
                            x       y       z     vdW  Elec       q    Type
                         _______ _______ _______ _____ _____    ______ ____

>  <TORSDO>
F 10

$$$$
=
 OpenBabel11062423103D

 28 29  0  0  1  0  0  0  0  0999 V2000
  192.6550  176.2370  146.3190 C   0  0  0  0  0  3  0  0  0  0  0  0
  191.2300  176.0840  148.2520 O   0  0  0  0  0  1  0  0  0  0  0  0
  190.5440  177.3220  144.8240 C   0  0  0  0  0  0  0  0  0  0  0  0
  189.0150  177.1830  146.8190 C   0  0  0  0  0  1  0  0  0  0  0  0
  190.3460  176.9760  146.1730 C   0  0  0  0  0  0  0  0  0  0  0  0
  191.8010  177.1180  144.2380 C   0  0  0  0  0  3  0  0  0  0  0  0
  191.4070  176.4320  146.9170 C   0  0  0  0  0  0  0  0  0  0  0  0
  192.8580  176.5790  144.9810 C   0  0  0  0  0  0  0  0  0  0  0  0
  189.4640  177.8710  144.0560 N   0  0  0  0  0  2  0  0  0  0  0  0
  188.6880  177.1050  143.0870 C   0  0  0  0  0  2  0  0  0  0  0  0
  187.4830  177.9060  142.6090 C   0  0  0  0  0  2  0  0  0  0  0  0
  186.4170  175.7790  142.7680 O   0  0  0  0  0  1  0  0  0  0  0  0
  186.1840  177.1510  142.8520 C   0  0  1  0  0  3  0  0  0  0  0  0
  184.6500  178.6180  144.4600 C   0  0  1  0  0  3  0  0  0  0  0  0
  185.8430  176.7870  145.2340 N   0  0  0  0  0  0  0  0  0  0  0  0
  185.5990  177.4920  144.1880 C   0  0  0  0  0  0  0  0  0  0  0  0
  184.3530  178.4180  145.9450 C   0  0  0  0  0  2  0  0  0  0  0  0
  185.1460  177.2950  146.2960 O   0  0  0  0  0  0  0  0  0  0  0  0
  185.3400  179.9550  144.2670 C   0  0  0  0  0  1  0  0  0  0  0  0
  194.1120  176.3750  144.4070 O   0  0  0  0  0  0  0  0  0  0  0  0
  195.0190  175.5000  144.9650 N   0  0  0  0  0  2  0  0  0  0  0  0
  196.6650  175.9950  143.3970 O   0  0  0  0  0  0  0  0  0  0  0  0
  196.3210  175.3280  144.4080 C   0  0  0  0  0  0  0  0  0  0  0  0
  197.2230  174.4240  144.9730 O   0  0  0  0  0  0  0  0  0  0  0  0
  196.8680  173.5580  146.0460 C   0  0  0  0  0  2  0  0  0  0  0  0
  196.4270  172.2260  145.5290 C   0  0  0  0  0  0  0  0  0  0  0  0
  194.9760  171.8930  145.4520 C   0  0  0  0  0  1  0  0  0  0  0  0
  197.3320  171.3050  145.2140 C   0  0  0  0  0  2  0  0  0  0  0  0
  1  7  1  0  0  0  0
  3  5  1  0  0  0  0
  5  4  1  0  0  0  0
  5  7  2  0  0  0  0
  6  3  2  0  0  0  0
  6  8  1  0  0  0  0
  7  2  1  0  0  0  0
  8  1  2  0  0  0  0
  9  3  1  0  0  0  0
 10  9  1  0  0  0  0
 11 13  1  0  0  0  0
 11 10  1  0  0  0  0
 13 12  1  1  0  0  0
 13 16  1  0  0  0  0
 14 19  1  1  0  0  0
 14 17  1  0  0  0  0
 15 18  1  0  0  0  0
 16 14  1  0  0  0  0
 16 15  2  0  0  0  0
 17 18  1  0  0  0  0
 20 21  1  0  0  0  0
 20  8  1  0  0  0  0
 22 23  2  0  0  0  0
 23 21  1  0  0  0  0
 23 24  1  0  0  0  0
 24 25  1  0  0  0  0
 26 25  1  0  0  0  0
 27 26  1  0  0  0  0
 28 26  2  0  0  0  0
M  END
>  <MODEL>
8

>  <REMARK>
 VINA RESULT:      -5.6      2.730      7.584
  Name = 
  10 active torsions:
  status: ('A' for Active; 'I' for Inactive)
    1  A    between atoms: N_2  and  O_17
    2  A    between atoms: C_3  and  C_22
    3  A    between atoms: N_4  and  C_6
    4  A    between atoms: N_4  and  C_10
    5  A    between atoms: C_6  and  C_7
    6  A    between atoms: C_7  and  C_25
    7  A    between atoms: C_12  and  O_24
    8  A    between atoms: C_16  and  C_25
    9  A    between atoms: O_17  and  C_28
   10  A    between atoms: C_22  and  O_24
                            x       y       z     vdW  Elec       q    Type
                         _______ _______ _______ _____ _____    ______ ____

>  <TORSDO>
F 10

$$$$
=
 OpenBabel11062423103D

 28 29  0  0  1  0  0  0  0  0999 V2000
  187.0570  177.3990  147.2390 C   0  0  0  0  0  3  0  0  0  0  0  0
  185.5580  179.2780  147.3320 O   0  0  0  0  0  1  0  0  0  0  0  0
  187.0890  177.5360  144.4380 C   0  0  0  0  0  0  0  0  0  0  0  0
  185.5210  179.5060  144.4830 C   0  0  0  0  0  1  0  0  0  0  0  0
  186.3230  178.4540  145.1790 C   0  0  0  0  0  0  0  0  0  0  0  0
  187.8320  176.5570  145.1120 C   0  0  0  0  0  3  0  0  0  0  0  0
  186.3100  178.3810  146.5820 C   0  0  0  0  0  0  0  0  0  0  0  0
  187.8220  176.4870  146.5100 C   0  0  0  0  0  0  0  0  0  0  0  0
  187.1010  177.6000  143.0050 N   0  0  0  0  0  2  0  0  0  0  0  0
  186.7380  176.4820  142.1410 C   0  0  0  0  0  2  0  0  0  0  0  0
  187.8270  176.2270  141.1060 C   0  0  0  0  0  2  0  0  0  0  0  0
  187.8830  174.2120  142.3800 O   0  0  0  0  0  1  0  0  0  0  0  0
  188.5400  174.9070  141.3660 C   0  0  1  0  0  3  0  0  0  0  0  0
  189.0750  172.6520  140.0570 C   0  0  1  0  0  3  0  0  0  0  0  0
  188.1920  174.5110  138.9910 N   0  0  0  0  0  0  0  0  0  0  0  0
  188.6020  174.0700  140.1260 C   0  0  0  0  0  0  0  0  0  0  0  0
  188.8370  172.3190  138.5850 C   0  0  0  0  0  2  0  0  0  0  0  0
  188.3200  173.5260  138.0490 O   0  0  0  0  0  0  0  0  0  0  0  0
  190.5620  172.5710  140.3490 C   0  0  0  0  0  1  0  0  0  0  0  0
  188.5600  175.5180  147.1880 O   0  0  0  0  0  0  0  0  0  0  0  0
  189.7280  175.0130  146.6610 N   0  0  0  0  0  2  0  0  0  0  0  0
  191.0610  176.0760  148.2450 O   0  0  0  0  0  0  0  0  0  0  0  0
  190.9970  175.3340  147.2310 C   0  0  0  0  0  0  0  0  0  0  0  0
  192.1750  174.8300  146.6740 O   0  0  0  0  0  0  0  0  0  0  0  0
  192.8300  175.4540  145.5750 C   0  0  0  0  0  2  0  0  0  0  0  0
  194.2140  175.8770  145.9520 C   0  0  0  0  0  0  0  0  0  0  0  0
  195.3530  174.9250  145.8160 C   0  0  0  0  0  1  0  0  0  0  0  0
  194.4170  177.0760  146.4880 C   0  0  0  0  0  2  0  0  0  0  0  0
  3  6  2  0  0  0  0
  3  5  1  0  0  0  0
  4  5  1  0  0  0  0
  5  7  2  0  0  0  0
  6  8  1  0  0  0  0
  7  1  1  0  0  0  0
  7  2  1  0  0  0  0
  8 20  1  0  0  0  0
  8  1  2  0  0  0  0
  9  3  1  0  0  0  0
 10  9  1  0  0  0  0
 11 13  1  0  0  0  0
 11 10  1  0  0  0  0
 13 12  1  1  0  0  0
 14 16  1  0  0  0  0
 14 19  1  6  0  0  0
 15 16  2  0  0  0  0
 16 13  1  0  0  0  0
 17 14  1  0  0  0  0
 18 17  1  0  0  0  0
 18 15  1  0  0  0  0
 21 20  1  0  0  0  0
 21 23  1  0  0  0  0
 23 22  2  0  0  0  0
 24 23  1  0  0  0  0
 25 26  1  0  0  0  0
 25 24  1  0  0  0  0
 26 28  2  0  0  0  0
 27 26  1  0  0  0  0
M  END
>  <MODEL>
9

>  <REMARK>
 VINA RESULT:      -5.5      2.376      6.321
  Name = 
  10 active torsions:
  status: ('A' for Active; 'I' for Inactive)
    1  A    between atoms: N_2  and  O_17
    2  A    between atoms: C_3  and  C_22
    3  A    between atoms: N_4  and  C_6
    4  A    between atoms: N_4  and  C_10
    5  A    between atoms: C_6  and  C_7
    6  A    between atoms: C_7  and  C_25
    7  A    between atoms: C_12  and  O_24
    8  A    between atoms: C_16  and  C_25
    9  A    between atoms: O_17  and  C_28
   10  A    between atoms: C_22  and  O_24
                            x       y       z     vdW  Elec       q    Type
                         _______ _______ _______ _____ _____    ______ ____

>  <TORSDO>
F 10

$$$$
