=
 OpenBabel11062418563D

 33 35  0  0  1  0  0  0  0  0999 V2000
  190.4440  176.6850  146.6740 N   0  0  0  0  0  2  0  0  0  0  0  0
  188.3930  176.3750  144.6630 C   0  0  2  0  0  3  0  0  0  0  0  0
  188.0440  176.9710  146.0010 C   0  0  0  0  0  0  0  0  0  0  0  0
  190.8850  173.6190  143.7810 C   0  0  0  0  0  0  0  0  0  0  0  0
  191.7750  174.8940  145.6380 C   0  0  0  0  0  0  0  0  0  0  0  0
  189.0820  178.2070  147.7770 O   0  0  0  0  0  0  0  0  0  0  0  0
  192.8820  175.1250  146.6080 C   0  0  0  0  0  1  0  0  0  0  0  0
  189.9180  172.1500  142.0320 C   0  0  0  0  0  0  0  0  0  0  0  0
  190.6080  175.6760  145.6670 C   0  0  0  0  0  0  0  0  0  0  0  0
  189.5810  175.4470  144.7260 C   0  0  0  0  0  0  0  0  0  0  0  0
  188.6310  177.3960  143.7380 O   0  0  0  0  0  1  0  0  0  0  0  0
  191.9070  173.8720  144.6970 C   0  0  0  0  0  3  0  0  0  0  0  0
  188.5640  172.7280  142.2980 C   0  0  0  0  0  2  0  0  0  0  0  0
  190.0680  171.2730  141.1430 O   0  0  0  0  0  0  0  0  0  0  0  0
  189.7160  174.4050  143.7880 C   0  0  0  0  0  0  0  0  0  0  0  0
  188.6830  174.1960  142.7080 C   0  0  0  0  0  2  0  0  0  0  0  0
  186.7500  177.1540  146.3420 C   0  0  0  0  0  0  0  0  0  0  0  0
  189.1880  177.3340  146.8750 C   0  0  0  0  0  0  0  0  0  0  0  0
  191.0280  172.5530  142.8390 N   0  0  0  0  0  2  0  0  0  0  0  0
  185.7200  179.0660  147.5250 C   0  0  0  0  0  1  0  0  0  0  0  0
  186.3420  177.6910  147.6790 C   0  0  0  0  0  2  0  0  0  0  0  0
  185.6460  176.7710  145.3950 C   0  0  0  0  0  2  0  0  0  0  0  0
  185.2800  177.4700  143.0520 C   0  0  0  0  0  3  0  0  0  0  0  0
  185.4290  177.8100  144.3360 C   0  0  0  0  0  3  0  0  0  0  0  0
  185.1040  178.4900  141.9670 C   0  0  1  0  0  3  0  0  0  0  0  0
  186.1610  178.4360  141.0550 O   0  0  0  0  0  1  0  0  0  0  0  0
  183.7610  177.9440  140.0620 O   0  0  0  0  0  0  0  0  0  0  0  0
  183.7960  178.3190  141.2670 C   0  0  0  0  0  0  0  0  0  0  0  0
  182.5850  178.5820  141.9800 N   0  0  0  0  0  2  0  0  0  0  0  0
  181.2700  178.2880  141.4260 C   0  0  0  0  0  2  0  0  0  0  0  0
  180.3080  179.4290  141.7170 C   0  0  0  0  0  3  0  0  0  0  0  0
  179.3390  179.0230  142.6360 O   0  0  0  0  0  1  0  0  0  0  0  0
  179.6900  179.8270  140.5330 O   0  0  0  0  0  1  0  0  0  0  0  0
  1 18  1  0  0  0  0
  2 11  1  6  0  0  0
  2 10  1  0  0  0  0
  2  3  1  0  0  0  0
  3 17  2  0  0  0  0
  3 18  1  0  0  0  0
  4 15  2  0  0  0  0
  4 12  1  0  0  0  0
  5  9  1  0  0  0  0
  5  7  1  0  0  0  0
  8 13  1  0  0  0  0
  8 19  1  0  0  0  0
  9  1  1  0  0  0  0
 10  9  2  0  0  0  0
 12  5  2  0  0  0  0
 13 16  1  0  0  0  0
 14  8  2  0  0  0  0
 15 10  1  0  0  0  0
 16 15  1  0  0  0  0
 17 21  1  0  0  0  0
 18  6  2  0  0  0  0
 19  4  1  0  0  0  0
 20 21  1  0  0  0  0
 22 17  1  0  0  0  0
 23 24  2  0  0  0  0
 24 22  1  0  0  0  0
 25 26  1  6  0  0  0
 25 23  1  0  0  0  0
 27 28  2  0  0  0  0
 28 25  1  0  0  0  0
 28 29  1  0  0  0  0
 30 31  1  0  0  0  0
 30 29  1  0  0  0  0
 31 32  1  0  0  0  0
 33 31  1  0  0  0  0
M  END
>  <MODEL>
1

>  <REMARK>
 VINA RESULT:      -7.8      0.000      0.000
  Name = 
  7 active torsions:
  status: ('A' for Active; 'I' for Inactive)
    1  A    between atoms: C_10  and  C_31
    2  A    between atoms: C_11  and  C_26
    3  A    between atoms: C_11  and  C_28
    4  A    between atoms: C_13  and  C_23
    5  A    between atoms: C_13  and  C_24
    6  A    between atoms: C_26  and  C_27
    7  A    between atoms: N_29  and  C_31
                            x       y       z     vdW  Elec       q    Type
                         _______ _______ _______ _____ _____    ______ ____

>  <TORSDO>
F 7

$$$$
=
 OpenBabel11062418563D

 33 35  0  0  1  0  0  0  0  0999 V2000
  187.4410  176.1320  140.8810 N   0  0  0  0  0  2  0  0  0  0  0  0
  188.5270  175.7150  143.5260 C   0  0  2  0  0  3  0  0  0  0  0  0
  188.7740  174.6950  142.4460 C   0  0  0  0  0  0  0  0  0  0  0  0
  185.4570  177.8880  144.1890 C   0  0  0  0  0  0  0  0  0  0  0  0
  185.6910  177.6000  141.7960 C   0  0  0  0  0  0  0  0  0  0  0  0
  188.9440  174.5680  140.0570 O   0  0  0  0  0  0  0  0  0  0  0  0
  185.1970  177.9020  140.4230 C   0  0  0  0  0  1  0  0  0  0  0  0
  185.0480  178.0280  146.6310 C   0  0  0  0  0  0  0  0  0  0  0  0
  186.7980  176.7580  142.0000 C   0  0  0  0  0  0  0  0  0  0  0  0
  187.2560  176.5010  143.3110 C   0  0  0  0  0  0  0  0  0  0  0  0
  189.6180  176.5840  143.6130 O   0  0  0  0  0  1  0  0  0  0  0  0
  185.0280  178.1590  142.8890 C   0  0  0  0  0  3  0  0  0  0  0  0
  185.9700  176.8710  146.8510 C   0  0  0  0  0  2  0  0  0  0  0  0
  184.4890  178.5860  147.6100 O   0  0  0  0  0  0  0  0  0  0  0  0
  186.5740  177.0580  144.4090 C   0  0  0  0  0  0  0  0  0  0  0  0
  187.0950  176.8830  145.8140 C   0  0  0  0  0  2  0  0  0  0  0  0
  189.3050  173.4930  142.7630 C   0  0  0  0  0  0  0  0  0  0  0  0
  188.4100  175.1000  141.0660 C   0  0  0  0  0  0  0  0  0  0  0  0
  184.7520  178.4520  145.2980 N   0  0  0  0  0  2  0  0  0  0  0  0
  190.0720  171.1700  142.4010 C   0  0  0  0  0  1  0  0  0  0  0  0
  189.5220  172.4200  141.7410 C   0  0  0  0  0  2  0  0  0  0  0  0
  189.6580  173.1620  144.1860 C   0  0  0  0  0  2  0  0  0  0  0  0
  191.4270  174.3180  145.4690 C   0  0  0  0  0  3  0  0  0  0  0  0
  191.0930  173.4660  144.4940 C   0  0  0  0  0  3  0  0  0  0  0  0
  192.8520  174.6740  145.7710 C   0  0  1  0  0  3  0  0  0  0  0  0
  193.6420  173.5260  145.8710 O   0  0  0  0  0  1  0  0  0  0  0  0
  193.0080  176.8020  144.6870 O   0  0  0  0  0  0  0  0  0  0  0  0
  193.4080  175.6070  144.7450 C   0  0  0  0  0  0  0  0  0  0  0  0
  194.4030  175.1310  143.8350 N   0  0  0  0  0  2  0  0  0  0  0  0
  195.1100  176.0110  142.9160 C   0  0  0  0  0  2  0  0  0  0  0  0
  196.6100  175.9170  143.1450 C   0  0  0  0  0  3  0  0  0  0  0  0
  196.8810  175.1270  144.2640 O   0  0  0  0  0  1  0  0  0  0  0  0
  197.1290  177.1950  143.3420 O   0  0  0  0  0  1  0  0  0  0  0  0
  1 18  1  0  0  0  0
  1  9  1  0  0  0  0
  2 11  1  6  0  0  0
  3 17  2  0  0  0  0
  3  2  1  0  0  0  0
  4 15  1  0  0  0  0
  4 19  1  0  0  0  0
  5  9  2  0  0  0  0
  5 12  1  0  0  0  0
  6 18  2  0  0  0  0
  7  5  1  0  0  0  0
  8 13  1  0  0  0  0
  8 14  2  0  0  0  0
  9 10  1  0  0  0  0
 10  2  1  0  0  0  0
 10 15  2  0  0  0  0
 12  4  2  0  0  0  0
 15 16  1  0  0  0  0
 16 13  1  0  0  0  0
 17 22  1  0  0  0  0
 18  3  1  0  0  0  0
 19  8  1  0  0  0  0
 21 20  1  0  0  0  0
 21 17  1  0  0  0  0
 22 24  1  0  0  0  0
 23 25  1  0  0  0  0
 24 23  2  0  0  0  0
 25 26  1  6  0  0  0
 27 28  2  0  0  0  0
 28 25  1  0  0  0  0
 29 28  1  0  0  0  0
 30 31  1  0  0  0  0
 30 29  1  0  0  0  0
 31 33  1  0  0  0  0
 31 32  1  0  0  0  0
M  END
>  <MODEL>
2

>  <REMARK>
 VINA RESULT:      -7.8      3.402      9.378
  Name = 
  7 active torsions:
  status: ('A' for Active; 'I' for Inactive)
    1  A    between atoms: C_10  and  C_31
    2  A    between atoms: C_11  and  C_26
    3  A    between atoms: C_11  and  C_28
    4  A    between atoms: C_13  and  C_23
    5  A    between atoms: C_13  and  C_24
    6  A    between atoms: C_26  and  C_27
    7  A    between atoms: N_29  and  C_31
                            x       y       z     vdW  Elec       q    Type
                         _______ _______ _______ _____ _____    ______ ____

>  <TORSDO>
F 7

$$$$
=
 OpenBabel11062418563D

 33 35  0  0  1  0  0  0  0  0999 V2000
  189.4750  176.8480  146.6270 N   0  0  0  0  0  2  0  0  0  0  0  0
  190.1460  177.5400  143.9030 C   0  0  2  0  0  3  0  0  0  0  0  0
  188.7120  177.6020  144.3590 C   0  0  0  0  0  0  0  0  0  0  0  0
  192.9290  175.1160  144.8860 C   0  0  0  0  0  0  0  0  0  0  0  0
  191.5110  175.4800  146.8150 C   0  0  0  0  0  0  0  0  0  0  0  0
  187.4470  177.9460  146.3680 O   0  0  0  0  0  0  0  0  0  0  0  0
  191.2230  175.2100  148.2520 C   0  0  0  0  0  1  0  0  0  0  0  0
  194.2770  174.5410  142.8850 C   0  0  0  0  0  0  0  0  0  0  0  0
  190.6660  176.2980  146.0460 C   0  0  0  0  0  0  0  0  0  0  0  0
  190.9710  176.5510  144.6910 C   0  0  0  0  0  0  0  0  0  0  0  0
  190.7220  178.8120  143.9810 O   0  0  0  0  0  1  0  0  0  0  0  0
  192.6360  174.8950  146.2320 C   0  0  0  0  0  3  0  0  0  0  0  0
  193.2040  175.0970  142.0040 C   0  0  0  0  0  2  0  0  0  0  0  0
  195.3270  174.0660  142.3800 O   0  0  0  0  0  0  0  0  0  0  0  0
  192.0990  175.9460  144.1060 C   0  0  0  0  0  0  0  0  0  0  0  0
  192.5070  176.2730  142.6900 C   0  0  0  0  0  2  0  0  0  0  0  0
  187.7230  177.7610  143.4530 C   0  0  0  0  0  0  0  0  0  0  0  0
  188.4830  177.4860  145.8210 C   0  0  0  0  0  0  0  0  0  0  0  0
  194.0740  174.4910  144.2990 N   0  0  0  0  0  2  0  0  0  0  0  0
  185.6610  179.1250  143.5260 C   0  0  0  0  0  1  0  0  0  0  0  0
  186.2770  177.7750  143.8420 C   0  0  0  0  0  2  0  0  0  0  0  0
  188.0370  177.8840  141.9870 C   0  0  0  0  0  2  0  0  0  0  0  0
  188.5140  175.5220  141.4330 C   0  0  0  0  0  3  0  0  0  0  0  0
  187.7610  176.6110  141.2460 C   0  0  0  0  0  3  0  0  0  0  0  0
  188.2870  174.2490  140.6740 C   0  0  1  0  0  3  0  0  0  0  0  0
  188.3680  174.4680  139.2970 O   0  0  0  0  0  1  0  0  0  0  0  0
  190.2650  172.9310  140.3940 O   0  0  0  0  0  0  0  0  0  0  0  0
  189.2470  173.1850  141.0950 C   0  0  0  0  0  0  0  0  0  0  0  0
  189.0010  172.4640  142.3040 N   0  0  0  0  0  2  0  0  0  0  0  0
  189.9640  171.5280  142.8680 C   0  0  0  0  0  2  0  0  0  0  0  0
  190.8870  172.2440  143.8410 C   0  0  0  0  0  3  0  0  0  0  0  0
  191.8970  171.3830  144.2740 O   0  0  0  0  0  1  0  0  0  0  0  0
  190.1520  172.6880  144.9380 O   0  0  0  0  0  1  0  0  0  0  0  0
  2 11  1  1  0  0  0
  2  3  1  0  0  0  0
  2 10  1  0  0  0  0
  3 18  1  0  0  0  0
  4 12  1  0  0  0  0
  5  7  1  0  0  0  0
  8 19  1  0  0  0  0
  9  1  1  0  0  0  0
  9  5  1  0  0  0  0
 10  9  2  0  0  0  0
 12  5  2  0  0  0  0
 13 16  1  0  0  0  0
 13  8  1  0  0  0  0
 14  8  2  0  0  0  0
 15 10  1  0  0  0  0
 15  4  2  0  0  0  0
 16 15  1  0  0  0  0
 17 21  1  0  0  0  0
 17  3  2  0  0  0  0
 18  6  2  0  0  0  0
 18  1  1  0  0  0  0
 19  4  1  0  0  0  0
 20 21  1  0  0  0  0
 22 17  1  0  0  0  0
 24 23  2  0  0  0  0
 24 22  1  0  0  0  0
 25 26  1  6  0  0  0
 25 28  1  0  0  0  0
 25 23  1  0  0  0  0
 27 28  2  0  0  0  0
 28 29  1  0  0  0  0
 29 30  1  0  0  0  0
 30 31  1  0  0  0  0
 31 32  1  0  0  0  0
 31 33  1  0  0  0  0
M  END
>  <MODEL>
3

>  <REMARK>
 VINA RESULT:      -7.8      3.709      6.067
  Name = 
  7 active torsions:
  status: ('A' for Active; 'I' for Inactive)
    1  A    between atoms: C_10  and  C_31
    2  A    between atoms: C_11  and  C_26
    3  A    between atoms: C_11  and  C_28
    4  A    between atoms: C_13  and  C_23
    5  A    between atoms: C_13  and  C_24
    6  A    between atoms: C_26  and  C_27
    7  A    between atoms: N_29  and  C_31
                            x       y       z     vdW  Elec       q    Type
                         _______ _______ _______ _____ _____    ______ ____

>  <TORSDO>
F 7

$$$$
=
 OpenBabel11062418563D

 33 35  0  0  1  0  0  0  0  0999 V2000
  193.0760  175.8660  143.9980 N   0  0  0  0  0  2  0  0  0  0  0  0
  190.1930  175.7880  144.1610 C   0  0  2  0  0  3  0  0  0  0  0  0
  191.0110  175.8910  145.4220 C   0  0  0  0  0  0  0  0  0  0  0  0
  190.9210  173.9200  140.9110 C   0  0  0  0  0  0  0  0  0  0  0  0
  193.0150  174.7350  141.8140 C   0  0  0  0  0  0  0  0  0  0  0  0
  193.1390  176.7190  146.1550 O   0  0  0  0  0  0  0  0  0  0  0  0
  194.4930  174.8710  141.6780 C   0  0  0  0  0  1  0  0  0  0  0  0
  188.8350  172.8780  140.0650 C   0  0  0  0  0  0  0  0  0  0  0  0
  192.3390  175.2450  142.9350 C   0  0  0  0  0  0  0  0  0  0  0  0
  190.9360  175.1170  143.0320 C   0  0  0  0  0  0  0  0  0  0  0  0
  189.7700  177.0610  143.7680 O   0  0  0  0  0  1  0  0  0  0  0  0
  192.3040  174.0760  140.8100 C   0  0  0  0  0  3  0  0  0  0  0  0
  188.1890  173.0920  141.3970 C   0  0  0  0  0  2  0  0  0  0  0  0
  188.1900  172.3430  139.1270 O   0  0  0  0  0  0  0  0  0  0  0  0
  190.2270  174.4400  142.0220 C   0  0  0  0  0  0  0  0  0  0  0  0
  188.7200  174.3710  142.0460 C   0  0  0  0  0  2  0  0  0  0  0  0
  190.4200  175.7240  146.6250 C   0  0  0  0  0  0  0  0  0  0  0  0
  192.4550  176.1850  145.2440 C   0  0  0  0  0  0  0  0  0  0  0  0
  190.2110  173.2230  139.8840 N   0  0  0  0  0  2  0  0  0  0  0  0
  191.1890  177.1650  148.4820 C   0  0  0  0  0  1  0  0  0  0  0  0
  191.1920  175.7610  147.9080 C   0  0  0  0  0  2  0  0  0  0  0  0
  188.9460  175.4400  146.7230 C   0  0  0  0  0  2  0  0  0  0  0  0
  186.8240  176.6450  147.1150 C   0  0  0  0  0  3  0  0  0  0  0  0
  188.1600  176.6670  147.0740 C   0  0  0  0  0  3  0  0  0  0  0  0
  186.0110  177.8680  147.4210 C   0  0  1  0  0  3  0  0  0  0  0  0
  186.8060  178.8670  147.9870 O   0  0  0  0  0  1  0  0  0  0  0  0
  184.0600  178.5050  146.1900 O   0  0  0  0  0  0  0  0  0  0  0  0
  185.3150  178.3780  146.2010 C   0  0  0  0  0  0  0  0  0  0  0  0
  186.0900  178.7230  145.0500 N   0  0  0  0  0  2  0  0  0  0  0  0
  185.5120  179.3740  143.8840 C   0  0  0  0  0  2  0  0  0  0  0  0
  185.1270  178.3400  142.8380 C   0  0  0  0  0  3  0  0  0  0  0  0
  185.6920  178.6660  141.6030 O   0  0  0  0  0  1  0  0  0  0  0  0
  183.7390  178.2950  142.7180 O   0  0  0  0  0  1  0  0  0  0  0  0
  1 18  1  0  0  0  0
  2 11  1  6  0  0  0
  2  3  1  0  0  0  0
  3 17  2  0  0  0  0
  4 15  1  0  0  0  0
  5  9  2  0  0  0  0
  7  5  1  0  0  0  0
  8 13  1  0  0  0  0
  9 10  1  0  0  0  0
  9  1  1  0  0  0  0
 10  2  1  0  0  0  0
 12  4  2  0  0  0  0
 12  5  1  0  0  0  0
 13 16  1  0  0  0  0
 14  8  2  0  0  0  0
 15 16  1  0  0  0  0
 15 10  2  0  0  0  0
 17 22  1  0  0  0  0
 17 21  1  0  0  0  0
 18  3  1  0  0  0  0
 18  6  2  0  0  0  0
 19  8  1  0  0  0  0
 19  4  1  0  0  0  0
 21 20  1  0  0  0  0
 22 24  1  0  0  0  0
 23 25  1  0  0  0  0
 24 23  2  0  0  0  0
 25 26  1  6  0  0  0
 27 28  2  0  0  0  0
 28 25  1  0  0  0  0
 29 28  1  0  0  0  0
 30 29  1  0  0  0  0
 31 30  1  0  0  0  0
 32 31  1  0  0  0  0
 33 31  1  0  0  0  0
M  END
>  <MODEL>
4

>  <REMARK>
 VINA RESULT:      -7.5      2.503      4.218
  Name = 
  7 active torsions:
  status: ('A' for Active; 'I' for Inactive)
    1  A    between atoms: C_10  and  C_31
    2  A    between atoms: C_11  and  C_26
    3  A    between atoms: C_11  and  C_28
    4  A    between atoms: C_13  and  C_23
    5  A    between atoms: C_13  and  C_24
    6  A    between atoms: C_26  and  C_27
    7  A    between atoms: N_29  and  C_31
                            x       y       z     vdW  Elec       q    Type
                         _______ _______ _______ _____ _____    ______ ____

>  <TORSDO>
F 7

$$$$
=
 OpenBabel11062418563D

 33 35  0  0  1  0  0  0  0  0999 V2000
  188.7050  176.0460  147.1100 N   0  0  0  0  0  2  0  0  0  0  0  0
  189.7640  175.7370  144.4390 C   0  0  2  0  0  3  0  0  0  0  0  0
  190.7050  175.8940  145.6040 C   0  0  0  0  0  0  0  0  0  0  0  0
  186.3350  177.3040  143.8290 C   0  0  0  0  0  0  0  0  0  0  0  0
  186.5830  176.9000  146.2040 C   0  0  0  0  0  0  0  0  0  0  0  0
  190.7830  175.4620  147.9620 O   0  0  0  0  0  0  0  0  0  0  0  0
  185.9970  176.9580  147.5730 C   0  0  0  0  0  1  0  0  0  0  0  0
  186.1230  177.9400  141.4410 C   0  0  0  0  0  0  0  0  0  0  0  0
  187.8910  176.4310  145.9930 C   0  0  0  0  0  0  0  0  0  0  0  0
  188.4160  176.3710  144.6840 C   0  0  0  0  0  0  0  0  0  0  0  0
  189.6070  174.3800  144.1390 O   0  0  0  0  0  1  0  0  0  0  0  0
  185.8140  177.3330  145.1230 C   0  0  0  0  0  3  0  0  0  0  0  0
  187.6020  177.7910  141.2720 C   0  0  0  0  0  2  0  0  0  0  0  0
  185.4040  178.2680  140.4630 O   0  0  0  0  0  0  0  0  0  0  0  0
  187.6390  176.8220  143.6000 C   0  0  0  0  0  0  0  0  0  0  0  0
  188.1330  176.6810  142.1810 C   0  0  0  0  0  2  0  0  0  0  0  0
  192.0200  176.1130  145.3830 C   0  0  0  0  0  0  0  0  0  0  0  0
  190.1010  175.7870  146.9550 C   0  0  0  0  0  0  0  0  0  0  0  0
  185.5410  177.7730  142.7360 N   0  0  0  0  0  2  0  0  0  0  0  0
  194.2870  176.9140  145.9620 C   0  0  0  0  0  1  0  0  0  0  0  0
  192.9940  176.3320  146.5000 C   0  0  0  0  0  2  0  0  0  0  0  0
  192.5590  176.1970  143.9810 C   0  0  0  0  0  2  0  0  0  0  0  0
  192.4380  174.6290  142.0740 C   0  0  0  0  0  3  0  0  0  0  0  0
  192.7260  174.8420  143.3620 C   0  0  0  0  0  3  0  0  0  0  0  0
  192.5550  173.2760  141.4390 C   0  0  1  0  0  3  0  0  0  0  0  0
  193.4140  172.4530  142.1730 O   0  0  0  0  0  1  0  0  0  0  0  0
  191.0680  171.4020  141.5260 O   0  0  0  0  0  0  0  0  0  0  0  0
  191.2170  172.6310  141.2810 C   0  0  0  0  0  0  0  0  0  0  0  0
  190.1070  173.4250  140.8550 N   0  0  0  0  0  2  0  0  0  0  0  0
  188.7430  172.9160  140.8300 C   0  0  0  0  0  2  0  0  0  0  0  0
  188.2610  172.7680  139.3960 C   0  0  0  0  0  3  0  0  0  0  0  0
  189.0140  171.7980  138.7290 O   0  0  0  0  0  1  0  0  0  0  0  0
  188.3870  173.9880  138.7360 O   0  0  0  0  0  1  0  0  0  0  0  0
  2 11  1  1  0  0  0
  2 10  1  0  0  0  0
  2  3  1  0  0  0  0
  3 18  1  0  0  0  0
  4 12  1  0  0  0  0
  5  7  1  0  0  0  0
  8 19  1  0  0  0  0
  9  5  1  0  0  0  0
  9  1  1  0  0  0  0
 10  9  2  0  0  0  0
 12  5  2  0  0  0  0
 13  8  1  0  0  0  0
 13 16  1  0  0  0  0
 14  8  2  0  0  0  0
 15  4  2  0  0  0  0
 15 10  1  0  0  0  0
 16 15  1  0  0  0  0
 17  3  2  0  0  0  0
 17 21  1  0  0  0  0
 18  1  1  0  0  0  0
 18  6  2  0  0  0  0
 19  4  1  0  0  0  0
 20 21  1  0  0  0  0
 22 17  1  0  0  0  0
 23 24  2  0  0  0  0
 24 22  1  0  0  0  0
 25 23  1  0  0  0  0
 25 26  1  1  0  0  0
 28 25  1  0  0  0  0
 28 27  2  0  0  0  0
 29 28  1  0  0  0  0
 30 29  1  0  0  0  0
 31 30  1  0  0  0  0
 32 31  1  0  0  0  0
 33 31  1  0  0  0  0
M  END
>  <MODEL>
5

>  <REMARK>
 VINA RESULT:      -7.5      2.611      7.140
  Name = 
  7 active torsions:
  status: ('A' for Active; 'I' for Inactive)
    1  A    between atoms: C_10  and  C_31
    2  A    between atoms: C_11  and  C_26
    3  A    between atoms: C_11  and  C_28
    4  A    between atoms: C_13  and  C_23
    5  A    between atoms: C_13  and  C_24
    6  A    between atoms: C_26  and  C_27
    7  A    between atoms: N_29  and  C_31
                            x       y       z     vdW  Elec       q    Type
                         _______ _______ _______ _____ _____    ______ ____

>  <TORSDO>
F 7

$$$$
=
 OpenBabel11062418563D

 33 35  0  0  1  0  0  0  0  0999 V2000
  192.7270  172.4560  143.9010 N   0  0  0  0  0  2  0  0  0  0  0  0
  189.9420  173.1420  144.2490 C   0  0  2  0  0  3  0  0  0  0  0  0
  190.4010  172.5070  142.9620 C   0  0  0  0  0  0  0  0  0  0  0  0
  191.7300  175.6250  146.5340 C   0  0  0  0  0  0  0  0  0  0  0  0
  193.3820  174.1340  145.5770 C   0  0  0  0  0  0  0  0  0  0  0  0
  192.1240  171.0440  142.1610 O   0  0  0  0  0  0  0  0  0  0  0  0
  194.8070  173.7080  145.4780 C   0  0  0  0  0  1  0  0  0  0  0  0
  190.1100  177.3090  147.3630 C   0  0  0  0  0  0  0  0  0  0  0  0
  192.3800  173.5000  144.8230 C   0  0  0  0  0  0  0  0  0  0  0  0
  191.0360  173.9130  144.9470 C   0  0  0  0  0  0  0  0  0  0  0  0
  189.4280  172.1610  145.1020 O   0  0  0  0  0  1  0  0  0  0  0  0
  193.0520  175.1910  146.4260 C   0  0  0  0  0  3  0  0  0  0  0  0
  189.1330  176.8850  146.3120 C   0  0  0  0  0  2  0  0  0  0  0  0
  189.8070  178.2170  148.1790 O   0  0  0  0  0  0  0  0  0  0  0  0
  190.7130  174.9880  145.7950 C   0  0  0  0  0  0  0  0  0  0  0  0
  189.2760  175.3900  146.0250 C   0  0  0  0  0  2  0  0  0  0  0  0
  189.5700  172.4620  141.8980 C   0  0  0  0  0  0  0  0  0  0  0  0
  191.7780  171.9530  142.9600 C   0  0  0  0  0  0  0  0  0  0  0  0
  191.4140  176.7240  147.3920 N   0  0  0  0  0  2  0  0  0  0  0  0
  190.5180  172.9940  139.6770 C   0  0  0  0  0  1  0  0  0  0  0  0
  189.9910  171.8940  140.5780 C   0  0  0  0  0  2  0  0  0  0  0  0
  188.1830  173.0360  141.9830 C   0  0  0  0  0  2  0  0  0  0  0  0
  187.4040  175.3450  142.4020 C   0  0  0  0  0  3  0  0  0  0  0  0
  188.1640  174.5060  141.6890 C   0  0  0  0  0  3  0  0  0  0  0  0
  187.3340  176.8130  142.1030 C   0  0  1  0  0  3  0  0  0  0  0  0
  187.1500  177.0360  140.7360 O   0  0  0  0  0  1  0  0  0  0  0  0
  185.0430  177.2940  142.6000 O   0  0  0  0  0  0  0  0  0  0  0  0
  186.2560  177.4790  142.8940 C   0  0  0  0  0  0  0  0  0  0  0  0
  186.6160  178.3220  143.9910 N   0  0  0  0  0  2  0  0  0  0  0  0
  185.6320  178.8780  144.9080 C   0  0  0  0  0  2  0  0  0  0  0  0
  185.5880  178.0630  146.1910 C   0  0  0  0  0  3  0  0  0  0  0  0
  184.2670  177.7720  146.5360 O   0  0  0  0  0  1  0  0  0  0  0  0
  186.1900  178.7850  147.2200 O   0  0  0  0  0  1  0  0  0  0  0  0
  1  9  1  0  0  0  0
  2 10  1  0  0  0  0
  2 11  1  1  0  0  0
  3  2  1  0  0  0  0
  4 19  1  0  0  0  0
  5 12  2  0  0  0  0
  6 18  2  0  0  0  0
  7  5  1  0  0  0  0
  8 19  1  0  0  0  0
  8 14  2  0  0  0  0
  9 10  2  0  0  0  0
  9  5  1  0  0  0  0
 10 15  1  0  0  0  0
 12  4  1  0  0  0  0
 13  8  1  0  0  0  0
 15 16  1  0  0  0  0
 15  4  2  0  0  0  0
 16 13  1  0  0  0  0
 17 22  1  0  0  0  0
 17  3  2  0  0  0  0
 18  3  1  0  0  0  0
 18  1  1  0  0  0  0
 20 21  1  0  0  0  0
 21 17  1  0  0  0  0
 24 22  1  0  0  0  0
 24 23  2  0  0  0  0
 25 26  1  6  0  0  0
 25 23  1  0  0  0  0
 25 28  1  0  0  0  0
 27 28  2  0  0  0  0
 28 29  1  0  0  0  0
 29 30  1  0  0  0  0
 30 31  1  0  0  0  0
 31 32  1  0  0  0  0
 31 33  1  0  0  0  0
M  END
>  <MODEL>
6

>  <REMARK>
 VINA RESULT:      -7.5      2.673      5.854
  Name = 
  7 active torsions:
  status: ('A' for Active; 'I' for Inactive)
    1  A    between atoms: C_10  and  C_31
    2  A    between atoms: C_11  and  C_26
    3  A    between atoms: C_11  and  C_28
    4  A    between atoms: C_13  and  C_23
    5  A    between atoms: C_13  and  C_24
    6  A    between atoms: C_26  and  C_27
    7  A    between atoms: N_29  and  C_31
                            x       y       z     vdW  Elec       q    Type
                         _______ _______ _______ _____ _____    ______ ____

>  <TORSDO>
F 7

$$$$
=
 OpenBabel11062418563D

 33 35  0  0  1  0  0  0  0  0999 V2000
  191.8330  173.0810  142.2690 N   0  0  0  0  0  2  0  0  0  0  0  0
  191.9800  175.8040  143.2250 C   0  0  2  0  0  3  0  0  0  0  0  0
  192.8150  174.7350  143.8800 C   0  0  0  0  0  0  0  0  0  0  0  0
  188.4690  175.6040  141.7350 C   0  0  0  0  0  0  0  0  0  0  0  0
  189.5910  173.4940  141.3430 C   0  0  0  0  0  0  0  0  0  0  0  0
  193.8410  172.6340  143.3430 O   0  0  0  0  0  0  0  0  0  0  0  0
  189.5580  172.1250  140.7550 C   0  0  0  0  0  1  0  0  0  0  0  0
  187.2050  177.6610  142.3060 C   0  0  0  0  0  0  0  0  0  0  0  0
  190.7130  173.9520  142.0540 C   0  0  0  0  0  0  0  0  0  0  0  0
  190.7250  175.2600  142.5860 C   0  0  0  0  0  0  0  0  0  0  0  0
  192.7460  176.4840  142.2730 O   0  0  0  0  0  1  0  0  0  0  0  0
  188.4770  174.3210  141.1880 C   0  0  0  0  0  3  0  0  0  0  0  0
  188.2260  177.9980  143.3460 C   0  0  0  0  0  2  0  0  0  0  0  0
  186.2270  178.4260  142.1070 O   0  0  0  0  0  0  0  0  0  0  0  0
  189.5930  176.0830  142.4370 C   0  0  0  0  0  0  0  0  0  0  0  0
  189.6100  177.5170  142.9090 C   0  0  0  0  0  2  0  0  0  0  0  0
  193.4550  174.9950  145.0400 C   0  0  0  0  0  0  0  0  0  0  0  0
  192.8800  173.4310  143.1740 C   0  0  0  0  0  0  0  0  0  0  0  0
  187.3110  176.4300  141.5860 N   0  0  0  0  0  2  0  0  0  0  0  0
  195.7190  174.3500  145.8000 C   0  0  0  0  0  1  0  0  0  0  0  0
  194.2540  173.9560  145.7640 C   0  0  0  0  0  2  0  0  0  0  0  0
  193.3490  176.3490  145.6880 C   0  0  0  0  0  2  0  0  0  0  0  0
  190.9940  176.7980  146.2890 C   0  0  0  0  0  3  0  0  0  0  0  0
  192.2170  176.4140  146.6680 C   0  0  0  0  0  3  0  0  0  0  0  0
  189.8530  176.9140  147.2560 C   0  0  1  0  0  3  0  0  0  0  0  0
  189.7540  178.2130  147.7580 O   0  0  0  0  0  1  0  0  0  0  0  0
  188.5270  175.4950  145.8570 O   0  0  0  0  0  0  0  0  0  0  0  0
  188.5640  176.4910  146.6300 C   0  0  0  0  0  0  0  0  0  0  0  0
  187.3740  177.2280  146.9210 N   0  0  0  0  0  2  0  0  0  0  0  0
  186.0560  176.7910  146.4840 C   0  0  0  0  0  2  0  0  0  0  0  0
  185.3420  177.9180  145.7540 C   0  0  0  0  0  3  0  0  0  0  0  0
  186.0480  179.1130  145.8990 O   0  0  0  0  0  1  0  0  0  0  0  0
  184.0590  178.0690  146.2750 O   0  0  0  0  0  1  0  0  0  0  0  0
  1 18  1  0  0  0  0
  2 11  1  6  0  0  0
  2  3  1  0  0  0  0
  3 17  2  0  0  0  0
  4 15  1  0  0  0  0
  5  9  2  0  0  0  0
  7  5  1  0  0  0  0
  8 13  1  0  0  0  0
  9  1  1  0  0  0  0
  9 10  1  0  0  0  0
 10  2  1  0  0  0  0
 12  5  1  0  0  0  0
 12  4  2  0  0  0  0
 14  8  2  0  0  0  0
 15 10  2  0  0  0  0
 15 16  1  0  0  0  0
 16 13  1  0  0  0  0
 17 22  1  0  0  0  0
 17 21  1  0  0  0  0
 18  6  2  0  0  0  0
 18  3  1  0  0  0  0
 19  4  1  0  0  0  0
 19  8  1  0  0  0  0
 21 20  1  0  0  0  0
 22 24  1  0  0  0  0
 23 24  2  0  0  0  0
 23 25  1  0  0  0  0
 25 26  1  6  0  0  0
 27 28  2  0  0  0  0
 28 29  1  0  0  0  0
 28 25  1  0  0  0  0
 30 29  1  0  0  0  0
 31 32  1  0  0  0  0
 31 33  1  0  0  0  0
 31 30  1  0  0  0  0
M  END
>  <MODEL>
7

>  <REMARK>
 VINA RESULT:      -7.5      3.062      6.592
  Name = 
  7 active torsions:
  status: ('A' for Active; 'I' for Inactive)
    1  A    between atoms: C_10  and  C_31
    2  A    between atoms: C_11  and  C_26
    3  A    between atoms: C_11  and  C_28
    4  A    between atoms: C_13  and  C_23
    5  A    between atoms: C_13  and  C_24
    6  A    between atoms: C_26  and  C_27
    7  A    between atoms: N_29  and  C_31
                            x       y       z     vdW  Elec       q    Type
                         _______ _______ _______ _____ _____    ______ ____

>  <TORSDO>
F 7

$$$$
=
 OpenBabel11062418563D

 33 35  0  0  1  0  0  0  0  0999 V2000
  188.6420  177.1990  146.8900 N   0  0  0  0  0  2  0  0  0  0  0  0
  189.1430  176.2330  144.2140 C   0  0  2  0  0  3  0  0  0  0  0  0
  190.2980  176.4790  145.1490 C   0  0  0  0  0  0  0  0  0  0  0  0
  185.8430  178.1190  143.8440 C   0  0  0  0  0  0  0  0  0  0  0  0
  186.4890  178.1520  146.1780 C   0  0  0  0  0  0  0  0  0  0  0  0
  190.7710  176.5040  147.5000 O   0  0  0  0  0  0  0  0  0  0  0  0
  186.1790  178.5550  147.5780 C   0  0  0  0  0  1  0  0  0  0  0  0
  185.2550  178.3040  141.4410 C   0  0  0  0  0  0  0  0  0  0  0  0
  187.6780  177.4710  145.8640 C   0  0  0  0  0  0  0  0  0  0  0  0
  187.9390  177.0860  144.5310 C   0  0  0  0  0  0  0  0  0  0  0  0
  188.7920  174.8800  144.2420 O   0  0  0  0  0  1  0  0  0  0  0  0
  185.5800  178.4710  145.1680 C   0  0  0  0  0  3  0  0  0  0  0  0
  186.6520  177.9180  141.0710 C   0  0  0  0  0  2  0  0  0  0  0  0
  184.4030  178.5350  140.5450 O   0  0  0  0  0  0  0  0  0  0  0  0
  187.0240  177.4240  143.5160 C   0  0  0  0  0  0  0  0  0  0  0  0
  187.2250  176.9430  142.1000 C   0  0  0  0  0  2  0  0  0  0  0  0
  191.5640  176.4630  144.6760 C   0  0  0  0  0  0  0  0  0  0  0  0
  189.9500  176.7210  146.5710 C   0  0  0  0  0  0  0  0  0  0  0  0
  184.9110  178.4750  142.8190 N   0  0  0  0  0  2  0  0  0  0  0  0
  193.3530  175.4620  146.0580 C   0  0  0  0  0  1  0  0  0  0  0  0
  192.7460  176.7550  145.5470 C   0  0  0  0  0  2  0  0  0  0  0  0
  191.8360  176.1970  143.2210 C   0  0  0  0  0  2  0  0  0  0  0  0
  194.0020  175.4080  142.3300 C   0  0  0  0  0  3  0  0  0  0  0  0
  193.2810  176.3940  142.8750 C   0  0  0  0  0  3  0  0  0  0  0  0
  195.4600  175.5630  142.0130 C   0  0  1  0  0  3  0  0  0  0  0  0
  195.7070  176.7860  141.3840 O   0  0  0  0  0  1  0  0  0  0  0  0
  197.1710  176.2930  143.5190 O   0  0  0  0  0  0  0  0  0  0  0  0
  196.3010  175.4230  143.2400 C   0  0  0  0  0  0  0  0  0  0  0  0
  196.1050  174.2930  144.0930 N   0  0  0  0  0  2  0  0  0  0  0  0
  196.7660  174.1630  145.3840 C   0  0  0  0  0  2  0  0  0  0  0  0
  196.9230  172.6960  145.7500 C   0  0  0  0  0  3  0  0  0  0  0  0
  197.7520  172.0530  144.8290 O   0  0  0  0  0  1  0  0  0  0  0  0
  195.6720  172.0820  145.7570 O   0  0  0  0  0  1  0  0  0  0  0  0
  2 11  1  1  0  0  0
  2 10  1  0  0  0  0
  2  3  1  0  0  0  0
  3 18  1  0  0  0  0
  4 12  1  0  0  0  0
  5  7  1  0  0  0  0
  8 19  1  0  0  0  0
  9  5  1  0  0  0  0
  9  1  1  0  0  0  0
 10  9  2  0  0  0  0
 12  5  2  0  0  0  0
 13  8  1  0  0  0  0
 13 16  1  0  0  0  0
 14  8  2  0  0  0  0
 15  4  2  0  0  0  0
 15 10  1  0  0  0  0
 16 15  1  0  0  0  0
 17  3  2  0  0  0  0
 17 21  1  0  0  0  0
 18  1  1  0  0  0  0
 18  6  2  0  0  0  0
 19  4  1  0  0  0  0
 21 20  1  0  0  0  0
 22 17  1  0  0  0  0
 23 24  2  0  0  0  0
 24 22  1  0  0  0  0
 25 26  1  1  0  0  0
 25 23  1  0  0  0  0
 25 28  1  0  0  0  0
 28 27  2  0  0  0  0
 28 29  1  0  0  0  0
 29 30  1  0  0  0  0
 30 31  1  0  0  0  0
 31 33  1  0  0  0  0
 32 31  1  0  0  0  0
M  END
>  <MODEL>
8

>  <REMARK>
 VINA RESULT:      -7.4      3.710      9.505
  Name = 
  7 active torsions:
  status: ('A' for Active; 'I' for Inactive)
    1  A    between atoms: C_10  and  C_31
    2  A    between atoms: C_11  and  C_26
    3  A    between atoms: C_11  and  C_28
    4  A    between atoms: C_13  and  C_23
    5  A    between atoms: C_13  and  C_24
    6  A    between atoms: C_26  and  C_27
    7  A    between atoms: N_29  and  C_31
                            x       y       z     vdW  Elec       q    Type
                         _______ _______ _______ _____ _____    ______ ____

>  <TORSDO>
F 7

$$$$
=
 OpenBabel11062418563D

 33 35  0  0  1  0  0  0  0  0999 V2000
  188.9170  175.9710  147.1620 N   0  0  0  0  0  2  0  0  0  0  0  0
  189.9960  175.7660  144.4900 C   0  0  2  0  0  3  0  0  0  0  0  0
  190.9270  175.9180  145.6630 C   0  0  0  0  0  0  0  0  0  0  0  0
  186.5270  177.2540  143.9050 C   0  0  0  0  0  0  0  0  0  0  0  0
  186.7760  176.7910  146.2690 C   0  0  0  0  0  0  0  0  0  0  0  0
  191.0070  175.4220  148.0090 O   0  0  0  0  0  0  0  0  0  0  0  0
  186.1820  176.7940  147.6360 C   0  0  0  0  0  1  0  0  0  0  0  0
  186.3080  177.9500  141.5350 C   0  0  0  0  0  0  0  0  0  0  0  0
  188.0970  176.3640  146.0520 C   0  0  0  0  0  0  0  0  0  0  0  0
  188.6300  176.3560  144.7450 C   0  0  0  0  0  0  0  0  0  0  0  0
  189.8780  174.4150  144.1510 O   0  0  0  0  0  1  0  0  0  0  0  0
  186.0000  177.2320  145.1970 C   0  0  0  0  0  3  0  0  0  0  0  0
  187.7910  177.8470  141.3690 C   0  0  0  0  0  2  0  0  0  0  0  0
  185.5850  178.2850  140.5620 O   0  0  0  0  0  0  0  0  0  0  0  0
  187.8450  176.8150  143.6700 C   0  0  0  0  0  0  0  0  0  0  0  0
  188.3490  176.7280  142.2500 C   0  0  0  0  0  2  0  0  0  0  0  0
  192.2370  176.1800  145.4550 C   0  0  0  0  0  0  0  0  0  0  0  0
  190.3200  175.7560  147.0070 C   0  0  0  0  0  0  0  0  0  0  0  0
  185.7250  177.7300  142.8210 N   0  0  0  0  0  2  0  0  0  0  0  0
  194.4170  177.1550  146.0960 C   0  0  0  0  0  1  0  0  0  0  0  0
  193.1980  176.3940  146.5830 C   0  0  0  0  0  2  0  0  0  0  0  0
  192.7790  176.3180  144.0590 C   0  0  0  0  0  2  0  0  0  0  0  0
  193.3140  173.9090  144.2140 C   0  0  0  0  0  3  0  0  0  0  0  0
  193.1090  174.9880  143.4510 C   0  0  0  0  0  3  0  0  0  0  0  0
  193.6860  172.5770  143.6350 C   0  0  1  0  0  3  0  0  0  0  0  0
  194.5340  171.8770  144.4960 O   0  0  0  0  0  1  0  0  0  0  0  0
  191.9860  170.9820  144.1790 O   0  0  0  0  0  0  0  0  0  0  0  0
  192.4730  171.7640  143.3170 C   0  0  0  0  0  0  0  0  0  0  0  0
  191.8700  171.8870  142.0260 N   0  0  0  0  0  2  0  0  0  0  0  0
  190.6020  171.2570  141.6910 C   0  0  0  0  0  2  0  0  0  0  0  0
  189.6280  172.2900  141.1460 C   0  0  0  0  0  3  0  0  0  0  0  0
  190.2660  173.5220  140.9880 O   0  0  0  0  0  1  0  0  0  0  0  0
  188.5580  172.4300  142.0290 O   0  0  0  0  0  1  0  0  0  0  0  0
  2 11  1  1  0  0  0
  2 10  1  0  0  0  0
  2  3  1  0  0  0  0
  3 18  1  0  0  0  0
  4 12  1  0  0  0  0
  5  7  1  0  0  0  0
  8 19  1  0  0  0  0
  9  5  1  0  0  0  0
  9  1  1  0  0  0  0
 10  9  2  0  0  0  0
 12  5  2  0  0  0  0
 13  8  1  0  0  0  0
 13 16  1  0  0  0  0
 14  8  2  0  0  0  0
 15  4  2  0  0  0  0
 15 10  1  0  0  0  0
 16 15  1  0  0  0  0
 17  3  2  0  0  0  0
 17 21  1  0  0  0  0
 18  1  1  0  0  0  0
 18  6  2  0  0  0  0
 19  4  1  0  0  0  0
 20 21  1  0  0  0  0
 22 17  1  0  0  0  0
 24 22  1  0  0  0  0
 24 23  2  0  0  0  0
 25 23  1  0  0  0  0
 25 26  1  1  0  0  0
 28 25  1  0  0  0  0
 28 27  2  0  0  0  0
 29 28  1  0  0  0  0
 30 29  1  0  0  0  0
 31 30  1  0  0  0  0
 31 33  1  0  0  0  0
 32 31  1  0  0  0  0
M  END
>  <MODEL>
9

>  <REMARK>
 VINA RESULT:      -7.4      2.689      7.726
  Name = 
  7 active torsions:
  status: ('A' for Active; 'I' for Inactive)
    1  A    between atoms: C_10  and  C_31
    2  A    between atoms: C_11  and  C_26
    3  A    between atoms: C_11  and  C_28
    4  A    between atoms: C_13  and  C_23
    5  A    between atoms: C_13  and  C_24
    6  A    between atoms: C_26  and  C_27
    7  A    between atoms: N_29  and  C_31
                            x       y       z     vdW  Elec       q    Type
                         _______ _______ _______ _____ _____    ______ ____

>  <TORSDO>
F 7

$$$$
