=
 OpenBabel11062418453D

 43 46  0  0  1  0  0  0  0  0999 V2000
  190.2480  172.7100  144.7330 N   0  0  0  0  0  2  0  0  0  0  0  0
  189.4700  173.3280  145.6510 O   0  0  0  0  0  0  0  0  0  0  0  0
  190.3450  174.1600  146.3500 C   0  0  0  0  0  2  0  0  0  0  0  0
  187.6910  176.8220  146.6750 C   0  0  0  0  0  0  0  0  0  0  0  0
  189.6720  175.4510  146.6530 C   0  0  0  0  0  0  0  0  0  0  0  0
  190.4170  176.5400  147.1110 C   0  0  0  0  0  3  0  0  0  0  0  0
  188.3030  175.5920  146.4250 C   0  0  0  0  0  3  0  0  0  0  0  0
  188.4350  177.8730  147.1220 N   0  0  0  0  0  0  0  0  0  0  0  0
  189.7720  177.7560  147.3460 C   0  0  0  0  0  3  0  0  0  0  0  0
  186.2280  176.9870  146.3920 C   0  0  2  0  0  3  0  0  0  0  0  0
  186.7080  176.6870  143.9160 C   0  0  0  0  0  3  0  0  0  0  0  0
  185.9480  177.2860  144.9320 C   0  0  0  0  0  0  0  0  0  0  0  0
  185.6310  178.0440  147.3260 C   0  0  0  0  0  2  0  0  0  0  0  0
  184.0260  178.6720  145.5970 N   0  0  0  0  0  2  0  0  0  0  0  0
  184.1610  178.2670  146.9930 C   0  0  0  0  0  2  0  0  0  0  0  0
  185.3380  177.7610  142.2230 C   0  0  0  0  0  0  0  0  0  0  0  0
  184.5570  178.3370  143.2350 C   0  0  0  0  0  3  0  0  0  0  0  0
  186.4090  176.9280  142.5730 C   0  0  0  0  0  3  0  0  0  0  0  0
  184.8460  178.0900  144.5800 C   0  0  0  0  0  0  0  0  0  0  0  0
  185.0250  178.0160  140.8050 C   0  0  0  0  0  0  0  0  0  0  0  0
  183.7160  178.4250  140.4160 N   0  0  0  0  0  1  0  0  0  0  0  0
  185.9140  177.8780  139.9230 O   0  0  0  0  0  0  0  0  0  0  0  0
  189.4990  172.6400  143.5470 N   0  0  0  0  0  2  0  0  0  0  0  0
  190.0910  173.5430  142.5560 C   0  0  2  0  0  3  0  0  0  0  0  0
  189.5250  174.9520  142.6760 C   0  0  0  0  0  2  0  0  0  0  0  0
  190.2030  177.2050  143.0140 O   0  0  0  0  0  1  0  0  0  0  0  0
  190.6160  175.9890  142.4600 C   0  0  1  0  0  3  0  0  0  0  0  0
  191.9180  175.5180  143.1110 C   0  0  2  0  0  3  0  0  0  0  0  0
  192.2330  176.3270  144.2050 O   0  0  0  0  0  1  0  0  0  0  0  0
  193.0720  175.5840  142.1190 C   0  0  0  0  0  2  0  0  0  0  0  0
  194.2600  175.9360  142.7610 O   0  0  0  0  0  0  0  0  0  0  0  0
  194.9570  174.7340  142.8880 C   0  0  0  0  0  2  0  0  0  0  0  0
  196.2060  174.9540  143.6090 N   0  0  0  0  0  0  0  0  0  0  0  0
  196.5440  176.3700  143.5320 C   0  0  0  0  0  1  0  0  0  0  0  0
  196.0460  174.5700  145.0170 C   0  0  0  0  0  2  0  0  0  0  0  0
  196.8580  172.4560  146.0210 C   0  0  0  0  0  2  0  0  0  0  0  0
  197.6210  172.6660  144.7310 C   0  0  0  0  0  2  0  0  0  0  0  0
  197.2660  173.8540  145.6010 C   0  0  0  0  0  3  0  0  0  0  0  0
  189.9100  173.0160  141.1390 C   0  0  0  0  0  2  0  0  0  0  0  0
  188.7090  173.5830  140.5470 N   0  0  0  0  0  2  0  0  0  0  0  0
  188.8920  173.5610  139.1050 C   0  0  0  0  0  2  0  0  0  0  0  0
  188.3940  174.4990  137.1700 C   0  0  0  0  0  1  0  0  0  0  0  0
  187.9800  174.4280  138.5010 O   0  0  0  0  0  0  0  0  0  0  0  0
  1  2  1  0  0  0  0
  2  3  1  0  0  0  0
  3  5  1  0  0  0  0
  4  8  1  0  0  0  0
  5  6  2  0  0  0  0
  6  9  1  0  0  0  0
  7  5  1  0  0  0  0
  7  4  2  0  0  0  0
  8  9  2  0  0  0  0
 10  4  1  6  0  0  0
 10 13  1  0  0  0  0
 11 12  1  0  0  0  0
 12 10  1  0  0  0  0
 14 15  1  0  0  0  0
 15 13  1  0  0  0  0
 16 18  1  0  0  0  0
 16 17  2  0  0  0  0
 17 19  1  0  0  0  0
 18 11  2  0  0  0  0
 19 12  2  0  0  0  0
 19 14  1  0  0  0  0
 20 16  1  0  0  0  0
 21 20  1  0  0  0  0
 22 20  2  0  0  0  0
 23  1  1  0  0  0  0
 24 39  1  6  0  0  0
 24 25  1  0  0  0  0
 24 23  1  0  0  0  0
 27 25  1  0  0  0  0
 27 26  1  1  0  0  0
 27 28  1  0  0  0  0
 28 29  1  1  0  0  0
 30 31  1  0  0  0  0
 30 28  1  0  0  0  0
 31 32  1  0  0  0  0
 32 33  1  0  0  0  0
 33 35  1  0  0  0  0
 34 33  1  0  0  0  0
 35 38  1  0  0  0  0
 37 38  1  0  0  0  0
 37 36  1  0  0  0  0
 38 36  1  0  0  0  0
 40 39  1  0  0  0  0
 41 40  1  0  0  0  0
 42 43  1  0  0  0  0
 43 41  1  0  0  0  0
M  END
>  <MODEL>
1

>  <REMARK>
 VINA RESULT:      -6.3      0.000      0.000
  Name = 
  20 active torsions:
  status: ('A' for Active; 'I' for Inactive)
    1  A    between atoms: N_1  and  C_24
    2  A    between atoms: N_1  and  C_36
    3  A    between atoms: N_3  and  C_20
    4  A    between atoms: N_3  and  C_31
    5  A    between atoms: C_4  and  C_10
    6  A    between atoms: C_4  and  C_13
    7  A    between atoms: O_5  and  N_32
    8  A    between atoms: O_5  and  C_43
    9  A    between atoms: C_7  and  C_8
   10  A    between atoms: C_10  and  O_23
   11  A    between atoms: C_12  and  C_43
   12  A    between atoms: C_13  and  C_14
   13  A    between atoms: C_14  and  C_26
   14  A    between atoms: C_18  and  C_29
   15  A    between atoms: C_20  and  C_26
   16  A    between atoms: O_23  and  C_24
   17  A    between atoms: C_26  and  N_37
   18  A    between atoms: O_27  and  C_31
   19  A    between atoms: N_32  and  N_37
   20  A    between atoms: C_36  and  C_42
                            x       y       z     vdW  Elec       q    Type
                         _______ _______ _______ _____ _____    ______ ____

>  <TORSDO>
F 20

$$$$
=
 OpenBabel11062418453D

 43 46  0  0  1  0  0  0  0  0999 V2000
  193.0310  176.6750  143.5400 N   0  0  0  0  0  2  0  0  0  0  0  0
  191.7920  176.1970  143.7960 O   0  0  0  0  0  0  0  0  0  0  0  0
  191.2360  177.1220  144.6790 C   0  0  0  0  0  2  0  0  0  0  0  0
  188.0150  176.2850  146.4600 C   0  0  0  0  0  0  0  0  0  0  0  0
  190.2430  176.4430  145.5540 C   0  0  0  0  0  0  0  0  0  0  0  0
  190.6380  175.3800  146.3690 C   0  0  0  0  0  3  0  0  0  0  0  0
  188.9270  176.9050  145.6030 C   0  0  0  0  0  3  0  0  0  0  0  0
  188.4200  175.2480  147.2470 N   0  0  0  0  0  0  0  0  0  0  0  0
  189.6990  174.7860  147.2160 C   0  0  0  0  0  3  0  0  0  0  0  0
  186.6130  176.8070  146.5430 C   0  0  2  0  0  3  0  0  0  0  0  0
  186.3580  176.4210  144.0460 C   0  0  0  0  0  3  0  0  0  0  0  0
  186.0490  177.1790  145.1850 C   0  0  0  0  0  0  0  0  0  0  0  0
  186.5460  177.9700  147.5370 C   0  0  0  0  0  2  0  0  0  0  0  0
  184.7520  178.9900  146.2330 N   0  0  0  0  0  2  0  0  0  0  0  0
  185.1380  178.5510  147.5710 C   0  0  0  0  0  2  0  0  0  0  0  0
  184.9000  177.8150  142.6930 C   0  0  0  0  0  0  0  0  0  0  0  0
  184.5660  178.5560  143.8350 C   0  0  0  0  0  3  0  0  0  0  0  0
  185.7920  176.7410  142.8090 C   0  0  0  0  0  3  0  0  0  0  0  0
  185.1210  178.2330  145.0760 C   0  0  0  0  0  0  0  0  0  0  0  0
  184.3060  178.1520  141.3860 C   0  0  0  0  0  0  0  0  0  0  0  0
  185.1340  178.3100  140.2370 N   0  0  0  0  0  1  0  0  0  0  0  0
  183.0610  178.2990  141.2720 O   0  0  0  0  0  0  0  0  0  0  0  0
  193.8070  176.4270  144.6850 N   0  0  0  0  0  2  0  0  0  0  0  0
  195.0050  175.6780  144.2970 C   0  0  2  0  0  3  0  0  0  0  0  0
  195.5360  174.8380  145.4500 C   0  0  0  0  0  2  0  0  0  0  0  0
  196.2960  172.6630  146.0380 O   0  0  0  0  0  1  0  0  0  0  0  0
  195.5680  173.3650  145.0720 C   0  0  1  0  0  3  0  0  0  0  0  0
  194.1410  172.8210  144.9770 C   0  0  2  0  0  3  0  0  0  0  0  0
  194.0440  171.5960  145.6390 O   0  0  0  0  0  1  0  0  0  0  0  0
  193.7380  172.6140  143.5240 C   0  0  0  0  0  2  0  0  0  0  0  0
  192.3680  172.3710  143.4170 O   0  0  0  0  0  0  0  0  0  0  0  0
  192.1250  172.3470  142.0430 C   0  0  0  0  0  2  0  0  0  0  0  0
  191.6010  173.6370  141.6050 N   0  0  0  0  0  0  0  0  0  0  0  0
  192.5550  174.2360  140.6800 C   0  0  0  0  0  1  0  0  0  0  0  0
  190.3160  173.4490  140.9210 C   0  0  0  0  0  2  0  0  0  0  0  0
  188.0600  173.5020  141.9430 C   0  0  0  0  0  2  0  0  0  0  0  0
  189.0170  174.1360  142.9290 C   0  0  0  0  0  2  0  0  0  0  0  0
  189.2030  174.3610  141.4420 C   0  0  0  0  0  3  0  0  0  0  0  0
  196.0930  176.5990  143.7630 C   0  0  0  0  0  2  0  0  0  0  0  0
  197.2460  175.8170  143.3470 N   0  0  0  0  0  2  0  0  0  0  0  0
  197.2990  175.8710  141.8960 C   0  0  0  0  0  2  0  0  0  0  0  0
  196.0870  175.3540  140.1250 C   0  0  0  0  0  1  0  0  0  0  0  0
  196.5110  174.8530  141.3560 O   0  0  0  0  0  0  0  0  0  0  0  0
  1  2  1  0  0  0  0
  1 23  1  0  0  0  0
  2  3  1  0  0  0  0
  3  5  1  0  0  0  0
  4  8  1  0  0  0  0
  5  7  1  0  0  0  0
  5  6  2  0  0  0  0
  6  9  1  0  0  0  0
  7  4  2  0  0  0  0
  9  8  2  0  0  0  0
 10  4  1  6  0  0  0
 10 13  1  0  0  0  0
 11 12  1  0  0  0  0
 12 10  1  0  0  0  0
 13 15  1  0  0  0  0
 14 15  1  0  0  0  0
 16 18  1  0  0  0  0
 16 17  2  0  0  0  0
 17 19  1  0  0  0  0
 18 11  2  0  0  0  0
 19 12  2  0  0  0  0
 19 14  1  0  0  0  0
 20 16  1  0  0  0  0
 21 20  1  0  0  0  0
 22 20  2  0  0  0  0
 24 39  1  1  0  0  0
 24 23  1  0  0  0  0
 24 25  1  0  0  0  0
 27 25  1  0  0  0  0
 27 26  1  1  0  0  0
 28 27  1  0  0  0  0
 28 29  1  1  0  0  0
 30 28  1  0  0  0  0
 31 30  1  0  0  0  0
 32 31  1  0  0  0  0
 33 32  1  0  0  0  0
 34 33  1  0  0  0  0
 35 38  1  0  0  0  0
 35 33  1  0  0  0  0
 36 37  1  0  0  0  0
 38 36  1  0  0  0  0
 38 37  1  0  0  0  0
 40 39  1  0  0  0  0
 41 40  1  0  0  0  0
 42 43  1  0  0  0  0
 43 41  1  0  0  0  0
M  END
>  <MODEL>
2

>  <REMARK>
 VINA RESULT:      -6.2      2.143      5.144
  Name = 
  20 active torsions:
  status: ('A' for Active; 'I' for Inactive)
    1  A    between atoms: N_1  and  C_24
    2  A    between atoms: N_1  and  C_36
    3  A    between atoms: N_3  and  C_20
    4  A    between atoms: N_3  and  C_31
    5  A    between atoms: C_4  and  C_10
    6  A    between atoms: C_4  and  C_13
    7  A    between atoms: O_5  and  N_32
    8  A    between atoms: O_5  and  C_43
    9  A    between atoms: C_7  and  C_8
   10  A    between atoms: C_10  and  O_23
   11  A    between atoms: C_12  and  C_43
   12  A    between atoms: C_13  and  C_14
   13  A    between atoms: C_14  and  C_26
   14  A    between atoms: C_18  and  C_29
   15  A    between atoms: C_20  and  C_26
   16  A    between atoms: O_23  and  C_24
   17  A    between atoms: C_26  and  N_37
   18  A    between atoms: O_27  and  C_31
   19  A    between atoms: N_32  and  N_37
   20  A    between atoms: C_36  and  C_42
                            x       y       z     vdW  Elec       q    Type
                         _______ _______ _______ _____ _____    ______ ____

>  <TORSDO>
F 20

$$$$
=
 OpenBabel11062418453D

 43 46  0  0  1  0  0  0  0  0999 V2000
  187.5080  175.8680  140.4010 N   0  0  0  0  0  2  0  0  0  0  0  0
  187.6770  177.1800  140.6850 O   0  0  0  0  0  0  0  0  0  0  0  0
  186.5520  177.8020  140.1440 C   0  0  0  0  0  2  0  0  0  0  0  0
  185.0810  178.5210  143.5440 C   0  0  0  0  0  0  0  0  0  0  0  0
  185.5710  178.0870  141.2250 C   0  0  0  0  0  0  0  0  0  0  0  0
  184.2020  178.0870  140.9480 C   0  0  0  0  0  3  0  0  0  0  0  0
  186.0150  178.2970  142.5310 C   0  0  0  0  0  3  0  0  0  0  0  0
  183.7490  178.5190  143.2540 N   0  0  0  0  0  0  0  0  0  0  0  0
  183.2970  178.3120  141.9870 C   0  0  0  0  0  3  0  0  0  0  0  0
  185.5560  178.7070  144.9540 C   0  0  2  0  0  3  0  0  0  0  0  0
  187.5370  177.2000  144.4490 C   0  0  0  0  0  3  0  0  0  0  0  0
  186.5820  177.6680  145.3640 C   0  0  0  0  0  0  0  0  0  0  0  0
  184.3580  178.7470  145.9080 C   0  0  0  0  0  2  0  0  0  0  0  0
  185.7190  177.7420  147.6680 N   0  0  0  0  0  2  0  0  0  0  0  0
  184.8400  178.8630  147.3490 C   0  0  0  0  0  2  0  0  0  0  0  0
  188.5540  175.8260  146.1740 C   0  0  0  0  0  0  0  0  0  0  0  0
  187.6200  176.3150  147.0990 C   0  0  0  0  0  3  0  0  0  0  0  0
  188.5110  176.2820  144.8500 C   0  0  0  0  0  3  0  0  0  0  0  0
  186.6510  177.2410  146.7050 C   0  0  0  0  0  0  0  0  0  0  0  0
  189.5800  174.8560  146.5940 C   0  0  0  0  0  0  0  0  0  0  0  0
  190.4510  175.1510  147.6830 N   0  0  0  0  0  1  0  0  0  0  0  0
  189.6950  173.7520  145.9970 O   0  0  0  0  0  0  0  0  0  0  0  0
  187.9000  175.1520  141.5450 N   0  0  0  0  0  2  0  0  0  0  0  0
  188.6390  173.9570  141.1280 C   0  0  2  0  0  3  0  0  0  0  0  0
  190.0470  173.9400  141.7090 C   0  0  0  0  0  2  0  0  0  0  0  0
  188.9840  172.1810  142.9050 O   0  0  0  0  0  1  0  0  0  0  0  0
  190.2350  172.7410  142.6270 C   0  0  1  0  0  3  0  0  0  0  0  0
  191.1450  171.7100  141.9560 C   0  0  2  0  0  3  0  0  0  0  0  0
  190.4770  170.4930  141.8140 O   0  0  0  0  0  1  0  0  0  0  0  0
  192.3980  171.4750  142.7880 C   0  0  0  0  0  2  0  0  0  0  0  0
  192.4560  172.3630  143.8620 O   0  0  0  0  0  0  0  0  0  0  0  0
  193.3420  171.7660  144.7610 C   0  0  0  0  0  2  0  0  0  0  0  0
  193.9410  172.7810  145.6220 N   0  0  0  0  0  0  0  0  0  0  0  0
  195.3090  173.0180  145.1770 C   0  0  0  0  0  1  0  0  0  0  0  0
  193.1780  174.0310  145.5280 C   0  0  0  0  0  2  0  0  0  0  0  0
  193.1670  176.4930  145.2460 C   0  0  0  0  0  2  0  0  0  0  0  0
  193.7430  176.1970  146.6140 C   0  0  0  0  0  2  0  0  0  0  0  0
  194.0560  175.2830  145.4480 C   0  0  0  0  0  3  0  0  0  0  0  0
  188.6870  173.8270  139.6120 C   0  0  0  0  0  2  0  0  0  0  0  0
  188.8630  172.4330  139.2380 N   0  0  0  0  0  2  0  0  0  0  0  0
  189.9930  172.3750  138.3260 C   0  0  0  0  0  2  0  0  0  0  0  0
  189.6480  170.1990  138.1870 C   0  0  0  0  0  1  0  0  0  0  0  0
  189.8040  171.3440  137.4040 O   0  0  0  0  0  0  0  0  0  0  0  0
  1  2  1  0  0  0  0
  1 23  1  0  0  0  0
  3  2  1  0  0  0  0
  3  5  1  0  0  0  0
  5  7  1  0  0  0  0
  6  5  2  0  0  0  0
  6  9  1  0  0  0  0
  7  4  2  0  0  0  0
  8  4  1  0  0  0  0
  9  8  2  0  0  0  0
 10  4  1  6  0  0  0
 10 12  1  0  0  0  0
 10 13  1  0  0  0  0
 11 18  2  0  0  0  0
 11 12  1  0  0  0  0
 12 19  2  0  0  0  0
 13 15  1  0  0  0  0
 15 14  1  0  0  0  0
 16 20  1  0  0  0  0
 16 17  2  0  0  0  0
 18 16  1  0  0  0  0
 19 17  1  0  0  0  0
 19 14  1  0  0  0  0
 20 21  1  0  0  0  0
 22 20  2  0  0  0  0
 24 39  1  6  0  0  0
 24 23  1  0  0  0  0
 24 25  1  0  0  0  0
 25 27  1  0  0  0  0
 27 26  1  6  0  0  0
 28 29  1  1  0  0  0
 28 27  1  0  0  0  0
 28 30  1  0  0  0  0
 30 31  1  0  0  0  0
 31 32  1  0  0  0  0
 32 33  1  0  0  0  0
 34 33  1  0  0  0  0
 35 33  1  0  0  0  0
 36 38  1  0  0  0  0
 36 37  1  0  0  0  0
 38 35  1  0  0  0  0
 38 37  1  0  0  0  0
 40 39  1  0  0  0  0
 41 40  1  0  0  0  0
 43 42  1  0  0  0  0
 43 41  1  0  0  0  0
M  END
>  <MODEL>
3

>  <REMARK>
 VINA RESULT:      -6.1      2.254      5.047
  Name = 
  20 active torsions:
  status: ('A' for Active; 'I' for Inactive)
    1  A    between atoms: N_1  and  C_24
    2  A    between atoms: N_1  and  C_36
    3  A    between atoms: N_3  and  C_20
    4  A    between atoms: N_3  and  C_31
    5  A    between atoms: C_4  and  C_10
    6  A    between atoms: C_4  and  C_13
    7  A    between atoms: O_5  and  N_32
    8  A    between atoms: O_5  and  C_43
    9  A    between atoms: C_7  and  C_8
   10  A    between atoms: C_10  and  O_23
   11  A    between atoms: C_12  and  C_43
   12  A    between atoms: C_13  and  C_14
   13  A    between atoms: C_14  and  C_26
   14  A    between atoms: C_18  and  C_29
   15  A    between atoms: C_20  and  C_26
   16  A    between atoms: O_23  and  C_24
   17  A    between atoms: C_26  and  N_37
   18  A    between atoms: O_27  and  C_31
   19  A    between atoms: N_32  and  N_37
   20  A    between atoms: C_36  and  C_42
                            x       y       z     vdW  Elec       q    Type
                         _______ _______ _______ _____ _____    ______ ____

>  <TORSDO>
F 20

$$$$
=
 OpenBabel11062418453D

 43 46  0  0  1  0  0  0  0  0999 V2000
  193.0460  176.1930  144.6140 N   0  0  0  0  0  2  0  0  0  0  0  0
  192.4260  177.0090  145.4980 O   0  0  0  0  0  0  0  0  0  0  0  0
  191.1660  177.2330  144.9420 C   0  0  0  0  0  2  0  0  0  0  0  0
  187.8640  176.3160  146.5210 C   0  0  0  0  0  0  0  0  0  0  0  0
  190.1350  176.5180  145.7400 C   0  0  0  0  0  0  0  0  0  0  0  0
  190.4950  175.4310  146.5400 C   0  0  0  0  0  3  0  0  0  0  0  0
  188.8150  176.9700  145.7350 C   0  0  0  0  0  3  0  0  0  0  0  0
  188.2350  175.2560  147.2940 N   0  0  0  0  0  0  0  0  0  0  0  0
  189.5180  174.8030  147.3160 C   0  0  0  0  0  3  0  0  0  0  0  0
  186.4550  176.8250  146.5470 C   0  0  2  0  0  3  0  0  0  0  0  0
  186.3070  176.4420  144.0410 C   0  0  0  0  0  3  0  0  0  0  0  0
  185.9450  177.1950  145.1680 C   0  0  0  0  0  0  0  0  0  0  0  0
  186.3360  177.9860  147.5400 C   0  0  0  0  0  2  0  0  0  0  0  0
  184.5890  178.9920  146.1640 N   0  0  0  0  0  2  0  0  0  0  0  0
  184.9230  178.5540  147.5160 C   0  0  0  0  0  2  0  0  0  0  0  0
  184.8940  177.8260  142.6310 C   0  0  0  0  0  0  0  0  0  0  0  0
  184.5060  178.5610  143.7600 C   0  0  0  0  0  3  0  0  0  0  0  0
  185.7900  176.7590  142.7820 C   0  0  0  0  0  3  0  0  0  0  0  0
  185.0120  178.2410  145.0220 C   0  0  0  0  0  0  0  0  0  0  0  0
  184.3520  178.1600  141.3020 C   0  0  0  0  0  0  0  0  0  0  0  0
  185.2220  178.2960  140.1810 N   0  0  0  0  0  1  0  0  0  0  0  0
  183.1130  178.3250  141.1420 O   0  0  0  0  0  0  0  0  0  0  0  0
  194.4020  176.5620  144.6040 N   0  0  0  0  0  2  0  0  0  0  0  0
  195.2150  175.3970  144.9640 C   0  0  2  0  0  3  0  0  0  0  0  0
  196.2130  175.0530  143.8660 C   0  0  0  0  0  2  0  0  0  0  0  0
  197.0640  176.5830  142.2580 O   0  0  0  0  0  1  0  0  0  0  0  0
  195.9230  175.8530  142.6050 C   0  0  1  0  0  3  0  0  0  0  0  0
  195.5260  174.9070  141.4700 C   0  0  2  0  0  3  0  0  0  0  0  0
  196.5220  174.8790  140.4920 O   0  0  0  0  0  1  0  0  0  0  0  0
  194.2280  175.3640  140.8170 C   0  0  0  0  0  2  0  0  0  0  0  0
  193.1220  174.9070  141.5370 O   0  0  0  0  0  0  0  0  0  0  0  0
  192.5910  173.8860  140.7470 C   0  0  0  0  0  2  0  0  0  0  0  0
  191.5050  173.2180  141.4590 N   0  0  0  0  0  0  0  0  0  0  0  0
  191.9440  171.8750  141.8180 C   0  0  0  0  0  1  0  0  0  0  0  0
  191.1740  173.9620  142.6790 C   0  0  0  0  0  2  0  0  0  0  0  0
  189.3420  175.5560  142.1860 C   0  0  0  0  0  2  0  0  0  0  0  0
  189.0100  174.2560  141.4860 C   0  0  0  0  0  2  0  0  0  0  0  0
  189.6770  174.2340  142.8460 C   0  0  0  0  0  3  0  0  0  0  0  0
  194.3490  174.1880  145.2930 C   0  0  0  0  0  2  0  0  0  0  0  0
  194.8700  173.0070  144.6260 N   0  0  0  0  0  2  0  0  0  0  0  0
  195.0050  171.9700  145.6360 C   0  0  0  0  0  2  0  0  0  0  0  0
  196.9850  171.3700  144.8670 C   0  0  0  0  0  1  0  0  0  0  0  0
  196.3440  171.8470  146.0110 O   0  0  0  0  0  0  0  0  0  0  0  0
  1  2  1  0  0  0  0
  3  2  1  0  0  0  0
  3  5  1  0  0  0  0
  4  8  1  0  0  0  0
  5  6  2  0  0  0  0
  6  9  1  0  0  0  0
  7  5  1  0  0  0  0
  7  4  2  0  0  0  0
  8  9  2  0  0  0  0
 10  4  1  6  0  0  0
 10 13  1  0  0  0  0
 11 12  1  0  0  0  0
 12 10  1  0  0  0  0
 14 15  1  0  0  0  0
 15 13  1  0  0  0  0
 16 18  1  0  0  0  0
 16 17  2  0  0  0  0
 17 19  1  0  0  0  0
 18 11  2  0  0  0  0
 19 12  2  0  0  0  0
 19 14  1  0  0  0  0
 20 16  1  0  0  0  0
 21 20  1  0  0  0  0
 22 20  2  0  0  0  0
 23  1  1  0  0  0  0
 23 24  1  0  0  0  0
 24 25  1  6  0  0  0
 24 39  1  0  0  0  0
 27 26  1  6  0  0  0
 27 25  1  0  0  0  0
 28 29  1  6  0  0  0
 28 27  1  0  0  0  0
 30 28  1  0  0  0  0
 30 31  1  0  0  0  0
 32 33  1  0  0  0  0
 32 31  1  0  0  0  0
 33 34  1  0  0  0  0
 33 35  1  0  0  0  0
 35 38  1  0  0  0  0
 36 38  1  0  0  0  0
 37 36  1  0  0  0  0
 37 38  1  0  0  0  0
 40 39  1  0  0  0  0
 40 41  1  0  0  0  0
 41 43  1  0  0  0  0
 42 43  1  0  0  0  0
M  END
>  <MODEL>
4

>  <REMARK>
 VINA RESULT:      -6.1      2.141      5.168
  Name = 
  20 active torsions:
  status: ('A' for Active; 'I' for Inactive)
    1  A    between atoms: N_1  and  C_24
    2  A    between atoms: N_1  and  C_36
    3  A    between atoms: N_3  and  C_20
    4  A    between atoms: N_3  and  C_31
    5  A    between atoms: C_4  and  C_10
    6  A    between atoms: C_4  and  C_13
    7  A    between atoms: O_5  and  N_32
    8  A    between atoms: O_5  and  C_43
    9  A    between atoms: C_7  and  C_8
   10  A    between atoms: C_10  and  O_23
   11  A    between atoms: C_12  and  C_43
   12  A    between atoms: C_13  and  C_14
   13  A    between atoms: C_14  and  C_26
   14  A    between atoms: C_18  and  C_29
   15  A    between atoms: C_20  and  C_26
   16  A    between atoms: O_23  and  C_24
   17  A    between atoms: C_26  and  N_37
   18  A    between atoms: O_27  and  C_31
   19  A    between atoms: N_32  and  N_37
   20  A    between atoms: C_36  and  C_42
                            x       y       z     vdW  Elec       q    Type
                         _______ _______ _______ _____ _____    ______ ____

>  <TORSDO>
F 20

$$$$
=
 OpenBabel11062418453D

 43 46  0  0  1  0  0  0  0  0999 V2000
  191.8260  176.5010  143.0030 N   0  0  0  0  0  2  0  0  0  0  0  0
  190.9010  177.2700  143.6230 O   0  0  0  0  0  0  0  0  0  0  0  0
  191.2680  177.2420  144.9680 C   0  0  0  0  0  2  0  0  0  0  0  0
  187.9380  176.3170  146.4830 C   0  0  0  0  0  0  0  0  0  0  0  0
  190.2250  176.5320  145.7560 C   0  0  0  0  0  0  0  0  0  0  0  0
  190.5780  175.4680  146.5890 C   0  0  0  0  0  3  0  0  0  0  0  0
  188.9000  176.9660  145.7070 C   0  0  0  0  0  3  0  0  0  0  0  0
  188.3020  175.2800  147.2890 N   0  0  0  0  0  0  0  0  0  0  0  0
  189.5900  174.8450  147.3540 C   0  0  0  0  0  3  0  0  0  0  0  0
  186.5220  176.8080  146.4620 C   0  0  2  0  0  3  0  0  0  0  0  0
  186.4680  176.4370  143.9500 C   0  0  0  0  0  3  0  0  0  0  0  0
  186.0570  177.1800  145.0670 C   0  0  0  0  0  0  0  0  0  0  0  0
  186.3540  177.9620  147.4550 C   0  0  0  0  0  2  0  0  0  0  0  0
  184.6440  178.9540  146.0240 N   0  0  0  0  0  2  0  0  0  0  0  0
  184.9350  178.5120  147.3840 C   0  0  0  0  0  2  0  0  0  0  0  0
  185.0880  177.8100  142.4970 C   0  0  0  0  0  0  0  0  0  0  0  0
  184.6510  178.5350  143.6150 C   0  0  0  0  0  3  0  0  0  0  0  0
  185.9920  176.7550  142.6750 C   0  0  0  0  0  3  0  0  0  0  0  0
  185.1160  178.2140  144.8940 C   0  0  0  0  0  0  0  0  0  0  0  0
  184.5900  178.1450  141.1510 C   0  0  0  0  0  0  0  0  0  0  0  0
  183.1900  178.2560  140.9060 N   0  0  0  0  0  1  0  0  0  0  0  0
  185.3970  178.3410  140.2040 O   0  0  0  0  0  0  0  0  0  0  0  0
  193.0400  176.7000  143.6830 N   0  0  0  0  0  2  0  0  0  0  0  0
  194.1040  175.9800  142.9780 C   0  0  2  0  0  3  0  0  0  0  0  0
  193.8010  174.4910  142.8800 C   0  0  0  0  0  2  0  0  0  0  0  0
  194.0390  175.1360  140.6040 O   0  0  0  0  0  1  0  0  0  0  0  0
  193.8710  174.0230  141.4340 C   0  0  1  0  0  3  0  0  0  0  0  0
  195.0350  173.0450  141.2600 C   0  0  2  0  0  3  0  0  0  0  0  0
  195.7920  173.3870  140.1380 O   0  0  0  0  0  1  0  0  0  0  0  0
  194.5220  171.6230  141.0770 C   0  0  0  0  0  2  0  0  0  0  0  0
  194.2030  171.0480  142.3080 O   0  0  0  0  0  0  0  0  0  0  0  0
  192.9880  170.3970  142.0830 C   0  0  0  0  0  2  0  0  0  0  0  0
  192.2320  170.3040  143.3280 N   0  0  0  0  0  0  0  0  0  0  0  0
  193.1070  169.7670  144.3630 C   0  0  0  0  0  1  0  0  0  0  0  0
  191.7660  171.6360  143.7310 C   0  0  0  0  0  2  0  0  0  0  0  0
  189.5960  172.2620  144.7500 C   0  0  0  0  0  2  0  0  0  0  0  0
  189.9400  173.3270  143.7310 C   0  0  0  0  0  2  0  0  0  0  0  0
  190.2800  171.8770  143.4540 C   0  0  0  0  0  3  0  0  0  0  0  0
  195.4610  176.2060  143.6310 C   0  0  0  0  0  2  0  0  0  0  0  0
  195.8960  174.9930  144.3040 N   0  0  0  0  0  2  0  0  0  0  0  0
  197.3200  174.8500  144.0500 C   0  0  0  0  0  2  0  0  0  0  0  0
  196.8640  173.7870  145.9300 C   0  0  0  0  0  1  0  0  0  0  0  0
  197.8900  174.0160  145.0130 O   0  0  0  0  0  0  0  0  0  0  0  0
  1  2  1  0  0  0  0
  1 23  1  0  0  0  0
  2  3  1  0  0  0  0
  3  5  1  0  0  0  0
  4  8  1  0  0  0  0
  5  6  2  0  0  0  0
  6  9  1  0  0  0  0
  7  5  1  0  0  0  0
  7  4  2  0  0  0  0
  8  9  2  0  0  0  0
 10  4  1  6  0  0  0
 10 13  1  0  0  0  0
 11 12  1  0  0  0  0
 12 10  1  0  0  0  0
 14 15  1  0  0  0  0
 15 13  1  0  0  0  0
 16 18  1  0  0  0  0
 16 17  2  0  0  0  0
 17 19  1  0  0  0  0
 18 11  2  0  0  0  0
 19 12  2  0  0  0  0
 19 14  1  0  0  0  0
 20 16  1  0  0  0  0
 21 20  1  0  0  0  0
 22 20  2  0  0  0  0
 24 25  1  1  0  0  0
 24 39  1  0  0  0  0
 24 23  1  0  0  0  0
 27 26  1  6  0  0  0
 27 25  1  0  0  0  0
 28 29  1  6  0  0  0
 28 27  1  0  0  0  0
 30 28  1  0  0  0  0
 30 31  1  0  0  0  0
 32 31  1  0  0  0  0
 32 33  1  0  0  0  0
 33 35  1  0  0  0  0
 33 34  1  0  0  0  0
 37 36  1  0  0  0  0
 38 37  1  0  0  0  0
 38 35  1  0  0  0  0
 38 36  1  0  0  0  0
 39 40  1  0  0  0  0
 41 40  1  0  0  0  0
 41 43  1  0  0  0  0
 43 42  1  0  0  0  0
M  END
>  <MODEL>
5

>  <REMARK>
 VINA RESULT:      -6.0      2.298      5.081
  Name = 
  20 active torsions:
  status: ('A' for Active; 'I' for Inactive)
    1  A    between atoms: N_1  and  C_24
    2  A    between atoms: N_1  and  C_36
    3  A    between atoms: N_3  and  C_20
    4  A    between atoms: N_3  and  C_31
    5  A    between atoms: C_4  and  C_10
    6  A    between atoms: C_4  and  C_13
    7  A    between atoms: O_5  and  N_32
    8  A    between atoms: O_5  and  C_43
    9  A    between atoms: C_7  and  C_8
   10  A    between atoms: C_10  and  O_23
   11  A    between atoms: C_12  and  C_43
   12  A    between atoms: C_13  and  C_14
   13  A    between atoms: C_14  and  C_26
   14  A    between atoms: C_18  and  C_29
   15  A    between atoms: C_20  and  C_26
   16  A    between atoms: O_23  and  C_24
   17  A    between atoms: C_26  and  N_37
   18  A    between atoms: O_27  and  C_31
   19  A    between atoms: N_32  and  N_37
   20  A    between atoms: C_36  and  C_42
                            x       y       z     vdW  Elec       q    Type
                         _______ _______ _______ _____ _____    ______ ____

>  <TORSDO>
F 20

$$$$
=
 OpenBabel11062418453D

 43 46  0  0  1  0  0  0  0  0999 V2000
  192.1630  177.4250  143.8480 N   0  0  0  0  0  2  0  0  0  0  0  0
  191.5050  177.4430  142.6660 O   0  0  0  0  0  0  0  0  0  0  0  0
  190.3150  178.1180  142.9390 C   0  0  0  0  0  2  0  0  0  0  0  0
  188.2840  175.1190  141.8790 C   0  0  0  0  0  0  0  0  0  0  0  0
  189.1590  177.2340  142.6320 C   0  0  0  0  0  0  0  0  0  0  0  0
  187.8550  177.7300  142.7160 C   0  0  0  0  0  3  0  0  0  0  0  0
  189.3770  175.9250  142.2040 C   0  0  0  0  0  3  0  0  0  0  0  0
  187.0200  175.6210  141.9680 N   0  0  0  0  0  0  0  0  0  0  0  0
  186.7870  176.8960  142.3790 C   0  0  0  0  0  3  0  0  0  0  0  0
  188.5210  173.7250  141.3800 C   0  0  2  0  0  3  0  0  0  0  0  0
  189.8140  173.2210  143.5070 C   0  0  0  0  0  3  0  0  0  0  0  0
  189.6350  173.0200  142.1300 C   0  0  0  0  0  0  0  0  0  0  0  0
  188.7610  173.7450  139.8680 C   0  0  0  0  0  2  0  0  0  0  0  0
  190.2400  171.8130  140.0720 N   0  0  0  0  0  2  0  0  0  0  0  0
  189.0740  172.3390  139.3690 C   0  0  0  0  0  2  0  0  0  0  0  0
  191.6350  171.6130  143.5290 C   0  0  0  0  0  0  0  0  0  0  0  0
  191.4380  171.3880  142.1600 C   0  0  0  0  0  3  0  0  0  0  0  0
  190.8110  172.5280  144.1990 C   0  0  0  0  0  3  0  0  0  0  0  0
  190.4360  172.0720  141.4660 C   0  0  0  0  0  0  0  0  0  0  0  0
  192.6870  170.8850  144.2610 C   0  0  0  0  0  0  0  0  0  0  0  0
  192.7720  169.4640  144.1800 N   0  0  0  0  0  1  0  0  0  0  0  0
  193.5240  171.5120  144.9630 O   0  0  0  0  0  0  0  0  0  0  0  0
  192.4600  176.0790  144.1250 N   0  0  0  0  0  2  0  0  0  0  0  0
  192.6470  175.9210  145.5700 C   0  0  2  0  0  3  0  0  0  0  0  0
  191.4460  176.4420  146.3490 C   0  0  0  0  0  2  0  0  0  0  0  0
  191.2960  175.6450  148.5840 O   0  0  0  0  0  1  0  0  0  0  0  0
  190.8970  175.3650  147.2730 C   0  0  1  0  0  3  0  0  0  0  0  0
  189.3700  175.3250  147.1740 C   0  0  2  0  0  3  0  0  0  0  0  0
  188.9080  174.0190  147.3500 O   0  0  0  0  0  1  0  0  0  0  0  0
  188.9050  175.8180  145.8110 C   0  0  0  0  0  2  0  0  0  0  0  0
  187.5480  176.1440  145.8370 O   0  0  0  0  0  0  0  0  0  0  0  0
  187.3400  176.6630  147.1160 C   0  0  0  0  0  2  0  0  0  0  0  0
  186.2960  177.6830  147.0780 N   0  0  0  0  0  0  0  0  0  0  0  0
  186.6310  178.7270  148.0380 C   0  0  0  0  0  1  0  0  0  0  0  0
  186.2170  178.2680  145.7340 C   0  0  0  0  0  2  0  0  0  0  0  0
  185.2040  179.9690  144.2430 C   0  0  0  0  0  2  0  0  0  0  0  0
  184.2460  178.7990  144.3120 C   0  0  0  0  0  2  0  0  0  0  0  0
  185.0260  179.2110  145.5430 C   0  0  0  0  0  3  0  0  0  0  0  0
  193.9250  176.5970  146.0470 C   0  0  0  0  0  2  0  0  0  0  0  0
  194.8380  175.6050  146.5920 N   0  0  0  0  0  2  0  0  0  0  0  0
  195.5870  175.0550  145.4740 C   0  0  0  0  0  2  0  0  0  0  0  0
  197.4840  174.0420  144.9780 C   0  0  0  0  0  1  0  0  0  0  0  0
  196.4680  174.0750  145.9330 O   0  0  0  0  0  0  0  0  0  0  0  0
  1 23  1  0  0  0  0
  2  3  1  0  0  0  0
  2  1  1  0  0  0  0
  4  8  2  0  0  0  0
  4  7  1  0  0  0  0
  5  6  1  0  0  0  0
  5  3  1  0  0  0  0
  7  5  2  0  0  0  0
  8  9  1  0  0  0  0
  9  6  2  0  0  0  0
 10  4  1  1  0  0  0
 10 12  1  0  0  0  0
 11 18  1  0  0  0  0
 12 11  2  0  0  0  0
 13 10  1  0  0  0  0
 14 19  1  0  0  0  0
 15 13  1  0  0  0  0
 15 14  1  0  0  0  0
 16 18  2  0  0  0  0
 16 20  1  0  0  0  0
 17 16  1  0  0  0  0
 19 12  1  0  0  0  0
 19 17  2  0  0  0  0
 20 22  2  0  0  0  0
 21 20  1  0  0  0  0
 23 24  1  0  0  0  0
 24 39  1  1  0  0  0
 24 25  1  0  0  0  0
 25 27  1  0  0  0  0
 27 26  1  1  0  0  0
 28 27  1  0  0  0  0
 28 29  1  6  0  0  0
 30 31  1  0  0  0  0
 30 28  1  0  0  0  0
 31 32  1  0  0  0  0
 33 32  1  0  0  0  0
 33 34  1  0  0  0  0
 35 33  1  0  0  0  0
 36 37  1  0  0  0  0
 36 38  1  0  0  0  0
 37 38  1  0  0  0  0
 38 35  1  0  0  0  0
 39 40  1  0  0  0  0
 41 43  1  0  0  0  0
 41 40  1  0  0  0  0
 42 43  1  0  0  0  0
M  END
>  <MODEL>
6

>  <REMARK>
 VINA RESULT:      -6.0      2.489      8.556
  Name = 
  20 active torsions:
  status: ('A' for Active; 'I' for Inactive)
    1  A    between atoms: N_1  and  C_24
    2  A    between atoms: N_1  and  C_36
    3  A    between atoms: N_3  and  C_20
    4  A    between atoms: N_3  and  C_31
    5  A    between atoms: C_4  and  C_10
    6  A    between atoms: C_4  and  C_13
    7  A    between atoms: O_5  and  N_32
    8  A    between atoms: O_5  and  C_43
    9  A    between atoms: C_7  and  C_8
   10  A    between atoms: C_10  and  O_23
   11  A    between atoms: C_12  and  C_43
   12  A    between atoms: C_13  and  C_14
   13  A    between atoms: C_14  and  C_26
   14  A    between atoms: C_18  and  C_29
   15  A    between atoms: C_20  and  C_26
   16  A    between atoms: O_23  and  C_24
   17  A    between atoms: C_26  and  N_37
   18  A    between atoms: O_27  and  C_31
   19  A    between atoms: N_32  and  N_37
   20  A    between atoms: C_36  and  C_42
                            x       y       z     vdW  Elec       q    Type
                         _______ _______ _______ _____ _____    ______ ____

>  <TORSDO>
F 20

$$$$
=
 OpenBabel11062418453D

 43 46  0  0  1  0  0  0  0  0999 V2000
  190.3600  172.4170  144.4320 N   0  0  0  0  0  2  0  0  0  0  0  0
  189.6240  173.4440  144.9150 O   0  0  0  0  0  0  0  0  0  0  0  0
  190.5590  174.4390  145.2030 C   0  0  0  0  0  2  0  0  0  0  0  0
  187.9170  176.7710  146.5520 C   0  0  0  0  0  0  0  0  0  0  0  0
  189.9010  175.5410  145.9540 C   0  0  0  0  0  0  0  0  0  0  0  0
  190.6700  176.4440  146.6900 C   0  0  0  0  0  3  0  0  0  0  0  0
  188.5180  175.7070  145.8760 C   0  0  0  0  0  3  0  0  0  0  0  0
  188.6850  177.6420  147.2670 N   0  0  0  0  0  0  0  0  0  0  0  0
  190.0350  177.4980  147.3510 C   0  0  0  0  0  3  0  0  0  0  0  0
  186.4370  176.9740  146.4360 C   0  0  2  0  0  3  0  0  0  0  0  0
  186.6340  176.7210  143.9160 C   0  0  0  0  0  3  0  0  0  0  0  0
  186.0050  177.3130  145.0220 C   0  0  0  0  0  0  0  0  0  0  0  0
  185.9710  178.0220  147.4510 C   0  0  0  0  0  2  0  0  0  0  0  0
  184.2020  178.7250  145.9240 N   0  0  0  0  0  2  0  0  0  0  0  0
  184.4800  178.2850  147.2870 C   0  0  0  0  0  2  0  0  0  0  0  0
  185.1130  177.8640  142.4070 C   0  0  0  0  0  0  0  0  0  0  0  0
  184.4620  178.4330  143.5110 C   0  0  0  0  0  3  0  0  0  0  0  0
  186.1950  176.9990  142.6190 C   0  0  0  0  0  3  0  0  0  0  0  0
  184.8920  178.1490  144.8100 C   0  0  0  0  0  0  0  0  0  0  0  0
  184.6530  178.1580  141.0380 C   0  0  0  0  0  0  0  0  0  0  0  0
  183.2620  178.2790  140.7540 N   0  0  0  0  0  1  0  0  0  0  0  0
  185.4870  178.3100  140.1060 O   0  0  0  0  0  0  0  0  0  0  0  0
  189.7010  171.9520  143.2810 N   0  0  0  0  0  2  0  0  0  0  0  0
  190.7000  171.4840  142.3160 C   0  0  2  0  0  3  0  0  0  0  0  0
  192.1150  171.8040  142.7780 C   0  0  0  0  0  2  0  0  0  0  0  0
  193.8370  171.8010  141.1390 O   0  0  0  0  0  1  0  0  0  0  0  0
  193.1320  170.9690  142.0140 C   0  0  1  0  0  3  0  0  0  0  0  0
  194.0890  170.2900  142.9960 C   0  0  2  0  0  3  0  0  0  0  0  0
  193.4840  170.1510  144.2460 O   0  0  0  0  0  1  0  0  0  0  0  0
  195.3590  171.1120  143.1670 C   0  0  0  0  0  2  0  0  0  0  0  0
  195.4390  171.6410  144.4560 O   0  0  0  0  0  0  0  0  0  0  0  0
  195.4400  173.0230  144.2650 C   0  0  0  0  0  2  0  0  0  0  0  0
  195.5910  173.7050  145.5470 N   0  0  0  0  0  0  0  0  0  0  0  0
  196.8640  173.3080  146.1370 C   0  0  0  0  0  1  0  0  0  0  0  0
  195.5830  175.1580  145.3460 C   0  0  0  0  0  2  0  0  0  0  0  0
  194.6250  177.3580  145.9640 C   0  0  0  0  0  2  0  0  0  0  0  0
  193.6870  176.7220  144.9620 C   0  0  0  0  0  2  0  0  0  0  0  0
  194.3880  175.8620  145.9930 C   0  0  0  0  0  3  0  0  0  0  0  0
  190.4510  172.0560  140.9280 C   0  0  0  0  0  2  0  0  0  0  0  0
  190.2120  173.4870  141.0160 N   0  0  0  0  0  2  0  0  0  0  0  0
  188.9200  173.7440  140.4030 C   0  0  0  0  0  2  0  0  0  0  0  0
  188.1840  174.1970  138.3710 C   0  0  0  0  0  1  0  0  0  0  0  0
  188.9100  173.2520  139.0970 O   0  0  0  0  0  0  0  0  0  0  0  0
  1  2  1  0  0  0  0
  2  3  1  0  0  0  0
  3  5  1  0  0  0  0
  4  8  1  0  0  0  0
  5  6  2  0  0  0  0
  6  9  1  0  0  0  0
  7  5  1  0  0  0  0
  7  4  2  0  0  0  0
  8  9  2  0  0  0  0
 10  4  1  6  0  0  0
 10 13  1  0  0  0  0
 11 12  1  0  0  0  0
 12 10  1  0  0  0  0
 14 15  1  0  0  0  0
 15 13  1  0  0  0  0
 16 18  1  0  0  0  0
 16 17  2  0  0  0  0
 17 19  1  0  0  0  0
 18 11  2  0  0  0  0
 19 12  2  0  0  0  0
 19 14  1  0  0  0  0
 20 16  1  0  0  0  0
 21 20  1  0  0  0  0
 22 20  2  0  0  0  0
 23  1  1  0  0  0  0
 24 39  1  6  0  0  0
 24 25  1  0  0  0  0
 24 23  1  0  0  0  0
 27 26  1  6  0  0  0
 27 25  1  0  0  0  0
 27 28  1  0  0  0  0
 28 30  1  0  0  0  0
 28 29  1  1  0  0  0
 30 31  1  0  0  0  0
 32 31  1  0  0  0  0
 32 33  1  0  0  0  0
 33 34  1  0  0  0  0
 35 33  1  0  0  0  0
 35 38  1  0  0  0  0
 36 38  1  0  0  0  0
 37 36  1  0  0  0  0
 37 38  1  0  0  0  0
 39 40  1  0  0  0  0
 41 40  1  0  0  0  0
 42 43  1  0  0  0  0
 43 41  1  0  0  0  0
M  END
>  <MODEL>
7

>  <REMARK>
 VINA RESULT:      -5.8      2.035      2.798
  Name = 
  20 active torsions:
  status: ('A' for Active; 'I' for Inactive)
    1  A    between atoms: N_1  and  C_24
    2  A    between atoms: N_1  and  C_36
    3  A    between atoms: N_3  and  C_20
    4  A    between atoms: N_3  and  C_31
    5  A    between atoms: C_4  and  C_10
    6  A    between atoms: C_4  and  C_13
    7  A    between atoms: O_5  and  N_32
    8  A    between atoms: O_5  and  C_43
    9  A    between atoms: C_7  and  C_8
   10  A    between atoms: C_10  and  O_23
   11  A    between atoms: C_12  and  C_43
   12  A    between atoms: C_13  and  C_14
   13  A    between atoms: C_14  and  C_26
   14  A    between atoms: C_18  and  C_29
   15  A    between atoms: C_20  and  C_26
   16  A    between atoms: O_23  and  C_24
   17  A    between atoms: C_26  and  N_37
   18  A    between atoms: O_27  and  C_31
   19  A    between atoms: N_32  and  N_37
   20  A    between atoms: C_36  and  C_42
                            x       y       z     vdW  Elec       q    Type
                         _______ _______ _______ _____ _____    ______ ____

>  <TORSDO>
F 20

$$$$
=
 OpenBabel11062418453D

 43 46  0  0  1  0  0  0  0  0999 V2000
  192.9780  176.6600  143.9470 N   0  0  0  0  0  2  0  0  0  0  0  0
  191.6310  176.5650  143.8590 O   0  0  0  0  0  0  0  0  0  0  0  0
  191.1560  177.3920  144.8770 C   0  0  0  0  0  2  0  0  0  0  0  0
  187.8770  176.4050  146.4640 C   0  0  0  0  0  0  0  0  0  0  0  0
  190.1430  176.6600  145.6830 C   0  0  0  0  0  0  0  0  0  0  0  0
  190.5310  175.5940  146.4970 C   0  0  0  0  0  3  0  0  0  0  0  0
  188.8110  177.0750  145.6700 C   0  0  0  0  0  3  0  0  0  0  0  0
  188.2760  175.3660  147.2510 N   0  0  0  0  0  0  0  0  0  0  0  0
  189.5710  174.9490  147.2800 C   0  0  0  0  0  3  0  0  0  0  0  0
  186.4540  176.8760  146.4820 C   0  0  2  0  0  3  0  0  0  0  0  0
  186.3400  176.5170  143.9700 C   0  0  0  0  0  3  0  0  0  0  0  0
  185.9470  177.2480  145.1010 C   0  0  0  0  0  0  0  0  0  0  0  0
  186.2960  178.0230  147.4850 C   0  0  0  0  0  2  0  0  0  0  0  0
  184.5350  178.9970  146.1040 N   0  0  0  0  0  2  0  0  0  0  0  0
  184.8680  178.5530  147.4540 C   0  0  0  0  0  2  0  0  0  0  0  0
  184.9030  177.8770  142.5610 C   0  0  0  0  0  0  0  0  0  0  0  0
  184.4860  178.5900  143.6940 C   0  0  0  0  0  3  0  0  0  0  0  0
  185.8270  176.8340  142.7100 C   0  0  0  0  0  3  0  0  0  0  0  0
  184.9880  178.2700  144.9580 C   0  0  0  0  0  0  0  0  0  0  0  0
  184.3650  178.2120  141.2310 C   0  0  0  0  0  0  0  0  0  0  0  0
  182.9580  178.2860  141.0180 N   0  0  0  0  0  1  0  0  0  0  0  0
  185.1450  178.4390  140.2680 O   0  0  0  0  0  0  0  0  0  0  0  0
  193.4770  176.5710  142.6360 N   0  0  0  0  0  2  0  0  0  0  0  0
  194.6340  175.6710  142.6270 C   0  0  2  0  0  3  0  0  0  0  0  0
  195.2700  175.5670  144.0070 C   0  0  0  0  0  2  0  0  0  0  0  0
  197.0540  174.5000  145.1610 O   0  0  0  0  0  1  0  0  0  0  0  0
  196.1640  174.3390  144.0950 C   0  0  1  0  0  3  0  0  0  0  0  0
  195.3080  173.0860  144.2960 C   0  0  2  0  0  3  0  0  0  0  0  0
  195.1380  172.8300  145.6590 O   0  0  0  0  0  1  0  0  0  0  0  0
  195.9700  171.8720  143.6600 C   0  0  0  0  0  2  0  0  0  0  0  0
  195.1720  170.7370  143.8040 O   0  0  0  0  0  0  0  0  0  0  0  0
  194.1940  170.8710  142.8170 C   0  0  0  0  0  2  0  0  0  0  0  0
  193.0310  170.0560  143.1510 N   0  0  0  0  0  0  0  0  0  0  0  0
  193.2450  169.4570  144.4630 C   0  0  0  0  0  1  0  0  0  0  0  0
  191.8270  170.8940  143.1910 C   0  0  0  0  0  2  0  0  0  0  0  0
  191.3950  173.2920  143.6390 C   0  0  0  0  0  2  0  0  0  0  0  0
  190.4770  172.4930  144.5370 C   0  0  0  0  0  2  0  0  0  0  0  0
  191.8790  171.9940  144.2540 C   0  0  0  0  0  3  0  0  0  0  0  0
  195.6680  176.0990  141.5950 C   0  0  0  0  0  2  0  0  0  0  0  0
  195.4500  175.3840  140.3480 N   0  0  0  0  0  2  0  0  0  0  0  0
  196.6190  174.5510  140.1220 C   0  0  0  0  0  2  0  0  0  0  0  0
  196.8010  175.3340  138.0670 C   0  0  0  0  0  1  0  0  0  0  0  0
  197.5050  175.2030  139.2640 O   0  0  0  0  0  0  0  0  0  0  0  0
  2  1  1  0  0  0  0
  2  3  1  0  0  0  0
  3  5  1  0  0  0  0
  4  8  1  0  0  0  0
  5  6  2  0  0  0  0
  6  9  1  0  0  0  0
  7  5  1  0  0  0  0
  7  4  2  0  0  0  0
  8  9  2  0  0  0  0
 10  4  1  6  0  0  0
 10 13  1  0  0  0  0
 11 12  1  0  0  0  0
 12 10  1  0  0  0  0
 14 15  1  0  0  0  0
 15 13  1  0  0  0  0
 16 18  1  0  0  0  0
 16 17  2  0  0  0  0
 17 19  1  0  0  0  0
 18 11  2  0  0  0  0
 19 12  2  0  0  0  0
 19 14  1  0  0  0  0
 20 16  1  0  0  0  0
 21 20  1  0  0  0  0
 22 20  2  0  0  0  0
 23  1  1  0  0  0  0
 24 39  1  6  0  0  0
 24 23  1  0  0  0  0
 24 25  1  0  0  0  0
 25 27  1  0  0  0  0
 27 28  1  0  0  0  0
 27 26  1  1  0  0  0
 28 29  1  1  0  0  0
 30 31  1  0  0  0  0
 30 28  1  0  0  0  0
 32 33  1  0  0  0  0
 32 31  1  0  0  0  0
 33 35  1  0  0  0  0
 33 34  1  0  0  0  0
 35 38  1  0  0  0  0
 36 38  1  0  0  0  0
 36 37  1  0  0  0  0
 38 37  1  0  0  0  0
 40 39  1  0  0  0  0
 41 40  1  0  0  0  0
 42 43  1  0  0  0  0
 43 41  1  0  0  0  0
M  END
>  <MODEL>
8

>  <REMARK>
 VINA RESULT:      -5.7      2.579      4.696
  Name = 
  20 active torsions:
  status: ('A' for Active; 'I' for Inactive)
    1  A    between atoms: N_1  and  C_24
    2  A    between atoms: N_1  and  C_36
    3  A    between atoms: N_3  and  C_20
    4  A    between atoms: N_3  and  C_31
    5  A    between atoms: C_4  and  C_10
    6  A    between atoms: C_4  and  C_13
    7  A    between atoms: O_5  and  N_32
    8  A    between atoms: O_5  and  C_43
    9  A    between atoms: C_7  and  C_8
   10  A    between atoms: C_10  and  O_23
   11  A    between atoms: C_12  and  C_43
   12  A    between atoms: C_13  and  C_14
   13  A    between atoms: C_14  and  C_26
   14  A    between atoms: C_18  and  C_29
   15  A    between atoms: C_20  and  C_26
   16  A    between atoms: O_23  and  C_24
   17  A    between atoms: C_26  and  N_37
   18  A    between atoms: O_27  and  C_31
   19  A    between atoms: N_32  and  N_37
   20  A    between atoms: C_36  and  C_42
                            x       y       z     vdW  Elec       q    Type
                         _______ _______ _______ _____ _____    ______ ____

>  <TORSDO>
F 20

$$$$
=
 OpenBabel11062418453D

 43 46  0  0  1  0  0  0  0  0999 V2000
  189.7560  173.2390  141.5590 N   0  0  0  0  0  2  0  0  0  0  0  0
  189.4830  174.5600  141.4500 O   0  0  0  0  0  0  0  0  0  0  0  0
  188.2220  174.6080  140.8560 C   0  0  0  0  0  2  0  0  0  0  0  0
  186.7560  177.5190  142.7580 C   0  0  0  0  0  0  0  0  0  0  0  0
  187.5770  175.9130  141.1600 C   0  0  0  0  0  0  0  0  0  0  0  0
  187.0950  176.7160  140.1230 C   0  0  0  0  0  3  0  0  0  0  0  0
  187.4010  176.3110  142.4860 C   0  0  0  0  0  3  0  0  0  0  0  0
  186.2940  178.2890  141.7330 N   0  0  0  0  0  0  0  0  0  0  0  0
  186.4520  177.9160  140.4340 C   0  0  0  0  0  3  0  0  0  0  0  0
  186.5310  177.9270  144.1830 C   0  0  2  0  0  3  0  0  0  0  0  0
  188.9990  177.5470  144.6460 C   0  0  0  0  0  3  0  0  0  0  0  0
  187.6700  177.5120  145.0940 C   0  0  0  0  0  0  0  0  0  0  0  0
  185.1770  177.4010  144.6700 C   0  0  0  0  0  2  0  0  0  0  0  0
  186.0660  177.1920  146.9330 N   0  0  0  0  0  2  0  0  0  0  0  0
  184.9770  177.7510  146.1390 C   0  0  0  0  0  2  0  0  0  0  0  0
  189.7830  176.8500  146.8360 C   0  0  0  0  0  0  0  0  0  0  0  0
  188.4580  176.8430  147.2960 C   0  0  0  0  0  3  0  0  0  0  0  0
  190.0460  177.2120  145.5090 C   0  0  0  0  0  3  0  0  0  0  0  0
  187.4090  177.1870  146.4390 C   0  0  0  0  0  0  0  0  0  0  0  0
  190.8880  176.4940  147.7440 C   0  0  0  0  0  0  0  0  0  0  0  0
  191.6020  177.5100  148.4440 N   0  0  0  0  0  1  0  0  0  0  0  0
  191.2100  175.2880  147.9130 O   0  0  0  0  0  0  0  0  0  0  0  0
  191.0160  173.0350  140.9720 N   0  0  0  0  0  2  0  0  0  0  0  0
  191.9200  174.1060  141.3990 C   0  0  2  0  0  3  0  0  0  0  0  0
  192.9700  174.4070  140.3380 C   0  0  0  0  0  2  0  0  0  0  0  0
  195.0450  173.2620  140.5230 O   0  0  0  0  0  1  0  0  0  0  0  0
  194.3640  174.4070  140.9470 C   0  0  1  0  0  3  0  0  0  0  0  0
  195.1180  175.6680  140.5180 C   0  0  2  0  0  3  0  0  0  0  0  0
  196.0710  175.3560  139.5460 O   0  0  0  0  0  1  0  0  0  0  0  0
  195.8340  176.2980  141.7040 C   0  0  0  0  0  2  0  0  0  0  0  0
  195.3640  175.7690  142.9070 O   0  0  0  0  0  0  0  0  0  0  0  0
  195.9090  176.5980  143.8890 C   0  0  0  0  0  2  0  0  0  0  0  0
  195.7390  175.9930  145.2060 N   0  0  0  0  0  0  0  0  0  0  0  0
  194.4660  176.4370  145.7600 C   0  0  0  0  0  1  0  0  0  0  0  0
  195.7320  174.5300  145.0870 C   0  0  0  0  0  2  0  0  0  0  0  0
  196.8180  172.5710  146.1470 C   0  0  0  0  0  2  0  0  0  0  0  0
  197.2060  172.5660  144.6850 C   0  0  0  0  0  2  0  0  0  0  0  0
  197.0750  173.8800  145.4280 C   0  0  0  0  0  3  0  0  0  0  0  0
  192.5850  173.7800  142.7290 C   0  0  0  0  0  2  0  0  0  0  0  0
  192.1610  174.7320  143.7430 N   0  0  0  0  0  2  0  0  0  0  0  0
  191.8330  173.9690  144.9360 C   0  0  0  0  0  2  0  0  0  0  0  0
  189.7030  173.4740  145.2390 C   0  0  0  0  0  1  0  0  0  0  0  0
  190.8680  173.0070  144.6300 O   0  0  0  0  0  0  0  0  0  0  0  0
  2  1  1  0  0  0  0
  3  5  1  0  0  0  0
  3  2  1  0  0  0  0
  5  7  2  0  0  0  0
  6  9  2  0  0  0  0
  6  5  1  0  0  0  0
  7  4  1  0  0  0  0
  8  4  2  0  0  0  0
  9  8  1  0  0  0  0
 10  4  1  6  0  0  0
 10 13  1  0  0  0  0
 10 12  1  0  0  0  0
 11 12  2  0  0  0  0
 11 18  1  0  0  0  0
 12 19  1  0  0  0  0
 13 15  1  0  0  0  0
 15 14  1  0  0  0  0
 16 17  1  0  0  0  0
 16 20  1  0  0  0  0
 18 16  2  0  0  0  0
 19 14  1  0  0  0  0
 19 17  2  0  0  0  0
 20 22  2  0  0  0  0
 20 21  1  0  0  0  0
 23 24  1  0  0  0  0
 23  1  1  0  0  0  0
 24 25  1  6  0  0  0
 24 39  1  0  0  0  0
 25 27  1  0  0  0  0
 27 26  1  6  0  0  0
 28 29  1  6  0  0  0
 28 27  1  0  0  0  0
 28 30  1  0  0  0  0
 30 31  1  0  0  0  0
 31 32  1  0  0  0  0
 32 33  1  0  0  0  0
 33 34  1  0  0  0  0
 35 33  1  0  0  0  0
 35 38  1  0  0  0  0
 37 38  1  0  0  0  0
 37 36  1  0  0  0  0
 38 36  1  0  0  0  0
 39 40  1  0  0  0  0
 40 41  1  0  0  0  0
 43 41  1  0  0  0  0
 43 42  1  0  0  0  0
M  END
>  <MODEL>
9

>  <REMARK>
 VINA RESULT:      -5.7      2.060      5.078
  Name = 
  20 active torsions:
  status: ('A' for Active; 'I' for Inactive)
    1  A    between atoms: N_1  and  C_24
    2  A    between atoms: N_1  and  C_36
    3  A    between atoms: N_3  and  C_20
    4  A    between atoms: N_3  and  C_31
    5  A    between atoms: C_4  and  C_10
    6  A    between atoms: C_4  and  C_13
    7  A    between atoms: O_5  and  N_32
    8  A    between atoms: O_5  and  C_43
    9  A    between atoms: C_7  and  C_8
   10  A    between atoms: C_10  and  O_23
   11  A    between atoms: C_12  and  C_43
   12  A    between atoms: C_13  and  C_14
   13  A    between atoms: C_14  and  C_26
   14  A    between atoms: C_18  and  C_29
   15  A    between atoms: C_20  and  C_26
   16  A    between atoms: O_23  and  C_24
   17  A    between atoms: C_26  and  N_37
   18  A    between atoms: O_27  and  C_31
   19  A    between atoms: N_32  and  N_37
   20  A    between atoms: C_36  and  C_42
                            x       y       z     vdW  Elec       q    Type
                         _______ _______ _______ _____ _____    ______ ____

>  <TORSDO>
F 20

$$$$
