=
 OpenBabel11062419273D

 38 43  0  0  1  0  0  0  0  0999 V2000
  191.9980  175.0840  144.4690 C   0  0  1  0  0  3  0  0  0  0  0  0
  194.2790  176.2890  144.5540 C   0  0  0  0  0  3  0  0  0  0  0  0
  193.4000  175.3020  144.9530 C   0  0  0  0  0  0  0  0  0  0  0  0
  195.2390  174.9820  145.9810 N   0  0  0  0  0  0  0  0  0  0  0  0
  194.0180  174.4970  145.8330 N   0  0  0  0  0  0  0  0  0  0  0  0
  195.4230  176.0560  145.2260 N   0  0  0  0  0  2  0  0  0  0  0  0
  191.5870  173.5950  144.4810 C   0  0  1  0  0  3  0  0  0  0  0  0
  190.0940  173.4660  144.2150 C   0  0  2  0  0  3  0  0  0  0  0  0
  189.5970  172.3540  144.8980 O   0  0  0  0  0  1  0  0  0  0  0  0
  191.0940  173.0520  143.1370 C   0  0  2  0  0  0  0  0  0  0  0  0
  191.4510  171.5780  142.9780 C   0  0  0  0  0  2  0  0  0  0  0  0
  190.3830  170.8450  142.1910 C   0  0  0  0  0  2  0  0  0  0  0  0
  190.9890  169.6060  140.4740 C   0  0  0  0  0  1  0  0  0  0  0  0
  190.8390  169.5710  141.8600 O   0  0  0  0  0  0  0  0  0  0  0  0
  191.3020  173.9660  141.9160 C   0  0  0  0  0  2  0  0  0  0  0  0
  192.2240  173.3820  140.8500 C   0  0  0  0  0  2  0  0  0  0  0  0
  194.7580  173.5950  139.8460 O   0  0  0  0  0  0  0  0  0  0  0  0
  193.9310  173.9760  141.0530 P   0  0  0  0  0  0  0  0  0  0  0  0
  193.9160  175.6600  141.2030 O   0  0  0  0  0  1  0  0  0  0  0  0
  194.6110  173.2960  142.4440 O   0  0  0  0  0  1  0  0  0  0  0  0
  191.0600  176.0040  145.1420 N   0  0  0  0  0  0  0  0  0  0  0  0
  191.4990  176.1100  146.5270 C   0  0  0  0  0  1  0  0  0  0  0  0
  189.8280  177.7650  142.9000 C   0  0  2  0  0  0  0  0  0  0  0  0
  191.2380  177.2910  143.0250 C   0  0  0  0  0  2  0  0  0  0  0  0
  189.5870  177.8440  144.3730 C   0  0  0  0  0  2  0  0  0  0  0  0
  188.9790  176.6620  142.2900 C   0  0  1  0  0  3  0  0  0  0  0  0
  187.6880  177.2180  141.7140 C   0  0  2  0  0  3  0  0  0  0  0  0
  188.9550  178.0570  141.6940 C   0  0  1  0  0  3  0  0  0  0  0  0
  191.0410  177.3540  144.5550 C   0  0  1  0  0  3  0  0  0  0  0  0
  186.1200  176.6500  143.9910 S   0  0  0  0  0  0  0  0  0  0  0  0
  186.7630  177.6610  142.8040 C   0  0  0  0  0  0  0  0  0  0  0  0
  185.2970  177.9140  144.7420 C   0  0  0  0  0  0  0  0  0  0  0  0
  186.3780  178.9470  142.9770 N   0  0  0  0  0  0  0  0  0  0  0  0
  184.9970  180.4100  144.4410 C   0  0  0  0  0  1  0  0  0  0  0  0
  185.5590  179.0890  144.0500 C   0  0  0  0  0  0  0  0  0  0  0  0
  184.4860  177.8180  145.8760 O   0  0  0  0  0  0  0  0  0  0  0  0
  184.9230  178.2330  147.1640 C   0  0  0  0  0  2  0  0  0  0  0  0
  186.0560  177.3440  147.6430 C   0  0  0  0  0  1  0  0  0  0  0  0
  1  3  1  0  0  0  0
  1 21  1  1  0  0  0
  2  3  2  0  0  0  0
  2  6  1  0  0  0  0
  3  5  1  0  0  0  0
  5  4  2  0  0  0  0
  6  4  1  0  0  0  0
  7  1  1  6  0  0  0
  8  7  1  0  0  0  0
  8  9  1  1  0  0  0
 10 15  1  6  0  0  0
 10  8  1  0  0  0  0
 10  7  1  0  0  0  0
 11 10  1  0  0  0  0
 12 11  1  0  0  0  0
 13 14  1  0  0  0  0
 14 12  1  0  0  0  0
 16 18  1  0  0  0  0
 16 15  1  0  0  0  0
 17 18  2  0  0  0  0
 18 19  1  0  0  0  0
 18 20  1  0  0  0  0
 21 22  1  0  0  0  0
 23 24  1  0  0  0  0
 23 25  1  0  0  0  0
 24 29  1  0  0  0  0
 25 29  1  0  0  0  0
 26 23  1  0  0  0  0
 27 26  1  0  0  0  0
 27 31  1  0  0  0  0
 28 27  1  0  0  0  0
 28 26  1  0  0  0  0
 28 23  1  0  0  0  0
 29 21  1  0  0  0  0
 30 32  1  0  0  0  0
 31 33  2  0  0  0  0
 31 30  1  0  0  0  0
 32 36  1  0  0  0  0
 33 35  1  0  0  0  0
 35 34  1  0  0  0  0
 35 32  2  0  0  0  0
 36 37  1  0  0  0  0
 37 38  1  0  0  0  0
M  END
>  <MODEL>
1

>  <REMARK>
 VINA RESULT:      -6.0      0.000      0.000
  Name = 
  13 active torsions:
  status: ('A' for Active; 'I' for Inactive)
    1  A    between atoms: C_2  and  C_10
    2  A    between atoms: C_2  and  O_35
    3  A    between atoms: C_3  and  C_9
    4  A    between atoms: C_4  and  O_23
    5  A    between atoms: N_6  and  C_9
    6  A    between atoms: N_6  and  C_37
    7  A    between atoms: C_8  and  C_9
    8  A    between atoms: C_10  and  C_32
    9  A    between atoms: C_13  and  C_31
   10  A    between atoms: C_14  and  O_23
   11  A    between atoms: C_15  and  C_16
   12  A    between atoms: C_15  and  P_24
   13  A    between atoms: C_16  and  C_32
                            x       y       z     vdW  Elec       q    Type
                         _______ _______ _______ _____ _____    ______ ____

>  <TORSDO>
F 13

$$$$
=
 OpenBabel11062419273D

 38 43  0  0  1  0  0  0  0  0999 V2000
  191.9490  175.1560  144.5640 C   0  0  1  0  0  3  0  0  0  0  0  0
  194.2460  176.3270  144.4510 C   0  0  0  0  0  3  0  0  0  0  0  0
  193.3510  175.4390  145.0130 C   0  0  0  0  0  0  0  0  0  0  0  0
  195.1800  175.2820  146.0950 N   0  0  0  0  0  0  0  0  0  0  0  0
  193.9530  174.7950  146.0260 N   0  0  0  0  0  0  0  0  0  0  0  0
  195.3830  176.2030  145.1630 N   0  0  0  0  0  2  0  0  0  0  0  0
  191.5770  173.6610  144.6710 C   0  0  1  0  0  3  0  0  0  0  0  0
  190.1030  173.4670  144.3510 C   0  0  2  0  0  3  0  0  0  0  0  0
  189.6050  172.3950  145.0940 O   0  0  0  0  0  1  0  0  0  0  0  0
  191.1620  173.0040  143.3520 C   0  0  2  0  0  0  0  0  0  0  0  0
  191.5640  171.5340  143.3210 C   0  0  0  0  0  2  0  0  0  0  0  0
  192.8730  171.3470  142.5790 C   0  0  0  0  0  2  0  0  0  0  0  0
  194.7720  172.3140  143.1360 C   0  0  0  0  0  1  0  0  0  0  0  0
  193.9210  171.2700  143.4940 O   0  0  0  0  0  0  0  0  0  0  0  0
  191.4000  173.8310  142.0750 C   0  0  0  0  0  2  0  0  0  0  0  0
  190.3560  173.6060  140.9850 C   0  0  0  0  0  2  0  0  0  0  0  0
  190.5320  173.7320  138.2590 O   0  0  0  0  0  0  0  0  0  0  0  0
  191.1220  173.0080  139.4480 P   0  0  0  0  0  0  0  0  0  0  0  0
  192.7860  173.3050  139.5060 O   0  0  0  0  0  1  0  0  0  0  0  0
  190.8560  171.3460  139.2870 O   0  0  0  0  0  1  0  0  0  0  0  0
  190.9960  176.0910  145.1950 N   0  0  0  0  0  0  0  0  0  0  0  0
  191.4240  176.2530  146.5790 C   0  0  0  0  0  1  0  0  0  0  0  0
  189.7340  177.7640  142.9040 C   0  0  2  0  0  0  0  0  0  0  0  0
  191.1460  177.2970  143.0290 C   0  0  0  0  0  2  0  0  0  0  0  0
  189.5100  177.8980  144.3760 C   0  0  0  0  0  2  0  0  0  0  0  0
  188.8800  176.6370  142.3460 C   0  0  1  0  0  3  0  0  0  0  0  0
  187.5800  177.1690  141.7660 C   0  0  2  0  0  3  0  0  0  0  0  0
  188.8460  178.0080  141.6990 C   0  0  1  0  0  3  0  0  0  0  0  0
  190.9670  177.4170  144.5580 C   0  0  1  0  0  3  0  0  0  0  0  0
  185.9670  176.6670  144.0260 S   0  0  0  0  0  0  0  0  0  0  0  0
  186.6680  177.6510  142.8490 C   0  0  0  0  0  0  0  0  0  0  0  0
  185.1990  177.9670  144.7750 C   0  0  0  0  0  0  0  0  0  0  0  0
  186.3430  178.9540  143.0240 N   0  0  0  0  0  0  0  0  0  0  0  0
  185.0200  180.4760  144.4820 C   0  0  0  0  0  1  0  0  0  0  0  0
  185.5220  179.1300  144.0910 C   0  0  0  0  0  0  0  0  0  0  0  0
  184.3740  177.9050  145.9020 O   0  0  0  0  0  0  0  0  0  0  0  0
  184.8110  178.3170  147.1920 C   0  0  0  0  0  2  0  0  0  0  0  0
  186.0630  177.5560  147.5870 C   0  0  0  0  0  1  0  0  0  0  0  0
  1  3  1  0  0  0  0
  1 21  1  1  0  0  0
  2  3  2  0  0  0  0
  2  6  1  0  0  0  0
  3  5  1  0  0  0  0
  5  4  2  0  0  0  0
  6  4  1  0  0  0  0
  7  1  1  6  0  0  0
  8  7  1  0  0  0  0
  8  9  1  1  0  0  0
 10 15  1  6  0  0  0
 10  8  1  0  0  0  0
 10  7  1  0  0  0  0
 11 10  1  0  0  0  0
 12 11  1  0  0  0  0
 12 14  1  0  0  0  0
 13 14  1  0  0  0  0
 16 15  1  0  0  0  0
 17 18  2  0  0  0  0
 18 19  1  0  0  0  0
 18 16  1  0  0  0  0
 20 18  1  0  0  0  0
 21 22  1  0  0  0  0
 23 24  1  0  0  0  0
 23 25  1  0  0  0  0
 24 29  1  0  0  0  0
 25 29  1  0  0  0  0
 26 23  1  0  0  0  0
 27 26  1  0  0  0  0
 27 31  1  0  0  0  0
 28 27  1  0  0  0  0
 28 26  1  0  0  0  0
 28 23  1  0  0  0  0
 29 21  1  0  0  0  0
 30 32  1  0  0  0  0
 31 33  2  0  0  0  0
 31 30  1  0  0  0  0
 32 36  1  0  0  0  0
 33 35  1  0  0  0  0
 35 34  1  0  0  0  0
 35 32  2  0  0  0  0
 36 37  1  0  0  0  0
 37 38  1  0  0  0  0
M  END
>  <MODEL>
2

>  <REMARK>
 VINA RESULT:      -5.9      1.338      1.808
  Name = 
  13 active torsions:
  status: ('A' for Active; 'I' for Inactive)
    1  A    between atoms: C_2  and  C_10
    2  A    between atoms: C_2  and  O_35
    3  A    between atoms: C_3  and  C_9
    4  A    between atoms: C_4  and  O_23
    5  A    between atoms: N_6  and  C_9
    6  A    between atoms: N_6  and  C_37
    7  A    between atoms: C_8  and  C_9
    8  A    between atoms: C_10  and  C_32
    9  A    between atoms: C_13  and  C_31
   10  A    between atoms: C_14  and  O_23
   11  A    between atoms: C_15  and  C_16
   12  A    between atoms: C_15  and  P_24
   13  A    between atoms: C_16  and  C_32
                            x       y       z     vdW  Elec       q    Type
                         _______ _______ _______ _____ _____    ______ ____

>  <TORSDO>
F 13

$$$$
=
 OpenBabel11062419273D

 38 43  0  0  1  0  0  0  0  0999 V2000
  190.3790  175.1460  144.2920 C   0  0  1  0  0  3  0  0  0  0  0  0
  189.6980  172.6560  144.3120 C   0  0  0  0  0  3  0  0  0  0  0  0
  189.8630  173.8750  143.6860 C   0  0  2  0  0  3  0  0  0  0  0  0
  189.1660  172.4880  142.2250 N   0  0  0  0  0  0  0  0  0  0  0  0
  189.5350  173.7470  142.3900 N   0  0  0  0  0  0  0  0  0  0  0  0
  189.2540  171.8110  143.3620 N   0  0  0  0  0  0  0  0  0  0  0  0
  189.6850  175.4940  145.6270 C   0  0  1  0  0  3  0  0  0  0  0  0
  190.0850  176.8940  146.0710 C   0  0  2  0  0  3  0  0  0  0  0  0
  190.1060  176.9480  147.4660 O   0  0  0  0  0  1  0  0  0  0  0  0
  188.6730  176.6410  145.5470 C   0  0  2  0  0  0  0  0  0  0  0  0
  187.5350  176.4370  146.5410 C   0  0  0  0  0  2  0  0  0  0  0  0
  186.8990  177.7620  146.9150 C   0  0  0  0  0  2  0  0  0  0  0  0
  185.3550  179.0630  146.0360 C   0  0  0  0  0  1  0  0  0  0  0  0
  185.5660  177.7700  146.5110 O   0  0  0  0  0  0  0  0  0  0  0  0
  188.3000  177.1230  144.1330 C   0  0  0  0  0  2  0  0  0  0  0  0
  187.0350  176.4820  143.5710 C   0  0  0  0  0  2  0  0  0  0  0  0
  186.7020  179.0210  142.6130 O   0  0  0  0  0  1  0  0  0  0  0  0
  186.1550  177.6200  142.4590 P   0  0  0  0  0  0  0  0  0  0  0  0
  186.3740  177.1130  140.8610 O   0  0  0  0  0  0  0  0  0  0  0  0
  184.5040  177.6140  142.8260 O   0  0  0  0  0  1  0  0  0  0  0  0
  191.8540  175.1510  144.3260 N   0  0  0  0  0  0  0  0  0  0  0  0
  192.2580  174.0370  145.1740 C   0  0  0  0  0  1  0  0  0  0  0  0
  194.4390  175.6010  142.6650 C   0  0  2  0  0  0  0  0  0  0  0  0
  193.1230  176.2890  142.5190 C   0  0  0  0  0  2  0  0  0  0  0  0
  193.8580  174.3070  143.1350 C   0  0  0  0  0  2  0  0  0  0  0  0
  195.2270  176.2580  143.7860 C   0  0  1  0  0  3  0  0  0  0  0  0
  196.7080  175.9350  143.6790 C   0  0  2  0  0  3  0  0  0  0  0  0
  195.8620  176.0660  142.4220 C   0  0  1  0  0  3  0  0  0  0  0  0
  192.4710  174.9750  143.0010 C   0  0  1  0  0  3  0  0  0  0  0  0
  196.7580  173.8080  145.5330 S   0  0  0  0  0  0  0  0  0  0  0  0
  196.9680  174.4990  144.0090 C   0  0  0  0  0  0  0  0  0  0  0  0
  197.2130  172.2770  144.9960 C   0  0  0  0  0  0  0  0  0  0  0  0
  197.3600  173.5830  143.0920 N   0  0  0  0  0  0  0  0  0  0  0  0
  197.9340  171.1760  142.8330 C   0  0  0  0  0  1  0  0  0  0  0  0
  197.5030  172.3490  143.6400 C   0  0  0  0  0  0  0  0  0  0  0  0
  197.2860  171.1150  145.7680 O   0  0  0  0  0  0  0  0  0  0  0  0
  196.1390  170.3380  146.0900 C   0  0  0  0  0  2  0  0  0  0  0  0
  196.4830  169.3150  147.1570 C   0  0  0  0  0  1  0  0  0  0  0  0
  1 21  1  1  0  0  0
  3  1  1  6  0  0  0
  3  2  1  0  0  0  0
  4  5  2  0  0  0  0
  4  6  1  0  0  0  0
  5  3  1  0  0  0  0
  6  2  2  0  0  0  0
  7  1  1  6  0  0  0
  7  8  1  0  0  0  0
  8  9  1  1  0  0  0
 10 15  1  6  0  0  0
 10  7  1  0  0  0  0
 10  8  1  0  0  0  0
 10 11  1  0  0  0  0
 11 12  1  0  0  0  0
 13 14  1  0  0  0  0
 14 12  1  0  0  0  0
 16 15  1  0  0  0  0
 18 17  1  0  0  0  0
 18 20  1  0  0  0  0
 18 16  1  0  0  0  0
 19 18  2  0  0  0  0
 21 22  1  0  0  0  0
 23 25  1  0  0  0  0
 23 26  1  0  0  0  0
 24 23  1  0  0  0  0
 24 29  1  0  0  0  0
 27 26  1  0  0  0  0
 27 31  1  0  0  0  0
 28 23  1  0  0  0  0
 28 27  1  0  0  0  0
 28 26  1  0  0  0  0
 29 25  1  0  0  0  0
 29 21  1  0  0  0  0
 31 30  1  0  0  0  0
 32 30  1  0  0  0  0
 32 36  1  0  0  0  0
 33 35  1  0  0  0  0
 33 31  2  0  0  0  0
 34 35  1  0  0  0  0
 35 32  2  0  0  0  0
 36 37  1  0  0  0  0
 37 38  1  0  0  0  0
M  END
>  <MODEL>
3

>  <REMARK>
 VINA RESULT:      -5.9      4.073      8.806
  Name = 
  13 active torsions:
  status: ('A' for Active; 'I' for Inactive)
    1  A    between atoms: C_2  and  C_10
    2  A    between atoms: C_2  and  O_35
    3  A    between atoms: C_3  and  C_9
    4  A    between atoms: C_4  and  O_23
    5  A    between atoms: N_6  and  C_9
    6  A    between atoms: N_6  and  C_37
    7  A    between atoms: C_8  and  C_9
    8  A    between atoms: C_10  and  C_32
    9  A    between atoms: C_13  and  C_31
   10  A    between atoms: C_14  and  O_23
   11  A    between atoms: C_15  and  C_16
   12  A    between atoms: C_15  and  P_24
   13  A    between atoms: C_16  and  C_32
                            x       y       z     vdW  Elec       q    Type
                         _______ _______ _______ _____ _____    ______ ____

>  <TORSDO>
F 13

$$$$
=
 OpenBabel11062419273D

 38 43  0  0  1  0  0  0  0  0999 V2000
  194.4980  174.6470  142.7970 C   0  0  1  0  0  3  0  0  0  0  0  0
  192.6980  173.0950  141.7920 C   0  0  0  0  0  3  0  0  0  0  0  0
  193.5980  174.1380  141.7110 C   0  0  2  0  0  3  0  0  0  0  0  0
  192.7110  173.9030  139.7880 N   0  0  0  0  0  0  0  0  0  0  0  0
  193.5960  174.6200  140.4580 N   0  0  0  0  0  0  0  0  0  0  0  0
  192.1570  172.9810  140.5630 N   0  0  0  0  0  0  0  0  0  0  0  0
  195.6730  175.4890  142.2530 C   0  0  1  0  0  3  0  0  0  0  0  0
  196.6700  175.7720  143.3670 C   0  0  2  0  0  3  0  0  0  0  0  0
  197.2680  177.0150  143.1480 O   0  0  0  0  0  1  0  0  0  0  0  0
  197.0310  174.7810  142.2610 C   0  0  2  0  0  0  0  0  0  0  0  0
  197.8990  175.2480  141.0980 C   0  0  0  0  0  2  0  0  0  0  0  0
  197.9410  174.2020  140.0010 C   0  0  0  0  0  2  0  0  0  0  0  0
  196.7630  173.1470  138.4680 C   0  0  0  0  0  1  0  0  0  0  0  0
  196.8310  174.3480  139.1730 O   0  0  0  0  0  0  0  0  0  0  0  0
  197.0110  173.2730  142.5700 C   0  0  0  0  0  2  0  0  0  0  0  0
  197.8940  172.8670  143.7460 C   0  0  0  0  0  2  0  0  0  0  0  0
  197.5480  170.8970  145.6100 O   0  0  0  0  0  1  0  0  0  0  0  0
  196.9080  172.1710  145.1060 P   0  0  0  0  0  0  0  0  0  0  0  0
  196.8380  173.2920  146.3700 O   0  0  0  0  0  1  0  0  0  0  0  0
  195.3410  171.8410  144.5640 O   0  0  0  0  0  0  0  0  0  0  0  0
  193.7150  175.2790  143.8770 N   0  0  0  0  0  0  0  0  0  0  0  0
  192.7620  176.1750  143.2340 C   0  0  0  0  0  1  0  0  0  0  0  0
  191.9740  174.9510  146.4270 C   0  0  2  0  0  0  0  0  0  0  0  0
  193.3560  174.4390  146.1870 C   0  0  0  0  0  2  0  0  0  0  0  0
  191.5470  174.8480  144.9990 C   0  0  0  0  0  2  0  0  0  0  0  0
  192.0450  176.4090  146.8480 C   0  0  1  0  0  3  0  0  0  0  0  0
  190.7660  176.8420  147.5450 C   0  0  2  0  0  3  0  0  0  0  0  0
  191.2660  175.4140  147.6860 C   0  0  1  0  0  3  0  0  0  0  0  0
  192.9650  174.3140  144.6980 C   0  0  1  0  0  3  0  0  0  0  0  0
  188.0460  176.4460  146.9050 S   0  0  0  0  0  0  0  0  0  0  0  0
  189.6300  176.9240  146.5750 C   0  0  0  0  0  0  0  0  0  0  0  0
  187.5010  176.9000  145.3760 C   0  0  0  0  0  0  0  0  0  0  0  0
  189.7500  177.4400  145.3290 N   0  0  0  0  0  0  0  0  0  0  0  0
  188.4480  177.9300  143.2660 C   0  0  0  0  0  1  0  0  0  0  0  0
  188.5680  177.4220  144.6590 C   0  0  0  0  0  0  0  0  0  0  0  0
  186.1940  176.7840  144.8940 O   0  0  0  0  0  0  0  0  0  0  0  0
  185.1170  177.5520  145.4170 C   0  0  0  0  0  2  0  0  0  0  0  0
  185.5170  179.0120  145.5210 C   0  0  0  0  0  1  0  0  0  0  0  0
  1 21  1  1  0  0  0
  3  2  1  0  0  0  0
  3  1  1  6  0  0  0
  4  5  2  0  0  0  0
  4  6  1  0  0  0  0
  5  3  1  0  0  0  0
  6  2  2  0  0  0  0
  7 10  1  0  0  0  0
  7  1  1  1  0  0  0
  7  8  1  0  0  0  0
  8  9  1  6  0  0  0
 10 11  1  6  0  0  0
 10 15  1  0  0  0  0
 10  8  1  0  0  0  0
 12 11  1  0  0  0  0
 13 14  1  0  0  0  0
 14 12  1  0  0  0  0
 15 16  1  0  0  0  0
 16 18  1  0  0  0  0
 18 17  1  0  0  0  0
 18 19  1  0  0  0  0
 20 18  2  0  0  0  0
 21 29  1  0  0  0  0
 22 21  1  0  0  0  0
 23 26  1  0  0  0  0
 23 28  1  0  0  0  0
 24 23  1  0  0  0  0
 25 23  1  0  0  0  0
 26 27  1  0  0  0  0
 26 28  1  0  0  0  0
 27 28  1  0  0  0  0
 29 25  1  0  0  0  0
 29 24  1  0  0  0  0
 31 30  1  0  0  0  0
 31 27  1  0  0  0  0
 32 30  1  0  0  0  0
 33 31  2  0  0  0  0
 34 35  1  0  0  0  0
 35 33  1  0  0  0  0
 35 32  2  0  0  0  0
 36 32  1  0  0  0  0
 36 37  1  0  0  0  0
 37 38  1  0  0  0  0
M  END
>  <MODEL>
4

>  <REMARK>
 VINA RESULT:      -5.6      3.349      5.449
  Name = 
  13 active torsions:
  status: ('A' for Active; 'I' for Inactive)
    1  A    between atoms: C_2  and  C_10
    2  A    between atoms: C_2  and  O_35
    3  A    between atoms: C_3  and  C_9
    4  A    between atoms: C_4  and  O_23
    5  A    between atoms: N_6  and  C_9
    6  A    between atoms: N_6  and  C_37
    7  A    between atoms: C_8  and  C_9
    8  A    between atoms: C_10  and  C_32
    9  A    between atoms: C_13  and  C_31
   10  A    between atoms: C_14  and  O_23
   11  A    between atoms: C_15  and  C_16
   12  A    between atoms: C_15  and  P_24
   13  A    between atoms: C_16  and  C_32
                            x       y       z     vdW  Elec       q    Type
                         _______ _______ _______ _____ _____    ______ ____

>  <TORSDO>
F 13

$$$$
=
 OpenBabel11062419273D

 38 43  0  0  1  0  0  0  0  0999 V2000
  191.4940  175.4230  144.3380 C   0  0  1  0  0  3  0  0  0  0  0  0
  193.4530  174.8680  145.9240 C   0  0  0  0  0  3  0  0  0  0  0  0
  192.7630  175.7150  145.0800 C   0  0  0  0  0  0  0  0  0  0  0  0
  194.4320  176.7920  145.8520 N   0  0  0  0  0  0  0  0  0  0  0  0
  193.3840  176.9060  145.0550 N   0  0  0  0  0  0  0  0  0  0  0  0
  194.4980  175.5810  146.3870 N   0  0  0  0  0  2  0  0  0  0  0  0
  191.2250  173.9090  144.1880 C   0  0  1  0  0  3  0  0  0  0  0  0
  190.2910  173.6600  143.0130 C   0  0  2  0  0  3  0  0  0  0  0  0
  189.5010  172.5400  143.2780 O   0  0  0  0  0  1  0  0  0  0  0  0
  191.7670  173.2830  142.9000 C   0  0  2  0  0  0  0  0  0  0  0  0
  192.1850  171.8350  143.1290 C   0  0  0  0  0  2  0  0  0  0  0  0
  192.4170  171.1240  141.8100 C   0  0  0  0  0  2  0  0  0  0  0  0
  190.8240  169.6090  141.6860 C   0  0  0  0  0  1  0  0  0  0  0  0
  191.1940  170.8620  141.1990 O   0  0  0  0  0  0  0  0  0  0  0  0
  192.7040  174.1660  142.0560 C   0  0  0  0  0  2  0  0  0  0  0  0
  194.1720  173.7560  142.1230 C   0  0  0  0  0  2  0  0  0  0  0  0
  194.4530  176.4380  141.6710 O   0  0  0  0  0  1  0  0  0  0  0  0
  195.2710  175.1920  141.9290 P   0  0  0  0  0  0  0  0  0  0  0  0
  196.1640  175.4020  143.3490 O   0  0  0  0  0  1  0  0  0  0  0  0
  196.3280  174.9310  140.6360 O   0  0  0  0  0  0  0  0  0  0  0  0
  190.3730  176.2130  144.8830 N   0  0  0  0  0  0  0  0  0  0  0  0
  189.8900  177.0590  143.7990 C   0  0  0  0  0  1  0  0  0  0  0  0
  187.7900  176.2160  146.6070 C   0  0  2  0  0  0  0  0  0  0  0  0
  189.0820  175.5250  146.8900 C   0  0  0  0  0  2  0  0  0  0  0  0
  187.9070  176.1070  145.1210 C   0  0  0  0  0  2  0  0  0  0  0  0
  187.8940  177.6710  147.0340 C   0  0  1  0  0  3  0  0  0  0  0  0
  186.5190  178.2910  147.2120 C   0  0  2  0  0  3  0  0  0  0  0  0
  186.7370  176.8190  147.5180 C   0  0  1  0  0  3  0  0  0  0  0  0
  189.2530  175.3870  145.3620 C   0  0  1  0  0  3  0  0  0  0  0  0
  184.1750  178.6470  145.6800 S   0  0  0  0  0  0  0  0  0  0  0  0
  185.8400  178.4740  145.8910 C   0  0  0  0  0  0  0  0  0  0  0  0
  184.3200  178.8240  144.0100 C   0  0  0  0  0  0  0  0  0  0  0  0
  186.5080  178.5650  144.7170 N   0  0  0  0  0  0  0  0  0  0  0  0
  186.1610  178.8770  142.2720 C   0  0  0  0  0  1  0  0  0  0  0  0
  185.6640  178.7540  143.6690 C   0  0  0  0  0  0  0  0  0  0  0  0
  183.2740  179.0150  143.1030 O   0  0  0  0  0  0  0  0  0  0  0  0
  183.0940  178.1880  141.9600 C   0  0  0  0  0  2  0  0  0  0  0  0
  181.7910  178.5350  141.2630 C   0  0  0  0  0  1  0  0  0  0  0  0
  1 21  1  1  0  0  0
  1  3  1  0  0  0  0
  2  6  1  0  0  0  0
  3  2  2  0  0  0  0
  4  6  1  0  0  0  0
  5  3  1  0  0  0  0
  5  4  2  0  0  0  0
  7  1  1  6  0  0  0
  8  9  1  1  0  0  0
  8  7  1  0  0  0  0
 10 15  1  6  0  0  0
 10  8  1  0  0  0  0
 10 11  1  0  0  0  0
 10  7  1  0  0  0  0
 12 11  1  0  0  0  0
 14 13  1  0  0  0  0
 14 12  1  0  0  0  0
 15 16  1  0  0  0  0
 17 18  1  0  0  0  0
 18 16  1  0  0  0  0
 18 19  1  0  0  0  0
 20 18  2  0  0  0  0
 21 29  1  0  0  0  0
 22 21  1  0  0  0  0
 23 24  1  0  0  0  0
 23 26  1  0  0  0  0
 23 28  1  0  0  0  0
 25 29  1  0  0  0  0
 25 23  1  0  0  0  0
 26 27  1  0  0  0  0
 26 28  1  0  0  0  0
 27 28  1  0  0  0  0
 29 24  1  0  0  0  0
 30 31  1  0  0  0  0
 31 27  1  0  0  0  0
 32 30  1  0  0  0  0
 33 31  2  0  0  0  0
 34 35  1  0  0  0  0
 35 32  2  0  0  0  0
 35 33  1  0  0  0  0
 36 32  1  0  0  0  0
 37 36  1  0  0  0  0
 38 37  1  0  0  0  0
M  END
>  <MODEL>
5

>  <REMARK>
 VINA RESULT:      -5.5      1.932      3.154
  Name = 
  13 active torsions:
  status: ('A' for Active; 'I' for Inactive)
    1  A    between atoms: C_2  and  C_10
    2  A    between atoms: C_2  and  O_35
    3  A    between atoms: C_3  and  C_9
    4  A    between atoms: C_4  and  O_23
    5  A    between atoms: N_6  and  C_9
    6  A    between atoms: N_6  and  C_37
    7  A    between atoms: C_8  and  C_9
    8  A    between atoms: C_10  and  C_32
    9  A    between atoms: C_13  and  C_31
   10  A    between atoms: C_14  and  O_23
   11  A    between atoms: C_15  and  C_16
   12  A    between atoms: C_15  and  P_24
   13  A    between atoms: C_16  and  C_32
                            x       y       z     vdW  Elec       q    Type
                         _______ _______ _______ _____ _____    ______ ____

>  <TORSDO>
F 13

$$$$
=
 OpenBabel11062419273D

 38 43  0  0  1  0  0  0  0  0999 V2000
  192.3620  175.1180  144.3380 C   0  0  1  0  0  3  0  0  0  0  0  0
  193.3580  175.9750  146.5600 C   0  0  0  0  0  3  0  0  0  0  0  0
  193.2990  175.9300  145.1820 C   0  0  0  0  0  0  0  0  0  0  0  0
  194.8020  177.3420  145.7180 N   0  0  0  0  0  0  0  0  0  0  0  0
  194.1980  176.7920  144.6790 N   0  0  0  0  0  0  0  0  0  0  0  0
  194.3180  176.8710  146.8580 N   0  0  0  0  0  2  0  0  0  0  0  0
  192.2910  173.6400  144.7800 C   0  0  1  0  0  3  0  0  0  0  0  0
  191.8600  172.7670  143.6100 C   0  0  2  0  0  3  0  0  0  0  0  0
  191.1230  171.6820  144.0880 O   0  0  0  0  0  1  0  0  0  0  0  0
  193.3060  172.7150  144.1020 C   0  0  2  0  0  0  0  0  0  0  0  0
  193.7330  171.5910  145.0380 C   0  0  0  0  0  2  0  0  0  0  0  0
  195.1240  171.0960  144.6910 C   0  0  0  0  0  2  0  0  0  0  0  0
  197.0240  171.2180  145.7970 C   0  0  0  0  0  1  0  0  0  0  0  0
  195.7580  170.6380  145.8430 O   0  0  0  0  0  0  0  0  0  0  0  0
  194.4060  173.4030  143.2720 C   0  0  0  0  0  2  0  0  0  0  0  0
  194.5080  172.8990  141.8360 C   0  0  0  0  0  2  0  0  0  0  0  0
  192.5320  174.2140  140.4780 O   0  0  0  0  0  1  0  0  0  0  0  0
  194.0340  174.1910  140.6460 P   0  0  0  0  0  0  0  0  0  0  0  0
  194.5500  175.6930  141.2260 O   0  0  0  0  0  1  0  0  0  0  0  0
  194.7660  173.8870  139.1520 O   0  0  0  0  0  0  0  0  0  0  0  0
  191.0610  175.7980  144.1940 N   0  0  0  0  0  0  0  0  0  0  0  0
  190.8340  175.9730  142.7650 C   0  0  0  0  0  1  0  0  0  0  0  0
  188.3790  176.0210  145.7430 C   0  0  2  0  0  0  0  0  0  0  0  0
  189.6680  175.4400  146.2190 C   0  0  0  0  0  2  0  0  0  0  0  0
  188.5890  175.6490  144.3110 C   0  0  0  0  0  2  0  0  0  0  0  0
  188.4200  177.5320  145.9020 C   0  0  1  0  0  3  0  0  0  0  0  0
  187.0210  178.1240  145.8870 C   0  0  2  0  0  3  0  0  0  0  0  0
  187.2570  176.7400  146.4690 C   0  0  1  0  0  3  0  0  0  0  0  0
  189.9350  175.0330  144.7540 C   0  0  1  0  0  3  0  0  0  0  0  0
  184.7640  178.0150  144.1960 S   0  0  0  0  0  0  0  0  0  0  0  0
  186.4190  178.0400  144.5190 C   0  0  0  0  0  0  0  0  0  0  0  0
  185.0050  177.9540  142.5290 C   0  0  0  0  0  0  0  0  0  0  0  0
  187.1540  178.0210  143.3830 N   0  0  0  0  0  0  0  0  0  0  0  0
  186.9470  177.9290  140.9040 C   0  0  0  0  0  1  0  0  0  0  0  0
  186.3690  177.9670  142.2750 C   0  0  0  0  0  0  0  0  0  0  0  0
  184.0100  177.9040  141.5490 O   0  0  0  0  0  0  0  0  0  0  0  0
  182.6710  178.3150  141.7980 C   0  0  0  0  0  2  0  0  0  0  0  0
  181.8580  178.2530  140.5180 C   0  0  0  0  0  1  0  0  0  0  0  0
  1 21  1  1  0  0  0
  1  3  1  0  0  0  0
  2  6  1  0  0  0  0
  3  2  2  0  0  0  0
  4  6  1  0  0  0  0
  5  3  1  0  0  0  0
  5  4  2  0  0  0  0
  7  1  1  6  0  0  0
  8  9  1  1  0  0  0
  8 10  1  0  0  0  0
  8  7  1  0  0  0  0
 10 15  1  6  0  0  0
 10  7  1  0  0  0  0
 10 11  1  0  0  0  0
 12 11  1  0  0  0  0
 12 14  1  0  0  0  0
 13 14  1  0  0  0  0
 16 15  1  0  0  0  0
 17 18  1  0  0  0  0
 18 19  1  0  0  0  0
 18 16  1  0  0  0  0
 20 18  2  0  0  0  0
 21 29  1  0  0  0  0
 22 21  1  0  0  0  0
 23 26  1  0  0  0  0
 23 24  1  0  0  0  0
 23 28  1  0  0  0  0
 25 29  1  0  0  0  0
 25 23  1  0  0  0  0
 26 28  1  0  0  0  0
 27 26  1  0  0  0  0
 27 28  1  0  0  0  0
 29 24  1  0  0  0  0
 30 31  1  0  0  0  0
 31 27  1  0  0  0  0
 32 30  1  0  0  0  0
 33 31  2  0  0  0  0
 34 35  1  0  0  0  0
 35 32  2  0  0  0  0
 35 33  1  0  0  0  0
 36 37  1  0  0  0  0
 36 32  1  0  0  0  0
 38 37  1  0  0  0  0
M  END
>  <MODEL>
6

>  <REMARK>
 VINA RESULT:      -5.5      2.418      3.627
  Name = 
  13 active torsions:
  status: ('A' for Active; 'I' for Inactive)
    1  A    between atoms: C_2  and  C_10
    2  A    between atoms: C_2  and  O_35
    3  A    between atoms: C_3  and  C_9
    4  A    between atoms: C_4  and  O_23
    5  A    between atoms: N_6  and  C_9
    6  A    between atoms: N_6  and  C_37
    7  A    between atoms: C_8  and  C_9
    8  A    between atoms: C_10  and  C_32
    9  A    between atoms: C_13  and  C_31
   10  A    between atoms: C_14  and  O_23
   11  A    between atoms: C_15  and  C_16
   12  A    between atoms: C_15  and  P_24
   13  A    between atoms: C_16  and  C_32
                            x       y       z     vdW  Elec       q    Type
                         _______ _______ _______ _____ _____    ______ ____

>  <TORSDO>
F 13

$$$$
=
 OpenBabel11062419273D

 38 43  0  0  1  0  0  0  0  0999 V2000
  191.4600  174.9530  145.3150 C   0  0  1  0  0  3  0  0  0  0  0  0
  190.4590  172.6740  144.6330 C   0  0  0  0  0  3  0  0  0  0  0  0
  190.8600  173.9660  144.3590 C   0  0  2  0  0  3  0  0  0  0  0  0
  190.1730  173.1030  142.5350 N   0  0  0  0  0  0  0  0  0  0  0  0
  190.6820  174.2090  143.0500 N   0  0  0  0  0  0  0  0  0  0  0  0
  190.0290  172.1660  143.4620 N   0  0  0  0  0  0  0  0  0  0  0  0
  192.6990  175.6690  144.7330 C   0  0  1  0  0  3  0  0  0  0  0  0
  193.5700  176.2000  145.8620 C   0  0  2  0  0  3  0  0  0  0  0  0
  194.2050  177.3710  145.4450 O   0  0  0  0  0  1  0  0  0  0  0  0
  194.0380  174.9950  145.0480 C   0  0  2  0  0  0  0  0  0  0  0  0
  195.0360  175.2050  143.9150 C   0  0  0  0  0  2  0  0  0  0  0  0
  196.4560  175.2460  144.4450 C   0  0  0  0  0  2  0  0  0  0  0  0
  197.7450  174.3610  142.8930 C   0  0  0  0  0  1  0  0  0  0  0  0
  197.3290  175.5860  143.4140 O   0  0  0  0  0  0  0  0  0  0  0  0
  193.9630  173.5910  145.6750 C   0  0  0  0  0  2  0  0  0  0  0  0
  194.2140  172.4550  144.6880 C   0  0  0  0  0  2  0  0  0  0  0  0
  196.5110  172.2230  146.1520 O   0  0  0  0  0  1  0  0  0  0  0  0
  195.6440  171.4480  145.1850 P   0  0  0  0  0  0  0  0  0  0  0  0
  195.0930  170.0400  145.9420 O   0  0  0  0  0  1  0  0  0  0  0  0
  196.5510  171.0320  143.8210 O   0  0  0  0  0  0  0  0  0  0  0  0
  190.4220  175.8410  145.8730 N   0  0  0  0  0  0  0  0  0  0  0  0
  190.2120  176.9050  144.9000 C   0  0  0  0  0  1  0  0  0  0  0  0
  187.4100  176.2840  146.4840 C   0  0  2  0  0  0  0  0  0  0  0  0
  188.4530  175.7070  147.3810 C   0  0  0  0  0  2  0  0  0  0  0  0
  188.0310  175.7800  145.2210 C   0  0  0  0  0  2  0  0  0  0  0  0
  187.4860  177.8010  146.5340 C   0  0  1  0  0  3  0  0  0  0  0  0
  186.1970  178.4320  146.0370 C   0  0  2  0  0  3  0  0  0  0  0  0
  186.1620  177.0990  146.7660 C   0  0  1  0  0  3  0  0  0  0  0  0
  189.1360  175.1630  146.1080 C   0  0  1  0  0  3  0  0  0  0  0  0
  184.5710  178.0490  143.7630 S   0  0  0  0  0  0  0  0  0  0  0  0
  186.0440  178.2460  144.5610 C   0  0  0  0  0  0  0  0  0  0  0  0
  185.3060  177.9570  142.2490 C   0  0  0  0  0  0  0  0  0  0  0  0
  187.0860  178.2610  143.6960 N   0  0  0  0  0  0  0  0  0  0  0  0
  187.6430  178.0690  141.2790 C   0  0  0  0  0  1  0  0  0  0  0  0
  186.6780  178.0950  142.4110 C   0  0  0  0  0  0  0  0  0  0  0  0
  184.6610  177.7790  141.0220 O   0  0  0  0  0  0  0  0  0  0  0  0
  183.6880  178.6930  140.5320 C   0  0  0  0  0  2  0  0  0  0  0  0
  182.3080  178.0620  140.5750 C   0  0  0  0  0  1  0  0  0  0  0  0
  1 21  1  6  0  0  0
  3  2  1  0  0  0  0
  3  1  1  6  0  0  0
  4  5  2  0  0  0  0
  4  6  1  0  0  0  0
  5  3  1  0  0  0  0
  6  2  2  0  0  0  0
  7 10  1  0  0  0  0
  7  1  1  1  0  0  0
  7  8  1  0  0  0  0
  8  9  1  6  0  0  0
 10 11  1  6  0  0  0
 10 15  1  0  0  0  0
 10  8  1  0  0  0  0
 11 12  1  0  0  0  0
 13 14  1  0  0  0  0
 14 12  1  0  0  0  0
 16 18  1  0  0  0  0
 16 15  1  0  0  0  0
 18 19  1  0  0  0  0
 18 17  1  0  0  0  0
 20 18  2  0  0  0  0
 21 29  1  0  0  0  0
 22 21  1  0  0  0  0
 23 26  1  0  0  0  0
 23 28  1  0  0  0  0
 23 24  1  0  0  0  0
 25 29  1  0  0  0  0
 25 23  1  0  0  0  0
 26 28  1  0  0  0  0
 27 26  1  0  0  0  0
 27 28  1  0  0  0  0
 29 24  1  0  0  0  0
 30 31  1  0  0  0  0
 31 27  1  0  0  0  0
 32 35  2  0  0  0  0
 32 30  1  0  0  0  0
 33 31  2  0  0  0  0
 34 35  1  0  0  0  0
 35 33  1  0  0  0  0
 36 32  1  0  0  0  0
 37 38  1  0  0  0  0
 37 36  1  0  0  0  0
M  END
>  <MODEL>
7

>  <REMARK>
 VINA RESULT:      -5.4      3.022      5.095
  Name = 
  13 active torsions:
  status: ('A' for Active; 'I' for Inactive)
    1  A    between atoms: C_2  and  C_10
    2  A    between atoms: C_2  and  O_35
    3  A    between atoms: C_3  and  C_9
    4  A    between atoms: C_4  and  O_23
    5  A    between atoms: N_6  and  C_9
    6  A    between atoms: N_6  and  C_37
    7  A    between atoms: C_8  and  C_9
    8  A    between atoms: C_10  and  C_32
    9  A    between atoms: C_13  and  C_31
   10  A    between atoms: C_14  and  O_23
   11  A    between atoms: C_15  and  C_16
   12  A    between atoms: C_15  and  P_24
   13  A    between atoms: C_16  and  C_32
                            x       y       z     vdW  Elec       q    Type
                         _______ _______ _______ _____ _____    ______ ____

>  <TORSDO>
F 13

$$$$
=
 OpenBabel11062419273D

 38 43  0  0  1  0  0  0  0  0999 V2000
  192.9000  173.7830  142.6210 C   0  0  1  0  0  3  0  0  0  0  0  0
  191.8660  171.4180  142.6440 C   0  0  0  0  0  3  0  0  0  0  0  0
  192.0640  172.6620  142.0790 C   0  0  2  0  0  3  0  0  0  0  0  0
  190.8340  171.5390  140.7500 N   0  0  0  0  0  0  0  0  0  0  0  0
  191.4220  172.7130  140.9010 N   0  0  0  0  0  0  0  0  0  0  0  0
  191.0830  170.7430  141.7800 N   0  0  0  0  0  0  0  0  0  0  0  0
  193.7400  174.4820  141.5290 C   0  0  1  0  0  3  0  0  0  0  0  0
  194.5860  175.5840  142.1500 C   0  0  2  0  0  3  0  0  0  0  0  0
  194.7490  176.6180  141.2270 O   0  0  0  0  0  1  0  0  0  0  0  0
  195.2540  174.2980  141.6660 C   0  0  2  0  0  0  0  0  0  0  0  0
  195.9290  174.2790  140.2990 C   0  0  0  0  0  2  0  0  0  0  0  0
  197.3980  174.6330  140.4160 C   0  0  0  0  0  2  0  0  0  0  0  0
  197.6600  175.3460  138.3490 C   0  0  0  0  0  1  0  0  0  0  0  0
  197.6620  175.7810  139.6730 O   0  0  0  0  0  0  0  0  0  0  0  0
  195.7230  173.2610  142.7020 C   0  0  0  0  0  2  0  0  0  0  0  0
  196.6700  173.8220  143.7590 C   0  0  0  0  0  2  0  0  0  0  0  0
  197.1350  173.0110  146.3280 O   0  0  0  0  0  1  0  0  0  0  0  0
  196.0320  173.5360  145.4380 P   0  0  0  0  0  0  0  0  0  0  0  0
  195.4600  174.9960  146.0690 O   0  0  0  0  0  1  0  0  0  0  0  0
  194.7660  172.4150  145.3850 O   0  0  0  0  0  0  0  0  0  0  0  0
  192.0900  174.6810  143.4670 N   0  0  0  0  0  0  0  0  0  0  0  0
  191.0440  175.2310  142.6140 C   0  0  0  0  0  1  0  0  0  0  0  0
  190.8610  175.0870  146.2890 C   0  0  2  0  0  0  0  0  0  0  0  0
  192.1320  174.3910  145.9330 C   0  0  0  0  0  2  0  0  0  0  0  0
  190.1580  174.7320  145.0200 C   0  0  0  0  0  2  0  0  0  0  0  0
  191.1080  176.5850  146.3490 C   0  0  1  0  0  3  0  0  0  0  0  0
  190.0210  177.2900  147.1420 C   0  0  2  0  0  3  0  0  0  0  0  0
  190.4430  175.8780  147.5140 C   0  0  1  0  0  3  0  0  0  0  0  0
  191.4520  173.9980  144.6040 C   0  0  1  0  0  3  0  0  0  0  0  0
  188.5570  177.6790  144.7600 S   0  0  0  0  0  0  0  0  0  0  0  0
  188.7250  177.2880  146.3930 C   0  0  0  0  0  0  0  0  0  0  0  0
  186.8970  177.3870  144.7750 C   0  0  0  0  0  0  0  0  0  0  0  0
  187.5460  176.9220  146.9470 N   0  0  0  0  0  0  0  0  0  0  0  0
  185.1290  176.6350  146.4250 C   0  0  0  0  0  1  0  0  0  0  0  0
  186.5270  176.9830  146.0500 C   0  0  0  0  0  0  0  0  0  0  0  0
  186.0220  177.5200  143.6930 O   0  0  0  0  0  0  0  0  0  0  0  0
  185.5410  178.7830  143.2500 C   0  0  0  0  0  2  0  0  0  0  0  0
  184.2300  179.1140  143.9400 C   0  0  0  0  0  1  0  0  0  0  0  0
  1 21  1  6  0  0  0
  3  1  1  6  0  0  0
  3  2  1  0  0  0  0
  4  5  2  0  0  0  0
  4  6  1  0  0  0  0
  5  3  1  0  0  0  0
  6  2  2  0  0  0  0
  7 10  1  0  0  0  0
  7  8  1  0  0  0  0
  7  1  1  1  0  0  0
  8  9  1  6  0  0  0
 10 11  1  6  0  0  0
 10  8  1  0  0  0  0
 10 15  1  0  0  0  0
 11 12  1  0  0  0  0
 13 14  1  0  0  0  0
 14 12  1  0  0  0  0
 15 16  1  0  0  0  0
 16 18  1  0  0  0  0
 18 19  1  0  0  0  0
 18 17  1  0  0  0  0
 20 18  2  0  0  0  0
 21 29  1  0  0  0  0
 22 21  1  0  0  0  0
 23 26  1  0  0  0  0
 23 28  1  0  0  0  0
 24 23  1  0  0  0  0
 25 23  1  0  0  0  0
 26 27  1  0  0  0  0
 26 28  1  0  0  0  0
 27 28  1  0  0  0  0
 29 25  1  0  0  0  0
 29 24  1  0  0  0  0
 30 32  1  0  0  0  0
 30 31  1  0  0  0  0
 31 33  2  0  0  0  0
 31 27  1  0  0  0  0
 32 35  2  0  0  0  0
 35 34  1  0  0  0  0
 35 33  1  0  0  0  0
 36 32  1  0  0  0  0
 37 36  1  0  0  0  0
 37 38  1  0  0  0  0
M  END
>  <MODEL>
8

>  <REMARK>
 VINA RESULT:      -5.4      3.239      5.276
  Name = 
  13 active torsions:
  status: ('A' for Active; 'I' for Inactive)
    1  A    between atoms: C_2  and  C_10
    2  A    between atoms: C_2  and  O_35
    3  A    between atoms: C_3  and  C_9
    4  A    between atoms: C_4  and  O_23
    5  A    between atoms: N_6  and  C_9
    6  A    between atoms: N_6  and  C_37
    7  A    between atoms: C_8  and  C_9
    8  A    between atoms: C_10  and  C_32
    9  A    between atoms: C_13  and  C_31
   10  A    between atoms: C_14  and  O_23
   11  A    between atoms: C_15  and  C_16
   12  A    between atoms: C_15  and  P_24
   13  A    between atoms: C_16  and  C_32
                            x       y       z     vdW  Elec       q    Type
                         _______ _______ _______ _____ _____    ______ ____

>  <TORSDO>
F 13

$$$$
=
 OpenBabel11062419273D

 38 43  0  0  1  0  0  0  0  0999 V2000
  190.4420  175.1820  144.4590 C   0  0  1  0  0  3  0  0  0  0  0  0
  190.0150  173.5970  142.4670 C   0  0  0  0  0  3  0  0  0  0  0  0
  190.0230  173.8950  143.8150 C   0  0  2  0  0  3  0  0  0  0  0  0
  189.2420  171.9240  143.5940 N   0  0  0  0  0  0  0  0  0  0  0  0
  189.5330  172.8460  144.4960 N   0  0  0  0  0  0  0  0  0  0  0  0
  189.5210  172.3480  142.3690 N   0  0  0  0  0  0  0  0  0  0  0  0
  189.4480  175.6600  145.5400 C   0  0  1  0  0  3  0  0  0  0  0  0
  189.7430  177.1040  145.9170 C   0  0  2  0  0  3  0  0  0  0  0  0
  189.4230  177.3070  147.2610 O   0  0  0  0  0  1  0  0  0  0  0  0
  188.4980  176.7760  145.0940 C   0  0  2  0  0  0  0  0  0  0  0  0
  187.1500  176.6610  145.7970 C   0  0  0  0  0  2  0  0  0  0  0  0
  186.5120  178.0250  145.9690 C   0  0  0  0  0  2  0  0  0  0  0  0
  184.3960  178.6360  146.0160 C   0  0  0  0  0  1  0  0  0  0  0  0
  185.3480  177.9040  146.7250 O   0  0  0  0  0  0  0  0  0  0  0  0
  188.4870  177.0990  143.5890 C   0  0  0  0  0  2  0  0  0  0  0  0
  187.3910  176.3820  142.8070 C   0  0  0  0  0  2  0  0  0  0  0  0
  184.8120  177.2890  142.7650 O   0  0  0  0  0  1  0  0  0  0  0  0
  186.1680  177.5580  142.1520 P   0  0  0  0  0  0  0  0  0  0  0  0
  186.6490  179.1310  142.5400 O   0  0  0  0  0  1  0  0  0  0  0  0
  186.0690  177.4020  140.4710 O   0  0  0  0  0  0  0  0  0  0  0  0
  191.8550  175.1230  144.8820 N   0  0  0  0  0  0  0  0  0  0  0  0
  192.0670  173.7990  145.4520 C   0  0  0  0  0  1  0  0  0  0  0  0
  194.8660  175.2420  144.1330 C   0  0  2  0  0  0  0  0  0  0  0  0
  193.8780  176.3610  144.1430 C   0  0  0  0  0  2  0  0  0  0  0  0
  193.8680  174.1890  143.7770 C   0  0  0  0  0  2  0  0  0  0  0  0
  195.3830  175.0160  145.5440 C   0  0  1  0  0  3  0  0  0  0  0  0
  196.6920  174.2460  145.5330 C   0  0  2  0  0  3  0  0  0  0  0  0
  196.3590  175.2010  144.3990 C   0  0  1  0  0  3  0  0  0  0  0  0
  192.8060  175.3120  143.7750 C   0  0  1  0  0  3  0  0  0  0  0  0
  197.2290  172.0700  143.8170 S   0  0  0  0  0  0  0  0  0  0  0  0
  196.4730  172.8240  145.1240 C   0  0  0  0  0  0  0  0  0  0  0  0
  196.4700  170.5960  144.1200 C   0  0  0  0  0  0  0  0  0  0  0  0
  195.6660  171.9710  145.7980 N   0  0  0  0  0  0  0  0  0  0  0  0
  194.8410  169.6230  145.7960 C   0  0  0  0  0  1  0  0  0  0  0  0
  195.6590  170.7330  145.2380 C   0  0  0  0  0  0  0  0  0  0  0  0
  196.6240  169.4180  143.3830 O   0  0  0  0  0  0  0  0  0  0  0  0
  196.3160  169.3390  141.9970 C   0  0  0  0  0  2  0  0  0  0  0  0
  194.8800  169.7660  141.7550 C   0  0  0  0  0  1  0  0  0  0  0  0
  1 21  1  1  0  0  0
  2  3  1  0  0  0  0
  3  1  1  6  0  0  0
  3  5  1  0  0  0  0
  4  5  2  0  0  0  0
  6  2  2  0  0  0  0
  6  4  1  0  0  0  0
  7  1  1  6  0  0  0
  7  8  1  0  0  0  0
  8  9  1  1  0  0  0
 10 15  1  6  0  0  0
 10  7  1  0  0  0  0
 10 11  1  0  0  0  0
 10  8  1  0  0  0  0
 11 12  1  0  0  0  0
 12 14  1  0  0  0  0
 13 14  1  0  0  0  0
 16 15  1  0  0  0  0
 18 19  1  0  0  0  0
 18 17  1  0  0  0  0
 18 16  1  0  0  0  0
 20 18  2  0  0  0  0
 21 22  1  0  0  0  0
 23 24  1  0  0  0  0
 23 28  1  0  0  0  0
 23 26  1  0  0  0  0
 25 23  1  0  0  0  0
 27 26  1  0  0  0  0
 28 27  1  0  0  0  0
 28 26  1  0  0  0  0
 29 25  1  0  0  0  0
 29 24  1  0  0  0  0
 29 21  1  0  0  0  0
 30 32  1  0  0  0  0
 30 31  1  0  0  0  0
 31 27  1  0  0  0  0
 31 33  2  0  0  0  0
 32 35  2  0  0  0  0
 35 34  1  0  0  0  0
 35 33  1  0  0  0  0
 36 32  1  0  0  0  0
 37 36  1  0  0  0  0
 38 37  1  0  0  0  0
M  END
>  <MODEL>
9

>  <REMARK>
 VINA RESULT:      -5.4      3.936      8.902
  Name = 
  13 active torsions:
  status: ('A' for Active; 'I' for Inactive)
    1  A    between atoms: C_2  and  C_10
    2  A    between atoms: C_2  and  O_35
    3  A    between atoms: C_3  and  C_9
    4  A    between atoms: C_4  and  O_23
    5  A    between atoms: N_6  and  C_9
    6  A    between atoms: N_6  and  C_37
    7  A    between atoms: C_8  and  C_9
    8  A    between atoms: C_10  and  C_32
    9  A    between atoms: C_13  and  C_31
   10  A    between atoms: C_14  and  O_23
   11  A    between atoms: C_15  and  C_16
   12  A    between atoms: C_15  and  P_24
   13  A    between atoms: C_16  and  C_32
                            x       y       z     vdW  Elec       q    Type
                         _______ _______ _______ _____ _____    ______ ____

>  <TORSDO>
F 13

$$$$
