=
 OpenBabel11062419203D

 50 54  0  0  1  0  0  0  0  0999 V2000
  195.2880  175.9460  141.7670 C   0  0  0  0  0  3  0  0  0  0  0  0
  194.6050  175.6270  145.4480 C   0  0  0  0  0  3  0  0  0  0  0  0
  194.5580  175.8390  143.0360 C   0  0  0  0  0  0  0  0  0  0  0  0
  196.5730  176.1540  141.7670 N   0  0  0  0  0  0  0  0  0  0  0  0
  193.2070  175.6730  145.4800 C   0  0  0  0  0  0  0  0  0  0  0  0
  192.4750  175.7750  144.2830 C   0  0  0  0  0  0  0  0  0  0  0  0
  197.3330  176.3940  143.0000 C   0  0  0  0  0  2  0  0  0  0  0  0
  193.1640  175.8660  143.0640 C   0  0  0  0  0  3  0  0  0  0  0  0
  196.7840  175.5720  144.1730 C   0  0  1  0  0  3  0  0  0  0  0  0
  195.2850  175.7070  144.2300 C   0  0  0  0  0  0  0  0  0  0  0  0
  192.3940  175.5870  147.0320 Cl  0  0  0  0  0  0  0  0  0  0  0  0
  197.1520  174.1740  143.9930 N   0  0  0  0  0  2  0  0  0  0  0  0
  197.3790  173.7060  146.2730 O   0  0  0  0  0  0  0  0  0  0  0  0
  197.3890  173.2850  145.0850 C   0  0  0  0  0  0  0  0  0  0  0  0
  197.6260  171.8400  144.8140 C   0  0  0  0  0  2  0  0  0  0  0  0
  196.7200  170.9670  145.6770 C   0  0  2  0  0  3  0  0  0  0  0  0
  196.6130  169.1210  147.0470 O   0  0  0  0  0  1  0  0  0  0  0  0
  197.3750  169.7260  146.1020 N   0  0  0  0  0  2  0  0  0  0  0  0
  195.3230  169.9290  144.0640 O   0  0  0  0  0  0  0  0  0  0  0  0
  195.4050  170.7090  145.0010 C   0  0  0  0  0  0  0  0  0  0  0  0
  194.1870  171.4480  145.4550 C   0  0  0  0  0  2  0  0  0  0  0  0
  193.8060  172.3740  144.4770 O   0  0  0  0  0  0  0  0  0  0  0  0
  192.4810  172.0640  144.1520 C   0  0  0  0  0  2  0  0  0  0  0  0
  192.2750  172.1090  142.6360 C   0  0  1  0  0  3  0  0  0  0  0  0
  193.4240  170.4340  141.3590 O   0  0  0  0  0  1  0  0  0  0  0  0
  192.2400  170.6990  142.0500 C   0  0  0  0  0  3  0  0  0  0  0  0
  192.0910  169.7630  143.0730 O   0  0  0  0  0  1  0  0  0  0  0  0
  191.0280  172.9080  142.2650 C   0  0  0  0  0  2  0  0  0  0  0  0
  190.6400  172.6560  140.9430 O   0  0  0  0  0  0  0  0  0  0  0  0
  188.7530  174.0490  140.3770 C   0  0  0  0  0  2  0  0  0  0  0  0
  189.2370  172.7260  140.9240 C   0  0  1  0  0  0  0  0  0  0  0  0
  188.5110  172.7740  139.5820 C   0  0  2  0  0  3  0  0  0  0  0  0
  188.4620  172.3210  142.1700 C   0  0  0  0  0  1  0  0  0  0  0  0
  189.4700  172.7370  138.4040 C   0  0  0  0  0  2  0  0  0  0  0  0
  189.5430  174.0050  137.8280 O   0  0  0  0  0  1  0  0  0  0  0  0
  191.0390  175.8140  144.3340 N   0  0  0  0  0  2  0  0  0  0  0  0
  190.1830  176.9180  144.7820 C   0  0  2  0  0  3  0  0  0  0  0  0
  188.1770  175.3030  143.7680 Cl  0  0  0  0  0  0  0  0  0  0  0  0
  187.2080  176.5110  146.8180 C   0  0  0  0  0  2  0  0  0  0  0  0
  187.9000  177.6560  144.8720 O   0  0  0  0  0  0  0  0  0  0  0  0
  186.8950  177.4430  145.7600 N   0  0  0  0  0  0  0  0  0  0  0  0
  185.5380  177.7700  145.4340 C   0  0  0  0  0  0  0  0  0  0  0  0
  188.5200  175.9330  146.3770 C   0  0  0  0  0  2  0  0  0  0  0  0
  188.7130  176.5090  144.9770 C   0  0  2  0  0  0  0  0  0  0  0  0
  184.6180  177.5290  146.2630 O   0  0  0  0  0  0  0  0  0  0  0  0
  185.2220  179.9660  144.3170 C   0  0  0  0  0  2  0  0  0  0  0  0
  185.2140  178.4550  144.1420 C   0  0  0  0  0  3  0  0  0  0  0  0
  183.9090  179.2190  144.2800 C   0  0  0  0  0  2  0  0  0  0  0  0
  190.2140  177.8990  142.5990 O   0  0  0  0  0  1  0  0  0  0  0  0
  190.3650  178.1880  143.9550 C   0  0  0  0  0  2  0  0  0  0  0  0
  1  4  2  0  0  0  0
  1  3  1  0  0  0  0
  2  5  1  0  0  0  0
  3  8  2  0  0  0  0
  3 10  1  0  0  0  0
  4  7  1  0  0  0  0
  5 11  1  0  0  0  0
  6 36  1  0  0  0  0
  6  5  2  0  0  0  0
  7  9  1  0  0  0  0
  8  6  1  0  0  0  0
  9 12  1  6  0  0  0
  9 10  1  0  0  0  0
 10  2  2  0  0  0  0
 12 14  1  0  0  0  0
 14 13  2  0  0  0  0
 15 14  1  0  0  0  0
 16 15  1  6  0  0  0
 16 18  1  0  0  0  0
 18 17  1  0  0  0  0
 19 20  2  0  0  0  0
 20 21  1  0  0  0  0
 20 16  1  0  0  0  0
 22 21  1  0  0  0  0
 23 22  1  0  0  0  0
 24 28  1  1  0  0  0
 24 23  1  0  0  0  0
 25 26  1  0  0  0  0
 26 24  1  0  0  0  0
 26 27  1  0  0  0  0
 29 28  1  0  0  0  0
 30 31  1  0  0  0  0
 31 29  1  0  0  0  0
 31 33  1  1  0  0  0
 32 34  1  6  0  0  0
 32 30  1  0  0  0  0
 32 31  1  0  0  0  0
 35 34  1  0  0  0  0
 36 37  1  0  0  0  0
 37 50  1  6  0  0  0
 37 44  1  0  0  0  0
 40 44  1  0  0  0  0
 40 41  1  0  0  0  0
 41 39  1  0  0  0  0
 42 41  1  0  0  0  0
 42 45  2  0  0  0  0
 43 39  1  0  0  0  0
 44 38  1  6  0  0  0
 44 43  1  0  0  0  0
 47 48  1  0  0  0  0
 47 46  1  0  0  0  0
 47 42  1  0  0  0  0
 48 46  1  0  0  0  0
 49 50  1  0  0  0  0
M  END
>  <MODEL>
1

>  <REMARK>
 VINA RESULT:      -6.4      0.000      0.000
  Name = 
  19 active torsions:
  status: ('A' for Active; 'I' for Inactive)
    1  A    between atoms: C_7  and  C_14
    2  A    between atoms: C_7  and  C_30
    3  A    between atoms: C_7  and  C_46
    4  A    between atoms: C_9  and  C_35
    5  A    between atoms: C_12  and  C_37
    6  A    between atoms: C_12  and  O_40
    7  A    between atoms: C_14  and  O_40
    8  A    between atoms: N_16  and  C_29
    9  A    between atoms: N_16  and  CA_45
   10  A    between atoms: C_19  and  C_24
   11  A    between atoms: C_19  and  C_50
   12  A    between atoms: C_20  and  C_21
   13  A    between atoms: C_22  and  O_25
   14  A    between atoms: C_24  and  C_37
   15  A    between atoms: C_24  and  N_48
   16  A    between atoms: O_25  and  C_30
   17  A    between atoms: N_26  and  C_34
   18  A    between atoms: C_28  and  CA_45
   19  A    between atoms: C_39  and  CA_45
                            x       y       z     vdW  Elec       q    Type
                         _______ _______ _______ _____ _____    ______ ____

>  <TORSDO>
F 19

$$$$
=
 OpenBabel11062419203D

 50 54  0  0  1  0  0  0  0  0999 V2000
  195.1120  175.5900  142.0840 C   0  0  0  0  0  3  0  0  0  0  0  0
  194.2980  175.3910  145.7460 C   0  0  0  0  0  3  0  0  0  0  0  0
  194.3380  175.5620  143.3310 C   0  0  0  0  0  0  0  0  0  0  0  0
  196.4080  175.7020  142.1200 N   0  0  0  0  0  0  0  0  0  0  0  0
  192.9070  175.5420  145.7340 C   0  0  0  0  0  0  0  0  0  0  0  0
  192.2200  175.6760  144.5130 C   0  0  0  0  0  0  0  0  0  0  0  0
  197.1470  175.9090  143.3720 C   0  0  0  0  0  2  0  0  0  0  0  0
  192.9500  175.6920  143.3150 C   0  0  0  0  0  3  0  0  0  0  0  0
  196.5040  175.1510  144.5410 C   0  0  1  0  0  3  0  0  0  0  0  0
  195.0180  175.3980  144.5490 C   0  0  0  0  0  0  0  0  0  0  0  0
  192.0440  175.5450  147.2610 Cl  0  0  0  0  0  0  0  0  0  0  0  0
  196.7720  173.7260  144.3950 N   0  0  0  0  0  2  0  0  0  0  0  0
  197.1620  173.3380  146.6680 O   0  0  0  0  0  0  0  0  0  0  0  0
  197.0470  172.8690  145.5040 C   0  0  0  0  0  0  0  0  0  0  0  0
  197.1740  171.4020  145.2790 C   0  0  0  0  0  2  0  0  0  0  0  0
  196.0760  170.6410  146.0170 C   0  0  2  0  0  3  0  0  0  0  0  0
  197.3280  169.0130  147.0540 O   0  0  0  0  0  1  0  0  0  0  0  0
  196.3620  169.2070  146.1230 N   0  0  0  0  0  2  0  0  0  0  0  0
  194.0190  171.8100  145.8300 O   0  0  0  0  0  0  0  0  0  0  0  0
  194.7280  170.9050  145.4140 C   0  0  0  0  0  0  0  0  0  0  0  0
  194.2280  170.0240  144.3140 C   0  0  0  0  0  2  0  0  0  0  0  0
  194.4810  170.6240  143.0760 O   0  0  0  0  0  0  0  0  0  0  0  0
  193.4090  170.2660  142.2510 C   0  0  0  0  0  2  0  0  0  0  0  0
  193.3100  171.2170  141.0560 C   0  0  1  0  0  3  0  0  0  0  0  0
  191.6620  169.6150  140.3640 O   0  0  0  0  0  1  0  0  0  0  0  0
  192.5850  170.5500  139.8890 C   0  0  0  0  0  3  0  0  0  0  0  0
  191.9120  171.5110  139.1360 O   0  0  0  0  0  1  0  0  0  0  0  0
  192.6560  172.5400  141.4480 C   0  0  0  0  0  2  0  0  0  0  0  0
  191.8720  172.3950  142.6000 O   0  0  0  0  0  0  0  0  0  0  0  0
  189.5740  171.8160  142.1460 C   0  0  0  0  0  2  0  0  0  0  0  0
  190.6060  172.9130  142.2810 C   0  0  1  0  0  0  0  0  0  0  0  0
  189.4770  172.8000  143.3020 C   0  0  2  0  0  3  0  0  0  0  0  0
  190.4870  173.9310  141.1570 C   0  0  0  0  0  1  0  0  0  0  0  0
  189.9190  172.1070  144.5800 C   0  0  0  0  0  2  0  0  0  0  0  0
  189.6160  172.9150  145.6740 O   0  0  0  0  0  1  0  0  0  0  0  0
  190.7910  175.8220  144.5190 N   0  0  0  0  0  2  0  0  0  0  0  0
  190.0120  177.0650  144.5470 C   0  0  2  0  0  3  0  0  0  0  0  0
  187.7050  175.9630  143.4880 Cl  0  0  0  0  0  0  0  0  0  0  0  0
  187.1740  176.7210  146.7800 C   0  0  0  0  0  2  0  0  0  0  0  0
  187.8880  178.0900  144.9940 O   0  0  0  0  0  0  0  0  0  0  0  0
  186.9320  177.8650  145.9320 N   0  0  0  0  0  0  0  0  0  0  0  0
  185.6240  178.4340  145.8070 C   0  0  0  0  0  0  0  0  0  0  0  0
  188.3410  176.0530  146.1160 C   0  0  0  0  0  2  0  0  0  0  0  0
  188.5150  176.8410  144.8200 C   0  0  2  0  0  0  0  0  0  0  0  0
  184.7430  178.1800  146.6740 O   0  0  0  0  0  0  0  0  0  0  0  0
  183.9840  179.0360  144.0410 C   0  0  0  0  0  2  0  0  0  0  0  0
  185.3140  179.3830  144.6900 C   0  0  0  0  0  3  0  0  0  0  0  0
  185.2760  178.6280  143.3720 C   0  0  0  0  0  2  0  0  0  0  0  0
  191.2700  178.9070  143.6800 O   0  0  0  0  0  1  0  0  0  0  0  0
  190.2910  177.9700  143.3500 C   0  0  0  0  0  2  0  0  0  0  0  0
  1  4  2  0  0  0  0
  1  3  1  0  0  0  0
  3 10  1  0  0  0  0
  4  7  1  0  0  0  0
  5  2  1  0  0  0  0
  5 11  1  0  0  0  0
  6 36  1  0  0  0  0
  6  5  2  0  0  0  0
  7  9  1  0  0  0  0
  8  3  2  0  0  0  0
  8  6  1  0  0  0  0
  9 12  1  6  0  0  0
  9 10  1  0  0  0  0
 10  2  2  0  0  0  0
 12 14  1  0  0  0  0
 14 13  2  0  0  0  0
 15 14  1  0  0  0  0
 16 15  1  6  0  0  0
 16 18  1  0  0  0  0
 18 17  1  0  0  0  0
 20 19  2  0  0  0  0
 20 16  1  0  0  0  0
 21 20  1  0  0  0  0
 22 21  1  0  0  0  0
 23 22  1  0  0  0  0
 24 28  1  1  0  0  0
 24 23  1  0  0  0  0
 26 25  1  0  0  0  0
 26 24  1  0  0  0  0
 27 26  1  0  0  0  0
 28 29  1  0  0  0  0
 30 31  1  0  0  0  0
 30 32  1  0  0  0  0
 31 33  1  6  0  0  0
 31 29  1  0  0  0  0
 31 32  1  0  0  0  0
 32 34  1  1  0  0  0
 34 35  1  0  0  0  0
 36 37  1  0  0  0  0
 37 50  1  6  0  0  0
 37 44  1  0  0  0  0
 40 41  1  0  0  0  0
 41 39  1  0  0  0  0
 42 41  1  0  0  0  0
 42 45  2  0  0  0  0
 43 39  1  0  0  0  0
 44 38  1  6  0  0  0
 44 40  1  0  0  0  0
 44 43  1  0  0  0  0
 46 47  1  0  0  0  0
 47 42  1  0  0  0  0
 48 46  1  0  0  0  0
 48 47  1  0  0  0  0
 50 49  1  0  0  0  0
M  END
>  <MODEL>
2

>  <REMARK>
 VINA RESULT:      -6.3      1.300      2.111
  Name = 
  19 active torsions:
  status: ('A' for Active; 'I' for Inactive)
    1  A    between atoms: C_7  and  C_14
    2  A    between atoms: C_7  and  C_30
    3  A    between atoms: C_7  and  C_46
    4  A    between atoms: C_9  and  C_35
    5  A    between atoms: C_12  and  C_37
    6  A    between atoms: C_12  and  O_40
    7  A    between atoms: C_14  and  O_40
    8  A    between atoms: N_16  and  C_29
    9  A    between atoms: N_16  and  CA_45
   10  A    between atoms: C_19  and  C_24
   11  A    between atoms: C_19  and  C_50
   12  A    between atoms: C_20  and  C_21
   13  A    between atoms: C_22  and  O_25
   14  A    between atoms: C_24  and  C_37
   15  A    between atoms: C_24  and  N_48
   16  A    between atoms: O_25  and  C_30
   17  A    between atoms: N_26  and  C_34
   18  A    between atoms: C_28  and  CA_45
   19  A    between atoms: C_39  and  CA_45
                            x       y       z     vdW  Elec       q    Type
                         _______ _______ _______ _____ _____    ______ ____

>  <TORSDO>
F 19

$$$$
=
 OpenBabel11062419203D

 50 54  0  0  1  0  0  0  0  0999 V2000
  190.8680  173.2580  144.1970 C   0  0  0  0  0  3  0  0  0  0  0  0
  189.9870  173.2680  140.5440 C   0  0  0  0  0  3  0  0  0  0  0  0
  190.1730  173.5650  142.9400 C   0  0  0  0  0  0  0  0  0  0  0  0
  191.7520  172.3040  144.2390 N   0  0  0  0  0  0  0  0  0  0  0  0
  188.8570  174.0920  140.5300 C   0  0  0  0  0  0  0  0  0  0  0  0
  188.3940  174.6810  141.7210 C   0  0  0  0  0  0  0  0  0  0  0  0
  192.0240  171.4300  143.0920 C   0  0  0  0  0  2  0  0  0  0  0  0
  189.0590  174.4030  142.9250 C   0  0  0  0  0  3  0  0  0  0  0  0
  191.9180  172.1890  141.7630 C   0  0  1  0  0  3  0  0  0  0  0  0
  190.6500  173.0030  141.7450 C   0  0  0  0  0  0  0  0  0  0  0  0
  188.0440  174.3850  139.0030 Cl  0  0  0  0  0  0  0  0  0  0  0  0
  193.0740  173.0630  141.6150 N   0  0  0  0  0  2  0  0  0  0  0  0
  193.3220  172.7180  139.3160 O   0  0  0  0  0  0  0  0  0  0  0  0
  193.6980  173.3210  140.3570 C   0  0  0  0  0  0  0  0  0  0  0  0
  194.7880  174.3320  140.2750 C   0  0  0  0  0  2  0  0  0  0  0  0
  195.4460  174.5350  141.6370 C   0  0  2  0  0  3  0  0  0  0  0  0
  195.1300  176.7900  141.3040 O   0  0  0  0  0  1  0  0  0  0  0  0
  195.0850  175.8180  142.2490 N   0  0  0  0  0  2  0  0  0  0  0  0
  197.5470  174.6070  140.5340 O   0  0  0  0  0  0  0  0  0  0  0  0
  196.9330  174.3450  141.5580 C   0  0  0  0  0  0  0  0  0  0  0  0
  197.6670  173.7890  142.7360 C   0  0  0  0  0  2  0  0  0  0  0  0
  197.8330  174.7870  143.7020 O   0  0  0  0  0  0  0  0  0  0  0  0
  197.6330  174.1610  144.9380 C   0  0  0  0  0  2  0  0  0  0  0  0
  196.1540  173.8220  145.1360 C   0  0  1  0  0  3  0  0  0  0  0  0
  195.0870  171.6840  144.9170 O   0  0  0  0  0  1  0  0  0  0  0  0
  195.9900  172.4110  145.6960 C   0  0  0  0  0  3  0  0  0  0  0  0
  197.2200  171.7550  145.6990 O   0  0  0  0  0  1  0  0  0  0  0  0
  195.4540  174.8630  146.0060 C   0  0  0  0  0  2  0  0  0  0  0  0
  194.0670  174.8350  145.8120 O   0  0  0  0  0  0  0  0  0  0  0  0
  192.3260  176.3880  145.1940 C   0  0  0  0  0  2  0  0  0  0  0  0
  193.6250  176.1630  145.9350 C   0  0  1  0  0  0  0  0  0  0  0  0
  192.3460  176.4530  146.7140 C   0  0  2  0  0  3  0  0  0  0  0  0
  194.6120  177.2940  145.6850 C   0  0  0  0  0  1  0  0  0  0  0  0
  191.7080  175.1920  147.2710 C   0  0  0  0  0  2  0  0  0  0  0  0
  190.4350  175.4910  147.7550 O   0  0  0  0  0  1  0  0  0  0  0  0
  187.2360  175.5310  141.6850 N   0  0  0  0  0  2  0  0  0  0  0  0
  187.1910  176.9860  141.5050 C   0  0  2  0  0  3  0  0  0  0  0  0
  188.5910  177.9610  143.6840 Cl  0  0  0  0  0  0  0  0  0  0  0  0
  185.4560  179.3280  143.6640 C   0  0  0  0  0  2  0  0  0  0  0  0
  186.1350  177.0670  143.6590 O   0  0  0  0  0  0  0  0  0  0  0  0
  185.4640  178.0430  144.3230 N   0  0  0  0  0  0  0  0  0  0  0  0
  185.1750  177.9220  145.7210 C   0  0  0  0  0  0  0  0  0  0  0  0
  186.4360  179.1370  142.5450 C   0  0  0  0  0  2  0  0  0  0  0  0
  187.0340  177.7600  142.8240 C   0  0  2  0  0  0  0  0  0  0  0  0
  184.5820  178.8600  146.3220 O   0  0  0  0  0  0  0  0  0  0  0  0
  186.1650  176.9800  147.7950 C   0  0  0  0  0  2  0  0  0  0  0  0
  185.5130  176.6630  146.4580 C   0  0  0  0  0  3  0  0  0  0  0  0
  187.0190  176.5540  146.6230 C   0  0  0  0  0  2  0  0  0  0  0  0
  186.8560  177.4300  139.1760 O   0  0  0  0  0  1  0  0  0  0  0  0
  186.2150  177.4220  140.4150 C   0  0  0  0  0  2  0  0  0  0  0  0
  1  4  2  0  0  0  0
  2 10  1  0  0  0  0
  3  1  1  0  0  0  0
  5  2  2  0  0  0  0
  5  6  1  0  0  0  0
  6  8  2  0  0  0  0
  7  4  1  0  0  0  0
  8  3  1  0  0  0  0
  9 12  1  1  0  0  0
  9  7  1  0  0  0  0
 10  9  1  0  0  0  0
 10  3  2  0  0  0  0
 11  5  1  0  0  0  0
 13 14  2  0  0  0  0
 14 12  1  0  0  0  0
 15 14  1  0  0  0  0
 16 15  1  6  0  0  0
 16 18  1  0  0  0  0
 17 18  1  0  0  0  0
 19 20  2  0  0  0  0
 20 16  1  0  0  0  0
 20 21  1  0  0  0  0
 21 22  1  0  0  0  0
 22 23  1  0  0  0  0
 24 23  1  1  0  0  0
 24 26  1  0  0  0  0
 24 28  1  0  0  0  0
 25 26  1  0  0  0  0
 26 27  1  0  0  0  0
 29 31  1  0  0  0  0
 29 28  1  0  0  0  0
 30 31  1  0  0  0  0
 30 32  1  0  0  0  0
 31 33  1  6  0  0  0
 31 32  1  0  0  0  0
 32 34  1  1  0  0  0
 34 35  1  0  0  0  0
 36  6  1  0  0  0  0
 37 50  1  6  0  0  0
 37 36  1  0  0  0  0
 37 44  1  0  0  0  0
 39 41  1  0  0  0  0
 40 41  1  0  0  0  0
 41 42  1  0  0  0  0
 42 45  2  0  0  0  0
 42 47  1  0  0  0  0
 43 44  1  0  0  0  0
 43 39  1  0  0  0  0
 44 40  1  0  0  0  0
 44 38  1  1  0  0  0
 47 48  1  0  0  0  0
 47 46  1  0  0  0  0
 48 46  1  0  0  0  0
 49 50  1  0  0  0  0
M  END
>  <MODEL>
3

>  <REMARK>
 VINA RESULT:      -6.2      2.596      5.996
  Name = 
  19 active torsions:
  status: ('A' for Active; 'I' for Inactive)
    1  A    between atoms: C_7  and  C_14
    2  A    between atoms: C_7  and  C_30
    3  A    between atoms: C_7  and  C_46
    4  A    between atoms: C_9  and  C_35
    5  A    between atoms: C_12  and  C_37
    6  A    between atoms: C_12  and  O_40
    7  A    between atoms: C_14  and  O_40
    8  A    between atoms: N_16  and  C_29
    9  A    between atoms: N_16  and  CA_45
   10  A    between atoms: C_19  and  C_24
   11  A    between atoms: C_19  and  C_50
   12  A    between atoms: C_20  and  C_21
   13  A    between atoms: C_22  and  O_25
   14  A    between atoms: C_24  and  C_37
   15  A    between atoms: C_24  and  N_48
   16  A    between atoms: O_25  and  C_30
   17  A    between atoms: N_26  and  C_34
   18  A    between atoms: C_28  and  CA_45
   19  A    between atoms: C_39  and  CA_45
                            x       y       z     vdW  Elec       q    Type
                         _______ _______ _______ _____ _____    ______ ____

>  <TORSDO>
F 19

$$$$
=
 OpenBabel11062419203D

 50 54  0  0  1  0  0  0  0  0999 V2000
  190.2640  173.3490  137.9370 C   0  0  0  0  0  3  0  0  0  0  0  0
  190.8080  173.1350  141.6480 C   0  0  0  0  0  3  0  0  0  0  0  0
  190.9460  173.2610  139.2340 C   0  0  0  0  0  0  0  0  0  0  0  0
  188.9770  173.1720  137.8600 N   0  0  0  0  0  0  0  0  0  0  0  0
  192.2020  173.0530  141.7240 C   0  0  0  0  0  0  0  0  0  0  0  0
  192.9790  173.1020  140.5520 C   0  0  0  0  0  0  0  0  0  0  0  0
  188.1650  172.7790  139.0190 C   0  0  0  0  0  2  0  0  0  0  0  0
  192.3370  173.1990  139.3080 C   0  0  0  0  0  3  0  0  0  0  0  0
  188.6820  173.4170  140.3150 C   0  0  1  0  0  3  0  0  0  0  0  0
  190.1750  173.2410  140.4070 C   0  0  0  0  0  0  0  0  0  0  0  0
  192.9550  172.9030  143.3010 Cl  0  0  0  0  0  0  0  0  0  0  0  0
  188.3450  174.8350  140.3200 N   0  0  0  0  0  2  0  0  0  0  0  0
  187.7310  174.9110  142.5750 O   0  0  0  0  0  0  0  0  0  0  0  0
  187.9220  175.5300  141.4930 C   0  0  0  0  0  0  0  0  0  0  0  0
  187.7300  177.0060  141.4390 C   0  0  0  0  0  2  0  0  0  0  0  0
  186.2470  177.3640  141.4720 C   0  0  2  0  0  3  0  0  0  0  0  0
  186.6690  177.6320  139.2260 O   0  0  0  0  0  1  0  0  0  0  0  0
  185.7810  177.9360  140.2050 N   0  0  0  0  0  2  0  0  0  0  0  0
  186.4490  179.3430  142.7670 O   0  0  0  0  0  0  0  0  0  0  0  0
  185.9240  178.2460  142.6420 C   0  0  0  0  0  0  0  0  0  0  0  0
  184.9780  177.7570  143.6930 C   0  0  0  0  0  2  0  0  0  0  0  0
  185.5780  176.7260  144.4240 O   0  0  0  0  0  0  0  0  0  0  0  0
  185.2350  176.9560  145.7610 C   0  0  0  0  0  2  0  0  0  0  0  0
  186.4530  177.4360  146.5540 C   0  0  1  0  0  3  0  0  0  0  0  0
  186.6690  179.3640  147.9670 O   0  0  0  0  0  1  0  0  0  0  0  0
  186.0230  178.1320  147.8430 C   0  0  0  0  0  3  0  0  0  0  0  0
  184.6440  178.3420  147.8330 O   0  0  0  0  0  1  0  0  0  0  0  0
  187.4290  176.2930  146.8250 C   0  0  0  0  0  2  0  0  0  0  0  0
  188.1540  175.9640  145.6720 O   0  0  0  0  0  0  0  0  0  0  0  0
  190.3700  175.3430  144.9470 C   0  0  0  0  0  2  0  0  0  0  0  0
  189.4970  175.8520  146.0710 C   0  0  1  0  0  0  0  0  0  0  0  0
  190.5390  176.7720  145.4420 C   0  0  2  0  0  3  0  0  0  0  0  0
  189.8200  175.1570  147.3860 C   0  0  0  0  0  1  0  0  0  0  0  0
  189.9330  177.7220  144.4230 C   0  0  0  0  0  2  0  0  0  0  0  0
  190.9380  178.5240  143.8830 O   0  0  0  0  0  1  0  0  0  0  0  0
  194.4110  173.0250  140.6500 N   0  0  0  0  0  2  0  0  0  0  0  0
  195.3840  174.1150  140.5200 C   0  0  2  0  0  3  0  0  0  0  0  0
  196.4500  173.2920  142.9380 Cl  0  0  0  0  0  0  0  0  0  0  0  0
  196.8420  176.6760  142.6350 C   0  0  0  0  0  2  0  0  0  0  0  0
  194.8930  175.3490  142.5200 O   0  0  0  0  0  0  0  0  0  0  0  0
  195.5450  176.3440  143.1750 N   0  0  0  0  0  0  0  0  0  0  0  0
  195.1760  176.7170  144.5080 C   0  0  0  0  0  0  0  0  0  0  0  0
  197.0810  175.5810  141.6390 C   0  0  0  0  0  2  0  0  0  0  0  0
  195.9130  174.6250  141.8710 C   0  0  2  0  0  0  0  0  0  0  0  0
  195.8220  177.6210  145.1080 O   0  0  0  0  0  0  0  0  0  0  0  0
  193.9680  176.4080  146.6560 C   0  0  0  0  0  2  0  0  0  0  0  0
  193.9890  176.0880  145.1700 C   0  0  0  0  0  3  0  0  0  0  0  0
  194.4540  175.0570  146.1840 C   0  0  0  0  0  2  0  0  0  0  0  0
  195.3390  174.9640  138.2820 O   0  0  0  0  0  1  0  0  0  0  0  0
  194.9130  175.2260  139.5840 C   0  0  0  0  0  2  0  0  0  0  0  0
  1  3  1  0  0  0  0
  2  5  1  0  0  0  0
  3  8  2  0  0  0  0
  3 10  1  0  0  0  0
  4  1  2  0  0  0  0
  4  7  1  0  0  0  0
  5 11  1  0  0  0  0
  6 36  1  0  0  0  0
  6  5  2  0  0  0  0
  7  9  1  0  0  0  0
  8  6  1  0  0  0  0
  9 12  1  6  0  0  0
  9 10  1  0  0  0  0
 10  2  2  0  0  0  0
 12 14  1  0  0  0  0
 14 13  2  0  0  0  0
 15 14  1  0  0  0  0
 16 15  1  6  0  0  0
 16 20  1  0  0  0  0
 17 18  1  0  0  0  0
 18 16  1  0  0  0  0
 20 19  2  0  0  0  0
 20 21  1  0  0  0  0
 21 22  1  0  0  0  0
 22 23  1  0  0  0  0
 24 23  1  1  0  0  0
 24 28  1  0  0  0  0
 24 26  1  0  0  0  0
 26 25  1  0  0  0  0
 27 26  1  0  0  0  0
 29 31  1  0  0  0  0
 29 28  1  0  0  0  0
 30 32  1  0  0  0  0
 30 31  1  0  0  0  0
 31 33  1  1  0  0  0
 32 34  1  6  0  0  0
 32 31  1  0  0  0  0
 35 34  1  0  0  0  0
 37 50  1  1  0  0  0
 37 36  1  0  0  0  0
 37 44  1  0  0  0  0
 39 41  1  0  0  0  0
 40 41  1  0  0  0  0
 41 42  1  0  0  0  0
 42 45  2  0  0  0  0
 42 47  1  0  0  0  0
 43 44  1  0  0  0  0
 43 39  1  0  0  0  0
 44 40  1  0  0  0  0
 44 38  1  1  0  0  0
 47 48  1  0  0  0  0
 47 46  1  0  0  0  0
 48 46  1  0  0  0  0
 49 50  1  0  0  0  0
M  END
>  <MODEL>
4

>  <REMARK>
 VINA RESULT:      -6.2      3.334      9.290
  Name = 
  19 active torsions:
  status: ('A' for Active; 'I' for Inactive)
    1  A    between atoms: C_7  and  C_14
    2  A    between atoms: C_7  and  C_30
    3  A    between atoms: C_7  and  C_46
    4  A    between atoms: C_9  and  C_35
    5  A    between atoms: C_12  and  C_37
    6  A    between atoms: C_12  and  O_40
    7  A    between atoms: C_14  and  O_40
    8  A    between atoms: N_16  and  C_29
    9  A    between atoms: N_16  and  CA_45
   10  A    between atoms: C_19  and  C_24
   11  A    between atoms: C_19  and  C_50
   12  A    between atoms: C_20  and  C_21
   13  A    between atoms: C_22  and  O_25
   14  A    between atoms: C_24  and  C_37
   15  A    between atoms: C_24  and  N_48
   16  A    between atoms: O_25  and  C_30
   17  A    between atoms: N_26  and  C_34
   18  A    between atoms: C_28  and  CA_45
   19  A    between atoms: C_39  and  CA_45
                            x       y       z     vdW  Elec       q    Type
                         _______ _______ _______ _____ _____    ______ ____

>  <TORSDO>
F 19

$$$$
=
 OpenBabel11062419203D

 50 54  0  0  1  0  0  0  0  0999 V2000
  190.0230  177.1390  146.3170 C   0  0  0  0  0  3  0  0  0  0  0  0
  190.6710  173.6810  145.0000 C   0  0  0  0  0  3  0  0  0  0  0  0
  189.9590  175.9490  145.4590 C   0  0  0  0  0  0  0  0  0  0  0  0
  190.5950  177.0750  147.4840 N   0  0  0  0  0  0  0  0  0  0  0  0
  189.8390  173.6480  143.8750 C   0  0  0  0  0  0  0  0  0  0  0  0
  189.0820  174.7790  143.5210 C   0  0  0  0  0  0  0  0  0  0  0  0
  191.1050  175.8170  148.0440 C   0  0  0  0  0  2  0  0  0  0  0  0
  189.1450  175.9250  144.3280 C   0  0  0  0  0  3  0  0  0  0  0  0
  191.6920  174.9090  146.9560 C   0  0  1  0  0  3  0  0  0  0  0  0
  190.7370  174.8290  145.7940 C   0  0  0  0  0  0  0  0  0  0  0  0
  189.7730  172.1800  142.9160 Cl  0  0  0  0  0  0  0  0  0  0  0  0
  192.9690  175.4520  146.5150 N   0  0  0  0  0  2  0  0  0  0  0  0
  193.9770  173.3750  146.1400 O   0  0  0  0  0  0  0  0  0  0  0  0
  194.0530  174.6320  146.0750 C   0  0  0  0  0  0  0  0  0  0  0  0
  195.2740  175.2740  145.5130 C   0  0  0  0  0  2  0  0  0  0  0  0
  195.4940  174.8490  144.0630 C   0  0  2  0  0  3  0  0  0  0  0  0
  197.5460  174.3590  144.9820 O   0  0  0  0  0  1  0  0  0  0  0  0
  196.8030  174.2220  143.8560 N   0  0  0  0  0  2  0  0  0  0  0  0
  194.1310  176.2640  142.7320 O   0  0  0  0  0  0  0  0  0  0  0  0
  195.2580  175.9910  143.1180 C   0  0  0  0  0  0  0  0  0  0  0  0
  196.4240  176.7780  142.6100 C   0  0  0  0  0  2  0  0  0  0  0  0
  196.2980  176.9650  141.2290 O   0  0  0  0  0  0  0  0  0  0  0  0
  196.9880  175.9020  140.6340 C   0  0  0  0  0  2  0  0  0  0  0  0
  196.1550  175.2820  139.5110 C   0  0  1  0  0  3  0  0  0  0  0  0
  197.4420  173.4380  138.6730 O   0  0  0  0  0  1  0  0  0  0  0  0
  197.0530  174.7510  138.3970 C   0  0  0  0  0  3  0  0  0  0  0  0
  196.3690  174.7760  137.1820 O   0  0  0  0  0  1  0  0  0  0  0  0
  195.2140  174.2030  140.0440 C   0  0  0  0  0  2  0  0  0  0  0  0
  193.9350  174.3270  139.4850 O   0  0  0  0  0  0  0  0  0  0  0  0
  191.7440  173.7940  140.3450 C   0  0  0  0  0  2  0  0  0  0  0  0
  193.1520  173.3170  140.0690 C   0  0  1  0  0  0  0  0  0  0  0  0
  191.9820  172.7320  139.2810 C   0  0  2  0  0  3  0  0  0  0  0  0
  193.7150  172.5340  141.2460 C   0  0  0  0  0  1  0  0  0  0  0  0
  191.8340  173.3670  137.9090 C   0  0  0  0  0  2  0  0  0  0  0  0
  190.5070  173.7460  137.7150 O   0  0  0  0  0  1  0  0  0  0  0  0
  188.2390  174.7290  142.3580 N   0  0  0  0  0  2  0  0  0  0  0  0
  188.2300  175.6450  141.2110 C   0  0  2  0  0  3  0  0  0  0  0  0
  188.3920  178.2890  142.0110 Cl  0  0  0  0  0  0  0  0  0  0  0  0
  185.3160  177.7240  140.6270 C   0  0  0  0  0  2  0  0  0  0  0  0
  186.4070  176.6380  142.4170 O   0  0  0  0  0  0  0  0  0  0  0  0
  185.3340  177.3730  142.0280 N   0  0  0  0  0  0  0  0  0  0  0  0
  184.5410  178.0870  142.9840 C   0  0  0  0  0  0  0  0  0  0  0  0
  186.6790  177.3080  140.1600 C   0  0  0  0  0  2  0  0  0  0  0  0
  187.3940  176.9130  141.4500 C   0  0  2  0  0  0  0  0  0  0  0  0
  183.5700  178.7920  142.5920 O   0  0  0  0  0  0  0  0  0  0  0  0
  184.6050  179.2740  145.1640 C   0  0  0  0  0  2  0  0  0  0  0  0
  184.8150  177.9490  144.4490 C   0  0  0  0  0  3  0  0  0  0  0  0
  186.0050  178.8120  144.8320 C   0  0  0  0  0  2  0  0  0  0  0  0
  188.2050  173.5810  139.9970 O   0  0  0  0  0  1  0  0  0  0  0  0
  187.9220  174.9430  139.8910 C   0  0  0  0  0  2  0  0  0  0  0  0
  1  4  2  0  0  0  0
  2 10  1  0  0  0  0
  3 10  2  0  0  0  0
  3  1  1  0  0  0  0
  4  7  1  0  0  0  0
  5  2  2  0  0  0  0
  6  5  1  0  0  0  0
  6  8  2  0  0  0  0
  8  3  1  0  0  0  0
  9 12  1  6  0  0  0
  9  7  1  0  0  0  0
 10  9  1  0  0  0  0
 11  5  1  0  0  0  0
 14 13  2  0  0  0  0
 14 12  1  0  0  0  0
 15 14  1  0  0  0  0
 16 15  1  1  0  0  0
 18 16  1  0  0  0  0
 18 17  1  0  0  0  0
 19 20  2  0  0  0  0
 20 16  1  0  0  0  0
 21 20  1  0  0  0  0
 22 21  1  0  0  0  0
 23 22  1  0  0  0  0
 24 28  1  1  0  0  0
 24 23  1  0  0  0  0
 26 25  1  0  0  0  0
 26 24  1  0  0  0  0
 27 26  1  0  0  0  0
 29 28  1  0  0  0  0
 29 31  1  0  0  0  0
 31 30  1  0  0  0  0
 31 33  1  1  0  0  0
 32 34  1  6  0  0  0
 32 31  1  0  0  0  0
 32 30  1  0  0  0  0
 35 34  1  0  0  0  0
 36  6  1  0  0  0  0
 37 50  1  6  0  0  0
 37 44  1  0  0  0  0
 37 36  1  0  0  0  0
 39 41  1  0  0  0  0
 41 40  1  0  0  0  0
 41 42  1  0  0  0  0
 42 47  1  0  0  0  0
 43 39  1  0  0  0  0
 43 44  1  0  0  0  0
 44 38  1  1  0  0  0
 44 40  1  0  0  0  0
 45 42  2  0  0  0  0
 47 48  1  0  0  0  0
 47 46  1  0  0  0  0
 48 46  1  0  0  0  0
 50 49  1  0  0  0  0
M  END
>  <MODEL>
5

>  <REMARK>
 VINA RESULT:      -5.9      2.903      5.089
  Name = 
  19 active torsions:
  status: ('A' for Active; 'I' for Inactive)
    1  A    between atoms: C_7  and  C_14
    2  A    between atoms: C_7  and  C_30
    3  A    between atoms: C_7  and  C_46
    4  A    between atoms: C_9  and  C_35
    5  A    between atoms: C_12  and  C_37
    6  A    between atoms: C_12  and  O_40
    7  A    between atoms: C_14  and  O_40
    8  A    between atoms: N_16  and  C_29
    9  A    between atoms: N_16  and  CA_45
   10  A    between atoms: C_19  and  C_24
   11  A    between atoms: C_19  and  C_50
   12  A    between atoms: C_20  and  C_21
   13  A    between atoms: C_22  and  O_25
   14  A    between atoms: C_24  and  C_37
   15  A    between atoms: C_24  and  N_48
   16  A    between atoms: O_25  and  C_30
   17  A    between atoms: N_26  and  C_34
   18  A    between atoms: C_28  and  CA_45
   19  A    between atoms: C_39  and  CA_45
                            x       y       z     vdW  Elec       q    Type
                         _______ _______ _______ _____ _____    ______ ____

>  <TORSDO>
F 19

$$$$
=
 OpenBabel11062419203D

 50 54  0  0  1  0  0  0  0  0999 V2000
  190.0460  177.1350  146.3510 C   0  0  0  0  0  3  0  0  0  0  0  0
  190.7170  173.7120  144.9580 C   0  0  0  0  0  3  0  0  0  0  0  0
  189.9810  175.9600  145.4740 C   0  0  0  0  0  0  0  0  0  0  0  0
  190.6480  177.0610  147.5020 N   0  0  0  0  0  0  0  0  0  0  0  0
  189.8580  173.6840  143.8540 C   0  0  0  0  0  0  0  0  0  0  0  0
  189.0740  174.8090  143.5380 C   0  0  0  0  0  0  0  0  0  0  0  0
  191.1920  175.8020  148.0270 C   0  0  0  0  0  2  0  0  0  0  0  0
  189.1390  175.9410  144.3630 C   0  0  0  0  0  3  0  0  0  0  0  0
  191.7660  174.9220  146.9090 C   0  0  1  0  0  3  0  0  0  0  0  0
  190.7840  174.8460  145.7700 C   0  0  0  0  0  0  0  0  0  0  0  0
  189.7910  172.2320  142.8710 Cl  0  0  0  0  0  0  0  0  0  0  0  0
  193.0240  175.4940  146.4460 N   0  0  0  0  0  2  0  0  0  0  0  0
  194.0020  173.4490  145.8730 O   0  0  0  0  0  0  0  0  0  0  0  0
  194.0800  174.7070  145.8950 C   0  0  0  0  0  0  0  0  0  0  0  0
  195.2750  175.3850  145.3210 C   0  0  0  0  0  2  0  0  0  0  0  0
  196.2780  174.3660  144.7890 C   0  0  2  0  0  3  0  0  0  0  0  0
  197.1910  172.6830  146.0650 O   0  0  0  0  0  1  0  0  0  0  0  0
  197.2940  174.0060  145.7830 N   0  0  0  0  0  2  0  0  0  0  0  0
  197.1900  175.9970  143.3260 O   0  0  0  0  0  0  0  0  0  0  0  0
  196.8890  174.8240  143.4970 C   0  0  0  0  0  0  0  0  0  0  0  0
  197.0950  173.8410  142.3900 C   0  0  0  0  0  2  0  0  0  0  0  0
  196.2220  172.7600  142.5520 O   0  0  0  0  0  0  0  0  0  0  0  0
  195.1460  173.0040  141.6900 C   0  0  0  0  0  2  0  0  0  0  0  0
  193.8340  173.0760  142.4740 C   0  0  1  0  0  3  0  0  0  0  0  0
  193.6070  175.4310  142.0730 O   0  0  0  0  0  1  0  0  0  0  0  0
  192.9490  174.2040  141.9520 C   0  0  0  0  0  3  0  0  0  0  0  0
  192.6420  173.9840  140.6090 O   0  0  0  0  0  1  0  0  0  0  0  0
  193.1060  171.7340  142.4670 C   0  0  0  0  0  2  0  0  0  0  0  0
  193.0470  171.1830  143.7550 O   0  0  0  0  0  0  0  0  0  0  0  0
  194.6980  169.4750  143.3280 C   0  0  0  0  0  2  0  0  0  0  0  0
  193.2470  169.8010  143.6010 C   0  0  1  0  0  0  0  0  0  0  0  0
  194.0650  169.0450  144.6440 C   0  0  2  0  0  3  0  0  0  0  0  0
  192.3180  169.0190  142.6820 C   0  0  0  0  0  1  0  0  0  0  0  0
  194.5690  169.9540  145.7530 C   0  0  0  0  0  2  0  0  0  0  0  0
  194.5860  169.2500  146.9560 O   0  0  0  0  0  1  0  0  0  0  0  0
  188.2030  174.7650  142.3960 N   0  0  0  0  0  2  0  0  0  0  0  0
  188.1760  175.6770  141.2470 C   0  0  2  0  0  3  0  0  0  0  0  0
  188.3750  178.3170  142.0520 Cl  0  0  0  0  0  0  0  0  0  0  0  0
  185.2750  177.7860  140.7090 C   0  0  0  0  0  2  0  0  0  0  0  0
  186.3800  176.6850  142.4810 O   0  0  0  0  0  0  0  0  0  0  0  0
  185.3090  177.4320  142.1090 N   0  0  0  0  0  0  0  0  0  0  0  0
  184.5360  178.1510  143.0780 C   0  0  0  0  0  0  0  0  0  0  0  0
  186.6270  177.3590  140.2220 C   0  0  0  0  0  2  0  0  0  0  0  0
  187.3560  176.9530  141.5010 C   0  0  2  0  0  0  0  0  0  0  0  0
  183.5670  178.8670  142.7020 O   0  0  0  0  0  0  0  0  0  0  0  0
  184.0640  179.0410  145.3480 C   0  0  0  0  0  2  0  0  0  0  0  0
  184.8300  178.0070  144.5390 C   0  0  0  0  0  3  0  0  0  0  0  0
  185.5300  179.2550  145.0480 C   0  0  0  0  0  2  0  0  0  0  0  0
  188.8950  174.1630  139.5380 O   0  0  0  0  0  1  0  0  0  0  0  0
  187.8330  174.9740  139.9360 C   0  0  0  0  0  2  0  0  0  0  0  0
  1  4  2  0  0  0  0
  2 10  1  0  0  0  0
  3 10  2  0  0  0  0
  3  1  1  0  0  0  0
  4  7  1  0  0  0  0
  5  2  2  0  0  0  0
  6  5  1  0  0  0  0
  6  8  2  0  0  0  0
  8  3  1  0  0  0  0
  9 12  1  6  0  0  0
  9  7  1  0  0  0  0
 10  9  1  0  0  0  0
 11  5  1  0  0  0  0
 13 14  2  0  0  0  0
 14 12  1  0  0  0  0
 15 14  1  0  0  0  0
 16 15  1  1  0  0  0
 16 18  1  0  0  0  0
 18 17  1  0  0  0  0
 19 20  2  0  0  0  0
 20 16  1  0  0  0  0
 21 22  1  0  0  0  0
 21 20  1  0  0  0  0
 23 22  1  0  0  0  0
 24 23  1  6  0  0  0
 26 25  1  0  0  0  0
 26 24  1  0  0  0  0
 27 26  1  0  0  0  0
 28 24  1  0  0  0  0
 28 29  1  0  0  0  0
 30 31  1  0  0  0  0
 30 32  1  0  0  0  0
 31 33  1  6  0  0  0
 31 29  1  0  0  0  0
 31 32  1  0  0  0  0
 32 34  1  1  0  0  0
 34 35  1  0  0  0  0
 36  6  1  0  0  0  0
 37 50  1  6  0  0  0
 37 44  1  0  0  0  0
 37 36  1  0  0  0  0
 39 41  1  0  0  0  0
 41 40  1  0  0  0  0
 41 42  1  0  0  0  0
 42 47  1  0  0  0  0
 43 39  1  0  0  0  0
 43 44  1  0  0  0  0
 44 38  1  1  0  0  0
 44 40  1  0  0  0  0
 45 42  2  0  0  0  0
 47 48  1  0  0  0  0
 47 46  1  0  0  0  0
 48 46  1  0  0  0  0
 49 50  1  0  0  0  0
M  END
>  <MODEL>
6

>  <REMARK>
 VINA RESULT:      -5.9      2.481      5.190
  Name = 
  19 active torsions:
  status: ('A' for Active; 'I' for Inactive)
    1  A    between atoms: C_7  and  C_14
    2  A    between atoms: C_7  and  C_30
    3  A    between atoms: C_7  and  C_46
    4  A    between atoms: C_9  and  C_35
    5  A    between atoms: C_12  and  C_37
    6  A    between atoms: C_12  and  O_40
    7  A    between atoms: C_14  and  O_40
    8  A    between atoms: N_16  and  C_29
    9  A    between atoms: N_16  and  CA_45
   10  A    between atoms: C_19  and  C_24
   11  A    between atoms: C_19  and  C_50
   12  A    between atoms: C_20  and  C_21
   13  A    between atoms: C_22  and  O_25
   14  A    between atoms: C_24  and  C_37
   15  A    between atoms: C_24  and  N_48
   16  A    between atoms: O_25  and  C_30
   17  A    between atoms: N_26  and  C_34
   18  A    between atoms: C_28  and  CA_45
   19  A    between atoms: C_39  and  CA_45
                            x       y       z     vdW  Elec       q    Type
                         _______ _______ _______ _____ _____    ______ ____

>  <TORSDO>
F 19

$$$$
=
 OpenBabel11062419203D

 50 54  0  0  1  0  0  0  0  0999 V2000
  194.9260  176.2540  141.6820 C   0  0  0  0  0  3  0  0  0  0  0  0
  193.8410  175.3060  145.1510 C   0  0  0  0  0  3  0  0  0  0  0  0
  194.0640  175.8770  142.8090 C   0  0  0  0  0  0  0  0  0  0  0  0
  196.1630  176.5990  141.8910 N   0  0  0  0  0  0  0  0  0  0  0  0
  192.4550  175.1940  144.9920 C   0  0  0  0  0  0  0  0  0  0  0  0
  191.8690  175.3970  143.7290 C   0  0  0  0  0  0  0  0  0  0  0  0
  196.7280  176.7300  143.2400 C   0  0  0  0  0  2  0  0  0  0  0  0
  192.6860  175.7460  142.6430 C   0  0  0  0  0  3  0  0  0  0  0  0
  196.1490  175.6840  144.2010 C   0  0  1  0  0  3  0  0  0  0  0  0
  194.6500  175.6450  144.0640 C   0  0  0  0  0  0  0  0  0  0  0  0
  191.4740  174.7850  146.3880 Cl  0  0  0  0  0  0  0  0  0  0  0  0
  196.7130  174.3780  143.8850 N   0  0  0  0  0  2  0  0  0  0  0  0
  197.2080  173.8080  146.0990 O   0  0  0  0  0  0  0  0  0  0  0  0
  197.1800  173.4710  144.8840 C   0  0  0  0  0  0  0  0  0  0  0  0
  197.6140  172.1040  144.4840 C   0  0  0  0  0  2  0  0  0  0  0  0
  196.6460  171.0480  145.0110 C   0  0  2  0  0  3  0  0  0  0  0  0
  196.5680  169.8460  146.9710 O   0  0  0  0  0  1  0  0  0  0  0  0
  197.3100  170.0490  145.8550 N   0  0  0  0  0  2  0  0  0  0  0  0
  195.7730  169.2010  143.8030 O   0  0  0  0  0  0  0  0  0  0  0  0
  195.8670  170.4160  143.8950 C   0  0  0  0  0  0  0  0  0  0  0  0
  195.2320  171.2850  142.8570 C   0  0  0  0  0  2  0  0  0  0  0  0
  194.1150  171.9280  143.4000 O   0  0  0  0  0  0  0  0  0  0  0  0
  193.2340  172.1350  142.3320 C   0  0  0  0  0  2  0  0  0  0  0  0
  192.0240  171.2060  142.4460 C   0  0  1  0  0  3  0  0  0  0  0  0
  189.6430  171.3620  142.7110 O   0  0  0  0  0  1  0  0  0  0  0  0
  190.8560  171.9160  143.1270 C   0  0  0  0  0  3  0  0  0  0  0  0
  190.9640  171.7870  144.5110 O   0  0  0  0  0  1  0  0  0  0  0  0
  191.6260  170.6370  141.0860 C   0  0  0  0  0  2  0  0  0  0  0  0
  191.7000  171.6170  140.0860 O   0  0  0  0  0  0  0  0  0  0  0  0
  190.3650  170.4610  138.4420 C   0  0  0  0  0  2  0  0  0  0  0  0
  191.7400  170.9280  138.8620 C   0  0  1  0  0  0  0  0  0  0  0  0
  191.0690  171.5450  137.6380 C   0  0  2  0  0  3  0  0  0  0  0  0
  192.7830  169.8380  138.6630 C   0  0  0  0  0  1  0  0  0  0  0  0
  190.4230  172.8850  137.9470 C   0  0  0  0  0  2  0  0  0  0  0  0
  190.9920  173.8700  137.1390 O   0  0  0  0  0  1  0  0  0  0  0  0
  190.4450  175.2700  143.5830 N   0  0  0  0  0  2  0  0  0  0  0  0
  189.5810  175.9100  142.5840 C   0  0  2  0  0  3  0  0  0  0  0  0
  190.0910  178.2240  144.0140 Cl  0  0  0  0  0  0  0  0  0  0  0  0
  187.1130  178.5590  142.3650 C   0  0  0  0  0  2  0  0  0  0  0  0
  187.8350  176.9110  143.8930 O   0  0  0  0  0  0  0  0  0  0  0  0
  186.9380  177.8970  143.6370 N   0  0  0  0  0  0  0  0  0  0  0  0
  186.1820  178.5020  144.6930 C   0  0  0  0  0  0  0  0  0  0  0  0
  188.4290  178.0230  141.8870 C   0  0  0  0  0  2  0  0  0  0  0  0
  188.9430  177.2190  143.0790 C   0  0  2  0  0  0  0  0  0  0  0  0
  185.3810  179.4420  144.4320 O   0  0  0  0  0  0  0  0  0  0  0  0
  185.2220  176.9320  146.3610 C   0  0  0  0  0  2  0  0  0  0  0  0
  186.2870  177.9830  146.0930 C   0  0  0  0  0  3  0  0  0  0  0  0
  185.0330  178.3420  146.8700 C   0  0  0  0  0  2  0  0  0  0  0  0
  189.2340  174.1480  141.0010 O   0  0  0  0  0  1  0  0  0  0  0  0
  188.5870  174.9420  141.9480 C   0  0  0  0  0  2  0  0  0  0  0  0
  1  4  2  0  0  0  0
  1  3  1  0  0  0  0
  3 10  1  0  0  0  0
  4  7  1  0  0  0  0
  5  2  1  0  0  0  0
  5 11  1  0  0  0  0
  6  5  2  0  0  0  0
  7  9  1  0  0  0  0
  8  3  2  0  0  0  0
  8  6  1  0  0  0  0
  9 12  1  6  0  0  0
 10  9  1  0  0  0  0
 10  2  2  0  0  0  0
 12 14  1  0  0  0  0
 14 13  2  0  0  0  0
 15 14  1  0  0  0  0
 16 15  1  6  0  0  0
 16 18  1  0  0  0  0
 18 17  1  0  0  0  0
 19 20  2  0  0  0  0
 20 16  1  0  0  0  0
 21 22  1  0  0  0  0
 21 20  1  0  0  0  0
 23 24  1  0  0  0  0
 23 22  1  0  0  0  0
 24 28  1  6  0  0  0
 24 26  1  0  0  0  0
 25 26  1  0  0  0  0
 26 27  1  0  0  0  0
 29 28  1  0  0  0  0
 30 31  1  0  0  0  0
 31 33  1  6  0  0  0
 31 29  1  0  0  0  0
 32 34  1  1  0  0  0
 32 30  1  0  0  0  0
 32 31  1  0  0  0  0
 35 34  1  0  0  0  0
 36  6  1  0  0  0  0
 37 50  1  1  0  0  0
 37 44  1  0  0  0  0
 37 36  1  0  0  0  0
 39 41  1  0  0  0  0
 41 40  1  0  0  0  0
 41 42  1  0  0  0  0
 42 47  1  0  0  0  0
 43 39  1  0  0  0  0
 43 44  1  0  0  0  0
 44 40  1  0  0  0  0
 44 38  1  1  0  0  0
 45 42  2  0  0  0  0
 46 48  1  0  0  0  0
 47 46  1  0  0  0  0
 47 48  1  0  0  0  0
 49 50  1  0  0  0  0
M  END
>  <MODEL>
7

>  <REMARK>
 VINA RESULT:      -5.9      1.677      2.451
  Name = 
  19 active torsions:
  status: ('A' for Active; 'I' for Inactive)
    1  A    between atoms: C_7  and  C_14
    2  A    between atoms: C_7  and  C_30
    3  A    between atoms: C_7  and  C_46
    4  A    between atoms: C_9  and  C_35
    5  A    between atoms: C_12  and  C_37
    6  A    between atoms: C_12  and  O_40
    7  A    between atoms: C_14  and  O_40
    8  A    between atoms: N_16  and  C_29
    9  A    between atoms: N_16  and  CA_45
   10  A    between atoms: C_19  and  C_24
   11  A    between atoms: C_19  and  C_50
   12  A    between atoms: C_20  and  C_21
   13  A    between atoms: C_22  and  O_25
   14  A    between atoms: C_24  and  C_37
   15  A    between atoms: C_24  and  N_48
   16  A    between atoms: O_25  and  C_30
   17  A    between atoms: N_26  and  C_34
   18  A    between atoms: C_28  and  CA_45
   19  A    between atoms: C_39  and  CA_45
                            x       y       z     vdW  Elec       q    Type
                         _______ _______ _______ _____ _____    ______ ____

>  <TORSDO>
F 19

$$$$
=
 OpenBabel11062419203D

 50 54  0  0  1  0  0  0  0  0999 V2000
  190.4810  177.3410  142.6910 C   0  0  0  0  0  3  0  0  0  0  0  0
  188.7970  174.0770  141.9010 C   0  0  0  0  0  3  0  0  0  0  0  0
  190.2810  175.9030  142.4700 C   0  0  0  0  0  0  0  0  0  0  0  0
  189.5550  178.1900  142.3530 N   0  0  0  0  0  0  0  0  0  0  0  0
  189.8640  173.1780  142.0010 C   0  0  0  0  0  0  0  0  0  0  0  0
  191.1430  173.6360  142.3650 C   0  0  0  0  0  0  0  0  0  0  0  0
  188.3310  177.7840  141.6520 C   0  0  0  0  0  2  0  0  0  0  0  0
  191.3420  175.0060  142.5900 C   0  0  0  0  0  3  0  0  0  0  0  0
  187.8430  176.4050  142.1150 C   0  0  1  0  0  3  0  0  0  0  0  0
  188.9990  175.4400  142.1360 C   0  0  0  0  0  0  0  0  0  0  0  0
  189.5700  171.4780  141.6810 Cl  0  0  0  0  0  0  0  0  0  0  0  0
  187.2680  176.5230  143.4490 N   0  0  0  0  0  2  0  0  0  0  0  0
  185.1910  177.3180  142.7270 O   0  0  0  0  0  0  0  0  0  0  0  0
  185.9220  176.9390  143.6810 C   0  0  0  0  0  0  0  0  0  0  0  0
  185.3740  176.9010  145.0660 C   0  0  0  0  0  2  0  0  0  0  0  0
  185.3730  178.2930  145.6910 C   0  0  2  0  0  3  0  0  0  0  0  0
  184.8190  180.1610  144.4680 O   0  0  0  0  0  1  0  0  0  0  0  0
  185.8450  179.3250  144.7620 N   0  0  0  0  0  2  0  0  0  0  0  0
  185.9450  179.1920  147.8120 O   0  0  0  0  0  0  0  0  0  0  0  0
  186.1310  178.3100  146.9860 C   0  0  0  0  0  0  0  0  0  0  0  0
  187.1580  177.2560  147.2520 C   0  0  0  0  0  2  0  0  0  0  0  0
  188.4390  177.8110  147.1560 O   0  0  0  0  0  0  0  0  0  0  0  0
  189.1030  177.0740  146.1690 C   0  0  0  0  0  2  0  0  0  0  0  0
  190.2260  176.2390  146.7850 C   0  0  1  0  0  3  0  0  0  0  0  0
  188.9710  174.3960  147.6740 O   0  0  0  0  0  1  0  0  0  0  0  0
  189.9070  174.7480  146.6980 C   0  0  0  0  0  3  0  0  0  0  0  0
  189.3860  174.4470  145.4390 O   0  0  0  0  0  1  0  0  0  0  0  0
  191.5770  176.5670  146.1540 C   0  0  0  0  0  2  0  0  0  0  0  0
  192.5430  175.6130  146.5010 O   0  0  0  0  0  0  0  0  0  0  0  0
  194.9170  175.3840  146.1350 C   0  0  0  0  0  2  0  0  0  0  0  0
  193.5670  175.7240  145.5460 C   0  0  1  0  0  0  0  0  0  0  0  0
  194.3010  174.4650  145.0900 C   0  0  2  0  0  3  0  0  0  0  0  0
  193.6350  176.9740  144.6800 C   0  0  0  0  0  1  0  0  0  0  0  0
  193.7830  173.2130  145.7780 C   0  0  0  0  0  2  0  0  0  0  0  0
  194.7820  172.2400  145.7810 O   0  0  0  0  0  1  0  0  0  0  0  0
  192.2260  172.6960  142.4710 N   0  0  0  0  0  2  0  0  0  0  0  0
  193.5300  172.7450  141.8010 C   0  0  2  0  0  3  0  0  0  0  0  0
  193.1160  174.2990  139.5490 Cl  0  0  0  0  0  0  0  0  0  0  0  0
  194.2570  171.2200  138.5920 C   0  0  0  0  0  2  0  0  0  0  0  0
  192.3880  171.8140  139.9060 O   0  0  0  0  0  0  0  0  0  0  0  0
  192.8230  171.2180  138.7670 N   0  0  0  0  0  0  0  0  0  0  0  0
  191.9390  171.0020  137.6600 C   0  0  0  0  0  0  0  0  0  0  0  0
  194.7270  172.1280  139.6880 C   0  0  0  0  0  2  0  0  0  0  0  0
  193.4310  172.6900  140.2680 C   0  0  2  0  0  0  0  0  0  0  0  0
  192.3770  170.4780  136.5990 O   0  0  0  0  0  0  0  0  0  0  0  0
  189.6900  170.1250  138.2450 C   0  0  0  0  0  2  0  0  0  0  0  0
  190.4840  171.3350  137.7780 C   0  0  0  0  0  3  0  0  0  0  0  0
  189.6860  170.5100  136.7840 C   0  0  0  0  0  2  0  0  0  0  0  0
  193.8710  170.7220  143.0360 O   0  0  0  0  0  1  0  0  0  0  0  0
  194.5400  171.7620  142.3890 C   0  0  0  0  0  2  0  0  0  0  0  0
  2  5  2  0  0  0  0
  2 10  1  0  0  0  0
  3  8  1  0  0  0  0
  3  1  1  0  0  0  0
  4  1  2  0  0  0  0
  5  6  1  0  0  0  0
  6 36  1  0  0  0  0
  6  8  2  0  0  0  0
  7  9  1  0  0  0  0
  7  4  1  0  0  0  0
  9 10  1  0  0  0  0
  9 12  1  1  0  0  0
 10  3  2  0  0  0  0
 11  5  1  0  0  0  0
 12 14  1  0  0  0  0
 13 14  2  0  0  0  0
 14 15  1  0  0  0  0
 16 15  1  6  0  0  0
 16 20  1  0  0  0  0
 17 18  1  0  0  0  0
 18 16  1  0  0  0  0
 20 21  1  0  0  0  0
 20 19  2  0  0  0  0
 22 21  1  0  0  0  0
 23 24  1  0  0  0  0
 23 22  1  0  0  0  0
 24 28  1  6  0  0  0
 26 24  1  0  0  0  0
 26 25  1  0  0  0  0
 27 26  1  0  0  0  0
 28 29  1  0  0  0  0
 31 33  1  6  0  0  0
 31 30  1  0  0  0  0
 31 29  1  0  0  0  0
 32 31  1  0  0  0  0
 32 34  1  1  0  0  0
 32 30  1  0  0  0  0
 34 35  1  0  0  0  0
 37 50  1  1  0  0  0
 37 36  1  0  0  0  0
 39 41  1  0  0  0  0
 39 43  1  0  0  0  0
 40 44  1  0  0  0  0
 41 40  1  0  0  0  0
 42 47  1  0  0  0  0
 42 41  1  0  0  0  0
 43 44  1  0  0  0  0
 44 38  1  6  0  0  0
 44 37  1  0  0  0  0
 45 42  2  0  0  0  0
 47 46  1  0  0  0  0
 48 47  1  0  0  0  0
 48 46  1  0  0  0  0
 50 49  1  0  0  0  0
M  END
>  <MODEL>
8

>  <REMARK>
 VINA RESULT:      -5.9      3.006      9.436
  Name = 
  19 active torsions:
  status: ('A' for Active; 'I' for Inactive)
    1  A    between atoms: C_7  and  C_14
    2  A    between atoms: C_7  and  C_30
    3  A    between atoms: C_7  and  C_46
    4  A    between atoms: C_9  and  C_35
    5  A    between atoms: C_12  and  C_37
    6  A    between atoms: C_12  and  O_40
    7  A    between atoms: C_14  and  O_40
    8  A    between atoms: N_16  and  C_29
    9  A    between atoms: N_16  and  CA_45
   10  A    between atoms: C_19  and  C_24
   11  A    between atoms: C_19  and  C_50
   12  A    between atoms: C_20  and  C_21
   13  A    between atoms: C_22  and  O_25
   14  A    between atoms: C_24  and  C_37
   15  A    between atoms: C_24  and  N_48
   16  A    between atoms: O_25  and  C_30
   17  A    between atoms: N_26  and  C_34
   18  A    between atoms: C_28  and  CA_45
   19  A    between atoms: C_39  and  CA_45
                            x       y       z     vdW  Elec       q    Type
                         _______ _______ _______ _____ _____    ______ ____

>  <TORSDO>
F 19

$$$$
=
 OpenBabel11062419203D

 50 54  0  0  1  0  0  0  0  0999 V2000
  195.6390  171.9500  144.5840 C   0  0  0  0  0  3  0  0  0  0  0  0
  195.9770  175.3530  143.0300 C   0  0  0  0  0  3  0  0  0  0  0  0
  195.6340  173.0200  143.5800 C   0  0  0  0  0  0  0  0  0  0  0  0
  196.1570  172.1580  145.7600 N   0  0  0  0  0  0  0  0  0  0  0  0
  195.6770  175.0820  141.6910 C   0  0  0  0  0  0  0  0  0  0  0  0
  195.3260  173.7790  141.2940 C   0  0  0  0  0  0  0  0  0  0  0  0
  196.8450  173.4070  146.1080 C   0  0  0  0  0  2  0  0  0  0  0  0
  195.3160  172.7510  142.2490 C   0  0  0  0  0  3  0  0  0  0  0  0
  196.1900  174.6210  145.4370 C   0  0  1  0  0  3  0  0  0  0  0  0
  195.9550  174.3280  143.9790 C   0  0  0  0  0  0  0  0  0  0  0  0
  195.7330  176.3960  140.5290 Cl  0  0  0  0  0  0  0  0  0  0  0  0
  194.9250  174.9110  146.0980 N   0  0  0  0  0  2  0  0  0  0  0  0
  194.9510  177.2030  145.6350 O   0  0  0  0  0  0  0  0  0  0  0  0
  194.3380  176.2130  146.1190 C   0  0  0  0  0  0  0  0  0  0  0  0
  192.9780  176.3930  146.6990 C   0  0  0  0  0  2  0  0  0  0  0  0
  191.9520  175.5440  145.9540 C   0  0  2  0  0  3  0  0  0  0  0  0
  191.3740  177.4380  144.7820 O   0  0  0  0  0  1  0  0  0  0  0  0
  191.6010  176.1080  144.6470 N   0  0  0  0  0  2  0  0  0  0  0  0
  190.8140  175.2880  148.0210 O   0  0  0  0  0  0  0  0  0  0  0  0
  190.7400  175.2840  146.8010 C   0  0  0  0  0  0  0  0  0  0  0  0
  189.4340  174.9760  146.1420 C   0  0  0  0  0  2  0  0  0  0  0  0
  188.3820  175.3300  146.9940 O   0  0  0  0  0  0  0  0  0  0  0  0
  188.2460  176.7180  146.8780 C   0  0  0  0  0  2  0  0  0  0  0  0
  187.2020  177.0690  145.8160 C   0  0  1  0  0  3  0  0  0  0  0  0
  184.9110  176.7760  146.4690 O   0  0  0  0  0  1  0  0  0  0  0  0
  185.9650  177.6940  146.4550 C   0  0  0  0  0  3  0  0  0  0  0  0
  186.2490  178.0780  147.7660 O   0  0  0  0  0  1  0  0  0  0  0  0
  187.7910  177.9640  144.7270 C   0  0  0  0  0  2  0  0  0  0  0  0
  186.8270  178.2920  143.7650 O   0  0  0  0  0  0  0  0  0  0  0  0
  186.6470  176.5020  142.1560 C   0  0  0  0  0  2  0  0  0  0  0  0
  187.3120  177.8040  142.5400 C   0  0  1  0  0  0  0  0  0  0  0  0
  186.3760  177.7550  141.3350 C   0  0  2  0  0  3  0  0  0  0  0  0
  188.8160  177.7500  142.3110 C   0  0  0  0  0  1  0  0  0  0  0  0
  184.9840  178.2680  141.6620 C   0  0  0  0  0  2  0  0  0  0  0  0
  184.2720  178.4610  140.4790 O   0  0  0  0  0  1  0  0  0  0  0  0
  195.0140  173.5200  139.9150 N   0  0  0  0  0  2  0  0  0  0  0  0
  193.7650  173.8140  139.2030 C   0  0  2  0  0  3  0  0  0  0  0  0
  191.3800  172.8660  138.1680 Cl  0  0  0  0  0  0  0  0  0  0  0  0
  192.6700  170.5410  140.3200 C   0  0  0  0  0  2  0  0  0  0  0  0
  192.1450  172.8160  140.6670 O   0  0  0  0  0  0  0  0  0  0  0  0
  191.8890  171.5310  141.0230 N   0  0  0  0  0  0  0  0  0  0  0  0
  190.6770  171.1790  141.7010 C   0  0  0  0  0  0  0  0  0  0  0  0
  193.3410  171.3440  139.2460 C   0  0  0  0  0  2  0  0  0  0  0  0
  192.6950  172.7220  139.3730 C   0  0  2  0  0  0  0  0  0  0  0  0
  190.4470  169.9720  141.9890 O   0  0  0  0  0  0  0  0  0  0  0  0
  190.2310  172.9820  143.3500 C   0  0  0  0  0  2  0  0  0  0  0  0
  189.7120  172.2410  142.1280 C   0  0  0  0  0  3  0  0  0  0  0  0
  189.1700  171.9180  143.5090 C   0  0  0  0  0  2  0  0  0  0  0  0
  193.4960  175.5240  137.5500 O   0  0  0  0  0  1  0  0  0  0  0  0
  193.9900  174.2360  137.7530 C   0  0  0  0  0  2  0  0  0  0  0  0
  1  4  2  0  0  0  0
  2 10  1  0  0  0  0
  3 10  2  0  0  0  0
  3  1  1  0  0  0  0
  4  7  1  0  0  0  0
  5  2  2  0  0  0  0
  6  5  1  0  0  0  0
  6  8  2  0  0  0  0
  8  3  1  0  0  0  0
  9 12  1  1  0  0  0
  9  7  1  0  0  0  0
 10  9  1  0  0  0  0
 11  5  1  0  0  0  0
 12 14  1  0  0  0  0
 13 14  2  0  0  0  0
 14 15  1  0  0  0  0
 16 15  1  1  0  0  0
 16 20  1  0  0  0  0
 18 17  1  0  0  0  0
 18 16  1  0  0  0  0
 20 19  2  0  0  0  0
 21 20  1  0  0  0  0
 21 22  1  0  0  0  0
 23 22  1  0  0  0  0
 24 28  1  6  0  0  0
 24 26  1  0  0  0  0
 24 23  1  0  0  0  0
 26 25  1  0  0  0  0
 26 27  1  0  0  0  0
 29 28  1  0  0  0  0
 30 31  1  0  0  0  0
 31 33  1  6  0  0  0
 31 29  1  0  0  0  0
 32 34  1  1  0  0  0
 32 30  1  0  0  0  0
 32 31  1  0  0  0  0
 35 34  1  0  0  0  0
 36  6  1  0  0  0  0
 37 50  1  6  0  0  0
 37 44  1  0  0  0  0
 37 36  1  0  0  0  0
 39 41  1  0  0  0  0
 40 41  1  0  0  0  0
 41 42  1  0  0  0  0
 42 45  2  0  0  0  0
 42 47  1  0  0  0  0
 43 44  1  0  0  0  0
 43 39  1  0  0  0  0
 44 38  1  6  0  0  0
 44 40  1  0  0  0  0
 46 48  1  0  0  0  0
 47 46  1  0  0  0  0
 47 48  1  0  0  0  0
 49 50  1  0  0  0  0
M  END
>  <MODEL>
9

>  <REMARK>
 VINA RESULT:      -5.8      3.002      7.187
  Name = 
  19 active torsions:
  status: ('A' for Active; 'I' for Inactive)
    1  A    between atoms: C_7  and  C_14
    2  A    between atoms: C_7  and  C_30
    3  A    between atoms: C_7  and  C_46
    4  A    between atoms: C_9  and  C_35
    5  A    between atoms: C_12  and  C_37
    6  A    between atoms: C_12  and  O_40
    7  A    between atoms: C_14  and  O_40
    8  A    between atoms: N_16  and  C_29
    9  A    between atoms: N_16  and  CA_45
   10  A    between atoms: C_19  and  C_24
   11  A    between atoms: C_19  and  C_50
   12  A    between atoms: C_20  and  C_21
   13  A    between atoms: C_22  and  O_25
   14  A    between atoms: C_24  and  C_37
   15  A    between atoms: C_24  and  N_48
   16  A    between atoms: O_25  and  C_30
   17  A    between atoms: N_26  and  C_34
   18  A    between atoms: C_28  and  CA_45
   19  A    between atoms: C_39  and  CA_45
                            x       y       z     vdW  Elec       q    Type
                         _______ _______ _______ _____ _____    ______ ____

>  <TORSDO>
F 19

$$$$
