=
 OpenBabel11062419143D

 54 60  0  0  1  0  0  0  0  0999 V2000
  190.3900  171.3770  137.8560 C   0  0  0  0  0  3  0  0  0  0  0  0
  190.4660  169.7240  139.6410 C   0  0  2  0  0  3  0  0  0  0  0  0
  191.9850  173.4430  138.8750 C   0  0  0  0  0  3  0  0  0  0  0  0
  190.8900  171.2080  139.1170 C   0  0  0  0  0  0  0  0  0  0  0  0
  191.1890  173.6120  137.7020 C   0  0  0  0  0  3  0  0  0  0  0  0
  192.6360  169.1750  140.7790 O   0  0  0  0  0  0  0  0  0  0  0  0
  190.3720  172.5980  137.1800 C   0  0  0  0  0  3  0  0  0  0  0  0
  192.3920  171.2800  142.0530 C   0  0  1  0  0  3  0  0  0  0  0  0
  191.7040  172.4570  141.2890 N   0  0  0  0  0  0  0  0  0  0  0  0
  191.2020  169.0640  140.8020 C   0  0  0  0  0  2  0  0  0  0  0  0
  193.2390  170.2680  141.3110 C   0  0  0  0  0  0  0  0  0  0  0  0
  191.5280  172.3850  139.8180 C   0  0  0  0  0  0  0  0  0  0  0  0
  194.4680  170.2670  141.5240 O   0  0  0  0  0  0  0  0  0  0  0  0
  188.8680  177.4790  142.4900 C   0  0  0  0  0  2  0  0  0  0  0  0
  188.5220  175.5210  141.2160 N   0  0  0  0  0  0  0  0  0  0  0  0
  190.6830  174.5220  141.9550 C   0  0  0  0  0  0  0  0  0  0  0  0
  191.6890  173.6810  142.1520 C   0  0  0  0  0  3  0  0  0  0  0  0
  187.8490  176.7300  141.6500 C   0  0  1  0  0  3  0  0  0  0  0  0
  189.9090  176.5780  142.7180 O   0  0  0  0  0  0  0  0  0  0  0  0
  189.7230  175.4240  141.9820 C   0  0  0  0  0  0  0  0  0  0  0  0
  188.1560  174.8380  139.9620 C   0  0  0  0  0  1  0  0  0  0  0  0
  186.7900  176.3950  142.4840 O   0  0  0  0  0  0  0  0  0  0  0  0
  183.4050  178.3030  141.2680 C   0  0  0  0  0  0  0  0  0  0  0  0
  183.7430  178.2990  142.7080 C   0  0  0  0  0  3  0  0  0  0  0  0
  185.7760  177.8270  140.7980 C   0  0  0  0  0  2  0  0  0  0  0  0
  181.7980  178.7750  140.7150 Cl  0  0  0  0  0  0  0  0  0  0  0  0
  184.8690  177.7240  143.1400 C   0  0  0  0  0  0  0  0  0  0  0  0
  184.3570  178.0700  140.3750 C   0  0  0  0  0  3  0  0  0  0  0  0
  185.8000  177.2350  142.1530 N   0  0  0  0  0  0  0  0  0  0  0  0
  185.9220  177.9490  147.2520 C   0  0  0  0  0  3  0  0  0  0  0  0
  186.9270  177.6410  146.3220 C   0  0  0  0  0  0  0  0  0  0  0  0
  184.3290  178.2660  145.4900 C   0  0  0  0  0  3  0  0  0  0  0  0
  186.6100  177.6440  144.9560 C   0  0  0  0  0  3  0  0  0  0  0  0
  185.3160  177.9990  144.5250 C   0  0  0  0  0  0  0  0  0  0  0  0
  184.6260  178.2390  146.8370 C   0  0  0  0  0  3  0  0  0  0  0  0
  188.2420  177.1100  146.8460 C   0  0  0  0  0  2  0  0  0  0  0  0
  188.8420  175.0380  147.8610 F   0  0  0  0  0  0  0  0  0  0  0  0
  189.0700  175.1270  145.5210 C   0  0  0  0  0  1  0  0  0  0  0  0
  188.2860  175.5830  146.7280 C   0  0  2  0  0  3  0  0  0  0  0  0
  190.3490  168.6780  138.5250 C   0  0  0  0  0  2  0  0  0  0  0  0
  191.4330  168.3220  137.6580 F   0  0  0  0  0  0  0  0  0  0  0  0
  192.7420  170.4920  144.4010 O   0  0  0  0  0  0  0  0  0  0  0  0
  192.6260  171.4460  143.6370 C   0  0  0  0  0  0  0  0  0  0  0  0
  192.7100  172.6490  144.2510 O   0  0  0  0  0  0  0  0  0  0  0  0
  191.8060  176.4950  147.5550 C   0  0  0  0  0  1  0  0  0  0  0  0
  195.1500  176.2040  145.7170 C   0  0  0  0  0  3  0  0  0  0  0  0
  193.8430  174.1800  145.3740 C   0  0  0  0  0  0  0  0  0  0  0  0
  192.9480  175.9440  146.7590 C   0  0  0  0  0  0  0  0  0  0  0  0
  194.1220  176.6730  146.5330 C   0  0  0  0  0  3  0  0  0  0  0  0
  195.0620  173.1900  143.6470 C   0  0  0  0  0  2  0  0  0  0  0  0
  194.9750  174.9610  145.1100 C   0  0  0  0  0  0  0  0  0  0  0  0
  193.9430  172.9010  144.7270 C   0  0  2  0  0  3  0  0  0  0  0  0
  192.8330  174.6900  146.1890 C   0  0  0  0  0  3  0  0  0  0  0  0
  195.8120  174.3840  144.1210 N   0  0  0  0  0  2  0  0  0  0  0  0
  1  4  1  0  0  0  0
  2 40  1  6  0  0  0
  2 10  1  0  0  0  0
  3 12  1  0  0  0  0
  4  2  1  0  0  0  0
  4 12  2  0  0  0  0
  5  3  2  0  0  0  0
  6 10  1  0  0  0  0
  6 11  1  0  0  0  0
  7  5  1  0  0  0  0
  7  1  2  0  0  0  0
  8 43  1  1  0  0  0
  9  8  1  0  0  0  0
  9 17  1  0  0  0  0
 11 13  2  0  0  0  0
 11  8  1  0  0  0  0
 12  9  1  0  0  0  0
 14 19  1  0  0  0  0
 15 18  1  0  0  0  0
 15 20  1  0  0  0  0
 16 20  2  0  0  0  0
 16 17  2  0  0  0  0
 18 22  1  1  0  0  0
 18 14  1  0  0  0  0
 20 19  1  0  0  0  0
 21 15  1  0  0  0  0
 23 24  1  0  0  0  0
 24 27  2  0  0  0  0
 25 29  1  0  0  0  0
 26 23  1  0  0  0  0
 27 34  1  0  0  0  0
 28 25  1  0  0  0  0
 28 23  2  0  0  0  0
 29 22  1  0  0  0  0
 29 27  1  0  0  0  0
 31 36  1  0  0  0  0
 31 30  2  0  0  0  0
 32 35  2  0  0  0  0
 33 31  1  0  0  0  0
 34 33  2  0  0  0  0
 34 32  1  0  0  0  0
 35 30  1  0  0  0  0
 39 38  1  6  0  0  0
 39 36  1  0  0  0  0
 39 37  1  0  0  0  0
 41 40  1  0  0  0  0
 43 44  1  0  0  0  0
 43 42  2  0  0  0  0
 46 49  1  0  0  0  0
 47 53  2  0  0  0  0
 48 45  1  0  0  0  0
 49 48  2  0  0  0  0
 50 54  1  0  0  0  0
 50 52  1  0  0  0  0
 51 47  1  0  0  0  0
 51 46  2  0  0  0  0
 52 44  1  6  0  0  0
 52 47  1  0  0  0  0
 53 48  1  0  0  0  0
 54 51  1  0  0  0  0
M  END
>  <MODEL>
1

>  <REMARK>
 VINA RESULT:      -9.6      0.000      0.000
  Name = 
  10 active torsions:
  status: ('A' for Active; 'I' for Inactive)
    1  A    between atoms: C_9  and  C_18
    2  A    between atoms: C_11  and  C_34
    3  A    between atoms: C_21  and  C_37
    4  A    between atoms: C_24  and  N_44
    5  A    between atoms: C_28  and  O_51
    6  A    between atoms: O_31  and  C_33
    7  A    between atoms: O_31  and  C_43
    8  A    between atoms: C_34  and  C_47
    9  A    between atoms: C_36  and  C_43
   10  A    between atoms: N_42  and  O_51
                            x       y       z     vdW  Elec       q    Type
                         _______ _______ _______ _____ _____    ______ ____

>  <TORSDO>
F 10

$$$$
=
 OpenBabel11062419143D

 54 60  0  0  1  0  0  0  0  0999 V2000
  195.0340  174.8290  137.4030 C   0  0  0  0  0  3  0  0  0  0  0  0
  192.6950  175.1980  136.8360 C   0  0  2  0  0  3  0  0  0  0  0  0
  195.0800  172.1000  138.0360 C   0  0  0  0  0  3  0  0  0  0  0  0
  193.8390  174.1650  137.3660 C   0  0  0  0  0  0  0  0  0  0  0  0
  196.1920  172.9570  138.3020 C   0  0  0  0  0  3  0  0  0  0  0  0
  191.4630  173.5620  135.3820 O   0  0  0  0  0  0  0  0  0  0  0  0
  196.1870  174.3280  138.0070 C   0  0  0  0  0  3  0  0  0  0  0  0
  191.2740  172.0910  137.3600 C   0  0  1  0  0  3  0  0  0  0  0  0
  192.4780  172.1390  138.3560 N   0  0  0  0  0  0  0  0  0  0  0  0
  191.3720  174.6820  136.2800 C   0  0  0  0  0  2  0  0  0  0  0  0
  191.4910  172.2990  135.8760 C   0  0  0  0  0  0  0  0  0  0  0  0
  193.7550  172.7720  137.9480 C   0  0  0  0  0  0  0  0  0  0  0  0
  191.3180  171.3230  135.1190 O   0  0  0  0  0  0  0  0  0  0  0  0
  193.2120  171.0940  144.1070 C   0  0  0  0  0  2  0  0  0  0  0  0
  193.4060  172.9060  142.6070 N   0  0  0  0  0  0  0  0  0  0  0  0
  192.6510  171.5320  140.6700 C   0  0  0  0  0  0  0  0  0  0  0  0
  192.2610  171.1510  139.4610 C   0  0  0  0  0  3  0  0  0  0  0  0
  193.4580  172.5900  144.0210 C   0  0  1  0  0  3  0  0  0  0  0  0
  192.7730  170.7060  142.8400 O   0  0  0  0  0  0  0  0  0  0  0  0
  192.8780  171.7550  141.9480 C   0  0  0  0  0  0  0  0  0  0  0  0
  194.1490  174.0480  142.0410 C   0  0  0  0  0  1  0  0  0  0  0  0
  192.4060  173.2200  144.6740 O   0  0  0  0  0  0  0  0  0  0  0  0
  194.3500  176.6530  145.6800 C   0  0  0  0  0  0  0  0  0  0  0  0
  192.8720  176.6610  145.6260 C   0  0  0  0  0  3  0  0  0  0  0  0
  194.2430  174.2040  145.9290 C   0  0  0  0  0  2  0  0  0  0  0  0
  195.2620  178.1610  145.7410 Cl  0  0  0  0  0  0  0  0  0  0  0  0
  192.1960  175.5420  145.3460 C   0  0  0  0  0  0  0  0  0  0  0  0
  194.9920  175.5000  145.8110 C   0  0  0  0  0  3  0  0  0  0  0  0
  192.9420  174.3120  145.2340 N   0  0  0  0  0  0  0  0  0  0  0  0
  188.1310  175.8360  146.5480 C   0  0  0  0  0  3  0  0  0  0  0  0
  188.5660  176.6240  145.4720 C   0  0  0  0  0  0  0  0  0  0  0  0
  190.2730  174.7730  146.6940 C   0  0  0  0  0  3  0  0  0  0  0  0
  189.8830  176.4760  145.0130 C   0  0  0  0  0  3  0  0  0  0  0  0
  190.7370  175.5170  145.5940 C   0  0  0  0  0  0  0  0  0  0  0  0
  188.9870  174.9320  147.1670 C   0  0  0  0  0  3  0  0  0  0  0  0
  187.6670  177.7430  145.0000 C   0  0  0  0  0  2  0  0  0  0  0  0
  185.5860  176.6570  144.5810 F   0  0  0  0  0  0  0  0  0  0  0  0
  185.4400  178.7830  145.5780 C   0  0  0  0  0  1  0  0  0  0  0  0
  186.2260  177.5000  145.4590 C   0  0  2  0  0  3  0  0  0  0  0  0
  193.2160  176.2570  135.8560 C   0  0  0  0  0  2  0  0  0  0  0  0
  192.4820  177.4360  135.5020 F   0  0  0  0  0  0  0  0  0  0  0  0
  189.6890  170.1620  137.5160 O   0  0  0  0  0  0  0  0  0  0  0  0
  189.9390  171.3220  137.8290 C   0  0  0  0  0  0  0  0  0  0  0  0
  188.9880  171.8950  138.6030 O   0  0  0  0  0  0  0  0  0  0  0  0
  189.3930  172.1260  143.7310 C   0  0  0  0  0  1  0  0  0  0  0  0
  188.0410  175.0830  141.7140 C   0  0  0  0  0  3  0  0  0  0  0  0
  188.9760  173.4170  140.2070 C   0  0  0  0  0  0  0  0  0  0  0  0
  189.0620  173.0350  142.5900 C   0  0  0  0  0  0  0  0  0  0  0  0
  188.4360  174.2730  142.7780 C   0  0  0  0  0  3  0  0  0  0  0  0
  188.1520  174.1980  138.1670 C   0  0  0  0  0  2  0  0  0  0  0  0
  188.2870  174.6170  140.4230 C   0  0  0  0  0  0  0  0  0  0  0  0
  189.2080  173.2080  138.8040 C   0  0  2  0  0  3  0  0  0  0  0  0
  189.3450  172.6320  141.2980 C   0  0  0  0  0  3  0  0  0  0  0  0
  187.8200  175.1990  139.2170 N   0  0  0  0  0  2  0  0  0  0  0  0
  1  7  1  0  0  0  0
  2 40  1  6  0  0  0
  2  4  1  0  0  0  0
  3  5  1  0  0  0  0
  4  1  2  0  0  0  0
  4 12  1  0  0  0  0
  6 11  1  0  0  0  0
  6 10  1  0  0  0  0
  7  5  2  0  0  0  0
  8 43  1  6  0  0  0
  8  9  1  0  0  0  0
  9 17  1  0  0  0  0
 10  2  1  0  0  0  0
 11  8  1  0  0  0  0
 12  3  2  0  0  0  0
 12  9  1  0  0  0  0
 13 11  2  0  0  0  0
 15 18  1  0  0  0  0
 16 20  2  0  0  0  0
 17 16  2  0  0  0  0
 18 14  1  0  0  0  0
 18 22  1  1  0  0  0
 19 14  1  0  0  0  0
 20 15  1  0  0  0  0
 20 19  1  0  0  0  0
 21 15  1  0  0  0  0
 22 29  1  0  0  0  0
 23 26  1  0  0  0  0
 23 28  2  0  0  0  0
 24 23  1  0  0  0  0
 27 34  1  0  0  0  0
 27 24  2  0  0  0  0
 28 25  1  0  0  0  0
 29 27  1  0  0  0  0
 29 25  1  0  0  0  0
 30 35  1  0  0  0  0
 31 30  2  0  0  0  0
 32 35  2  0  0  0  0
 33 31  1  0  0  0  0
 33 34  2  0  0  0  0
 34 32  1  0  0  0  0
 36 39  1  0  0  0  0
 36 31  1  0  0  0  0
 37 39  1  0  0  0  0
 39 38  1  6  0  0  0
 41 40  1  0  0  0  0
 42 43  2  0  0  0  0
 43 44  1  0  0  0  0
 46 49  1  0  0  0  0
 47 51  1  0  0  0  0
 47 53  2  0  0  0  0
 48 49  2  0  0  0  0
 48 45  1  0  0  0  0
 50 52  1  0  0  0  0
 50 54  1  0  0  0  0
 51 46  2  0  0  0  0
 52 44  1  6  0  0  0
 52 47  1  0  0  0  0
 53 48  1  0  0  0  0
 54 51  1  0  0  0  0
M  END
>  <MODEL>
2

>  <REMARK>
 VINA RESULT:      -9.4      3.484      7.028
  Name = 
  10 active torsions:
  status: ('A' for Active; 'I' for Inactive)
    1  A    between atoms: C_9  and  C_18
    2  A    between atoms: C_11  and  C_34
    3  A    between atoms: C_21  and  C_37
    4  A    between atoms: C_24  and  N_44
    5  A    between atoms: C_28  and  O_51
    6  A    between atoms: O_31  and  C_33
    7  A    between atoms: O_31  and  C_43
    8  A    between atoms: C_34  and  C_47
    9  A    between atoms: C_36  and  C_43
   10  A    between atoms: N_42  and  O_51
                            x       y       z     vdW  Elec       q    Type
                         _______ _______ _______ _____ _____    ______ ____

>  <TORSDO>
F 10

$$$$
=
 OpenBabel11062419143D

 54 60  0  0  1  0  0  0  0  0999 V2000
  195.9200  175.2850  137.8320 C   0  0  0  0  0  3  0  0  0  0  0  0
  193.7030  174.9150  136.8990 C   0  0  2  0  0  3  0  0  0  0  0  0
  196.3510  172.9470  139.3150 C   0  0  0  0  0  3  0  0  0  0  0  0
  194.8980  174.3780  137.8680 C   0  0  0  0  0  0  0  0  0  0  0  0
  197.2150  174.0790  139.4210 C   0  0  0  0  0  3  0  0  0  0  0  0
  193.0880  172.6870  135.9160 O   0  0  0  0  0  0  0  0  0  0  0  0
  197.0130  175.2650  138.6990 C   0  0  0  0  0  3  0  0  0  0  0  0
  192.8070  171.8510  138.2260 C   0  0  1  0  0  3  0  0  0  0  0  0
  193.7730  172.4660  139.2890 N   0  0  0  0  0  0  0  0  0  0  0  0
  192.6250  173.9660  136.3850 C   0  0  0  0  0  2  0  0  0  0  0  0
  193.2560  171.6640  136.7920 C   0  0  0  0  0  0  0  0  0  0  0  0
  194.9650  173.2350  138.8550 C   0  0  0  0  0  0  0  0  0  0  0  0
  193.4110  170.4990  136.3760 O   0  0  0  0  0  0  0  0  0  0  0  0
  192.5940  173.4280  144.9810 C   0  0  0  0  0  2  0  0  0  0  0  0
  192.6500  174.6510  142.9620 N   0  0  0  0  0  0  0  0  0  0  0  0
  193.2650  172.6380  141.6270 C   0  0  0  0  0  0  0  0  0  0  0  0
  193.5390  171.8200  140.6200 C   0  0  0  0  0  3  0  0  0  0  0  0
  192.2730  174.7740  144.3570 C   0  0  1  0  0  3  0  0  0  0  0  0
  192.8510  172.5650  143.9150 O   0  0  0  0  0  0  0  0  0  0  0  0
  192.8860  173.2630  142.7230 C   0  0  0  0  0  0  0  0  0  0  0  0
  193.0640  175.8200  142.1660 C   0  0  0  0  0  1  0  0  0  0  0  0
  190.8990  174.9570  144.4500 O   0  0  0  0  0  0  0  0  0  0  0  0
  191.0760  176.9770  147.9800 C   0  0  0  0  0  0  0  0  0  0  0  0
  190.4320  177.6280  146.8180 C   0  0  0  0  0  3  0  0  0  0  0  0
  190.6960  174.8110  146.8700 C   0  0  0  0  0  2  0  0  0  0  0  0
  191.5180  177.9100  149.4110 Cl  0  0  0  0  0  0  0  0  0  0  0  0
  190.3120  176.9790  145.6560 C   0  0  0  0  0  0  0  0  0  0  0  0
  191.2100  175.6580  147.9970 C   0  0  0  0  0  3  0  0  0  0  0  0
  190.7040  175.5910  145.6130 N   0  0  0  0  0  0  0  0  0  0  0  0
  187.7290  178.0100  142.4430 C   0  0  0  0  0  3  0  0  0  0  0  0
  187.1610  177.7680  143.7030 C   0  0  0  0  0  0  0  0  0  0  0  0
  189.9370  177.7480  143.3380 C   0  0  0  0  0  3  0  0  0  0  0  0
  188.0100  177.5070  144.7900 C   0  0  0  0  0  3  0  0  0  0  0  0
  189.4090  177.5370  144.6250 C   0  0  0  0  0  0  0  0  0  0  0  0
  189.1070  177.9790  142.2590 C   0  0  0  0  0  3  0  0  0  0  0  0
  185.6640  177.5870  143.7860 C   0  0  0  0  0  2  0  0  0  0  0  0
  185.9380  179.8640  144.4390 F   0  0  0  0  0  0  0  0  0  0  0  0
  184.1030  178.7450  145.3980 C   0  0  0  0  0  1  0  0  0  0  0  0
  184.9880  178.9030  144.1850 C   0  0  2  0  0  3  0  0  0  0  0  0
  194.1930  175.7350  135.6990 C   0  0  0  0  0  2  0  0  0  0  0  0
  194.1340  177.1660  135.6420 F   0  0  0  0  0  0  0  0  0  0  0  0
  191.7050  169.8170  139.1750 O   0  0  0  0  0  0  0  0  0  0  0  0
  191.5730  170.9620  138.7540 C   0  0  0  0  0  0  0  0  0  0  0  0
  190.2950  171.4060  138.7730 O   0  0  0  0  0  0  0  0  0  0  0  0
  189.3010  172.0480  143.7850 C   0  0  0  0  0  1  0  0  0  0  0  0
  188.0130  174.5320  141.1750 C   0  0  0  0  0  3  0  0  0  0  0  0
  189.5920  172.9950  140.1410 C   0  0  0  0  0  0  0  0  0  0  0  0
  189.1220  172.7950  142.5010 C   0  0  0  0  0  0  0  0  0  0  0  0
  188.2560  173.8900  142.3880 C   0  0  0  0  0  3  0  0  0  0  0  0
  189.2010  173.4580  137.8870 C   0  0  0  0  0  2  0  0  0  0  0  0
  188.6670  174.0420  140.0440 C   0  0  0  0  0  0  0  0  0  0  0  0
  190.2150  172.7460  138.8710 C   0  0  2  0  0  3  0  0  0  0  0  0
  189.7990  172.3740  141.3720 C   0  0  0  0  0  3  0  0  0  0  0  0
  188.4340  174.4370  138.7020 N   0  0  0  0  0  2  0  0  0  0  0  0
  1  4  2  0  0  0  0
  1  7  1  0  0  0  0
  2 40  1  6  0  0  0
  2  4  1  0  0  0  0
  3  5  1  0  0  0  0
  4 12  1  0  0  0  0
  6 10  1  0  0  0  0
  6 11  1  0  0  0  0
  7  5  2  0  0  0  0
  8 43  1  1  0  0  0
  8  9  1  0  0  0  0
  9 17  1  0  0  0  0
 10  2  1  0  0  0  0
 11  8  1  0  0  0  0
 12  9  1  0  0  0  0
 12  3  2  0  0  0  0
 13 11  2  0  0  0  0
 15 18  1  0  0  0  0
 16 20  2  0  0  0  0
 17 16  2  0  0  0  0
 18 22  1  6  0  0  0
 18 14  1  0  0  0  0
 19 14  1  0  0  0  0
 20 15  1  0  0  0  0
 20 19  1  0  0  0  0
 21 15  1  0  0  0  0
 22 29  1  0  0  0  0
 23 28  2  0  0  0  0
 23 26  1  0  0  0  0
 24 23  1  0  0  0  0
 25 28  1  0  0  0  0
 27 24  2  0  0  0  0
 29 27  1  0  0  0  0
 29 25  1  0  0  0  0
 30 31  1  0  0  0  0
 31 36  1  0  0  0  0
 31 33  2  0  0  0  0
 32 34  2  0  0  0  0
 34 33  1  0  0  0  0
 34 27  1  0  0  0  0
 35 30  2  0  0  0  0
 35 32  1  0  0  0  0
 36 39  1  0  0  0  0
 39 37  1  0  0  0  0
 39 38  1  1  0  0  0
 41 40  1  0  0  0  0
 43 44  1  0  0  0  0
 43 42  2  0  0  0  0
 46 49  1  0  0  0  0
 47 53  2  0  0  0  0
 48 45  1  0  0  0  0
 49 48  2  0  0  0  0
 50 54  1  0  0  0  0
 50 52  1  0  0  0  0
 51 47  1  0  0  0  0
 51 46  2  0  0  0  0
 52 44  1  6  0  0  0
 52 47  1  0  0  0  0
 53 48  1  0  0  0  0
 54 51  1  0  0  0  0
M  END
>  <MODEL>
3

>  <REMARK>
 VINA RESULT:      -9.2      3.544      6.487
  Name = 
  10 active torsions:
  status: ('A' for Active; 'I' for Inactive)
    1  A    between atoms: C_9  and  C_18
    2  A    between atoms: C_11  and  C_34
    3  A    between atoms: C_21  and  C_37
    4  A    between atoms: C_24  and  N_44
    5  A    between atoms: C_28  and  O_51
    6  A    between atoms: O_31  and  C_33
    7  A    between atoms: O_31  and  C_43
    8  A    between atoms: C_34  and  C_47
    9  A    between atoms: C_36  and  C_43
   10  A    between atoms: N_42  and  O_51
                            x       y       z     vdW  Elec       q    Type
                         _______ _______ _______ _____ _____    ______ ____

>  <TORSDO>
F 10

$$$$
=
 OpenBabel11062419143D

 54 60  0  0  1  0  0  0  0  0999 V2000
  185.1540  178.3540  143.5480 C   0  0  0  0  0  3  0  0  0  0  0  0
  185.9260  178.8220  145.8090 C   0  0  2  0  0  3  0  0  0  0  0  0
  187.1770  176.6930  142.5490 C   0  0  0  0  0  3  0  0  0  0  0  0
  186.2180  178.1120  144.3710 C   0  0  0  0  0  0  0  0  0  0  0  0
  186.1630  177.2400  141.7050 C   0  0  0  0  0  3  0  0  0  0  0  0
  186.8490  176.9830  147.2480 O   0  0  0  0  0  0  0  0  0  0  0  0
  185.1480  178.0850  142.1790 C   0  0  0  0  0  3  0  0  0  0  0  0
  188.9490  177.1520  145.9540 C   0  0  1  0  0  3  0  0  0  0  0  0
  188.7850  177.5260  144.4450 N   0  0  0  0  0  0  0  0  0  0  0  0
  186.6880  178.3990  147.0610 C   0  0  0  0  0  2  0  0  0  0  0  0
  187.8910  176.3360  146.6660 C   0  0  0  0  0  0  0  0  0  0  0  0
  187.4520  177.4500  143.8010 C   0  0  0  0  0  0  0  0  0  0  0  0
  188.1860  175.1760  147.0150 O   0  0  0  0  0  0  0  0  0  0  0  0
  192.6120  174.3150  141.3220 C   0  0  0  0  0  2  0  0  0  0  0  0
  190.3730  174.1670  142.0540 N   0  0  0  0  0  0  0  0  0  0  0  0
  190.4610  176.4050  143.1450 C   0  0  0  0  0  0  0  0  0  0  0  0
  190.1250  177.5230  143.7740 C   0  0  0  0  0  3  0  0  0  0  0  0
  191.3400  173.4940  141.2090 C   0  0  1  0  0  3  0  0  0  0  0  0
  192.2450  175.5020  141.9570 O   0  0  0  0  0  0  0  0  0  0  0  0
  190.9350  175.4350  142.3920 C   0  0  0  0  0  0  0  0  0  0  0  0
  189.2640  173.4360  142.6940 C   0  0  0  0  0  1  0  0  0  0  0  0
  190.9220  173.5580  139.8860 O   0  0  0  0  0  0  0  0  0  0  0  0
  191.1080  169.9210  138.0650 C   0  0  0  0  0  0  0  0  0  0  0  0
  191.8510  171.0550  137.4710 C   0  0  0  0  0  3  0  0  0  0  0  0
  191.1050  171.1530  140.1990 C   0  0  0  0  0  2  0  0  0  0  0  0
  190.8390  168.4370  137.1510 Cl  0  0  0  0  0  0  0  0  0  0  0  0
  191.8520  172.2520  138.0660 C   0  0  0  0  0  0  0  0  0  0  0  0
  190.7500  169.9740  139.3410 C   0  0  0  0  0  3  0  0  0  0  0  0
  191.2270  172.3650  139.3610 N   0  0  0  0  0  0  0  0  0  0  0  0
  194.4480  175.5130  137.2310 C   0  0  0  0  0  3  0  0  0  0  0  0
  194.9640  174.4130  137.9330 C   0  0  0  0  0  0  0  0  0  0  0  0
  192.3440  174.4000  136.9470 C   0  0  0  0  0  3  0  0  0  0  0  0
  194.1410  173.2970  138.1440 C   0  0  0  0  0  3  0  0  0  0  0  0
  192.8350  173.2630  137.6140 C   0  0  0  0  0  0  0  0  0  0  0  0
  193.1390  175.5120  136.7600 C   0  0  0  0  0  3  0  0  0  0  0  0
  196.3030  174.5700  138.6150 C   0  0  0  0  0  2  0  0  0  0  0  0
  195.4070  175.9230  140.3630 F   0  0  0  0  0  0  0  0  0  0  0  0
  197.4300  174.8290  140.8600 C   0  0  0  0  0  1  0  0  0  0  0  0
  196.1140  174.7680  140.1230 C   0  0  2  0  0  3  0  0  0  0  0  0
  184.4400  178.8850  146.1830 C   0  0  0  0  0  2  0  0  0  0  0  0
  183.8660  178.1470  147.2690 F   0  0  0  0  0  0  0  0  0  0  0  0
  190.6690  177.5420  147.7270 O   0  0  0  0  0  0  0  0  0  0  0  0
  190.4320  177.1790  146.5790 C   0  0  0  0  0  0  0  0  0  0  0  0
  191.5350  176.8070  145.8870 O   0  0  0  0  0  0  0  0  0  0  0  0
  196.2410  176.8090  143.7980 C   0  0  0  0  0  1  0  0  0  0  0  0
  194.3110  173.5490  144.3320 C   0  0  0  0  0  3  0  0  0  0  0  0
  193.1660  175.3770  145.4580 C   0  0  0  0  0  0  0  0  0  0  0  0
  195.2310  175.8190  144.2870 C   0  0  0  0  0  0  0  0  0  0  0  0
  195.2980  174.4590  143.9590 C   0  0  0  0  0  3  0  0  0  0  0  0
  191.1240  174.3530  145.9360 C   0  0  0  0  0  2  0  0  0  0  0  0
  193.2230  174.0370  145.0560 C   0  0  0  0  0  0  0  0  0  0  0  0
  192.0140  175.6130  146.2840 C   0  0  2  0  0  3  0  0  0  0  0  0
  194.1690  176.2580  145.0550 C   0  0  0  0  0  3  0  0  0  0  0  0
  192.0420  173.3220  145.3840 N   0  0  0  0  0  2  0  0  0  0  0  0
  1  4  1  0  0  0  0
  2 40  1  1  0  0  0
  2 10  1  0  0  0  0
  3 12  1  0  0  0  0
  4  2  1  0  0  0  0
  5  7  1  0  0  0  0
  5  3  2  0  0  0  0
  7  1  2  0  0  0  0
  8 43  1  6  0  0  0
  8 11  1  0  0  0  0
  9  8  1  0  0  0  0
 10  6  1  0  0  0  0
 11 13  2  0  0  0  0
 11  6  1  0  0  0  0
 12  4  2  0  0  0  0
 12  9  1  0  0  0  0
 14 19  1  0  0  0  0
 15 20  1  0  0  0  0
 15 21  1  0  0  0  0
 16 17  2  0  0  0  0
 17  9  1  0  0  0  0
 18 22  1  6  0  0  0
 18 14  1  0  0  0  0
 18 15  1  0  0  0  0
 19 20  1  0  0  0  0
 20 16  2  0  0  0  0
 23 28  2  0  0  0  0
 24 23  1  0  0  0  0
 24 27  2  0  0  0  0
 26 23  1  0  0  0  0
 27 29  1  0  0  0  0
 28 25  1  0  0  0  0
 29 22  1  0  0  0  0
 29 25  1  0  0  0  0
 30 31  1  0  0  0  0
 31 33  2  0  0  0  0
 31 36  1  0  0  0  0
 32 34  2  0  0  0  0
 34 27  1  0  0  0  0
 34 33  1  0  0  0  0
 35 32  1  0  0  0  0
 35 30  2  0  0  0  0
 36 39  1  0  0  0  0
 39 37  1  0  0  0  0
 39 38  1  1  0  0  0
 40 41  1  0  0  0  0
 43 42  2  0  0  0  0
 44 43  1  0  0  0  0
 45 48  1  0  0  0  0
 46 51  1  0  0  0  0
 47 52  1  0  0  0  0
 48 53  2  0  0  0  0
 49 48  1  0  0  0  0
 49 46  2  0  0  0  0
 50 52  1  0  0  0  0
 51 54  1  0  0  0  0
 51 47  2  0  0  0  0
 52 44  1  6  0  0  0
 53 47  1  0  0  0  0
 54 50  1  0  0  0  0
M  END
>  <MODEL>
4

>  <REMARK>
 VINA RESULT:      -9.1      3.383      8.799
  Name = 
  10 active torsions:
  status: ('A' for Active; 'I' for Inactive)
    1  A    between atoms: C_9  and  C_18
    2  A    between atoms: C_11  and  C_34
    3  A    between atoms: C_21  and  C_37
    4  A    between atoms: C_24  and  N_44
    5  A    between atoms: C_28  and  O_51
    6  A    between atoms: O_31  and  C_33
    7  A    between atoms: O_31  and  C_43
    8  A    between atoms: C_34  and  C_47
    9  A    between atoms: C_36  and  C_43
   10  A    between atoms: N_42  and  O_51
                            x       y       z     vdW  Elec       q    Type
                         _______ _______ _______ _____ _____    ______ ____

>  <TORSDO>
F 10

$$$$
=
 OpenBabel11062419143D

 54 60  0  0  1  0  0  0  0  0999 V2000
  186.9090  178.0470  143.5450 C   0  0  0  0  0  3  0  0  0  0  0  0
  187.2470  177.5480  145.9030 C   0  0  2  0  0  3  0  0  0  0  0  0
  189.2610  177.0690  142.3760 C   0  0  0  0  0  3  0  0  0  0  0  0
  187.8520  177.5300  144.3890 C   0  0  0  0  0  0  0  0  0  0  0  0
  188.3320  177.8720  141.6460 C   0  0  0  0  0  3  0  0  0  0  0  0
  188.1590  175.3190  146.6170 O   0  0  0  0  0  0  0  0  0  0  0  0
  187.1550  178.3840  142.2130 C   0  0  0  0  0  3  0  0  0  0  0  0
  190.3980  176.1260  145.9480 C   0  0  1  0  0  3  0  0  0  0  0  0
  190.4290  177.0970  144.7230 N   0  0  0  0  0  0  0  0  0  0  0  0
  187.8500  176.6710  146.9970 C   0  0  0  0  0  2  0  0  0  0  0  0
  189.3540  175.0330  146.0410 C   0  0  0  0  0  0  0  0  0  0  0  0
  189.2350  177.2350  143.8550 C   0  0  0  0  0  0  0  0  0  0  0  0
  189.7360  173.8510  145.9370 O   0  0  0  0  0  0  0  0  0  0  0  0
  195.1490  175.5820  141.5400 C   0  0  0  0  0  2  0  0  0  0  0  0
  192.8660  175.0020  141.6900 N   0  0  0  0  0  0  0  0  0  0  0  0
  192.4430  176.6720  143.4920 C   0  0  0  0  0  0  0  0  0  0  0  0
  191.8470  177.4450  144.3890 C   0  0  0  0  0  3  0  0  0  0  0  0
  194.0480  174.7690  140.8840 C   0  0  1  0  0  3  0  0  0  0  0  0
  194.5120  176.4140  142.4610 O   0  0  0  0  0  0  0  0  0  0  0  0
  193.1720  176.0910  142.5610 C   0  0  0  0  0  0  0  0  0  0  0  0
  191.7850  174.0040  141.7870 C   0  0  0  0  0  1  0  0  0  0  0  0
  193.8500  175.2910  139.6120 O   0  0  0  0  0  0  0  0  0  0  0  0
  195.3360  172.0200  137.6940 C   0  0  0  0  0  0  0  0  0  0  0  0
  193.8750  172.2530  137.6810 C   0  0  0  0  0  3  0  0  0  0  0  0
  195.6250  174.4150  138.1960 C   0  0  0  0  0  2  0  0  0  0  0  0
  196.0110  170.4620  137.2180 Cl  0  0  0  0  0  0  0  0  0  0  0  0
  193.3540  173.3390  138.2580 C   0  0  0  0  0  0  0  0  0  0  0  0
  196.1540  173.0330  137.9480 C   0  0  0  0  0  3  0  0  0  0  0  0
  194.2640  174.3350  138.7690 N   0  0  0  0  0  0  0  0  0  0  0  0
  189.3020  173.8220  137.0710 C   0  0  0  0  0  3  0  0  0  0  0  0
  189.5650  173.3030  138.3480 C   0  0  0  0  0  0  0  0  0  0  0  0
  191.6410  174.1660  136.6800 C   0  0  0  0  0  3  0  0  0  0  0  0
  190.8960  173.2160  138.7830 C   0  0  0  0  0  3  0  0  0  0  0  0
  191.9440  173.6870  137.9680 C   0  0  0  0  0  0  0  0  0  0  0  0
  190.3370  174.2310  136.2360 C   0  0  0  0  0  3  0  0  0  0  0  0
  188.4240  172.6650  139.1050 C   0  0  0  0  0  2  0  0  0  0  0  0
  188.5630  174.8130  140.1330 F   0  0  0  0  0  0  0  0  0  0  0  0
  188.2600  173.0000  141.6030 C   0  0  0  0  0  1  0  0  0  0  0  0
  187.9590  173.5820  140.2420 C   0  0  2  0  0  3  0  0  0  0  0  0
  185.7250  177.3720  145.9690 C   0  0  0  0  0  2  0  0  0  0  0  0
  185.0760  176.4170  146.8170 F   0  0  0  0  0  0  0  0  0  0  0  0
  192.1330  176.7940  147.6210 O   0  0  0  0  0  0  0  0  0  0  0  0
  191.7480  175.9580  146.8090 C   0  0  0  0  0  0  0  0  0  0  0  0
  192.5650  174.8840  146.7040 O   0  0  0  0  0  0  0  0  0  0  0  0
  192.6830  170.3520  144.2620 C   0  0  0  0  0  1  0  0  0  0  0  0
  195.8450  172.4690  144.6660 C   0  0  0  0  0  3  0  0  0  0  0  0
  193.8960  173.7610  145.3420 C   0  0  0  0  0  0  0  0  0  0  0  0
  193.5950  171.5090  144.5250 C   0  0  0  0  0  0  0  0  0  0  0  0
  194.9800  171.4270  144.3360 C   0  0  0  0  0  3  0  0  0  0  0  0
  194.9420  175.5580  146.4040 C   0  0  0  0  0  2  0  0  0  0  0  0
  195.2840  173.6250  145.2090 C   0  0  0  0  0  0  0  0  0  0  0  0
  193.5560  175.0750  145.8130 C   0  0  2  0  0  3  0  0  0  0  0  0
  193.0670  172.6910  145.0080 C   0  0  0  0  0  3  0  0  0  0  0  0
  195.9920  174.7220  145.7630 N   0  0  0  0  0  2  0  0  0  0  0  0
  1  4  1  0  0  0  0
  2 40  1  6  0  0  0
  2 10  1  0  0  0  0
  3 12  1  0  0  0  0
  4  2  1  0  0  0  0
  5  7  1  0  0  0  0
  5  3  2  0  0  0  0
  6 10  1  0  0  0  0
  7  1  2  0  0  0  0
  8 11  1  0  0  0  0
  8 43  1  6  0  0  0
  9  8  1  0  0  0  0
 11  6  1  0  0  0  0
 12  4  2  0  0  0  0
 12  9  1  0  0  0  0
 13 11  2  0  0  0  0
 14 19  1  0  0  0  0
 15 21  1  0  0  0  0
 15 20  1  0  0  0  0
 16 17  2  0  0  0  0
 17  9  1  0  0  0  0
 18 22  1  6  0  0  0
 18 14  1  0  0  0  0
 18 15  1  0  0  0  0
 19 20  1  0  0  0  0
 20 16  2  0  0  0  0
 23 28  2  0  0  0  0
 24 23  1  0  0  0  0
 24 27  2  0  0  0  0
 25 29  1  0  0  0  0
 26 23  1  0  0  0  0
 27 29  1  0  0  0  0
 28 25  1  0  0  0  0
 29 22  1  0  0  0  0
 30 31  1  0  0  0  0
 31 33  2  0  0  0  0
 31 36  1  0  0  0  0
 32 34  2  0  0  0  0
 34 27  1  0  0  0  0
 34 33  1  0  0  0  0
 35 32  1  0  0  0  0
 35 30  2  0  0  0  0
 36 39  1  0  0  0  0
 37 39  1  0  0  0  0
 39 38  1  1  0  0  0
 40 41  1  0  0  0  0
 43 42  2  0  0  0  0
 44 43  1  0  0  0  0
 45 48  1  0  0  0  0
 46 51  1  0  0  0  0
 47 52  1  0  0  0  0
 48 53  2  0  0  0  0
 49 48  1  0  0  0  0
 49 46  2  0  0  0  0
 51 47  2  0  0  0  0
 51 54  1  0  0  0  0
 52 50  1  0  0  0  0
 52 44  1  1  0  0  0
 53 47  1  0  0  0  0
 54 50  1  0  0  0  0
M  END
>  <MODEL>
5

>  <REMARK>
 VINA RESULT:      -8.9      3.639      8.327
  Name = 
  10 active torsions:
  status: ('A' for Active; 'I' for Inactive)
    1  A    between atoms: C_9  and  C_18
    2  A    between atoms: C_11  and  C_34
    3  A    between atoms: C_21  and  C_37
    4  A    between atoms: C_24  and  N_44
    5  A    between atoms: C_28  and  O_51
    6  A    between atoms: O_31  and  C_33
    7  A    between atoms: O_31  and  C_43
    8  A    between atoms: C_34  and  C_47
    9  A    between atoms: C_36  and  C_43
   10  A    between atoms: N_42  and  O_51
                            x       y       z     vdW  Elec       q    Type
                         _______ _______ _______ _____ _____    ______ ____

>  <TORSDO>
F 10

$$$$
=
 OpenBabel11062419143D

 54 60  0  0  1  0  0  0  0  0999 V2000
  192.3770  174.9490  146.4550 C   0  0  0  0  0  3  0  0  0  0  0  0
  190.3250  176.2570  146.4850 C   0  0  2  0  0  3  0  0  0  0  0  0
  192.5400  174.1390  143.7770 C   0  0  0  0  0  3  0  0  0  0  0  0
  191.3490  175.3170  145.6330 C   0  0  0  0  0  0  0  0  0  0  0  0
  193.3940  173.5950  144.7840 C   0  0  0  0  0  3  0  0  0  0  0  0
  189.8370  177.9060  144.6540 O   0  0  0  0  0  0  0  0  0  0  0  0
  193.3230  173.9740  146.1330 C   0  0  0  0  0  3  0  0  0  0  0  0
  189.1910  175.9910  143.2300 C   0  0  1  0  0  3  0  0  0  0  0  0
  189.9900  174.6690  143.4710 N   0  0  0  0  0  0  0  0  0  0  0  0
  189.3260  177.1680  145.7770 C   0  0  0  0  0  2  0  0  0  0  0  0
  189.8530  177.3390  143.4210 C   0  0  0  0  0  0  0  0  0  0  0  0
  191.2460  174.6930  144.2600 C   0  0  0  0  0  0  0  0  0  0  0  0
  190.0540  178.0390  142.4090 O   0  0  0  0  0  0  0  0  0  0  0  0
  191.3190  171.8520  138.4700 C   0  0  0  0  0  2  0  0  0  0  0  0
  192.3600  173.3260  139.9920 N   0  0  0  0  0  0  0  0  0  0  0  0
  190.3610  173.3870  141.4790 C   0  0  0  0  0  0  0  0  0  0  0  0
  189.5450  173.6230  142.4970 C   0  0  0  0  0  3  0  0  0  0  0  0
  192.6390  172.5140  138.8230 C   0  0  1  0  0  3  0  0  0  0  0  0
  190.4750  172.0790  139.5580 O   0  0  0  0  0  0  0  0  0  0  0  0
  191.0690  172.9390  140.4620 C   0  0  0  0  0  0  0  0  0  0  0  0
  193.1390  174.5410  140.2940 C   0  0  0  0  0  1  0  0  0  0  0  0
  193.5300  171.5050  139.1640 O   0  0  0  0  0  0  0  0  0  0  0  0
  196.5320  172.9300  136.8110 C   0  0  0  0  0  0  0  0  0  0  0  0
  196.7290  172.8960  138.2770 C   0  0  0  0  0  3  0  0  0  0  0  0
  194.7780  171.2230  137.0950 C   0  0  0  0  0  2  0  0  0  0  0  0
  197.6120  173.8600  135.7730 Cl  0  0  0  0  0  0  0  0  0  0  0  0
  195.7860  172.3920  139.0790 C   0  0  0  0  0  0  0  0  0  0  0  0
  195.6090  172.1530  136.2600 C   0  0  0  0  0  3  0  0  0  0  0  0
  194.6420  171.7640  138.4640 N   0  0  0  0  0  0  0  0  0  0  0  0
  197.3780  171.4860  142.9140 C   0  0  0  0  0  3  0  0  0  0  0  0
  197.1150  172.8290  142.6020 C   0  0  0  0  0  0  0  0  0  0  0  0
  196.4520  170.7720  140.8220 C   0  0  0  0  0  3  0  0  0  0  0  0
  196.5130  173.1330  141.3710 C   0  0  0  0  0  3  0  0  0  0  0  0
  196.1370  172.1020  140.4870 C   0  0  0  0  0  0  0  0  0  0  0  0
  197.0670  170.4680  142.0190 C   0  0  0  0  0  3  0  0  0  0  0  0
  197.6850  173.8950  143.5070 C   0  0  0  0  0  2  0  0  0  0  0  0
  196.4670  175.5920  144.6570 F   0  0  0  0  0  0  0  0  0  0  0  0
  197.1750  173.7770  145.9780 C   0  0  0  0  0  1  0  0  0  0  0  0
  196.6920  174.2350  144.6230 C   0  0  2  0  0  3  0  0  0  0  0  0
  191.0070  177.0940  147.5750 C   0  0  0  0  0  2  0  0  0  0  0  0
  191.1960  176.6370  148.9200 F   0  0  0  0  0  0  0  0  0  0  0  0
  187.9240  175.7400  141.0880 O   0  0  0  0  0  0  0  0  0  0  0  0
  187.8780  175.9170  142.3020 C   0  0  0  0  0  0  0  0  0  0  0  0
  186.6210  176.0490  142.7850 O   0  0  0  0  0  0  0  0  0  0  0  0
  186.0840  176.8700  147.8410 C   0  0  0  0  0  1  0  0  0  0  0  0
  183.9070  178.7130  145.2910 C   0  0  0  0  0  3  0  0  0  0  0  0
  185.6960  177.5300  144.1420 C   0  0  0  0  0  0  0  0  0  0  0  0
  185.5710  177.4310  146.5520 C   0  0  0  0  0  0  0  0  0  0  0  0
  184.4450  178.2620  146.4950 C   0  0  0  0  0  3  0  0  0  0  0  0
  184.9410  177.6780  141.9390 C   0  0  0  0  0  2  0  0  0  0  0  0
  184.5280  178.3020  144.1120 C   0  0  0  0  0  0  0  0  0  0  0  0
  186.2110  177.3300  142.8160 C   0  0  2  0  0  3  0  0  0  0  0  0
  186.1970  177.0920  145.3680 C   0  0  0  0  0  3  0  0  0  0  0  0
  184.0470  178.5040  142.7930 N   0  0  0  0  0  2  0  0  0  0  0  0
  2 40  1  6  0  0  0
  3 12  2  0  0  0  0
  3  5  1  0  0  0  0
  4  1  2  0  0  0  0
  4  2  1  0  0  0  0
  5  7  2  0  0  0  0
  6 10  1  0  0  0  0
  7  1  1  0  0  0  0
  8 43  1  6  0  0  0
  8 11  1  0  0  0  0
  8  9  1  0  0  0  0
  9 12  1  0  0  0  0
 10  2  1  0  0  0  0
 11  6  1  0  0  0  0
 12  4  1  0  0  0  0
 13 11  2  0  0  0  0
 14 18  1  0  0  0  0
 14 19  1  0  0  0  0
 15 21  1  0  0  0  0
 15 20  1  0  0  0  0
 16 17  2  0  0  0  0
 17  9  1  0  0  0  0
 18 22  1  1  0  0  0
 18 15  1  0  0  0  0
 19 20  1  0  0  0  0
 20 16  2  0  0  0  0
 23 24  1  0  0  0  0
 24 27  2  0  0  0  0
 25 29  1  0  0  0  0
 26 23  1  0  0  0  0
 27 34  1  0  0  0  0
 28 23  2  0  0  0  0
 28 25  1  0  0  0  0
 29 27  1  0  0  0  0
 29 22  1  0  0  0  0
 31 30  1  0  0  0  0
 31 36  1  0  0  0  0
 32 35  1  0  0  0  0
 33 31  2  0  0  0  0
 34 32  2  0  0  0  0
 34 33  1  0  0  0  0
 35 30  2  0  0  0  0
 36 39  1  0  0  0  0
 39 37  1  0  0  0  0
 39 38  1  1  0  0  0
 40 41  1  0  0  0  0
 42 43  2  0  0  0  0
 43 44  1  0  0  0  0
 46 49  1  0  0  0  0
 47 53  2  0  0  0  0
 48 45  1  0  0  0  0
 49 48  2  0  0  0  0
 50 54  1  0  0  0  0
 50 52  1  0  0  0  0
 51 47  1  0  0  0  0
 51 46  2  0  0  0  0
 52 44  1  1  0  0  0
 52 47  1  0  0  0  0
 53 48  1  0  0  0  0
 54 51  1  0  0  0  0
M  END
>  <MODEL>
6

>  <REMARK>
 VINA RESULT:      -8.8      3.580      9.905
  Name = 
  10 active torsions:
  status: ('A' for Active; 'I' for Inactive)
    1  A    between atoms: C_9  and  C_18
    2  A    between atoms: C_11  and  C_34
    3  A    between atoms: C_21  and  C_37
    4  A    between atoms: C_24  and  N_44
    5  A    between atoms: C_28  and  O_51
    6  A    between atoms: O_31  and  C_33
    7  A    between atoms: O_31  and  C_43
    8  A    between atoms: C_34  and  C_47
    9  A    between atoms: C_36  and  C_43
   10  A    between atoms: N_42  and  O_51
                            x       y       z     vdW  Elec       q    Type
                         _______ _______ _______ _____ _____    ______ ____

>  <TORSDO>
F 10

$$$$
=
 OpenBabel11062419143D

 54 60  0  0  1  0  0  0  0  0999 V2000
  195.2640  174.5750  139.4510 C   0  0  0  0  0  3  0  0  0  0  0  0
  193.8590  174.8550  137.4820 C   0  0  2  0  0  3  0  0  0  0  0  0
  194.4490  172.0780  140.4250 C   0  0  0  0  0  3  0  0  0  0  0  0
  194.2470  173.9510  138.7820 C   0  0  0  0  0  0  0  0  0  0  0  0
  195.2960  172.9440  141.1820 C   0  0  0  0  0  3  0  0  0  0  0  0
  193.5090  172.9490  135.8840 O   0  0  0  0  0  0  0  0  0  0  0  0
  195.7050  174.2050  140.7210 C   0  0  0  0  0  3  0  0  0  0  0  0
  191.9080  172.0010  137.5130 C   0  0  1  0  0  3  0  0  0  0  0  0
  192.2440  172.2570  139.0180 N   0  0  0  0  0  0  0  0  0  0  0  0
  193.0840  174.2540  136.3140 C   0  0  0  0  0  2  0  0  0  0  0  0
  193.0150  171.8410  136.4920 C   0  0  0  0  0  0  0  0  0  0  0  0
  193.5900  172.7420  139.4070 C   0  0  0  0  0  0  0  0  0  0  0  0
  193.1750  170.7170  135.9770 O   0  0  0  0  0  0  0  0  0  0  0  0
  189.6880  172.1940  144.3260 C   0  0  0  0  0  2  0  0  0  0  0  0
  191.1110  173.6010  143.0710 N   0  0  0  0  0  0  0  0  0  0  0  0
  191.0630  172.0800  141.0970 C   0  0  0  0  0  0  0  0  0  0  0  0
  191.2350  171.5700  139.8860 C   0  0  0  0  0  3  0  0  0  0  0  0
  190.3590  173.5560  144.3110 C   0  0  1  0  0  3  0  0  0  0  0  0
  189.8480  171.6770  143.0400 O   0  0  0  0  0  0  0  0  0  0  0  0
  190.6770  172.4880  142.2890 C   0  0  0  0  0  0  0  0  0  0  0  0
  192.3260  174.4240  142.9320 C   0  0  0  0  0  1  0  0  0  0  0  0
  189.3530  174.5130  144.2750 O   0  0  0  0  0  0  0  0  0  0  0  0
  190.6560  176.6180  147.5080 C   0  0  0  0  0  0  0  0  0  0  0  0
  190.0820  177.3550  146.3610 C   0  0  0  0  0  3  0  0  0  0  0  0
  189.4680  174.6150  146.7030 C   0  0  0  0  0  2  0  0  0  0  0  0
  191.5670  177.4590  148.7620 Cl  0  0  0  0  0  0  0  0  0  0  0  0
  189.6010  176.6970  145.3020 C   0  0  0  0  0  0  0  0  0  0  0  0
  190.3760  175.3310  147.6600 C   0  0  0  0  0  3  0  0  0  0  0  0
  189.5350  175.2580  145.3730 N   0  0  0  0  0  0  0  0  0  0  0  0
  187.1920  178.2900  142.1840 C   0  0  0  0  0  3  0  0  0  0  0  0
  186.5780  177.9740  143.4050 C   0  0  0  0  0  0  0  0  0  0  0  0
  189.3470  177.7330  143.0730 C   0  0  0  0  0  3  0  0  0  0  0  0
  187.3750  177.5240  144.4690 C   0  0  0  0  0  3  0  0  0  0  0  0
  188.7740  177.4400  144.3240 C   0  0  0  0  0  0  0  0  0  0  0  0
  188.5650  178.1500  142.0150 C   0  0  0  0  0  3  0  0  0  0  0  0
  185.0680  177.9240  143.4510 C   0  0  0  0  0  2  0  0  0  0  0  0
  185.3920  180.1450  144.2570 F   0  0  0  0  0  0  0  0  0  0  0  0
  184.2890  178.6800  145.7310 C   0  0  0  0  0  1  0  0  0  0  0  0
  184.5220  179.0810  144.2940 C   0  0  2  0  0  3  0  0  0  0  0  0
  195.0400  175.6330  136.8880 C   0  0  0  0  0  2  0  0  0  0  0  0
  195.0010  176.2710  135.6060 F   0  0  0  0  0  0  0  0  0  0  0  0
  190.2830  170.2460  136.7820 O   0  0  0  0  0  0  0  0  0  0  0  0
  190.4570  171.4020  137.1570 C   0  0  0  0  0  0  0  0  0  0  0  0
  189.3170  172.1250  137.2390 O   0  0  0  0  0  0  0  0  0  0  0  0
  187.6160  174.6270  141.4070 C   0  0  0  0  0  1  0  0  0  0  0  0
  187.3310  176.1680  137.9160 C   0  0  0  0  0  3  0  0  0  0  0  0
  188.7220  174.1730  137.8240 C   0  0  0  0  0  0  0  0  0  0  0  0
  187.8180  174.8860  139.9470 C   0  0  0  0  0  0  0  0  0  0  0  0
  187.2240  175.9720  139.2920 C   0  0  0  0  0  3  0  0  0  0  0  0
  188.8320  173.8520  135.5150 C   0  0  0  0  0  2  0  0  0  0  0  0
  188.0590  175.2280  137.1860 C   0  0  0  0  0  0  0  0  0  0  0  0
  189.4940  173.4110  136.8820 C   0  0  2  0  0  3  0  0  0  0  0  0
  188.5820  174.0080  139.2020 C   0  0  0  0  0  3  0  0  0  0  0  0
  188.1480  175.1480  135.7720 N   0  0  0  0  0  2  0  0  0  0  0  0
  1  7  1  0  0  0  0
  2 40  1  6  0  0  0
  2  4  1  0  0  0  0
  3  5  1  0  0  0  0
  4 12  1  0  0  0  0
  4  1  2  0  0  0  0
  6 10  1  0  0  0  0
  6 11  1  0  0  0  0
  7  5  2  0  0  0  0
  8 43  1  1  0  0  0
  8  9  1  0  0  0  0
  9 12  1  0  0  0  0
  9 17  1  0  0  0  0
 10  2  1  0  0  0  0
 11  8  1  0  0  0  0
 12  3  2  0  0  0  0
 13 11  2  0  0  0  0
 15 18  1  0  0  0  0
 16 20  2  0  0  0  0
 17 16  2  0  0  0  0
 18 22  1  6  0  0  0
 18 14  1  0  0  0  0
 19 14  1  0  0  0  0
 20 19  1  0  0  0  0
 20 15  1  0  0  0  0
 21 15  1  0  0  0  0
 22 29  1  0  0  0  0
 23 28  2  0  0  0  0
 23 26  1  0  0  0  0
 24 23  1  0  0  0  0
 25 28  1  0  0  0  0
 27 29  1  0  0  0  0
 27 24  2  0  0  0  0
 29 25  1  0  0  0  0
 30 31  1  0  0  0  0
 31 36  1  0  0  0  0
 31 33  2  0  0  0  0
 32 34  2  0  0  0  0
 34 33  1  0  0  0  0
 34 27  1  0  0  0  0
 35 30  2  0  0  0  0
 35 32  1  0  0  0  0
 36 39  1  0  0  0  0
 37 39  1  0  0  0  0
 39 38  1  1  0  0  0
 41 40  1  0  0  0  0
 42 43  2  0  0  0  0
 43 44  1  0  0  0  0
 46 49  1  0  0  0  0
 47 53  2  0  0  0  0
 48 45  1  0  0  0  0
 49 48  2  0  0  0  0
 50 54  1  0  0  0  0
 50 52  1  0  0  0  0
 51 47  1  0  0  0  0
 51 46  2  0  0  0  0
 52 44  1  1  0  0  0
 52 47  1  0  0  0  0
 53 48  1  0  0  0  0
 54 51  1  0  0  0  0
M  END
>  <MODEL>
7

>  <REMARK>
 VINA RESULT:      -8.6      3.490      6.886
  Name = 
  10 active torsions:
  status: ('A' for Active; 'I' for Inactive)
    1  A    between atoms: C_9  and  C_18
    2  A    between atoms: C_11  and  C_34
    3  A    between atoms: C_21  and  C_37
    4  A    between atoms: C_24  and  N_44
    5  A    between atoms: C_28  and  O_51
    6  A    between atoms: O_31  and  C_33
    7  A    between atoms: O_31  and  C_43
    8  A    between atoms: C_34  and  C_47
    9  A    between atoms: C_36  and  C_43
   10  A    between atoms: N_42  and  O_51
                            x       y       z     vdW  Elec       q    Type
                         _______ _______ _______ _____ _____    ______ ____

>  <TORSDO>
F 10

$$$$
=
 OpenBabel11062419143D

 54 60  0  0  1  0  0  0  0  0999 V2000
  192.3800  168.8150  142.8360 C   0  0  0  0  0  3  0  0  0  0  0  0
  193.9400  170.5400  143.5540 C   0  0  2  0  0  3  0  0  0  0  0  0
  191.8470  169.5460  140.1840 C   0  0  0  0  0  3  0  0  0  0  0  0
  192.9680  169.9620  142.3810 C   0  0  0  0  0  0  0  0  0  0  0  0
  191.0890  168.5390  140.8570 C   0  0  0  0  0  3  0  0  0  0  0  0
  195.8250  171.2580  142.0590 O   0  0  0  0  0  0  0  0  0  0  0  0
  191.3280  168.1660  142.1880 C   0  0  0  0  0  3  0  0  0  0  0  0
  194.1760  172.5750  140.7700 C   0  0  1  0  0  3  0  0  0  0  0  0
  192.7420  171.9600  140.6790 N   0  0  0  0  0  0  0  0  0  0  0  0
  195.0450  171.5410  143.2330 C   0  0  0  0  0  2  0  0  0  0  0  0
  195.3960  171.6810  140.8420 C   0  0  0  0  0  0  0  0  0  0  0  0
  192.5140  170.5460  141.0620 C   0  0  0  0  0  0  0  0  0  0  0  0
  196.1680  171.6660  139.8630 O   0  0  0  0  0  0  0  0  0  0  0  0
  187.7770  175.1240  140.4580 C   0  0  0  0  0  2  0  0  0  0  0  0
  189.1030  174.0380  142.0810 N   0  0  0  0  0  0  0  0  0  0  0  0
  190.7890  173.3220  140.3910 C   0  0  0  0  0  0  0  0  0  0  0  0
  191.8750  172.8240  139.8150 C   0  0  0  0  0  3  0  0  0  0  0  0
  187.9540  174.9130  141.9510 C   0  0  1  0  0  3  0  0  0  0  0  0
  188.9360  174.6250  139.8620 O   0  0  0  0  0  0  0  0  0  0  0  0
  189.7270  173.9860  140.7980 C   0  0  0  0  0  0  0  0  0  0  0  0
  189.2590  173.1310  143.2330 C   0  0  0  0  0  1  0  0  0  0  0  0
  188.2490  176.1490  142.5120 O   0  0  0  0  0  0  0  0  0  0  0  0
  184.8280  177.9160  141.1850 C   0  0  0  0  0  0  0  0  0  0  0  0
  185.0040  177.7020  142.6380 C   0  0  0  0  0  3  0  0  0  0  0  0
  187.2750  177.7430  140.9520 C   0  0  0  0  0  2  0  0  0  0  0  0
  183.2500  178.3240  140.5130 Cl  0  0  0  0  0  0  0  0  0  0  0  0
  186.1320  177.1690  143.1160 C   0  0  0  0  0  0  0  0  0  0  0  0
  185.8930  177.9220  140.3950 C   0  0  0  0  0  3  0  0  0  0  0  0
  187.2150  176.9380  142.1910 N   0  0  0  0  0  0  0  0  0  0  0  0
  186.7880  176.7790  147.2970 C   0  0  0  0  0  3  0  0  0  0  0  0
  187.9040  176.9220  146.4580 C   0  0  0  0  0  0  0  0  0  0  0  0
  185.3000  177.0640  145.4410 C   0  0  0  0  0  3  0  0  0  0  0  0
  187.6970  177.1330  145.0860 C   0  0  0  0  0  3  0  0  0  0  0  0
  186.3900  177.2490  144.5720 C   0  0  0  0  0  0  0  0  0  0  0  0
  185.4950  176.8300  146.7860 C   0  0  0  0  0  3  0  0  0  0  0  0
  189.2690  176.6260  147.0330 C   0  0  0  0  0  2  0  0  0  0  0  0
  188.9440  174.3430  147.6400 F   0  0  0  0  0  0  0  0  0  0  0  0
  191.1250  174.9150  146.9650 C   0  0  0  0  0  1  0  0  0  0  0  0
  189.6460  175.1610  146.7870 C   0  0  2  0  0  3  0  0  0  0  0  0
  194.5560  169.4550  144.4450 C   0  0  0  0  0  2  0  0  0  0  0  0
  193.9130  168.9330  145.6150 F   0  0  0  0  0  0  0  0  0  0  0  0
  194.3570  174.4140  139.0840 O   0  0  0  0  0  0  0  0  0  0  0  0
  194.3780  174.0910  140.2680 C   0  0  0  0  0  0  0  0  0  0  0  0
  194.5900  175.1290  141.1110 O   0  0  0  0  0  0  0  0  0  0  0  0
  191.0900  177.5790  143.9860 C   0  0  0  0  0  1  0  0  0  0  0  0
  194.5700  176.7720  145.3590 C   0  0  0  0  0  3  0  0  0  0  0  0
  194.2370  175.6300  143.2360 C   0  0  0  0  0  0  0  0  0  0  0  0
  192.4500  176.9750  144.1460 C   0  0  0  0  0  0  0  0  0  0  0  0
  193.2670  177.2560  145.2480 C   0  0  0  0  0  3  0  0  0  0  0  0
  196.4250  174.9550  142.7830 C   0  0  0  0  0  2  0  0  0  0  0  0
  195.0550  175.9840  144.3150 C   0  0  0  0  0  0  0  0  0  0  0  0
  194.9200  174.7260  142.3520 C   0  0  2  0  0  3  0  0  0  0  0  0
  192.9430  176.1430  143.1590 C   0  0  0  0  0  3  0  0  0  0  0  0
  196.3920  175.5380  144.1510 N   0  0  0  0  0  2  0  0  0  0  0  0
  2 40  1  6  0  0  0
  3  5  2  0  0  0  0
  3 12  1  0  0  0  0
  4  1  1  0  0  0  0
  4  2  1  0  0  0  0
  5  7  1  0  0  0  0
  6 10  1  0  0  0  0
  7  1  2  0  0  0  0
  8 43  1  6  0  0  0
  8 11  1  0  0  0  0
  9  8  1  0  0  0  0
  9 12  1  0  0  0  0
 10  2  1  0  0  0  0
 11  6  1  0  0  0  0
 12  4  2  0  0  0  0
 13 11  2  0  0  0  0
 14 18  1  0  0  0  0
 15 21  1  0  0  0  0
 16 20  2  0  0  0  0
 17 16  2  0  0  0  0
 17  9  1  0  0  0  0
 18 15  1  0  0  0  0
 18 22  1  1  0  0  0
 19 14  1  0  0  0  0
 19 20  1  0  0  0  0
 20 15  1  0  0  0  0
 23 24  1  0  0  0  0
 24 27  2  0  0  0  0
 25 29  1  0  0  0  0
 26 23  1  0  0  0  0
 27 34  1  0  0  0  0
 28 25  1  0  0  0  0
 28 23  2  0  0  0  0
 29 22  1  0  0  0  0
 29 27  1  0  0  0  0
 31 36  1  0  0  0  0
 31 30  2  0  0  0  0
 32 35  2  0  0  0  0
 33 31  1  0  0  0  0
 34 33  2  0  0  0  0
 34 32  1  0  0  0  0
 35 30  1  0  0  0  0
 39 38  1  1  0  0  0
 39 36  1  0  0  0  0
 39 37  1  0  0  0  0
 40 41  1  0  0  0  0
 42 43  2  0  0  0  0
 43 44  1  0  0  0  0
 45 48  1  0  0  0  0
 47 51  1  0  0  0  0
 48 49  2  0  0  0  0
 49 46  1  0  0  0  0
 50 54  1  0  0  0  0
 51 46  2  0  0  0  0
 52 44  1  6  0  0  0
 52 50  1  0  0  0  0
 52 47  1  0  0  0  0
 53 47  2  0  0  0  0
 53 48  1  0  0  0  0
 54 51  1  0  0  0  0
M  END
>  <MODEL>
8

>  <REMARK>
 VINA RESULT:      -8.5      2.240      3.393
  Name = 
  10 active torsions:
  status: ('A' for Active; 'I' for Inactive)
    1  A    between atoms: C_9  and  C_18
    2  A    between atoms: C_11  and  C_34
    3  A    between atoms: C_21  and  C_37
    4  A    between atoms: C_24  and  N_44
    5  A    between atoms: C_28  and  O_51
    6  A    between atoms: O_31  and  C_33
    7  A    between atoms: O_31  and  C_43
    8  A    between atoms: C_34  and  C_47
    9  A    between atoms: C_36  and  C_43
   10  A    between atoms: N_42  and  O_51
                            x       y       z     vdW  Elec       q    Type
                         _______ _______ _______ _____ _____    ______ ____

>  <TORSDO>
F 10

$$$$
=
 OpenBabel11062419143D

 54 60  0  0  1  0  0  0  0  0999 V2000
  193.2490  169.3130  142.2800 C   0  0  0  0  0  3  0  0  0  0  0  0
  195.1490  170.5080  141.3390 C   0  0  2  0  0  3  0  0  0  0  0  0
  191.2430  169.7730  140.3790 C   0  0  0  0  0  3  0  0  0  0  0  0
  193.5710  170.1170  141.2220 C   0  0  0  0  0  0  0  0  0  0  0  0
  190.9590  169.1890  141.6510 C   0  0  0  0  0  3  0  0  0  0  0  0
  195.6870  170.3250  138.8930 O   0  0  0  0  0  0  0  0  0  0  0  0
  191.9430  168.9620  142.6240 C   0  0  0  0  0  3  0  0  0  0  0  0
  193.8360  171.9060  138.4630 C   0  0  1  0  0  3  0  0  0  0  0  0
  192.6150  171.7970  139.4330 N   0  0  0  0  0  0  0  0  0  0  0  0
  195.9200  171.0240  140.1280 C   0  0  0  0  0  2  0  0  0  0  0  0
  194.6440  170.6780  138.1000 C   0  0  0  0  0  0  0  0  0  0  0  0
  192.4690  170.6140  140.3150 C   0  0  0  0  0  0  0  0  0  0  0  0
  194.5760  170.2610  136.9270 O   0  0  0  0  0  0  0  0  0  0  0  0
  188.1380  175.1490  141.2870 C   0  0  0  0  0  2  0  0  0  0  0  0
  189.8990  173.8850  142.2230 N   0  0  0  0  0  0  0  0  0  0  0  0
  190.7870  173.2490  139.9830 C   0  0  0  0  0  0  0  0  0  0  0  0
  191.5470  172.7600  139.0130 C   0  0  0  0  0  3  0  0  0  0  0  0
  188.8420  174.8090  142.5880 C   0  0  1  0  0  3  0  0  0  0  0  0
  188.9580  174.6580  140.2700 O   0  0  0  0  0  0  0  0  0  0  0  0
  189.9970  173.9160  140.8000 C   0  0  0  0  0  0  0  0  0  0  0  0
  190.4110  172.8810  143.1740 C   0  0  0  0  0  1  0  0  0  0  0  0
  189.4030  175.9830  143.0740 O   0  0  0  0  0  0  0  0  0  0  0  0
  186.2670  176.8390  145.5250 C   0  0  0  0  0  0  0  0  0  0  0  0
  187.5940  176.5860  146.1280 C   0  0  0  0  0  3  0  0  0  0  0  0
  187.4210  177.3530  143.4100 C   0  0  0  0  0  2  0  0  0  0  0  0
  184.8080  176.8480  146.5170 Cl  0  0  0  0  0  0  0  0  0  0  0  0
  188.6580  176.3480  145.3540 C   0  0  0  0  0  0  0  0  0  0  0  0
  186.1870  177.1870  144.2480 C   0  0  0  0  0  3  0  0  0  0  0  0
  188.4980  176.4810  143.9260 N   0  0  0  0  0  0  0  0  0  0  0  0
  192.3140  176.0430  147.4990 C   0  0  0  0  0  3  0  0  0  0  0  0
  192.2260  175.4280  146.2410 C   0  0  0  0  0  0  0  0  0  0  0  0
  190.1170  176.9680  147.2490 C   0  0  0  0  0  3  0  0  0  0  0  0
  191.0530  175.5890  145.4880 C   0  0  0  0  0  3  0  0  0  0  0  0
  190.0040  176.3980  145.9680 C   0  0  0  0  0  0  0  0  0  0  0  0
  191.2570  176.7910  148.0060 C   0  0  0  0  0  3  0  0  0  0  0  0
  193.3060  174.4450  145.8530 C   0  0  0  0  0  2  0  0  0  0  0  0
  194.5880  176.3780  145.2960 F   0  0  0  0  0  0  0  0  0  0  0  0
  195.7220  174.3230  145.1290 C   0  0  0  0  0  1  0  0  0  0  0  0
  194.6780  175.1280  145.8640 C   0  0  2  0  0  3  0  0  0  0  0  0
  196.0140  169.4260  141.9980 C   0  0  0  0  0  2  0  0  0  0  0  0
  196.2450  169.3510  143.4100 F   0  0  0  0  0  0  0  0  0  0  0  0
  193.4590  173.1560  136.3300 O   0  0  0  0  0  0  0  0  0  0  0  0
  193.9010  173.1750  137.4750 C   0  0  0  0  0  0  0  0  0  0  0  0
  194.4500  174.3610  137.8270 O   0  0  0  0  0  0  0  0  0  0  0  0
  192.9110  175.9570  142.4750 C   0  0  0  0  0  1  0  0  0  0  0  0
  196.5390  176.3800  141.3340 C   0  0  0  0  0  3  0  0  0  0  0  0
  195.3400  174.9650  139.7590 C   0  0  0  0  0  0  0  0  0  0  0  0
  194.1860  175.8080  141.7050 C   0  0  0  0  0  0  0  0  0  0  0  0
  195.3730  176.4380  142.0960 C   0  0  0  0  0  3  0  0  0  0  0  0
  196.8670  174.9270  137.9940 C   0  0  0  0  0  2  0  0  0  0  0  0
  196.4930  175.6630  140.1380 C   0  0  0  0  0  0  0  0  0  0  0  0
  195.5720  174.2140  138.5560 C   0  0  2  0  0  3  0  0  0  0  0  0
  194.1920  175.0570  140.5450 C   0  0  0  0  0  3  0  0  0  0  0  0
  197.5040  175.6200  139.1450 N   0  0  0  0  0  2  0  0  0  0  0  0
  1  7  1  0  0  0  0
  2 40  1  6  0  0  0
  3  5  1  0  0  0  0
  4  2  1  0  0  0  0
  4  1  2  0  0  0  0
  5  7  2  0  0  0  0
  6 10  1  0  0  0  0
  8 43  1  6  0  0  0
  8  9  1  0  0  0  0
  9 12  1  0  0  0  0
 10  2  1  0  0  0  0
 11  8  1  0  0  0  0
 11  6  1  0  0  0  0
 12  3  2  0  0  0  0
 12  4  1  0  0  0  0
 13 11  2  0  0  0  0
 14 18  1  0  0  0  0
 15 18  1  0  0  0  0
 15 21  1  0  0  0  0
 16 20  2  0  0  0  0
 17  9  1  0  0  0  0
 17 16  2  0  0  0  0
 18 22  1  6  0  0  0
 19 20  1  0  0  0  0
 19 14  1  0  0  0  0
 20 15  1  0  0  0  0
 22 29  1  0  0  0  0
 23 24  1  0  0  0  0
 23 26  1  0  0  0  0
 25 29  1  0  0  0  0
 25 28  1  0  0  0  0
 27 34  1  0  0  0  0
 27 24  2  0  0  0  0
 28 23  2  0  0  0  0
 29 27  1  0  0  0  0
 30 35  1  0  0  0  0
 31 30  2  0  0  0  0
 32 35  2  0  0  0  0
 33 34  2  0  0  0  0
 33 31  1  0  0  0  0
 34 32  1  0  0  0  0
 36 39  1  0  0  0  0
 36 31  1  0  0  0  0
 37 39  1  0  0  0  0
 39 38  1  6  0  0  0
 40 41  1  0  0  0  0
 42 43  2  0  0  0  0
 43 44  1  0  0  0  0
 46 49  1  0  0  0  0
 47 51  1  0  0  0  0
 47 53  2  0  0  0  0
 48 49  2  0  0  0  0
 48 45  1  0  0  0  0
 50 52  1  0  0  0  0
 50 54  1  0  0  0  0
 51 46  2  0  0  0  0
 52 44  1  6  0  0  0
 52 47  1  0  0  0  0
 53 48  1  0  0  0  0
 54 51  1  0  0  0  0
M  END
>  <MODEL>
9

>  <REMARK>
 VINA RESULT:      -8.5      3.100      5.182
  Name = 
  10 active torsions:
  status: ('A' for Active; 'I' for Inactive)
    1  A    between atoms: C_9  and  C_18
    2  A    between atoms: C_11  and  C_34
    3  A    between atoms: C_21  and  C_37
    4  A    between atoms: C_24  and  N_44
    5  A    between atoms: C_28  and  O_51
    6  A    between atoms: O_31  and  C_33
    7  A    between atoms: O_31  and  C_43
    8  A    between atoms: C_34  and  C_47
    9  A    between atoms: C_36  and  C_43
   10  A    between atoms: N_42  and  O_51
                            x       y       z     vdW  Elec       q    Type
                         _______ _______ _______ _____ _____    ______ ____

>  <TORSDO>
F 10

$$$$
