=
 OpenBabel11062421123D

 33 37  0  0  1  0  0  0  0  0999 V2000
  187.8350  174.1710  140.9390 O   0  0  0  0  0  0  0  0  0  0  0  0
  189.7520  177.9070  147.4490 O   0  0  0  0  0  0  0  0  0  0  0  0
  192.7060  174.0780  142.2700 O   0  0  0  0  0  0  0  0  0  0  0  0
  193.9910  172.4260  144.1980 O   0  0  0  0  0  0  0  0  0  0  0  0
  191.3750  175.8300  143.3050 C   0  0  2  0  0  3  0  0  0  0  0  0
  189.1490  174.5260  143.0820 C   0  0  1  0  0  3  0  0  0  0  0  0
  190.4740  177.1270  146.8500 C   0  0  0  0  0  0  0  0  0  0  0  0
  192.3820  175.4650  145.5000 C   0  0  1  0  0  3  0  0  0  0  0  0
  188.5370  176.5770  144.4040 C   0  0  1  0  0  3  0  0  0  0  0  0
  188.5410  173.6460  142.0240 C   0  0  0  0  0  0  0  0  0  0  0  0
  190.1150  175.5310  142.4580 C   0  0  1  0  0  3  0  0  0  0  0  0
  192.3490  174.7000  143.3050 C   0  0  0  0  0  0  0  0  0  0  0  0
  187.8550  175.5580  140.6310 C   0  0  0  0  0  2  0  0  0  0  0  0
  191.8810  174.9450  146.8370 C   0  0  0  0  0  2  0  0  0  0  0  0
  192.8990  174.4460  144.6000 N   0  0  0  0  0  0  0  0  0  0  0  0
  188.6380  172.3980  142.1470 O   0  0  0  0  0  0  0  0  0  0  0  0
  188.7400  176.0030  142.9850 C   0  0  1  0  0  0  0  0  0  0  0  0
  190.6530  177.2750  145.3490 C   0  0  1  0  0  3  0  0  0  0  0  0
  191.1490  175.9550  144.7950 C   0  0  1  0  0  3  0  0  0  0  0  0
  191.2720  176.1050  147.6580 C   0  0  0  0  0  2  0  0  0  0  0  0
  193.9250  173.4780  144.8880 C   0  0  0  0  0  0  0  0  0  0  0  0
  189.4220  177.7190  144.6780 N   0  0  0  0  0  2  0  0  0  0  0  0
  187.7020  176.3740  141.9060 C   0  0  0  0  0  2  0  0  0  0  0  0
  194.8550  173.6570  145.9180 O   0  0  0  0  0  0  0  0  0  0  0  0
  197.2400  173.4930  146.0650 C   0  0  0  0  0  1  0  0  0  0  0  0
  196.0610  174.3920  145.7620 C   0  0  0  0  0  2  0  0  0  0  0  0
  187.1290  176.8660  144.7120 N   0  0  0  0  0  0  0  0  0  0  0  0
  186.9450  178.2570  144.7960 N   0  0  0  0  0  2  0  0  0  0  0  0
  185.9230  178.6130  143.8250 C   0  0  0  0  0  2  0  0  0  0  0  0
  185.3570  179.9760  144.1650 C   0  0  0  0  0  1  0  0  0  0  0  0
  186.8430  176.3120  146.0290 C   0  0  0  0  0  2  0  0  0  0  0  0
  184.9560  177.3050  147.0680 F   0  0  0  0  0  0  0  0  0  0  0  0
  186.3300  177.4020  146.9510 C   0  0  0  0  0  2  0  0  0  0  0  0
  1 10  1  0  0  0  0
  3 12  2  0  0  0  0
  4 21  2  0  0  0  0
  5 12  1  1  0  0  0
  5 19  1  0  0  0  0
  6 10  1  6  0  0  0
  7  2  2  0  0  0  0
  7 20  1  0  0  0  0
  8 14  1  1  0  0  0
  9 22  1  0  0  0  0
  9 27  1  6  0  0  0
 10 16  2  0  0  0  0
 11 17  1  0  0  0  0
 11  6  1  0  0  0  0
 11  5  1  0  0  0  0
 12 15  1  0  0  0  0
 13  1  1  0  0  0  0
 13 23  1  0  0  0  0
 14 20  1  0  0  0  0
 15 21  1  0  0  0  0
 15  8  1  0  0  0  0
 17  6  1  0  0  0  0
 17  9  1  0  0  0  0
 18  7  1  0  0  0  0
 19 18  1  0  0  0  0
 19  8  1  0  0  0  0
 21 24  1  0  0  0  0
 22 18  1  0  0  0  0
 23 17  1  0  0  0  0
 26 24  1  0  0  0  0
 26 25  1  0  0  0  0
 27 28  1  0  0  0  0
 27 31  1  0  0  0  0
 29 30  1  0  0  0  0
 29 28  1  0  0  0  0
 31 33  1  0  0  0  0
 33 32  1  0  0  0  0
M  END
>  <MODEL>
1

>  <REMARK>
 VINA RESULT:      -6.8      0.000      0.000
  Name = 
  7 active torsions:
  status: ('A' for Active; 'I' for Inactive)
    1  A    between atoms: N_1  and  C_8
    2  A    between atoms: N_1  and  N_29
    3  A    between atoms: C_11  and  C_12
    4  A    between atoms: C_11  and  N_29
    5  A    between atoms: C_15  and  N_29
    6  A    between atoms: O_24  and  C_30
    7  A    between atoms: O_24  and  C_31
                            x       y       z     vdW  Elec       q    Type
                         _______ _______ _______ _____ _____    ______ ____

>  <TORSDO>
F 7

$$$$
=
 OpenBabel11062421123D

 33 37  0  0  1  0  0  0  0  0999 V2000
  190.7690  175.1960  148.2630 O   0  0  0  0  0  0  0  0  0  0  0  0
  191.0420  173.4120  140.7290 O   0  0  0  0  0  0  0  0  0  0  0  0
  187.8750  177.9400  145.1650 O   0  0  0  0  0  0  0  0  0  0  0  0
  185.3390  177.2830  144.0530 O   0  0  0  0  0  0  0  0  0  0  0  0
  189.6870  176.7230  144.0940 C   0  0  2  0  0  3  0  0  0  0  0  0
  189.8000  174.9050  145.9350 C   0  0  1  0  0  3  0  0  0  0  0  0
  190.2090  174.1360  141.2480 C   0  0  0  0  0  0  0  0  0  0  0  0
  188.2690  176.0000  142.2410 C   0  0  1  0  0  3  0  0  0  0  0  0
  191.4160  174.1100  144.1770 C   0  0  1  0  0  3  0  0  0  0  0  0
  189.6810  174.9100  147.4340 C   0  0  0  0  0  0  0  0  0  0  0  0
  190.3120  176.2520  145.4290 C   0  0  1  0  0  3  0  0  0  0  0  0
  188.2730  177.1730  144.2480 C   0  0  0  0  0  0  0  0  0  0  0  0
  191.9800  175.7350  147.7520 C   0  0  0  0  0  2  0  0  0  0  0  0
  187.7210  174.6640  141.7680 C   0  0  0  0  0  2  0  0  0  0  0  0
  187.4270  176.7060  143.1950 N   0  0  0  0  0  0  0  0  0  0  0  0
  188.5760  174.6060  147.9540 O   0  0  0  0  0  0  0  0  0  0  0  0
  191.2410  175.0160  145.4160 C   0  0  1  0  0  0  0  0  0  0  0  0
  190.6600  175.2480  142.1800 C   0  0  1  0  0  3  0  0  0  0  0  0
  189.4870  175.6480  143.0490 C   0  0  1  0  0  3  0  0  0  0  0  0
  188.7470  173.9740  140.8390 C   0  0  0  0  0  2  0  0  0  0  0  0
  186.0400  177.0520  143.0330 C   0  0  0  0  0  0  0  0  0  0  0  0
  191.8290  174.8650  142.9860 N   0  0  0  0  0  2  0  0  0  0  0  0
  192.3680  175.0150  146.4690 C   0  0  0  0  0  2  0  0  0  0  0  0
  185.4310  177.1350  141.7760 O   0  0  0  0  0  0  0  0  0  0  0  0
  186.4290  177.4930  139.6280 C   0  0  0  0  0  1  0  0  0  0  0  0
  185.7500  178.1350  140.8180 C   0  0  0  0  0  2  0  0  0  0  0  0
  192.2730  172.9430  144.4340 N   0  0  0  0  0  0  0  0  0  0  0  0
  193.4670  173.0720  143.7040 N   0  0  0  0  0  2  0  0  0  0  0  0
  194.3770  172.0450  144.1850 C   0  0  0  0  0  2  0  0  0  0  0  0
  194.9860  172.4860  145.4990 C   0  0  0  0  0  1  0  0  0  0  0  0
  191.5800  171.7670  143.9260 C   0  0  0  0  0  2  0  0  0  0  0  0
  189.3730  171.5350  143.0840 F   0  0  0  0  0  0  0  0  0  0  0  0
  190.0940  171.8770  144.2140 C   0  0  0  0  0  2  0  0  0  0  0  0
  2  7  2  0  0  0  0
  5 12  1  1  0  0  0
  5 11  1  0  0  0  0
  6 10  1  1  0  0  0
  7 18  1  0  0  0  0
  8 14  1  1  0  0  0
  8 19  1  0  0  0  0
  8 15  1  0  0  0  0
  9 27  1  1  0  0  0
  9 17  1  0  0  0  0
 10 16  2  0  0  0  0
 10  1  1  0  0  0  0
 11  6  1  0  0  0  0
 12  3  2  0  0  0  0
 13  1  1  0  0  0  0
 15 12  1  0  0  0  0
 17 11  1  0  0  0  0
 17  6  1  0  0  0  0
 17 23  1  0  0  0  0
 18 22  1  0  0  0  0
 18 19  1  0  0  0  0
 19  5  1  0  0  0  0
 20  7  1  0  0  0  0
 20 14  1  0  0  0  0
 21 15  1  0  0  0  0
 21  4  2  0  0  0  0
 22  9  1  0  0  0  0
 23 13  1  0  0  0  0
 24 21  1  0  0  0  0
 25 26  1  0  0  0  0
 26 24  1  0  0  0  0
 28 29  1  0  0  0  0
 28 27  1  0  0  0  0
 29 30  1  0  0  0  0
 31 33  1  0  0  0  0
 31 27  1  0  0  0  0
 32 33  1  0  0  0  0
M  END
>  <MODEL>
2

>  <REMARK>
 VINA RESULT:      -6.8      2.636      7.460
  Name = 
  7 active torsions:
  status: ('A' for Active; 'I' for Inactive)
    1  A    between atoms: N_1  and  C_8
    2  A    between atoms: N_1  and  N_29
    3  A    between atoms: C_11  and  C_12
    4  A    between atoms: C_11  and  N_29
    5  A    between atoms: C_15  and  N_29
    6  A    between atoms: O_24  and  C_30
    7  A    between atoms: O_24  and  C_31
                            x       y       z     vdW  Elec       q    Type
                         _______ _______ _______ _____ _____    ______ ____

>  <TORSDO>
F 7

$$$$
=
 OpenBabel11062421123D

 33 37  0  0  1  0  0  0  0  0999 V2000
  185.7320  178.0530  148.3160 O   0  0  0  0  0  0  0  0  0  0  0  0
  188.3770  176.4750  141.2080 O   0  0  0  0  0  0  0  0  0  0  0  0
  190.1780  175.6770  148.0140 O   0  0  0  0  0  0  0  0  0  0  0  0
  192.7490  176.7750  147.4820 O   0  0  0  0  0  0  0  0  0  0  0  0
  188.7980  175.5650  146.0160 C   0  0  2  0  0  3  0  0  0  0  0  0
  187.5280  177.7580  146.5470 C   0  0  1  0  0  3  0  0  0  0  0  0
  189.0340  176.4000  142.2330 C   0  0  0  0  0  0  0  0  0  0  0  0
  190.6940  175.9920  144.5360 C   0  0  1  0  0  3  0  0  0  0  0  0
  186.7040  177.1010  144.2610 C   0  0  1  0  0  3  0  0  0  0  0  0
  186.9860  178.3890  147.7990 C   0  0  0  0  0  0  0  0  0  0  0  0
  187.5750  176.2380  146.6840 C   0  0  1  0  0  3  0  0  0  0  0  0
  190.0650  175.8010  146.7660 C   0  0  0  0  0  0  0  0  0  0  0  0
  185.0000  176.9310  147.8410 C   0  0  0  0  0  2  0  0  0  0  0  0
  191.1030  177.1330  143.6190 C   0  0  0  0  0  2  0  0  0  0  0  0
  191.1660  176.1060  145.9070 N   0  0  0  0  0  0  0  0  0  0  0  0
  187.6680  179.2770  148.3740 O   0  0  0  0  0  0  0  0  0  0  0  0
  186.5090  176.9010  145.7810 C   0  0  1  0  0  0  0  0  0  0  0  0
  188.4660  175.6630  143.4340 C   0  0  1  0  0  3  0  0  0  0  0  0
  189.2030  176.1280  144.6720 C   0  0  1  0  0  3  0  0  0  0  0  0
  190.4610  176.9440  142.2250 C   0  0  0  0  0  2  0  0  0  0  0  0
  192.5260  176.2940  146.3400 C   0  0  0  0  0  0  0  0  0  0  0  0
  187.0120  175.8430  143.5670 N   0  0  0  0  0  2  0  0  0  0  0  0
  185.0650  176.8770  146.3210 C   0  0  0  0  0  2  0  0  0  0  0  0
  193.6210  175.9690  145.5310 O   0  0  0  0  0  0  0  0  0  0  0  0
  195.4990  176.3200  144.0870 C   0  0  0  0  0  1  0  0  0  0  0  0
  194.6500  176.8910  145.2020 C   0  0  0  0  0  2  0  0  0  0  0  0
  185.5990  177.8400  143.6330 N   0  0  0  0  0  0  0  0  0  0  0  0
  185.2780  177.2420  142.4020 N   0  0  0  0  0  2  0  0  0  0  0  0
  185.2940  178.2920  141.3980 C   0  0  0  0  0  2  0  0  0  0  0  0
  184.0140  178.2400  140.5920 C   0  0  0  0  0  1  0  0  0  0  0  0
  186.0770  179.1870  143.3480 C   0  0  0  0  0  2  0  0  0  0  0  0
  184.2680  179.6930  144.7980 F   0  0  0  0  0  0  0  0  0  0  0  0
  185.4840  180.1680  144.3410 C   0  0  0  0  0  2  0  0  0  0  0  0
  2  7  2  0  0  0  0
  5 11  1  0  0  0  0
  5 12  1  1  0  0  0
  6 11  1  0  0  0  0
  6 10  1  1  0  0  0
  7 18  1  0  0  0  0
  8 14  1  6  0  0  0
  8 19  1  0  0  0  0
  8 15  1  0  0  0  0
  9 27  1  6  0  0  0
  9 17  1  0  0  0  0
 10  1  1  0  0  0  0
 10 16  2  0  0  0  0
 12  3  2  0  0  0  0
 13  1  1  0  0  0  0
 15 21  1  0  0  0  0
 15 12  1  0  0  0  0
 17 23  1  0  0  0  0
 17  6  1  0  0  0  0
 17 11  1  0  0  0  0
 18 22  1  0  0  0  0
 18 19  1  0  0  0  0
 19  5  1  0  0  0  0
 20  7  1  0  0  0  0
 20 14  1  0  0  0  0
 21  4  2  0  0  0  0
 22  9  1  0  0  0  0
 23 13  1  0  0  0  0
 24 21  1  0  0  0  0
 25 26  1  0  0  0  0
 26 24  1  0  0  0  0
 28 27  1  0  0  0  0
 29 28  1  0  0  0  0
 30 29  1  0  0  0  0
 31 27  1  0  0  0  0
 31 33  1  0  0  0  0
 33 32  1  0  0  0  0
M  END
>  <MODEL>
3

>  <REMARK>
 VINA RESULT:      -6.7      2.262      4.781
  Name = 
  7 active torsions:
  status: ('A' for Active; 'I' for Inactive)
    1  A    between atoms: N_1  and  C_8
    2  A    between atoms: N_1  and  N_29
    3  A    between atoms: C_11  and  C_12
    4  A    between atoms: C_11  and  N_29
    5  A    between atoms: C_15  and  N_29
    6  A    between atoms: O_24  and  C_30
    7  A    between atoms: O_24  and  C_31
                            x       y       z     vdW  Elec       q    Type
                         _______ _______ _______ _____ _____    ______ ____

>  <TORSDO>
F 7

$$$$
=
 OpenBabel11062421123D

 33 37  0  0  1  0  0  0  0  0999 V2000
  188.1570  174.6900  141.1650 O   0  0  0  0  0  0  0  0  0  0  0  0
  190.7340  177.4550  147.9280 O   0  0  0  0  0  0  0  0  0  0  0  0
  193.1410  175.3910  141.5910 O   0  0  0  0  0  0  0  0  0  0  0  0
  195.0700  173.7190  142.8470 O   0  0  0  0  0  0  0  0  0  0  0  0
  191.7770  176.5910  143.2070 C   0  0  2  0  0  3  0  0  0  0  0  0
  189.8140  174.9080  143.0760 C   0  0  1  0  0  3  0  0  0  0  0  0
  191.4370  176.9740  147.0530 C   0  0  0  0  0  0  0  0  0  0  0  0
  193.2730  176.0430  145.0580 C   0  0  1  0  0  3  0  0  0  0  0  0
  189.1500  176.4940  144.9130 C   0  0  1  0  0  3  0  0  0  0  0  0
  189.1570  174.1330  141.9670 C   0  0  0  0  0  0  0  0  0  0  0  0
  190.4370  176.1950  142.5410 C   0  0  1  0  0  3  0  0  0  0  0  0
  192.9090  175.7150  142.7850 C   0  0  0  0  0  0  0  0  0  0  0  0
  187.8710  176.0820  141.1800 C   0  0  0  0  0  2  0  0  0  0  0  0
  193.1640  175.1860  146.3080 C   0  0  0  0  0  2  0  0  0  0  0  0
  193.7560  175.3460  143.8760 N   0  0  0  0  0  0  0  0  0  0  0  0
  189.4920  172.9340  141.7850 O   0  0  0  0  0  0  0  0  0  0  0  0
  189.1440  176.2540  143.3870 C   0  0  1  0  0  0  0  0  0  0  0  0
  191.2660  177.4370  145.6160 C   0  0  1  0  0  3  0  0  0  0  0  0
  191.8530  176.3820  144.7030 C   0  0  1  0  0  3  0  0  0  0  0  0
  192.5510  176.0130  147.4610 C   0  0  0  0  0  2  0  0  0  0  0  0
  194.9710  174.5830  143.7580 C   0  0  0  0  0  0  0  0  0  0  0  0
  189.8620  177.7260  145.2830 N   0  0  0  0  0  2  0  0  0  0  0  0
  187.8530  176.5910  142.6140 C   0  0  0  0  0  2  0  0  0  0  0  0
  196.0530  174.7590  144.6280 O   0  0  0  0  0  0  0  0  0  0  0  0
  196.8180  172.9890  146.0480 C   0  0  0  0  0  1  0  0  0  0  0  0
  197.0840  173.7960  144.7960 C   0  0  0  0  0  2  0  0  0  0  0  0
  187.8110  176.4120  145.5140 N   0  0  0  0  0  0  0  0  0  0  0  0
  187.3240  177.7100  145.7490 N   0  0  0  0  0  2  0  0  0  0  0  0
  186.6070  177.6760  147.0130 C   0  0  0  0  0  2  0  0  0  0  0  0
  185.4110  178.6000  146.9390 C   0  0  0  0  0  1  0  0  0  0  0  0
  187.9480  175.7600  146.8090 C   0  0  0  0  0  2  0  0  0  0  0  0
  189.4980  174.4000  147.9840 F   0  0  0  0  0  0  0  0  0  0  0  0
  188.9840  174.6540  146.7260 C   0  0  0  0  0  2  0  0  0  0  0  0
  1 13  1  0  0  0  0
  1 10  1  0  0  0  0
  3 12  2  0  0  0  0
  4 21  2  0  0  0  0
  5 12  1  6  0  0  0
  5 19  1  0  0  0  0
  6 10  1  6  0  0  0
  6 17  1  0  0  0  0
  7 20  1  0  0  0  0
  7  2  2  0  0  0  0
  8 14  1  1  0  0  0
  9 22  1  0  0  0  0
  9 27  1  6  0  0  0
 11  6  1  0  0  0  0
 11  5  1  0  0  0  0
 11 17  1  0  0  0  0
 12 15  1  0  0  0  0
 13 23  1  0  0  0  0
 14 20  1  0  0  0  0
 15  8  1  0  0  0  0
 16 10  2  0  0  0  0
 17  9  1  0  0  0  0
 18  7  1  0  0  0  0
 19  8  1  0  0  0  0
 19 18  1  0  0  0  0
 21 15  1  0  0  0  0
 21 24  1  0  0  0  0
 22 18  1  0  0  0  0
 23 17  1  0  0  0  0
 24 26  1  0  0  0  0
 26 25  1  0  0  0  0
 27 28  1  0  0  0  0
 27 31  1  0  0  0  0
 28 29  1  0  0  0  0
 30 29  1  0  0  0  0
 33 31  1  0  0  0  0
 33 32  1  0  0  0  0
M  END
>  <MODEL>
4

>  <REMARK>
 VINA RESULT:      -6.5      1.651      1.802
  Name = 
  7 active torsions:
  status: ('A' for Active; 'I' for Inactive)
    1  A    between atoms: N_1  and  C_8
    2  A    between atoms: N_1  and  N_29
    3  A    between atoms: C_11  and  C_12
    4  A    between atoms: C_11  and  N_29
    5  A    between atoms: C_15  and  N_29
    6  A    between atoms: O_24  and  C_30
    7  A    between atoms: O_24  and  C_31
                            x       y       z     vdW  Elec       q    Type
                         _______ _______ _______ _____ _____    ______ ____

>  <TORSDO>
F 7

$$$$
=
 OpenBabel11062421123D

 33 37  0  0  1  0  0  0  0  0999 V2000
  191.0380  170.9370  140.9250 O   0  0  0  0  0  0  0  0  0  0  0  0
  192.9460  176.9250  145.4550 O   0  0  0  0  0  0  0  0  0  0  0  0
  187.4060  174.3090  141.8960 O   0  0  0  0  0  0  0  0  0  0  0  0
  186.9630  176.8450  140.6830 O   0  0  0  0  0  0  0  0  0  0  0  0
  189.2950  174.3420  143.4260 C   0  0  2  0  0  3  0  0  0  0  0  0
  190.9500  173.3550  141.6950 C   0  0  1  0  0  3  0  0  0  0  0  0
  191.9270  176.8470  144.7890 C   0  0  0  0  0  0  0  0  0  0  0  0
  189.3990  176.7820  143.4370 C   0  0  1  0  0  3  0  0  0  0  0  0
  192.3900  173.9150  143.6820 C   0  0  1  0  0  3  0  0  0  0  0  0
  190.8610  172.2930  140.6340 C   0  0  0  0  0  0  0  0  0  0  0  0
  189.9540  173.0790  142.8200 C   0  0  1  0  0  3  0  0  0  0  0  0
  188.2900  174.9600  142.5130 C   0  0  0  0  0  0  0  0  0  0  0  0
  191.0690  170.4540  142.2600 C   0  0  0  0  0  2  0  0  0  0  0  0
  190.3920  177.8160  142.9330 C   0  0  0  0  0  2  0  0  0  0  0  0
  188.3840  176.3850  142.4730 N   0  0  0  0  0  0  0  0  0  0  0  0
  190.6610  172.6430  139.4420 O   0  0  0  0  0  0  0  0  0  0  0  0
  191.4660  172.8500  143.0510 C   0  0  1  0  0  0  0  0  0  0  0  0
  191.0860  175.5840  144.8530 C   0  0  1  0  0  3  0  0  0  0  0  0
  190.2110  175.5300  143.6190 C   0  0  1  0  0  3  0  0  0  0  0  0
  191.4700  178.0790  144.0090 C   0  0  0  0  0  2  0  0  0  0  0  0
  187.4910  177.2530  141.7510 C   0  0  0  0  0  0  0  0  0  0  0  0
  191.9050  174.3700  144.9920 N   0  0  0  0  0  2  0  0  0  0  0  0
  191.9150  171.3760  143.1260 C   0  0  0  0  0  2  0  0  0  0  0  0
  187.1890  178.5480  142.1890 O   0  0  0  0  0  0  0  0  0  0  0  0
  186.3250  178.7070  144.4170 C   0  0  0  0  0  1  0  0  0  0  0  0
  186.0280  178.8670  142.9420 C   0  0  0  0  0  2  0  0  0  0  0  0
  193.8020  173.5070  143.7100 N   0  0  0  0  0  0  0  0  0  0  0  0
  194.4170  174.0330  144.8590 N   0  0  0  0  0  2  0  0  0  0  0  0
  195.2770  172.9930  145.3990 C   0  0  0  0  0  2  0  0  0  0  0  0
  196.5760  173.6090  145.8740 C   0  0  0  0  0  1  0  0  0  0  0  0
  194.4570  174.1080  142.5550 C   0  0  0  0  0  2  0  0  0  0  0  0
  193.8070  176.3390  142.0760 F   0  0  0  0  0  0  0  0  0  0  0  0
  194.7040  175.5840  142.8090 C   0  0  0  0  0  2  0  0  0  0  0  0
  1 13  1  0  0  0  0
  3 12  2  0  0  0  0
  4 21  2  0  0  0  0
  5 12  1  6  0  0  0
  5 19  1  0  0  0  0
  6 10  1  6  0  0  0
  6 11  1  0  0  0  0
  6 17  1  0  0  0  0
  7 18  1  0  0  0  0
  7  2  2  0  0  0  0
  8 14  1  6  0  0  0
  8 19  1  0  0  0  0
  9 27  1  1  0  0  0
  9 22  1  0  0  0  0
 10  1  1  0  0  0  0
 11 17  1  0  0  0  0
 11  5  1  0  0  0  0
 13 23  1  0  0  0  0
 14 20  1  0  0  0  0
 15 12  1  0  0  0  0
 15  8  1  0  0  0  0
 16 10  2  0  0  0  0
 17 23  1  0  0  0  0
 17  9  1  0  0  0  0
 18 22  1  0  0  0  0
 19 18  1  0  0  0  0
 20  7  1  0  0  0  0
 21 24  1  0  0  0  0
 21 15  1  0  0  0  0
 24 26  1  0  0  0  0
 26 25  1  0  0  0  0
 27 28  1  0  0  0  0
 28 29  1  0  0  0  0
 29 30  1  0  0  0  0
 31 33  1  0  0  0  0
 31 27  1  0  0  0  0
 32 33  1  0  0  0  0
M  END
>  <MODEL>
5

>  <REMARK>
 VINA RESULT:      -6.4      2.830      6.903
  Name = 
  7 active torsions:
  status: ('A' for Active; 'I' for Inactive)
    1  A    between atoms: N_1  and  C_8
    2  A    between atoms: N_1  and  N_29
    3  A    between atoms: C_11  and  C_12
    4  A    between atoms: C_11  and  N_29
    5  A    between atoms: C_15  and  N_29
    6  A    between atoms: O_24  and  C_30
    7  A    between atoms: O_24  and  C_31
                            x       y       z     vdW  Elec       q    Type
                         _______ _______ _______ _____ _____    ______ ____

>  <TORSDO>
F 7

$$$$
=
 OpenBabel11062421123D

 33 37  0  0  1  0  0  0  0  0999 V2000
  191.1050  175.2250  146.9360 O   0  0  0  0  0  0  0  0  0  0  0  0
  187.8070  175.1020  139.9260 O   0  0  0  0  0  0  0  0  0  0  0  0
  191.5650  170.9570  144.2750 O   0  0  0  0  0  0  0  0  0  0  0  0
  193.3830  170.3630  142.1670 O   0  0  0  0  0  0  0  0  0  0  0  0
  189.7840  172.4480  143.5550 C   0  0  2  0  0  3  0  0  0  0  0  0
  190.9340  174.5720  144.4880 C   0  0  1  0  0  3  0  0  0  0  0  0
  188.6020  174.2740  140.3420 C   0  0  0  0  0  0  0  0  0  0  0  0
  190.3140  172.1370  141.1910 C   0  0  1  0  0  3  0  0  0  0  0  0
  188.9130  175.4450  143.2690 C   0  0  1  0  0  3  0  0  0  0  0  0
  191.7230  174.8890  145.7290 C   0  0  0  0  0  0  0  0  0  0  0  0
  189.9630  173.4210  144.7450 C   0  0  1  0  0  3  0  0  0  0  0  0
  190.9720  171.5700  143.3470 C   0  0  0  0  0  0  0  0  0  0  0  0
  189.7090  175.0530  147.1370 C   0  0  0  0  0  2  0  0  0  0  0  0
  190.8640  173.0270  140.0890 C   0  0  0  0  0  2  0  0  0  0  0  0
  191.3200  171.4290  141.9680 N   0  0  0  0  0  0  0  0  0  0  0  0
  192.9800  174.8890  145.6630 O   0  0  0  0  0  0  0  0  0  0  0  0
  189.4320  174.8670  144.6050 C   0  0  1  0  0  0  0  0  0  0  0  0
  188.3950  173.6620  141.7170 C   0  0  1  0  0  3  0  0  0  0  0  0
  189.7150  173.0900  142.1870 C   0  0  1  0  0  3  0  0  0  0  0  0
  189.7080  173.7930  139.4060 C   0  0  0  0  0  2  0  0  0  0  0  0
  192.3630  170.5770  141.4610 C   0  0  0  0  0  0  0  0  0  0  0  0
  187.8430  174.6250  142.6830 N   0  0  0  0  0  2  0  0  0  0  0  0
  188.9460  175.5300  145.9100 C   0  0  0  0  0  2  0  0  0  0  0  0
  192.2910  169.9780  140.1980 O   0  0  0  0  0  0  0  0  0  0  0  0
  190.4940  169.3130  138.7600 C   0  0  0  0  0  1  0  0  0  0  0  0
  191.4120  168.9050  139.8920 C   0  0  0  0  0  2  0  0  0  0  0  0
  188.5510  176.8670  143.3600 N   0  0  0  0  0  0  0  0  0  0  0  0
  187.2630  177.0560  142.8310 N   0  0  0  0  0  2  0  0  0  0  0  0
  186.7690  178.3210  143.3480 C   0  0  0  0  0  2  0  0  0  0  0  0
  186.6790  178.2490  144.8570 C   0  0  0  0  0  1  0  0  0  0  0  0
  189.4790  177.6110  142.5180 C   0  0  0  0  0  2  0  0  0  0  0  0
  190.2780  178.3140  144.6390 F   0  0  0  0  0  0  0  0  0  0  0  0
  190.6730  178.0650  143.3370 C   0  0  0  0  0  2  0  0  0  0  0  0
  1 13  1  0  0  0  0
  2  7  2  0  0  0  0
  5 12  1  6  0  0  0
  5 11  1  0  0  0  0
  6 17  1  0  0  0  0
  6 11  1  0  0  0  0
  6 10  1  1  0  0  0
  7 18  1  0  0  0  0
  8 14  1  6  0  0  0
  8 15  1  0  0  0  0
  8 19  1  0  0  0  0
  9 27  1  1  0  0  0
  9 17  1  0  0  0  0
 10  1  1  0  0  0  0
 12  3  2  0  0  0  0
 15 12  1  0  0  0  0
 16 10  2  0  0  0  0
 17 11  1  0  0  0  0
 17 23  1  0  0  0  0
 18 19  1  0  0  0  0
 18 22  1  0  0  0  0
 19  5  1  0  0  0  0
 20 14  1  0  0  0  0
 20  7  1  0  0  0  0
 21 15  1  0  0  0  0
 21  4  2  0  0  0  0
 22  9  1  0  0  0  0
 23 13  1  0  0  0  0
 24 21  1  0  0  0  0
 25 26  1  0  0  0  0
 26 24  1  0  0  0  0
 28 29  1  0  0  0  0
 28 27  1  0  0  0  0
 29 30  1  0  0  0  0
 31 33  1  0  0  0  0
 31 27  1  0  0  0  0
 33 32  1  0  0  0  0
M  END
>  <MODEL>
6

>  <REMARK>
 VINA RESULT:      -6.4      2.947      5.487
  Name = 
  7 active torsions:
  status: ('A' for Active; 'I' for Inactive)
    1  A    between atoms: N_1  and  C_8
    2  A    between atoms: N_1  and  N_29
    3  A    between atoms: C_11  and  C_12
    4  A    between atoms: C_11  and  N_29
    5  A    between atoms: C_15  and  N_29
    6  A    between atoms: O_24  and  C_30
    7  A    between atoms: O_24  and  C_31
                            x       y       z     vdW  Elec       q    Type
                         _______ _______ _______ _____ _____    ______ ____

>  <TORSDO>
F 7

$$$$
=
 OpenBabel11062421123D

 33 37  0  0  1  0  0  0  0  0999 V2000
  193.8780  176.7560  146.8880 O   0  0  0  0  0  0  0  0  0  0  0  0
  191.4250  172.7440  140.7310 O   0  0  0  0  0  0  0  0  0  0  0  0
  189.5350  178.2420  144.7820 O   0  0  0  0  0  0  0  0  0  0  0  0
  186.9330  177.1340  145.1030 O   0  0  0  0  0  0  0  0  0  0  0  0
  190.9540  176.8540  143.3770 C   0  0  2  0  0  3  0  0  0  0  0  0
  192.1270  175.7050  145.3790 C   0  0  1  0  0  3  0  0  0  0  0  0
  190.7530  173.5470  141.3580 C   0  0  0  0  0  0  0  0  0  0  0  0
  189.0700  175.5160  142.5860 C   0  0  1  0  0  3  0  0  0  0  0  0
  193.0170  174.4960  143.3600 C   0  0  1  0  0  3  0  0  0  0  0  0
  192.6220  176.1670  146.7220 C   0  0  0  0  0  0  0  0  0  0  0  0
  192.1370  176.8560  144.3750 C   0  0  1  0  0  3  0  0  0  0  0  0
  189.6650  177.2520  144.0140 C   0  0  0  0  0  0  0  0  0  0  0  0
  194.6620  177.1760  145.7790 C   0  0  0  0  0  2  0  0  0  0  0  0
  188.6330  174.0710  142.7600 C   0  0  0  0  0  2  0  0  0  0  0  0
  188.5680  176.4350  143.5970 N   0  0  0  0  0  0  0  0  0  0  0  0
  191.8950  175.9800  147.7320 O   0  0  0  0  0  0  0  0  0  0  0  0
  193.1920  175.7300  144.2730 C   0  0  1  0  0  0  0  0  0  0  0  0
  191.3280  174.9160  141.6790 C   0  0  1  0  0  3  0  0  0  0  0  0
  190.5510  175.4990  142.8390 C   0  0  1  0  0  3  0  0  0  0  0  0
  189.3060  173.1850  141.6870 C   0  0  0  0  0  2  0  0  0  0  0  0
  187.1950  176.6380  143.9760 C   0  0  0  0  0  0  0  0  0  0  0  0
  192.7720  174.8660  141.9600 N   0  0  0  0  0  2  0  0  0  0  0  0
  194.6260  176.1170  144.6880 C   0  0  0  0  0  2  0  0  0  0  0  0
  186.1290  176.2930  143.1370 O   0  0  0  0  0  0  0  0  0  0  0  0
  184.4420  177.9470  142.7390 C   0  0  0  0  0  1  0  0  0  0  0  0
  185.5970  177.1670  142.1510 C   0  0  0  0  0  2  0  0  0  0  0  0
  194.1030  173.5150  143.5050 N   0  0  0  0  0  0  0  0  0  0  0  0
  194.7190  173.3130  142.2570 N   0  0  0  0  0  2  0  0  0  0  0  0
  196.1490  173.4780  142.4540 C   0  0  0  0  0  2  0  0  0  0  0  0
  196.6090  174.7500  141.7730 C   0  0  0  0  0  1  0  0  0  0  0  0
  193.5020  172.2480  143.9010 C   0  0  0  0  0  2  0  0  0  0  0  0
  193.8350  172.9670  146.1380 F   0  0  0  0  0  0  0  0  0  0  0  0
  193.9570  171.8740  145.3000 C   0  0  0  0  0  2  0  0  0  0  0  0
  2  7  2  0  0  0  0
  5 12  1  1  0  0  0
  5 11  1  0  0  0  0
  6 10  1  1  0  0  0
  7 18  1  0  0  0  0
  7 20  1  0  0  0  0
  8 14  1  1  0  0  0
  8 19  1  0  0  0  0
  8 15  1  0  0  0  0
  9 27  1  6  0  0  0
  9 17  1  0  0  0  0
 10  1  1  0  0  0  0
 10 16  2  0  0  0  0
 11  6  1  0  0  0  0
 12  3  2  0  0  0  0
 13  1  1  0  0  0  0
 15 21  1  0  0  0  0
 15 12  1  0  0  0  0
 17 11  1  0  0  0  0
 17 23  1  0  0  0  0
 17  6  1  0  0  0  0
 18 22  1  0  0  0  0
 18 19  1  0  0  0  0
 19  5  1  0  0  0  0
 20 14  1  0  0  0  0
 21  4  2  0  0  0  0
 22  9  1  0  0  0  0
 23 13  1  0  0  0  0
 24 21  1  0  0  0  0
 26 25  1  0  0  0  0
 26 24  1  0  0  0  0
 27 31  1  0  0  0  0
 28 29  1  0  0  0  0
 28 27  1  0  0  0  0
 30 29  1  0  0  0  0
 31 33  1  0  0  0  0
 33 32  1  0  0  0  0
M  END
>  <MODEL>
7

>  <REMARK>
 VINA RESULT:      -6.3      2.806      7.713
  Name = 
  7 active torsions:
  status: ('A' for Active; 'I' for Inactive)
    1  A    between atoms: N_1  and  C_8
    2  A    between atoms: N_1  and  N_29
    3  A    between atoms: C_11  and  C_12
    4  A    between atoms: C_11  and  N_29
    5  A    between atoms: C_15  and  N_29
    6  A    between atoms: O_24  and  C_30
    7  A    between atoms: O_24  and  C_31
                            x       y       z     vdW  Elec       q    Type
                         _______ _______ _______ _____ _____    ______ ____

>  <TORSDO>
F 7

$$$$
=
 OpenBabel11062421123D

 33 37  0  0  1  0  0  0  0  0999 V2000
  196.2540  176.9970  143.9730 O   0  0  0  0  0  0  0  0  0  0  0  0
  191.5890  170.8250  143.5600 O   0  0  0  0  0  0  0  0  0  0  0  0
  191.3510  177.8960  143.1640 O   0  0  0  0  0  0  0  0  0  0  0  0
  189.2180  177.9480  145.0470 O   0  0  0  0  0  0  0  0  0  0  0  0
  192.0890  175.6310  142.6790 C   0  0  2  0  0  3  0  0  0  0  0  0
  194.0820  175.7310  144.3290 C   0  0  1  0  0  3  0  0  0  0  0  0
  191.2140  171.9820  143.6660 C   0  0  0  0  0  0  0  0  0  0  0  0
  190.1280  174.6350  143.7400 C   0  0  1  0  0  3  0  0  0  0  0  0
  194.0680  173.3500  143.5160 C   0  0  1  0  0  3  0  0  0  0  0  0
  195.0870  176.7830  144.7110 C   0  0  0  0  0  0  0  0  0  0  0  0
  193.5880  175.9510  142.9010 C   0  0  1  0  0  3  0  0  0  0  0  0
  191.1880  176.6530  143.2850 C   0  0  0  0  0  0  0  0  0  0  0  0
  196.4490  176.4140  142.6920 C   0  0  0  0  0  2  0  0  0  0  0  0
  189.8930  173.7890  144.9810 C   0  0  0  0  0  2  0  0  0  0  0  0
  190.0670  176.0720  143.9560 N   0  0  0  0  0  0  0  0  0  0  0  0
  194.8860  177.4620  145.7520 O   0  0  0  0  0  0  0  0  0  0  0  0
  194.5540  174.7850  143.2150 C   0  0  1  0  0  0  0  0  0  0  0  0
  191.7940  173.0440  142.7480 C   0  0  1  0  0  3  0  0  0  0  0  0
  191.5700  174.3990  143.3850 C   0  0  1  0  0  3  0  0  0  0  0  0
  190.0800  172.2920  144.6400 C   0  0  0  0  0  2  0  0  0  0  0  0
  188.9880  176.8110  144.5570 C   0  0  0  0  0  0  0  0  0  0  0  0
  193.2150  172.8120  142.4470 N   0  0  0  0  0  2  0  0  0  0  0  0
  196.0010  174.9610  142.7100 C   0  0  0  0  0  2  0  0  0  0  0  0
  187.6850  176.3080  144.6270 O   0  0  0  0  0  0  0  0  0  0  0  0
  185.7410  177.7070  144.5930 C   0  0  0  0  0  1  0  0  0  0  0  0
  186.6250  176.7690  143.8010 C   0  0  0  0  0  2  0  0  0  0  0  0
  195.1620  172.4370  143.8800 N   0  0  0  0  0  0  0  0  0  0  0  0
  194.8900  171.1560  143.3710 N   0  0  0  0  0  2  0  0  0  0  0  0
  196.1700  170.5160  143.1150 C   0  0  0  0  0  2  0  0  0  0  0  0
  196.9680  171.3560  142.1410 C   0  0  0  0  0  1  0  0  0  0  0  0
  195.1800  172.3300  145.3330 C   0  0  0  0  0  2  0  0  0  0  0  0
  196.3390  174.1810  146.2590 F   0  0  0  0  0  0  0  0  0  0  0  0
  196.4930  172.8620  145.8760 C   0  0  0  0  0  2  0  0  0  0  0  0
  1 10  1  0  0  0  0
  2  7  2  0  0  0  0
  3 12  2  0  0  0  0
  5 11  1  0  0  0  0
  5 12  1  1  0  0  0
  5 19  1  0  0  0  0
  6 10  1  6  0  0  0
  7 20  1  0  0  0  0
  8 15  1  0  0  0  0
  8 14  1  1  0  0  0
  9 27  1  6  0  0  0
 10 16  2  0  0  0  0
 11 17  1  0  0  0  0
 11  6  1  0  0  0  0
 12 15  1  0  0  0  0
 13 23  1  0  0  0  0
 13  1  1  0  0  0  0
 15 21  1  0  0  0  0
 17  9  1  0  0  0  0
 17  6  1  0  0  0  0
 18 19  1  0  0  0  0
 18  7  1  0  0  0  0
 19  8  1  0  0  0  0
 20 14  1  0  0  0  0
 21 24  1  0  0  0  0
 21  4  2  0  0  0  0
 22 18  1  0  0  0  0
 22  9  1  0  0  0  0
 23 17  1  0  0  0  0
 26 25  1  0  0  0  0
 26 24  1  0  0  0  0
 27 31  1  0  0  0  0
 28 27  1  0  0  0  0
 29 28  1  0  0  0  0
 30 29  1  0  0  0  0
 31 33  1  0  0  0  0
 33 32  1  0  0  0  0
M  END
>  <MODEL>
8

>  <REMARK>
 VINA RESULT:      -6.1      3.377      7.950
  Name = 
  7 active torsions:
  status: ('A' for Active; 'I' for Inactive)
    1  A    between atoms: N_1  and  C_8
    2  A    between atoms: N_1  and  N_29
    3  A    between atoms: C_11  and  C_12
    4  A    between atoms: C_11  and  N_29
    5  A    between atoms: C_15  and  N_29
    6  A    between atoms: O_24  and  C_30
    7  A    between atoms: O_24  and  C_31
                            x       y       z     vdW  Elec       q    Type
                         _______ _______ _______ _____ _____    ______ ____

>  <TORSDO>
F 7

$$$$
=
 OpenBabel11062421123D

 33 37  0  0  1  0  0  0  0  0999 V2000
  194.6510  177.0670  145.7840 O   0  0  0  0  0  0  0  0  0  0  0  0
  189.0840  172.3810  143.1260 O   0  0  0  0  0  0  0  0  0  0  0  0
  195.8640  172.2020  145.1760 O   0  0  0  0  0  0  0  0  0  0  0  0
  196.5710  170.8310  142.7840 O   0  0  0  0  0  0  0  0  0  0  0  0
  193.4820  172.6770  145.2900 C   0  0  2  0  0  3  0  0  0  0  0  0
  193.7390  175.1110  144.4460 C   0  0  1  0  0  3  0  0  0  0  0  0
  190.2670  172.0940  143.1960 C   0  0  0  0  0  0  0  0  0  0  0  0
  192.9690  171.1640  143.4430 C   0  0  1  0  0  3  0  0  0  0  0  0
  191.2510  174.7630  144.5900 C   0  0  1  0  0  3  0  0  0  0  0  0
  194.7360  176.2120  144.6820 C   0  0  0  0  0  0  0  0  0  0  0  0
  193.6810  174.1700  145.6470 C   0  0  1  0  0  3  0  0  0  0  0  0
  194.7060  172.0590  144.7020 C   0  0  0  0  0  0  0  0  0  0  0  0
  193.7760  176.8040  146.8720 C   0  0  0  0  0  2  0  0  0  0  0  0
  192.4570  171.3390  142.0230 C   0  0  0  0  0  2  0  0  0  0  0  0
  194.4160  171.2160  143.5850 N   0  0  0  0  0  0  0  0  0  0  0  0
  195.6510  176.3910  143.8360 O   0  0  0  0  0  0  0  0  0  0  0  0
  192.5200  175.1550  145.3790 C   0  0  1  0  0  0  0  0  0  0  0  0
  191.0260  172.3560  144.4870 C   0  0  1  0  0  3  0  0  0  0  0  0
  192.5060  172.3940  144.1710 C   0  0  1  0  0  3  0  0  0  0  0  0
  190.9110  171.3620  142.0200 C   0  0  0  0  0  2  0  0  0  0  0  0
  195.3830  170.4220  142.8740 C   0  0  0  0  0  0  0  0  0  0  0  0
  190.5800  173.5860  145.1590 N   0  0  0  0  0  2  0  0  0  0  0  0
  192.4210  176.3510  146.3480 C   0  0  0  0  0  2  0  0  0  0  0  0
  195.0520  169.2050  142.2670 O   0  0  0  0  0  0  0  0  0  0  0  0
  194.5470  169.0900  139.9280 C   0  0  0  0  0  1  0  0  0  0  0  0
  195.5660  168.7960  141.0070 C   0  0  0  0  0  2  0  0  0  0  0  0
  190.3330  175.8920  144.3800 N   0  0  0  0  0  0  0  0  0  0  0  0
  189.0060  175.4310  144.4330 N   0  0  0  0  0  2  0  0  0  0  0  0
  188.2230  176.4550  145.1050 C   0  0  0  0  0  2  0  0  0  0  0  0
  188.4230  176.3420  146.6010 C   0  0  0  0  0  1  0  0  0  0  0  0
  190.5610  176.4000  143.0340 C   0  0  0  0  0  2  0  0  0  0  0  0
  190.7690  178.4390  144.2300 F   0  0  0  0  0  0  0  0  0  0  0  0
  191.2060  177.7720  143.1000 C   0  0  0  0  0  2  0  0  0  0  0  0
  1 13  1  0  0  0  0
  2  7  2  0  0  0  0
  4 21  2  0  0  0  0
  5 12  1  6  0  0  0
  5 11  1  0  0  0  0
  6 10  1  1  0  0  0
  6 17  1  0  0  0  0
  6 11  1  0  0  0  0
  7 18  1  0  0  0  0
  8 14  1  6  0  0  0
  8 15  1  0  0  0  0
  8 19  1  0  0  0  0
  9 27  1  1  0  0  0
  9 22  1  0  0  0  0
  9 17  1  0  0  0  0
 10  1  1  0  0  0  0
 12  3  2  0  0  0  0
 15 12  1  0  0  0  0
 16 10  2  0  0  0  0
 17 11  1  0  0  0  0
 17 23  1  0  0  0  0
 18 22  1  0  0  0  0
 19 18  1  0  0  0  0
 19  5  1  0  0  0  0
 20 14  1  0  0  0  0
 20  7  1  0  0  0  0
 21 15  1  0  0  0  0
 23 13  1  0  0  0  0
 24 21  1  0  0  0  0
 25 26  1  0  0  0  0
 26 24  1  0  0  0  0
 27 28  1  0  0  0  0
 28 29  1  0  0  0  0
 29 30  1  0  0  0  0
 31 33  1  0  0  0  0
 31 27  1  0  0  0  0
 33 32  1  0  0  0  0
M  END
>  <MODEL>
9

>  <REMARK>
 VINA RESULT:      -5.8      3.065      5.699
  Name = 
  7 active torsions:
  status: ('A' for Active; 'I' for Inactive)
    1  A    between atoms: N_1  and  C_8
    2  A    between atoms: N_1  and  N_29
    3  A    between atoms: C_11  and  C_12
    4  A    between atoms: C_11  and  N_29
    5  A    between atoms: C_15  and  N_29
    6  A    between atoms: O_24  and  C_30
    7  A    between atoms: O_24  and  C_31
                            x       y       z     vdW  Elec       q    Type
                         _______ _______ _______ _____ _____    ______ ____

>  <TORSDO>
F 7

$$$$
