=
 OpenBabel11062422563D

 29 33  0  0  1  0  0  0  0  0999 V2000
  188.4780  177.1510  143.9330 C   0  0  0  0  0  3  0  0  0  0  0  0
  188.0440  177.2310  146.3000 C   0  0  0  0  0  3  0  0  0  0  0  0
  186.8020  177.8210  146.0440 C   0  0  0  0  0  0  0  0  0  0  0  0
  184.3320  178.9700  145.5200 C   0  0  0  0  0  3  0  0  0  0  0  0
  185.9240  178.1550  147.0840 C   0  0  0  0  0  0  0  0  0  0  0  0
  188.8910  176.8930  145.2410 C   0  0  0  0  0  0  0  0  0  0  0  0
  186.2740  177.9110  148.4450 N   0  0  0  0  0  1  0  0  0  0  0  0
  186.4220  178.0750  144.7050 C   0  0  0  0  0  0  0  0  0  0  0  0
  184.7190  178.7130  146.7960 N   0  0  0  0  0  0  0  0  0  0  0  0
  185.1670  178.6700  144.4410 C   0  0  0  0  0  0  0  0  0  0  0  0
  187.2690  177.7260  143.6970 N   0  0  0  0  0  0  0  0  0  0  0  0
  190.7180  176.6040  146.8110 N   0  0  0  0  0  0  0  0  0  0  0  0
  195.9250  175.7820  143.2140 O   0  0  0  0  0  1  0  0  0  0  0  0
  192.9060  175.8760  146.1200 C   0  0  1  0  0  3  0  0  0  0  0  0
  195.0740  176.2870  144.1970 C   0  0  2  0  0  3  0  0  0  0  0  0
  190.2240  176.2670  145.4850 C   0  0  2  0  0  3  0  0  0  0  0  0
  191.2230  176.6160  144.3590 C   0  0  0  0  0  2  0  0  0  0  0  0
  191.9490  176.4090  147.1390 C   0  0  0  0  0  3  0  0  0  0  0  0
  195.2980  175.5280  145.5050 C   0  0  0  0  0  2  0  0  0  0  0  0
  192.6870  176.6600  144.8230 C   0  0  2  0  0  3  0  0  0  0  0  0
  194.3480  176.0340  146.5900 C   0  0  0  0  0  2  0  0  0  0  0  0
  193.6240  176.1530  143.7340 C   0  0  0  0  0  2  0  0  0  0  0  0
  184.6940  178.9750  143.1540 O   0  0  0  0  0  0  0  0  0  0  0  0
  184.4550  178.1870  140.9140 C   0  0  0  0  0  0  0  0  0  0  0  0
  181.8840  178.2610  140.6830 S   0  0  0  0  0  0  0  0  0  0  0  0
  183.9780  178.0790  142.3110 C   0  0  2  0  0  3  0  0  0  0  0  0
  185.6700  178.1290  140.5910 O   0  0  0  0  0  0  0  0  0  0  0  0
  183.4620  178.3190  139.9790 O   0  0  0  0  0  0  0  0  0  0  0  0
  182.5570  178.4330  142.3280 N   0  0  0  0  0  2  0  0  0  0  0  0
  1  6  1  0  0  0  0
  3  2  1  0  0  0  0
  3  5  1  0  0  0  0
  4  9  1  0  0  0  0
  5  7  1  0  0  0  0
  6  2  2  0  0  0  0
  8  3  2  0  0  0  0
  9  5  2  0  0  0  0
 10  8  1  0  0  0  0
 10  4  2  0  0  0  0
 11  1  2  0  0  0  0
 11  8  1  0  0  0  0
 12 18  2  0  0  0  0
 14 21  1  1  0  0  0
 14 18  1  0  0  0  0
 15 13  1  6  0  0  0
 15 19  1  0  0  0  0
 16  6  1  6  0  0  0
 16 12  1  0  0  0  0
 17 20  1  0  0  0  0
 17 16  1  0  0  0  0
 19 21  1  0  0  0  0
 20 22  1  6  0  0  0
 20 14  1  0  0  0  0
 22 15  1  0  0  0  0
 23 10  1  0  0  0  0
 24 26  1  0  0  0  0
 25 29  1  0  0  0  0
 26 29  1  0  0  0  0
 26 23  1  1  0  0  0
 27 24  2  0  0  0  0
 28 25  1  0  0  0  0
 28 24  1  0  0  0  0
M  END
>  <MODEL>
1

>  <REMARK>
 VINA RESULT:      -8.7      0.000      0.000
  Name = 
  3 active torsions:
  status: ('A' for Active; 'I' for Inactive)
    1  A    between atoms: O_2  and  C_15
    2  A    between atoms: O_2  and  C_25
    3  A    between atoms: C_12  and  C_14
                            x       y       z     vdW  Elec       q    Type
                         _______ _______ _______ _____ _____    ______ ____

>  <TORSDO>
F 3

$$$$
=
 OpenBabel11062422563D

 29 33  0  0  1  0  0  0  0  0999 V2000
  190.2950  177.6710  143.0640 C   0  0  0  0  0  3  0  0  0  0  0  0
  190.2420  176.5350  145.1860 C   0  0  0  0  0  3  0  0  0  0  0  0
  188.8560  176.7180  145.2410 C   0  0  0  0  0  0  0  0  0  0  0  0
  186.1060  177.0700  145.3250 C   0  0  0  0  0  3  0  0  0  0  0  0
  188.0970  176.2350  146.3160 C   0  0  0  0  0  0  0  0  0  0  0  0
  190.9700  177.0140  144.0930 C   0  0  0  0  0  0  0  0  0  0  0  0
  188.7180  175.5440  147.3980 N   0  0  0  0  0  1  0  0  0  0  0  0
  188.2090  177.3970  144.1820 C   0  0  0  0  0  0  0  0  0  0  0  0
  186.7510  176.4180  146.3270 N   0  0  0  0  0  0  0  0  0  0  0  0
  186.8080  177.5850  144.2320 C   0  0  0  0  0  0  0  0  0  0  0  0
  188.9480  177.8440  143.1290 N   0  0  0  0  0  0  0  0  0  0  0  0
  192.8550  176.4860  142.6600 N   0  0  0  0  0  0  0  0  0  0  0  0
  197.1820  173.7740  146.4870 O   0  0  0  0  0  1  0  0  0  0  0  0
  194.9830  175.7840  143.5380 C   0  0  1  0  0  3  0  0  0  0  0  0
  196.3280  173.9710  145.4020 C   0  0  2  0  0  3  0  0  0  0  0  0
  192.4500  176.8360  144.0110 C   0  0  2  0  0  3  0  0  0  0  0  0
  192.9540  175.8340  145.0740 C   0  0  0  0  0  2  0  0  0  0  0  0
  194.0310  176.0210  142.4090 C   0  0  0  0  0  3  0  0  0  0  0  0
  197.0890  174.6690  144.2730 C   0  0  0  0  0  2  0  0  0  0  0  0
  194.2150  175.0650  144.6500 C   0  0  2  0  0  3  0  0  0  0  0  0
  196.1650  174.9340  143.0860 C   0  0  0  0  0  2  0  0  0  0  0  0
  195.1280  174.8070  145.8430 C   0  0  0  0  0  2  0  0  0  0  0  0
  186.0650  178.2510  143.2430 O   0  0  0  0  0  0  0  0  0  0  0  0
  185.5850  177.9600  140.9240 C   0  0  0  0  0  0  0  0  0  0  0  0
  183.0310  178.3440  140.9420 S   0  0  0  0  0  0  0  0  0  0  0  0
  185.1930  177.6220  142.3110 C   0  0  2  0  0  3  0  0  0  0  0  0
  186.7600  177.8430  140.4880 O   0  0  0  0  0  0  0  0  0  0  0  0
  184.5540  178.3790  140.1250 O   0  0  0  0  0  0  0  0  0  0  0  0
  183.8290  178.1100  142.5220 N   0  0  0  0  0  2  0  0  0  0  0  0
  1 11  2  0  0  0  0
  1  6  1  0  0  0  0
  2  3  1  0  0  0  0
  3  5  1  0  0  0  0
  4  9  1  0  0  0  0
  5  9  2  0  0  0  0
  5  7  1  0  0  0  0
  6  2  2  0  0  0  0
  8 10  1  0  0  0  0
  8  3  2  0  0  0  0
 10  4  2  0  0  0  0
 11  8  1  0  0  0  0
 12 16  1  0  0  0  0
 14 18  1  6  0  0  0
 14 20  1  0  0  0  0
 15 22  1  0  0  0  0
 15 13  1  1  0  0  0
 16  6  1  6  0  0  0
 16 17  1  0  0  0  0
 18 12  2  0  0  0  0
 19 15  1  0  0  0  0
 20 17  1  1  0  0  0
 20 22  1  0  0  0  0
 21 14  1  0  0  0  0
 21 19  1  0  0  0  0
 23 10  1  0  0  0  0
 24 26  1  0  0  0  0
 25 29  1  0  0  0  0
 26 29  1  0  0  0  0
 26 23  1  1  0  0  0
 27 24  2  0  0  0  0
 28 24  1  0  0  0  0
 28 25  1  0  0  0  0
M  END
>  <MODEL>
2

>  <REMARK>
 VINA RESULT:      -8.1      1.785      2.719
  Name = 
  3 active torsions:
  status: ('A' for Active; 'I' for Inactive)
    1  A    between atoms: O_2  and  C_15
    2  A    between atoms: O_2  and  C_25
    3  A    between atoms: C_12  and  C_14
                            x       y       z     vdW  Elec       q    Type
                         _______ _______ _______ _____ _____    ______ ____

>  <TORSDO>
F 3

$$$$
=
 OpenBabel11062422563D

 29 33  0  0  1  0  0  0  0  0999 V2000
  191.1190  176.9620  142.7730 C   0  0  0  0  0  3  0  0  0  0  0  0
  190.7970  176.3250  145.0730 C   0  0  0  0  0  3  0  0  0  0  0  0
  192.1790  176.1620  145.2140 C   0  0  0  0  0  0  0  0  0  0  0  0
  194.9240  175.8650  145.4830 C   0  0  0  0  0  3  0  0  0  0  0  0
  192.7490  175.7770  146.4350 C   0  0  0  0  0  0  0  0  0  0  0  0
  190.2600  176.7260  143.8460 C   0  0  0  0  0  0  0  0  0  0  0  0
  191.9320  175.5290  147.5780 N   0  0  0  0  0  1  0  0  0  0  0  0
  193.0180  176.4020  144.1000 C   0  0  0  0  0  0  0  0  0  0  0  0
  194.0970  175.6440  146.5380 N   0  0  0  0  0  0  0  0  0  0  0  0
  194.4160  176.2400  144.2370 C   0  0  0  0  0  0  0  0  0  0  0  0
  192.4610  176.7990  142.9220 N   0  0  0  0  0  0  0  0  0  0  0  0
  188.5050  177.7630  142.5300 N   0  0  0  0  0  0  0  0  0  0  0  0
  183.6510  178.6460  146.5780 O   0  0  0  0  0  1  0  0  0  0  0  0
  186.2600  178.0240  143.3560 C   0  0  1  0  0  3  0  0  0  0  0  0
  184.6230  178.9140  145.6140 C   0  0  2  0  0  3  0  0  0  0  0  0
  188.7880  176.9030  143.6670 C   0  0  2  0  0  3  0  0  0  0  0  0
  188.1180  177.3840  144.9740 C   0  0  0  0  0  2  0  0  0  0  0  0
  187.3360  178.2750  142.3480 C   0  0  0  0  0  3  0  0  0  0  0  0
  184.0260  178.7210  144.2190 C   0  0  0  0  0  2  0  0  0  0  0  0
  186.8650  178.2430  144.7450 C   0  0  2  0  0  3  0  0  0  0  0  0
  185.0830  178.9700  143.1440 C   0  0  0  0  0  2  0  0  0  0  0  0
  185.8190  177.9870  145.8240 C   0  0  0  0  0  2  0  0  0  0  0  0
  195.3390  176.4420  143.1970 O   0  0  0  0  0  0  0  0  0  0  0  0
  197.2900  175.3150  142.4120 C   0  0  0  0  0  0  0  0  0  0  0  0
  196.8490  175.3710  139.8680 S   0  0  0  0  0  0  0  0  0  0  0  0
  195.8170  175.4300  142.3180 C   0  0  2  0  0  3  0  0  0  0  0  0
  197.9070  175.1970  143.5030 O   0  0  0  0  0  0  0  0  0  0  0  0
  197.9410  175.3050  141.2070 O   0  0  0  0  0  0  0  0  0  0  0  0
  195.4840  175.7930  140.9390 N   0  0  0  0  0  2  0  0  0  0  0  0
  1 11  2  0  0  0  0
  1  6  1  0  0  0  0
  2  3  1  0  0  0  0
  3  5  1  0  0  0  0
  4  9  1  0  0  0  0
  5  9  2  0  0  0  0
  5  7  1  0  0  0  0
  6  2  2  0  0  0  0
  8 10  1  0  0  0  0
  8  3  2  0  0  0  0
 10  4  2  0  0  0  0
 11  8  1  0  0  0  0
 12 16  1  0  0  0  0
 14 18  1  6  0  0  0
 14 20  1  0  0  0  0
 15 22  1  0  0  0  0
 15 13  1  1  0  0  0
 16  6  1  1  0  0  0
 16 17  1  0  0  0  0
 18 12  2  0  0  0  0
 19 15  1  0  0  0  0
 20 17  1  1  0  0  0
 20 22  1  0  0  0  0
 21 14  1  0  0  0  0
 21 19  1  0  0  0  0
 23 10  1  0  0  0  0
 24 27  2  0  0  0  0
 25 29  1  0  0  0  0
 25 28  1  0  0  0  0
 26 24  1  0  0  0  0
 26 23  1  1  0  0  0
 28 24  1  0  0  0  0
 29 26  1  0  0  0  0
M  END
>  <MODEL>
3

>  <REMARK>
 VINA RESULT:      -7.9      4.012      9.383
  Name = 
  3 active torsions:
  status: ('A' for Active; 'I' for Inactive)
    1  A    between atoms: O_2  and  C_15
    2  A    between atoms: O_2  and  C_25
    3  A    between atoms: C_12  and  C_14
                            x       y       z     vdW  Elec       q    Type
                         _______ _______ _______ _____ _____    ______ ____

>  <TORSDO>
F 3

$$$$
=
 OpenBabel11062422563D

 29 33  0  0  1  0  0  0  0  0999 V2000
  190.7960  177.0190  143.2700 C   0  0  0  0  0  3  0  0  0  0  0  0
  191.8900  176.7910  145.4020 C   0  0  0  0  0  3  0  0  0  0  0  0
  193.0810  176.4600  144.7470 C   0  0  0  0  0  0  0  0  0  0  0  0
  195.4410  175.8290  143.4320 C   0  0  0  0  0  3  0  0  0  0  0  0
  194.2570  176.1900  145.4600 C   0  0  0  0  0  0  0  0  0  0  0  0
  190.7380  177.0710  144.6630 C   0  0  0  0  0  0  0  0  0  0  0  0
  194.2750  176.2350  146.8860 N   0  0  0  0  0  1  0  0  0  0  0  0
  193.0990  176.4090  143.3330 C   0  0  0  0  0  0  0  0  0  0  0  0
  195.3990  175.8880  144.7890 N   0  0  0  0  0  0  0  0  0  0  0  0
  194.3000  176.0760  142.6660 C   0  0  0  0  0  0  0  0  0  0  0  0
  191.9590  176.6960  142.6440 N   0  0  0  0  0  0  0  0  0  0  0  0
  188.9980  176.3300  146.1830 N   0  0  0  0  0  0  0  0  0  0  0  0
  183.6940  179.3200  144.2690 O   0  0  0  0  0  1  0  0  0  0  0  0
  186.8260  177.3650  146.2550 C   0  0  1  0  0  3  0  0  0  0  0  0
  184.5580  178.2950  144.6540 C   0  0  2  0  0  3  0  0  0  0  0  0
  189.4530  177.4220  145.3370 C   0  0  2  0  0  3  0  0  0  0  0  0
  188.3890  177.8790  144.3130 C   0  0  0  0  0  2  0  0  0  0  0  0
  187.7940  176.2930  146.6420 C   0  0  0  0  0  3  0  0  0  0  0  0
  184.4320  178.0590  146.1600 C   0  0  0  0  0  2  0  0  0  0  0  0
  186.9460  177.5730  144.7430 C   0  0  2  0  0  3  0  0  0  0  0  0
  185.3990  176.9670  146.6150 C   0  0  0  0  0  2  0  0  0  0  0  0
  185.9920  178.6700  144.2830 C   0  0  0  0  0  2  0  0  0  0  0  0
  194.4280  175.9870  141.2690 O   0  0  0  0  0  0  0  0  0  0  0  0
  196.1780  175.2970  139.8020 C   0  0  0  0  0  0  0  0  0  0  0  0
  194.8160  173.9250  138.0910 S   0  0  0  0  0  0  0  0  0  0  0  0
  194.9810  174.8810  140.5660 C   0  0  2  0  0  3  0  0  0  0  0  0
  197.1320  175.9450  140.3090 O   0  0  0  0  0  0  0  0  0  0  0  0
  196.1940  174.8880  138.4950 O   0  0  0  0  0  0  0  0  0  0  0  0
  193.9940  174.3750  139.6100 N   0  0  0  0  0  2  0  0  0  0  0  0
  1  6  1  0  0  0  0
  3  2  1  0  0  0  0
  3  5  1  0  0  0  0
  4  9  1  0  0  0  0
  5  7  1  0  0  0  0
  6  2  2  0  0  0  0
  8  3  2  0  0  0  0
  9  5  2  0  0  0  0
 10  8  1  0  0  0  0
 10  4  2  0  0  0  0
 11  1  2  0  0  0  0
 11  8  1  0  0  0  0
 12 18  2  0  0  0  0
 14 21  1  6  0  0  0
 14 18  1  0  0  0  0
 15 13  1  1  0  0  0
 15 19  1  0  0  0  0
 16  6  1  6  0  0  0
 16 12  1  0  0  0  0
 17 20  1  0  0  0  0
 17 16  1  0  0  0  0
 19 21  1  0  0  0  0
 20 22  1  1  0  0  0
 20 14  1  0  0  0  0
 22 15  1  0  0  0  0
 23 10  1  0  0  0  0
 24 27  2  0  0  0  0
 24 26  1  0  0  0  0
 25 28  1  0  0  0  0
 25 29  1  0  0  0  0
 26 23  1  6  0  0  0
 28 24  1  0  0  0  0
 29 26  1  0  0  0  0
M  END
>  <MODEL>
4

>  <REMARK>
 VINA RESULT:      -7.8      3.776      8.995
  Name = 
  3 active torsions:
  status: ('A' for Active; 'I' for Inactive)
    1  A    between atoms: O_2  and  C_15
    2  A    between atoms: O_2  and  C_25
    3  A    between atoms: C_12  and  C_14
                            x       y       z     vdW  Elec       q    Type
                         _______ _______ _______ _____ _____    ______ ____

>  <TORSDO>
F 3

$$$$
=
 OpenBabel11062422563D

 29 33  0  0  1  0  0  0  0  0999 V2000
  191.3180  176.4230  145.7760 C   0  0  0  0  0  3  0  0  0  0  0  0
  189.9170  174.5440  145.2260 C   0  0  0  0  0  3  0  0  0  0  0  0
  191.0570  173.7940  144.9180 C   0  0  0  0  0  0  0  0  0  0  0  0
  193.3280  172.3120  144.3320 C   0  0  0  0  0  3  0  0  0  0  0  0
  190.9630  172.4590  144.4990 C   0  0  0  0  0  0  0  0  0  0  0  0
  190.0440  175.8680  145.6560 C   0  0  0  0  0  0  0  0  0  0  0  0
  189.6930  171.8230  144.3650 N   0  0  0  0  0  1  0  0  0  0  0  0
  192.3320  174.3940  145.0430 C   0  0  0  0  0  0  0  0  0  0  0  0
  192.0920  171.7580  144.2240 N   0  0  0  0  0  0  0  0  0  0  0  0
  193.4870  173.6400  144.7330 C   0  0  0  0  0  0  0  0  0  0  0  0
  192.4190  175.6840  145.4720 N   0  0  0  0  0  0  0  0  0  0  0  0
  188.0470  176.0530  147.0210 N   0  0  0  0  0  0  0  0  0  0  0  0
  183.9050  179.4070  143.5110 O   0  0  0  0  0  1  0  0  0  0  0  0
  186.2270  177.5190  146.4470 C   0  0  1  0  0  3  0  0  0  0  0  0
  184.4310  178.3870  144.3040 C   0  0  2  0  0  3  0  0  0  0  0  0
  188.8440  176.6920  145.9870 C   0  0  2  0  0  3  0  0  0  0  0  0
  188.0310  177.0330  144.7180 C   0  0  0  0  0  2  0  0  0  0  0  0
  186.8410  176.4330  147.2720 C   0  0  0  0  0  3  0  0  0  0  0  0
  184.1190  178.6690  145.7740 C   0  0  0  0  0  2  0  0  0  0  0  0
  186.5270  177.2110  144.9770 C   0  0  2  0  0  3  0  0  0  0  0  0
  184.7200  177.5870  146.6690 C   0  0  0  0  0  2  0  0  0  0  0  0
  185.9390  178.2930  144.0790 C   0  0  0  0  0  2  0  0  0  0  0  0
  194.7990  174.1380  144.8130 O   0  0  0  0  0  0  0  0  0  0  0  0
  197.0080  174.7660  144.1670 C   0  0  0  0  0  0  0  0  0  0  0  0
  196.4660  176.4160  142.2560 S   0  0  0  0  0  0  0  0  0  0  0  0
  195.6690  174.3350  143.7050 C   0  0  2  0  0  3  0  0  0  0  0  0
  197.6570  174.1670  145.0630 O   0  0  0  0  0  0  0  0  0  0  0  0
  197.5140  175.8580  143.5120 O   0  0  0  0  0  0  0  0  0  0  0  0
  195.1290  175.3920  142.8480 N   0  0  0  0  0  2  0  0  0  0  0  0
  2  6  2  0  0  0  0
  3  8  1  0  0  0  0
  3  2  1  0  0  0  0
  4 10  1  0  0  0  0
  5  3  2  0  0  0  0
  6  1  1  0  0  0  0
  7  5  1  0  0  0  0
  8 11  1  0  0  0  0
  9  4  2  0  0  0  0
  9  5  1  0  0  0  0
 10 23  1  0  0  0  0
 10  8  2  0  0  0  0
 11  1  2  0  0  0  0
 12 18  2  0  0  0  0
 14 21  1  6  0  0  0
 14 18  1  0  0  0  0
 15 13  1  6  0  0  0
 15 19  1  0  0  0  0
 16  6  1  6  0  0  0
 16 12  1  0  0  0  0
 17 20  1  0  0  0  0
 17 16  1  0  0  0  0
 19 21  1  0  0  0  0
 20 22  1  6  0  0  0
 20 14  1  0  0  0  0
 22 15  1  0  0  0  0
 24 27  2  0  0  0  0
 25 29  1  0  0  0  0
 25 28  1  0  0  0  0
 26 24  1  0  0  0  0
 26 23  1  1  0  0  0
 28 24  1  0  0  0  0
 29 26  1  0  0  0  0
M  END
>  <MODEL>
5

>  <REMARK>
 VINA RESULT:      -7.8      3.816      9.375
  Name = 
  3 active torsions:
  status: ('A' for Active; 'I' for Inactive)
    1  A    between atoms: O_2  and  C_15
    2  A    between atoms: O_2  and  C_25
    3  A    between atoms: C_12  and  C_14
                            x       y       z     vdW  Elec       q    Type
                         _______ _______ _______ _____ _____    ______ ____

>  <TORSDO>
F 3

$$$$
=
 OpenBabel11062422563D

 29 33  0  0  1  0  0  0  0  0999 V2000
  188.4370  175.8790  144.5760 C   0  0  0  0  0  3  0  0  0  0  0  0
  188.3700  177.0580  146.6740 C   0  0  0  0  0  3  0  0  0  0  0  0
  187.1270  177.5950  146.3240 C   0  0  0  0  0  0  0  0  0  0  0  0
  184.6520  178.6350  145.6250 C   0  0  0  0  0  3  0  0  0  0  0  0
  186.4300  178.4500  147.1890 C   0  0  0  0  0  0  0  0  0  0  0  0
  189.0330  176.1950  145.7970 C   0  0  0  0  0  0  0  0  0  0  0  0
  186.9740  178.8090  148.4580 N   0  0  0  0  0  1  0  0  0  0  0  0
  186.5580  177.2580  145.0740 C   0  0  0  0  0  0  0  0  0  0  0  0
  185.2180  178.9400  146.8220 N   0  0  0  0  0  0  0  0  0  0  0  0
  185.3010  177.7970  144.7150 C   0  0  0  0  0  0  0  0  0  0  0  0
  187.2280  176.4080  144.2470 N   0  0  0  0  0  0  0  0  0  0  0  0
  191.3700  176.6540  146.2650 N   0  0  0  0  0  0  0  0  0  0  0  0
  194.5320  171.4540  144.3450 O   0  0  0  0  0  1  0  0  0  0  0  0
  193.0670  174.9540  146.1280 C   0  0  1  0  0  3  0  0  0  0  0  0
  194.1720  172.7940  144.4900 C   0  0  2  0  0  3  0  0  0  0  0  0
  190.3630  175.6120  146.1440 C   0  0  2  0  0  3  0  0  0  0  0  0
  190.7620  174.4970  145.1510 C   0  0  0  0  0  2  0  0  0  0  0  0
  192.6280  176.3750  146.2860 C   0  0  0  0  0  3  0  0  0  0  0  0
  194.9680  173.4160  145.6380 C   0  0  0  0  0  2  0  0  0  0  0  0
  192.2800  174.3520  144.9610 C   0  0  2  0  0  3  0  0  0  0  0  0
  194.5630  174.8750  145.8440 C   0  0  0  0  0  2  0  0  0  0  0  0
  192.6710  172.8930  144.7570 C   0  0  0  0  0  2  0  0  0  0  0  0
  184.6500  177.5380  143.4970 O   0  0  0  0  0  0  0  0  0  0  0  0
  183.5710  178.2010  141.4750 C   0  0  0  0  0  0  0  0  0  0  0  0
  185.5000  177.8400  139.7970 S   0  0  0  0  0  0  0  0  0  0  0  0
  184.7860  178.3150  142.3130 C   0  0  2  0  0  3  0  0  0  0  0  0
  182.4060  178.3770  141.9180 O   0  0  0  0  0  0  0  0  0  0  0  0
  183.8110  177.9240  140.1550 O   0  0  0  0  0  0  0  0  0  0  0  0
  185.9170  177.8110  141.5320 N   0  0  0  0  0  2  0  0  0  0  0  0
  1  6  1  0  0  0  0
  3  2  1  0  0  0  0
  3  5  1  0  0  0  0
  4  9  1  0  0  0  0
  5  7  1  0  0  0  0
  6  2  2  0  0  0  0
  8  3  2  0  0  0  0
  9  5  2  0  0  0  0
 10  8  1  0  0  0  0
 10  4  2  0  0  0  0
 11  1  2  0  0  0  0
 11  8  1  0  0  0  0
 12 18  2  0  0  0  0
 14 21  1  6  0  0  0
 14 18  1  0  0  0  0
 15 13  1  1  0  0  0
 15 22  1  0  0  0  0
 15 19  1  0  0  0  0
 16  6  1  6  0  0  0
 16 12  1  0  0  0  0
 17 16  1  0  0  0  0
 19 21  1  0  0  0  0
 20 22  1  1  0  0  0
 20 17  1  0  0  0  0
 20 14  1  0  0  0  0
 23 10  1  0  0  0  0
 24 27  2  0  0  0  0
 24 26  1  0  0  0  0
 25 28  1  0  0  0  0
 25 29  1  0  0  0  0
 26 23  1  1  0  0  0
 28 24  1  0  0  0  0
 29 26  1  0  0  0  0
M  END
>  <MODEL>
6

>  <REMARK>
 VINA RESULT:      -7.8      1.829      2.043
  Name = 
  3 active torsions:
  status: ('A' for Active; 'I' for Inactive)
    1  A    between atoms: O_2  and  C_15
    2  A    between atoms: O_2  and  C_25
    3  A    between atoms: C_12  and  C_14
                            x       y       z     vdW  Elec       q    Type
                         _______ _______ _______ _____ _____    ______ ____

>  <TORSDO>
F 3

$$$$
=
 OpenBabel11062422563D

 29 33  0  0  1  0  0  0  0  0999 V2000
  190.5750  176.7100  145.5700 C   0  0  0  0  0  3  0  0  0  0  0  0
  190.8760  175.2240  143.7000 C   0  0  0  0  0  3  0  0  0  0  0  0
  189.6390  175.6290  143.1880 C   0  0  0  0  0  0  0  0  0  0  0  0
  187.1940  176.4610  142.1750 C   0  0  0  0  0  3  0  0  0  0  0  0
  189.1440  175.1180  141.9810 C   0  0  0  0  0  0  0  0  0  0  0  0
  191.3500  175.7640  144.8990 C   0  0  0  0  0  0  0  0  0  0  0  0
  189.8870  174.1560  141.2350 N   0  0  0  0  0  1  0  0  0  0  0  0
  188.8780  176.5840  143.9020 C   0  0  0  0  0  0  0  0  0  0  0  0
  187.9460  175.5480  141.5070 N   0  0  0  0  0  0  0  0  0  0  0  0
  187.6260  176.9990  143.3890 C   0  0  0  0  0  0  0  0  0  0  0  0
  189.3730  177.0960  145.0630 N   0  0  0  0  0  0  0  0  0  0  0  0
  193.7390  176.1800  144.9600 N   0  0  0  0  0  0  0  0  0  0  0  0
  196.4150  170.5120  146.1570 O   0  0  0  0  0  1  0  0  0  0  0  0
  195.3130  174.5340  145.7380 C   0  0  1  0  0  3  0  0  0  0  0  0
  196.1510  171.7360  145.5440 C   0  0  2  0  0  3  0  0  0  0  0  0
  192.6640  175.3450  145.4700 C   0  0  2  0  0  3  0  0  0  0  0  0
  192.9140  173.8350  145.2530 C   0  0  0  0  0  2  0  0  0  0  0  0
  194.9750  175.8410  145.0930 C   0  0  0  0  0  3  0  0  0  0  0  0
  197.0710  172.8090  146.1270 C   0  0  0  0  0  2  0  0  0  0  0  0
  194.4010  173.4670  145.1280 C   0  0  2  0  0  3  0  0  0  0  0  0
  196.7750  174.1700  145.5000 C   0  0  0  0  0  2  0  0  0  0  0  0
  194.6840  172.1080  145.7570 C   0  0  0  0  0  2  0  0  0  0  0  0
  186.7860  177.9320  144.0190 O   0  0  0  0  0  0  0  0  0  0  0  0
  184.5420  178.4440  144.6470 C   0  0  0  0  0  0  0  0  0  0  0  0
  184.8180  178.6040  147.2100 S   0  0  0  0  0  0  0  0  0  0  0  0
  185.7340  177.6090  144.9210 C   0  0  2  0  0  3  0  0  0  0  0  0
  184.0370  178.5760  143.5010 O   0  0  0  0  0  0  0  0  0  0  0  0
  183.9950  179.0390  145.7530 O   0  0  0  0  0  0  0  0  0  0  0  0
  186.1700  177.8880  146.2900 N   0  0  0  0  0  2  0  0  0  0  0  0
  2  6  1  0  0  0  0
  3  2  2  0  0  0  0
  3  8  1  0  0  0  0
  4 10  2  0  0  0  0
  5  3  1  0  0  0  0
  6  1  2  0  0  0  0
  7  5  1  0  0  0  0
  8 11  2  0  0  0  0
  9  5  2  0  0  0  0
  9  4  1  0  0  0  0
 10  8  1  0  0  0  0
 10 23  1  0  0  0  0
 11  1  1  0  0  0  0
 12 18  2  0  0  0  0
 12 16  1  0  0  0  0
 14 18  1  6  0  0  0
 15 22  1  0  0  0  0
 15 19  1  0  0  0  0
 15 13  1  1  0  0  0
 16  6  1  6  0  0  0
 17 16  1  0  0  0  0
 20 17  1  1  0  0  0
 20 14  1  0  0  0  0
 20 22  1  0  0  0  0
 21 14  1  0  0  0  0
 21 19  1  0  0  0  0
 24 26  1  0  0  0  0
 24 28  1  0  0  0  0
 26 23  1  6  0  0  0
 26 29  1  0  0  0  0
 27 24  2  0  0  0  0
 28 25  1  0  0  0  0
 29 25  1  0  0  0  0
M  END
>  <MODEL>
7

>  <REMARK>
 VINA RESULT:      -7.7      2.862      4.564
  Name = 
  3 active torsions:
  status: ('A' for Active; 'I' for Inactive)
    1  A    between atoms: O_2  and  C_15
    2  A    between atoms: O_2  and  C_25
    3  A    between atoms: C_12  and  C_14
                            x       y       z     vdW  Elec       q    Type
                         _______ _______ _______ _____ _____    ______ ____

>  <TORSDO>
F 3

$$$$
=
 OpenBabel11062422563D

 29 33  0  0  1  0  0  0  0  0999 V2000
  191.6800  177.2890  144.8120 C   0  0  0  0  0  3  0  0  0  0  0  0
  190.4880  175.2820  144.2250 C   0  0  0  0  0  3  0  0  0  0  0  0
  191.6550  174.7660  143.6510 C   0  0  0  0  0  0  0  0  0  0  0  0
  193.9820  173.7480  142.5360 C   0  0  0  0  0  3  0  0  0  0  0  0
  191.6820  173.4900  143.0720 C   0  0  0  0  0  0  0  0  0  0  0  0
  190.4960  176.5510  144.8090 C   0  0  0  0  0  0  0  0  0  0  0  0
  190.5120  172.6740  143.0430 N   0  0  0  0  0  1  0  0  0  0  0  0
  192.8330  175.5480  143.6660 C   0  0  0  0  0  0  0  0  0  0  0  0
  192.8380  173.0160  142.5380 N   0  0  0  0  0  0  0  0  0  0  0  0
  194.0160  175.0310  143.0870 C   0  0  0  0  0  0  0  0  0  0  0  0
  192.8070  176.7780  144.2500 N   0  0  0  0  0  0  0  0  0  0  0  0
  188.7190  176.2290  146.4290 N   0  0  0  0  0  0  0  0  0  0  0  0
  183.7030  179.4090  144.0930 O   0  0  0  0  0  1  0  0  0  0  0  0
  186.6610  177.4740  146.3470 C   0  0  1  0  0  3  0  0  0  0  0  0
  184.4680  178.3730  144.6280 C   0  0  2  0  0  3  0  0  0  0  0  0
  189.2640  177.1280  145.4250 C   0  0  2  0  0  3  0  0  0  0  0  0
  188.2320  177.5280  144.3460 C   0  0  0  0  0  2  0  0  0  0  0  0
  187.5260  176.3820  146.8920 C   0  0  0  0  0  3  0  0  0  0  0  0
  184.3460  178.3820  146.1530 C   0  0  0  0  0  2  0  0  0  0  0  0
  186.7740  177.4370  144.8210 C   0  0  2  0  0  3  0  0  0  0  0  0
  185.2080  177.2810  146.7680 C   0  0  0  0  0  2  0  0  0  0  0  0
  185.9250  178.5410  144.2010 C   0  0  0  0  0  2  0  0  0  0  0  0
  195.2380  175.7230  143.0380 O   0  0  0  0  0  0  0  0  0  0  0  0
  197.3770  174.7470  143.4420 C   0  0  0  0  0  0  0  0  0  0  0  0
  196.9970  173.7950  145.8120 S   0  0  0  0  0  0  0  0  0  0  0  0
  196.2910  175.5930  143.9860 C   0  0  2  0  0  3  0  0  0  0  0  0
  197.8990  174.9320  142.3110 O   0  0  0  0  0  0  0  0  0  0  0  0
  197.8070  173.7560  144.2850 O   0  0  0  0  0  0  0  0  0  0  0  0
  195.7780  174.9420  145.1920 N   0  0  0  0  0  2  0  0  0  0  0  0
  2  6  2  0  0  0  0
  3  8  1  0  0  0  0
  3  2  1  0  0  0  0
  4  9  2  0  0  0  0
  4 10  1  0  0  0  0
  5  3  2  0  0  0  0
  6  1  1  0  0  0  0
  7  5  1  0  0  0  0
  8 11  1  0  0  0  0
  9  5  1  0  0  0  0
 10  8  2  0  0  0  0
 11  1  2  0  0  0  0
 12 18  2  0  0  0  0
 14 21  1  6  0  0  0
 14 18  1  0  0  0  0
 15 13  1  6  0  0  0
 15 19  1  0  0  0  0
 16  6  1  6  0  0  0
 16 12  1  0  0  0  0
 17 20  1  0  0  0  0
 17 16  1  0  0  0  0
 19 21  1  0  0  0  0
 20 22  1  6  0  0  0
 20 14  1  0  0  0  0
 22 15  1  0  0  0  0
 23 10  1  0  0  0  0
 24 26  1  0  0  0  0
 24 28  1  0  0  0  0
 26 23  1  6  0  0  0
 26 29  1  0  0  0  0
 27 24  2  0  0  0  0
 28 25  1  0  0  0  0
 29 25  1  0  0  0  0
M  END
>  <MODEL>
8

>  <REMARK>
 VINA RESULT:      -7.6      4.067      9.557
  Name = 
  3 active torsions:
  status: ('A' for Active; 'I' for Inactive)
    1  A    between atoms: O_2  and  C_15
    2  A    between atoms: O_2  and  C_25
    3  A    between atoms: C_12  and  C_14
                            x       y       z     vdW  Elec       q    Type
                         _______ _______ _______ _____ _____    ______ ____

>  <TORSDO>
F 3

$$$$
=
 OpenBabel11062422563D

 29 33  0  0  1  0  0  0  0  0999 V2000
  191.6420  177.1650  144.8880 C   0  0  0  0  0  3  0  0  0  0  0  0
  190.2910  175.1730  144.9430 C   0  0  0  0  0  3  0  0  0  0  0  0
  191.4340  174.4010  144.7060 C   0  0  0  0  0  0  0  0  0  0  0  0
  193.7110  172.8820  144.2570 C   0  0  0  0  0  3  0  0  0  0  0  0
  191.3670  173.0030  144.6260 C   0  0  0  0  0  0  0  0  0  0  0  0
  190.3910  176.5640  145.0340 C   0  0  0  0  0  0  0  0  0  0  0  0
  190.1250  172.3190  144.7760 N   0  0  0  0  0  1  0  0  0  0  0  0
  192.6830  175.0470  144.5550 C   0  0  0  0  0  0  0  0  0  0  0  0
  192.5000  172.2860  144.4100 N   0  0  0  0  0  0  0  0  0  0  0  0
  193.8410  174.2720  144.3150 C   0  0  0  0  0  0  0  0  0  0  0  0
  192.7450  176.4040  144.6570 N   0  0  0  0  0  0  0  0  0  0  0  0
  188.6230  177.1370  146.5940 N   0  0  0  0  0  0  0  0  0  0  0  0
  183.6950  178.9560  142.9690 O   0  0  0  0  0  1  0  0  0  0  0  0
  186.6100  178.2590  145.9010 C   0  0  1  0  0  3  0  0  0  0  0  0
  184.4300  178.2850  143.9470 C   0  0  2  0  0  3  0  0  0  0  0  0
  189.1880  177.4120  145.2820 C   0  0  2  0  0  3  0  0  0  0  0  0
  188.1590  177.2720  144.1380 C   0  0  0  0  0  2  0  0  0  0  0  0
  187.4420  177.5400  146.9150 C   0  0  0  0  0  3  0  0  0  0  0  0
  184.3260  179.0410  145.2720 C   0  0  0  0  0  2  0  0  0  0  0  0
  186.7030  177.4780  144.5870 C   0  0  2  0  0  3  0  0  0  0  0  0
  185.1560  178.3480  146.3520 C   0  0  0  0  0  2  0  0  0  0  0  0
  185.8870  178.1700  143.5020 C   0  0  0  0  0  2  0  0  0  0  0  0
  195.1270  174.8090  144.1410 O   0  0  0  0  0  0  0  0  0  0  0  0
  196.1850  176.3570  142.6650 C   0  0  0  0  0  0  0  0  0  0  0  0
  195.0950  175.6640  140.4290 S   0  0  0  0  0  0  0  0  0  0  0  0
  195.7950  174.9470  142.8920 C   0  0  2  0  0  3  0  0  0  0  0  0
  196.8100  177.0470  143.5130 O   0  0  0  0  0  0  0  0  0  0  0  0
  195.8460  176.8540  141.4340 O   0  0  0  0  0  0  0  0  0  0  0  0
  194.8850  174.5560  141.8130 N   0  0  0  0  0  2  0  0  0  0  0  0
  1  6  1  0  0  0  0
  2  6  2  0  0  0  0
  3  2  1  0  0  0  0
  4 10  2  0  0  0  0
  4  9  1  0  0  0  0
  5  3  1  0  0  0  0
  5  7  1  0  0  0  0
  8 11  1  0  0  0  0
  8  3  2  0  0  0  0
  9  5  2  0  0  0  0
 10  8  1  0  0  0  0
 11  1  2  0  0  0  0
 12 18  2  0  0  0  0
 14 21  1  1  0  0  0
 14 18  1  0  0  0  0
 15 13  1  6  0  0  0
 15 19  1  0  0  0  0
 16  6  1  6  0  0  0
 16 12  1  0  0  0  0
 17 20  1  0  0  0  0
 17 16  1  0  0  0  0
 19 21  1  0  0  0  0
 20 22  1  6  0  0  0
 20 14  1  0  0  0  0
 22 15  1  0  0  0  0
 23 10  1  0  0  0  0
 24 26  1  0  0  0  0
 24 27  2  0  0  0  0
 25 28  1  0  0  0  0
 25 29  1  0  0  0  0
 26 23  1  1  0  0  0
 28 24  1  0  0  0  0
 29 26  1  0  0  0  0
M  END
>  <MODEL>
9

>  <REMARK>
 VINA RESULT:      -7.5      3.491      8.976
  Name = 
  3 active torsions:
  status: ('A' for Active; 'I' for Inactive)
    1  A    between atoms: O_2  and  C_15
    2  A    between atoms: O_2  and  C_25
    3  A    between atoms: C_12  and  C_14
                            x       y       z     vdW  Elec       q    Type
                         _______ _______ _______ _____ _____    ______ ____

>  <TORSDO>
F 3

$$$$
