=
 OpenBabel11062421293D

 66 72  0  0  1  0  0  0  0  0999 V2000
  194.0550  170.8790  143.8400 C   0  0  2  0  0  3  0  0  0  0  0  0
  193.1860  171.3630  140.7310 O   0  0  0  0  0  0  0  0  0  0  0  0
  193.0700  171.4570  144.8930 C   0  0  0  0  0  2  0  0  0  0  0  0
  192.4220  170.9460  141.9860 P   0  0  1  0  0  0  0  0  0  0  0  0
  193.4120  169.9680  142.9640 O   0  0  0  0  0  0  0  0  0  0  0  0
  191.7360  171.7970  144.1680 C   0  0  0  0  0  2  0  0  0  0  0  0
  192.0020  172.3080  142.9030 O   0  0  0  0  0  0  0  0  0  0  0  0
  196.4030  168.9660  147.4050 C   0  0  0  0  0  1  0  0  0  0  0  0
  197.7800  169.6970  145.4620 C   0  0  0  0  0  2  0  0  0  0  0  0
  195.3960  170.5010  145.8150 O   0  0  0  0  0  0  0  0  0  0  0  0
  196.5730  171.0940  143.7480 C   0  0  2  0  0  3  0  0  0  0  0  0
  195.3800  168.8250  144.1040 C   0  0  0  0  0  1  0  0  0  0  0  0
  196.6380  170.1060  146.4240 C   0  0  1  0  0  3  0  0  0  0  0  0
  195.3730  170.3200  144.4010 C   0  0  2  0  0  0  0  0  0  0  0  0
  197.9410  170.6970  144.3070 C   0  0  0  0  0  2  0  0  0  0  0  0
  195.7410  172.5320  141.1950 C   0  0  0  0  0  2  0  0  0  0  0  0
  196.7050  174.6680  141.0630 C   0  0  0  0  0  0  0  0  0  0  0  0
  195.6000  172.9010  144.8700 O   0  0  0  0  0  0  0  0  0  0  0  0
  196.3180  172.5650  143.7200 N   0  0  2  0  0  0  0  0  0  0  0  0
  195.6050  173.1830  142.5850 C   0  0  1  0  0  3  0  0  0  0  0  0
  197.3550  175.6220  140.5800 O   0  0  0  0  0  0  0  0  0  0  0  0
  196.5710  173.4140  140.4090 N   0  0  0  0  0  0  0  0  0  0  0  0
  196.8520  175.2380  143.5240 C   0  0  0  0  0  0  0  0  0  0  0  0
  194.4060  174.6370  145.9410 C   0  0  0  0  0  0  0  0  0  0  0  0
  196.4080  175.1780  144.8540 O   0  0  0  0  0  0  0  0  0  0  0  0
  195.4690  174.2450  145.2700 C   0  0  0  0  0  0  0  0  0  0  0  0
  197.9410  175.8220  143.2880 O   0  0  0  0  0  0  0  0  0  0  0  0
  196.0020  174.6770  142.3920 C   0  0  1  0  0  3  0  0  0  0  0  0
  193.3320  175.0660  146.5650 C   0  0  0  0  0  3  0  0  0  0  0  0
  192.2150  175.6240  145.8300 N   0  0  0  0  0  2  0  0  0  0  0  0
  191.4890  176.8070  146.2780 C   0  0  0  0  0  2  0  0  0  0  0  0
  191.3520  176.7370  147.7900 C   0  0  0  0  0  2  0  0  0  0  0  0
  190.6700  177.8660  148.2460 F   0  0  0  0  0  0  0  0  0  0  0  0
  197.2110  173.0480  139.1630 C   0  0  0  0  0  2  0  0  0  0  0  0
  196.2760  173.2630  138.0200 C   0  0  0  0  0  0  0  0  0  0  0  0
  196.3240  172.5030  137.0110 O   0  0  0  0  0  0  0  0  0  0  0  0
  195.2960  174.2560  138.1060 O   0  0  0  0  0  1  0  0  0  0  0  0
  190.9810  170.1380  141.5230 O   0  0  0  0  0  0  0  0  0  0  0  0
  190.0830  171.0980  140.9910 C   0  0  0  0  0  2  0  0  0  0  0  0
  189.7700  170.7420  139.5320 C   0  0  2  0  0  3  0  0  0  0  0  0
  190.6200  168.5320  139.5650 O   0  0  0  0  0  1  0  0  0  0  0  0
  191.4440  169.8770  137.8670 O   0  0  0  0  0  0  0  0  0  0  0  0
  190.6400  169.6610  139.0030 C   0  0  0  0  0  0  0  0  0  0  0  0
  189.7150  171.9510  138.5700 C   0  0  0  0  0  2  0  0  0  0  0  0
  188.3080  172.4720  138.2560 C   0  0  0  0  0  2  0  0  0  0  0  0
  188.1800  173.8210  138.8550 C   0  0  0  0  0  0  0  0  0  0  0  0
  188.2310  174.8420  138.0970 O   0  0  0  0  0  0  0  0  0  0  0  0
  188.0890  173.9340  140.2750 N   0  0  0  0  0  2  0  0  0  0  0  0
  189.8610  175.1440  141.6430 C   0  0  0  0  0  0  0  0  0  0  0  0
  187.8650  176.1980  140.9900 C   0  0  0  0  0  2  0  0  0  0  0  0
  188.5450  175.0980  140.9920 C   0  0  1  0  0  3  0  0  0  0  0  0
  188.7810  178.3720  142.0470 S   0  0  0  0  0  0  0  0  0  0  0  0
  189.1900  177.0640  143.3020 C   0  0  2  0  0  3  0  0  0  0  0  0
  187.4970  177.3990  141.2810 C   0  0  0  0  0  2  0  0  0  0  0  0
  190.1220  176.0600  142.7500 N   0  0  0  0  0  2  0  0  0  0  0  0
  190.7950  174.4490  141.1590 O   0  0  0  0  0  0  0  0  0  0  0  0
  185.9050  177.3260  147.4350 C   0  0  1  0  0  3  0  0  0  0  0  0
  185.5310  176.5720  146.1770 C   0  0  0  0  0  2  0  0  0  0  0  0
  186.7600  178.5440  144.5000 O   0  0  0  0  0  0  0  0  0  0  0  0
  188.1020  176.5280  144.2700 C   0  0  1  0  0  3  0  0  0  0  0  0
  187.7690  175.8260  146.6060 N   0  0  0  0  0  2  0  0  0  0  0  0
  188.6720  175.7590  145.4510 C   0  0  1  0  0  3  0  0  0  0  0  0
  189.1860  174.3720  145.1330 C   0  0  0  0  0  1  0  0  0  0  0  0
  186.9660  177.0230  146.3510 C   0  0  2  0  0  0  0  0  0  0  0  0
  185.4970  178.7800  147.3940 C   0  0  0  0  0  1  0  0  0  0  0  0
  187.2530  177.5240  144.9920 C   0  0  0  0  0  0  0  0  0  0  0  0
  1 14  1  0  0  0  0
  1  3  1  1  0  0  0
  4  2  2  6  0  0  0
  4  7  1  0  0  0  0
  4  5  1  0  0  0  0
  5  1  1  0  0  0  0
  6  3  1  0  0  0  0
  7  6  1  0  0  0  0
  9 13  1  0  0  0  0
 10 13  1  0  0  0  0
 11 15  1  1  0  0  0
 11 14  1  0  0  0  0
 13  8  1  1  0  0  0
 14 12  1  6  0  0  0
 14 10  1  0  0  0  0
 15  9  1  0  0  0  0
 18 26  1  0  0  0  0
 19 11  1  0  0  0  0
 19 18  1  1  0  0  0
 20 16  1  6  0  0  0
 20 19  1  0  0  0  0
 21 17  2  0  0  0  0
 22 17  1  0  0  0  0
 22 16  1  0  0  0  0
 23 25  1  0  0  0  0
 24 29  2  0  0  0  0
 25 26  1  0  0  0  0
 26 24  2  0  0  0  0
 27 23  2  0  0  0  0
 28 17  1  6  0  0  0
 28 20  1  0  0  0  0
 28 23  1  0  0  0  0
 30 31  1  0  0  0  0
 30 29  1  0  0  0  0
 31 32  1  0  0  0  0
 32 33  1  0  0  0  0
 34 22  1  0  0  0  0
 35 37  1  0  0  0  0
 35 34  1  0  0  0  0
 36 35  2  0  0  0  0
 38  4  1  0  0  0  0
 39 38  1  0  0  0  0
 40 44  1  6  0  0  0
 40 39  1  0  0  0  0
 42 43  2  0  0  0  0
 43 40  1  0  0  0  0
 43 41  1  0  0  0  0
 45 44  1  0  0  0  0
 45 46  1  0  0  0  0
 46 48  1  0  0  0  0
 47 46  2  0  0  0  0
 49 55  1  0  0  0  0
 50 51  1  0  0  0  0
 50 54  1  0  0  0  0
 51 48  1  6  0  0  0
 51 49  1  0  0  0  0
 53 52  1  6  0  0  0
 53 60  1  0  0  0  0
 54 52  1  0  0  0  0
 55 53  1  0  0  0  0
 56 49  2  0  0  0  0
 57 65  1  6  0  0  0
 58 57  1  0  0  0  0
 59 66  2  0  0  0  0
 60 66  1  1  0  0  0
 60 62  1  0  0  0  0
 62 63  1  6  0  0  0
 62 61  1  0  0  0  0
 64 58  1  6  0  0  0
 64 61  1  0  0  0  0
 64 57  1  0  0  0  0
 66 64  1  0  0  0  0
M  END
>  <MODEL>
1

>  <REMARK>
 VINA RESULT:      -7.2      0.000      0.000
  Name = 
  16 active torsions:
  status: ('A' for Active; 'I' for Inactive)
    1  A    between atoms: C_4  and  C_22
    2  A    between atoms: C_4  and  N_25
    3  A    between atoms: C_11  and  C_62
    4  A    between atoms: N_12  and  C_39
    5  A    between atoms: C_15  and  C_27
    6  A    between atoms: O_16  and  P_33
    7  A    between atoms: O_16  and  C_52
    8  A    between atoms: C_17  and  N_42
    9  A    between atoms: C_19  and  C_30
   10  A    between atoms: C_21  and  C_50
   11  A    between atoms: C_21  and  C_52
   12  A    between atoms: C_21  and  C_60
   13  A    between atoms: N_25  and  C_59
   14  A    between atoms: C_30  and  C_50
   15  A    between atoms: N_31  and  C_48
   16  A    between atoms: C_40  and  C_48
                            x       y       z     vdW  Elec       q    Type
                         _______ _______ _______ _____ _____    ______ ____

>  <TORSDO>
F 16

$$$$
=
 OpenBabel11062421293D

 66 72  0  0  1  0  0  0  0  0999 V2000
  191.8980  174.8320  143.5570 C   0  0  2  0  0  3  0  0  0  0  0  0
  192.7600  175.1730  146.6860 O   0  0  0  0  0  0  0  0  0  0  0  0
  192.0770  176.1050  142.6850 C   0  0  0  0  0  2  0  0  0  0  0  0
  193.3840  175.6210  145.3670 P   0  0  1  0  0  0  0  0  0  0  0  0
  193.1140  174.4400  144.1720 O   0  0  0  0  0  0  0  0  0  0  0  0
  192.9730  177.1040  143.4720 C   0  0  0  0  0  2  0  0  0  0  0  0
  192.6610  177.0550  144.8260 O   0  0  0  0  0  0  0  0  0  0  0  0
  191.2970  172.1670  139.7590 C   0  0  0  0  0  1  0  0  0  0  0  0
  189.6480  171.8330  141.5950 C   0  0  0  0  0  2  0  0  0  0  0  0
  191.1360  173.8870  141.4660 O   0  0  0  0  0  0  0  0  0  0  0  0
  189.7230  173.5460  143.4400 C   0  0  2  0  0  3  0  0  0  0  0  0
  192.0290  172.4140  143.1300 C   0  0  0  0  0  1  0  0  0  0  0  0
  190.3900  172.8910  140.7440 C   0  0  1  0  0  3  0  0  0  0  0  0
  191.1820  173.6550  142.8720 C   0  0  2  0  0  0  0  0  0  0  0  0
  188.8730  172.4720  142.7580 C   0  0  0  0  0  2  0  0  0  0  0  0
  187.5800  174.4240  141.4600 C   0  0  0  0  0  2  0  0  0  0  0  0
  187.7680  176.7080  140.9530 C   0  0  0  0  0  0  0  0  0  0  0  0
  188.8060  175.1540  144.8700 O   0  0  0  0  0  0  0  0  0  0  0  0
  189.0730  174.8890  143.5250 N   0  0  2  0  0  0  0  0  0  0  0  0
  187.8270  175.1690  142.7860 C   0  0  1  0  0  3  0  0  0  0  0  0
  187.8760  177.7370  140.2490 O   0  0  0  0  0  0  0  0  0  0  0  0
  187.7460  175.3970  140.4070 N   0  0  0  0  0  0  0  0  0  0  0  0
  188.7090  177.5690  143.1390 C   0  0  0  0  0  0  0  0  0  0  0  0
  187.6960  176.6310  146.3440 C   0  0  0  0  0  0  0  0  0  0  0  0
  188.8630  177.5460  144.5330 O   0  0  0  0  0  0  0  0  0  0  0  0
  188.4700  176.4540  145.2940 C   0  0  0  0  0  0  0  0  0  0  0  0
  189.4020  178.3850  142.4770 O   0  0  0  0  0  0  0  0  0  0  0  0
  187.6760  176.6840  142.4530 C   0  0  1  0  0  3  0  0  0  0  0  0
  186.8830  176.8340  147.3560 C   0  0  0  0  0  3  0  0  0  0  0  0
  185.4590  176.9980  147.1480 N   0  0  0  0  0  2  0  0  0  0  0  0
  184.8970  177.4880  145.8940 C   0  0  0  0  0  2  0  0  0  0  0  0
  184.6120  178.9730  146.0490 C   0  0  0  0  0  2  0  0  0  0  0  0
  185.2920  179.4620  147.1650 F   0  0  0  0  0  0  0  0  0  0  0  0
  187.9160  175.0720  139.0060 C   0  0  0  0  0  2  0  0  0  0  0  0
  187.0010  175.9020  138.1680 C   0  0  0  0  0  0  0  0  0  0  0  0
  187.3320  176.2170  136.9900 O   0  0  0  0  0  0  0  0  0  0  0  0
  185.7430  176.2590  138.6650 O   0  0  0  0  0  1  0  0  0  0  0  0
  195.0570  175.9150  145.6080 O   0  0  0  0  0  0  0  0  0  0  0  0
  195.7640  174.7190  145.3250 C   0  0  0  0  0  2  0  0  0  0  0  0
  196.9220  175.0300  144.3690 C   0  0  2  0  0  3  0  0  0  0  0  0
  196.9270  177.2510  143.5470 O   0  0  0  0  0  1  0  0  0  0  0  0
  195.8900  175.6990  142.1750 O   0  0  0  0  0  0  0  0  0  0  0  0
  196.5710  176.0570  143.3550 C   0  0  0  0  0  0  0  0  0  0  0  0
  197.5750  173.7880  143.7200 C   0  0  0  0  0  2  0  0  0  0  0  0
  196.9860  172.4400  144.1510 C   0  0  0  0  0  2  0  0  0  0  0  0
  196.5360  171.7310  142.9310 C   0  0  0  0  0  0  0  0  0  0  0  0
  196.9200  170.5330  142.7340 O   0  0  0  0  0  0  0  0  0  0  0  0
  195.7550  172.4440  141.9720 N   0  0  0  0  0  2  0  0  0  0  0  0
  196.7440  172.6950  139.6410 C   0  0  0  0  0  0  0  0  0  0  0  0
  194.9780  171.2110  140.0860 C   0  0  0  0  0  2  0  0  0  0  0  0
  195.7620  172.1190  140.5680 C   0  0  1  0  0  3  0  0  0  0  0  0
  195.1480  170.4250  137.6280 S   0  0  0  0  0  0  0  0  0  0  0  0
  195.2700  172.2760  137.5110 C   0  0  2  0  0  3  0  0  0  0  0  0
  194.3670  170.4640  139.2320 C   0  0  0  0  0  2  0  0  0  0  0  0
  196.4680  172.7830  138.2110 N   0  0  0  0  0  2  0  0  0  0  0  0
  197.8770  173.0190  140.0920 O   0  0  0  0  0  0  0  0  0  0  0  0
  191.0410  174.8020  135.5940 C   0  0  1  0  0  3  0  0  0  0  0  0
  191.0300  174.1810  136.9750 C   0  0  0  0  0  2  0  0  0  0  0  0
  192.5530  171.9220  136.0880 O   0  0  0  0  0  0  0  0  0  0  0  0
  193.9970  173.1600  137.6030 C   0  0  1  0  0  3  0  0  0  0  0  0
  193.1180  175.3590  136.9300 N   0  0  0  0  0  2  0  0  0  0  0  0
  194.2860  174.6460  137.4640 C   0  0  1  0  0  3  0  0  0  0  0  0
  194.9230  175.2990  138.6710 C   0  0  0  0  0  1  0  0  0  0  0  0
  192.3530  174.3120  136.2490 C   0  0  2  0  0  0  0  0  0  0  0  0
  190.5930  173.8460  134.5140 C   0  0  0  0  0  1  0  0  0  0  0  0
  192.9510  172.9950  136.5500 C   0  0  0  0  0  0  0  0  0  0  0  0
  1  3  1  6  0  0  0
  1  5  1  0  0  0  0
  3  6  1  0  0  0  0
  4 38  1  0  0  0  0
  4  2  2  1  0  0  0
  5  4  1  0  0  0  0
  6  7  1  0  0  0  0
  7  4  1  0  0  0  0
  9 15  1  0  0  0  0
 10 14  1  0  0  0  0
 11 15  1  6  0  0  0
 11 19  1  0  0  0  0
 13  8  1  6  0  0  0
 13 10  1  0  0  0  0
 13  9  1  0  0  0  0
 14 12  1  1  0  0  0
 14 11  1  0  0  0  0
 14  1  1  0  0  0  0
 18 26  1  0  0  0  0
 19 18  1  1  0  0  0
 20 16  1  6  0  0  0
 20 19  1  0  0  0  0
 21 17  2  0  0  0  0
 22 17  1  0  0  0  0
 22 16  1  0  0  0  0
 23 25  1  0  0  0  0
 24 29  2  0  0  0  0
 25 26  1  0  0  0  0
 26 24  2  0  0  0  0
 27 23  2  0  0  0  0
 28 17  1  6  0  0  0
 28 20  1  0  0  0  0
 28 23  1  0  0  0  0
 30 29  1  0  0  0  0
 31 32  1  0  0  0  0
 31 30  1  0  0  0  0
 32 33  1  0  0  0  0
 34 22  1  0  0  0  0
 35 37  1  0  0  0  0
 35 34  1  0  0  0  0
 36 35  2  0  0  0  0
 39 38  1  0  0  0  0
 40 44  1  6  0  0  0
 40 39  1  0  0  0  0
 42 43  2  0  0  0  0
 43 41  1  0  0  0  0
 43 40  1  0  0  0  0
 44 45  1  0  0  0  0
 46 45  1  0  0  0  0
 47 46  2  0  0  0  0
 48 46  1  0  0  0  0
 49 56  2  0  0  0  0
 49 51  1  0  0  0  0
 50 51  1  0  0  0  0
 51 48  1  1  0  0  0
 52 54  1  0  0  0  0
 53 60  1  0  0  0  0
 53 52  1  1  0  0  0
 53 55  1  0  0  0  0
 54 50  1  0  0  0  0
 55 49  1  0  0  0  0
 57 65  1  6  0  0  0
 57 64  1  0  0  0  0
 57 58  1  0  0  0  0
 59 66  2  0  0  0  0
 60 66  1  6  0  0  0
 61 62  1  0  0  0  0
 62 60  1  0  0  0  0
 62 63  1  1  0  0  0
 64 66  1  0  0  0  0
 64 61  1  0  0  0  0
 64 58  1  1  0  0  0
M  END
>  <MODEL>
2

>  <REMARK>
 VINA RESULT:      -7.0      2.946      8.830
  Name = 
  16 active torsions:
  status: ('A' for Active; 'I' for Inactive)
    1  A    between atoms: C_4  and  C_22
    2  A    between atoms: C_4  and  N_25
    3  A    between atoms: C_11  and  C_62
    4  A    between atoms: N_12  and  C_39
    5  A    between atoms: C_15  and  C_27
    6  A    between atoms: O_16  and  P_33
    7  A    between atoms: O_16  and  C_52
    8  A    between atoms: C_17  and  N_42
    9  A    between atoms: C_19  and  C_30
   10  A    between atoms: C_21  and  C_50
   11  A    between atoms: C_21  and  C_52
   12  A    between atoms: C_21  and  C_60
   13  A    between atoms: N_25  and  C_59
   14  A    between atoms: C_30  and  C_50
   15  A    between atoms: N_31  and  C_48
   16  A    between atoms: C_40  and  C_48
                            x       y       z     vdW  Elec       q    Type
                         _______ _______ _______ _____ _____    ______ ____

>  <TORSDO>
F 16

$$$$
=
 OpenBabel11062421293D

 66 72  0  0  1  0  0  0  0  0999 V2000
  192.1220  173.0980  141.4960 C   0  0  2  0  0  3  0  0  0  0  0  0
  193.8620  171.8810  143.9750 O   0  0  0  0  0  0  0  0  0  0  0  0
  192.8240  174.2300  140.6970 C   0  0  0  0  0  2  0  0  0  0  0  0
  194.2050  172.2740  142.5400 P   0  0  1  0  0  0  0  0  0  0  0  0
  192.8960  171.9110  141.5160 O   0  0  0  0  0  0  0  0  0  0  0  0
  194.3330  174.2240  141.0780 C   0  0  0  0  0  2  0  0  0  0  0  0
  194.4770  173.9430  142.4320 O   0  0  0  0  0  0  0  0  0  0  0  0
  188.7640  173.0380  138.2400 C   0  0  0  0  0  1  0  0  0  0  0  0
  188.0060  172.7190  140.5910 C   0  0  0  0  0  2  0  0  0  0  0  0
  190.2940  173.6640  140.0190 O   0  0  0  0  0  0  0  0  0  0  0  0
  189.7450  173.1700  142.3570 C   0  0  2  0  0  3  0  0  0  0  0  0
  190.5670  171.3780  140.6810 C   0  0  0  0  0  1  0  0  0  0  0  0
  188.9040  173.5690  139.6600 C   0  0  1  0  0  3  0  0  0  0  0  0
  190.6540  172.8340  141.1210 C   0  0  2  0  0  0  0  0  0  0  0  0
  188.2470  173.0450  142.0730 C   0  0  0  0  0  2  0  0  0  0  0  0
  187.8340  175.5340  142.5570 C   0  0  0  0  0  2  0  0  0  0  0  0
  188.9620  177.5720  142.2690 C   0  0  0  0  0  0  0  0  0  0  0  0
  190.8740  174.1600  144.1500 O   0  0  0  0  0  0  0  0  0  0  0  0
  190.1510  174.4590  142.9940 N   0  0  2  0  0  0  0  0  0  0  0  0
  189.1360  175.4580  143.3790 C   0  0  1  0  0  3  0  0  0  0  0  0
  189.2230  178.6980  141.7890 O   0  0  0  0  0  0  0  0  0  0  0  0
  187.9070  176.7520  141.7860 N   0  0  0  0  0  0  0  0  0  0  0  0
  191.2270  176.9600  143.2150 C   0  0  0  0  0  0  0  0  0  0  0  0
  191.8340  175.0910  146.0990 C   0  0  0  0  0  0  0  0  0  0  0  0
  192.0750  176.2550  144.0830 O   0  0  0  0  0  0  0  0  0  0  0  0
  191.6350  175.1520  144.7990 C   0  0  0  0  0  0  0  0  0  0  0  0
  191.7530  177.6880  142.3320 O   0  0  0  0  0  0  0  0  0  0  0  0
  189.7150  176.9040  143.3850 C   0  0  1  0  0  3  0  0  0  0  0  0
  192.0030  175.0820  147.4020 C   0  0  0  0  0  3  0  0  0  0  0  0
  191.1040  175.8080  148.2760 N   0  0  0  0  0  2  0  0  0  0  0  0
  191.2740  177.2240  148.5820 C   0  0  0  0  0  2  0  0  0  0  0  0
  190.0920  177.9820  148.0000 C   0  0  0  0  0  2  0  0  0  0  0  0
  189.9630  177.6700  146.6460 F   0  0  0  0  0  0  0  0  0  0  0  0
  187.0590  177.0610  140.6540 C   0  0  0  0  0  2  0  0  0  0  0  0
  185.8920  177.8810  141.0910 C   0  0  0  0  0  0  0  0  0  0  0  0
  184.9000  178.0320  140.3230 O   0  0  0  0  0  0  0  0  0  0  0  0
  185.8670  178.4130  142.3840 O   0  0  0  0  0  1  0  0  0  0  0  0
  195.6370  171.4580  142.0620 O   0  0  0  0  0  0  0  0  0  0  0  0
  195.5730  170.1260  142.5440 C   0  0  0  0  0  2  0  0  0  0  0  0
  194.9040  169.2380  141.4880 C   0  0  2  0  0  3  0  0  0  0  0  0
  193.5650  168.3520  143.2280 O   0  0  0  0  0  1  0  0  0  0  0  0
  192.6350  168.2210  141.1100 O   0  0  0  0  0  0  0  0  0  0  0  0
  193.6770  168.5690  141.9920 C   0  0  0  0  0  0  0  0  0  0  0  0
  195.8530  168.2370  140.7910 C   0  0  0  0  0  2  0  0  0  0  0  0
  197.0620  168.8660  140.0880 C   0  0  0  0  0  2  0  0  0  0  0  0
  196.6320  169.2840  138.7340 C   0  0  0  0  0  0  0  0  0  0  0  0
  196.6690  170.5190  138.4270 O   0  0  0  0  0  0  0  0  0  0  0  0
  196.1080  168.2970  137.8460 N   0  0  0  0  0  2  0  0  0  0  0  0
  195.5620  168.8430  135.4210 C   0  0  0  0  0  0  0  0  0  0  0  0
  193.8810  168.5790  137.0420 C   0  0  0  0  0  2  0  0  0  0  0  0
  195.1530  168.6100  136.8130 C   0  0  1  0  0  3  0  0  0  0  0  0
  192.1450  168.8800  135.1500 S   0  0  0  0  0  0  0  0  0  0  0  0
  193.4030  170.2050  134.8110 C   0  0  2  0  0  3  0  0  0  0  0  0
  192.6120  168.7150  136.8640 C   0  0  0  0  0  2  0  0  0  0  0  0
  194.7290  169.6260  134.5130 N   0  0  0  0  0  2  0  0  0  0  0  0
  196.5980  168.2650  134.9960 O   0  0  0  0  0  0  0  0  0  0  0  0
  191.8130  175.1070  135.9820 C   0  0  1  0  0  3  0  0  0  0  0  0
  192.2280  174.1340  137.0640 C   0  0  0  0  0  2  0  0  0  0  0  0
  191.0030  171.9310  135.7000 O   0  0  0  0  0  0  0  0  0  0  0  0
  193.4000  171.5260  135.6250 C   0  0  1  0  0  3  0  0  0  0  0  0
  193.9780  173.9120  135.4400 N   0  0  0  0  0  2  0  0  0  0  0  0
  194.4090  172.5450  135.1220 C   0  0  1  0  0  3  0  0  0  0  0  0
  195.8540  172.2480  135.4590 C   0  0  0  0  0  1  0  0  0  0  0  0
  192.5310  173.7860  135.6210 C   0  0  2  0  0  0  0  0  0  0  0  0
  190.3420  175.0270  135.6480 C   0  0  0  0  0  1  0  0  0  0  0  0
  192.1590  172.3570  135.6100 C   0  0  0  0  0  0  0  0  0  0  0  0
  1  3  1  6  0  0  0
  1  5  1  0  0  0  0
  3  6  1  0  0  0  0
  4  2  2  1  0  0  0
  5  4  1  0  0  0  0
  6  7  1  0  0  0  0
  7  4  1  0  0  0  0
  9 15  1  0  0  0  0
 10 14  1  0  0  0  0
 11 15  1  6  0  0  0
 11 19  1  0  0  0  0
 13  8  1  6  0  0  0
 13 10  1  0  0  0  0
 13  9  1  0  0  0  0
 14 12  1  6  0  0  0
 14  1  1  0  0  0  0
 14 11  1  0  0  0  0
 18 26  1  0  0  0  0
 19 20  1  0  0  0  0
 19 18  1  1  0  0  0
 20 16  1  6  0  0  0
 20 28  1  0  0  0  0
 21 17  2  0  0  0  0
 22 17  1  0  0  0  0
 22 16  1  0  0  0  0
 23 28  1  0  0  0  0
 23 25  1  0  0  0  0
 24 29  2  0  0  0  0
 25 26  1  0  0  0  0
 26 24  2  0  0  0  0
 27 23  2  0  0  0  0
 28 17  1  6  0  0  0
 29 30  1  0  0  0  0
 30 31  1  0  0  0  0
 32 31  1  0  0  0  0
 33 32  1  0  0  0  0
 34 35  1  0  0  0  0
 34 22  1  0  0  0  0
 35 37  1  0  0  0  0
 36 35  2  0  0  0  0
 38  4  1  0  0  0  0
 38 39  1  0  0  0  0
 40 44  1  1  0  0  0
 40 43  1  0  0  0  0
 40 39  1  0  0  0  0
 42 43  2  0  0  0  0
 43 41  1  0  0  0  0
 45 44  1  0  0  0  0
 46 45  1  0  0  0  0
 47 46  2  0  0  0  0
 48 46  1  0  0  0  0
 49 51  1  0  0  0  0
 51 50  1  0  0  0  0
 51 48  1  6  0  0  0
 52 54  1  0  0  0  0
 53 55  1  1  0  0  0
 53 52  1  0  0  0  0
 53 60  1  0  0  0  0
 54 50  1  0  0  0  0
 55 49  1  0  0  0  0
 56 49  2  0  0  0  0
 57 65  1  6  0  0  0
 57 58  1  0  0  0  0
 60 66  1  6  0  0  0
 61 64  1  0  0  0  0
 62 61  1  0  0  0  0
 62 63  1  1  0  0  0
 62 60  1  0  0  0  0
 64 57  1  0  0  0  0
 64 58  1  1  0  0  0
 66 64  1  0  0  0  0
 66 59  2  0  0  0  0
M  END
>  <MODEL>
3

>  <REMARK>
 VINA RESULT:      -6.7      3.462      8.726
  Name = 
  16 active torsions:
  status: ('A' for Active; 'I' for Inactive)
    1  A    between atoms: C_4  and  C_22
    2  A    between atoms: C_4  and  N_25
    3  A    between atoms: C_11  and  C_62
    4  A    between atoms: N_12  and  C_39
    5  A    between atoms: C_15  and  C_27
    6  A    between atoms: O_16  and  P_33
    7  A    between atoms: O_16  and  C_52
    8  A    between atoms: C_17  and  N_42
    9  A    between atoms: C_19  and  C_30
   10  A    between atoms: C_21  and  C_50
   11  A    between atoms: C_21  and  C_52
   12  A    between atoms: C_21  and  C_60
   13  A    between atoms: N_25  and  C_59
   14  A    between atoms: C_30  and  C_50
   15  A    between atoms: N_31  and  C_48
   16  A    between atoms: C_40  and  C_48
                            x       y       z     vdW  Elec       q    Type
                         _______ _______ _______ _____ _____    ______ ____

>  <TORSDO>
F 16

$$$$
=
 OpenBabel11062421293D

 66 72  0  0  1  0  0  0  0  0999 V2000
  194.4770  169.9260  141.7030 C   0  0  2  0  0  3  0  0  0  0  0  0
  191.2620  170.2770  142.1360 O   0  0  0  0  0  0  0  0  0  0  0  0
  194.8880  169.2340  140.3750 C   0  0  0  0  0  2  0  0  0  0  0  0
  192.1910  170.4750  140.9410 P   0  0  1  0  0  0  0  0  0  0  0  0
  193.6890  171.0820  141.4720 O   0  0  0  0  0  0  0  0  0  0  0  0
  193.6480  169.2240  139.4340 C   0  0  0  0  0  2  0  0  0  0  0  0
  192.4950  168.9940  140.1760 O   0  0  0  0  0  0  0  0  0  0  0  0
  195.8610  170.8230  146.0810 C   0  0  0  0  0  1  0  0  0  0  0  0
  197.6180  171.0050  144.3250 C   0  0  0  0  0  2  0  0  0  0  0  0
  195.1400  170.9940  143.7680 O   0  0  0  0  0  0  0  0  0  0  0  0
  196.7830  170.9360  141.9500 C   0  0  2  0  0  3  0  0  0  0  0  0
  196.0360  168.8320  143.2580 C   0  0  0  0  0  1  0  0  0  0  0  0
  196.1650  171.3850  144.6990 C   0  0  1  0  0  3  0  0  0  0  0  0
  195.6230  170.1870  142.6970 C   0  0  2  0  0  0  0  0  0  0  0  0
  197.9410  171.3450  142.8620 C   0  0  0  0  0  2  0  0  0  0  0  0
  197.3390  173.8670  142.5650 C   0  0  0  0  0  2  0  0  0  0  0  0
  195.4850  175.2140  142.0590 C   0  0  0  0  0  0  0  0  0  0  0  0
  196.4070  171.6530  139.7560 O   0  0  0  0  0  0  0  0  0  0  0  0
  196.2530  172.0360  141.0900 N   0  0  2  0  0  0  0  0  0  0  0  0
  196.7950  173.4040  141.2000 C   0  0  1  0  0  3  0  0  0  0  0  0
  194.5750  176.0540  142.2390 O   0  0  0  0  0  0  0  0  0  0  0  0
  196.3870  174.8210  143.0830 N   0  0  0  0  0  0  0  0  0  0  0  0
  194.4980  173.9000  140.1360 C   0  0  0  0  0  0  0  0  0  0  0  0
  196.2630  172.4080  137.5200 C   0  0  0  0  0  0  0  0  0  0  0  0
  194.5840  173.0560  139.0180 O   0  0  0  0  0  0  0  0  0  0  0  0
  195.7390  172.3440  138.7270 C   0  0  0  0  0  0  0  0  0  0  0  0
  193.3530  174.2120  140.5560 O   0  0  0  0  0  0  0  0  0  0  0  0
  195.7520  174.4800  140.7750 C   0  0  1  0  0  3  0  0  0  0  0  0
  196.7890  172.5310  136.3220 C   0  0  0  0  0  3  0  0  0  0  0  0
  197.6030  173.6800  135.9800 N   0  0  0  0  0  2  0  0  0  0  0  0
  197.1090  175.0500  136.0680 C   0  0  0  0  0  2  0  0  0  0  0  0
  197.6120  175.8160  134.8550 C   0  0  0  0  0  2  0  0  0  0  0  0
  196.9080  177.0150  134.7400 F   0  0  0  0  0  0  0  0  0  0  0  0
  196.3350  175.2660  144.4600 C   0  0  0  0  0  2  0  0  0  0  0  0
  194.9470  175.1360  144.9930 C   0  0  0  0  0  0  0  0  0  0  0  0
  194.4490  173.9920  145.1900 O   0  0  0  0  0  0  0  0  0  0  0  0
  194.2330  176.2850  145.3470 O   0  0  0  0  0  1  0  0  0  0  0  0
  191.4400  171.5260  139.8120 O   0  0  0  0  0  0  0  0  0  0  0  0
  190.6370  170.7440  138.9430 C   0  0  0  0  0  2  0  0  0  0  0  0
  189.5330  171.6260  138.3450 C   0  0  2  0  0  3  0  0  0  0  0  0
  189.4500  172.9970  136.4170 O   0  0  0  0  0  0  0  0  0  0  0  0
  191.2170  173.4280  137.8530 O   0  0  0  0  0  1  0  0  0  0  0  0
  190.0660  172.7070  137.4780 C   0  0  0  0  0  0  0  0  0  0  0  0
  188.5140  172.1690  139.3720 C   0  0  0  0  0  2  0  0  0  0  0  0
  188.4390  173.6980  139.4710 C   0  0  0  0  0  2  0  0  0  0  0  0
  188.6680  174.0730  140.8860 C   0  0  0  0  0  0  0  0  0  0  0  0
  187.6650  174.2600  141.6460 O   0  0  0  0  0  0  0  0  0  0  0  0
  190.0070  174.2960  141.3270 N   0  0  0  0  0  2  0  0  0  0  0  0
  191.1920  174.7830  143.5250 C   0  0  0  0  0  0  0  0  0  0  0  0
  189.9710  176.4330  142.3830 C   0  0  0  0  0  2  0  0  0  0  0  0
  190.3290  175.1910  142.4090 C   0  0  1  0  0  3  0  0  0  0  0  0
  190.7540  178.1190  144.1800 S   0  0  0  0  0  0  0  0  0  0  0  0
  190.2730  176.6160  145.1620 C   0  0  2  0  0  3  0  0  0  0  0  0
  189.7750  177.6490  142.7650 C   0  0  0  0  0  2  0  0  0  0  0  0
  191.1180  175.4540  144.8190 N   0  0  0  0  0  2  0  0  0  0  0  0
  192.0740  173.9070  143.3120 O   0  0  0  0  0  0  0  0  0  0  0  0
  185.3420  177.8190  146.6360 C   0  0  1  0  0  3  0  0  0  0  0  0
  185.6160  176.7670  145.5830 C   0  0  0  0  0  2  0  0  0  0  0  0
  187.7730  178.2890  144.4690 O   0  0  0  0  0  0  0  0  0  0  0  0
  188.7820  176.3130  145.4650 C   0  0  1  0  0  3  0  0  0  0  0  0
  187.1690  176.2060  147.3210 N   0  0  0  0  0  2  0  0  0  0  0  0
  188.5350  175.8760  146.9000 C   0  0  1  0  0  3  0  0  0  0  0  0
  188.9730  174.4650  147.2320 C   0  0  0  0  0  1  0  0  0  0  0  0
  186.7740  177.2820  146.4110 C   0  0  2  0  0  0  0  0  0  0  0  0
  185.1930  179.2070  146.0590 C   0  0  0  0  0  1  0  0  0  0  0  0
  187.8020  177.4360  145.3610 C   0  0  0  0  0  0  0  0  0  0  0  0
  1  3  1  6  0  0  0
  1 14  1  0  0  0  0
  4  5  1  0  0  0  0
  4  2  2  1  0  0  0
  5  1  1  0  0  0  0
  6  7  1  0  0  0  0
  6  3  1  0  0  0  0
  7  4  1  0  0  0  0
  9 13  1  0  0  0  0
 10 13  1  0  0  0  0
 11 14  1  0  0  0  0
 11 15  1  1  0  0  0
 13  8  1  1  0  0  0
 14 12  1  1  0  0  0
 14 10  1  0  0  0  0
 15  9  1  0  0  0  0
 16 22  1  0  0  0  0
 17 21  2  0  0  0  0
 17 22  1  0  0  0  0
 19 18  1  6  0  0  0
 19 20  1  0  0  0  0
 19 11  1  0  0  0  0
 20 16  1  1  0  0  0
 22 34  1  0  0  0  0
 23 27  2  0  0  0  0
 24 26  2  0  0  0  0
 25 23  1  0  0  0  0
 26 25  1  0  0  0  0
 26 18  1  0  0  0  0
 28 23  1  1  0  0  0
 28 20  1  0  0  0  0
 28 17  1  0  0  0  0
 29 24  2  0  0  0  0
 30 31  1  0  0  0  0
 30 29  1  0  0  0  0
 32 31  1  0  0  0  0
 33 32  1  0  0  0  0
 34 35  1  0  0  0  0
 35 36  2  0  0  0  0
 35 37  1  0  0  0  0
 38  4  1  0  0  0  0
 39 38  1  0  0  0  0
 40 39  1  1  0  0  0
 40 44  1  0  0  0  0
 41 43  2  0  0  0  0
 43 42  1  0  0  0  0
 43 40  1  0  0  0  0
 44 45  1  0  0  0  0
 45 46  1  0  0  0  0
 46 48  1  0  0  0  0
 46 47  2  0  0  0  0
 49 55  1  0  0  0  0
 50 51  1  0  0  0  0
 50 54  1  0  0  0  0
 51 48  1  6  0  0  0
 51 49  1  0  0  0  0
 53 52  1  6  0  0  0
 53 60  1  0  0  0  0
 54 52  1  0  0  0  0
 55 53  1  0  0  0  0
 56 49  2  0  0  0  0
 57 65  1  6  0  0  0
 58 57  1  0  0  0  0
 59 66  2  0  0  0  0
 60 66  1  1  0  0  0
 60 62  1  0  0  0  0
 62 63  1  6  0  0  0
 62 61  1  0  0  0  0
 64 58  1  6  0  0  0
 64 57  1  0  0  0  0
 64 61  1  0  0  0  0
 66 64  1  0  0  0  0
M  END
>  <MODEL>
4

>  <REMARK>
 VINA RESULT:      -6.5      2.659      4.944
  Name = 
  16 active torsions:
  status: ('A' for Active; 'I' for Inactive)
    1  A    between atoms: C_4  and  C_22
    2  A    between atoms: C_4  and  N_25
    3  A    between atoms: C_11  and  C_62
    4  A    between atoms: N_12  and  C_39
    5  A    between atoms: C_15  and  C_27
    6  A    between atoms: O_16  and  P_33
    7  A    between atoms: O_16  and  C_52
    8  A    between atoms: C_17  and  N_42
    9  A    between atoms: C_19  and  C_30
   10  A    between atoms: C_21  and  C_50
   11  A    between atoms: C_21  and  C_52
   12  A    between atoms: C_21  and  C_60
   13  A    between atoms: N_25  and  C_59
   14  A    between atoms: C_30  and  C_50
   15  A    between atoms: N_31  and  C_48
   16  A    between atoms: C_40  and  C_48
                            x       y       z     vdW  Elec       q    Type
                         _______ _______ _______ _____ _____    ______ ____

>  <TORSDO>
F 16

$$$$
=
 OpenBabel11062421293D

 66 72  0  0  1  0  0  0  0  0999 V2000
  195.8010  172.5020  141.1760 C   0  0  2  0  0  3  0  0  0  0  0  0
  193.5440  174.8580  141.2070 O   0  0  0  0  0  0  0  0  0  0  0  0
  197.2480  172.9840  140.8800 C   0  0  0  0  0  2  0  0  0  0  0  0
  194.9610  174.7500  141.7650 P   0  0  1  0  0  0  0  0  0  0  0  0
  195.2470  173.1620  142.3020 O   0  0  0  0  0  0  0  0  0  0  0  0
  197.2810  174.5310  141.0400 C   0  0  0  0  0  2  0  0  0  0  0  0
  196.1000  175.0820  140.5560 O   0  0  0  0  0  0  0  0  0  0  0  0
  197.6860  168.2380  141.5570 C   0  0  0  0  0  1  0  0  0  0  0  0
  195.2670  168.3090  140.9700 C   0  0  0  0  0  2  0  0  0  0  0  0
  196.7810  170.3360  140.7360 O   0  0  0  0  0  0  0  0  0  0  0  0
  194.3710  170.5820  140.3590 C   0  0  2  0  0  3  0  0  0  0  0  0
  195.4520  170.6120  142.7100 C   0  0  0  0  0  1  0  0  0  0  0  0
  196.6600  168.9050  140.6520 C   0  0  1  0  0  3  0  0  0  0  0  0
  195.6100  170.9770  141.2380 C   0  0  2  0  0  0  0  0  0  0  0  0
  194.1410  169.0730  140.2570 C   0  0  0  0  0  2  0  0  0  0  0  0
  192.0790  172.3870  139.4820 C   0  0  0  0  0  2  0  0  0  0  0  0
  191.6920  172.2180  137.1730 C   0  0  0  0  0  0  0  0  0  0  0  0
  195.6740  171.8050  138.8490 O   0  0  0  0  0  0  0  0  0  0  0  0
  194.3880  171.2970  139.0470 N   0  0  2  0  0  0  0  0  0  0  0  0
  193.4530  172.4070  138.7840 C   0  0  1  0  0  3  0  0  0  0  0  0
  191.0540  172.0360  136.1120 O   0  0  0  0  0  0  0  0  0  0  0  0
  191.1050  172.0850  138.4590 N   0  0  0  0  0  0  0  0  0  0  0  0
  194.0370  171.7100  136.3690 C   0  0  0  0  0  0  0  0  0  0  0  0
  196.9820  173.2200  137.4790 C   0  0  0  0  0  0  0  0  0  0  0  0
  195.4350  171.7990  136.4450 O   0  0  0  0  0  0  0  0  0  0  0  0
  196.0780  172.2670  137.5810 C   0  0  0  0  0  0  0  0  0  0  0  0
  193.5360  170.9500  135.5000 O   0  0  0  0  0  0  0  0  0  0  0  0
  193.1510  172.5670  137.2640 C   0  0  1  0  0  3  0  0  0  0  0  0
  197.8420  174.2040  137.3500 C   0  0  0  0  0  3  0  0  0  0  0  0
  197.3930  175.5770  137.2330 N   0  0  0  0  0  2  0  0  0  0  0  0
  197.0680  176.1920  135.9510 C   0  0  0  0  0  2  0  0  0  0  0  0
  195.5720  176.4560  135.9160 C   0  0  0  0  0  2  0  0  0  0  0  0
  195.3430  177.7790  135.5330 F   0  0  0  0  0  0  0  0  0  0  0  0
  189.7450  171.6610  138.7190 C   0  0  0  0  0  2  0  0  0  0  0  0
  189.0180  172.7060  139.4980 C   0  0  0  0  0  0  0  0  0  0  0  0
  188.6380  172.4660  140.6790 O   0  0  0  0  0  1  0  0  0  0  0  0
  188.8300  173.9750  138.9430 O   0  0  0  0  0  0  0  0  0  0  0  0
  195.1570  175.8970  143.0260 O   0  0  0  0  0  0  0  0  0  0  0  0
  196.4560  175.7380  143.5740 C   0  0  0  0  0  2  0  0  0  0  0  0
  196.3370  175.2460  145.0210 C   0  0  2  0  0  3  0  0  0  0  0  0
  197.7030  173.4490  144.3070 O   0  0  0  0  0  0  0  0  0  0  0  0
  197.1870  173.4530  146.5660 O   0  0  0  0  0  1  0  0  0  0  0  0
  197.1000  173.9960  145.2690 C   0  0  0  0  0  0  0  0  0  0  0  0
  194.8880  175.1430  145.5510 C   0  0  0  0  0  2  0  0  0  0  0  0
  194.3060  173.7250  145.5900 C   0  0  0  0  0  2  0  0  0  0  0  0
  192.9450  173.7770  145.0080 C   0  0  0  0  0  0  0  0  0  0  0  0
  192.6260  172.9390  144.1050 O   0  0  0  0  0  0  0  0  0  0  0  0
  192.0640  174.8220  145.4190 N   0  0  0  0  0  2  0  0  0  0  0  0
  191.0480  176.7140  144.0540 C   0  0  0  0  0  0  0  0  0  0  0  0
  190.0790  174.5750  144.1220 C   0  0  0  0  0  2  0  0  0  0  0  0
  191.0210  175.3390  144.5690 C   0  0  1  0  0  3  0  0  0  0  0  0
  188.3490  175.4100  142.3920 S   0  0  0  0  0  0  0  0  0  0  0  0
  188.4620  176.8060  143.6130 C   0  0  2  0  0  3  0  0  0  0  0  0
  188.9920  174.2030  143.5370 C   0  0  0  0  0  2  0  0  0  0  0  0
  189.8200  177.3880  143.6430 N   0  0  0  0  0  2  0  0  0  0  0  0
  192.1670  177.2670  143.8780 O   0  0  0  0  0  0  0  0  0  0  0  0
  184.8770  178.2770  147.2070 C   0  0  1  0  0  3  0  0  0  0  0  0
  185.2840  176.8280  147.0470 C   0  0  0  0  0  2  0  0  0  0  0  0
  185.4430  177.0750  144.1970 O   0  0  0  0  0  0  0  0  0  0  0  0
  187.7210  176.7280  144.9750 C   0  0  1  0  0  3  0  0  0  0  0  0
  187.3870  177.9810  147.0680 N   0  0  0  0  0  2  0  0  0  0  0  0
  188.3740  177.5640  146.0640 C   0  0  1  0  0  3  0  0  0  0  0  0
  189.6530  176.9960  146.6380 C   0  0  0  0  0  1  0  0  0  0  0  0
  186.1100  177.8940  146.3570 C   0  0  2  0  0  0  0  0  0  0  0  0
  183.7150  178.6640  146.3220 C   0  0  0  0  0  1  0  0  0  0  0  0
  186.3240  177.2520  145.0440 C   0  0  0  0  0  0  0  0  0  0  0  0
  1  3  1  1  0  0  0
  1 14  1  0  0  0  0
  1  5  1  0  0  0  0
  3  6  1  0  0  0  0
  4  2  2  6  0  0  0
  4  5  1  0  0  0  0
  4 38  1  0  0  0  0
  7  6  1  0  0  0  0
  7  4  1  0  0  0  0
 10 14  1  0  0  0  0
 11 15  1  6  0  0  0
 11 14  1  0  0  0  0
 13 10  1  0  0  0  0
 13  9  1  0  0  0  0
 13  8  1  1  0  0  0
 14 12  1  1  0  0  0
 15  9  1  0  0  0  0
 17 28  1  0  0  0  0
 17 22  1  0  0  0  0
 19 18  1  1  0  0  0
 19 11  1  0  0  0  0
 20 19  1  0  0  0  0
 20 16  1  1  0  0  0
 21 17  2  0  0  0  0
 22 34  1  0  0  0  0
 22 16  1  0  0  0  0
 23 25  1  0  0  0  0
 24 26  2  0  0  0  0
 25 26  1  0  0  0  0
 26 18  1  0  0  0  0
 27 23  2  0  0  0  0
 28 23  1  6  0  0  0
 28 20  1  0  0  0  0
 29 24  2  0  0  0  0
 30 29  1  0  0  0  0
 31 30  1  0  0  0  0
 32 31  1  0  0  0  0
 33 32  1  0  0  0  0
 34 35  1  0  0  0  0
 35 36  1  0  0  0  0
 37 35  2  0  0  0  0
 38 39  1  0  0  0  0
 40 39  1  6  0  0  0
 40 43  1  0  0  0  0
 40 44  1  0  0  0  0
 41 43  2  0  0  0  0
 43 42  1  0  0  0  0
 44 45  1  0  0  0  0
 46 48  1  0  0  0  0
 46 45  1  0  0  0  0
 47 46  2  0  0  0  0
 49 51  1  0  0  0  0
 50 51  1  0  0  0  0
 51 48  1  6  0  0  0
 52 54  1  0  0  0  0
 53 52  1  1  0  0  0
 53 55  1  0  0  0  0
 53 60  1  0  0  0  0
 54 50  1  0  0  0  0
 55 49  1  0  0  0  0
 56 49  2  0  0  0  0
 57 65  1  6  0  0  0
 58 57  1  0  0  0  0
 59 66  2  0  0  0  0
 60 66  1  6  0  0  0
 60 62  1  0  0  0  0
 62 63  1  1  0  0  0
 62 61  1  0  0  0  0
 64 58  1  1  0  0  0
 64 61  1  0  0  0  0
 64 57  1  0  0  0  0
 66 64  1  0  0  0  0
M  END
>  <MODEL>
5

>  <REMARK>
 VINA RESULT:      -6.3      2.904      6.716
  Name = 
  16 active torsions:
  status: ('A' for Active; 'I' for Inactive)
    1  A    between atoms: C_4  and  C_22
    2  A    between atoms: C_4  and  N_25
    3  A    between atoms: C_11  and  C_62
    4  A    between atoms: N_12  and  C_39
    5  A    between atoms: C_15  and  C_27
    6  A    between atoms: O_16  and  P_33
    7  A    between atoms: O_16  and  C_52
    8  A    between atoms: C_17  and  N_42
    9  A    between atoms: C_19  and  C_30
   10  A    between atoms: C_21  and  C_50
   11  A    between atoms: C_21  and  C_52
   12  A    between atoms: C_21  and  C_60
   13  A    between atoms: N_25  and  C_59
   14  A    between atoms: C_30  and  C_50
   15  A    between atoms: N_31  and  C_48
   16  A    between atoms: C_40  and  C_48
                            x       y       z     vdW  Elec       q    Type
                         _______ _______ _______ _____ _____    ______ ____

>  <TORSDO>
F 16

$$$$
=
 OpenBabel11062421293D

 66 72  0  0  1  0  0  0  0  0999 V2000
  192.3250  172.6620  142.6990 C   0  0  2  0  0  3  0  0  0  0  0  0
  195.4770  172.0820  142.0870 O   0  0  0  0  0  0  0  0  0  0  0  0
  191.8670  172.3320  144.1450 C   0  0  0  0  0  2  0  0  0  0  0  0
  194.7310  172.7110  143.2600 P   0  0  1  0  0  0  0  0  0  0  0  0
  193.3940  173.5930  142.6850 O   0  0  0  0  0  0  0  0  0  0  0  0
  193.1380  172.1530  145.0240 C   0  0  0  0  0  2  0  0  0  0  0  0
  194.1310  171.5100  144.2930 O   0  0  0  0  0  0  0  0  0  0  0  0
  187.7580  173.2150  141.8510 C   0  0  0  0  0  1  0  0  0  0  0  0
  189.2580  173.3650  139.8690 C   0  0  0  0  0  2  0  0  0  0  0  0
  190.0130  172.3420  142.0680 O   0  0  0  0  0  0  0  0  0  0  0  0
  191.6420  172.6550  140.2630 C   0  0  2  0  0  3  0  0  0  0  0  0
  190.9520  174.5380  141.8980 C   0  0  0  0  0  1  0  0  0  0  0  0
  188.9300  172.5510  141.1440 C   0  0  1  0  0  3  0  0  0  0  0  0
  191.2020  173.0460  141.7190 C   0  0  2  0  0  0  0  0  0  0  0  0
  190.5610  172.8930  139.2070 C   0  0  0  0  0  2  0  0  0  0  0  0
  194.3370  172.1350  138.9430 C   0  0  0  0  0  2  0  0  0  0  0  0
  194.3740  170.0500  137.8650 C   0  0  0  0  0  0  0  0  0  0  0  0
  192.0630  170.7020  141.4810 O   0  0  0  0  0  0  0  0  0  0  0  0
  192.2530  171.2920  140.2290 N   0  0  2  0  0  0  0  0  0  0  0  0
  193.6790  171.1160  139.8930 C   0  0  1  0  0  3  0  0  0  0  0  0
  194.5270  169.2230  136.9380 O   0  0  0  0  0  0  0  0  0  0  0  0
  194.5500  171.4480  137.6900 N   0  0  0  0  0  0  0  0  0  0  0  0
  192.7790  168.7600  139.3470 C   0  0  0  0  0  0  0  0  0  0  0  0
  192.6500  168.8550  142.8330 C   0  0  0  0  0  0  0  0  0  0  0  0
  192.1690  168.4650  140.5760 O   0  0  0  0  0  0  0  0  0  0  0  0
  192.2650  169.3210  141.6630 C   0  0  0  0  0  0  0  0  0  0  0  0
  192.3600  168.1660  138.3180 O   0  0  0  0  0  0  0  0  0  0  0  0
  193.9620  169.7160  139.2720 C   0  0  1  0  0  3  0  0  0  0  0  0
  193.0850  168.3700  143.9750 C   0  0  0  0  0  3  0  0  0  0  0  0
  194.5010  168.1720  144.2100 N   0  0  0  0  0  2  0  0  0  0  0  0
  195.1670  168.6180  145.4280 C   0  0  0  0  0  2  0  0  0  0  0  0
  196.5690  169.0790  145.0620 C   0  0  0  0  0  2  0  0  0  0  0  0
  196.9650  170.0940  145.9350 F   0  0  0  0  0  0  0  0  0  0  0  0
  194.8490  172.1030  136.4340 C   0  0  0  0  0  2  0  0  0  0  0  0
  193.7710  173.0760  136.0900 C   0  0  0  0  0  0  0  0  0  0  0  0
  194.0660  174.2630  135.7750 O   0  0  0  0  0  0  0  0  0  0  0  0
  192.4420  172.6440  136.0380 O   0  0  0  0  0  1  0  0  0  0  0  0
  195.8140  173.7000  144.1500 O   0  0  0  0  0  0  0  0  0  0  0  0
  195.1080  174.8470  144.5940 C   0  0  0  0  0  2  0  0  0  0  0  0
  194.8120  175.7540  143.3930 C   0  0  2  0  0  3  0  0  0  0  0  0
  196.2760  176.2850  141.6090 O   0  0  0  0  0  0  0  0  0  0  0  0
  196.8830  177.1530  143.6700 O   0  0  0  0  0  1  0  0  0  0  0  0
  196.0320  176.3960  142.8410 C   0  0  0  0  0  0  0  0  0  0  0  0
  193.6820  176.7840  143.6250 C   0  0  0  0  0  2  0  0  0  0  0  0
  193.2460  176.9570  145.0850 C   0  0  0  0  0  2  0  0  0  0  0  0
  191.7700  176.8400  145.1340 C   0  0  0  0  0  0  0  0  0  0  0  0
  191.0750  177.3980  144.2260 O   0  0  0  0  0  0  0  0  0  0  0  0
  191.1730  176.1770  146.2480 N   0  0  0  0  0  2  0  0  0  0  0  0
  188.8560  175.4480  147.0080 C   0  0  0  0  0  0  0  0  0  0  0  0
  189.5160  177.7030  147.0300 C   0  0  0  0  0  2  0  0  0  0  0  0
  189.8480  176.4920  146.7210 C   0  0  1  0  0  3  0  0  0  0  0  0
  187.2400  178.2580  148.1220 S   0  0  0  0  0  0  0  0  0  0  0  0
  186.8010  177.0630  146.7680 C   0  0  2  0  0  3  0  0  0  0  0  0
  188.7940  178.7140  147.3730 C   0  0  0  0  0  2  0  0  0  0  0  0
  187.4270  175.7430  146.9910 N   0  0  0  0  0  2  0  0  0  0  0  0
  189.2670  174.3130  147.3720 O   0  0  0  0  0  0  0  0  0  0  0  0
  184.2960  178.2950  142.2800 C   0  0  1  0  0  3  0  0  0  0  0  0
  185.5440  179.0340  142.7150 C   0  0  0  0  0  2  0  0  0  0  0  0
  184.7510  178.9700  145.4680 O   0  0  0  0  0  0  0  0  0  0  0  0
  186.7090  177.5370  145.2940 C   0  0  1  0  0  3  0  0  0  0  0  0
  186.1390  176.7340  143.0370 N   0  0  0  0  0  2  0  0  0  0  0  0
  186.8330  176.4030  144.2880 C   0  0  1  0  0  3  0  0  0  0  0  0
  188.2290  175.8490  144.1060 C   0  0  0  0  0  1  0  0  0  0  0  0
  185.1700  177.7550  143.4360 C   0  0  2  0  0  0  0  0  0  0  0  0
  183.0270  178.9170  142.8130 C   0  0  0  0  0  1  0  0  0  0  0  0
  185.4290  178.1550  144.8340 C   0  0  0  0  0  0  0  0  0  0  0  0
  1  3  1  1  0  0  0
  3  6  1  0  0  0  0
  4  2  2  6  0  0  0
  4 38  1  0  0  0  0
  4  7  1  0  0  0  0
  5  1  1  0  0  0  0
  5  4  1  0  0  0  0
  7  6  1  0  0  0  0
  9 13  1  0  0  0  0
 11 15  1  6  0  0  0
 11 14  1  0  0  0  0
 13  8  1  1  0  0  0
 13 10  1  0  0  0  0
 14 12  1  1  0  0  0
 14 10  1  0  0  0  0
 14  1  1  0  0  0  0
 15  9  1  0  0  0  0
 18 26  1  0  0  0  0
 19 11  1  0  0  0  0
 19 18  1  1  0  0  0
 20 16  1  6  0  0  0
 20 19  1  0  0  0  0
 21 17  2  0  0  0  0
 22 17  1  0  0  0  0
 22 16  1  0  0  0  0
 23 25  1  0  0  0  0
 24 29  2  0  0  0  0
 25 26  1  0  0  0  0
 26 24  2  0  0  0  0
 27 23  2  0  0  0  0
 28 17  1  6  0  0  0
 28 23  1  0  0  0  0
 28 20  1  0  0  0  0
 29 30  1  0  0  0  0
 30 31  1  0  0  0  0
 32 31  1  0  0  0  0
 32 33  1  0  0  0  0
 34 22  1  0  0  0  0
 35 34  1  0  0  0  0
 36 35  2  0  0  0  0
 37 35  1  0  0  0  0
 38 39  1  0  0  0  0
 40 44  1  1  0  0  0
 40 39  1  0  0  0  0
 41 43  2  0  0  0  0
 43 40  1  0  0  0  0
 43 42  1  0  0  0  0
 44 45  1  0  0  0  0
 45 46  1  0  0  0  0
 46 48  1  0  0  0  0
 47 46  2  0  0  0  0
 49 56  2  0  0  0  0
 50 54  1  0  0  0  0
 51 48  1  1  0  0  0
 51 49  1  0  0  0  0
 51 50  1  0  0  0  0
 53 55  1  6  0  0  0
 53 52  1  0  0  0  0
 54 52  1  0  0  0  0
 55 49  1  0  0  0  0
 57 58  1  0  0  0  0
 57 65  1  1  0  0  0
 57 64  1  0  0  0  0
 60 66  1  1  0  0  0
 60 53  1  0  0  0  0
 61 64  1  0  0  0  0
 61 62  1  0  0  0  0
 62 63  1  6  0  0  0
 62 60  1  0  0  0  0
 64 58  1  6  0  0  0
 64 66  1  0  0  0  0
 66 59  2  0  0  0  0
M  END
>  <MODEL>
6

>  <REMARK>
 VINA RESULT:      -5.8      2.932      6.592
  Name = 
  16 active torsions:
  status: ('A' for Active; 'I' for Inactive)
    1  A    between atoms: C_4  and  C_22
    2  A    between atoms: C_4  and  N_25
    3  A    between atoms: C_11  and  C_62
    4  A    between atoms: N_12  and  C_39
    5  A    between atoms: C_15  and  C_27
    6  A    between atoms: O_16  and  P_33
    7  A    between atoms: O_16  and  C_52
    8  A    between atoms: C_17  and  N_42
    9  A    between atoms: C_19  and  C_30
   10  A    between atoms: C_21  and  C_50
   11  A    between atoms: C_21  and  C_52
   12  A    between atoms: C_21  and  C_60
   13  A    between atoms: N_25  and  C_59
   14  A    between atoms: C_30  and  C_50
   15  A    between atoms: N_31  and  C_48
   16  A    between atoms: C_40  and  C_48
                            x       y       z     vdW  Elec       q    Type
                         _______ _______ _______ _____ _____    ______ ____

>  <TORSDO>
F 16

$$$$
=
 OpenBabel11062421293D

 66 72  0  0  1  0  0  0  0  0999 V2000
  194.4320  170.9230  138.0320 C   0  0  2  0  0  3  0  0  0  0  0  0
  191.3980  172.1220  138.0890 O   0  0  0  0  0  0  0  0  0  0  0  0
  195.1990  171.0160  139.3790 C   0  0  0  0  0  2  0  0  0  0  0  0
  192.2040  171.2520  139.0500 P   0  0  1  0  0  0  0  0  0  0  0  0
  193.2160  170.2070  138.1670 O   0  0  0  0  0  0  0  0  0  0  0  0
  194.1670  171.3300  140.5000 C   0  0  0  0  0  2  0  0  0  0  0  0
  193.2050  172.2130  140.0220 O   0  0  0  0  0  0  0  0  0  0  0  0
  197.8940  168.2630  136.3510 C   0  0  0  0  0  1  0  0  0  0  0  0
  196.9250  169.9190  134.7630 C   0  0  0  0  0  2  0  0  0  0  0  0
  196.5650  170.0740  137.2730 O   0  0  0  0  0  0  0  0  0  0  0  0
  195.3700  171.6150  135.7870 C   0  0  2  0  0  3  0  0  0  0  0  0
  194.5670  169.2050  136.2780 C   0  0  0  0  0  1  0  0  0  0  0  0
  197.4560  169.7130  136.2020 C   0  0  1  0  0  3  0  0  0  0  0  0
  195.2620  170.4450  136.8280 C   0  0  2  0  0  0  0  0  0  0  0  0
  196.2640  171.2950  134.5870 C   0  0  0  0  0  2  0  0  0  0  0  0
  193.2280  173.7270  136.2640 C   0  0  0  0  0  2  0  0  0  0  0  0
  194.0890  175.8950  136.0020 C   0  0  0  0  0  0  0  0  0  0  0  0
  196.5250  172.6480  137.5390 O   0  0  0  0  0  0  0  0  0  0  0  0
  195.6790  172.9130  136.4600 N   0  0  2  0  0  0  0  0  0  0  0  0
  194.5930  173.7670  136.9780 C   0  0  1  0  0  3  0  0  0  0  0  0
  194.1810  177.0640  135.5660 O   0  0  0  0  0  0  0  0  0  0  0  0
  193.0980  174.9800  135.5570 N   0  0  0  0  0  0  0  0  0  0  0  0
  196.4800  175.5100  136.7350 C   0  0  0  0  0  0  0  0  0  0  0  0
  197.5320  173.5950  139.4570 C   0  0  0  0  0  0  0  0  0  0  0  0
  197.4710  174.8710  137.4950 O   0  0  0  0  0  0  0  0  0  0  0  0
  197.2200  173.6920  138.1810 C   0  0  0  0  0  0  0  0  0  0  0  0
  196.8450  176.3340  135.8560 O   0  0  0  0  0  0  0  0  0  0  0  0
  195.0040  175.2690  137.0180 C   0  0  1  0  0  3  0  0  0  0  0  0
  197.8090  173.5470  140.7410 C   0  0  0  0  0  3  0  0  0  0  0  0
  196.9090  174.1210  141.7200 N   0  0  0  0  0  2  0  0  0  0  0  0
  197.0240  173.8520  143.1490 C   0  0  0  0  0  2  0  0  0  0  0  0
  197.4600  172.4070  143.3270 C   0  0  0  0  0  2  0  0  0  0  0  0
  197.5920  172.1270  144.6880 F   0  0  0  0  0  0  0  0  0  0  0  0
  192.1300  175.2380  134.5130 C   0  0  0  0  0  2  0  0  0  0  0  0
  190.8550  175.7410  135.1040 C   0  0  0  0  0  0  0  0  0  0  0  0
  190.4740  176.9240  134.8760 O   0  0  0  0  0  0  0  0  0  0  0  0
  190.0460  174.8710  135.8420 O   0  0  0  0  0  1  0  0  0  0  0  0
  191.1260  170.3890  140.0670 O   0  0  0  0  0  0  0  0  0  0  0  0
  191.1500  170.9890  141.3520 C   0  0  0  0  0  2  0  0  0  0  0  0
  189.7210  171.3580  141.7650 C   0  0  2  0  0  3  0  0  0  0  0  0
  188.0200  172.6890  140.7940 O   0  0  0  0  0  0  0  0  0  0  0  0
  190.1090  173.6860  140.8990 O   0  0  0  0  0  1  0  0  0  0  0  0
  189.2360  172.6020  141.1150 C   0  0  0  0  0  0  0  0  0  0  0  0
  189.4750  171.3800  143.2920 C   0  0  0  0  0  2  0  0  0  0  0  0
  190.7380  171.4810  144.1550 C   0  0  0  0  0  2  0  0  0  0  0  0
  190.7520  172.8230  144.7820 C   0  0  0  0  0  0  0  0  0  0  0  0
  189.9800  173.0540  145.7670 O   0  0  0  0  0  0  0  0  0  0  0  0
  191.5710  173.8400  144.2050 N   0  0  0  0  0  2  0  0  0  0  0  0
  191.5500  176.0210  145.5160 C   0  0  0  0  0  0  0  0  0  0  0  0
  190.8070  175.9050  143.2900 C   0  0  0  0  0  2  0  0  0  0  0  0
  191.2550  175.2420  144.3060 C   0  0  1  0  0  3  0  0  0  0  0  0
  190.4780  178.4690  143.3690 S   0  0  0  0  0  0  0  0  0  0  0  0
  189.7780  177.8820  144.9870 C   0  0  2  0  0  3  0  0  0  0  0  0
  190.3190  176.8710  142.5900 C   0  0  0  0  0  2  0  0  0  0  0  0
  190.8140  177.2430  145.8240 N   0  0  0  0  0  2  0  0  0  0  0  0
  192.5260  175.6680  146.2330 O   0  0  0  0  0  0  0  0  0  0  0  0
  184.4990  177.9850  145.2340 C   0  0  1  0  0  3  0  0  0  0  0  0
  185.2320  176.8970  144.4790 C   0  0  0  0  0  2  0  0  0  0  0  0
  187.2020  178.7430  143.5180 O   0  0  0  0  0  0  0  0  0  0  0  0
  188.3600  177.2550  145.0550 C   0  0  1  0  0  3  0  0  0  0  0  0
  186.4240  177.0090  146.5560 N   0  0  0  0  0  2  0  0  0  0  0  0
  187.8900  176.9810  146.4740 C   0  0  1  0  0  3  0  0  0  0  0  0
  188.5350  175.7930  147.1530 C   0  0  0  0  0  1  0  0  0  0  0  0
  186.0260  177.8050  145.3940 C   0  0  2  0  0  0  0  0  0  0  0  0
  184.1880  179.1900  144.3780 C   0  0  0  0  0  1  0  0  0  0  0  0
  187.2100  178.0630  144.5490 C   0  0  0  0  0  0  0  0  0  0  0  0
  1  5  1  0  0  0  0
  1  3  1  1  0  0  0
  3  6  1  0  0  0  0
  4  2  2  6  0  0  0
  4  7  1  0  0  0  0
  4 38  1  0  0  0  0
  5  4  1  0  0  0  0
  7  6  1  0  0  0  0
  9 13  1  0  0  0  0
 11 15  1  6  0  0  0
 11 19  1  0  0  0  0
 11 14  1  0  0  0  0
 13  8  1  1  0  0  0
 13 10  1  0  0  0  0
 14 12  1  6  0  0  0
 14 10  1  0  0  0  0
 14  1  1  0  0  0  0
 15  9  1  0  0  0  0
 18 26  1  0  0  0  0
 19 20  1  0  0  0  0
 19 18  1  1  0  0  0
 20 16  1  6  0  0  0
 20 28  1  0  0  0  0
 21 17  2  0  0  0  0
 22 17  1  0  0  0  0
 22 16  1  0  0  0  0
 23 28  1  0  0  0  0
 23 25  1  0  0  0  0
 24 29  2  0  0  0  0
 25 26  1  0  0  0  0
 26 24  2  0  0  0  0
 27 23  2  0  0  0  0
 28 17  1  6  0  0  0
 29 30  1  0  0  0  0
 30 31  1  0  0  0  0
 31 32  1  0  0  0  0
 32 33  1  0  0  0  0
 34 35  1  0  0  0  0
 34 22  1  0  0  0  0
 35 37  1  0  0  0  0
 36 35  2  0  0  0  0
 38 39  1  0  0  0  0
 40 39  1  1  0  0  0
 40 44  1  0  0  0  0
 41 43  2  0  0  0  0
 42 43  1  0  0  0  0
 43 40  1  0  0  0  0
 44 45  1  0  0  0  0
 45 46  1  0  0  0  0
 46 47  2  0  0  0  0
 48 46  1  0  0  0  0
 49 55  1  0  0  0  0
 49 56  2  0  0  0  0
 50 51  1  0  0  0  0
 51 48  1  6  0  0  0
 51 49  1  0  0  0  0
 53 52  1  6  0  0  0
 53 60  1  0  0  0  0
 53 55  1  0  0  0  0
 54 50  1  0  0  0  0
 54 52  1  0  0  0  0
 57 65  1  6  0  0  0
 57 64  1  0  0  0  0
 58 57  1  0  0  0  0
 59 66  2  0  0  0  0
 60 66  1  1  0  0  0
 60 62  1  0  0  0  0
 62 61  1  0  0  0  0
 62 63  1  6  0  0  0
 64 58  1  6  0  0  0
 64 61  1  0  0  0  0
 66 64  1  0  0  0  0
M  END
>  <MODEL>
7

>  <REMARK>
 VINA RESULT:      -5.8      3.054      5.966
  Name = 
  16 active torsions:
  status: ('A' for Active; 'I' for Inactive)
    1  A    between atoms: C_4  and  C_22
    2  A    between atoms: C_4  and  N_25
    3  A    between atoms: C_11  and  C_62
    4  A    between atoms: N_12  and  C_39
    5  A    between atoms: C_15  and  C_27
    6  A    between atoms: O_16  and  P_33
    7  A    between atoms: O_16  and  C_52
    8  A    between atoms: C_17  and  N_42
    9  A    between atoms: C_19  and  C_30
   10  A    between atoms: C_21  and  C_50
   11  A    between atoms: C_21  and  C_52
   12  A    between atoms: C_21  and  C_60
   13  A    between atoms: N_25  and  C_59
   14  A    between atoms: C_30  and  C_50
   15  A    between atoms: N_31  and  C_48
   16  A    between atoms: C_40  and  C_48
                            x       y       z     vdW  Elec       q    Type
                         _______ _______ _______ _____ _____    ______ ____

>  <TORSDO>
F 16

$$$$
=
 OpenBabel11062421293D

 66 72  0  0  1  0  0  0  0  0999 V2000
  191.6590  171.8150  140.5250 C   0  0  2  0  0  3  0  0  0  0  0  0
  189.9910  172.4570  137.7940 O   0  0  0  0  0  0  0  0  0  0  0  0
  192.2330  173.0630  141.2500 C   0  0  0  0  0  2  0  0  0  0  0  0
  190.0340  173.1010  139.1780 P   0  0  1  0  0  0  0  0  0  0  0  0
  190.2530  171.9010  140.3640 O   0  0  0  0  0  0  0  0  0  0  0  0
  191.5370  174.3240  140.6630 C   0  0  0  0  0  2  0  0  0  0  0  0
  191.3470  174.1650  139.2950 O   0  0  0  0  0  0  0  0  0  0  0  0
  192.5800  169.1320  144.2440 C   0  0  0  0  0  1  0  0  0  0  0  0
  193.2320  168.1880  142.0340 C   0  0  0  0  0  2  0  0  0  0  0  0
  192.7240  170.6560  142.3600 O   0  0  0  0  0  0  0  0  0  0  0  0
  193.1220  169.7960  140.0990 C   0  0  2  0  0  3  0  0  0  0  0  0
  190.8360  169.6320  141.3000 C   0  0  0  0  0  1  0  0  0  0  0  0
  193.2710  169.4520  142.9270 C   0  0  1  0  0  3  0  0  0  0  0  0
  192.1010  170.4550  141.0930 C   0  0  2  0  0  0  0  0  0  0  0  0
  193.7160  168.4810  140.6050 C   0  0  0  0  0  2  0  0  0  0  0  0
  196.1110  169.3680  140.4980 C   0  0  0  0  0  2  0  0  0  0  0  0
  197.2120  171.3900  140.9520 C   0  0  0  0  0  0  0  0  0  0  0  0
  193.7420  171.2230  138.3520 O   0  0  0  0  0  0  0  0  0  0  0  0
  194.1310  170.7890  139.6200 N   0  0  2  0  0  0  0  0  0  0  0  0
  195.5570  170.4220  139.5190 C   0  0  1  0  0  3  0  0  0  0  0  0
  197.9390  172.2070  141.5620 O   0  0  0  0  0  0  0  0  0  0  0  0
  196.9530  170.0790  141.4310 N   0  0  0  0  0  0  0  0  0  0  0  0
  195.7470  172.9910  139.6520 C   0  0  0  0  0  0  0  0  0  0  0  0
  194.4250  172.4700  136.4640 C   0  0  0  0  0  0  0  0  0  0  0  0
  194.8970  173.3310  138.5890 O   0  0  0  0  0  0  0  0  0  0  0  0
  194.3240  172.3670  137.7730 C   0  0  0  0  0  0  0  0  0  0  0  0
  195.9270  173.8410  140.5630 O   0  0  0  0  0  0  0  0  0  0  0  0
  196.4890  171.6620  139.6630 C   0  0  1  0  0  3  0  0  0  0  0  0
  194.5860  172.5740  135.1640 C   0  0  0  0  0  3  0  0  0  0  0  0
  195.8180  172.1520  134.5280 N   0  0  0  0  0  2  0  0  0  0  0  0
  197.0620  171.9670  135.2660 C   0  0  0  0  0  2  0  0  0  0  0  0
  197.9320  173.1940  135.0470 C   0  0  0  0  0  2  0  0  0  0  0  0
  197.1550  174.2250  134.5180 F   0  0  0  0  0  0  0  0  0  0  0  0
  197.4180  169.5420  142.6930 C   0  0  0  0  0  2  0  0  0  0  0  0
  196.4920  169.9360  143.7940 C   0  0  0  0  0  0  0  0  0  0  0  0
  196.0940  169.0730  144.6270 O   0  0  0  0  0  1  0  0  0  0  0  0
  196.1340  171.2790  143.9480 O   0  0  0  0  0  0  0  0  0  0  0  0
  188.5890  173.9920  139.4280 O   0  0  0  0  0  0  0  0  0  0  0  0
  188.1760  174.5280  138.1830 C   0  0  0  0  0  2  0  0  0  0  0  0
  187.0830  175.5770  138.4220 C   0  0  2  0  0  3  0  0  0  0  0  0
  187.0740  176.2380  136.1490 O   0  0  0  0  0  0  0  0  0  0  0  0
  184.9800  176.0290  137.1190 O   0  0  0  0  0  1  0  0  0  0  0  0
  186.3870  175.9790  137.1730 C   0  0  0  0  0  0  0  0  0  0  0  0
  187.5360  176.8060  139.2430 C   0  0  0  0  0  2  0  0  0  0  0  0
  186.6900  177.1090  140.4850 C   0  0  0  0  0  2  0  0  0  0  0  0
  187.5620  176.9610  141.6740 C   0  0  0  0  0  0  0  0  0  0  0  0
  188.7460  177.4250  141.6350 O   0  0  0  0  0  0  0  0  0  0  0  0
  187.0730  176.2240  142.7940 N   0  0  0  0  0  2  0  0  0  0  0  0
  188.0750  175.9040  145.1120 C   0  0  0  0  0  0  0  0  0  0  0  0
  188.5560  174.4380  143.3400 C   0  0  0  0  0  2  0  0  0  0  0  0
  187.9440  175.5190  143.7010 C   0  0  1  0  0  3  0  0  0  0  0  0
  189.9140  173.0130  145.0160 S   0  0  0  0  0  0  0  0  0  0  0  0
  190.4170  174.7590  145.4090 C   0  0  2  0  0  3  0  0  0  0  0  0
  189.3510  173.4240  143.3740 C   0  0  0  0  0  2  0  0  0  0  0  0
  189.2670  175.5580  145.8790 N   0  0  0  0  0  2  0  0  0  0  0  0
  187.0900  176.4520  145.6780 O   0  0  0  0  0  0  0  0  0  0  0  0
  195.2630  176.3100  143.9820 C   0  0  1  0  0  3  0  0  0  0  0  0
  194.1890  176.0340  142.9520 C   0  0  0  0  0  2  0  0  0  0  0  0
  193.1870  173.8000  144.4410 O   0  0  0  0  0  0  0  0  0  0  0  0
  191.4520  175.5020  144.5240 C   0  0  1  0  0  3  0  0  0  0  0  0
  193.0460  177.3780  144.5750 N   0  0  0  0  0  2  0  0  0  0  0  0
  191.7020  176.9360  144.9650 C   0  0  1  0  0  3  0  0  0  0  0  0
  190.5970  177.9170  144.6370 C   0  0  0  0  0  1  0  0  0  0  0  0
  193.7890  176.1270  144.4100 C   0  0  2  0  0  0  0  0  0  0  0  0
  196.0780  175.0860  144.3280 C   0  0  0  0  0  1  0  0  0  0  0  0
  192.8540  174.9870  144.5010 C   0  0  0  0  0  0  0  0  0  0  0  0
  1 14  1  0  0  0  0
  1  3  1  1  0  0  0
  4  2  2  6  0  0  0
  4  7  1  0  0  0  0
  4 38  1  0  0  0  0
  4  5  1  0  0  0  0
  5  1  1  0  0  0  0
  6  3  1  0  0  0  0
  7  6  1  0  0  0  0
  9 13  1  0  0  0  0
 10 13  1  0  0  0  0
 11 15  1  1  0  0  0
 11 14  1  0  0  0  0
 13  8  1  1  0  0  0
 14 12  1  1  0  0  0
 14 10  1  0  0  0  0
 15  9  1  0  0  0  0
 16 22  1  0  0  0  0
 17 22  1  0  0  0  0
 17 21  2  0  0  0  0
 19 18  1  6  0  0  0
 19 11  1  0  0  0  0
 20 19  1  0  0  0  0
 20 28  1  0  0  0  0
 20 16  1  1  0  0  0
 22 34  1  0  0  0  0
 23 27  2  0  0  0  0
 24 26  2  0  0  0  0
 25 23  1  0  0  0  0
 26 18  1  0  0  0  0
 26 25  1  0  0  0  0
 28 23  1  1  0  0  0
 28 17  1  0  0  0  0
 29 24  2  0  0  0  0
 30 29  1  0  0  0  0
 30 31  1  0  0  0  0
 32 31  1  0  0  0  0
 33 32  1  0  0  0  0
 34 35  1  0  0  0  0
 35 37  2  0  0  0  0
 35 36  1  0  0  0  0
 39 38  1  0  0  0  0
 40 39  1  6  0  0  0
 40 44  1  0  0  0  0
 41 43  2  0  0  0  0
 42 43  1  0  0  0  0
 43 40  1  0  0  0  0
 44 45  1  0  0  0  0
 45 46  1  0  0  0  0
 46 48  1  0  0  0  0
 47 46  2  0  0  0  0
 49 56  2  0  0  0  0
 49 55  1  0  0  0  0
 50 54  1  0  0  0  0
 50 51  1  0  0  0  0
 51 48  1  1  0  0  0
 51 49  1  0  0  0  0
 53 52  1  6  0  0  0
 53 55  1  0  0  0  0
 54 52  1  0  0  0  0
 57 65  1  1  0  0  0
 57 64  1  0  0  0  0
 58 57  1  0  0  0  0
 59 66  2  0  0  0  0
 60 66  1  1  0  0  0
 60 62  1  0  0  0  0
 60 53  1  0  0  0  0
 61 62  1  0  0  0  0
 62 63  1  6  0  0  0
 64 58  1  6  0  0  0
 64 66  1  0  0  0  0
 64 61  1  0  0  0  0
M  END
>  <MODEL>
8

>  <REMARK>
 VINA RESULT:      -5.7      3.216      6.700
  Name = 
  16 active torsions:
  status: ('A' for Active; 'I' for Inactive)
    1  A    between atoms: C_4  and  C_22
    2  A    between atoms: C_4  and  N_25
    3  A    between atoms: C_11  and  C_62
    4  A    between atoms: N_12  and  C_39
    5  A    between atoms: C_15  and  C_27
    6  A    between atoms: O_16  and  P_33
    7  A    between atoms: O_16  and  C_52
    8  A    between atoms: C_17  and  N_42
    9  A    between atoms: C_19  and  C_30
   10  A    between atoms: C_21  and  C_50
   11  A    between atoms: C_21  and  C_52
   12  A    between atoms: C_21  and  C_60
   13  A    between atoms: N_25  and  C_59
   14  A    between atoms: C_30  and  C_50
   15  A    between atoms: N_31  and  C_48
   16  A    between atoms: C_40  and  C_48
                            x       y       z     vdW  Elec       q    Type
                         _______ _______ _______ _____ _____    ______ ____

>  <TORSDO>
F 16

$$$$
=
 OpenBabel11062421293D

 66 72  0  0  1  0  0  0  0  0999 V2000
  191.4900  176.2690  144.3290 C   0  0  2  0  0  3  0  0  0  0  0  0
  192.9170  175.2530  141.5760 O   0  0  0  0  0  0  0  0  0  0  0  0
  192.3050  176.0080  145.6250 C   0  0  0  0  0  2  0  0  0  0  0  0
  193.4240  175.9820  142.8180 P   0  0  1  0  0  0  0  0  0  0  0  0
  192.2220  177.0410  143.3930 O   0  0  0  0  0  0  0  0  0  0  0  0
  193.7640  175.6550  145.2130 C   0  0  0  0  0  2  0  0  0  0  0  0
  193.7540  174.8790  144.0600 O   0  0  0  0  0  0  0  0  0  0  0  0
  188.0850  177.5600  147.2660 C   0  0  0  0  0  1  0  0  0  0  0  0
  187.4440  177.3850  144.8660 C   0  0  0  0  0  2  0  0  0  0  0  0
  189.5600  176.3240  145.7860 O   0  0  0  0  0  0  0  0  0  0  0  0
  189.1500  176.2940  143.3690 C   0  0  2  0  0  3  0  0  0  0  0  0
  190.1680  178.3220  144.6120 C   0  0  0  0  0  1  0  0  0  0  0  0
  188.1880  176.6830  146.0270 C   0  0  1  0  0  3  0  0  0  0  0  0
  190.0630  176.8040  144.5400 C   0  0  2  0  0  0  0  0  0  0  0  0
  187.6760  176.6760  143.5230 C   0  0  0  0  0  2  0  0  0  0  0  0
  189.5220  175.2520  140.5310 C   0  0  0  0  0  2  0  0  0  0  0  0
  188.5390  173.1380  140.2600 C   0  0  0  0  0  0  0  0  0  0  0  0
  190.2920  174.3640  144.0360 O   0  0  0  0  0  0  0  0  0  0  0  0
  189.3890  174.8470  143.0860 N   0  0  2  0  0  0  0  0  0  0  0  0
  189.8920  174.4120  141.7690 C   0  0  1  0  0  3  0  0  0  0  0  0
  187.8110  172.2500  139.7620 O   0  0  0  0  0  0  0  0  0  0  0  0
  188.5650  174.4740  139.7800 N   0  0  0  0  0  0  0  0  0  0  0  0
  188.8150  172.2200  142.6010 C   0  0  0  0  0  0  0  0  0  0  0  0
  191.6440  172.5170  144.6250 C   0  0  0  0  0  0  0  0  0  0  0  0
  189.4820  172.0980  143.8300 O   0  0  0  0  0  0  0  0  0  0  0  0
  190.4830  172.9800  144.2090 C   0  0  0  0  0  0  0  0  0  0  0  0
  187.6980  171.6530  142.4730 O   0  0  0  0  0  0  0  0  0  0  0  0
  189.4600  172.9530  141.4330 C   0  0  1  0  0  3  0  0  0  0  0  0
  192.8070  172.0250  144.9880 C   0  0  0  0  0  3  0  0  0  0  0  0
  193.7770  171.6000  144.0000 N   0  0  0  0  0  2  0  0  0  0  0  0
  193.7750  172.0960  142.6280 C   0  0  0  0  0  2  0  0  0  0  0  0
  193.8860  170.9050  141.6910 C   0  0  0  0  0  2  0  0  0  0  0  0
  192.9620  171.0440  140.6540 F   0  0  0  0  0  0  0  0  0  0  0  0
  187.7220  175.0020  138.7280 C   0  0  0  0  0  2  0  0  0  0  0  0
  188.3820  174.8260  137.4000 C   0  0  0  0  0  0  0  0  0  0  0  0
  187.8700  175.3390  136.3660 O   0  0  0  0  0  0  0  0  0  0  0  0
  189.6090  174.1610  137.3220 O   0  0  0  0  0  1  0  0  0  0  0  0
  194.8750  176.8120  142.4300 O   0  0  0  0  0  0  0  0  0  0  0  0
  195.5020  176.1320  141.3550 C   0  0  0  0  0  2  0  0  0  0  0  0
  196.5160  175.1280  141.9160 C   0  0  2  0  0  3  0  0  0  0  0  0
  197.8520  176.6970  143.0820 O   0  0  0  0  0  0  0  0  0  0  0  0
  197.0850  174.9220  144.3570 O   0  0  0  0  0  1  0  0  0  0  0  0
  197.1990  175.6210  143.1390 C   0  0  0  0  0  0  0  0  0  0  0  0
  197.5270  174.5830  140.8800 C   0  0  0  0  0  2  0  0  0  0  0  0
  197.6670  175.4200  139.6030 C   0  0  0  0  0  2  0  0  0  0  0  0
  197.0720  174.6480  138.4870 C   0  0  0  0  0  0  0  0  0  0  0  0
  195.8470  174.8270  138.1940 O   0  0  0  0  0  0  0  0  0  0  0  0
  197.8720  173.6630  137.8330 N   0  0  0  0  0  2  0  0  0  0  0  0
  197.1410  172.4050  135.7450 C   0  0  0  0  0  0  0  0  0  0  0  0
  197.0350  171.4310  137.8810 C   0  0  0  0  0  2  0  0  0  0  0  0
  197.3080  172.4970  137.2020 C   0  0  1  0  0  3  0  0  0  0  0  0
  196.2670  169.2430  136.7370 S   0  0  0  0  0  0  0  0  0  0  0  0
  195.2790  170.5620  135.8790 C   0  0  2  0  0  3  0  0  0  0  0  0
  196.5900  170.2560  138.1700 C   0  0  0  0  0  2  0  0  0  0  0  0
  196.1540  171.5070  135.1560 N   0  0  0  0  0  2  0  0  0  0  0  0
  197.9410  173.0440  135.0090 O   0  0  0  0  0  0  0  0  0  0  0  0
  190.2420  170.5930  137.4820 C   0  0  1  0  0  3  0  0  0  0  0  0
  191.3270  171.2860  138.2780 C   0  0  0  0  0  2  0  0  0  0  0  0
  193.2130  169.2000  137.7260 O   0  0  0  0  0  0  0  0  0  0  0  0
  194.0200  171.1720  136.5520 C   0  0  1  0  0  3  0  0  0  0  0  0
  191.7630  172.0050  136.0330 N   0  0  0  0  0  2  0  0  0  0  0  0
  193.1650  171.9910  135.5990 C   0  0  1  0  0  3  0  0  0  0  0  0
  193.7240  173.3480  135.2300 C   0  0  0  0  0  1  0  0  0  0  0  0
  191.6470  170.8140  136.8750 C   0  0  2  0  0  0  0  0  0  0  0  0
  190.0510  169.1480  137.8790 C   0  0  0  0  0  1  0  0  0  0  0  0
  192.9880  170.2350  137.0900 C   0  0  0  0  0  0  0  0  0  0  0  0
  1 14  1  0  0  0  0
  1  3  1  1  0  0  0
  4  2  2  6  0  0  0
  4  5  1  0  0  0  0
  4  7  1  0  0  0  0
  5  1  1  0  0  0  0
  6  3  1  0  0  0  0
  7  6  1  0  0  0  0
  9 13  1  0  0  0  0
 10 13  1  0  0  0  0
 11 15  1  1  0  0  0
 11 14  1  0  0  0  0
 13  8  1  1  0  0  0
 14 12  1  1  0  0  0
 14 10  1  0  0  0  0
 15  9  1  0  0  0  0
 18 26  1  0  0  0  0
 19 11  1  0  0  0  0
 19 18  1  1  0  0  0
 20 16  1  6  0  0  0
 20 19  1  0  0  0  0
 21 17  2  0  0  0  0
 22 17  1  0  0  0  0
 22 16  1  0  0  0  0
 23 25  1  0  0  0  0
 24 29  2  0  0  0  0
 25 26  1  0  0  0  0
 26 24  2  0  0  0  0
 27 23  2  0  0  0  0
 28 17  1  6  0  0  0
 28 20  1  0  0  0  0
 28 23  1  0  0  0  0
 30 29  1  0  0  0  0
 31 30  1  0  0  0  0
 32 31  1  0  0  0  0
 33 32  1  0  0  0  0
 34 22  1  0  0  0  0
 35 34  1  0  0  0  0
 36 35  2  0  0  0  0
 37 35  1  0  0  0  0
 38  4  1  0  0  0  0
 39 40  1  0  0  0  0
 39 38  1  0  0  0  0
 40 44  1  6  0  0  0
 40 43  1  0  0  0  0
 41 43  2  0  0  0  0
 43 42  1  0  0  0  0
 45 44  1  0  0  0  0
 46 45  1  0  0  0  0
 47 46  2  0  0  0  0
 48 46  1  0  0  0  0
 49 51  1  0  0  0  0
 50 54  1  0  0  0  0
 51 48  1  6  0  0  0
 51 50  1  0  0  0  0
 52 54  1  0  0  0  0
 53 55  1  1  0  0  0
 53 60  1  0  0  0  0
 53 52  1  0  0  0  0
 55 49  1  0  0  0  0
 56 49  2  0  0  0  0
 57 65  1  1  0  0  0
 57 58  1  0  0  0  0
 60 66  1  6  0  0  0
 61 64  1  0  0  0  0
 62 63  1  1  0  0  0
 62 61  1  0  0  0  0
 62 60  1  0  0  0  0
 64 66  1  0  0  0  0
 64 57  1  0  0  0  0
 64 58  1  1  0  0  0
 66 59  2  0  0  0  0
M  END
>  <MODEL>
9

>  <REMARK>
 VINA RESULT:      -5.7      3.309      9.322
  Name = 
  16 active torsions:
  status: ('A' for Active; 'I' for Inactive)
    1  A    between atoms: C_4  and  C_22
    2  A    between atoms: C_4  and  N_25
    3  A    between atoms: C_11  and  C_62
    4  A    between atoms: N_12  and  C_39
    5  A    between atoms: C_15  and  C_27
    6  A    between atoms: O_16  and  P_33
    7  A    between atoms: O_16  and  C_52
    8  A    between atoms: C_17  and  N_42
    9  A    between atoms: C_19  and  C_30
   10  A    between atoms: C_21  and  C_50
   11  A    between atoms: C_21  and  C_52
   12  A    between atoms: C_21  and  C_60
   13  A    between atoms: N_25  and  C_59
   14  A    between atoms: C_30  and  C_50
   15  A    between atoms: N_31  and  C_48
   16  A    between atoms: C_40  and  C_48
                            x       y       z     vdW  Elec       q    Type
                         _______ _______ _______ _____ _____    ______ ____

>  <TORSDO>
F 16

$$$$
