=
 OpenBabel11062422443D

 29 31  0  0  1  0  0  0  0  0999 V2000
  188.1830  176.6870  145.7520 C   0  0  0  0  0  2  0  0  0  0  0  0
  191.1650  173.0510  144.7730 F   0  0  0  0  0  0  0  0  0  0  0  0
  192.1980  175.2540  147.3630 C   0  0  0  0  0  3  0  0  0  0  0  0
  187.6350  173.4670  141.9550 C   0  0  0  0  0  3  0  0  0  0  0  0
  188.4410  177.4890  144.5650 N   0  0  0  0  0  2  0  0  0  0  0  0
  193.7110  173.0840  145.6880 C   0  0  0  0  0  1  0  0  0  0  0  0
  190.0280  176.4770  147.3010 C   0  0  0  0  0  3  0  0  0  0  0  0
  188.7230  177.9340  141.9720 S   0  0  0  0  0  0  0  0  0  0  0  0
  189.8010  174.7410  145.5220 C   0  0  0  0  0  3  0  0  0  0  0  0
  195.2950  174.5360  143.4840 O   0  0  0  0  0  0  0  0  0  0  0  0
  191.0310  174.2450  145.4050 C   0  0  0  0  0  0  0  0  0  0  0  0
  192.2340  175.0270  145.8850 C   0  0  2  0  0  3  0  0  0  0  0  0
  191.2240  175.9310  147.9670 C   0  0  0  0  0  3  0  0  0  0  0  0
  193.5530  174.5200  145.4780 N   0  0  0  0  0  0  0  0  0  0  0  0
  189.6840  174.7710  141.2840 C   0  0  0  0  0  3  0  0  0  0  0  0
  193.7060  176.3980  143.6290 O   0  0  0  0  0  0  0  0  0  0  0  0
  188.2050  175.5320  143.0570 N   0  0  0  0  0  2  0  0  0  0  0  0
  193.3280  175.3600  140.8930 O   0  0  0  0  0  0  0  0  0  0  0  0
  189.6100  172.3550  141.1970 C   0  0  0  0  0  0  0  0  0  0  0  0
  191.7390  173.6350  140.5130 C   0  0  0  0  0  2  0  0  0  0  0  0
  188.2670  172.3610  141.6850 N   0  0  0  0  0  0  0  0  0  0  0  0
  189.4250  175.9990  146.2030 C   0  0  0  0  0  0  0  0  0  0  0  0
  188.2590  174.8280  141.7820 C   0  0  2  0  0  3  0  0  0  0  0  0
  190.3260  173.6280  141.0260 C   0  0  0  0  0  0  0  0  0  0  0  0
  193.8790  174.9180  143.8170 S   0  0  0  0  0  0  0  0  0  0  0  0
  192.6610  174.4130  141.3870 C   0  0  0  0  0  0  0  0  0  0  0  0
  190.1610  171.2640  140.8880 O   0  0  0  0  0  0  0  0  0  0  0  0
  188.4590  176.9350  143.2470 C   0  0  0  0  0  0  0  0  0  0  0  0
  192.8040  174.0680  142.7610 N   0  0  0  0  0  2  0  0  0  0  0  0
  1 22  1  0  0  0  0
  2 11  1  0  0  0  0
  3 13  2  0  0  0  0
  5  1  1  0  0  0  0
  7 13  1  0  0  0  0
  8 28  2  0  0  0  0
  9 22  1  0  0  0  0
 10 25  2  0  0  0  0
 11  9  2  0  0  0  0
 11 12  1  0  0  0  0
 12  3  1  1  0  0  0
 14  6  1  0  0  0  0
 14 12  1  0  0  0  0
 16 25  2  0  0  0  0
 17 28  1  0  0  0  0
 18 26  2  0  0  0  0
 19 21  1  0  0  0  0
 20 24  1  0  0  0  0
 20 26  1  0  0  0  0
 21  4  2  0  0  0  0
 22  7  2  0  0  0  0
 23 15  1  1  0  0  0
 23  4  1  0  0  0  0
 23 17  1  0  0  0  0
 24 19  1  0  0  0  0
 24 15  2  0  0  0  0
 25 14  1  0  0  0  0
 26 29  1  0  0  0  0
 27 19  2  0  0  0  0
 28  5  1  0  0  0  0
 29 25  1  0  0  0  0
M  END
>  <MODEL>
1

>  <REMARK>
 VINA RESULT:      -7.2      0.000      0.000
  Name = 
  0 active torsions:
  status: ('A' for Active; 'I' for Inactive)
                            x       y       z     vdW  Elec       q    Type
                         _______ _______ _______ _____ _____    ______ ____

>  <TORSDO>
F 0

$$$$
=
 OpenBabel11062422443D

 29 31  0  0  1  0  0  0  0  0999 V2000
  189.3560  177.7160  145.3940 C   0  0  0  0  0  2  0  0  0  0  0  0
  191.4230  175.2420  141.8340 F   0  0  0  0  0  0  0  0  0  0  0  0
  187.8700  175.2450  141.8650 C   0  0  0  0  0  3  0  0  0  0  0  0
  194.2740  176.8740  144.9620 C   0  0  0  0  0  3  0  0  0  0  0  0
  189.6570  176.7980  146.4840 N   0  0  0  0  0  2  0  0  0  0  0  0
  189.9810  173.4760  140.3770 C   0  0  0  0  0  1  0  0  0  0  0  0
  187.8050  176.8980  143.7300 C   0  0  0  0  0  3  0  0  0  0  0  0
  191.2010  175.2420  147.9660 S   0  0  0  0  0  0  0  0  0  0  0  0
  190.2410  176.5130  143.3380 C   0  0  0  0  0  3  0  0  0  0  0  0
  190.2380  170.8250  141.9180 O   0  0  0  0  0  0  0  0  0  0  0  0
  190.2670  175.4730  142.5070 C   0  0  0  0  0  0  0  0  0  0  0  0
  189.0810  174.5420  142.3890 C   0  0  2  0  0  3  0  0  0  0  0  0
  187.2990  176.2690  142.4960 C   0  0  0  0  0  3  0  0  0  0  0  0
  189.3010  173.2870  141.6540 N   0  0  0  0  0  0  0  0  0  0  0  0
  193.3610  174.5790  145.4570 C   0  0  0  0  0  3  0  0  0  0  0  0
  189.4590  171.9740  143.9390 O   0  0  0  0  0  0  0  0  0  0  0  0
  192.0320  176.5870  145.7940 N   0  0  0  0  0  2  0  0  0  0  0  0
  192.2110  171.1520  144.6130 O   0  0  0  0  0  0  0  0  0  0  0  0
  194.9290  174.9810  143.6600 C   0  0  0  0  0  0  0  0  0  0  0  0
  194.0160  172.6130  144.1110 C   0  0  0  0  0  2  0  0  0  0  0  0
  194.9640  176.3730  143.9770 N   0  0  0  0  0  0  0  0  0  0  0  0
  189.0810  176.9680  144.1360 C   0  0  0  0  0  0  0  0  0  0  0  0
  193.3820  176.0390  145.8430 C   0  0  2  0  0  3  0  0  0  0  0  0
  194.0620  174.0810  144.4350 C   0  0  0  0  0  0  0  0  0  0  0  0
  190.1780  172.1470  142.6320 S   0  0  0  0  0  0  0  0  0  0  0  0
  192.6270  172.1140  143.9140 C   0  0  0  0  0  0  0  0  0  0  0  0
  195.6610  174.5280  142.7390 O   0  0  0  0  0  0  0  0  0  0  0  0
  190.9580  176.2380  146.6840 C   0  0  0  0  0  0  0  0  0  0  0  0
  191.7900  172.7030  142.9240 N   0  0  0  0  0  2  0  0  0  0  0  0
  1  5  1  0  0  0  0
  2 11  1  0  0  0  0
  3 13  2  0  0  0  0
  5 28  1  0  0  0  0
  6 14  1  0  0  0  0
  7 22  2  0  0  0  0
  9 22  1  0  0  0  0
 10 25  2  0  0  0  0
 11  9  2  0  0  0  0
 12  3  1  6  0  0  0
 12 11  1  0  0  0  0
 13  7  1  0  0  0  0
 14 12  1  0  0  0  0
 14 25  1  0  0  0  0
 15 23  1  0  0  0  0
 17 23  1  0  0  0  0
 17 28  1  0  0  0  0
 19 21  1  0  0  0  0
 19 24  1  0  0  0  0
 20 24  1  0  0  0  0
 21  4  2  0  0  0  0
 22  1  1  0  0  0  0
 23  4  1  6  0  0  0
 24 15  2  0  0  0  0
 25 29  1  0  0  0  0
 25 16  2  0  0  0  0
 26 20  1  0  0  0  0
 26 18  2  0  0  0  0
 27 19  2  0  0  0  0
 28  8  2  0  0  0  0
 29 26  1  0  0  0  0
M  END
>  <MODEL>
2

>  <REMARK>
 VINA RESULT:      -7.1      2.379      5.363
  Name = 
  0 active torsions:
  status: ('A' for Active; 'I' for Inactive)
                            x       y       z     vdW  Elec       q    Type
                         _______ _______ _______ _____ _____    ______ ____

>  <TORSDO>
F 0

$$$$
=
 OpenBabel11062422443D

 29 31  0  0  1  0  0  0  0  0999 V2000
  185.8950  176.9750  144.3310 C   0  0  0  0  0  2  0  0  0  0  0  0
  189.7830  174.5110  145.7010 F   0  0  0  0  0  0  0  0  0  0  0  0
  189.1950  177.5660  147.4180 C   0  0  0  0  0  3  0  0  0  0  0  0
  187.6180  172.8460  142.0800 C   0  0  0  0  0  3  0  0  0  0  0  0
  186.3950  177.4510  143.0490 N   0  0  0  0  0  2  0  0  0  0  0  0
  191.6980  175.6970  147.2020 C   0  0  0  0  0  1  0  0  0  0  0  0
  186.9950  177.8740  146.2870 C   0  0  0  0  0  3  0  0  0  0  0  0
  187.5410  177.2230  140.6750 S   0  0  0  0  0  0  0  0  0  0  0  0
  187.8830  175.7460  145.3290 C   0  0  0  0  0  3  0  0  0  0  0  0
  193.6210  176.9370  145.1440 O   0  0  0  0  0  0  0  0  0  0  0  0
  189.1420  175.7060  145.7600 C   0  0  0  0  0  0  0  0  0  0  0  0
  189.8490  176.9630  146.2150 C   0  0  2  0  0  3  0  0  0  0  0  0
  187.9350  177.9960  147.4160 C   0  0  0  0  0  3  0  0  0  0  0  0
  191.3020  176.8630  146.4190 N   0  0  0  0  0  0  0  0  0  0  0  0
  189.4020  174.5470  141.5570 C   0  0  0  0  0  3  0  0  0  0  0  0
  191.7120  178.0770  144.1110 O   0  0  0  0  0  0  0  0  0  0  0  0
  187.2210  175.1990  142.4110 N   0  0  0  0  0  2  0  0  0  0  0  0
  192.6690  176.2530  141.9990 O   0  0  0  0  0  0  0  0  0  0  0  0
  189.9320  172.3400  142.3910 C   0  0  0  0  0  0  0  0  0  0  0  0
  191.7980  174.0450  141.8880 C   0  0  0  0  0  2  0  0  0  0  0  0
  188.5440  172.0070  142.4450 N   0  0  0  0  0  0  0  0  0  0  0  0
  186.9910  176.9260  145.3380 C   0  0  0  0  0  0  0  0  0  0  0  0
  187.9240  174.2330  141.5770 C   0  0  2  0  0  3  0  0  0  0  0  0
  190.3410  173.6820  141.9500 C   0  0  0  0  0  0  0  0  0  0  0  0
  192.1390  176.8700  144.8950 S   0  0  0  0  0  0  0  0  0  0  0  0
  192.1040  175.3090  142.6130 C   0  0  0  0  0  0  0  0  0  0  0  0
  190.7980  171.4750  142.6940 O   0  0  0  0  0  0  0  0  0  0  0  0
  187.0480  176.5940  142.1080 C   0  0  0  0  0  0  0  0  0  0  0  0
  191.7840  175.4360  143.9950 N   0  0  0  0  0  2  0  0  0  0  0  0
  1 22  1  0  0  0  0
  2 11  1  0  0  0  0
  4 21  2  0  0  0  0
  5  1  1  0  0  0  0
  7 13  1  0  0  0  0
  8 28  2  0  0  0  0
  9 22  1  0  0  0  0
  9 11  2  0  0  0  0
 11 12  1  0  0  0  0
 12 14  1  0  0  0  0
 12  3  1  1  0  0  0
 13  3  2  0  0  0  0
 14  6  1  0  0  0  0
 15 24  2  0  0  0  0
 16 25  2  0  0  0  0
 18 26  2  0  0  0  0
 19 21  1  0  0  0  0
 19 27  2  0  0  0  0
 20 24  1  0  0  0  0
 20 26  1  0  0  0  0
 22  7  2  0  0  0  0
 23 15  1  1  0  0  0
 23  4  1  0  0  0  0
 23 17  1  0  0  0  0
 24 19  1  0  0  0  0
 25 10  2  0  0  0  0
 25 14  1  0  0  0  0
 26 29  1  0  0  0  0
 28 17  1  0  0  0  0
 28  5  1  0  0  0  0
 29 25  1  0  0  0  0
M  END
>  <MODEL>
3

>  <REMARK>
 VINA RESULT:      -7.0      1.793      2.402
  Name = 
  0 active torsions:
  status: ('A' for Active; 'I' for Inactive)
                            x       y       z     vdW  Elec       q    Type
                         _______ _______ _______ _____ _____    ______ ____

>  <TORSDO>
F 0

$$$$
=
 OpenBabel11062422443D

 29 31  0  0  1  0  0  0  0  0999 V2000
  189.5860  177.4820  144.8880 C   0  0  0  0  0  2  0  0  0  0  0  0
  192.5860  175.1670  141.9370 F   0  0  0  0  0  0  0  0  0  0  0  0
  189.1200  174.7080  141.3030 C   0  0  0  0  0  3  0  0  0  0  0  0
  194.5600  177.2730  145.4360 C   0  0  0  0  0  3  0  0  0  0  0  0
  189.7800  176.6530  146.0700 N   0  0  0  0  0  2  0  0  0  0  0  0
  191.6770  173.1750  140.3470 C   0  0  0  0  0  1  0  0  0  0  0  0
  188.4970  176.4070  143.0170 C   0  0  0  0  0  3  0  0  0  0  0  0
  191.1840  175.3680  147.9070 S   0  0  0  0  0  0  0  0  0  0  0  0
  190.9900  176.3290  143.1120 C   0  0  0  0  0  3  0  0  0  0  0  0
  191.9490  170.6390  142.0700 O   0  0  0  0  0  0  0  0  0  0  0  0
  191.3030  175.2700  142.3670 C   0  0  0  0  0  0  0  0  0  0  0  0
  190.2830  174.1890  142.0860 C   0  0  2  0  0  3  0  0  0  0  0  0
  188.3190  175.6720  141.7510 C   0  0  0  0  0  3  0  0  0  0  0  0
  190.7910  172.9470  141.4840 N   0  0  0  0  0  0  0  0  0  0  0  0
  193.8530  174.8980  145.8930 C   0  0  0  0  0  3  0  0  0  0  0  0
  190.6610  171.7520  143.8350 O   0  0  0  0  0  0  0  0  0  0  0  0
  192.2510  176.7270  145.8510 N   0  0  0  0  0  2  0  0  0  0  0  0
  193.3100  171.3220  145.0610 O   0  0  0  0  0  0  0  0  0  0  0  0
  195.6780  175.4330  144.3990 C   0  0  0  0  0  0  0  0  0  0  0  0
  194.9880  172.9860  144.8160 C   0  0  0  0  0  2  0  0  0  0  0  0
  195.4820  176.8290  144.6300 N   0  0  0  0  0  0  0  0  0  0  0  0
  189.6520  176.6580  143.6500 C   0  0  0  0  0  0  0  0  0  0  0  0
  193.6220  176.3630  146.1850 C   0  0  2  0  0  3  0  0  0  0  0  0
  194.7930  174.4580  145.0520 C   0  0  0  0  0  0  0  0  0  0  0  0
  191.5930  171.9680  142.6770 S   0  0  0  0  0  0  0  0  0  0  0  0
  193.7340  172.3020  144.3940 C   0  0  0  0  0  0  0  0  0  0  0  0
  196.6240  175.0450  143.6610 O   0  0  0  0  0  0  0  0  0  0  0  0
  191.0750  176.2750  146.5440 C   0  0  0  0  0  0  0  0  0  0  0  0
  193.0390  172.7400  143.2300 N   0  0  0  0  0  2  0  0  0  0  0  0
  1  5  1  0  0  0  0
  2 11  1  0  0  0  0
  3 13  2  0  0  0  0
  5 28  1  0  0  0  0
  6 14  1  0  0  0  0
  7 22  2  0  0  0  0
  9 22  1  0  0  0  0
 10 25  2  0  0  0  0
 11  9  2  0  0  0  0
 12  3  1  6  0  0  0
 12 11  1  0  0  0  0
 13  7  1  0  0  0  0
 14 12  1  0  0  0  0
 14 25  1  0  0  0  0
 15 23  1  0  0  0  0
 17 23  1  0  0  0  0
 17 28  1  0  0  0  0
 19 21  1  0  0  0  0
 19 24  1  0  0  0  0
 20 24  1  0  0  0  0
 21  4  2  0  0  0  0
 22  1  1  0  0  0  0
 23  4  1  6  0  0  0
 24 15  2  0  0  0  0
 25 29  1  0  0  0  0
 25 16  2  0  0  0  0
 26 20  1  0  0  0  0
 26 18  2  0  0  0  0
 27 19  2  0  0  0  0
 28  8  2  0  0  0  0
 29 26  1  0  0  0  0
M  END
>  <MODEL>
4

>  <REMARK>
 VINA RESULT:      -7.0      2.539      5.538
  Name = 
  0 active torsions:
  status: ('A' for Active; 'I' for Inactive)
                            x       y       z     vdW  Elec       q    Type
                         _______ _______ _______ _____ _____    ______ ____

>  <TORSDO>
F 0

$$$$
=
 OpenBabel11062422443D

 29 31  0  0  1  0  0  0  0  0999 V2000
  194.1340  176.6520  146.5410 C   0  0  0  0  0  2  0  0  0  0  0  0
  191.4920  175.7200  142.6400 F   0  0  0  0  0  0  0  0  0  0  0  0
  189.8280  175.3820  145.7610 C   0  0  0  0  0  3  0  0  0  0  0  0
  195.8970  176.4680  141.8570 C   0  0  0  0  0  3  0  0  0  0  0  0
  194.9620  175.4550  146.5190 N   0  0  0  0  0  2  0  0  0  0  0  0
  189.1300  174.4190  142.8640 C   0  0  0  0  0  1  0  0  0  0  0  0
  191.7870  176.2990  146.9990 C   0  0  0  0  0  3  0  0  0  0  0  0
  196.5490  173.6430  145.4240 S   0  0  0  0  0  0  0  0  0  0  0  0
  192.5180  176.2970  144.6120 C   0  0  0  0  0  3  0  0  0  0  0  0
  189.8760  171.4410  142.6600 O   0  0  0  0  0  0  0  0  0  0  0  0
  191.5670  175.6030  143.9900 C   0  0  0  0  0  0  0  0  0  0  0  0
  190.6660  174.6590  144.7550 C   0  0  2  0  0  3  0  0  0  0  0  0
  190.3470  176.0770  146.7710 C   0  0  0  0  0  3  0  0  0  0  0  0
  189.8340  173.7500  143.9540 N   0  0  0  0  0  0  0  0  0  0  0  0
  195.2970  174.0640  142.3170 C   0  0  0  0  0  3  0  0  0  0  0  0
  191.4990  171.7670  144.4680 O   0  0  0  0  0  0  0  0  0  0  0  0
  195.4580  175.7100  144.1000 N   0  0  0  0  0  2  0  0  0  0  0  0
  193.1680  171.0280  142.1500 O   0  0  0  0  0  0  0  0  0  0  0  0
  194.6310  175.1900  140.2830 C   0  0  0  0  0  0  0  0  0  0  0  0
  193.9760  172.7340  140.7070 C   0  0  0  0  0  2  0  0  0  0  0  0
  195.2680  176.3920  140.7180 N   0  0  0  0  0  0  0  0  0  0  0  0
  192.7540  176.3470  146.0720 C   0  0  0  0  0  0  0  0  0  0  0  0
  196.0020  175.3060  142.8100 C   0  0  2  0  0  3  0  0  0  0  0  0
  194.6420  174.0050  141.1540 C   0  0  0  0  0  0  0  0  0  0  0  0
  190.7850  172.4350  143.3290 S   0  0  0  0  0  0  0  0  0  0  0  0
  193.0210  172.2030  141.7200 C   0  0  0  0  0  0  0  0  0  0  0  0
  194.0890  175.1430  139.1450 O   0  0  0  0  0  0  0  0  0  0  0  0
  195.6070  174.9830  145.3330 C   0  0  0  0  0  0  0  0  0  0  0  0
  191.9390  173.0090  142.1750 N   0  0  0  0  0  2  0  0  0  0  0  0
  2 11  1  0  0  0  0
  3 13  2  0  0  0  0
  5  1  1  0  0  0  0
  6 14  1  0  0  0  0
  9 22  1  0  0  0  0
 10 25  2  0  0  0  0
 11  9  2  0  0  0  0
 11 12  1  0  0  0  0
 12  3  1  6  0  0  0
 13  7  1  0  0  0  0
 14 12  1  0  0  0  0
 15 23  1  0  0  0  0
 17 28  1  0  0  0  0
 19 21  1  0  0  0  0
 19 24  1  0  0  0  0
 20 24  1  0  0  0  0
 20 26  1  0  0  0  0
 21  4  2  0  0  0  0
 22  1  1  0  0  0  0
 22  7  2  0  0  0  0
 23  4  1  6  0  0  0
 23 17  1  0  0  0  0
 24 15  2  0  0  0  0
 25 14  1  0  0  0  0
 25 16  2  0  0  0  0
 26 18  2  0  0  0  0
 26 29  1  0  0  0  0
 27 19  2  0  0  0  0
 28  8  2  0  0  0  0
 28  5  1  0  0  0  0
 29 25  1  0  0  0  0
M  END
>  <MODEL>
5

>  <REMARK>
 VINA RESULT:      -6.8      2.642      5.363
  Name = 
  0 active torsions:
  status: ('A' for Active; 'I' for Inactive)
                            x       y       z     vdW  Elec       q    Type
                         _______ _______ _______ _____ _____    ______ ____

>  <TORSDO>
F 0

$$$$
=
 OpenBabel11062422443D

 29 31  0  0  1  0  0  0  0  0999 V2000
  189.0770  173.9500  141.8530 C   0  0  0  0  0  2  0  0  0  0  0  0
  191.2110  173.5860  146.1410 F   0  0  0  0  0  0  0  0  0  0  0  0
  189.2050  176.4770  145.6430 C   0  0  0  0  0  3  0  0  0  0  0  0
  192.4000  170.4220  143.1160 C   0  0  0  0  0  3  0  0  0  0  0  0
  190.2570  174.2730  141.0630 N   0  0  0  0  0  2  0  0  0  0  0  0
  191.3750  175.7370  147.7750 C   0  0  0  0  0  1  0  0  0  0  0  0
  188.3860  175.6320  143.4460 C   0  0  0  0  0  3  0  0  0  0  0  0
  192.7440  173.9680  140.2120 S   0  0  0  0  0  0  0  0  0  0  0  0
  189.9580  173.8600  144.2350 C   0  0  0  0  0  3  0  0  0  0  0  0
  194.0020  177.1170  146.9590 O   0  0  0  0  0  0  0  0  0  0  0  0
  190.5590  174.4150  145.2860 C   0  0  0  0  0  0  0  0  0  0  0  0
  190.5800  175.9170  145.4670 C   0  0  2  0  0  3  0  0  0  0  0  0
  188.2550  176.3680  144.7170 C   0  0  0  0  0  3  0  0  0  0  0  0
  191.4830  176.4410  146.5020 N   0  0  0  0  0  0  0  0  0  0  0  0
  193.8050  172.5130  143.0680 C   0  0  0  0  0  3  0  0  0  0  0  0
  193.2130  177.1500  144.6380 O   0  0  0  0  0  0  0  0  0  0  0  0
  191.5800  172.4400  142.0900 N   0  0  0  0  0  2  0  0  0  0  0  0
  195.5930  175.4090  144.5470 O   0  0  0  0  0  0  0  0  0  0  0  0
  193.8930  170.9450  144.9070 C   0  0  0  0  0  0  0  0  0  0  0  0
  195.3420  173.0760  144.9190 C   0  0  0  0  0  2  0  0  0  0  0  0
  192.9140  170.1190  144.2740 N   0  0  0  0  0  0  0  0  0  0  0  0
  189.1640  174.5670  143.2060 C   0  0  0  0  0  0  0  0  0  0  0  0
  192.7840  171.6610  142.3510 C   0  0  2  0  0  3  0  0  0  0  0  0
  194.3120  172.1980  144.2630 C   0  0  0  0  0  0  0  0  0  0  0  0
  193.1320  176.4220  145.9490 S   0  0  0  0  0  0  0  0  0  0  0  0
  194.8910  174.4900  145.0450 C   0  0  0  0  0  0  0  0  0  0  0  0
  194.4110  170.5820  145.9980 O   0  0  0  0  0  0  0  0  0  0  0  0
  191.4840  173.5460  141.1750 C   0  0  0  0  0  0  0  0  0  0  0  0
  193.6900  174.7970  145.7470 N   0  0  0  0  0  2  0  0  0  0  0  0
  1 22  1  0  0  0  0
  4 21  2  0  0  0  0
  5 28  1  0  0  0  0
  5  1  1  0  0  0  0
  7 13  1  0  0  0  0
  8 28  2  0  0  0  0
  9 11  2  0  0  0  0
 11 12  1  0  0  0  0
 11  2  1  0  0  0  0
 12  3  1  1  0  0  0
 12 14  1  0  0  0  0
 13  3  2  0  0  0  0
 14  6  1  0  0  0  0
 15 24  2  0  0  0  0
 16 25  2  0  0  0  0
 17 23  1  0  0  0  0
 18 26  2  0  0  0  0
 19 27  2  0  0  0  0
 20 26  1  0  0  0  0
 21 19  1  0  0  0  0
 22  7  2  0  0  0  0
 22  9  1  0  0  0  0
 23 15  1  1  0  0  0
 23  4  1  0  0  0  0
 24 19  1  0  0  0  0
 24 20  1  0  0  0  0
 25 14  1  0  0  0  0
 25 10  2  0  0  0  0
 26 29  1  0  0  0  0
 28 17  1  0  0  0  0
 29 25  1  0  0  0  0
M  END
>  <MODEL>
6

>  <REMARK>
 VINA RESULT:      -6.6      2.451      4.423
  Name = 
  0 active torsions:
  status: ('A' for Active; 'I' for Inactive)
                            x       y       z     vdW  Elec       q    Type
                         _______ _______ _______ _____ _____    ______ ____

>  <TORSDO>
F 0

$$$$
=
 OpenBabel11062422443D

 29 31  0  0  1  0  0  0  0  0999 V2000
  197.9410  173.8480  145.0330 C   0  0  0  0  0  2  0  0  0  0  0  0
  193.4680  172.1760  145.5480 F   0  0  0  0  0  0  0  0  0  0  0  0
  195.8200  169.9150  144.1400 C   0  0  0  0  0  3  0  0  0  0  0  0
  194.0080  176.5780  146.5010 C   0  0  0  0  0  3  0  0  0  0  0  0
  197.6970  174.7490  143.9160 N   0  0  0  0  0  2  0  0  0  0  0  0
  192.6910  169.9250  144.2630 C   0  0  0  0  0  1  0  0  0  0  0  0
  197.7070  171.4900  144.5530 C   0  0  0  0  0  3  0  0  0  0  0  0
  196.4350  176.6650  142.5980 S   0  0  0  0  0  0  0  0  0  0  0  0
  195.6960  172.7120  145.3880 C   0  0  0  0  0  3  0  0  0  0  0  0
  191.6490  170.9200  141.5440 O   0  0  0  0  0  0  0  0  0  0  0  0
  194.6760  171.9710  144.9620 C   0  0  0  0  0  0  0  0  0  0  0  0
  194.8450  171.0010  143.8140 C   0  0  2  0  0  3  0  0  0  0  0  0
  197.0970  170.1530  144.4330 C   0  0  0  0  0  3  0  0  0  0  0  0
  193.6130  170.4290  143.2500 N   0  0  0  0  0  0  0  0  0  0  0  0
  193.4650  176.0760  144.0920 C   0  0  0  0  0  3  0  0  0  0  0  0
  193.7760  172.0900  141.2040 O   0  0  0  0  0  0  0  0  0  0  0  0
  195.6920  175.7290  145.0040 N   0  0  0  0  0  2  0  0  0  0  0  0
  191.7870  174.2660  141.3200 O   0  0  0  0  0  0  0  0  0  0  0  0
  191.8480  175.7770  145.8660 C   0  0  0  0  0  0  0  0  0  0  0  0
  191.2410  175.2320  143.4210 C   0  0  0  0  0  2  0  0  0  0  0  0
  192.8020  176.2150  146.8340 N   0  0  0  0  0  0  0  0  0  0  0  0
  197.0970  172.6270  144.9200 C   0  0  0  0  0  0  0  0  0  0  0  0
  194.5010  176.5650  145.0780 C   0  0  2  0  0  3  0  0  0  0  0  0
  192.2370  175.6910  144.4500 C   0  0  0  0  0  0  0  0  0  0  0  0
  192.8060  171.5870  142.2340 S   0  0  0  0  0  0  0  0  0  0  0  0
  191.7660  174.1270  142.5720 C   0  0  0  0  0  0  0  0  0  0  0  0
  190.6720  175.4950  146.2250 O   0  0  0  0  0  0  0  0  0  0  0  0
  196.5990  175.6660  143.8900 C   0  0  0  0  0  0  0  0  0  0  0  0
  192.2120  172.9150  143.1720 N   0  0  0  0  0  2  0  0  0  0  0  0
  3 13  2  0  0  0  0
  4 21  2  0  0  0  0
  5  1  1  0  0  0  0
  7 22  2  0  0  0  0
  8 28  2  0  0  0  0
 10 25  2  0  0  0  0
 11  9  2  0  0  0  0
 11  2  1  0  0  0  0
 12  3  1  1  0  0  0
 12 11  1  0  0  0  0
 13  7  1  0  0  0  0
 14 12  1  0  0  0  0
 14  6  1  0  0  0  0
 15 24  2  0  0  0  0
 16 25  2  0  0  0  0
 17 23  1  0  0  0  0
 18 26  2  0  0  0  0
 19 27  2  0  0  0  0
 19 21  1  0  0  0  0
 20 24  1  0  0  0  0
 22  1  1  0  0  0  0
 22  9  1  0  0  0  0
 23 15  1  6  0  0  0
 23  4  1  0  0  0  0
 24 19  1  0  0  0  0
 25 29  1  0  0  0  0
 25 14  1  0  0  0  0
 26 29  1  0  0  0  0
 26 20  1  0  0  0  0
 28  5  1  0  0  0  0
 28 17  1  0  0  0  0
M  END
>  <MODEL>
7

>  <REMARK>
 VINA RESULT:      -6.3      3.193      6.464
  Name = 
  0 active torsions:
  status: ('A' for Active; 'I' for Inactive)
                            x       y       z     vdW  Elec       q    Type
                         _______ _______ _______ _____ _____    ______ ____

>  <TORSDO>
F 0

$$$$
=
 OpenBabel11062422443D

 29 31  0  0  1  0  0  0  0  0999 V2000
  195.5970  173.3910  145.7610 C   0  0  0  0  0  2  0  0  0  0  0  0
  190.9980  172.4600  144.7360 F   0  0  0  0  0  0  0  0  0  0  0  0
  193.4020  170.9600  142.5930 C   0  0  0  0  0  3  0  0  0  0  0  0
  191.6650  175.5060  148.0310 C   0  0  0  0  0  3  0  0  0  0  0  0
  195.6300  174.7770  145.3140 N   0  0  0  0  0  2  0  0  0  0  0  0
  190.3150  171.4120  142.3370 C   0  0  0  0  0  1  0  0  0  0  0  0
  195.2870  171.7350  144.0280 C   0  0  0  0  0  3  0  0  0  0  0  0
  194.7770  177.2760  145.1480 S   0  0  0  0  0  0  0  0  0  0  0  0
  193.2490  172.6260  145.1610 C   0  0  0  0  0  3  0  0  0  0  0  0
  189.8720  173.8640  140.5310 O   0  0  0  0  0  0  0  0  0  0  0  0
  192.2750  172.4070  144.2800 C   0  0  0  0  0  0  0  0  0  0  0  0
  192.5860  172.1930  142.8150 C   0  0  2  0  0  3  0  0  0  0  0  0
  194.6160  170.7920  143.1140 C   0  0  0  0  0  3  0  0  0  0  0  0
  191.4430  172.2220  141.8900 N   0  0  0  0  0  0  0  0  0  0  0  0
  191.5460  176.4700  145.7060 C   0  0  0  0  0  3  0  0  0  0  0  0
  192.1040  174.6690  141.1490 O   0  0  0  0  0  0  0  0  0  0  0  0
  193.5340  175.3310  146.5220 N   0  0  0  0  0  2  0  0  0  0  0  0
  190.2890  176.7320  142.2240 O   0  0  0  0  0  0  0  0  0  0  0  0
  189.6090  175.5350  146.8120 C   0  0  0  0  0  0  0  0  0  0  0  0
  189.4320  176.4940  144.4270 C   0  0  0  0  0  2  0  0  0  0  0  0
  190.3950  175.2220  147.9630 N   0  0  0  0  0  0  0  0  0  0  0  0
  194.7030  172.5790  144.8910 C   0  0  0  0  0  0  0  0  0  0  0  0
  192.4120  176.1780  146.9090 C   0  0  2  0  0  3  0  0  0  0  0  0
  190.2490  176.1600  145.6440 C   0  0  0  0  0  0  0  0  0  0  0  0
  190.9250  173.8580  141.6040 S   0  0  0  0  0  0  0  0  0  0  0  0
  190.0250  175.9490  143.1740 C   0  0  0  0  0  0  0  0  0  0  0  0
  188.3700  175.3000  146.8140 O   0  0  0  0  0  0  0  0  0  0  0  0
  194.6260  175.7290  145.6750 C   0  0  0  0  0  0  0  0  0  0  0  0
  190.2640  174.5510  143.0450 N   0  0  0  0  0  2  0  0  0  0  0  0
  3 13  2  0  0  0  0
  5 28  1  0  0  0  0
  5  1  1  0  0  0  0
  7 22  2  0  0  0  0
  8 28  2  0  0  0  0
 10 25  2  0  0  0  0
 11  2  1  0  0  0  0
 11  9  2  0  0  0  0
 12  3  1  1  0  0  0
 12 11  1  0  0  0  0
 13  7  1  0  0  0  0
 14  6  1  0  0  0  0
 14 12  1  0  0  0  0
 16 25  2  0  0  0  0
 17 23  1  0  0  0  0
 18 26  2  0  0  0  0
 19 27  2  0  0  0  0
 19 21  1  0  0  0  0
 20 24  1  0  0  0  0
 21  4  2  0  0  0  0
 22  9  1  0  0  0  0
 22  1  1  0  0  0  0
 23 15  1  6  0  0  0
 23  4  1  0  0  0  0
 24 15  2  0  0  0  0
 24 19  1  0  0  0  0
 25 14  1  0  0  0  0
 25 29  1  0  0  0  0
 26 20  1  0  0  0  0
 28 17  1  0  0  0  0
 29 26  1  0  0  0  0
M  END
>  <MODEL>
8

>  <REMARK>
 VINA RESULT:      -6.3      2.566      5.826
  Name = 
  0 active torsions:
  status: ('A' for Active; 'I' for Inactive)
                            x       y       z     vdW  Elec       q    Type
                         _______ _______ _______ _____ _____    ______ ____

>  <TORSDO>
F 0

$$$$
=
 OpenBabel11062422443D

 29 31  0  0  1  0  0  0  0  0999 V2000
  189.4690  172.7870  143.4270 C   0  0  0  0  0  2  0  0  0  0  0  0
  193.3400  173.8100  146.0780 F   0  0  0  0  0  0  0  0  0  0  0  0
  191.1920  176.5440  145.3470 C   0  0  0  0  0  3  0  0  0  0  0  0
  193.1670  169.5740  144.4650 C   0  0  0  0  0  3  0  0  0  0  0  0
  190.1400  172.5920  142.1500 N   0  0  0  0  0  2  0  0  0  0  0  0
  194.1290  176.3760  146.4170 C   0  0  0  0  0  1  0  0  0  0  0  0
  189.5010  175.0410  144.2990 C   0  0  0  0  0  3  0  0  0  0  0  0
  191.9740  171.6050  140.5180 S   0  0  0  0  0  0  0  0  0  0  0  0
  191.3440  173.5030  144.9850 C   0  0  0  0  0  3  0  0  0  0  0  0
  196.0220  176.9110  144.0500 O   0  0  0  0  0  0  0  0  0  0  0  0
  192.3310  174.3270  145.3330 C   0  0  0  0  0  0  0  0  0  0  0  0
  192.3600  175.7570  144.8420 C   0  0  2  0  0  3  0  0  0  0  0  0
  189.9300  176.2260  145.0640 C   0  0  0  0  0  3  0  0  0  0  0  0
  193.6090  176.5010  145.0590 N   0  0  0  0  0  0  0  0  0  0  0  0
  194.2920  171.2400  142.9450 C   0  0  0  0  0  3  0  0  0  0  0  0
  194.2590  176.1530  142.5240 O   0  0  0  0  0  0  0  0  0  0  0  0
  191.8720  171.1290  143.1600 N   0  0  0  0  0  2  0  0  0  0  0  0
  196.4160  174.1760  142.1450 O   0  0  0  0  0  0  0  0  0  0  0  0
  195.2870  170.5230  145.0300 C   0  0  0  0  0  0  0  0  0  0  0  0
  196.4760  172.2420  143.5220 C   0  0  0  0  0  2  0  0  0  0  0  0
  194.1680  169.6740  145.2930 N   0  0  0  0  0  0  0  0  0  0  0  0
  190.1340  173.8620  144.2130 C   0  0  0  0  0  0  0  0  0  0  0  0
  193.0980  170.3410  143.1700 C   0  0  2  0  0  3  0  0  0  0  0  0
  195.3040  171.3450  143.8110 C   0  0  0  0  0  0  0  0  0  0  0  0
  194.8210  176.0170  143.9100 S   0  0  0  0  0  0  0  0  0  0  0  0
  196.0640  173.6430  143.2300 C   0  0  0  0  0  0  0  0  0  0  0  0
  196.2630  170.5410  145.8280 O   0  0  0  0  0  0  0  0  0  0  0  0
  191.3160  171.7900  142.0100 C   0  0  0  0  0  0  0  0  0  0  0  0
  195.3040  174.3780  144.1830 N   0  0  0  0  0  2  0  0  0  0  0  0
  1 22  1  0  0  0  0
  4 21  2  0  0  0  0
  5  1  1  0  0  0  0
  7 13  1  0  0  0  0
  8 28  2  0  0  0  0
  9 11  2  0  0  0  0
 11  2  1  0  0  0  0
 12 14  1  0  0  0  0
 12 11  1  0  0  0  0
 12  3  1  1  0  0  0
 13  3  2  0  0  0  0
 14  6  1  0  0  0  0
 15 24  2  0  0  0  0
 16 25  2  0  0  0  0
 17 23  1  0  0  0  0
 18 26  2  0  0  0  0
 19 21  1  0  0  0  0
 19 27  2  0  0  0  0
 20 24  1  0  0  0  0
 22  7  2  0  0  0  0
 22  9  1  0  0  0  0
 23 15  1  1  0  0  0
 23  4  1  0  0  0  0
 24 19  1  0  0  0  0
 25 10  2  0  0  0  0
 25 29  1  0  0  0  0
 25 14  1  0  0  0  0
 26 20  1  0  0  0  0
 26 29  1  0  0  0  0
 28  5  1  0  0  0  0
 28 17  1  0  0  0  0
M  END
>  <MODEL>
9

>  <REMARK>
 VINA RESULT:      -6.3      2.909      4.783
  Name = 
  0 active torsions:
  status: ('A' for Active; 'I' for Inactive)
                            x       y       z     vdW  Elec       q    Type
                         _______ _______ _______ _____ _____    ______ ____

>  <TORSDO>
F 0

$$$$
