=
 OpenBabel11072408343D

 26 27  0  0  0  0  0  0  0  0999 V2000
  188.1070  175.6720  142.0900 O   0  0  0  0  0  0  0  0  0  0  0  0
  186.6440  177.8260  144.6490 C   0  0  0  0  0  0  0  0  0  0  0  0
  186.8790  177.6510  141.7470 C   0  0  0  0  0  0  0  0  0  0  0  0
  188.0570  176.1010  146.3290 C   0  0  0  0  0  3  0  0  0  0  0  0
  187.1280  176.9440  146.8340 N   0  0  0  0  0  0  0  0  0  0  0  0
  185.6310  179.9890  144.2220 N   0  0  0  0  0  2  0  0  0  0  0  0
  186.1630  178.7300  142.3320 N   0  0  0  0  0  2  0  0  0  0  0  0
  186.9010  177.5160  140.4650 N   0  0  0  0  0  2  0  0  0  0  0  0
  187.5640  176.6810  142.6110 C   0  0  0  0  0  0  0  0  0  0  0  0
  186.0500  178.8640  143.7490 C   0  0  0  0  0  0  0  0  0  0  0  0
  188.2920  176.0450  144.9610 C   0  0  0  0  0  0  0  0  0  0  0  0
  186.4100  177.7930  146.0520 C   0  0  0  0  0  0  0  0  0  0  0  0
  187.5270  176.8610  144.0910 C   0  0  0  0  0  0  0  0  0  0  0  0
  184.0070  178.2580  146.5160 O   0  0  0  0  0  0  0  0  0  0  0  0
  185.6530  179.4710  147.5400 O   0  0  0  0  0  1  0  0  0  0  0  0
  185.3460  178.5720  146.7150 C   0  0  0  0  0  0  0  0  0  0  0  0
  189.3280  175.1760  144.5000 N   0  0  0  0  0  2  0  0  0  0  0  0
  189.9920  174.2380  145.3920 C   0  0  0  0  0  2  0  0  0  0  0  0
  191.4890  174.5140  145.4290 C   0  0  0  0  0  2  0  0  0  0  0  0
  191.2700  175.6780  147.5970 C   0  0  0  0  0  3  0  0  0  0  0  0
  191.7810  175.6730  146.2690 N   0  0  0  0  0  0  0  0  0  0  0  0
  191.5940  176.5820  148.4100 O   0  0  0  0  0  0  0  0  0  0  0  0
  194.8440  175.4170  146.2420 C   0  0  0  0  0  1  0  0  0  0  0  0
  194.0920  176.6520  145.9040 C   0  0  0  0  0  0  0  0  0  0  0  0
  194.7410  177.6880  145.6230 O   0  0  0  0  0  0  0  0  0  0  0  0
  192.6580  176.7000  145.8630 N   0  0  0  0  0  2  0  0  0  0  0  0
  1  9  2  0  0  0  0
  2 12  1  0  0  0  0
  3  7  1  0  0  0  0
  3  9  1  0  0  0  0
  4  5  1  0  0  0  0
  7 10  1  0  0  0  0
  8  3  2  0  0  0  0
  9 13  1  0  0  0  0
 10  6  2  0  0  0  0
 10  2  1  0  0  0  0
 11  4  2  0  0  0  0
 12 16  1  0  0  0  0
 12  5  2  0  0  0  0
 13  2  2  0  0  0  0
 13 11  1  0  0  0  0
 14 16  2  0  0  0  0
 16 15  1  0  0  0  0
 17 11  1  0  0  0  0
 17 18  1  0  0  0  0
 18 19  1  0  0  0  0
 19 21  1  0  0  0  0
 20 22  2  0  0  0  0
 21 20  1  0  0  0  0
 24 23  1  0  0  0  0
 25 24  2  0  0  0  0
 26 24  1  0  0  0  0
 26 21  1  0  0  0  0
M  END
>  <MODEL>
1

>  <REMARK>
 VINA RESULT:      -6.9      0.000      0.000
  Name = 
  6 active torsions:
  status: ('A' for Active; 'I' for Inactive)
    1  A    between atoms: N_13  and  N_22
    2  A    between atoms: C_18  and  N_22
    3  A    between atoms: C_18  and  C_24
    4  A    between atoms: C_19  and  N_26
    5  A    between atoms: CA_20  and  C_21
    6  A    between atoms: C_24  and  N_26
                            x       y       z     vdW  Elec       q    Type
                         _______ _______ _______ _____ _____    ______ ____

>  <TORSDO>
F 6

$$$$
=
 OpenBabel11072408343D

 26 27  0  0  0  0  0  0  0  0999 V2000
  189.4390  174.3680  144.4150 O   0  0  0  0  0  0  0  0  0  0  0  0
  187.3260  177.3110  143.9660 C   0  0  0  0  0  0  0  0  0  0  0  0
  188.8380  175.3870  142.3790 C   0  0  0  0  0  0  0  0  0  0  0  0
  187.5150  177.3670  146.7520 C   0  0  0  0  0  3  0  0  0  0  0  0
  186.6050  178.1330  146.1090 N   0  0  0  0  0  0  0  0  0  0  0  0
  186.9800  178.4560  141.8560 N   0  0  0  0  0  2  0  0  0  0  0  0
  188.1150  176.4220  141.7290 N   0  0  0  0  0  2  0  0  0  0  0  0
  189.4250  174.4770  141.6780 N   0  0  0  0  0  2  0  0  0  0  0  0
  188.8850  175.3450  143.8460 C   0  0  0  0  0  0  0  0  0  0  0  0
  187.3850  177.3990  142.4730 C   0  0  0  0  0  0  0  0  0  0  0  0
  188.3400  176.5040  146.0410 C   0  0  0  0  0  0  0  0  0  0  0  0
  186.4710  178.1300  144.7550 C   0  0  0  0  0  0  0  0  0  0  0  0
  188.2010  176.4110  144.6340 C   0  0  0  0  0  0  0  0  0  0  0  0
  184.1840  178.3050  143.7850 O   0  0  0  0  0  0  0  0  0  0  0  0
  185.4400  180.1770  144.1650 O   0  0  0  0  0  1  0  0  0  0  0  0
  185.3600  178.9220  144.1930 C   0  0  0  0  0  0  0  0  0  0  0  0
  189.3200  175.7680  146.7750 N   0  0  0  0  0  2  0  0  0  0  0  0
  190.5860  176.3660  147.1710 C   0  0  0  0  0  2  0  0  0  0  0  0
  191.7340  175.4060  146.8880 C   0  0  0  0  0  2  0  0  0  0  0  0
  193.7610  176.8070  146.7250 C   0  0  0  0  0  3  0  0  0  0  0  0
  192.7550  176.0490  146.0650 N   0  0  0  0  0  0  0  0  0  0  0  0
  194.7400  177.2760  146.0870 O   0  0  0  0  0  0  0  0  0  0  0  0
  191.5330  177.8880  143.9280 C   0  0  0  0  0  1  0  0  0  0  0  0
  192.2430  176.6150  143.6470 C   0  0  0  0  0  0  0  0  0  0  0  0
  192.3240  176.2260  142.4560 O   0  0  0  0  0  0  0  0  0  0  0  0
  192.8580  175.8260  144.6770 N   0  0  0  0  0  2  0  0  0  0  0  0
  2 13  2  0  0  0  0
  2 12  1  0  0  0  0
  3  9  1  0  0  0  0
  5  4  1  0  0  0  0
  6 10  2  0  0  0  0
  7  3  1  0  0  0  0
  7 10  1  0  0  0  0
  8  3  2  0  0  0  0
  9  1  2  0  0  0  0
  9 13  1  0  0  0  0
 10  2  1  0  0  0  0
 11  4  2  0  0  0  0
 11 17  1  0  0  0  0
 12  5  2  0  0  0  0
 13 11  1  0  0  0  0
 14 16  2  0  0  0  0
 15 16  1  0  0  0  0
 16 12  1  0  0  0  0
 17 18  1  0  0  0  0
 19 18  1  0  0  0  0
 21 20  1  0  0  0  0
 21 19  1  0  0  0  0
 22 20  2  0  0  0  0
 24 23  1  0  0  0  0
 24 26  1  0  0  0  0
 25 24  2  0  0  0  0
 26 21  1  0  0  0  0
M  END
>  <MODEL>
2

>  <REMARK>
 VINA RESULT:      -6.8      1.986      2.729
  Name = 
  6 active torsions:
  status: ('A' for Active; 'I' for Inactive)
    1  A    between atoms: N_13  and  N_22
    2  A    between atoms: C_18  and  N_22
    3  A    between atoms: C_18  and  C_24
    4  A    between atoms: C_19  and  N_26
    5  A    between atoms: CA_20  and  C_21
    6  A    between atoms: C_24  and  N_26
                            x       y       z     vdW  Elec       q    Type
                         _______ _______ _______ _____ _____    ______ ____

>  <TORSDO>
F 6

$$$$
=
 OpenBabel11072408343D

 26 27  0  0  0  0  0  0  0  0999 V2000
  187.7640  177.4530  140.9290 O   0  0  0  0  0  0  0  0  0  0  0  0
  186.3310  178.0140  144.2390 C   0  0  0  0  0  0  0  0  0  0  0  0
  185.5870  178.1990  141.4250 C   0  0  0  0  0  0  0  0  0  0  0  0
  188.9640  177.5040  145.0170 C   0  0  0  0  0  3  0  0  0  0  0  0
  187.9680  177.5240  145.9320 N   0  0  0  0  0  0  0  0  0  0  0  0
  184.1740  179.0440  144.6560 N   0  0  0  0  0  2  0  0  0  0  0  0
  184.6370  178.5320  142.4280 N   0  0  0  0  0  2  0  0  0  0  0  0
  185.2320  178.1840  140.1850 N   0  0  0  0  0  2  0  0  0  0  0  0
  186.9590  177.8460  141.8130 C   0  0  0  0  0  0  0  0  0  0  0  0
  184.9730  178.4790  143.8150 C   0  0  0  0  0  0  0  0  0  0  0  0
  188.6870  177.6910  143.6680 C   0  0  0  0  0  0  0  0  0  0  0  0
  186.6710  177.7580  145.5970 C   0  0  0  0  0  0  0  0  0  0  0  0
  187.3450  177.8750  143.2530 C   0  0  0  0  0  0  0  0  0  0  0  0
  184.7950  176.5540  146.7090 O   0  0  0  0  0  0  0  0  0  0  0  0
  185.6670  178.4600  147.6220 O   0  0  0  0  0  1  0  0  0  0  0  0
  185.6710  177.6330  146.6740 C   0  0  0  0  0  0  0  0  0  0  0  0
  189.7920  177.7180  142.7630 N   0  0  0  0  0  2  0  0  0  0  0  0
  191.1610  177.8730  143.2310 C   0  0  0  0  0  2  0  0  0  0  0  0
  191.9520  176.5970  142.9790 C   0  0  0  0  0  2  0  0  0  0  0  0
  192.0140  174.4440  144.1880 C   0  0  0  0  0  3  0  0  0  0  0  0
  192.1540  175.8590  144.2230 N   0  0  0  0  0  0  0  0  0  0  0  0
  192.3010  173.7410  145.1910 O   0  0  0  0  0  0  0  0  0  0  0  0
  195.1010  176.5350  144.7740 C   0  0  0  0  0  1  0  0  0  0  0  0
  193.9880  176.7440  145.7340 C   0  0  0  0  0  0  0  0  0  0  0  0
  194.2590  177.1920  146.8750 O   0  0  0  0  0  0  0  0  0  0  0  0
  192.6170  176.4770  145.4030 N   0  0  0  0  0  2  0  0  0  0  0  0
  1  9  2  0  0  0  0
  2 12  1  0  0  0  0
  3  9  1  0  0  0  0
  3  7  1  0  0  0  0
  4  5  1  0  0  0  0
  7 10  1  0  0  0  0
  8  3  2  0  0  0  0
  9 13  1  0  0  0  0
 10  2  1  0  0  0  0
 10  6  2  0  0  0  0
 11  4  2  0  0  0  0
 12  5  2  0  0  0  0
 12 16  1  0  0  0  0
 13 11  1  0  0  0  0
 13  2  2  0  0  0  0
 16 14  2  0  0  0  0
 16 15  1  0  0  0  0
 17 18  1  0  0  0  0
 17 11  1  0  0  0  0
 19 18  1  0  0  0  0
 19 21  1  0  0  0  0
 20 21  1  0  0  0  0
 20 22  2  0  0  0  0
 21 26  1  0  0  0  0
 23 24  1  0  0  0  0
 24 25  2  0  0  0  0
 26 24  1  0  0  0  0
M  END
>  <MODEL>
3

>  <REMARK>
 VINA RESULT:      -6.7      1.916      2.152
  Name = 
  6 active torsions:
  status: ('A' for Active; 'I' for Inactive)
    1  A    between atoms: N_13  and  N_22
    2  A    between atoms: C_18  and  N_22
    3  A    between atoms: C_18  and  C_24
    4  A    between atoms: C_19  and  N_26
    5  A    between atoms: CA_20  and  C_21
    6  A    between atoms: C_24  and  N_26
                            x       y       z     vdW  Elec       q    Type
                         _______ _______ _______ _____ _____    ______ ____

>  <TORSDO>
F 6

$$$$
=
 OpenBabel11072408343D

 26 27  0  0  0  0  0  0  0  0999 V2000
  188.2850  175.7360  142.1130 O   0  0  0  0  0  0  0  0  0  0  0  0
  186.7330  177.8210  144.6770 C   0  0  0  0  0  0  0  0  0  0  0  0
  186.9710  177.6600  141.7740 C   0  0  0  0  0  0  0  0  0  0  0  0
  188.2230  176.1580  146.3530 C   0  0  0  0  0  3  0  0  0  0  0  0
  187.2590  176.9590  146.8600 N   0  0  0  0  0  0  0  0  0  0  0  0
  185.6260  179.9380  144.2540 N   0  0  0  0  0  2  0  0  0  0  0  0
  186.2090  178.7060  142.3610 N   0  0  0  0  0  2  0  0  0  0  0  0
  186.9960  177.5280  140.4910 N   0  0  0  0  0  2  0  0  0  0  0  0
  187.6980  176.7200  142.6360 C   0  0  0  0  0  0  0  0  0  0  0  0
  186.0920  178.8330  143.7790 C   0  0  0  0  0  0  0  0  0  0  0  0
  188.4570  176.1140  144.9840 C   0  0  0  0  0  0  0  0  0  0  0  0
  186.5020  177.7770  146.0800 C   0  0  0  0  0  0  0  0  0  0  0  0
  187.6560  176.8970  144.1160 C   0  0  0  0  0  0  0  0  0  0  0  0
  184.0860  178.1070  146.5860 O   0  0  0  0  0  0  0  0  0  0  0  0
  185.6740  179.4480  147.5380 O   0  0  0  0  0  1  0  0  0  0  0  0
  185.4070  178.5080  146.7460 C   0  0  0  0  0  0  0  0  0  0  0  0
  189.5300  175.2920  144.5210 N   0  0  0  0  0  2  0  0  0  0  0  0
  190.4280  174.6150  145.4440 C   0  0  0  0  0  2  0  0  0  0  0  0
  191.6660  174.1190  144.7080 C   0  0  0  0  0  2  0  0  0  0  0  0
  192.8400  175.3780  142.9370 C   0  0  0  0  0  3  0  0  0  0  0  0
  192.5170  175.2390  144.3160 N   0  0  0  0  0  0  0  0  0  0  0  0
  193.4590  176.3900  142.5170 O   0  0  0  0  0  0  0  0  0  0  0  0
  195.1090  175.1800  145.9660 C   0  0  0  0  0  1  0  0  0  0  0  0
  194.0640  176.2300  146.0640 C   0  0  0  0  0  0  0  0  0  0  0  0
  194.2160  177.1470  146.9070 O   0  0  0  0  0  0  0  0  0  0  0  0
  192.9030  176.2490  145.2200 N   0  0  0  0  0  2  0  0  0  0  0  0
  1  9  2  0  0  0  0
  2 12  1  0  0  0  0
  3  7  1  0  0  0  0
  3  9  1  0  0  0  0
  4  5  1  0  0  0  0
  7 10  1  0  0  0  0
  8  3  2  0  0  0  0
  9 13  1  0  0  0  0
 10  6  2  0  0  0  0
 10  2  1  0  0  0  0
 11  4  2  0  0  0  0
 12 16  1  0  0  0  0
 12  5  2  0  0  0  0
 13  2  2  0  0  0  0
 13 11  1  0  0  0  0
 14 16  2  0  0  0  0
 16 15  1  0  0  0  0
 17 11  1  0  0  0  0
 17 18  1  0  0  0  0
 19 18  1  0  0  0  0
 20 21  1  0  0  0  0
 21 19  1  0  0  0  0
 21 26  1  0  0  0  0
 22 20  2  0  0  0  0
 23 24  1  0  0  0  0
 24 25  2  0  0  0  0
 26 24  1  0  0  0  0
M  END
>  <MODEL>
4

>  <REMARK>
 VINA RESULT:      -6.7      1.091      1.661
  Name = 
  6 active torsions:
  status: ('A' for Active; 'I' for Inactive)
    1  A    between atoms: N_13  and  N_22
    2  A    between atoms: C_18  and  N_22
    3  A    between atoms: C_18  and  C_24
    4  A    between atoms: C_19  and  N_26
    5  A    between atoms: CA_20  and  C_21
    6  A    between atoms: C_24  and  N_26
                            x       y       z     vdW  Elec       q    Type
                         _______ _______ _______ _____ _____    ______ ____

>  <TORSDO>
F 6

$$$$
=
 OpenBabel11072408343D

 26 27  0  0  0  0  0  0  0  0999 V2000
  187.9970  177.4060  141.2600 O   0  0  0  0  0  0  0  0  0  0  0  0
  186.2800  178.0900  144.4080 C   0  0  0  0  0  0  0  0  0  0  0  0
  185.8030  178.2160  141.5330 C   0  0  0  0  0  0  0  0  0  0  0  0
  188.8160  177.5390  145.4390 C   0  0  0  0  0  3  0  0  0  0  0  0
  187.7410  177.6070  146.2570 N   0  0  0  0  0  0  0  0  0  0  0  0
  184.1210  179.1810  144.5970 N   0  0  0  0  0  2  0  0  0  0  0  0
  184.7740  178.5970  142.4350 N   0  0  0  0  0  2  0  0  0  0  0  0
  185.5640  178.1750  140.2670 N   0  0  0  0  0  2  0  0  0  0  0  0
  187.1240  177.8410  142.0550 C   0  0  0  0  0  0  0  0  0  0  0  0
  184.9790  178.5750  143.8480 C   0  0  0  0  0  0  0  0  0  0  0  0
  188.6700  177.6960  144.0660 C   0  0  0  0  0  0  0  0  0  0  0  0
  186.4870  177.8620  145.7970 C   0  0  0  0  0  0  0  0  0  0  0  0
  187.3770  177.9000  143.5240 C   0  0  0  0  0  0  0  0  0  0  0  0
  184.5560  176.6790  146.8340 O   0  0  0  0  0  0  0  0  0  0  0  0
  185.2580  178.7010  147.6390 O   0  0  0  0  0  1  0  0  0  0  0  0
  185.3890  177.7900  146.7800 C   0  0  0  0  0  0  0  0  0  0  0  0
  189.8530  177.6730  143.2660 N   0  0  0  0  0  2  0  0  0  0  0  0
  191.1710  177.8870  143.8450 C   0  0  0  0  0  2  0  0  0  0  0  0
  192.0990  176.7340  143.4850 C   0  0  0  0  0  2  0  0  0  0  0  0
  192.3170  176.4160  145.9250 C   0  0  0  0  0  3  0  0  0  0  0  0
  192.2770  175.8380  144.6250 N   0  0  0  0  0  0  0  0  0  0  0  0
  192.3370  175.6900  146.9540 O   0  0  0  0  0  0  0  0  0  0  0  0
  189.7170  174.1400  144.5230 C   0  0  0  0  0  1  0  0  0  0  0  0
  191.0980  173.5950  144.5160 C   0  0  0  0  0  0  0  0  0  0  0  0
  191.2490  172.3500  144.5080 O   0  0  0  0  0  0  0  0  0  0  0  0
  192.2630  174.4350  144.4940 N   0  0  0  0  0  2  0  0  0  0  0  0
  1  9  2  0  0  0  0
  2 12  1  0  0  0  0
  3  9  1  0  0  0  0
  3  7  1  0  0  0  0
  4  5  1  0  0  0  0
  7 10  1  0  0  0  0
  8  3  2  0  0  0  0
  9 13  1  0  0  0  0
 10  2  1  0  0  0  0
 10  6  2  0  0  0  0
 11  4  2  0  0  0  0
 12  5  2  0  0  0  0
 12 16  1  0  0  0  0
 13 11  1  0  0  0  0
 13  2  2  0  0  0  0
 16 14  2  0  0  0  0
 16 15  1  0  0  0  0
 17 18  1  0  0  0  0
 17 11  1  0  0  0  0
 19 18  1  0  0  0  0
 19 21  1  0  0  0  0
 20 22  2  0  0  0  0
 21 20  1  0  0  0  0
 24 23  1  0  0  0  0
 25 24  2  0  0  0  0
 26 24  1  0  0  0  0
 26 21  1  0  0  0  0
M  END
>  <MODEL>
5

>  <REMARK>
 VINA RESULT:      -6.6      1.955      2.596
  Name = 
  6 active torsions:
  status: ('A' for Active; 'I' for Inactive)
    1  A    between atoms: N_13  and  N_22
    2  A    between atoms: C_18  and  N_22
    3  A    between atoms: C_18  and  C_24
    4  A    between atoms: C_19  and  N_26
    5  A    between atoms: CA_20  and  C_21
    6  A    between atoms: C_24  and  N_26
                            x       y       z     vdW  Elec       q    Type
                         _______ _______ _______ _____ _____    ______ ____

>  <TORSDO>
F 6

$$$$
=
 OpenBabel11072408343D

 26 27  0  0  0  0  0  0  0  0999 V2000
  188.9530  176.1810  142.0610 O   0  0  0  0  0  0  0  0  0  0  0  0
  187.0710  177.8740  144.6910 C   0  0  0  0  0  0  0  0  0  0  0  0
  187.2560  177.7880  141.7820 C   0  0  0  0  0  0  0  0  0  0  0  0
  188.9250  176.5490  146.3060 C   0  0  0  0  0  3  0  0  0  0  0  0
  187.8280  177.1260  146.8480 N   0  0  0  0  0  0  0  0  0  0  0  0
  185.5330  179.7150  144.3250 N   0  0  0  0  0  2  0  0  0  0  0  0
  186.3090  178.6470  142.4020 N   0  0  0  0  0  2  0  0  0  0  0  0
  187.2720  177.6740  140.4970 N   0  0  0  0  0  2  0  0  0  0  0  0
  188.1890  177.0160  142.6120 C   0  0  0  0  0  0  0  0  0  0  0  0
  186.2080  178.7360  143.8240 C   0  0  0  0  0  0  0  0  0  0  0  0
  189.1240  176.5650  144.9310 C   0  0  0  0  0  0  0  0  0  0  0  0
  186.8950  177.7720  146.0990 C   0  0  0  0  0  0  0  0  0  0  0  0
  188.1520  177.1690  144.0950 C   0  0  0  0  0  0  0  0  0  0  0  0
  185.7260  179.4170  147.5600 O   0  0  0  0  0  1  0  0  0  0  0  0
  184.5950  177.6520  146.6450 O   0  0  0  0  0  0  0  0  0  0  0  0
  185.6900  178.2510  146.8030 C   0  0  0  0  0  0  0  0  0  0  0  0
  190.3320  175.9910  144.4290 N   0  0  0  0  0  2  0  0  0  0  0  0
  191.0780  174.9980  145.1860 C   0  0  0  0  0  2  0  0  0  0  0  0
  192.4800  174.8410  144.6130 C   0  0  0  0  0  2  0  0  0  0  0  0
  193.2900  176.3190  146.4180 C   0  0  0  0  0  3  0  0  0  0  0  0
  193.3430  175.9360  145.0490 N   0  0  0  0  0  0  0  0  0  0  0  0
  194.0980  177.1640  146.8840 O   0  0  0  0  0  0  0  0  0  0  0  0
  196.2120  174.8780  144.7390 C   0  0  0  0  0  1  0  0  0  0  0  0
  195.6830  176.1030  144.0860 C   0  0  0  0  0  0  0  0  0  0  0  0
  196.4640  176.7900  143.3850 O   0  0  0  0  0  0  0  0  0  0  0  0
  194.3130  176.5160  144.2080 N   0  0  0  0  0  2  0  0  0  0  0  0
  1  9  2  0  0  0  0
  2 12  1  0  0  0  0
  3  7  1  0  0  0  0
  3  9  1  0  0  0  0
  4  5  1  0  0  0  0
  7 10  1  0  0  0  0
  8  3  2  0  0  0  0
  9 13  1  0  0  0  0
 10  6  2  0  0  0  0
 10  2  1  0  0  0  0
 11  4  2  0  0  0  0
 12 16  1  0  0  0  0
 12  5  2  0  0  0  0
 13  2  2  0  0  0  0
 13 11  1  0  0  0  0
 15 16  2  0  0  0  0
 16 14  1  0  0  0  0
 17 11  1  0  0  0  0
 17 18  1  0  0  0  0
 19 21  1  0  0  0  0
 19 18  1  0  0  0  0
 20 22  2  0  0  0  0
 21 20  1  0  0  0  0
 24 26  1  0  0  0  0
 24 23  1  0  0  0  0
 25 24  2  0  0  0  0
 26 21  1  0  0  0  0
M  END
>  <MODEL>
6

>  <REMARK>
 VINA RESULT:      -6.5      1.236      1.582
  Name = 
  6 active torsions:
  status: ('A' for Active; 'I' for Inactive)
    1  A    between atoms: N_13  and  N_22
    2  A    between atoms: C_18  and  N_22
    3  A    between atoms: C_18  and  C_24
    4  A    between atoms: C_19  and  N_26
    5  A    between atoms: CA_20  and  C_21
    6  A    between atoms: C_24  and  N_26
                            x       y       z     vdW  Elec       q    Type
                         _______ _______ _______ _____ _____    ______ ____

>  <TORSDO>
F 6

$$$$
=
 OpenBabel11072408343D

 26 27  0  0  0  0  0  0  0  0999 V2000
  188.8070  176.6030  141.8080 O   0  0  0  0  0  0  0  0  0  0  0  0
  186.8780  178.0850  144.5310 C   0  0  0  0  0  0  0  0  0  0  0  0
  186.8690  177.9270  141.6180 C   0  0  0  0  0  0  0  0  0  0  0  0
  189.0200  177.1090  146.0330 C   0  0  0  0  0  3  0  0  0  0  0  0
  187.8890  177.5330  146.6420 N   0  0  0  0  0  0  0  0  0  0  0  0
  185.0560  179.6590  144.2370 N   0  0  0  0  0  2  0  0  0  0  0  0
  185.8480  178.6540  142.2870 N   0  0  0  0  0  2  0  0  0  0  0  0
  186.8130  177.7720  140.3390 N   0  0  0  0  0  2  0  0  0  0  0  0
  187.9650  177.3320  142.3940 C   0  0  0  0  0  0  0  0  0  0  0  0
  185.8350  178.7760  143.7100 C   0  0  0  0  0  0  0  0  0  0  0  0
  189.1180  177.1070  144.6470 C   0  0  0  0  0  0  0  0  0  0  0  0
  186.8190  178.0060  145.9500 C   0  0  0  0  0  0  0  0  0  0  0  0
  188.0090  177.5290  143.8720 C   0  0  0  0  0  0  0  0  0  0  0  0
  184.4930  177.4930  146.6800 O   0  0  0  0  0  0  0  0  0  0  0  0
  185.6110  179.3030  147.5190 O   0  0  0  0  0  1  0  0  0  0  0  0
  185.6070  178.3230  146.7300 C   0  0  0  0  0  0  0  0  0  0  0  0
  190.3610  176.7040  144.0700 N   0  0  0  0  0  2  0  0  0  0  0  0
  191.2100  175.7060  144.7040 C   0  0  0  0  0  2  0  0  0  0  0  0
  192.5720  175.6640  144.0240 C   0  0  0  0  0  2  0  0  0  0  0  0
  193.4240  176.9240  145.9690 C   0  0  0  0  0  3  0  0  0  0  0  0
  193.6390  175.9170  144.9880 N   0  0  0  0  0  0  0  0  0  0  0  0
  194.2470  177.1010  146.9050 O   0  0  0  0  0  0  0  0  0  0  0  0
  196.2770  176.5360  143.5370 C   0  0  0  0  0  1  0  0  0  0  0  0
  196.0200  175.3210  144.3510 C   0  0  0  0  0  0  0  0  0  0  0  0
  196.9230  174.4540  144.4300 O   0  0  0  0  0  0  0  0  0  0  0  0
  194.7930  175.1120  145.0670 N   0  0  0  0  0  2  0  0  0  0  0  0
  1  9  2  0  0  0  0
  2 12  1  0  0  0  0
  3  7  1  0  0  0  0
  3  9  1  0  0  0  0
  4  5  1  0  0  0  0
  7 10  1  0  0  0  0
  8  3  2  0  0  0  0
  9 13  1  0  0  0  0
 10  6  2  0  0  0  0
 10  2  1  0  0  0  0
 11  4  2  0  0  0  0
 12  5  2  0  0  0  0
 12 16  1  0  0  0  0
 13  2  2  0  0  0  0
 13 11  1  0  0  0  0
 14 16  2  0  0  0  0
 16 15  1  0  0  0  0
 17 11  1  0  0  0  0
 17 18  1  0  0  0  0
 19 18  1  0  0  0  0
 19 21  1  0  0  0  0
 20 22  2  0  0  0  0
 21 26  1  0  0  0  0
 21 20  1  0  0  0  0
 23 24  1  0  0  0  0
 24 25  2  0  0  0  0
 24 26  1  0  0  0  0
M  END
>  <MODEL>
7

>  <REMARK>
 VINA RESULT:      -6.4      1.578      1.845
  Name = 
  6 active torsions:
  status: ('A' for Active; 'I' for Inactive)
    1  A    between atoms: N_13  and  N_22
    2  A    between atoms: C_18  and  N_22
    3  A    between atoms: C_18  and  C_24
    4  A    between atoms: C_19  and  N_26
    5  A    between atoms: CA_20  and  C_21
    6  A    between atoms: C_24  and  N_26
                            x       y       z     vdW  Elec       q    Type
                         _______ _______ _______ _____ _____    ______ ____

>  <TORSDO>
F 6

$$$$
=
 OpenBabel11072408343D

 26 27  0  0  0  0  0  0  0  0999 V2000
  191.0570  176.8700  144.8870 O   0  0  0  0  0  0  0  0  0  0  0  0
  187.5350  177.7550  144.5130 C   0  0  0  0  0  0  0  0  0  0  0  0
  189.4860  177.2020  146.6090 C   0  0  0  0  0  0  0  0  0  0  0  0
  188.1390  177.3440  141.8180 C   0  0  0  0  0  3  0  0  0  0  0  0
  186.9850  177.9480  142.1800 N   0  0  0  0  0  0  0  0  0  0  0  0
  185.9230  177.8100  146.3260 N   0  0  0  0  0  2  0  0  0  0  0  0
  188.1500  177.5330  146.9610 N   0  0  0  0  0  2  0  0  0  0  0  0
  190.3750  177.0540  147.5330 N   0  0  0  0  0  2  0  0  0  0  0  0
  189.8510  177.0600  145.1940 C   0  0  0  0  0  0  0  0  0  0  0  0
  187.1610  177.7840  145.9620 C   0  0  0  0  0  0  0  0  0  0  0  0
  189.0660  176.9600  142.7800 C   0  0  0  0  0  0  0  0  0  0  0  0
  186.6550  178.1780  143.4790 C   0  0  0  0  0  0  0  0  0  0  0  0
  188.8040  177.2320  144.1450 C   0  0  0  0  0  0  0  0  0  0  0  0
  185.4870  180.2840  144.1150 O   0  0  0  0  0  1  0  0  0  0  0  0
  184.3010  178.4280  143.5000 O   0  0  0  0  0  0  0  0  0  0  0  0
  185.4230  178.9510  143.7280 C   0  0  0  0  0  0  0  0  0  0  0  0
  190.2370  176.2730  142.3340 N   0  0  0  0  0  2  0  0  0  0  0  0
  190.2400  174.8360  142.1060 C   0  0  0  0  0  2  0  0  0  0  0  0
  191.5470  174.2260  142.5940 C   0  0  0  0  0  2  0  0  0  0  0  0
  189.9740  173.1900  144.1920 C   0  0  0  0  0  3  0  0  0  0  0  0
  191.3140  173.3580  143.7450 N   0  0  0  0  0  0  0  0  0  0  0  0
  189.6930  172.3560  145.0920 O   0  0  0  0  0  0  0  0  0  0  0  0
  193.1590  174.3370  145.9990 C   0  0  0  0  0  1  0  0  0  0  0  0
  193.2680  173.0190  145.3250 C   0  0  0  0  0  0  0  0  0  0  0  0
  194.2030  172.2520  145.6610 O   0  0  0  0  0  0  0  0  0  0  0  0
  192.3370  172.5800  144.3240 N   0  0  0  0  0  2  0  0  0  0  0  0
  1  9  2  0  0  0  0
  2 10  1  0  0  0  0
  3  7  1  0  0  0  0
  3  8  2  0  0  0  0
  4  5  2  0  0  0  0
  4 11  1  0  0  0  0
  5 12  1  0  0  0  0
  9  3  1  0  0  0  0
 10  6  2  0  0  0  0
 10  7  1  0  0  0  0
 11 13  2  0  0  0  0
 12 16  1  0  0  0  0
 12  2  2  0  0  0  0
 13  2  1  0  0  0  0
 13  9  1  0  0  0  0
 15 16  2  0  0  0  0
 16 14  1  0  0  0  0
 17 11  1  0  0  0  0
 18 17  1  0  0  0  0
 18 19  1  0  0  0  0
 19 21  1  0  0  0  0
 20 22  2  0  0  0  0
 21 20  1  0  0  0  0
 21 26  1  0  0  0  0
 24 25  2  0  0  0  0
 24 23  1  0  0  0  0
 26 24  1  0  0  0  0
M  END
>  <MODEL>
8

>  <REMARK>
 VINA RESULT:      -6.2      2.560      4.040
  Name = 
  6 active torsions:
  status: ('A' for Active; 'I' for Inactive)
    1  A    between atoms: N_13  and  N_22
    2  A    between atoms: C_18  and  N_22
    3  A    between atoms: C_18  and  C_24
    4  A    between atoms: C_19  and  N_26
    5  A    between atoms: CA_20  and  C_21
    6  A    between atoms: C_24  and  N_26
                            x       y       z     vdW  Elec       q    Type
                         _______ _______ _______ _____ _____    ______ ____

>  <TORSDO>
F 6

$$$$
=
 OpenBabel11072408343D

 26 27  0  0  0  0  0  0  0  0999 V2000
  188.5040  176.5350  141.8000 O   0  0  0  0  0  0  0  0  0  0  0  0
  186.7160  178.1460  144.5450 C   0  0  0  0  0  0  0  0  0  0  0  0
  186.6370  177.9590  141.6360 C   0  0  0  0  0  0  0  0  0  0  0  0
  188.8340  177.0710  146.0140 C   0  0  0  0  0  3  0  0  0  0  0  0
  187.7410  177.5610  146.6410 N   0  0  0  0  0  0  0  0  0  0  0  0
  184.9760  179.8130  144.2720 N   0  0  0  0  0  2  0  0  0  0  0  0
  185.6710  178.7470  142.3170 N   0  0  0  0  0  2  0  0  0  0  0  0
  186.5450  177.7940  140.3590 N   0  0  0  0  0  2  0  0  0  0  0  0
  187.7150  177.3140  142.3960 C   0  0  0  0  0  0  0  0  0  0  0  0
  185.6940  178.8840  143.7380 C   0  0  0  0  0  0  0  0  0  0  0  0
  188.9020  177.0500  144.6260 C   0  0  0  0  0  0  0  0  0  0  0  0
  186.6830  178.0840  145.9660 C   0  0  0  0  0  0  0  0  0  0  0  0
  187.8010  177.5230  143.8700 C   0  0  0  0  0  0  0  0  0  0  0  0
  184.3340  177.7290  146.7170 O   0  0  0  0  0  0  0  0  0  0  0  0
  185.5910  179.4360  147.5740 O   0  0  0  0  0  1  0  0  0  0  0  0
  185.5060  178.4740  146.7670 C   0  0  0  0  0  0  0  0  0  0  0  0
  190.1090  176.5740  144.0290 N   0  0  0  0  0  2  0  0  0  0  0  0
  190.7870  175.3840  144.5180 C   0  0  0  0  0  2  0  0  0  0  0  0
  189.8760  174.1700  144.3960 C   0  0  0  0  0  2  0  0  0  0  0  0
  190.8780  171.9650  143.9110 C   0  0  0  0  0  3  0  0  0  0  0  0
  190.4100  173.2180  143.4260 N   0  0  0  0  0  0  0  0  0  0  0  0
  191.2280  171.0540  143.1160 O   0  0  0  0  0  0  0  0  0  0  0  0
  187.8690  172.8380  141.7390 C   0  0  0  0  0  1  0  0  0  0  0  0
  189.2020  173.2030  141.1960 C   0  0  0  0  0  0  0  0  0  0  0  0
  189.3270  173.3300  139.9540 O   0  0  0  0  0  0  0  0  0  0  0  0
  190.3430  173.4370  142.0350 N   0  0  0  0  0  2  0  0  0  0  0  0
  1  9  2  0  0  0  0
  2 12  1  0  0  0  0
  3  7  1  0  0  0  0
  3  9  1  0  0  0  0
  4  5  1  0  0  0  0
  7 10  1  0  0  0  0
  8  3  2  0  0  0  0
  9 13  1  0  0  0  0
 10  6  2  0  0  0  0
 10  2  1  0  0  0  0
 11  4  2  0  0  0  0
 12  5  2  0  0  0  0
 12 16  1  0  0  0  0
 13  2  2  0  0  0  0
 13 11  1  0  0  0  0
 14 16  2  0  0  0  0
 16 15  1  0  0  0  0
 17 18  1  0  0  0  0
 17 11  1  0  0  0  0
 19 18  1  0  0  0  0
 21 20  1  0  0  0  0
 21 19  1  0  0  0  0
 22 20  2  0  0  0  0
 24 23  1  0  0  0  0
 24 26  1  0  0  0  0
 25 24  2  0  0  0  0
 26 21  1  0  0  0  0
M  END
>  <MODEL>
9

>  <REMARK>
 VINA RESULT:      -6.2      2.600      3.742
  Name = 
  6 active torsions:
  status: ('A' for Active; 'I' for Inactive)
    1  A    between atoms: N_13  and  N_22
    2  A    between atoms: C_18  and  N_22
    3  A    between atoms: C_18  and  C_24
    4  A    between atoms: C_19  and  N_26
    5  A    between atoms: CA_20  and  C_21
    6  A    between atoms: C_24  and  N_26
                            x       y       z     vdW  Elec       q    Type
                         _______ _______ _______ _____ _____    ______ ____

>  <TORSDO>
F 6

$$$$
