=
 OpenBabel11062422543D

 29 33  0  0  1  0  0  0  0  0999 V2000
  188.2950  173.7670  142.0100 C   0  0  0  0  0  2  0  0  0  0  0  0
  191.0290  174.4930  141.6400 C   0  0  2  0  0  3  0  0  0  0  0  0
  188.9250  174.6190  143.1080 C   0  0  1  0  0  3  0  0  0  0  0  0
  190.4590  174.4680  143.0750 C   0  0  2  0  0  3  0  0  0  0  0  0
  188.9290  174.0640  140.7270 N   0  0  0  0  0  2  0  0  0  0  0  0
  190.2530  173.5920  140.7880 N   0  0  0  0  0  2  0  0  0  0  0  0
  192.4740  174.0300  141.6310 C   0  0  0  0  0  1  0  0  0  0  0  0
  192.0170  174.5240  144.9210 O   0  0  0  0  0  0  0  0  0  0  0  0
  191.4860  177.5720  143.0920 C   0  0  0  0  0  2  0  0  0  0  0  0
  191.1820  175.3370  144.1280 C   0  0  1  0  0  3  0  0  0  0  0  0
  193.3440  176.3990  144.1580 C   0  0  1  0  0  3  0  0  0  0  0  0
  192.0050  176.4450  143.5770 C   0  0  0  0  0  0  0  0  0  0  0  0
  193.2790  175.1580  145.0290 C   0  0  1  0  0  3  0  0  0  0  0  0
  194.2910  176.2150  143.1500 O   0  0  0  0  0  1  0  0  0  0  0  0
  194.0710  176.7970  146.5970 O   0  0  0  0  0  1  0  0  0  0  0  0
  193.5840  175.4930  146.4830 C   0  0  0  0  0  2  0  0  0  0  0  0
  188.4560  176.0610  142.9600 C   0  0  0  0  0  2  0  0  0  0  0  0
  187.1200  178.4360  142.7820 O   0  0  0  0  0  0  0  0  0  0  0  0
  187.8590  177.5040  146.4150 C   0  0  0  0  0  2  0  0  0  0  0  0
  185.7680  178.5750  142.3810 C   0  0  0  0  0  2  0  0  0  0  0  0
  187.0200  177.8660  144.0600 C   0  0  1  0  0  0  0  0  0  0  0  0
  185.3300  177.1860  145.7800 C   0  0  0  0  0  2  0  0  0  0  0  0
  188.2370  177.5760  144.9120 C   0  0  2  0  0  3  0  0  0  0  0  0
  183.6880  178.9800  143.6630 C   0  0  0  0  0  2  0  0  0  0  0  0
  185.7510  178.2480  144.7700 C   0  0  2  0  0  3  0  0  0  0  0  0
  187.5700  176.4360  144.1380 C   0  0  2  0  0  3  0  0  0  0  0  0
  186.4800  176.8730  146.7630 C   0  0  2  0  0  3  0  0  0  0  0  0
  186.0930  177.2560  148.1080 N   0  0  0  0  0  1  0  0  0  0  0  0
  184.8940  178.4220  143.5930 C   0  0  0  0  0  0  0  0  0  0  0  0
  1  3  1  0  0  0  0
  2  7  1  1  0  0  0
  2  4  1  0  0  0  0
  3 17  1  6  0  0  0
  4  3  1  0  0  0  0
  4 10  1  1  0  0  0
  5  6  1  0  0  0  0
  5  1  1  0  0  0  0
  6  2  1  0  0  0  0
  8 13  1  0  0  0  0
  9 12  2  0  0  0  0
 10 12  1  6  0  0  0
 10  8  1  0  0  0  0
 11 14  1  6  0  0  0
 11 13  1  0  0  0  0
 12 11  1  0  0  0  0
 13 16  1  1  0  0  0
 16 15  1  0  0  0  0
 19 27  1  0  0  0  0
 20 18  1  0  0  0  0
 20 29  1  0  0  0  0
 21 18  1  6  0  0  0
 21 26  1  0  0  0  0
 21 25  1  0  0  0  0
 21 23  1  0  0  0  0
 22 27  1  0  0  0  0
 23 19  1  1  0  0  0
 25 22  1  1  0  0  0
 26 17  1  6  0  0  0
 26 23  1  0  0  0  0
 27 28  1  1  0  0  0
 29 24  2  0  0  0  0
 29 25  1  0  0  0  0
M  END
>  <MODEL>
1

>  <REMARK>
 VINA RESULT:      -7.5      0.000      0.000
  Name = 
  4 active torsions:
  status: ('A' for Active; 'I' for Inactive)
    1  A    between atoms: C_11  and  C_17
    2  A    between atoms: C_13  and  C_29
    3  A    between atoms: C_15  and  C_29
    4  A    between atoms: C_20  and  C_25
                            x       y       z     vdW  Elec       q    Type
                         _______ _______ _______ _____ _____    ______ ____

>  <TORSDO>
F 4

$$$$
=
 OpenBabel11062422543D

 29 33  0  0  1  0  0  0  0  0999 V2000
  187.6160  174.5170  142.0100 C   0  0  0  0  0  2  0  0  0  0  0  0
  190.4330  174.2390  141.6580 C   0  0  2  0  0  3  0  0  0  0  0  0
  188.4900  174.8930  143.2040 C   0  0  1  0  0  3  0  0  0  0  0  0
  189.8610  174.1970  143.0910 C   0  0  2  0  0  3  0  0  0  0  0  0
  188.3450  174.7610  140.7670 N   0  0  0  0  0  2  0  0  0  0  0  0
  189.4010  173.8320  140.7040 N   0  0  0  0  0  2  0  0  0  0  0  0
  191.6060  173.2850  141.5230 C   0  0  0  0  0  1  0  0  0  0  0  0
  191.6420  175.6440  143.8490 O   0  0  0  0  0  0  0  0  0  0  0  0
  189.6380  174.0130  146.3480 C   0  0  0  0  0  2  0  0  0  0  0  0
  190.8280  174.5610  144.2390 C   0  0  1  0  0  3  0  0  0  0  0  0
  190.7100  176.1820  146.0170 C   0  0  1  0  0  3  0  0  0  0  0  0
  190.1760  174.9140  145.5270 C   0  0  0  0  0  0  0  0  0  0  0  0
  191.6610  176.5860  144.9060 C   0  0  1  0  0  3  0  0  0  0  0  0
  189.6810  177.1200  146.1170 O   0  0  0  0  0  1  0  0  0  0  0  0
  193.1720  176.3090  146.7550 O   0  0  0  0  0  1  0  0  0  0  0  0
  193.0790  176.7620  145.4360 C   0  0  0  0  0  2  0  0  0  0  0  0
  188.5880  176.4110  143.3000 C   0  0  0  0  0  2  0  0  0  0  0  0
  187.5540  178.1900  141.5060 O   0  0  0  0  0  0  0  0  0  0  0  0
  186.2940  178.8700  145.0510 C   0  0  0  0  0  2  0  0  0  0  0  0
  186.6070  177.8690  140.5020 C   0  0  0  0  0  2  0  0  0  0  0  0
  186.8010  178.1320  142.6880 C   0  0  1  0  0  0  0  0  0  0  0  0
  184.4600  177.7890  143.5110 C   0  0  0  0  0  2  0  0  0  0  0  0
  187.3970  178.4560  144.0410 C   0  0  2  0  0  3  0  0  0  0  0  0
  184.1660  178.2540  140.3340 C   0  0  0  0  0  2  0  0  0  0  0  0
  185.3510  178.4620  142.4720 C   0  0  2  0  0  3  0  0  0  0  0  0
  187.2210  176.9940  143.6270 C   0  0  2  0  0  3  0  0  0  0  0  0
  184.9300  178.1280  144.9430 C   0  0  2  0  0  3  0  0  0  0  0  0
  183.9050  178.8900  145.6290 N   0  0  0  0  0  1  0  0  0  0  0  0
  185.2300  177.9900  141.0890 C   0  0  0  0  0  0  0  0  0  0  0  0
  1  3  1  0  0  0  0
  2  7  1  1  0  0  0
  2  4  1  0  0  0  0
  3 17  1  6  0  0  0
  4  3  1  0  0  0  0
  4 10  1  1  0  0  0
  5  1  1  0  0  0  0
  6  5  1  0  0  0  0
  6  2  1  0  0  0  0
  8 13  1  0  0  0  0
 10  8  1  6  0  0  0
 10 12  1  0  0  0  0
 11 14  1  6  0  0  0
 12 11  1  0  0  0  0
 12  9  2  0  0  0  0
 13 16  1  1  0  0  0
 13 11  1  0  0  0  0
 16 15  1  0  0  0  0
 20 29  1  0  0  0  0
 20 18  1  0  0  0  0
 21 18  1  6  0  0  0
 21 26  1  0  0  0  0
 21 23  1  0  0  0  0
 22 27  1  0  0  0  0
 23 19  1  1  0  0  0
 24 29  2  0  0  0  0
 25 21  1  0  0  0  0
 25 22  1  1  0  0  0
 26 17  1  6  0  0  0
 26 23  1  0  0  0  0
 27 19  1  0  0  0  0
 27 28  1  6  0  0  0
 29 25  1  0  0  0  0
M  END
>  <MODEL>
2

>  <REMARK>
 VINA RESULT:      -7.3      1.634      2.375
  Name = 
  4 active torsions:
  status: ('A' for Active; 'I' for Inactive)
    1  A    between atoms: C_11  and  C_17
    2  A    between atoms: C_13  and  C_29
    3  A    between atoms: C_15  and  C_29
    4  A    between atoms: C_20  and  C_25
                            x       y       z     vdW  Elec       q    Type
                         _______ _______ _______ _____ _____    ______ ____

>  <TORSDO>
F 4

$$$$
=
 OpenBabel11062422543D

 29 33  0  0  1  0  0  0  0  0999 V2000
  191.3080  178.2050  143.6100 C   0  0  0  0  0  2  0  0  0  0  0  0
  192.0370  175.4480  143.5300 C   0  0  2  0  0  3  0  0  0  0  0  0
  190.2010  177.2210  143.2420 C   0  0  1  0  0  3  0  0  0  0  0  0
  190.8170  175.9130  142.7050 C   0  0  2  0  0  3  0  0  0  0  0  0
  192.2750  177.5550  144.4930 N   0  0  0  0  0  2  0  0  0  0  0  0
  192.9470  176.5740  143.7400 N   0  0  0  0  0  2  0  0  0  0  0  0
  192.7940  174.3570  142.7940 C   0  0  0  0  0  1  0  0  0  0  0  0
  189.8520  174.5210  140.9820 O   0  0  0  0  0  0  0  0  0  0  0  0
  189.4670  173.4610  144.3950 C   0  0  0  0  0  2  0  0  0  0  0  0
  189.7640  174.8410  142.3530 C   0  0  1  0  0  3  0  0  0  0  0  0
  189.8660  172.4380  142.2140 C   0  0  1  0  0  3  0  0  0  0  0  0
  189.8620  173.5770  143.1280 C   0  0  0  0  0  0  0  0  0  0  0  0
  189.8340  173.1110  140.8550 C   0  0  1  0  0  3  0  0  0  0  0  0
  191.0570  171.7230  142.3550 O   0  0  0  0  0  1  0  0  0  0  0  0
  189.0150  171.9470  138.9190 O   0  0  0  0  0  1  0  0  0  0  0  0
  188.6200  172.6650  140.0510 C   0  0  0  0  0  2  0  0  0  0  0  0
  189.2920  177.0100  144.4470 C   0  0  0  0  0  2  0  0  0  0  0  0
  187.3190  176.3240  146.2060 O   0  0  0  0  0  0  0  0  0  0  0  0
  185.9580  176.7600  142.6600 C   0  0  0  0  0  2  0  0  0  0  0  0
  186.8190  177.1660  147.2310 C   0  0  0  0  0  2  0  0  0  0  0  0
  186.8080  176.9030  145.0350 C   0  0  1  0  0  0  0  0  0  0  0  0
  185.2990  178.7440  144.2520 C   0  0  0  0  0  2  0  0  0  0  0  0
  187.0470  176.3030  143.6660 C   0  0  2  0  0  3  0  0  0  0  0  0
  184.7430  178.5030  147.4190 C   0  0  0  0  0  2  0  0  0  0  0  0
  185.5050  177.6190  145.2600 C   0  0  2  0  0  3  0  0  0  0  0  0
  187.8880  177.4970  144.1230 C   0  0  2  0  0  3  0  0  0  0  0  0
  185.4370  178.2190  142.8060 C   0  0  2  0  0  3  0  0  0  0  0  0
  184.1700  178.3560  142.1120 N   0  0  0  0  0  1  0  0  0  0  0  0
  185.7180  178.0110  146.6580 C   0  0  0  0  0  0  0  0  0  0  0  0
  1  5  1  0  0  0  0
  2  7  1  6  0  0  0
  2  6  1  0  0  0  0
  3  1  1  0  0  0  0
  3 17  1  1  0  0  0
  4 10  1  1  0  0  0
  4  3  1  0  0  0  0
  4  2  1  0  0  0  0
  6  5  1  0  0  0  0
 10  8  1  6  0  0  0
 10 12  1  0  0  0  0
 11 14  1  6  0  0  0
 11 12  1  0  0  0  0
 12  9  2  0  0  0  0
 13 16  1  1  0  0  0
 13  8  1  0  0  0  0
 13 11  1  0  0  0  0
 15 16  1  0  0  0  0
 18 20  1  0  0  0  0
 19 27  1  0  0  0  0
 21 25  1  0  0  0  0
 21 18  1  1  0  0  0
 23 19  1  6  0  0  0
 23 26  1  0  0  0  0
 23 21  1  0  0  0  0
 25 22  1  6  0  0  0
 25 29  1  0  0  0  0
 26 17  1  1  0  0  0
 26 21  1  0  0  0  0
 27 28  1  1  0  0  0
 27 22  1  0  0  0  0
 29 20  1  0  0  0  0
 29 24  2  0  0  0  0
M  END
>  <MODEL>
3

>  <REMARK>
 VINA RESULT:      -7.2      2.909      4.603
  Name = 
  4 active torsions:
  status: ('A' for Active; 'I' for Inactive)
    1  A    between atoms: C_11  and  C_17
    2  A    between atoms: C_13  and  C_29
    3  A    between atoms: C_15  and  C_29
    4  A    between atoms: C_20  and  C_25
                            x       y       z     vdW  Elec       q    Type
                         _______ _______ _______ _____ _____    ______ ____

>  <TORSDO>
F 4

$$$$
=
 OpenBabel11062422543D

 29 33  0  0  1  0  0  0  0  0999 V2000
  189.2320  173.9970  142.8710 C   0  0  0  0  0  2  0  0  0  0  0  0
  191.6560  174.2530  141.3890 C   0  0  2  0  0  3  0  0  0  0  0  0
  190.4830  174.3510  143.6710 C   0  0  1  0  0  3  0  0  0  0  0  0
  191.7430  173.9210  142.8940 C   0  0  2  0  0  3  0  0  0  0  0  0
  189.3460  174.5260  141.5130 N   0  0  0  0  0  2  0  0  0  0  0  0
  190.3660  173.8080  140.8610 N   0  0  0  0  0  2  0  0  0  0  0  0
  192.7550  173.5400  140.6210 C   0  0  0  0  0  1  0  0  0  0  0  0
  193.2070  175.6890  143.6500 O   0  0  0  0  0  0  0  0  0  0  0  0
  193.4500  172.5020  145.2940 C   0  0  0  0  0  2  0  0  0  0  0  0
  193.0590  174.2870  143.6140 C   0  0  1  0  0  3  0  0  0  0  0  0
  193.5610  174.8660  145.8980 C   0  0  1  0  0  3  0  0  0  0  0  0
  193.1840  173.7740  145.0040 C   0  0  0  0  0  0  0  0  0  0  0  0
  193.5820  176.0610  144.9640 C   0  0  1  0  0  3  0  0  0  0  0  0
  192.5730  175.0450  146.8670 O   0  0  0  0  0  1  0  0  0  0  0  0
  194.9500  177.8640  145.7700 O   0  0  0  0  0  1  0  0  0  0  0  0
  194.9520  176.7280  144.9580 C   0  0  0  0  0  2  0  0  0  0  0  0
  190.4590  175.8370  144.0120 C   0  0  0  0  0  2  0  0  0  0  0  0
  189.2740  178.1130  143.0790 O   0  0  0  0  0  0  0  0  0  0  0  0
  188.2690  177.3800  146.6940 C   0  0  0  0  0  2  0  0  0  0  0  0
  188.2600  178.1500  142.0890 C   0  0  0  0  0  2  0  0  0  0  0  0
  188.6110  177.5910  144.1990 C   0  0  1  0  0  0  0  0  0  0  0  0
  186.3400  176.8770  144.9820 C   0  0  0  0  0  2  0  0  0  0  0  0
  189.3000  177.4140  145.5350 C   0  0  2  0  0  3  0  0  0  0  0  0
  185.8090  178.4740  142.2320 C   0  0  0  0  0  2  0  0  0  0  0  0
  187.1440  177.9210  144.2150 C   0  0  2  0  0  3  0  0  0  0  0  0
  189.1130  176.2030  144.6180 C   0  0  2  0  0  3  0  0  0  0  0  0
  186.9110  176.6780  146.4040 C   0  0  2  0  0  3  0  0  0  0  0  0
  185.9290  177.0910  147.3890 N   0  0  0  0  0  1  0  0  0  0  0  0
  186.9290  177.9920  142.7660 C   0  0  0  0  0  0  0  0  0  0  0  0
  1  3  1  0  0  0  0
  2  7  1  6  0  0  0
  2  4  1  0  0  0  0
  3 17  1  6  0  0  0
  4 10  1  1  0  0  0
  4  3  1  0  0  0  0
  5  1  1  0  0  0  0
  6  2  1  0  0  0  0
  6  5  1  0  0  0  0
  8 13  1  0  0  0  0
 10  8  1  1  0  0  0
 10 12  1  0  0  0  0
 11 14  1  1  0  0  0
 12  9  2  0  0  0  0
 12 11  1  0  0  0  0
 13 16  1  6  0  0  0
 13 11  1  0  0  0  0
 16 15  1  0  0  0  0
 20 29  1  0  0  0  0
 20 18  1  0  0  0  0
 21 18  1  6  0  0  0
 21 25  1  0  0  0  0
 21 26  1  0  0  0  0
 21 23  1  0  0  0  0
 22 27  1  0  0  0  0
 23 19  1  1  0  0  0
 24 29  2  0  0  0  0
 25 22  1  6  0  0  0
 26 17  1  6  0  0  0
 26 23  1  0  0  0  0
 27 19  1  0  0  0  0
 27 28  1  1  0  0  0
 29 25  1  0  0  0  0
M  END
>  <MODEL>
4

>  <REMARK>
 VINA RESULT:      -7.2      1.334      2.172
  Name = 
  4 active torsions:
  status: ('A' for Active; 'I' for Inactive)
    1  A    between atoms: C_11  and  C_17
    2  A    between atoms: C_13  and  C_29
    3  A    between atoms: C_15  and  C_29
    4  A    between atoms: C_20  and  C_25
                            x       y       z     vdW  Elec       q    Type
                         _______ _______ _______ _____ _____    ______ ____

>  <TORSDO>
F 4

$$$$
=
 OpenBabel11062422543D

 29 33  0  0  1  0  0  0  0  0999 V2000
  189.7940  177.6390  146.5540 C   0  0  0  0  0  2  0  0  0  0  0  0
  191.8630  175.6960  146.2610 C   0  0  2  0  0  3  0  0  0  0  0  0
  190.1440  177.2290  145.1250 C   0  0  1  0  0  3  0  0  0  0  0  0
  191.5700  176.6460  145.0800 C   0  0  2  0  0  3  0  0  0  0  0  0
  190.0480  176.5240  147.4640 N   0  0  0  0  0  2  0  0  0  0  0  0
  191.4410  176.3240  147.5130 N   0  0  0  0  0  2  0  0  0  0  0  0
  193.3490  175.4020  146.3540 C   0  0  0  0  0  1  0  0  0  0  0  0
  193.2240  176.7400  143.3210 O   0  0  0  0  0  0  0  0  0  0  0  0
  191.0580  173.8740  143.4250 C   0  0  0  0  0  2  0  0  0  0  0  0
  191.9880  176.1620  143.6740 C   0  0  1  0  0  3  0  0  0  0  0  0
  193.3980  174.3580  142.9240 C   0  0  1  0  0  3  0  0  0  0  0  0
  192.1070  174.6880  143.5230 C   0  0  0  0  0  0  0  0  0  0  0  0
  194.0560  175.7200  142.7990 C   0  0  1  0  0  3  0  0  0  0  0  0
  194.1350  173.5600  143.8010 O   0  0  0  0  0  1  0  0  0  0  0  0
  195.5960  176.7740  141.2840 O   0  0  0  0  0  1  0  0  0  0  0  0
  194.4210  176.0200  141.3510 C   0  0  0  0  0  2  0  0  0  0  0  0
  189.0810  176.2700  144.6010 C   0  0  0  0  0  2  0  0  0  0  0  0
  186.6080  176.1900  145.7550 O   0  0  0  0  0  0  0  0  0  0  0  0
  186.3830  176.7050  141.9740 C   0  0  0  0  0  2  0  0  0  0  0  0
  186.0790  177.1920  146.6070 C   0  0  0  0  0  2  0  0  0  0  0  0
  186.5830  176.7960  144.4910 C   0  0  1  0  0  0  0  0  0  0  0  0
  185.8380  178.8880  143.3300 C   0  0  0  0  0  2  0  0  0  0  0  0
  187.0200  176.0690  143.2370 C   0  0  2  0  0  3  0  0  0  0  0  0
  184.4240  178.9940  146.2250 C   0  0  0  0  0  2  0  0  0  0  0  0
  185.4860  177.8150  144.3540 C   0  0  2  0  0  3  0  0  0  0  0  0
  187.9790  177.0550  143.9080 C   0  0  2  0  0  3  0  0  0  0  0  0
  186.2190  178.2520  141.9750 C   0  0  2  0  0  3  0  0  0  0  0  0
  185.2550  178.6410  140.9620 N   0  0  0  0  0  1  0  0  0  0  0  0
  185.4120  178.2350  145.7570 C   0  0  0  0  0  0  0  0  0  0  0  0
  1  5  1  0  0  0  0
  2  7  1  1  0  0  0
  2  6  1  0  0  0  0
  3 17  1  1  0  0  0
  3  1  1  0  0  0  0
  4 10  1  6  0  0  0
  4  3  1  0  0  0  0
  4  2  1  0  0  0  0
  5  6  1  0  0  0  0
  9 12  2  0  0  0  0
 10  8  1  1  0  0  0
 11 12  1  0  0  0  0
 11 14  1  1  0  0  0
 12 10  1  0  0  0  0
 13 16  1  6  0  0  0
 13 11  1  0  0  0  0
 13  8  1  0  0  0  0
 15 16  1  0  0  0  0
 18 20  1  0  0  0  0
 19 27  1  0  0  0  0
 21 18  1  1  0  0  0
 23 19  1  6  0  0  0
 23 26  1  0  0  0  0
 23 21  1  0  0  0  0
 25 22  1  6  0  0  0
 25 21  1  0  0  0  0
 25 29  1  0  0  0  0
 26 21  1  0  0  0  0
 26 17  1  1  0  0  0
 27 28  1  6  0  0  0
 27 22  1  0  0  0  0
 29 24  2  0  0  0  0
 29 20  1  0  0  0  0
M  END
>  <MODEL>
5

>  <REMARK>
 VINA RESULT:      -7.1      2.499      4.105
  Name = 
  4 active torsions:
  status: ('A' for Active; 'I' for Inactive)
    1  A    between atoms: C_11  and  C_17
    2  A    between atoms: C_13  and  C_29
    3  A    between atoms: C_15  and  C_29
    4  A    between atoms: C_20  and  C_25
                            x       y       z     vdW  Elec       q    Type
                         _______ _______ _______ _____ _____    ______ ____

>  <TORSDO>
F 4

$$$$
=
 OpenBabel11062422543D

 29 33  0  0  1  0  0  0  0  0999 V2000
  189.5860  178.0180  145.6670 C   0  0  0  0  0  2  0  0  0  0  0  0
  190.9270  175.7360  146.7330 C   0  0  2  0  0  3  0  0  0  0  0  0
  189.8410  176.8670  144.6980 C   0  0  1  0  0  3  0  0  0  0  0  0
  191.0040  175.9950  145.2130 C   0  0  2  0  0  3  0  0  0  0  0  0
  189.4300  177.4980  147.0240 N   0  0  0  0  0  2  0  0  0  0  0  0
  190.6800  176.9970  147.4340 N   0  0  0  0  0  2  0  0  0  0  0  0
  192.2330  175.1570  147.2430 C   0  0  0  0  0  1  0  0  0  0  0  0
  190.3090  173.7910  144.5080 O   0  0  0  0  0  0  0  0  0  0  0  0
  192.4220  175.6650  142.2850 C   0  0  0  0  0  2  0  0  0  0  0  0
  191.2990  174.7750  144.3120 C   0  0  1  0  0  3  0  0  0  0  0  0
  190.5220  174.1410  142.1220 C   0  0  1  0  0  3  0  0  0  0  0  0
  191.3790  175.0680  142.8570 C   0  0  0  0  0  0  0  0  0  0  0  0
  189.8830  173.3340  143.2370 C   0  0  1  0  0  3  0  0  0  0  0  0
  189.5370  174.8520  141.4340 O   0  0  0  0  0  1  0  0  0  0  0  0
  189.9180  171.4300  141.7710 O   0  0  0  0  0  1  0  0  0  0  0  0
  190.1800  171.8480  143.0780 C   0  0  0  0  0  2  0  0  0  0  0  0
  188.5480  176.0880  144.4880 C   0  0  0  0  0  2  0  0  0  0  0  0
  185.9730  176.1050  145.3940 O   0  0  0  0  0  0  0  0  0  0  0  0
  186.1440  176.7060  141.6230 C   0  0  0  0  0  2  0  0  0  0  0  0
  185.4110  177.1150  146.2150 C   0  0  0  0  0  2  0  0  0  0  0  0
  186.1000  176.7380  144.1490 C   0  0  1  0  0  0  0  0  0  0  0  0
  185.5710  178.8860  142.9740 C   0  0  0  0  0  2  0  0  0  0  0  0
  186.6230  176.0150  142.9260 C   0  0  2  0  0  3  0  0  0  0  0  0
  183.8870  179.0030  145.7200 C   0  0  0  0  0  2  0  0  0  0  0  0
  185.0710  177.8110  143.9320 C   0  0  2  0  0  3  0  0  0  0  0  0
  187.5570  176.9390  143.7100 C   0  0  2  0  0  3  0  0  0  0  0  0
  186.0530  178.2600  141.6460 C   0  0  2  0  0  3  0  0  0  0  0  0
  185.2120  178.7150  140.5550 N   0  0  0  0  0  1  0  0  0  0  0  0
  184.8800  178.2060  145.3320 C   0  0  0  0  0  0  0  0  0  0  0  0
  1  5  1  0  0  0  0
  2  7  1  1  0  0  0
  2  6  1  0  0  0  0
  3 17  1  1  0  0  0
  3  4  1  0  0  0  0
  3  1  1  0  0  0  0
  4 10  1  6  0  0  0
  4  2  1  0  0  0  0
  5  6  1  0  0  0  0
  9 12  2  0  0  0  0
 10 12  1  6  0  0  0
 10  8  1  0  0  0  0
 11 14  1  1  0  0  0
 11 12  1  0  0  0  0
 11 13  1  0  0  0  0
 13 16  1  6  0  0  0
 13  8  1  0  0  0  0
 15 16  1  0  0  0  0
 18 20  1  0  0  0  0
 19 27  1  0  0  0  0
 21 18  1  1  0  0  0
 23 19  1  6  0  0  0
 23 26  1  0  0  0  0
 23 21  1  0  0  0  0
 25 22  1  6  0  0  0
 25 21  1  0  0  0  0
 25 29  1  0  0  0  0
 26 21  1  0  0  0  0
 26 17  1  1  0  0  0
 27 28  1  6  0  0  0
 27 22  1  0  0  0  0
 29 24  2  0  0  0  0
 29 20  1  0  0  0  0
M  END
>  <MODEL>
6

>  <REMARK>
 VINA RESULT:      -7.0      2.732      4.456
  Name = 
  4 active torsions:
  status: ('A' for Active; 'I' for Inactive)
    1  A    between atoms: C_11  and  C_17
    2  A    between atoms: C_13  and  C_29
    3  A    between atoms: C_15  and  C_29
    4  A    between atoms: C_20  and  C_25
                            x       y       z     vdW  Elec       q    Type
                         _______ _______ _______ _____ _____    ______ ____

>  <TORSDO>
F 4

$$$$
=
 OpenBabel11062422543D

 29 33  0  0  1  0  0  0  0  0999 V2000
  189.7140  173.5450  141.7120 C   0  0  0  0  0  2  0  0  0  0  0  0
  192.1440  174.4200  142.9240 C   0  0  2  0  0  3  0  0  0  0  0  0
  189.5760  174.4830  142.9070 C   0  0  1  0  0  3  0  0  0  0  0  0
  190.8530  174.4250  143.7710 C   0  0  2  0  0  3  0  0  0  0  0  0
  190.9640  173.8210  141.0060 N   0  0  0  0  0  2  0  0  0  0  0  0
  192.0220  173.4340  141.8490 N   0  0  0  0  0  2  0  0  0  0  0  0
  193.3410  174.0450  143.7790 C   0  0  0  0  0  1  0  0  0  0  0  0
  190.9130  174.6430  146.1760 O   0  0  0  0  0  0  0  0  0  0  0  0
  191.8540  177.5050  144.2170 C   0  0  0  0  0  2  0  0  0  0  0  0
  190.8160  175.3840  144.9810 C   0  0  1  0  0  3  0  0  0  0  0  0
  192.5510  176.4220  146.2910 C   0  0  1  0  0  3  0  0  0  0  0  0
  191.8760  176.4250  144.9960 C   0  0  0  0  0  0  0  0  0  0  0  0
  191.8700  175.2710  147.0100 C   0  0  1  0  0  3  0  0  0  0  0  0
  193.9050  176.1310  146.1180 O   0  0  0  0  0  1  0  0  0  0  0  0
  191.3820  177.1200  148.4650 O   0  0  0  0  0  1  0  0  0  0  0  0
  191.2210  175.7420  148.3050 C   0  0  0  0  0  2  0  0  0  0  0  0
  189.2440  175.8860  142.4120 C   0  0  0  0  0  2  0  0  0  0  0  0
  187.9700  177.9940  141.2350 O   0  0  0  0  0  0  0  0  0  0  0  0
  187.3780  177.9200  145.0110 C   0  0  0  0  0  2  0  0  0  0  0  0
  186.8500  177.8840  140.3730 C   0  0  0  0  0  2  0  0  0  0  0  0
  187.4360  177.6900  142.4960 C   0  0  1  0  0  0  0  0  0  0  0  0
  185.2660  177.1750  143.6370 C   0  0  0  0  0  2  0  0  0  0  0  0
  188.2710  177.7290  143.7570 C   0  0  2  0  0  3  0  0  0  0  0  0
  184.4330  178.2860  140.7280 C   0  0  0  0  0  2  0  0  0  0  0  0
  185.9820  178.0510  142.6160 C   0  0  2  0  0  3  0  0  0  0  0  0
  187.9770  176.3830  143.0910 C   0  0  2  0  0  3  0  0  0  0  0  0
  185.9930  177.2110  145.0000 C   0  0  2  0  0  3  0  0  0  0  0  0
  185.1300  177.8100  146.0000 N   0  0  0  0  0  1  0  0  0  0  0  0
  185.6040  177.8760  141.2090 C   0  0  0  0  0  0  0  0  0  0  0  0
  1  3  1  0  0  0  0
  2  4  1  0  0  0  0
  2  7  1  1  0  0  0
  3 17  1  6  0  0  0
  3  4  1  0  0  0  0
  4 10  1  1  0  0  0
  5  1  1  0  0  0  0
  5  6  1  0  0  0  0
  6  2  1  0  0  0  0
  8 13  1  0  0  0  0
  9 12  2  0  0  0  0
 10 12  1  6  0  0  0
 10  8  1  0  0  0  0
 11 14  1  6  0  0  0
 11 13  1  0  0  0  0
 12 11  1  0  0  0  0
 13 16  1  1  0  0  0
 16 15  1  0  0  0  0
 20 29  1  0  0  0  0
 20 18  1  0  0  0  0
 21 18  1  6  0  0  0
 21 25  1  0  0  0  0
 21 26  1  0  0  0  0
 21 23  1  0  0  0  0
 22 27  1  0  0  0  0
 23 19  1  1  0  0  0
 24 29  2  0  0  0  0
 25 22  1  1  0  0  0
 26 17  1  6  0  0  0
 26 23  1  0  0  0  0
 27 19  1  0  0  0  0
 27 28  1  1  0  0  0
 29 25  1  0  0  0  0
M  END
>  <MODEL>
7

>  <REMARK>
 VINA RESULT:      -7.0      1.621      2.028
  Name = 
  4 active torsions:
  status: ('A' for Active; 'I' for Inactive)
    1  A    between atoms: C_11  and  C_17
    2  A    between atoms: C_13  and  C_29
    3  A    between atoms: C_15  and  C_29
    4  A    between atoms: C_20  and  C_25
                            x       y       z     vdW  Elec       q    Type
                         _______ _______ _______ _____ _____    ______ ____

>  <TORSDO>
F 4

$$$$
=
 OpenBabel11062422543D

 29 33  0  0  1  0  0  0  0  0999 V2000
  192.1900  177.0640  145.3880 C   0  0  0  0  0  2  0  0  0  0  0  0
  192.6160  174.2570  145.6730 C   0  0  2  0  0  3  0  0  0  0  0  0
  191.4250  176.1600  144.4250 C   0  0  1  0  0  3  0  0  0  0  0  0
  192.1350  174.7960  144.3090 C   0  0  2  0  0  3  0  0  0  0  0  0
  192.4170  176.3630  146.6500 N   0  0  0  0  0  2  0  0  0  0  0  0
  193.3220  175.3150  146.3970 N   0  0  0  0  0  2  0  0  0  0  0  0
  193.5710  173.0940  145.4810 C   0  0  0  0  0  1  0  0  0  0  0  0
  192.2420  173.4240  142.3230 O   0  0  0  0  0  0  0  0  0  0  0  0
  189.8420  172.5260  144.8430 C   0  0  0  0  0  2  0  0  0  0  0  0
  191.3980  173.8000  143.3870 C   0  0  1  0  0  3  0  0  0  0  0  0
  191.3510  171.3930  143.2930 C   0  0  1  0  0  3  0  0  0  0  0  0
  190.9120  172.5620  144.0510 C   0  0  0  0  0  0  0  0  0  0  0  0
  192.1790  172.0160  142.1840 C   0  0  1  0  0  3  0  0  0  0  0  0
  192.1650  170.5900  144.0920 O   0  0  0  0  0  1  0  0  0  0  0  0
  190.8000  170.5210  140.9050 O   0  0  0  0  0  1  0  0  0  0  0  0
  191.6320  171.6400  140.8140 C   0  0  0  0  0  2  0  0  0  0  0  0
  189.9750  176.0500  144.8800 C   0  0  0  0  0  2  0  0  0  0  0  0
  187.3820  176.4960  145.6120 O   0  0  0  0  0  0  0  0  0  0  0  0
  187.6880  175.7940  141.8670 C   0  0  0  0  0  2  0  0  0  0  0  0
  186.8620  177.7490  146.0250 C   0  0  0  0  0  2  0  0  0  0  0  0
  187.5810  176.6690  144.2350 C   0  0  1  0  0  0  0  0  0  0  0  0
  187.2160  178.3250  142.3900 C   0  0  0  0  0  2  0  0  0  0  0  0
  188.0900  175.5540  143.3460 C   0  0  2  0  0  3  0  0  0  0  0  0
  185.4710  179.4360  144.8630 C   0  0  0  0  0  2  0  0  0  0  0  0
  186.6250  177.6580  143.6270 C   0  0  2  0  0  3  0  0  0  0  0  0
  189.0580  176.6410  143.8200 C   0  0  2  0  0  3  0  0  0  0  0  0
  187.6920  177.2680  141.3690 C   0  0  2  0  0  3  0  0  0  0  0  0
  186.9100  177.3740  140.1520 N   0  0  0  0  0  1  0  0  0  0  0  0
  186.4220  178.5070  144.8060 C   0  0  0  0  0  0  0  0  0  0  0  0
  1  5  1  0  0  0  0
  2  7  1  6  0  0  0
  2  6  1  0  0  0  0
  3 17  1  1  0  0  0
  3  1  1  0  0  0  0
  4 10  1  1  0  0  0
  4  3  1  0  0  0  0
  4  2  1  0  0  0  0
  6  5  1  0  0  0  0
 10  8  1  6  0  0  0
 10 12  1  0  0  0  0
 11 12  1  0  0  0  0
 11 14  1  1  0  0  0
 12  9  2  0  0  0  0
 13 16  1  6  0  0  0
 13  8  1  0  0  0  0
 13 11  1  0  0  0  0
 16 15  1  0  0  0  0
 18 20  1  0  0  0  0
 21 18  1  1  0  0  0
 23 19  1  6  0  0  0
 23 26  1  0  0  0  0
 23 21  1  0  0  0  0
 25 22  1  6  0  0  0
 25 21  1  0  0  0  0
 25 29  1  0  0  0  0
 26 21  1  0  0  0  0
 26 17  1  1  0  0  0
 27 28  1  6  0  0  0
 27 19  1  0  0  0  0
 27 22  1  0  0  0  0
 29 24  2  0  0  0  0
 29 20  1  0  0  0  0
M  END
>  <MODEL>
8

>  <REMARK>
 VINA RESULT:      -6.8      2.849      4.741
  Name = 
  4 active torsions:
  status: ('A' for Active; 'I' for Inactive)
    1  A    between atoms: C_11  and  C_17
    2  A    between atoms: C_13  and  C_29
    3  A    between atoms: C_15  and  C_29
    4  A    between atoms: C_20  and  C_25
                            x       y       z     vdW  Elec       q    Type
                         _______ _______ _______ _____ _____    ______ ____

>  <TORSDO>
F 4

$$$$
=
 OpenBabel11062422543D

 29 33  0  0  1  0  0  0  0  0999 V2000
  189.9000  174.6010  146.4650 C   0  0  0  0  0  2  0  0  0  0  0  0
  188.0660  176.5830  145.5430 C   0  0  2  0  0  3  0  0  0  0  0  0
  190.0110  174.9980  144.9950 C   0  0  1  0  0  3  0  0  0  0  0  0
  188.6800  175.6100  144.5140 C   0  0  2  0  0  3  0  0  0  0  0  0
  189.4080  175.7340  147.2470 N   0  0  0  0  0  2  0  0  0  0  0  0
  188.0720  175.9640  146.8690 N   0  0  0  0  0  2  0  0  0  0  0  0
  186.6290  176.9090  145.1780 C   0  0  0  0  0  1  0  0  0  0  0  0
  187.5850  175.6080  142.3600 O   0  0  0  0  0  0  0  0  0  0  0  0
  189.8990  178.2690  143.0530 C   0  0  0  0  0  2  0  0  0  0  0  0
  188.7220  176.0840  143.0440 C   0  0  1  0  0  3  0  0  0  0  0  0
  187.7580  177.9810  141.9160 C   0  0  1  0  0  3  0  0  0  0  0  0
  188.7920  177.5570  142.8560 C   0  0  0  0  0  0  0  0  0  0  0  0
  187.0340  176.6810  141.6180 C   0  0  1  0  0  3  0  0  0  0  0  0
  186.8840  178.8710  142.5440 O   0  0  0  0  0  1  0  0  0  0  0  0
  186.6720  177.4820  139.3820 O   0  0  0  0  0  1  0  0  0  0  0  0
  187.0620  176.3680  140.1280 C   0  0  0  0  0  2  0  0  0  0  0  0
  191.2050  175.9270  144.8120 C   0  0  0  0  0  2  0  0  0  0  0  0
  193.7790  176.5120  145.5100 O   0  0  0  0  0  0  0  0  0  0  0  0
  193.5130  175.4890  141.8370 C   0  0  0  0  0  2  0  0  0  0  0  0
  194.5820  175.7260  146.3750 C   0  0  0  0  0  2  0  0  0  0  0  0
  193.7100  175.7370  144.3430 C   0  0  1  0  0  0  0  0  0  0  0  0
  194.5940  173.6210  143.3350 C   0  0  0  0  0  2  0  0  0  0  0  0
  192.9810  176.2090  143.1040 C   0  0  2  0  0  3  0  0  0  0  0  0
  196.4260  174.1310  145.9390 C   0  0  0  0  0  2  0  0  0  0  0  0
  194.9220  174.8690  144.1470 C   0  0  2  0  0  3  0  0  0  0  0  0
  192.3020  175.2080  144.0420 C   0  0  2  0  0  3  0  0  0  0  0  0
  193.9190  173.9950  141.9970 C   0  0  2  0  0  3  0  0  0  0  0  0
  194.7690  173.5990  140.8910 N   0  0  0  0  0  1  0  0  0  0  0  0
  195.2710  174.6720  145.5580 C   0  0  0  0  0  0  0  0  0  0  0  0
  1  5  1  0  0  0  0
  2  7  1  6  0  0  0
  2  6  1  0  0  0  0
  3 17  1  1  0  0  0
  3  1  1  0  0  0  0
  4 10  1  6  0  0  0
  4  3  1  0  0  0  0
  4  2  1  0  0  0  0
  6  5  1  0  0  0  0
 10  8  1  6  0  0  0
 11 14  1  1  0  0  0
 11 12  1  0  0  0  0
 12 10  1  0  0  0  0
 12  9  2  0  0  0  0
 13 16  1  6  0  0  0
 13 11  1  0  0  0  0
 13  8  1  0  0  0  0
 15 16  1  0  0  0  0
 18 20  1  0  0  0  0
 19 27  1  0  0  0  0
 21 18  1  1  0  0  0
 23 19  1  6  0  0  0
 23 26  1  0  0  0  0
 23 21  1  0  0  0  0
 25 22  1  1  0  0  0
 25 21  1  0  0  0  0
 25 29  1  0  0  0  0
 26 21  1  0  0  0  0
 26 17  1  1  0  0  0
 27 28  1  6  0  0  0
 27 22  1  0  0  0  0
 29 24  2  0  0  0  0
 29 20  1  0  0  0  0
M  END
>  <MODEL>
9

>  <REMARK>
 VINA RESULT:      -6.6      2.270      7.603
  Name = 
  4 active torsions:
  status: ('A' for Active; 'I' for Inactive)
    1  A    between atoms: C_11  and  C_17
    2  A    between atoms: C_13  and  C_29
    3  A    between atoms: C_15  and  C_29
    4  A    between atoms: C_20  and  C_25
                            x       y       z     vdW  Elec       q    Type
                         _______ _______ _______ _____ _____    ______ ____

>  <TORSDO>
F 4

$$$$
