=
 OpenBabel11062419453D

 46 50  0  0  1  0  0  0  0  0999 V2000
  192.1610  173.0500  144.6880 C   0  0  2  0  0  3  0  0  0  0  0  0
  194.1160  171.6000  144.9200 C   0  0  0  0  0  0  0  0  0  0  0  0
  193.5140  172.7130  145.2470 C   0  0  0  0  0  3  0  0  0  0  0  0
  194.7270  170.4930  144.5860 C   0  0  0  0  0  0  0  0  0  0  0  0
  196.0990  170.5510  144.2000 N   0  0  0  0  0  1  0  0  0  0  0  0
  193.7940  168.5280  145.6300 N   0  0  0  0  0  2  0  0  0  0  0  0
  194.0110  169.2050  144.5470 C   0  0  0  0  0  0  0  0  0  0  0  0
  193.5930  168.7050  143.3560 F   0  0  0  0  0  0  0  0  0  0  0  0
  191.9580  172.5300  143.3320 N   0  0  0  0  0  2  0  0  0  0  0  0
  191.7170  171.1700  139.7910 C   0  0  0  0  0  2  0  0  0  0  0  0
  192.2300  170.8040  141.1790 C   0  0  0  0  0  2  0  0  0  0  0  0
  190.8180  172.4110  139.8020 C   0  0  0  0  0  2  0  0  0  0  0  0
  191.0480  170.5140  142.1120 C   0  0  1  0  0  3  0  0  0  0  0  0
  190.9510  171.4600  143.3100 C   0  0  2  0  0  0  0  0  0  0  0  0
  189.9850  171.6160  142.1030 C   0  0  1  0  0  0  0  0  0  0  0  0
  190.3280  172.8280  141.2010 C   0  0  2  0  0  3  0  0  0  0  0  0
  189.5630  172.0230  143.5020 C   0  0  0  0  0  2  0  0  0  0  0  0
  188.8860  174.1220  139.7720 O   0  0  0  0  0  1  0  0  0  0  0  0
  189.1830  173.8360  141.1080 C   0  0  2  0  0  3  0  0  0  0  0  0
  189.5400  175.0330  141.7940 O   0  0  0  0  0  0  0  0  0  0  0  0
  186.2750  176.3480  143.0230 C   0  0  0  0  0  2  0  0  0  0  0  0
  189.0800  177.1880  142.9590 C   0  0  0  0  0  2  0  0  0  0  0  0
  188.5960  175.8780  142.3850 C   0  0  0  0  0  0  0  0  0  0  0  0
  188.0290  177.8810  143.8260 C   0  0  0  0  0  2  0  0  0  0  0  0
  187.3310  175.5550  142.3870 N   0  0  0  0  0  0  0  0  0  0  0  0
  186.6770  177.8160  143.1350 C   0  0  0  0  0  2  0  0  0  0  0  0
  191.8840  174.5500  144.7600 C   0  0  0  0  0  2  0  0  0  0  0  0
  192.2910  175.1200  146.1200 C   0  0  2  0  0  3  0  0  0  0  0  0
  191.2370  175.3000  148.2640 O   0  0  0  0  0  0  0  0  0  0  0  0
  189.8130  175.4750  146.4290 N   0  0  0  0  0  0  0  0  0  0  0  0
  191.1020  175.3080  147.0120 C   0  0  0  0  0  0  0  0  0  0  0  0
  188.6790  175.6700  147.2250 N   0  0  0  0  0  0  0  0  0  0  0  0
  187.4540  175.9810  146.6260 N   0  0  0  0  0  0  0  0  0  0  0  0
  186.6430  176.8080  147.1960 C   0  0  0  0  0  3  0  0  0  0  0  0
  185.3340  177.1380  146.5650 C   0  0  0  0  0  2  0  0  0  0  0  0
  183.9730  178.9440  145.5590 C   0  0  0  0  0  1  0  0  0  0  0  0
  185.1900  178.6380  146.4170 C   0  0  0  0  0  2  0  0  0  0  0  0
  193.0670  176.4310  145.9850 C   0  0  2  0  0  3  0  0  0  0  0  0
  192.7060  177.1180  144.8180 O   0  0  0  0  0  1  0  0  0  0  0  0
  194.5710  176.1910  146.0060 C   0  0  0  0  0  2  0  0  0  0  0  0
  195.1400  176.4820  144.6270 C   0  0  0  0  0  2  0  0  0  0  0  0
  194.3460  175.4710  142.1900 C   0  0  0  0  0  1  0  0  0  0  0  0
  195.9190  175.2740  144.0810 C   0  0  2  0  0  3  0  0  0  0  0  0
  197.2230  175.6760  143.4200 C   0  0  0  0  0  2  0  0  0  0  0  0
  196.6420  175.0300  142.1780 C   0  0  0  0  0  2  0  0  0  0  0  0
  195.3860  174.6750  142.8390 N   0  0  0  0  0  0  0  0  0  0  0  0
  1 27  1  6  0  0  0
  1  3  1  0  0  0  0
  2  3  2  0  0  0  0
  4  2  2  0  0  0  0
  5  4  1  0  0  0  0
  7  4  1  0  0  0  0
  7  6  2  0  0  0  0
  8  7  1  0  0  0  0
  9  1  1  0  0  0  0
 10 12  1  0  0  0  0
 10 11  1  0  0  0  0
 12 16  1  0  0  0  0
 13 11  1  6  0  0  0
 13 14  1  0  0  0  0
 14  9  1  1  0  0  0
 14 17  1  0  0  0  0
 15 13  1  0  0  0  0
 15 14  1  0  0  0  0
 15 17  1  1  0  0  0
 16 19  1  6  0  0  0
 16 15  1  0  0  0  0
 19 18  1  6  0  0  0
 19 20  1  0  0  0  0
 20 23  1  0  0  0  0
 21 26  1  0  0  0  0
 22 24  1  0  0  0  0
 23 25  2  0  0  0  0
 23 22  1  0  0  0  0
 25 21  1  0  0  0  0
 26 24  1  0  0  0  0
 28 27  1  6  0  0  0
 28 31  1  0  0  0  0
 30 31  1  0  0  0  0
 30 32  2  0  0  0  0
 31 29  2  0  0  0  0
 33 34  2  0  0  0  0
 33 32  1  0  0  0  0
 35 34  1  0  0  0  0
 36 37  1  0  0  0  0
 37 35  1  0  0  0  0
 38 39  1  6  0  0  0
 38 40  1  0  0  0  0
 38 28  1  0  0  0  0
 41 40  1  0  0  0  0
 42 46  1  0  0  0  0
 43 41  1  6  0  0  0
 44 43  1  0  0  0  0
 45 46  1  0  0  0  0
 45 44  1  0  0  0  0
 46 43  1  0  0  0  0
M  END
>  <MODEL>
1

>  <REMARK>
 VINA RESULT:      -6.4      0.000      0.000
  Name = 
  18 active torsions:
  status: ('A' for Active; 'I' for Inactive)
    1  A    between atoms: C_3  and  C_8
    2  A    between atoms: C_3  and  C_14
    3  A    between atoms: C_3  and  C_35
    4  A    between atoms: N_7  and  N_20
    5  A    between atoms: N_7  and  N_22
    6  A    between atoms: C_8  and  C_43
    7  A    between atoms: N_12  and  C_19
    8  A    between atoms: N_12  and  C_43
    9  A    between atoms: C_14  and  C_42
   10  A    between atoms: C_15  and  O_32
   11  A    between atoms: C_16  and  C_36
   12  A    between atoms: C_21  and  C_39
   13  A    between atoms: C_23  and  C_43
   14  A    between atoms: O_32  and  C_41
   15  A    between atoms: C_34  and  C_37
   16  A    between atoms: C_36  and  C_42
   17  A    between atoms: C_38  and  C_39
   18  A    between atoms: C_41  and  C_45
                            x       y       z     vdW  Elec       q    Type
                         _______ _______ _______ _____ _____    ______ ____

>  <TORSDO>
F 18

$$$$
=
 OpenBabel11062419453D

 46 50  0  0  1  0  0  0  0  0999 V2000
  190.5950  174.2890  143.9180 C   0  0  2  0  0  3  0  0  0  0  0  0
  189.3910  175.1050  145.8830 C   0  0  0  0  0  0  0  0  0  0  0  0
  189.8930  174.0900  145.2310 C   0  0  0  0  0  3  0  0  0  0  0  0
  188.8780  176.1170  146.5330 C   0  0  0  0  0  0  0  0  0  0  0  0
  187.5500  176.0100  147.0410 N   0  0  0  0  0  1  0  0  0  0  0  0
  189.8390  177.8770  147.8750 N   0  0  0  0  0  2  0  0  0  0  0  0
  189.6240  177.3780  146.6990 C   0  0  0  0  0  0  0  0  0  0  0  0
  190.0710  178.0440  145.6030 F   0  0  0  0  0  0  0  0  0  0  0  0
  191.9770  174.7520  144.0740 N   0  0  0  0  0  2  0  0  0  0  0  0
  194.0150  176.7000  146.6240 C   0  0  0  0  0  2  0  0  0  0  0  0
  192.8180  175.7630  146.5150 C   0  0  0  0  0  2  0  0  0  0  0  0
  194.8300  176.7680  145.3270 C   0  0  0  0  0  2  0  0  0  0  0  0
  193.2940  174.3420  146.1900 C   0  0  1  0  0  3  0  0  0  0  0  0
  192.7800  173.8020  144.8550 C   0  0  2  0  0  0  0  0  0  0  0  0
  194.2500  174.2830  144.9960 C   0  0  1  0  0  0  0  0  0  0  0  0
  194.5110  175.6510  144.3160 C   0  0  2  0  0  3  0  0  0  0  0  0
  193.8740  173.1970  144.0060 C   0  0  0  0  0  2  0  0  0  0  0  0
  196.7770  176.1380  143.6650 O   0  0  0  0  0  1  0  0  0  0  0  0
  195.5760  175.5730  143.2240 C   0  0  2  0  0  3  0  0  0  0  0  0
  195.1190  176.2520  142.0570 O   0  0  0  0  0  0  0  0  0  0  0  0
  195.6080  174.9880  138.5850 C   0  0  0  0  0  2  0  0  0  0  0  0
  193.5700  174.8630  140.6840 C   0  0  0  0  0  2  0  0  0  0  0  0
  194.8780  175.6000  140.8450 C   0  0  0  0  0  0  0  0  0  0  0  0
  193.5460  173.9570  139.4540 C   0  0  0  0  0  2  0  0  0  0  0  0
  195.7450  175.6760  139.8720 N   0  0  0  0  0  0  0  0  0  0  0  0
  194.1440  174.6940  138.2680 C   0  0  0  0  0  2  0  0  0  0  0  0
  189.7980  175.2050  142.9910 C   0  0  0  0  0  2  0  0  0  0  0  0
  188.4970  174.5370  142.5430 C   0  0  2  0  0  3  0  0  0  0  0  0
  187.9330  172.7180  141.0890 O   0  0  0  0  0  0  0  0  0  0  0  0
  189.8210  173.9400  140.4810 N   0  0  0  0  0  2  0  0  0  0  0  0
  188.7120  173.6760  141.3360 C   0  0  0  0  0  0  0  0  0  0  0  0
  190.0490  173.1710  139.3350 N   0  0  0  0  0  2  0  0  0  0  0  0
  189.7980  173.7140  138.0710 N   0  0  0  0  0  0  0  0  0  0  0  0
  190.7440  173.7920  137.1960 C   0  0  0  0  0  3  0  0  0  0  0  0
  190.4820  174.3760  135.8500 C   0  0  0  0  0  2  0  0  0  0  0  0
  192.4990  174.9730  134.5470 C   0  0  0  0  0  1  0  0  0  0  0  0
  191.4800  175.4760  135.5560 C   0  0  0  0  0  2  0  0  0  0  0  0
  187.3890  175.5580  142.2780 C   0  0  2  0  0  3  0  0  0  0  0  0
  187.5220  176.1340  141.0070 O   0  0  0  0  0  1  0  0  0  0  0  0
  187.3660  176.6430  143.3450 C   0  0  0  0  0  2  0  0  0  0  0  0
  185.9700  176.7250  143.9410 C   0  0  0  0  0  2  0  0  0  0  0  0
  184.0570  178.4010  142.8780 C   0  0  0  0  0  1  0  0  0  0  0  0
  185.7450  178.0720  144.6480 C   0  0  2  0  0  3  0  0  0  0  0  0
  184.8630  177.9430  145.8740 C   0  0  0  0  0  2  0  0  0  0  0  0
  183.9480  178.9140  145.1570 C   0  0  0  0  0  2  0  0  0  0  0  0
  184.8100  179.0000  143.9790 N   0  0  0  0  0  0  0  0  0  0  0  0
  1 27  1  6  0  0  0
  1  9  1  0  0  0  0
  1  3  1  0  0  0  0
  2  4  2  0  0  0  0
  3  2  2  0  0  0  0
  4  7  1  0  0  0  0
  4  5  1  0  0  0  0
  7  6  2  0  0  0  0
  8  7  1  0  0  0  0
 11 10  1  0  0  0  0
 12 10  1  0  0  0  0
 13 11  1  6  0  0  0
 14  9  1  6  0  0  0
 14 15  1  0  0  0  0
 14 13  1  0  0  0  0
 15 17  1  1  0  0  0
 15 13  1  0  0  0  0
 16 19  1  6  0  0  0
 16 15  1  0  0  0  0
 16 12  1  0  0  0  0
 17 14  1  0  0  0  0
 19 18  1  1  0  0  0
 20 19  1  0  0  0  0
 21 25  1  0  0  0  0
 22 23  1  0  0  0  0
 23 20  1  0  0  0  0
 24 22  1  0  0  0  0
 25 23  2  0  0  0  0
 26 21  1  0  0  0  0
 26 24  1  0  0  0  0
 28 27  1  6  0  0  0
 29 31  2  0  0  0  0
 30 31  1  0  0  0  0
 31 28  1  0  0  0  0
 32 30  1  0  0  0  0
 33 32  1  0  0  0  0
 34 33  2  0  0  0  0
 35 34  1  0  0  0  0
 36 37  1  0  0  0  0
 37 35  1  0  0  0  0
 38 39  1  6  0  0  0
 38 28  1  0  0  0  0
 38 40  1  0  0  0  0
 40 41  1  0  0  0  0
 42 46  1  0  0  0  0
 43 41  1  6  0  0  0
 43 44  1  0  0  0  0
 45 44  1  0  0  0  0
 46 43  1  0  0  0  0
 46 45  1  0  0  0  0
M  END
>  <MODEL>
2

>  <REMARK>
 VINA RESULT:      -6.1      3.113      8.581
  Name = 
  18 active torsions:
  status: ('A' for Active; 'I' for Inactive)
    1  A    between atoms: C_3  and  C_8
    2  A    between atoms: C_3  and  C_14
    3  A    between atoms: C_3  and  C_35
    4  A    between atoms: N_7  and  N_20
    5  A    between atoms: N_7  and  N_22
    6  A    between atoms: C_8  and  C_43
    7  A    between atoms: N_12  and  C_19
    8  A    between atoms: N_12  and  C_43
    9  A    between atoms: C_14  and  C_42
   10  A    between atoms: C_15  and  O_32
   11  A    between atoms: C_16  and  C_36
   12  A    between atoms: C_21  and  C_39
   13  A    between atoms: C_23  and  C_43
   14  A    between atoms: O_32  and  C_41
   15  A    between atoms: C_34  and  C_37
   16  A    between atoms: C_36  and  C_42
   17  A    between atoms: C_38  and  C_39
   18  A    between atoms: C_41  and  C_45
                            x       y       z     vdW  Elec       q    Type
                         _______ _______ _______ _____ _____    ______ ____

>  <TORSDO>
F 18

$$$$
=
 OpenBabel11062419453D

 46 50  0  0  1  0  0  0  0  0999 V2000
  192.5670  173.0740  144.0010 C   0  0  2  0  0  3  0  0  0  0  0  0
  194.8720  173.1410  144.8140 C   0  0  0  0  0  0  0  0  0  0  0  0
  193.7610  172.4650  144.6790 C   0  0  0  0  0  3  0  0  0  0  0  0
  195.9810  173.8170  144.9590 C   0  0  0  0  0  0  0  0  0  0  0  0
  196.6210  173.8290  146.2340 N   0  0  0  0  0  1  0  0  0  0  0  0
  196.8460  174.0550  142.7200 N   0  0  0  0  0  2  0  0  0  0  0  0
  196.5470  174.6090  143.8520 C   0  0  0  0  0  0  0  0  0  0  0  0
  196.7840  175.9350  144.0260 F   0  0  0  0  0  0  0  0  0  0  0  0
  191.9980  174.2000  144.7480 N   0  0  0  0  0  2  0  0  0  0  0  0
  192.1650  176.6980  147.6080 C   0  0  0  0  0  2  0  0  0  0  0  0
  193.0580  175.8760  146.6860 C   0  0  0  0  0  2  0  0  0  0  0  0
  190.7000  176.7090  147.1550 C   0  0  0  0  0  2  0  0  0  0  0  0
  193.0140  176.4530  145.2660 C   0  0  1  0  0  3  0  0  0  0  0  0
  192.4600  175.4890  144.2160 C   0  0  2  0  0  0  0  0  0  0  0  0
  191.5910  176.6640  144.7420 C   0  0  1  0  0  0  0  0  0  0  0  0
  190.4760  176.2080  145.7160 C   0  0  2  0  0  3  0  0  0  0  0  0
  191.4050  176.1190  143.3380 C   0  0  0  0  0  2  0  0  0  0  0  0
  189.0330  177.8900  144.7760 O   0  0  0  0  0  1  0  0  0  0  0  0
  189.0760  176.5650  145.2190 C   0  0  2  0  0  3  0  0  0  0  0  0
  188.1300  176.3710  146.2670 O   0  0  0  0  0  0  0  0  0  0  0  0
  185.7640  178.9670  147.5170 C   0  0  0  0  0  2  0  0  0  0  0  0
  185.8120  176.8550  145.4890 C   0  0  0  0  0  2  0  0  0  0  0  0
  186.9780  177.1500  146.4020 C   0  0  0  0  0  0  0  0  0  0  0  0
  184.7390  177.9430  145.5250 C   0  0  0  0  0  2  0  0  0  0  0  0
  186.9070  178.0670  147.3290 N   0  0  0  0  0  0  0  0  0  0  0  0
  184.4810  178.3540  146.9640 C   0  0  0  0  0  2  0  0  0  0  0  0
  191.5070  172.0200  143.6830 C   0  0  0  0  0  2  0  0  0  0  0  0
  190.8620  172.2820  142.3210 C   0  0  2  0  0  3  0  0  0  0  0  0
  188.6040  171.9540  143.0530 O   0  0  0  0  0  0  0  0  0  0  0  0
  189.0100  173.9440  141.9130 N   0  0  0  0  0  2  0  0  0  0  0  0
  189.4310  172.7010  142.4660 C   0  0  0  0  0  0  0  0  0  0  0  0
  187.6860  174.3810  142.0380 N   0  0  0  0  0  2  0  0  0  0  0  0
  187.4220  175.6970  142.4280 N   0  0  0  0  0  0  0  0  0  0  0  0
  187.2030  176.6080  141.5380 C   0  0  0  0  0  3  0  0  0  0  0  0
  186.9280  178.0130  141.9480 C   0  0  0  0  0  2  0  0  0  0  0  0
  184.9430  178.1580  140.4790 C   0  0  0  0  0  1  0  0  0  0  0  0
  185.4390  178.2860  141.9090 C   0  0  0  0  0  2  0  0  0  0  0  0
  190.9720  171.0730  141.3900 C   0  0  2  0  0  3  0  0  0  0  0  0
  192.3040  170.6640  141.2450 O   0  0  0  0  0  1  0  0  0  0  0  0
  190.3630  171.3660  140.0260 C   0  0  0  0  0  2  0  0  0  0  0  0
  191.2620  172.3380  139.2790 C   0  0  0  0  0  2  0  0  0  0  0  0
  191.5510  172.7710  136.5730 C   0  0  0  0  0  1  0  0  0  0  0  0
  190.4480  173.4870  138.6610 C   0  0  2  0  0  3  0  0  0  0  0  0
  189.0100  173.0950  138.3820 C   0  0  0  0  0  2  0  0  0  0  0  0
  189.3370  173.4260  136.9400 C   0  0  0  0  0  2  0  0  0  0  0  0
  190.7250  173.7770  137.2380 N   0  0  0  0  0  0  0  0  0  0  0  0
  1 27  1  1  0  0  0
  1  3  1  0  0  0  0
  1  9  1  0  0  0  0
  2  4  2  0  0  0  0
  3  2  2  0  0  0  0
  4  5  1  0  0  0  0
  6  7  2  0  0  0  0
  7  8  1  0  0  0  0
  7  4  1  0  0  0  0
 11 10  1  0  0  0  0
 12 10  1  0  0  0  0
 13 11  1  1  0  0  0
 14 15  1  0  0  0  0
 14  9  1  1  0  0  0
 14 13  1  0  0  0  0
 15 17  1  6  0  0  0
 15 13  1  0  0  0  0
 15 16  1  0  0  0  0
 16 19  1  6  0  0  0
 16 12  1  0  0  0  0
 17 14  1  0  0  0  0
 19 18  1  1  0  0  0
 19 20  1  0  0  0  0
 20 23  1  0  0  0  0
 22 24  1  0  0  0  0
 22 23  1  0  0  0  0
 23 25  2  0  0  0  0
 24 26  1  0  0  0  0
 25 21  1  0  0  0  0
 26 21  1  0  0  0  0
 28 31  1  0  0  0  0
 28 27  1  1  0  0  0
 30 32  1  0  0  0  0
 30 31  1  0  0  0  0
 31 29  2  0  0  0  0
 32 33  1  0  0  0  0
 34 35  1  0  0  0  0
 34 33  2  0  0  0  0
 36 37  1  0  0  0  0
 37 35  1  0  0  0  0
 38 39  1  6  0  0  0
 38 28  1  0  0  0  0
 40 38  1  0  0  0  0
 41 40  1  0  0  0  0
 42 46  1  0  0  0  0
 43 41  1  6  0  0  0
 44 43  1  0  0  0  0
 45 46  1  0  0  0  0
 45 44  1  0  0  0  0
 46 43  1  0  0  0  0
M  END
>  <MODEL>
3

>  <REMARK>
 VINA RESULT:      -6.1      2.539      5.994
  Name = 
  18 active torsions:
  status: ('A' for Active; 'I' for Inactive)
    1  A    between atoms: C_3  and  C_8
    2  A    between atoms: C_3  and  C_14
    3  A    between atoms: C_3  and  C_35
    4  A    between atoms: N_7  and  N_20
    5  A    between atoms: N_7  and  N_22
    6  A    between atoms: C_8  and  C_43
    7  A    between atoms: N_12  and  C_19
    8  A    between atoms: N_12  and  C_43
    9  A    between atoms: C_14  and  C_42
   10  A    between atoms: C_15  and  O_32
   11  A    between atoms: C_16  and  C_36
   12  A    between atoms: C_21  and  C_39
   13  A    between atoms: C_23  and  C_43
   14  A    between atoms: O_32  and  C_41
   15  A    between atoms: C_34  and  C_37
   16  A    between atoms: C_36  and  C_42
   17  A    between atoms: C_38  and  C_39
   18  A    between atoms: C_41  and  C_45
                            x       y       z     vdW  Elec       q    Type
                         _______ _______ _______ _____ _____    ______ ____

>  <TORSDO>
F 18

$$$$
=
 OpenBabel11062419453D

 46 50  0  0  1  0  0  0  0  0999 V2000
  192.7880  174.6260  142.4850 C   0  0  2  0  0  3  0  0  0  0  0  0
  195.0180  174.5800  143.4850 C   0  0  0  0  0  0  0  0  0  0  0  0
  194.0950  173.9580  142.7990 C   0  0  0  0  0  3  0  0  0  0  0  0
  195.9390  175.1950  144.1790 C   0  0  0  0  0  0  0  0  0  0  0  0
  196.5670  174.5050  145.2590 N   0  0  0  0  0  1  0  0  0  0  0  0
  197.2160  176.8970  143.0410 N   0  0  0  0  0  2  0  0  0  0  0  0
  196.2970  176.5990  143.9040 C   0  0  0  0  0  0  0  0  0  0  0  0
  195.6740  177.5960  144.5830 F   0  0  0  0  0  0  0  0  0  0  0  0
  192.0470  175.0250  143.6850 N   0  0  0  0  0  2  0  0  0  0  0  0
  191.6890  175.3680  147.4540 C   0  0  0  0  0  2  0  0  0  0  0  0
  192.7410  175.3340  146.3510 C   0  0  0  0  0  2  0  0  0  0  0  0
  190.2640  175.5030  146.9050 C   0  0  0  0  0  2  0  0  0  0  0  0
  192.6790  176.6280  145.5310 C   0  0  1  0  0  3  0  0  0  0  0  0
  192.3320  176.4170  144.0570 C   0  0  2  0  0  0  0  0  0  0  0  0
  191.2680  176.9700  145.0450 C   0  0  1  0  0  0  0  0  0  0  0  0
  190.1900  175.9240  145.4250 C   0  0  2  0  0  3  0  0  0  0  0  0
  191.2370  177.3390  143.5740 C   0  0  0  0  0  2  0  0  0  0  0  0
  188.7660  177.7230  144.6940 O   0  0  0  0  0  1  0  0  0  0  0  0
  188.7780  176.3700  145.0480 C   0  0  2  0  0  3  0  0  0  0  0  0
  187.8940  176.1460  146.1430 O   0  0  0  0  0  0  0  0  0  0  0  0
  186.0340  178.9760  147.7000 C   0  0  0  0  0  2  0  0  0  0  0  0
  185.5020  176.7760  145.8420 C   0  0  0  0  0  2  0  0  0  0  0  0
  186.8540  177.0190  146.4690 C   0  0  0  0  0  0  0  0  0  0  0  0
  184.5380  177.9460  146.0360 C   0  0  0  0  0  2  0  0  0  0  0  0
  187.0450  177.9810  147.3320 N   0  0  0  0  0  0  0  0  0  0  0  0
  184.6230  178.4430  147.4690 C   0  0  0  0  0  2  0  0  0  0  0  0
  191.9300  173.7670  141.5560 C   0  0  0  0  0  2  0  0  0  0  0  0
  190.6460  173.3170  142.2550 C   0  0  2  0  0  3  0  0  0  0  0  0
  189.8350  171.3950  143.4350 O   0  0  0  0  0  0  0  0  0  0  0  0
  191.9220  171.1490  142.4310 N   0  0  0  0  0  2  0  0  0  0  0  0
  190.7560  171.9040  142.7420 C   0  0  0  0  0  0  0  0  0  0  0  0
  192.0580  169.8210  142.8520 N   0  0  0  0  0  2  0  0  0  0  0  0
  192.6270  169.5420  144.0990 N   0  0  0  0  0  0  0  0  0  0  0  0
  193.8880  169.7360  144.2970 C   0  0  0  0  0  3  0  0  0  0  0  0
  194.5000  169.4330  145.6220 C   0  0  0  0  0  2  0  0  0  0  0  0
  196.0560  171.0180  144.5320 C   0  0  0  0  0  1  0  0  0  0  0  0
  195.8060  170.1820  145.7760 C   0  0  0  0  0  2  0  0  0  0  0  0
  189.4170  173.4770  141.3580 C   0  0  2  0  0  3  0  0  0  0  0  0
  189.7830  173.8500  140.0580 O   0  0  0  0  0  1  0  0  0  0  0  0
  188.4360  174.4860  141.9360 C   0  0  0  0  0  2  0  0  0  0  0  0
  188.0490  175.4800  140.8520 C   0  0  0  0  0  2  0  0  0  0  0  0
  186.6050  177.1780  139.2320 C   0  0  0  0  0  1  0  0  0  0  0  0
  187.6060  176.8210  141.4590 C   0  0  2  0  0  3  0  0  0  0  0  0
  186.3660  176.6870  142.3200 C   0  0  0  0  0  2  0  0  0  0  0  0
  185.7450  177.6720  141.3490 C   0  0  0  0  0  2  0  0  0  0  0  0
  186.9500  177.7620  140.5270 N   0  0  0  0  0  0  0  0  0  0  0  0
  1 27  1  1  0  0  0
  1  3  1  0  0  0  0
  1  9  1  0  0  0  0
  2  4  2  0  0  0  0
  3  2  2  0  0  0  0
  4  5  1  0  0  0  0
  6  7  2  0  0  0  0
  7  4  1  0  0  0  0
  7  8  1  0  0  0  0
 11 10  1  0  0  0  0
 12 10  1  0  0  0  0
 13 11  1  1  0  0  0
 14  9  1  6  0  0  0
 14 15  1  0  0  0  0
 14 13  1  0  0  0  0
 15 17  1  6  0  0  0
 15 16  1  0  0  0  0
 15 13  1  0  0  0  0
 16 19  1  1  0  0  0
 16 12  1  0  0  0  0
 17 14  1  0  0  0  0
 19 18  1  1  0  0  0
 19 20  1  0  0  0  0
 20 23  1  0  0  0  0
 22 24  1  0  0  0  0
 22 23  1  0  0  0  0
 23 25  2  0  0  0  0
 24 26  1  0  0  0  0
 25 21  1  0  0  0  0
 26 21  1  0  0  0  0
 28 27  1  6  0  0  0
 28 31  1  0  0  0  0
 30 31  1  0  0  0  0
 30 32  1  0  0  0  0
 31 29  2  0  0  0  0
 32 33  1  0  0  0  0
 33 34  2  0  0  0  0
 34 35  1  0  0  0  0
 35 37  1  0  0  0  0
 36 37  1  0  0  0  0
 38 39  1  6  0  0  0
 38 40  1  0  0  0  0
 38 28  1  0  0  0  0
 41 40  1  0  0  0  0
 42 46  1  0  0  0  0
 43 41  1  6  0  0  0
 43 44  1  0  0  0  0
 45 44  1  0  0  0  0
 46 45  1  0  0  0  0
 46 43  1  0  0  0  0
M  END
>  <MODEL>
4

>  <REMARK>
 VINA RESULT:      -6.1      2.430      7.392
  Name = 
  18 active torsions:
  status: ('A' for Active; 'I' for Inactive)
    1  A    between atoms: C_3  and  C_8
    2  A    between atoms: C_3  and  C_14
    3  A    between atoms: C_3  and  C_35
    4  A    between atoms: N_7  and  N_20
    5  A    between atoms: N_7  and  N_22
    6  A    between atoms: C_8  and  C_43
    7  A    between atoms: N_12  and  C_19
    8  A    between atoms: N_12  and  C_43
    9  A    between atoms: C_14  and  C_42
   10  A    between atoms: C_15  and  O_32
   11  A    between atoms: C_16  and  C_36
   12  A    between atoms: C_21  and  C_39
   13  A    between atoms: C_23  and  C_43
   14  A    between atoms: O_32  and  C_41
   15  A    between atoms: C_34  and  C_37
   16  A    between atoms: C_36  and  C_42
   17  A    between atoms: C_38  and  C_39
   18  A    between atoms: C_41  and  C_45
                            x       y       z     vdW  Elec       q    Type
                         _______ _______ _______ _____ _____    ______ ____

>  <TORSDO>
F 18

$$$$
=
 OpenBabel11062419453D

 46 50  0  0  1  0  0  0  0  0999 V2000
  192.0940  174.9670  142.1430 C   0  0  2  0  0  3  0  0  0  0  0  0
  191.2730  172.9970  140.9520 C   0  0  0  0  0  0  0  0  0  0  0  0
  192.1210  173.9910  141.0030 C   0  0  0  0  0  3  0  0  0  0  0  0
  190.4210  172.0070  140.8920 C   0  0  0  0  0  0  0  0  0  0  0  0
  189.7340  171.7600  139.6660 N   0  0  0  0  0  1  0  0  0  0  0  0
  189.5670  171.7070  143.1280 N   0  0  0  0  0  2  0  0  0  0  0  0
  190.1160  171.1850  142.0770 C   0  0  0  0  0  0  0  0  0  0  0  0
  190.4380  169.8660  142.0800 F   0  0  0  0  0  0  0  0  0  0  0  0
  193.0990  174.6760  143.1690 N   0  0  0  0  0  2  0  0  0  0  0  0
  194.7540  175.8160  146.3970 C   0  0  0  0  0  2  0  0  0  0  0  0
  193.4360  175.8990  145.6350 C   0  0  0  0  0  2  0  0  0  0  0  0
  195.7150  174.7810  145.8000 C   0  0  0  0  0  2  0  0  0  0  0  0
  192.7300  174.5380  145.6640 C   0  0  1  0  0  3  0  0  0  0  0  0
  192.5270  173.9100  144.2850 C   0  0  2  0  0  0  0  0  0  0  0  0
  193.6340  173.3790  145.2350 C   0  0  1  0  0  0  0  0  0  0  0  0
  195.0600  173.8040  144.8060 C   0  0  2  0  0  3  0  0  0  0  0  0
  192.9640  172.4660  144.2270 C   0  0  0  0  0  2  0  0  0  0  0  0
  196.6510  172.2230  145.6830 O   0  0  0  0  0  1  0  0  0  0  0  0
  195.9720  172.6110  144.5240 C   0  0  2  0  0  3  0  0  0  0  0  0
  196.9060  172.9510  143.5030 O   0  0  0  0  0  0  0  0  0  0  0  0
  195.5470  173.0480  140.0340 C   0  0  0  0  0  2  0  0  0  0  0  0
  196.7430  174.9010  141.9590 C   0  0  0  0  0  2  0  0  0  0  0  0
  196.5190  173.4370  142.2520 C   0  0  0  0  0  0  0  0  0  0  0  0
  196.0230  175.3720  140.6960 C   0  0  0  0  0  2  0  0  0  0  0  0
  196.0270  172.6270  141.3530 N   0  0  0  0  0  0  0  0  0  0  0  0
  196.2120  174.3470  139.5910 C   0  0  0  0  0  2  0  0  0  0  0  0
  190.6950  175.0840  142.7470 C   0  0  0  0  0  2  0  0  0  0  0  0
  190.1750  176.5190  142.6580 C   0  0  2  0  0  3  0  0  0  0  0  0
  190.8510  178.3930  143.9900 O   0  0  0  0  0  0  0  0  0  0  0  0
  189.9320  176.6060  145.1670 N   0  0  0  0  0  2  0  0  0  0  0  0
  190.3400  177.2430  143.9600 C   0  0  0  0  0  0  0  0  0  0  0  0
  190.0520  177.2510  146.4020 N   0  0  0  0  0  2  0  0  0  0  0  0
  188.9040  177.6020  147.1190 N   0  0  0  0  0  0  0  0  0  0  0  0
  187.7370  177.2530  146.6900 C   0  0  0  0  0  3  0  0  0  0  0  0
  186.5100  177.6300  147.4470 C   0  0  0  0  0  2  0  0  0  0  0  0
  184.2460  178.2310  146.6510 C   0  0  0  0  0  1  0  0  0  0  0  0
  185.7070  178.6470  146.6650 C   0  0  0  0  0  2  0  0  0  0  0  0
  188.7170  176.5750  142.1990 C   0  0  2  0  0  3  0  0  0  0  0  0
  188.4990  175.7390  141.0960 O   0  0  0  0  0  1  0  0  0  0  0  0
  188.2940  178.0000  141.8670 C   0  0  0  0  0  2  0  0  0  0  0  0
  186.9170  178.2590  142.4560 C   0  0  0  0  0  2  0  0  0  0  0  0
  184.3030  178.6940  143.2120 C   0  0  0  0  0  1  0  0  0  0  0  0
  185.8240  177.5280  141.6580 C   0  0  2  0  0  3  0  0  0  0  0  0
  185.4970  178.2230  140.3510 C   0  0  0  0  0  2  0  0  0  0  0  0
  184.0930  178.3330  140.9120 C   0  0  0  0  0  2  0  0  0  0  0  0
  184.4460  177.6790  142.1710 N   0  0  0  0  0  0  0  0  0  0  0  0
  1  3  1  6  0  0  0
  1 27  1  0  0  0  0
  1  9  1  0  0  0  0
  2  3  2  0  0  0  0
  4  2  2  0  0  0  0
  4  7  1  0  0  0  0
  5  4  1  0  0  0  0
  7  8  1  0  0  0  0
  7  6  2  0  0  0  0
 11 10  1  0  0  0  0
 12 10  1  0  0  0  0
 13 11  1  6  0  0  0
 14  9  1  6  0  0  0
 14 15  1  0  0  0  0
 14 13  1  0  0  0  0
 15 17  1  1  0  0  0
 15 13  1  0  0  0  0
 16 19  1  1  0  0  0
 16 15  1  0  0  0  0
 16 12  1  0  0  0  0
 17 14  1  0  0  0  0
 19 18  1  1  0  0  0
 20 19  1  0  0  0  0
 21 25  1  0  0  0  0
 22 23  1  0  0  0  0
 23 20  1  0  0  0  0
 24 22  1  0  0  0  0
 25 23  2  0  0  0  0
 26 21  1  0  0  0  0
 26 24  1  0  0  0  0
 28 27  1  1  0  0  0
 28 31  1  0  0  0  0
 30 32  1  0  0  0  0
 31 29  2  0  0  0  0
 31 30  1  0  0  0  0
 32 33  1  0  0  0  0
 34 33  2  0  0  0  0
 34 35  1  0  0  0  0
 36 37  1  0  0  0  0
 37 35  1  0  0  0  0
 38 39  1  6  0  0  0
 38 28  1  0  0  0  0
 40 38  1  0  0  0  0
 40 41  1  0  0  0  0
 43 46  1  0  0  0  0
 43 41  1  1  0  0  0
 44 45  1  0  0  0  0
 44 43  1  0  0  0  0
 45 46  1  0  0  0  0
 46 42  1  0  0  0  0
M  END
>  <MODEL>
5

>  <REMARK>
 VINA RESULT:      -6.1      2.354      6.979
  Name = 
  18 active torsions:
  status: ('A' for Active; 'I' for Inactive)
    1  A    between atoms: C_3  and  C_8
    2  A    between atoms: C_3  and  C_14
    3  A    between atoms: C_3  and  C_35
    4  A    between atoms: N_7  and  N_20
    5  A    between atoms: N_7  and  N_22
    6  A    between atoms: C_8  and  C_43
    7  A    between atoms: N_12  and  C_19
    8  A    between atoms: N_12  and  C_43
    9  A    between atoms: C_14  and  C_42
   10  A    between atoms: C_15  and  O_32
   11  A    between atoms: C_16  and  C_36
   12  A    between atoms: C_21  and  C_39
   13  A    between atoms: C_23  and  C_43
   14  A    between atoms: O_32  and  C_41
   15  A    between atoms: C_34  and  C_37
   16  A    between atoms: C_36  and  C_42
   17  A    between atoms: C_38  and  C_39
   18  A    between atoms: C_41  and  C_45
                            x       y       z     vdW  Elec       q    Type
                         _______ _______ _______ _____ _____    ______ ____

>  <TORSDO>
F 18

$$$$
=
 OpenBabel11062419453D

 46 50  0  0  1  0  0  0  0  0999 V2000
  191.1020  175.1780  142.7920 C   0  0  2  0  0  3  0  0  0  0  0  0
  190.2370  172.9720  142.1920 C   0  0  0  0  0  0  0  0  0  0  0  0
  190.1580  174.0230  142.9650 C   0  0  0  0  0  3  0  0  0  0  0  0
  190.3200  171.9140  141.4280 C   0  0  0  0  0  0  0  0  0  0  0  0
  190.2940  170.6220  142.0320 N   0  0  0  0  0  1  0  0  0  0  0  0
  189.4740  172.1320  139.1800 N   0  0  0  0  0  2  0  0  0  0  0  0
  190.4960  172.0340  139.9700 C   0  0  0  0  0  0  0  0  0  0  0  0
  191.7460  172.0160  139.4400 F   0  0  0  0  0  0  0  0  0  0  0  0
  192.1310  175.2360  143.8350 N   0  0  0  0  0  2  0  0  0  0  0  0
  193.6130  176.6850  147.0220 C   0  0  0  0  0  2  0  0  0  0  0  0
  192.2790  176.4530  146.3230 C   0  0  0  0  0  2  0  0  0  0  0  0
  194.7690  175.9350  146.3510 C   0  0  0  0  0  2  0  0  0  0  0  0
  191.9350  174.9590  146.3380 C   0  0  1  0  0  3  0  0  0  0  0  0
  191.8230  174.3290  144.9490 C   0  0  2  0  0  0  0  0  0  0  0  0
  193.0740  174.0700  145.8320 C   0  0  1  0  0  0  0  0  0  0  0  0
  194.3270  174.8460  145.3550 C   0  0  2  0  0  3  0  0  0  0  0  0
  192.6010  173.0400  144.8240 C   0  0  0  0  0  2  0  0  0  0  0  0
  196.4130  173.8590  146.0420 O   0  0  0  0  0  1  0  0  0  0  0  0
  195.4900  173.9230  144.9940 C   0  0  2  0  0  3  0  0  0  0  0  0
  196.1290  174.3960  143.8110 O   0  0  0  0  0  0  0  0  0  0  0  0
  193.9810  174.0320  140.7860 C   0  0  0  0  0  2  0  0  0  0  0  0
  195.4880  176.1400  142.1490 C   0  0  0  0  0  2  0  0  0  0  0  0
  195.4280  174.7150  142.6460 C   0  0  0  0  0  0  0  0  0  0  0  0
  194.4620  176.4320  141.0550 C   0  0  0  0  0  2  0  0  0  0  0  0
  194.7850  173.7880  141.9870 N   0  0  0  0  0  0  0  0  0  0  0  0
  194.4440  175.2890  140.0560 C   0  0  0  0  0  2  0  0  0  0  0  0
  190.3500  176.5020  142.6730 C   0  0  0  0  0  2  0  0  0  0  0  0
  189.0730  176.4870  143.5150 C   0  0  2  0  0  3  0  0  0  0  0  0
  187.0040  175.6450  142.6460 O   0  0  0  0  0  0  0  0  0  0  0  0
  187.6630  177.7250  141.8300 N   0  0  0  0  0  2  0  0  0  0  0  0
  187.8500  176.5790  142.6540 C   0  0  0  0  0  0  0  0  0  0  0  0
  186.5270  177.8590  141.0230 N   0  0  0  0  0  2  0  0  0  0  0  0
  185.3460  178.3750  141.5660 N   0  0  0  0  0  0  0  0  0  0  0  0
  184.2080  177.8370  141.2770 C   0  0  0  0  0  3  0  0  0  0  0  0
  182.9460  178.3880  141.8480 C   0  0  0  0  0  2  0  0  0  0  0  0
  180.5260  178.1990  141.3710 C   0  0  0  0  0  1  0  0  0  0  0  0
  181.8900  178.4940  140.7690 C   0  0  0  0  0  2  0  0  0  0  0  0
  189.0660  177.5950  144.5700 C   0  0  2  0  0  3  0  0  0  0  0  0
  190.3140  178.2270  144.6500 O   0  0  0  0  0  1  0  0  0  0  0  0
  188.6620  177.0580  145.9360 C   0  0  0  0  0  2  0  0  0  0  0  0
  187.4320  177.8090  146.4200 C   0  0  0  0  0  2  0  0  0  0  0  0
  184.9680  176.5760  146.4880 C   0  0  0  0  0  1  0  0  0  0  0  0
  186.4670  178.1050  145.2610 C   0  0  2  0  0  3  0  0  0  0  0  0
  185.7420  179.4250  145.4310 C   0  0  0  0  0  2  0  0  0  0  0  0
  184.4800  178.5870  145.4000 C   0  0  0  0  0  2  0  0  0  0  0  0
  185.2100  177.3280  145.2580 N   0  0  0  0  0  0  0  0  0  0  0  0
  1 27  1  1  0  0  0
  1  3  1  0  0  0  0
  1  9  1  0  0  0  0
  2  3  2  0  0  0  0
  4  5  1  0  0  0  0
  4  2  2  0  0  0  0
  6  7  2  0  0  0  0
  7  4  1  0  0  0  0
  8  7  1  0  0  0  0
 11 10  1  0  0  0  0
 12 10  1  0  0  0  0
 13 11  1  6  0  0  0
 14  9  1  6  0  0  0
 14 15  1  0  0  0  0
 14 13  1  0  0  0  0
 15 17  1  1  0  0  0
 15 13  1  0  0  0  0
 16 19  1  1  0  0  0
 16 15  1  0  0  0  0
 16 12  1  0  0  0  0
 17 14  1  0  0  0  0
 19 18  1  1  0  0  0
 20 19  1  0  0  0  0
 21 25  1  0  0  0  0
 22 23  1  0  0  0  0
 23 20  1  0  0  0  0
 24 22  1  0  0  0  0
 25 23  2  0  0  0  0
 26 21  1  0  0  0  0
 26 24  1  0  0  0  0
 28 27  1  6  0  0  0
 28 38  1  0  0  0  0
 29 31  2  0  0  0  0
 30 31  1  0  0  0  0
 31 28  1  0  0  0  0
 32 33  1  0  0  0  0
 32 30  1  0  0  0  0
 34 33  2  0  0  0  0
 34 35  1  0  0  0  0
 37 36  1  0  0  0  0
 37 35  1  0  0  0  0
 38 39  1  1  0  0  0
 38 40  1  0  0  0  0
 40 41  1  0  0  0  0
 43 44  1  0  0  0  0
 43 41  1  1  0  0  0
 45 44  1  0  0  0  0
 46 43  1  0  0  0  0
 46 45  1  0  0  0  0
 46 42  1  0  0  0  0
M  END
>  <MODEL>
6

>  <REMARK>
 VINA RESULT:      -6.0      2.566      7.076
  Name = 
  18 active torsions:
  status: ('A' for Active; 'I' for Inactive)
    1  A    between atoms: C_3  and  C_8
    2  A    between atoms: C_3  and  C_14
    3  A    between atoms: C_3  and  C_35
    4  A    between atoms: N_7  and  N_20
    5  A    between atoms: N_7  and  N_22
    6  A    between atoms: C_8  and  C_43
    7  A    between atoms: N_12  and  C_19
    8  A    between atoms: N_12  and  C_43
    9  A    between atoms: C_14  and  C_42
   10  A    between atoms: C_15  and  O_32
   11  A    between atoms: C_16  and  C_36
   12  A    between atoms: C_21  and  C_39
   13  A    between atoms: C_23  and  C_43
   14  A    between atoms: O_32  and  C_41
   15  A    between atoms: C_34  and  C_37
   16  A    between atoms: C_36  and  C_42
   17  A    between atoms: C_38  and  C_39
   18  A    between atoms: C_41  and  C_45
                            x       y       z     vdW  Elec       q    Type
                         _______ _______ _______ _____ _____    ______ ____

>  <TORSDO>
F 18

$$$$
=
 OpenBabel11062419453D

 46 50  0  0  1  0  0  0  0  0999 V2000
  192.7280  174.9880  142.3500 C   0  0  2  0  0  3  0  0  0  0  0  0
  191.3950  173.7740  140.7000 C   0  0  0  0  0  0  0  0  0  0  0  0
  192.5690  174.2090  141.0760 C   0  0  0  0  0  3  0  0  0  0  0  0
  190.2220  173.3460  140.3140 C   0  0  0  0  0  0  0  0  0  0  0  0
  189.8190  173.5590  138.9620 N   0  0  0  0  0  1  0  0  0  0  0  0
  189.6680  171.7010  141.9900 N   0  0  0  0  0  2  0  0  0  0  0  0
  189.2920  172.7030  141.2600 C   0  0  0  0  0  0  0  0  0  0  0  0
  188.0120  173.1500  141.3530 F   0  0  0  0  0  0  0  0  0  0  0  0
  194.0420  174.8030  142.9730 N   0  0  0  0  0  2  0  0  0  0  0  0
  197.8110  175.1160  142.5870 C   0  0  0  0  0  2  0  0  0  0  0  0
  196.5050  175.7390  142.1080 C   0  0  0  0  0  2  0  0  0  0  0  0
  197.6100  174.1610  143.7690 C   0  0  0  0  0  2  0  0  0  0  0  0
  195.8580  176.5360  143.2470 C   0  0  1  0  0  3  0  0  0  0  0  0
  194.4850  176.0160  143.6720 C   0  0  2  0  0  0  0  0  0  0  0  0
  195.7370  175.7410  144.5500 C   0  0  1  0  0  0  0  0  0  0  0  0
  196.2370  174.2780  144.4550 C   0  0  2  0  0  3  0  0  0  0  0  0
  194.3570  175.8530  145.1690 C   0  0  0  0  0  2  0  0  0  0  0  0
  197.4270  173.7980  146.4920 O   0  0  0  0  0  1  0  0  0  0  0  0
  196.2320  173.5650  145.8060 C   0  0  2  0  0  3  0  0  0  0  0  0
  196.0490  172.1650  145.6090 O   0  0  0  0  0  0  0  0  0  0  0  0
  194.4050  170.2040  142.8990 C   0  0  0  0  0  2  0  0  0  0  0  0
  193.6280  172.0610  145.0260 C   0  0  0  0  0  2  0  0  0  0  0  0
  195.0570  171.6380  144.7790 C   0  0  0  0  0  0  0  0  0  0  0  0
  192.6160  171.2080  144.2620 C   0  0  0  0  0  2  0  0  0  0  0  0
  195.3750  170.8460  143.7910 N   0  0  0  0  0  0  0  0  0  0  0  0
  193.1010  170.9950  142.8390 C   0  0  0  0  0  2  0  0  0  0  0  0
  191.5960  174.6920  143.3330 C   0  0  0  0  0  2  0  0  0  0  0  0
  190.8860  175.9780  143.7570 C   0  0  2  0  0  3  0  0  0  0  0  0
  189.9080  174.6300  145.4810 O   0  0  0  0  0  0  0  0  0  0  0  0
  189.6350  176.9290  145.7290 N   0  0  0  0  0  2  0  0  0  0  0  0
  190.1260  175.7870  145.0350 C   0  0  0  0  0  0  0  0  0  0  0  0
  188.9360  176.7980  146.9340 N   0  0  0  0  0  2  0  0  0  0  0  0
  187.5880  176.4250  146.9190 N   0  0  0  0  0  0  0  0  0  0  0  0
  186.7190  177.1510  146.2980 C   0  0  0  0  0  3  0  0  0  0  0  0
  185.2810  176.7620  146.2840 C   0  0  0  0  0  2  0  0  0  0  0  0
  185.2870  179.2200  146.5640 C   0  0  0  0  0  1  0  0  0  0  0  0
  184.4080  177.9840  146.4740 C   0  0  0  0  0  2  0  0  0  0  0  0
  189.9590  176.5110  142.6620 C   0  0  2  0  0  3  0  0  0  0  0  0
  189.9780  177.9110  142.6190 O   0  0  0  0  0  1  0  0  0  0  0  0
  188.5340  176.0110  142.8490 C   0  0  0  0  0  2  0  0  0  0  0  0
  187.5740  177.1800  142.6980 C   0  0  0  0  0  2  0  0  0  0  0  0
  185.2550  178.6630  142.8370 C   0  0  0  0  0  1  0  0  0  0  0  0
  186.4810  176.8730  141.6610 C   0  0  2  0  0  3  0  0  0  0  0  0
  186.7490  177.5320  140.3230 C   0  0  0  0  0  2  0  0  0  0  0  0
  185.4210  178.2270  140.5460 C   0  0  0  0  0  2  0  0  0  0  0  0
  185.2020  177.5910  141.8440 N   0  0  0  0  0  0  0  0  0  0  0  0
  1  3  1  6  0  0  0
  1  9  1  0  0  0  0
  1 27  1  0  0  0  0
  2  3  2  0  0  0  0
  4  2  2  0  0  0  0
  4  7  1  0  0  0  0
  5  4  1  0  0  0  0
  7  8  1  0  0  0  0
  7  6  2  0  0  0  0
 10 12  1  0  0  0  0
 11 10  1  0  0  0  0
 12 16  1  0  0  0  0
 13 11  1  6  0  0  0
 13 14  1  0  0  0  0
 13 15  1  0  0  0  0
 14  9  1  6  0  0  0
 14 15  1  0  0  0  0
 14 17  1  0  0  0  0
 15 17  1  1  0  0  0
 16 15  1  0  0  0  0
 16 19  1  1  0  0  0
 19 18  1  6  0  0  0
 20 19  1  0  0  0  0
 21 25  1  0  0  0  0
 23 22  1  0  0  0  0
 23 20  1  0  0  0  0
 24 22  1  0  0  0  0
 25 23  2  0  0  0  0
 26 21  1  0  0  0  0
 26 24  1  0  0  0  0
 28 27  1  6  0  0  0
 28 31  1  0  0  0  0
 30 32  1  0  0  0  0
 31 29  2  0  0  0  0
 31 30  1  0  0  0  0
 33 32  1  0  0  0  0
 34 33  2  0  0  0  0
 35 34  1  0  0  0  0
 35 37  1  0  0  0  0
 37 36  1  0  0  0  0
 38 39  1  1  0  0  0
 38 40  1  0  0  0  0
 38 28  1  0  0  0  0
 41 40  1  0  0  0  0
 43 46  1  0  0  0  0
 43 41  1  1  0  0  0
 44 45  1  0  0  0  0
 44 43  1  0  0  0  0
 45 46  1  0  0  0  0
 46 42  1  0  0  0  0
M  END
>  <MODEL>
7

>  <REMARK>
 VINA RESULT:      -5.9      2.427      6.916
  Name = 
  18 active torsions:
  status: ('A' for Active; 'I' for Inactive)
    1  A    between atoms: C_3  and  C_8
    2  A    between atoms: C_3  and  C_14
    3  A    between atoms: C_3  and  C_35
    4  A    between atoms: N_7  and  N_20
    5  A    between atoms: N_7  and  N_22
    6  A    between atoms: C_8  and  C_43
    7  A    between atoms: N_12  and  C_19
    8  A    between atoms: N_12  and  C_43
    9  A    between atoms: C_14  and  C_42
   10  A    between atoms: C_15  and  O_32
   11  A    between atoms: C_16  and  C_36
   12  A    between atoms: C_21  and  C_39
   13  A    between atoms: C_23  and  C_43
   14  A    between atoms: O_32  and  C_41
   15  A    between atoms: C_34  and  C_37
   16  A    between atoms: C_36  and  C_42
   17  A    between atoms: C_38  and  C_39
   18  A    between atoms: C_41  and  C_45
                            x       y       z     vdW  Elec       q    Type
                         _______ _______ _______ _____ _____    ______ ____

>  <TORSDO>
F 18

$$$$
=
 OpenBabel11062419453D

 46 50  0  0  1  0  0  0  0  0999 V2000
  193.0100  173.7060  143.3830 C   0  0  2  0  0  3  0  0  0  0  0  0
  194.7830  173.5870  141.7040 C   0  0  0  0  0  0  0  0  0  0  0  0
  194.2190  173.0670  142.7620 C   0  0  0  0  0  3  0  0  0  0  0  0
  195.3570  174.1110  140.6520 C   0  0  0  0  0  0  0  0  0  0  0  0
  196.7750  174.2660  140.6440 N   0  0  0  0  0  1  0  0  0  0  0  0
  195.1280  174.8840  138.3780 N   0  0  0  0  0  2  0  0  0  0  0  0
  194.5630  174.5930  139.5070 C   0  0  0  0  0  0  0  0  0  0  0  0
  193.2220  174.7620  139.6420 F   0  0  0  0  0  0  0  0  0  0  0  0
  191.8130  173.5990  142.5440 N   0  0  0  0  0  2  0  0  0  0  0  0
  190.8140  171.2710  139.7090 C   0  0  0  0  0  2  0  0  0  0  0  0
  191.6490  171.3130  140.9830 C   0  0  0  0  0  2  0  0  0  0  0  0
  189.8910  172.4880  139.5690 C   0  0  0  0  0  2  0  0  0  0  0  0
  190.7290  171.3420  142.2100 C   0  0  1  0  0  3  0  0  0  0  0  0
  190.8730  172.5990  143.0680 C   0  0  2  0  0  0  0  0  0  0  0  0
  189.6480  172.4240  142.1290 C   0  0  1  0  0  0  0  0  0  0  0  0
  189.7230  173.3100  140.8600 C   0  0  2  0  0  3  0  0  0  0  0  0
  189.5450  173.2340  143.4070 C   0  0  0  0  0  2  0  0  0  0  0  0
  188.1830  174.4610  139.4110 O   0  0  0  0  0  1  0  0  0  0  0  0
  188.5470  174.2790  140.7490 C   0  0  2  0  0  3  0  0  0  0  0  0
  188.9000  175.5310  141.3310 O   0  0  0  0  0  0  0  0  0  0  0  0
  186.9870  178.6570  142.0110 C   0  0  0  0  0  2  0  0  0  0  0  0
  186.9800  175.8630  142.8860 C   0  0  0  0  0  2  0  0  0  0  0  0
  187.9560  176.4090  141.8720 C   0  0  0  0  0  0  0  0  0  0  0  0
  185.8280  176.8240  143.1790 C   0  0  0  0  0  2  0  0  0  0  0  0
  187.9630  177.6720  141.5390 N   0  0  0  0  0  0  0  0  0  0  0  0
  186.3710  178.2330  143.3410 C   0  0  0  0  0  2  0  0  0  0  0  0
  193.2860  175.1540  143.7830 C   0  0  0  0  0  2  0  0  0  0  0  0
  194.1570  175.2210  145.0390 C   0  0  2  0  0  3  0  0  0  0  0  0
  194.1600  176.7950  146.8460 O   0  0  0  0  0  0  0  0  0  0  0  0
  192.0930  175.8460  146.3460 N   0  0  0  0  0  0  0  0  0  0  0  0
  193.4900  176.0100  146.1250 C   0  0  0  0  0  0  0  0  0  0  0  0
  191.4280  176.5750  147.3390 N   0  0  0  0  0  0  0  0  0  0  0  0
  190.0340  176.6810  147.3070 N   0  0  0  0  0  0  0  0  0  0  0  0
  189.3410  175.9220  146.5250 C   0  0  0  0  0  3  0  0  0  0  0  0
  187.8550  176.0360  146.4830 C   0  0  0  0  0  2  0  0  0  0  0  0
  185.9090  177.5010  146.9130 C   0  0  0  0  0  1  0  0  0  0  0  0
  187.4240  177.4030  146.9710 C   0  0  0  0  0  2  0  0  0  0  0  0
  195.5470  175.7890  144.7450 C   0  0  2  0  0  3  0  0  0  0  0  0
  195.5800  176.4320  143.5010 O   0  0  0  0  0  1  0  0  0  0  0  0
  196.6130  174.7040  144.8030 C   0  0  0  0  0  2  0  0  0  0  0  0
  196.1950  173.6510  145.8160 C   0  0  0  0  0  2  0  0  0  0  0  0
  194.9920  171.1720  145.7440 C   0  0  0  0  0  1  0  0  0  0  0  0
  197.1190  172.4230  145.7570 C   0  0  2  0  0  3  0  0  0  0  0  0
  197.6290  172.1480  144.3560 C   0  0  0  0  0  2  0  0  0  0  0  0
  196.9440  170.8050  144.5110 C   0  0  0  0  0  2  0  0  0  0  0  0
  196.4480  171.1100  145.8520 N   0  0  0  0  0  0  0  0  0  0  0  0
  1  3  1  6  0  0  0
  1 27  1  0  0  0  0
  2  3  2  0  0  0  0
  4  2  2  0  0  0  0
  5  4  1  0  0  0  0
  6  7  2  0  0  0  0
  7  8  1  0  0  0  0
  7  4  1  0  0  0  0
  9  1  1  0  0  0  0
 10 11  1  0  0  0  0
 12 10  1  0  0  0  0
 12 16  1  0  0  0  0
 13 11  1  6  0  0  0
 13 14  1  0  0  0  0
 14  9  1  6  0  0  0
 14 17  1  0  0  0  0
 15 13  1  0  0  0  0
 15 14  1  0  0  0  0
 15 17  1  1  0  0  0
 16 19  1  6  0  0  0
 16 15  1  0  0  0  0
 19 18  1  6  0  0  0
 19 20  1  0  0  0  0
 20 23  1  0  0  0  0
 21 26  1  0  0  0  0
 22 24  1  0  0  0  0
 23 22  1  0  0  0  0
 24 26  1  0  0  0  0
 25 23  2  0  0  0  0
 25 21  1  0  0  0  0
 28 27  1  6  0  0  0
 28 31  1  0  0  0  0
 30 32  2  0  0  0  0
 31 30  1  0  0  0  0
 31 29  2  0  0  0  0
 33 32  1  0  0  0  0
 34 33  2  0  0  0  0
 35 34  1  0  0  0  0
 35 37  1  0  0  0  0
 36 37  1  0  0  0  0
 38 39  1  6  0  0  0
 38 40  1  0  0  0  0
 38 28  1  0  0  0  0
 40 41  1  0  0  0  0
 42 46  1  0  0  0  0
 43 41  1  6  0  0  0
 43 46  1  0  0  0  0
 44 45  1  0  0  0  0
 44 43  1  0  0  0  0
 45 46  1  0  0  0  0
M  END
>  <MODEL>
8

>  <REMARK>
 VINA RESULT:      -5.9      2.119      3.422
  Name = 
  18 active torsions:
  status: ('A' for Active; 'I' for Inactive)
    1  A    between atoms: C_3  and  C_8
    2  A    between atoms: C_3  and  C_14
    3  A    between atoms: C_3  and  C_35
    4  A    between atoms: N_7  and  N_20
    5  A    between atoms: N_7  and  N_22
    6  A    between atoms: C_8  and  C_43
    7  A    between atoms: N_12  and  C_19
    8  A    between atoms: N_12  and  C_43
    9  A    between atoms: C_14  and  C_42
   10  A    between atoms: C_15  and  O_32
   11  A    between atoms: C_16  and  C_36
   12  A    between atoms: C_21  and  C_39
   13  A    between atoms: C_23  and  C_43
   14  A    between atoms: O_32  and  C_41
   15  A    between atoms: C_34  and  C_37
   16  A    between atoms: C_36  and  C_42
   17  A    between atoms: C_38  and  C_39
   18  A    between atoms: C_41  and  C_45
                            x       y       z     vdW  Elec       q    Type
                         _______ _______ _______ _____ _____    ______ ____

>  <TORSDO>
F 18

$$$$
=
 OpenBabel11062419453D

 46 50  0  0  1  0  0  0  0  0999 V2000
  190.7920  174.5000  143.5560 C   0  0  2  0  0  3  0  0  0  0  0  0
  189.4580  175.2080  145.4780 C   0  0  0  0  0  0  0  0  0  0  0  0
  190.0100  174.2300  144.8090 C   0  0  0  0  0  3  0  0  0  0  0  0
  188.8950  176.1820  146.1430 C   0  0  0  0  0  0  0  0  0  0  0  0
  187.5370  176.0410  146.5590 N   0  0  0  0  0  1  0  0  0  0  0  0
  189.6300  177.9530  147.6080 N   0  0  0  0  0  2  0  0  0  0  0  0
  189.6150  177.4380  146.4190 C   0  0  0  0  0  0  0  0  0  0  0  0
  190.2540  178.0830  145.4090 F   0  0  0  0  0  0  0  0  0  0  0  0
  192.1500  174.9840  143.8230 N   0  0  0  0  0  2  0  0  0  0  0  0
  194.1270  176.6470  146.6110 C   0  0  0  0  0  2  0  0  0  0  0  0
  192.9500  175.7070  146.3770 C   0  0  0  0  0  2  0  0  0  0  0  0
  194.9510  176.8870  145.3410 C   0  0  0  0  0  2  0  0  0  0  0  0
  193.4570  174.3460  145.8870 C   0  0  1  0  0  3  0  0  0  0  0  0
  192.9660  173.9610  144.4910 C   0  0  2  0  0  0  0  0  0  0  0  0
  194.4250  174.4500  144.7050 C   0  0  1  0  0  0  0  0  0  0  0  0
  194.6630  175.8950  144.1990 C   0  0  2  0  0  3  0  0  0  0  0  0
  194.0790  173.4850  143.5880 C   0  0  0  0  0  2  0  0  0  0  0  0
  196.7610  176.8450  143.4980 O   0  0  0  0  0  1  0  0  0  0  0  0
  195.7390  175.9700  143.1170 C   0  0  2  0  0  3  0  0  0  0  0  0
  195.1570  176.4070  141.8910 O   0  0  0  0  0  0  0  0  0  0  0  0
  196.5540  174.8410  138.8100 C   0  0  0  0  0  2  0  0  0  0  0  0
  193.9890  174.9780  140.2160 C   0  0  0  0  0  2  0  0  0  0  0  0
  195.2390  175.6680  140.7080 C   0  0  0  0  0  0  0  0  0  0  0  0
  194.2660  173.9760  139.0950 C   0  0  0  0  0  2  0  0  0  0  0  0
  196.3550  175.6270  140.0310 N   0  0  0  0  0  0  0  0  0  0  0  0
  195.2310  174.5860  138.0940 C   0  0  0  0  0  2  0  0  0  0  0  0
  190.0370  175.4390  142.6170 C   0  0  0  0  0  2  0  0  0  0  0  0
  188.5990  174.9650  142.4050 C   0  0  2  0  0  3  0  0  0  0  0  0
  187.7890  172.7950  141.7900 O   0  0  0  0  0  0  0  0  0  0  0  0
  189.3730  173.7190  140.3530 N   0  0  0  0  0  2  0  0  0  0  0  0
  188.5450  173.7630  141.5110 C   0  0  0  0  0  0  0  0  0  0  0  0
  189.3420  172.6230  139.4830 N   0  0  0  0  0  2  0  0  0  0  0  0
  190.4650  171.8000  139.3610 N   0  0  0  0  0  0  0  0  0  0  0  0
  190.7420  170.9360  140.2810 C   0  0  0  0  0  3  0  0  0  0  0  0
  191.9410  170.0600  140.1580 C   0  0  0  0  0  2  0  0  0  0  0  0
  192.4860  170.4930  142.5320 C   0  0  0  0  0  1  0  0  0  0  0  0
  193.0230  170.5220  141.1110 C   0  0  0  0  0  2  0  0  0  0  0  0
  187.7020  176.0770  141.8560 C   0  0  2  0  0  3  0  0  0  0  0  0
  187.5370  175.9590  140.4700 O   0  0  0  0  0  1  0  0  0  0  0  0
  188.2510  177.4540  142.2020 C   0  0  0  0  0  2  0  0  0  0  0  0
  187.0920  178.3850  142.5200 C   0  0  0  0  0  2  0  0  0  0  0  0
  185.8780  179.0420  144.9060 C   0  0  0  0  0  1  0  0  0  0  0  0
  185.8320  177.5930  142.9090 C   0  0  2  0  0  3  0  0  0  0  0  0
  184.5880  178.1010  142.2070 C   0  0  0  0  0  2  0  0  0  0  0  0
  184.0610  178.3540  143.6050 C   0  0  0  0  0  2  0  0  0  0  0  0
  185.2830  177.8790  144.2520 N   0  0  0  0  0  0  0  0  0  0  0  0
  1 27  1  6  0  0  0
  1  9  1  0  0  0  0
  1  3  1  0  0  0  0
  2  4  2  0  0  0  0
  3  2  2  0  0  0  0
  4  7  1  0  0  0  0
  4  5  1  0  0  0  0
  7  6  2  0  0  0  0
  8  7  1  0  0  0  0
 11 10  1  0  0  0  0
 12 10  1  0  0  0  0
 13 11  1  6  0  0  0
 14  9  1  6  0  0  0
 14 15  1  0  0  0  0
 14 13  1  0  0  0  0
 15 17  1  6  0  0  0
 15 13  1  0  0  0  0
 16 19  1  6  0  0  0
 16 15  1  0  0  0  0
 16 12  1  0  0  0  0
 17 14  1  0  0  0  0
 19 18  1  1  0  0  0
 20 19  1  0  0  0  0
 21 25  1  0  0  0  0
 22 23  1  0  0  0  0
 23 20  1  0  0  0  0
 24 22  1  0  0  0  0
 25 23  2  0  0  0  0
 26 21  1  0  0  0  0
 26 24  1  0  0  0  0
 28 27  1  6  0  0  0
 30 31  1  0  0  0  0
 31 29  2  0  0  0  0
 31 28  1  0  0  0  0
 32 30  1  0  0  0  0
 33 32  1  0  0  0  0
 33 34  2  0  0  0  0
 35 34  1  0  0  0  0
 35 37  1  0  0  0  0
 37 36  1  0  0  0  0
 38 39  1  6  0  0  0
 38 40  1  0  0  0  0
 38 28  1  0  0  0  0
 40 41  1  0  0  0  0
 43 41  1  6  0  0  0
 43 46  1  0  0  0  0
 44 43  1  0  0  0  0
 44 45  1  0  0  0  0
 45 46  1  0  0  0  0
 46 42  1  0  0  0  0
M  END
>  <MODEL>
9

>  <REMARK>
 VINA RESULT:      -5.8      2.961      8.441
  Name = 
  18 active torsions:
  status: ('A' for Active; 'I' for Inactive)
    1  A    between atoms: C_3  and  C_8
    2  A    between atoms: C_3  and  C_14
    3  A    between atoms: C_3  and  C_35
    4  A    between atoms: N_7  and  N_20
    5  A    between atoms: N_7  and  N_22
    6  A    between atoms: C_8  and  C_43
    7  A    between atoms: N_12  and  C_19
    8  A    between atoms: N_12  and  C_43
    9  A    between atoms: C_14  and  C_42
   10  A    between atoms: C_15  and  O_32
   11  A    between atoms: C_16  and  C_36
   12  A    between atoms: C_21  and  C_39
   13  A    between atoms: C_23  and  C_43
   14  A    between atoms: O_32  and  C_41
   15  A    between atoms: C_34  and  C_37
   16  A    between atoms: C_36  and  C_42
   17  A    between atoms: C_38  and  C_39
   18  A    between atoms: C_41  and  C_45
                            x       y       z     vdW  Elec       q    Type
                         _______ _______ _______ _____ _____    ______ ____

>  <TORSDO>
F 18

$$$$
