=
 OpenBabel11062419443D

 30 32  0  0  1  0  0  0  0  0999 V2000
  187.0180  177.3410  143.1850 C   0  0  1  0  0  3  0  0  0  0  0  0
  188.5040  175.4800  142.4250 C   0  0  2  0  0  3  0  0  0  0  0  0
  189.5390  174.7080  144.3180 C   0  0  2  0  0  3  0  0  0  0  0  0
  187.5880  176.4720  144.3210 C   0  0  0  0  0  2  0  0  0  0  0  0
  189.7740  174.8110  141.9850 C   0  0  0  0  0  2  0  0  0  0  0  0
  190.2770  174.1110  143.1840 N   0  0  0  0  0  0  0  0  0  0  0  0
  187.9160  176.9620  141.6100 S   0  0  0  0  0  0  0  0  0  0  0  0
  188.8740  175.9420  143.7580 C   0  0  2  0  0  3  0  0  0  0  0  0
  191.5310  176.3700  147.7710 C   0  0  0  0  0  0  0  0  0  0  0  0
  191.2020  176.3670  145.3240 C   0  0  0  0  0  2  0  0  0  0  0  0
  191.5470  177.3040  148.6790 C   0  0  0  0  0  0  0  0  0  0  0  0
  189.7590  174.9360  146.8220 C   0  0  0  0  0  2  0  0  0  0  0  0
  191.5640  178.1910  149.5430 O   0  0  0  0  0  0  0  0  0  0  0  0
  190.7400  175.1200  147.9790 C   0  0  0  0  0  2  0  0  0  0  0  0
  192.2070  176.5790  146.4550 C   0  0  0  0  0  2  0  0  0  0  0  0
  190.4910  175.0140  145.4800 C   0  0  0  0  0  3  0  0  0  0  0  0
  189.9080  172.6920  143.0890 C   0  0  1  0  0  3  0  0  0  0  0  0
  189.9730  172.2620  141.7600 O   0  0  0  0  0  1  0  0  0  0  0  0
  191.4870  170.9000  143.1030 O   0  0  0  0  0  1  0  0  0  0  0  0
  190.8550  171.8360  143.9210 C   0  0  0  0  0  2  0  0  0  0  0  0
  185.5320  177.0500  143.0400 C   0  0  0  0  0  2  0  0  0  0  0  0
  184.7680  178.2800  142.6700 C   0  0  0  0  0  0  0  0  0  0  0  0
  184.2050  178.3440  141.5470 O   0  0  0  0  0  0  0  0  0  0  0  0
  184.6600  179.3800  143.5770 N   0  0  0  0  0  2  0  0  0  0  0  0
  185.2360  179.3560  144.8550 N   0  0  0  0  0  2  0  0  0  0  0  0
  184.2290  178.8710  145.7840 C   0  0  0  0  0  2  0  0  0  0  0  0
  185.7340  177.6980  147.4260 C   0  0  0  0  0  0  0  0  0  0  0  0
  186.3060  178.9340  147.8410 N   0  0  0  0  0  1  0  0  0  0  0  0
  186.1400  176.6210  147.9360 O   0  0  0  0  0  0  0  0  0  0  0  0
  184.7110  177.6640  146.4320 N   0  0  0  0  0  2  0  0  0  0  0  0
  1 21  1  6  0  0  0
  1  4  1  0  0  0  0
  2  5  1  6  0  0  0
  2  8  1  0  0  0  0
  3 16  1  1  0  0  0
  5  6  1  0  0  0  0
  6  3  1  0  0  0  0
  7  2  1  0  0  0  0
  7  1  1  0  0  0  0
  8  3  1  0  0  0  0
  8  4  1  1  0  0  0
  9 14  1  0  0  0  0
  9 11  2  0  0  0  0
 10 16  1  0  0  0  0
 10 15  1  0  0  0  0
 11 13  2  0  0  0  0
 12 14  1  0  0  0  0
 15  9  1  0  0  0  0
 16 12  1  0  0  0  0
 17 18  1  6  0  0  0
 17  6  1  0  0  0  0
 17 20  1  0  0  0  0
 19 20  1  0  0  0  0
 22 21  1  0  0  0  0
 22 24  1  0  0  0  0
 23 22  2  0  0  0  0
 24 25  1  0  0  0  0
 25 26  1  0  0  0  0
 26 30  1  0  0  0  0
 27 28  1  0  0  0  0
 27 29  2  0  0  0  0
 30 27  1  0  0  0  0
M  END
>  <MODEL>
1

>  <REMARK>
 VINA RESULT:      -6.9      0.000      0.000
  Name = 
  8 active torsions:
  status: ('A' for Active; 'I' for Inactive)
    1  A    between atoms: C_4  and  C_25
    2  A    between atoms: N_5  and  C_7
    3  A    between atoms: N_5  and  N_26
    4  A    between atoms: C_6  and  C_21
    5  A    between atoms: C_7  and  N_29
    6  A    between atoms: C_10  and  C_24
    7  A    between atoms: C_13  and  C_21
    8  A    between atoms: N_22  and  C_25
                            x       y       z     vdW  Elec       q    Type
                         _______ _______ _______ _____ _____    ______ ____

>  <TORSDO>
F 8

$$$$
=
 OpenBabel11062419443D

 30 32  0  0  1  0  0  0  0  0999 V2000
  188.4440  177.2340  146.4990 C   0  0  1  0  0  3  0  0  0  0  0  0
  188.9500  175.5890  144.6840 C   0  0  2  0  0  3  0  0  0  0  0  0
  190.7610  174.3960  145.4250 C   0  0  2  0  0  3  0  0  0  0  0  0
  189.4330  176.1240  146.8980 C   0  0  0  0  0  2  0  0  0  0  0  0
  189.6310  175.0310  143.4690 C   0  0  0  0  0  2  0  0  0  0  0  0
  190.6250  174.0720  143.9880 N   0  0  0  0  0  0  0  0  0  0  0  0
  188.2170  177.2220  144.6600 S   0  0  0  0  0  0  0  0  0  0  0  0
  190.0760  175.7300  145.6010 C   0  0  2  0  0  3  0  0  0  0  0  0
  195.0660  174.7150  145.5480 C   0  0  0  0  0  0  0  0  0  0  0  0
  193.0640  173.3270  145.1430 C   0  0  0  0  0  2  0  0  0  0  0  0
  196.1650  174.9300  144.8820 C   0  0  0  0  0  0  0  0  0  0  0  0
  192.8500  175.8020  145.5910 C   0  0  0  0  0  2  0  0  0  0  0  0
  197.2110  175.1350  144.2520 O   0  0  0  0  0  0  0  0  0  0  0  0
  194.2840  175.8530  146.1160 C   0  0  0  0  0  2  0  0  0  0  0  0
  194.5030  173.3350  145.6560 C   0  0  0  0  0  2  0  0  0  0  0  0
  192.2380  174.4210  145.8350 C   0  0  0  0  0  3  0  0  0  0  0  0
  190.0740  172.7150  143.8720 C   0  0  1  0  0  3  0  0  0  0  0  0
  189.4930  172.3220  145.0820 O   0  0  0  0  0  1  0  0  0  0  0  0
  189.5030  171.9800  141.6720 O   0  0  0  0  0  1  0  0  0  0  0  0
  189.0090  172.6620  142.7840 C   0  0  0  0  0  2  0  0  0  0  0  0
  187.1200  176.9930  147.2060 C   0  0  0  0  0  2  0  0  0  0  0  0
  186.5310  178.2690  147.7130 C   0  0  0  0  0  0  0  0  0  0  0  0
  187.2230  179.0220  148.4450 O   0  0  0  0  0  0  0  0  0  0  0  0
  185.1970  178.6520  147.3690 N   0  0  0  0  0  2  0  0  0  0  0  0
  184.3860  177.8730  146.5310 N   0  0  0  0  0  2  0  0  0  0  0  0
  183.7910  178.7600  145.5450 C   0  0  0  0  0  2  0  0  0  0  0  0
  185.1560  179.0830  143.4540 C   0  0  0  0  0  0  0  0  0  0  0  0
  185.7710  180.2490  143.9910 N   0  0  0  0  0  1  0  0  0  0  0  0
  185.4540  178.7010  142.2930 O   0  0  0  0  0  0  0  0  0  0  0  0
  184.1990  178.3460  144.2140 N   0  0  0  0  0  2  0  0  0  0  0  0
  1  4  1  0  0  0  0
  1 21  1  1  0  0  0
  2  5  1  6  0  0  0
  2  8  1  0  0  0  0
  3  8  1  0  0  0  0
  3 16  1  6  0  0  0
  5  6  1  0  0  0  0
  6  3  1  0  0  0  0
  7  2  1  0  0  0  0
  7  1  1  0  0  0  0
  8  4  1  1  0  0  0
  9 15  1  0  0  0  0
  9 14  1  0  0  0  0
 10 15  1  0  0  0  0
 10 16  1  0  0  0  0
 11  9  2  0  0  0  0
 12 16  1  0  0  0  0
 12 14  1  0  0  0  0
 13 11  2  0  0  0  0
 17  6  1  0  0  0  0
 17 18  1  1  0  0  0
 19 20  1  0  0  0  0
 20 17  1  0  0  0  0
 21 22  1  0  0  0  0
 22 23  2  0  0  0  0
 24 22  1  0  0  0  0
 25 24  1  0  0  0  0
 26 25  1  0  0  0  0
 27 28  1  0  0  0  0
 27 30  1  0  0  0  0
 29 27  2  0  0  0  0
 30 26  1  0  0  0  0
M  END
>  <MODEL>
2

>  <REMARK>
 VINA RESULT:      -6.9      2.402      3.954
  Name = 
  8 active torsions:
  status: ('A' for Active; 'I' for Inactive)
    1  A    between atoms: C_4  and  C_25
    2  A    between atoms: N_5  and  C_7
    3  A    between atoms: N_5  and  N_26
    4  A    between atoms: C_6  and  C_21
    5  A    between atoms: C_7  and  N_29
    6  A    between atoms: C_10  and  C_24
    7  A    between atoms: C_13  and  C_21
    8  A    between atoms: N_22  and  C_25
                            x       y       z     vdW  Elec       q    Type
                         _______ _______ _______ _____ _____    ______ ____

>  <TORSDO>
F 8

$$$$
=
 OpenBabel11062419443D

 30 32  0  0  1  0  0  0  0  0999 V2000
  186.7920  178.2560  142.5300 C   0  0  1  0  0  3  0  0  0  0  0  0
  187.6090  175.9830  141.8810 C   0  0  2  0  0  3  0  0  0  0  0  0
  189.4350  175.5860  143.2070 C   0  0  2  0  0  3  0  0  0  0  0  0
  187.8290  177.6480  143.4920 C   0  0  0  0  0  2  0  0  0  0  0  0
  188.4490  174.9620  141.1700 C   0  0  0  0  0  2  0  0  0  0  0  0
  189.4670  174.5460  142.1550 N   0  0  0  0  0  0  0  0  0  0  0  0
  186.7450  177.2590  140.9690 S   0  0  0  0  0  0  0  0  0  0  0  0
  188.6260  176.7190  142.6250 C   0  0  2  0  0  3  0  0  0  0  0  0
  193.6490  175.7190  144.1460 C   0  0  0  0  0  0  0  0  0  0  0  0
  191.3280  175.3560  144.9080 C   0  0  0  0  0  2  0  0  0  0  0  0
  194.7590  175.0520  144.2830 C   0  0  0  0  0  0  0  0  0  0  0  0
  191.8430  175.7090  142.4620 C   0  0  0  0  0  2  0  0  0  0  0  0
  195.8160  174.4200  144.4150 O   0  0  0  0  0  0  0  0  0  0  0  0
  193.2330  176.2400  142.8090 C   0  0  0  0  0  2  0  0  0  0  0  0
  192.7100  175.8770  145.2980 C   0  0  0  0  0  2  0  0  0  0  0  0
  190.8580  176.0020  143.5960 C   0  0  0  0  0  3  0  0  0  0  0  0
  189.0470  173.2710  142.7540 C   0  0  1  0  0  3  0  0  0  0  0  0
  188.1020  172.6400  141.9380 O   0  0  0  0  0  1  0  0  0  0  0  0
  189.9820  171.1230  142.2910 O   0  0  0  0  0  1  0  0  0  0  0  0
  190.2410  172.3400  142.9220 C   0  0  0  0  0  2  0  0  0  0  0  0
  185.4310  178.2570  143.2090 C   0  0  0  0  0  2  0  0  0  0  0  0
  185.3910  179.2220  144.3490 C   0  0  0  0  0  0  0  0  0  0  0  0
  185.4720  180.4560  144.1190 O   0  0  0  0  0  0  0  0  0  0  0  0
  185.2520  178.7640  145.6960 N   0  0  0  0  0  2  0  0  0  0  0  0
  185.1240  177.4040  146.0150 N   0  0  0  0  0  2  0  0  0  0  0  0
  185.8960  177.1600  147.2230 C   0  0  0  0  0  2  0  0  0  0  0  0
  188.3900  176.9940  146.9250 C   0  0  0  0  0  0  0  0  0  0  0  0
  188.3240  175.5730  146.8570 N   0  0  0  0  0  1  0  0  0  0  0  0
  189.5060  177.5690  146.8450 O   0  0  0  0  0  0  0  0  0  0  0  0
  187.2060  177.7720  147.0900 N   0  0  0  0  0  2  0  0  0  0  0  0
  1 21  1  1  0  0  0
  1  4  1  0  0  0  0
  2  5  1  6  0  0  0
  2  8  1  0  0  0  0
  3 16  1  6  0  0  0
  5  6  1  0  0  0  0
  6 17  1  0  0  0  0
  6  3  1  0  0  0  0
  7  2  1  0  0  0  0
  7  1  1  0  0  0  0
  8  3  1  0  0  0  0
  8  4  1  1  0  0  0
  9 11  2  0  0  0  0
  9 15  1  0  0  0  0
 10 15  1  0  0  0  0
 11 13  2  0  0  0  0
 12 14  1  0  0  0  0
 12 16  1  0  0  0  0
 14  9  1  0  0  0  0
 16 10  1  0  0  0  0
 17 18  1  6  0  0  0
 17 20  1  0  0  0  0
 19 20  1  0  0  0  0
 21 22  1  0  0  0  0
 22 24  1  0  0  0  0
 23 22  2  0  0  0  0
 24 25  1  0  0  0  0
 25 26  1  0  0  0  0
 27 30  1  0  0  0  0
 28 27  1  0  0  0  0
 29 27  2  0  0  0  0
 30 26  1  0  0  0  0
M  END
>  <MODEL>
3

>  <REMARK>
 VINA RESULT:      -6.9      2.240      3.069
  Name = 
  8 active torsions:
  status: ('A' for Active; 'I' for Inactive)
    1  A    between atoms: C_4  and  C_25
    2  A    between atoms: N_5  and  C_7
    3  A    between atoms: N_5  and  N_26
    4  A    between atoms: C_6  and  C_21
    5  A    between atoms: C_7  and  N_29
    6  A    between atoms: C_10  and  C_24
    7  A    between atoms: C_13  and  C_21
    8  A    between atoms: N_22  and  C_25
                            x       y       z     vdW  Elec       q    Type
                         _______ _______ _______ _____ _____    ______ ____

>  <TORSDO>
F 8

$$$$
=
 OpenBabel11062419443D

 30 32  0  0  1  0  0  0  0  0999 V2000
  188.8700  177.0430  142.2930 C   0  0  1  0  0  3  0  0  0  0  0  0
  189.0350  175.7730  144.4410 C   0  0  2  0  0  3  0  0  0  0  0  0
  191.2060  176.0140  145.1310 C   0  0  2  0  0  3  0  0  0  0  0  0
  190.1550  177.3090  143.0980 C   0  0  0  0  0  2  0  0  0  0  0  0
  189.3340  174.6150  145.3470 C   0  0  0  0  0  2  0  0  0  0  0  0
  190.6350  174.9360  145.9680 N   0  0  0  0  0  0  0  0  0  0  0  0
  188.0010  175.5650  142.9930 S   0  0  0  0  0  0  0  0  0  0  0  0
  190.3550  176.0470  143.8850 C   0  0  2  0  0  3  0  0  0  0  0  0
  195.3330  174.7460  145.2560 C   0  0  0  0  0  0  0  0  0  0  0  0
  193.6240  176.4290  145.8440 C   0  0  0  0  0  2  0  0  0  0  0  0
  196.2690  174.1370  145.9270 C   0  0  0  0  0  0  0  0  0  0  0  0
  192.9650  174.2380  144.7760 C   0  0  0  0  0  2  0  0  0  0  0  0
  197.1600  173.5580  146.5630 O   0  0  0  0  0  0  0  0  0  0  0  0
  194.4130  173.9790  144.3640 C   0  0  0  0  0  2  0  0  0  0  0  0
  195.0840  176.2060  145.4550 C   0  0  0  0  0  2  0  0  0  0  0  0
  192.6860  175.7420  144.8400 C   0  0  0  0  0  3  0  0  0  0  0  0
  190.3930  175.4750  147.3130 C   0  0  1  0  0  3  0  0  0  0  0  0
  191.3850  175.0370  148.1960 O   0  0  0  0  0  1  0  0  0  0  0  0
  191.0900  177.4830  148.4030 O   0  0  0  0  0  1  0  0  0  0  0  0
  190.4040  176.9980  147.2890 C   0  0  0  0  0  2  0  0  0  0  0  0
  187.9800  178.2750  142.3650 C   0  0  0  0  0  2  0  0  0  0  0  0
  186.7440  178.1030  141.5440 C   0  0  0  0  0  0  0  0  0  0  0  0
  186.8190  177.5410  140.4210 O   0  0  0  0  0  0  0  0  0  0  0  0
  185.4750  178.5580  142.0210 N   0  0  0  0  0  2  0  0  0  0  0  0
  185.3190  179.1620  143.2770 N   0  0  0  0  0  2  0  0  0  0  0  0
  184.1020  178.6350  143.8710 C   0  0  0  0  0  2  0  0  0  0  0  0
  184.6160  178.1150  146.2800 C   0  0  0  0  0  0  0  0  0  0  0  0
  185.2470  176.8900  145.9190 N   0  0  0  0  0  1  0  0  0  0  0  0
  184.5340  178.4390  147.4930 O   0  0  0  0  0  0  0  0  0  0  0  0
  184.0680  178.9750  145.2830 N   0  0  0  0  0  2  0  0  0  0  0  0
  1 21  1  1  0  0  0
  1  7  1  0  0  0  0
  1  4  1  0  0  0  0
  2  5  1  6  0  0  0
  3 16  1  6  0  0  0
  3  6  1  0  0  0  0
  5  6  1  0  0  0  0
  6 17  1  0  0  0  0
  7  2  1  0  0  0  0
  8  4  1  1  0  0  0
  8  2  1  0  0  0  0
  8  3  1  0  0  0  0
  9 15  1  0  0  0  0
  9 11  2  0  0  0  0
 11 13  2  0  0  0  0
 12 16  1  0  0  0  0
 14 12  1  0  0  0  0
 14  9  1  0  0  0  0
 15 10  1  0  0  0  0
 16 10  1  0  0  0  0
 17 18  1  1  0  0  0
 20 17  1  0  0  0  0
 20 19  1  0  0  0  0
 22 24  1  0  0  0  0
 22 21  1  0  0  0  0
 23 22  2  0  0  0  0
 24 25  1  0  0  0  0
 25 26  1  0  0  0  0
 26 30  1  0  0  0  0
 27 29  2  0  0  0  0
 28 27  1  0  0  0  0
 30 27  1  0  0  0  0
M  END
>  <MODEL>
4

>  <REMARK>
 VINA RESULT:      -6.8      2.560      3.991
  Name = 
  8 active torsions:
  status: ('A' for Active; 'I' for Inactive)
    1  A    between atoms: C_4  and  C_25
    2  A    between atoms: N_5  and  C_7
    3  A    between atoms: N_5  and  N_26
    4  A    between atoms: C_6  and  C_21
    5  A    between atoms: C_7  and  N_29
    6  A    between atoms: C_10  and  C_24
    7  A    between atoms: C_13  and  C_21
    8  A    between atoms: N_22  and  C_25
                            x       y       z     vdW  Elec       q    Type
                         _______ _______ _______ _____ _____    ______ ____

>  <TORSDO>
F 8

$$$$
=
 OpenBabel11062419443D

 30 32  0  0  1  0  0  0  0  0999 V2000
  186.9700  177.3460  146.3850 C   0  0  1  0  0  3  0  0  0  0  0  0
  189.3400  177.2520  145.5890 C   0  0  2  0  0  3  0  0  0  0  0  0
  189.3120  175.8980  143.7410 C   0  0  2  0  0  3  0  0  0  0  0  0
  187.1520  176.7390  144.9820 C   0  0  0  0  0  2  0  0  0  0  0  0
  190.7280  176.7040  145.4310 C   0  0  0  0  0  2  0  0  0  0  0  0
  190.7380  176.0540  144.1050 N   0  0  0  0  0  0  0  0  0  0  0  0
  188.6220  177.4820  147.2140 S   0  0  0  0  0  0  0  0  0  0  0  0
  188.5420  176.1760  145.0090 C   0  0  2  0  0  3  0  0  0  0  0  0
  189.6450  171.9250  142.0810 C   0  0  0  0  0  0  0  0  0  0  0  0
  189.4810  174.3600  141.7080 C   0  0  0  0  0  2  0  0  0  0  0  0
  190.4340  170.9930  141.6270 C   0  0  0  0  0  0  0  0  0  0  0  0
  189.7180  173.4250  144.0400 C   0  0  0  0  0  2  0  0  0  0  0  0
  191.1820  170.1050  141.1950 O   0  0  0  0  0  0  0  0  0  0  0  0
  189.3500  172.0290  143.5420 C   0  0  0  0  0  2  0  0  0  0  0  0
  189.1120  172.9800  141.1660 C   0  0  0  0  0  2  0  0  0  0  0  0
  189.0510  174.4970  143.1760 C   0  0  0  0  0  3  0  0  0  0  0  0
  191.3640  176.9660  143.1390 C   0  0  1  0  0  3  0  0  0  0  0  0
  191.5700  178.2220  143.7210 O   0  0  0  0  0  1  0  0  0  0  0  0
  192.8200  175.0760  143.0390 O   0  0  0  0  0  1  0  0  0  0  0  0
  192.7090  176.4190  142.6800 C   0  0  0  0  0  2  0  0  0  0  0  0
  186.3230  178.7160  146.2490 C   0  0  0  0  0  2  0  0  0  0  0  0
  184.8350  178.6290  146.3580 C   0  0  0  0  0  0  0  0  0  0  0  0
  184.3130  178.2930  147.4510 O   0  0  0  0  0  0  0  0  0  0  0  0
  183.9960  178.9330  145.2400 N   0  0  0  0  0  2  0  0  0  0  0  0
  184.5150  179.3460  144.0040 N   0  0  0  0  0  2  0  0  0  0  0  0
  184.2490  178.2910  143.0410 C   0  0  0  0  0  2  0  0  0  0  0  0
  185.2130  178.0430  140.7290 C   0  0  0  0  0  0  0  0  0  0  0  0
  183.9150  178.0740  140.1440 N   0  0  0  0  0  1  0  0  0  0  0  0
  186.2240  177.9020  139.9930 O   0  0  0  0  0  0  0  0  0  0  0  0
  185.3810  178.1620  142.1400 N   0  0  0  0  0  2  0  0  0  0  0  0
  1 21  1  6  0  0  0
  1  7  1  0  0  0  0
  2  5  1  1  0  0  0
  2  7  1  0  0  0  0
  3 16  1  1  0  0  0
  3  6  1  0  0  0  0
  3  8  1  0  0  0  0
  4  1  1  0  0  0  0
  6  5  1  0  0  0  0
  8  4  1  6  0  0  0
  8  2  1  0  0  0  0
  9 14  1  0  0  0  0
 10 16  1  0  0  0  0
 11  9  2  0  0  0  0
 13 11  2  0  0  0  0
 14 12  1  0  0  0  0
 15 10  1  0  0  0  0
 15  9  1  0  0  0  0
 16 12  1  0  0  0  0
 17 18  1  1  0  0  0
 17  6  1  0  0  0  0
 20 19  1  0  0  0  0
 20 17  1  0  0  0  0
 21 22  1  0  0  0  0
 22 23  2  0  0  0  0
 24 22  1  0  0  0  0
 25 24  1  0  0  0  0
 26 25  1  0  0  0  0
 27 30  1  0  0  0  0
 28 27  1  0  0  0  0
 29 27  2  0  0  0  0
 30 26  1  0  0  0  0
M  END
>  <MODEL>
5

>  <REMARK>
 VINA RESULT:      -6.7      2.409      5.354
  Name = 
  8 active torsions:
  status: ('A' for Active; 'I' for Inactive)
    1  A    between atoms: C_4  and  C_25
    2  A    between atoms: N_5  and  C_7
    3  A    between atoms: N_5  and  N_26
    4  A    between atoms: C_6  and  C_21
    5  A    between atoms: C_7  and  N_29
    6  A    between atoms: C_10  and  C_24
    7  A    between atoms: C_13  and  C_21
    8  A    between atoms: N_22  and  C_25
                            x       y       z     vdW  Elec       q    Type
                         _______ _______ _______ _____ _____    ______ ____

>  <TORSDO>
F 8

$$$$
=
 OpenBabel11062419443D

 30 32  0  0  1  0  0  0  0  0999 V2000
  187.0970  176.8090  145.6830 C   0  0  1  0  0  3  0  0  0  0  0  0
  189.4310  176.2040  146.3440 C   0  0  2  0  0  3  0  0  0  0  0  0
  190.4230  175.4120  144.4360 C   0  0  2  0  0  3  0  0  0  0  0  0
  188.0460  176.5350  144.5030 C   0  0  0  0  0  2  0  0  0  0  0  0
  190.5650  175.3210  146.7770 C   0  0  0  0  0  2  0  0  0  0  0  0
  191.3280  175.0390  145.5450 N   0  0  0  0  0  0  0  0  0  0  0  0
  187.8910  176.2370  147.2560 S   0  0  0  0  0  0  0  0  0  0  0  0
  189.0650  175.5920  145.0710 C   0  0  2  0  0  3  0  0  0  0  0  0
  189.6010  172.9120  141.0120 C   0  0  0  0  0  0  0  0  0  0  0  0
  189.2010  173.4240  143.3940 C   0  0  0  0  0  2  0  0  0  0  0  0
  188.8200  172.6720  139.9960 C   0  0  0  0  0  0  0  0  0  0  0  0
  190.5940  174.9640  141.9580 C   0  0  0  0  0  2  0  0  0  0  0  0
  188.0800  172.4410  139.0310 O   0  0  0  0  0  0  0  0  0  0  0  0
  190.7320  173.8800  140.8910 C   0  0  0  0  0  2  0  0  0  0  0  0
  189.3110  172.3140  142.3500 C   0  0  0  0  0  2  0  0  0  0  0  0
  190.4370  174.3350  143.3450 C   0  0  0  0  0  3  0  0  0  0  0  0
  192.4980  175.9280  145.5050 C   0  0  1  0  0  3  0  0  0  0  0  0
  192.2320  177.0420  144.7010 O   0  0  0  0  0  1  0  0  0  0  0  0
  194.0930  177.0460  146.8870 O   0  0  0  0  0  1  0  0  0  0  0  0
  192.8500  176.4140  146.9050 C   0  0  0  0  0  2  0  0  0  0  0  0
  186.8000  178.3000  145.7410 C   0  0  0  0  0  2  0  0  0  0  0  0
  185.3750  178.5590  146.1060 C   0  0  0  0  0  0  0  0  0  0  0  0
  185.0110  178.4430  147.3040 O   0  0  0  0  0  0  0  0  0  0  0  0
  184.4200  178.9470  145.1150 N   0  0  0  0  0  2  0  0  0  0  0  0
  184.7690  179.1260  143.7680 N   0  0  0  0  0  2  0  0  0  0  0  0
  184.4270  177.9040  143.0590 C   0  0  0  0  0  2  0  0  0  0  0  0
  185.3750  177.9220  140.7270 C   0  0  0  0  0  0  0  0  0  0  0  0
  184.2330  178.6110  140.2280 N   0  0  0  0  0  1  0  0  0  0  0  0
  186.3000  177.5980  139.9370 O   0  0  0  0  0  0  0  0  0  0  0  0
  185.4790  177.5870  142.1100 N   0  0  0  0  0  2  0  0  0  0  0  0
  1 21  1  1  0  0  0
  1  7  1  0  0  0  0
  2  5  1  1  0  0  0
  2  7  1  0  0  0  0
  3 16  1  6  0  0  0
  3  8  1  0  0  0  0
  3  6  1  0  0  0  0
  4  1  1  0  0  0  0
  6  5  1  0  0  0  0
  8  4  1  6  0  0  0
  8  2  1  0  0  0  0
  9 15  1  0  0  0  0
 11  9  2  0  0  0  0
 12 16  1  0  0  0  0
 13 11  2  0  0  0  0
 14  9  1  0  0  0  0
 14 12  1  0  0  0  0
 15 10  1  0  0  0  0
 16 10  1  0  0  0  0
 17 18  1  6  0  0  0
 17  6  1  0  0  0  0
 17 20  1  0  0  0  0
 19 20  1  0  0  0  0
 21 22  1  0  0  0  0
 22 23  2  0  0  0  0
 24 22  1  0  0  0  0
 25 24  1  0  0  0  0
 26 25  1  0  0  0  0
 27 30  1  0  0  0  0
 28 27  1  0  0  0  0
 29 27  2  0  0  0  0
 30 26  1  0  0  0  0
M  END
>  <MODEL>
6

>  <REMARK>
 VINA RESULT:      -6.6      2.344      5.674
  Name = 
  8 active torsions:
  status: ('A' for Active; 'I' for Inactive)
    1  A    between atoms: C_4  and  C_25
    2  A    between atoms: N_5  and  C_7
    3  A    between atoms: N_5  and  N_26
    4  A    between atoms: C_6  and  C_21
    5  A    between atoms: C_7  and  N_29
    6  A    between atoms: C_10  and  C_24
    7  A    between atoms: C_13  and  C_21
    8  A    between atoms: N_22  and  C_25
                            x       y       z     vdW  Elec       q    Type
                         _______ _______ _______ _____ _____    ______ ____

>  <TORSDO>
F 8

$$$$
=
 OpenBabel11062419443D

 30 32  0  0  1  0  0  0  0  0999 V2000
  192.0790  175.5880  145.3700 C   0  0  1  0  0  3  0  0  0  0  0  0
  190.4220  174.6580  143.7430 C   0  0  2  0  0  3  0  0  0  0  0  0
  188.6060  176.0520  143.8530 C   0  0  2  0  0  3  0  0  0  0  0  0
  190.9000  176.5250  145.0490 C   0  0  0  0  0  2  0  0  0  0  0  0
  189.2380  173.8680  143.2690 C   0  0  0  0  0  2  0  0  0  0  0  0
  188.1520  174.8560  143.1110 N   0  0  0  0  0  0  0  0  0  0  0  0
  191.7070  173.8910  144.7260 S   0  0  0  0  0  0  0  0  0  0  0  0
  189.7890  175.5910  144.6700 C   0  0  2  0  0  3  0  0  0  0  0  0
  186.1720  178.3070  146.6180 C   0  0  0  0  0  0  0  0  0  0  0  0
  187.6980  176.4080  146.2150 C   0  0  0  0  0  2  0  0  0  0  0  0
  186.1250  179.2540  147.5110 C   0  0  0  0  0  0  0  0  0  0  0  0
  187.2330  178.0980  144.3980 C   0  0  0  0  0  2  0  0  0  0  0  0
  186.0790  180.1540  148.3600 O   0  0  0  0  0  0  0  0  0  0  0  0
  186.0200  178.6210  145.1650 C   0  0  0  0  0  2  0  0  0  0  0  0
  186.4960  176.9030  147.0160 C   0  0  0  0  0  2  0  0  0  0  0  0
  187.4690  176.6180  144.7100 C   0  0  0  0  0  3  0  0  0  0  0  0
  188.0430  175.2090  141.6890 C   0  0  1  0  0  3  0  0  0  0  0  0
  188.7250  176.4030  141.4320 O   0  0  0  0  0  1  0  0  0  0  0  0
  188.5340  174.4660  139.4720 O   0  0  0  0  0  1  0  0  0  0  0  0
  188.6420  174.1120  140.8180 C   0  0  0  0  0  2  0  0  0  0  0  0
  193.3390  176.1430  144.7250 C   0  0  0  0  0  2  0  0  0  0  0  0
  194.4710  176.2000  145.6990 C   0  0  0  0  0  0  0  0  0  0  0  0
  194.5200  177.1360  146.5370 O   0  0  0  0  0  0  0  0  0  0  0  0
  195.4930  175.2000  145.7000 N   0  0  0  0  0  2  0  0  0  0  0  0
  195.4780  174.1130  144.8130 N   0  0  0  0  0  2  0  0  0  0  0  0
  196.5650  174.3010  143.8670 C   0  0  0  0  0  2  0  0  0  0  0  0
  196.2980  176.3180  142.3840 C   0  0  0  0  0  0  0  0  0  0  0  0
  197.0820  177.1160  143.2650 N   0  0  0  0  0  1  0  0  0  0  0  0
  195.8090  176.8350  141.3460 O   0  0  0  0  0  0  0  0  0  0  0  0
  196.0550  174.9410  142.6670 N   0  0  0  0  0  2  0  0  0  0  0  0
  1 21  1  6  0  0  0
  2  5  1  1  0  0  0
  2  8  1  0  0  0  0
  2  7  1  0  0  0  0
  3  8  1  0  0  0  0
  3 16  1  1  0  0  0
  4  1  1  0  0  0  0
  6  5  1  0  0  0  0
  6  3  1  0  0  0  0
  7  1  1  0  0  0  0
  8  4  1  6  0  0  0
  9 15  1  0  0  0  0
  9 11  2  0  0  0  0
 10 15  1  0  0  0  0
 11 13  2  0  0  0  0
 12 16  1  0  0  0  0
 12 14  1  0  0  0  0
 14  9  1  0  0  0  0
 16 10  1  0  0  0  0
 17 18  1  1  0  0  0
 17  6  1  0  0  0  0
 19 20  1  0  0  0  0
 20 17  1  0  0  0  0
 21 22  1  0  0  0  0
 22 24  1  0  0  0  0
 22 23  2  0  0  0  0
 25 24  1  0  0  0  0
 26 25  1  0  0  0  0
 27 30  1  0  0  0  0
 27 28  1  0  0  0  0
 29 27  2  0  0  0  0
 30 26  1  0  0  0  0
M  END
>  <MODEL>
7

>  <REMARK>
 VINA RESULT:      -6.6      3.693      7.591
  Name = 
  8 active torsions:
  status: ('A' for Active; 'I' for Inactive)
    1  A    between atoms: C_4  and  C_25
    2  A    between atoms: N_5  and  C_7
    3  A    between atoms: N_5  and  N_26
    4  A    between atoms: C_6  and  C_21
    5  A    between atoms: C_7  and  N_29
    6  A    between atoms: C_10  and  C_24
    7  A    between atoms: C_13  and  C_21
    8  A    between atoms: N_22  and  C_25
                            x       y       z     vdW  Elec       q    Type
                         _______ _______ _______ _____ _____    ______ ____

>  <TORSDO>
F 8

$$$$
=
 OpenBabel11062419443D

 30 32  0  0  1  0  0  0  0  0999 V2000
  191.9290  176.2250  145.0830 C   0  0  1  0  0  3  0  0  0  0  0  0
  191.0150  174.4430  143.5850 C   0  0  2  0  0  3  0  0  0  0  0  0
  189.3790  175.4630  142.3470 C   0  0  2  0  0  3  0  0  0  0  0  0
  191.0250  176.7420  143.9500 C   0  0  0  0  0  2  0  0  0  0  0  0
  190.0800  173.3630  143.1260 C   0  0  0  0  0  2  0  0  0  0  0  0
  189.1990  174.0100  142.1340 N   0  0  0  0  0  0  0  0  0  0  0  0
  191.7610  174.3850  145.2120 S   0  0  0  0  0  0  0  0  0  0  0  0
  190.1130  175.5870  143.6600 C   0  0  2  0  0  3  0  0  0  0  0  0
  186.0610  178.1450  143.0230 C   0  0  0  0  0  0  0  0  0  0  0  0
  187.3340  176.1470  143.7190 C   0  0  0  0  0  2  0  0  0  0  0  0
  185.6170  179.1960  143.6510 C   0  0  0  0  0  0  0  0  0  0  0  0
  188.1650  177.6180  141.8440 C   0  0  0  0  0  2  0  0  0  0  0  0
  185.1920  180.1950  144.2460 O   0  0  0  0  0  0  0  0  0  0  0  0
  186.7950  178.2830  141.7290 C   0  0  0  0  0  2  0  0  0  0  0  0
  185.9500  176.7880  143.6410 C   0  0  0  0  0  2  0  0  0  0  0  0
  188.0240  176.1790  142.3470 C   0  0  0  0  0  3  0  0  0  0  0  0
  189.6840  173.6780  140.7880 C   0  0  1  0  0  3  0  0  0  0  0  0
  190.4940  172.5380  140.8320 O   0  0  0  0  0  1  0  0  0  0  0  0
  188.2050  174.5600  139.1320 O   0  0  0  0  0  1  0  0  0  0  0  0
  188.5150  173.4050  139.8490 C   0  0  0  0  0  2  0  0  0  0  0  0
  193.3690  176.6130  144.7810 C   0  0  0  0  0  2  0  0  0  0  0  0
  194.2470  176.4230  145.9760 C   0  0  0  0  0  0  0  0  0  0  0  0
  194.0980  177.1680  146.9780 O   0  0  0  0  0  0  0  0  0  0  0  0
  195.2460  175.4010  145.9990 N   0  0  0  0  0  2  0  0  0  0  0  0
  195.4390  174.5170  144.9270 N   0  0  0  0  0  2  0  0  0  0  0  0
  196.8550  174.5290  144.5960 C   0  0  0  0  0  2  0  0  0  0  0  0
  197.0560  175.9460  142.5250 C   0  0  0  0  0  0  0  0  0  0  0  0
  196.9700  177.1440  143.2910 N   0  0  0  0  0  1  0  0  0  0  0  0
  197.1630  176.0150  141.2730 O   0  0  0  0  0  0  0  0  0  0  0  0
  197.0130  174.6690  143.1590 N   0  0  0  0  0  2  0  0  0  0  0  0
  1 21  1  6  0  0  0
  1  7  1  0  0  0  0
  2  5  1  1  0  0  0
  2  8  1  0  0  0  0
  2  7  1  0  0  0  0
  3 16  1  1  0  0  0
  3  8  1  0  0  0  0
  4  1  1  0  0  0  0
  6  3  1  0  0  0  0
  6  5  1  0  0  0  0
  8  4  1  6  0  0  0
  9 15  1  0  0  0  0
  9 11  2  0  0  0  0
 11 13  2  0  0  0  0
 12 16  1  0  0  0  0
 14 12  1  0  0  0  0
 14  9  1  0  0  0  0
 15 10  1  0  0  0  0
 16 10  1  0  0  0  0
 17 18  1  1  0  0  0
 17  6  1  0  0  0  0
 19 20  1  0  0  0  0
 20 17  1  0  0  0  0
 21 22  1  0  0  0  0
 22 24  1  0  0  0  0
 22 23  2  0  0  0  0
 25 24  1  0  0  0  0
 26 25  1  0  0  0  0
 27 30  1  0  0  0  0
 27 28  1  0  0  0  0
 29 27  2  0  0  0  0
 30 26  1  0  0  0  0
M  END
>  <MODEL>
8

>  <REMARK>
 VINA RESULT:      -6.5      3.709      7.980
  Name = 
  8 active torsions:
  status: ('A' for Active; 'I' for Inactive)
    1  A    between atoms: C_4  and  C_25
    2  A    between atoms: N_5  and  C_7
    3  A    between atoms: N_5  and  N_26
    4  A    between atoms: C_6  and  C_21
    5  A    between atoms: C_7  and  N_29
    6  A    between atoms: C_10  and  C_24
    7  A    between atoms: C_13  and  C_21
    8  A    between atoms: N_22  and  C_25
                            x       y       z     vdW  Elec       q    Type
                         _______ _______ _______ _____ _____    ______ ____

>  <TORSDO>
F 8

$$$$
=
 OpenBabel11062419443D

 30 32  0  0  1  0  0  0  0  0999 V2000
  190.6120  174.3650  145.2410 C   0  0  1  0  0  3  0  0  0  0  0  0
  189.7900  173.3650  143.1010 C   0  0  2  0  0  3  0  0  0  0  0  0
  188.7900  175.0840  141.9650 C   0  0  2  0  0  3  0  0  0  0  0  0
  190.1710  175.3910  144.1820 C   0  0  0  0  0  2  0  0  0  0  0  0
  188.8120  172.7440  142.1470 C   0  0  0  0  0  2  0  0  0  0  0  0
  188.3810  173.8470  141.2650 N   0  0  0  0  0  0  0  0  0  0  0  0
  190.0430  172.6760  144.7350 S   0  0  0  0  0  0  0  0  0  0  0  0
  189.1530  174.6510  143.3640 C   0  0  2  0  0  3  0  0  0  0  0  0
  186.1020  178.3730  142.7480 C   0  0  0  0  0  0  0  0  0  0  0  0
  186.7250  176.0170  143.1460 C   0  0  0  0  0  2  0  0  0  0  0  0
  185.7930  179.3700  143.5280 C   0  0  0  0  0  0  0  0  0  0  0  0
  188.2210  177.5380  141.7970 C   0  0  0  0  0  2  0  0  0  0  0  0
  185.4980  180.3180  144.2680 O   0  0  0  0  0  0  0  0  0  0  0  0
  187.0880  178.5500  141.6400 C   0  0  0  0  0  2  0  0  0  0  0  0
  185.5660  177.0040  143.0170 C   0  0  0  0  0  2  0  0  0  0  0  0
  187.6600  176.1200  141.9320 C   0  0  0  0  0  3  0  0  0  0  0  0
  189.1310  173.7610  140.0050 C   0  0  1  0  0  3  0  0  0  0  0  0
  189.5800  172.4520  139.7960 O   0  0  0  0  0  1  0  0  0  0  0  0
  188.1910  173.1200  137.9040 O   0  0  0  0  0  1  0  0  0  0  0  0
  188.2500  174.1630  138.8290 C   0  0  0  0  0  2  0  0  0  0  0  0
  192.1280  174.4070  145.3660 C   0  0  0  0  0  2  0  0  0  0  0  0
  192.5580  175.3070  146.4790 C   0  0  0  0  0  0  0  0  0  0  0  0
  191.7390  175.6090  147.3830 O   0  0  0  0  0  0  0  0  0  0  0  0
  193.8920  175.8200  146.5350 N   0  0  0  0  0  2  0  0  0  0  0  0
  194.8620  175.4950  145.5760 N   0  0  0  0  0  2  0  0  0  0  0  0
  195.0270  176.6490  144.7080 C   0  0  0  0  0  2  0  0  0  0  0  0
  194.6250  176.0400  142.2980 C   0  0  0  0  0  0  0  0  0  0  0  0
  193.2340  176.3230  142.4210 N   0  0  0  0  0  1  0  0  0  0  0  0
  195.0820  175.6280  141.2010 O   0  0  0  0  0  0  0  0  0  0  0  0
  195.5050  176.2100  143.4080 N   0  0  0  0  0  2  0  0  0  0  0  0
  1 21  1  6  0  0  0
  2  5  1  6  0  0  0
  2  8  1  0  0  0  0
  2  7  1  0  0  0  0
  3 16  1  1  0  0  0
  3  8  1  0  0  0  0
  4  1  1  0  0  0  0
  6  3  1  0  0  0  0
  6  5  1  0  0  0  0
  7  1  1  0  0  0  0
  8  4  1  6  0  0  0
  9 15  1  0  0  0  0
  9 11  2  0  0  0  0
 11 13  2  0  0  0  0
 12 16  1  0  0  0  0
 14 12  1  0  0  0  0
 14  9  1  0  0  0  0
 15 10  1  0  0  0  0
 16 10  1  0  0  0  0
 17 18  1  6  0  0  0
 17  6  1  0  0  0  0
 19 20  1  0  0  0  0
 20 17  1  0  0  0  0
 21 22  1  0  0  0  0
 22 24  1  0  0  0  0
 22 23  2  0  0  0  0
 25 24  1  0  0  0  0
 26 25  1  0  0  0  0
 27 28  1  0  0  0  0
 27 30  1  0  0  0  0
 29 27  2  0  0  0  0
 30 26  1  0  0  0  0
M  END
>  <MODEL>
9

>  <REMARK>
 VINA RESULT:      -6.4      3.690      7.317
  Name = 
  8 active torsions:
  status: ('A' for Active; 'I' for Inactive)
    1  A    between atoms: C_4  and  C_25
    2  A    between atoms: N_5  and  C_7
    3  A    between atoms: N_5  and  N_26
    4  A    between atoms: C_6  and  C_21
    5  A    between atoms: C_7  and  N_29
    6  A    between atoms: C_10  and  C_24
    7  A    between atoms: C_13  and  C_21
    8  A    between atoms: N_22  and  C_25
                            x       y       z     vdW  Elec       q    Type
                         _______ _______ _______ _____ _____    ______ ____

>  <TORSDO>
F 8

$$$$
