=
 OpenBabel11062419523D

 30 34  0  0  1  0  0  0  0  0999 V2000
  188.5110  175.4320  141.7860 O   0  0  0  0  0  0  0  0  0  0  0  0
  192.5930  175.0230  145.8000 C   0  0  0  0  0  0  0  0  0  0  0  0
  187.5330  176.0070  145.7610 C   0  0  0  0  0  2  0  0  0  0  0  0
  192.8760  175.8090  146.7420 O   0  0  0  0  0  0  0  0  0  0  0  0
  193.3010  173.7380  145.7250 C   0  0  0  0  0  3  0  0  0  0  0  0
  187.9600  176.8330  146.9830 C   0  0  0  0  0  2  0  0  0  0  0  0
  186.0460  178.5770  141.7040 C   0  0  0  0  0  2  0  0  0  0  0  0
  189.4120  175.5010  142.8400 C   0  0  0  0  0  0  0  0  0  0  0  0
  190.2720  176.0120  145.1690 C   0  0  2  0  0  3  0  0  0  0  0  0
  191.0360  172.9920  140.8040 C   0  0  0  0  0  1  0  0  0  0  0  0
  183.8010  178.3510  141.1210 C   0  0  0  0  0  1  0  0  0  0  0  0
  186.9340  177.3350  143.7440 C   0  0  0  0  0  0  0  0  0  0  0  0
  193.0780  172.8920  144.7240 C   0  0  0  0  0  0  0  0  0  0  0  0
  189.9410  177.8300  143.4720 C   0  0  0  0  0  1  0  0  0  0  0  0
  190.0660  173.7970  141.5260 N   0  0  0  0  0  0  0  0  0  0  0  0
  190.4240  177.0380  146.3170 C   0  0  0  0  0  2  0  0  0  0  0  0
  187.9010  176.6640  144.4450 C   0  0  0  0  0  0  0  0  0  0  0  0
  188.8880  174.3810  140.9010 C   0  0  0  0  0  2  0  0  0  0  0  0
  191.6400  175.4500  144.6940 C   0  0  2  0  0  3  0  0  0  0  0  0
  184.8560  177.7750  141.9350 N   0  0  0  0  0  0  0  0  0  0  0  0
  189.1420  177.7670  146.7200 C   0  0  0  0  0  2  0  0  0  0  0  0
  184.4870  178.0100  143.3220 C   0  0  0  0  0  2  0  0  0  0  0  0
  191.4050  174.3530  143.6700 C   0  0  0  0  0  0  0  0  0  0  0  0
  189.3650  176.5060  143.9780 C   0  0  1  0  0  0  0  0  0  0  0  0
  190.3340  174.5700  142.6910 C   0  0  0  0  0  0  0  0  0  0  0  0
  185.4660  178.0930  145.4840 O   0  0  0  0  0  1  0  0  0  0  0  0
  185.5040  177.3870  144.2810 C   0  0  2  0  0  3  0  0  0  0  0  0
  187.2460  177.9310  142.3830 C   0  0  0  0  0  2  0  0  0  0  0  0
  193.7800  171.6570  144.6770 N   0  0  0  0  0  1  0  0  0  0  0  0
  192.0810  173.1990  143.6890 C   0  0  0  0  0  3  0  0  0  0  0  0
  1  8  1  0  0  0  0
  2  4  2  0  0  0  0
  3  6  1  0  0  0  0
  5  2  1  0  0  0  0
  7 20  1  0  0  0  0
  7 28  1  0  0  0  0
  8 24  1  0  0  0  0
  9 16  1  1  0  0  0
 10 15  1  0  0  0  0
 11 20  1  0  0  0  0
 12 27  1  0  0  0  0
 12 17  2  0  0  0  0
 13  5  2  0  0  0  0
 15 25  1  0  0  0  0
 16 21  1  0  0  0  0
 17  3  1  0  0  0  0
 18 15  1  0  0  0  0
 18  1  1  0  0  0  0
 19 23  1  6  0  0  0
 19  9  1  0  0  0  0
 19  2  1  0  0  0  0
 20 22  1  0  0  0  0
 21  6  1  0  0  0  0
 22 27  1  0  0  0  0
 23 30  2  0  0  0  0
 24 14  1  6  0  0  0
 24 17  1  0  0  0  0
 24  9  1  0  0  0  0
 25  8  2  0  0  0  0
 25 23  1  0  0  0  0
 27 26  1  1  0  0  0
 28 12  1  0  0  0  0
 29 13  1  0  0  0  0
 30 13  1  0  0  0  0
M  END
>  <MODEL>
1

>  <REMARK>
 VINA RESULT:      -8.7      0.000      0.000
  Name = 
  0 active torsions:
  status: ('A' for Active; 'I' for Inactive)
                            x       y       z     vdW  Elec       q    Type
                         _______ _______ _______ _____ _____    ______ ____

>  <TORSDO>
F 0

$$$$
=
 OpenBabel11062419523D

 30 34  0  0  1  0  0  0  0  0999 V2000
  189.0220  173.6080  143.1080 O   0  0  0  0  0  0  0  0  0  0  0  0
  194.1880  172.6120  145.4040 C   0  0  0  0  0  0  0  0  0  0  0  0
  189.8220  174.8650  146.9650 C   0  0  0  0  0  2  0  0  0  0  0  0
  194.9670  173.4000  146.0020 O   0  0  0  0  0  0  0  0  0  0  0  0
  194.5420  171.1880  145.3460 C   0  0  0  0  0  3  0  0  0  0  0  0
  190.8490  175.6850  147.7590 C   0  0  0  0  0  2  0  0  0  0  0  0
  187.3940  177.2550  143.2670 C   0  0  0  0  0  2  0  0  0  0  0  0
  190.2600  173.5600  143.7360 C   0  0  0  0  0  0  0  0  0  0  0  0
  192.0500  174.0920  145.4510 C   0  0  2  0  0  3  0  0  0  0  0  0
  190.4240  170.5010  141.8150 C   0  0  0  0  0  1  0  0  0  0  0  0
  185.1040  177.5550  143.5790 C   0  0  0  0  0  1  0  0  0  0  0  0
  188.7510  176.0650  145.0660 C   0  0  0  0  0  0  0  0  0  0  0  0
  193.7810  170.3200  144.6850 C   0  0  0  0  0  0  0  0  0  0  0  0
  191.4410  175.7280  143.6490 C   0  0  0  0  0  1  0  0  0  0  0  0
  189.9950  171.6070  142.6530 N   0  0  0  0  0  0  0  0  0  0  0  0
  192.8390  175.1660  146.2340 C   0  0  0  0  0  2  0  0  0  0  0  0
  189.7630  175.2500  145.4990 C   0  0  0  0  0  0  0  0  0  0  0  0
  188.8050  172.4010  142.3820 C   0  0  0  0  0  2  0  0  0  0  0  0
  192.9800  173.1430  144.6460 C   0  0  2  0  0  3  0  0  0  0  0  0
  186.2590  176.8210  144.0640 N   0  0  0  0  0  0  0  0  0  0  0  0
  191.9910  176.2450  146.9080 C   0  0  0  0  0  2  0  0  0  0  0  0
  186.5200  177.3000  145.4130 C   0  0  0  0  0  2  0  0  0  0  0  0
  192.1510  172.0370  144.0200 C   0  0  0  0  0  0  0  0  0  0  0  0
  190.8630  174.6650  144.5850 C   0  0  1  0  0  0  0  0  0  0  0  0
  190.8460  172.4110  143.4630 C   0  0  0  0  0  0  0  0  0  0  0  0
  188.2660  177.3700  147.0200 O   0  0  0  0  0  1  0  0  0  0  0  0
  187.6880  176.5470  146.0530 C   0  0  2  0  0  3  0  0  0  0  0  0
  188.6120  176.4010  143.5920 C   0  0  0  0  0  2  0  0  0  0  0  0
  194.1500  168.9480  144.6460 N   0  0  0  0  0  1  0  0  0  0  0  0
  192.5390  170.7560  144.0330 C   0  0  0  0  0  3  0  0  0  0  0  0
  1  8  1  0  0  0  0
  2  4  2  0  0  0  0
  3  6  1  0  0  0  0
  5  2  1  0  0  0  0
  7 28  1  0  0  0  0
  7 20  1  0  0  0  0
  8 24  1  0  0  0  0
  9 16  1  6  0  0  0
 10 15  1  0  0  0  0
 11 20  1  0  0  0  0
 12 17  2  0  0  0  0
 12 27  1  0  0  0  0
 13  5  2  0  0  0  0
 15 25  1  0  0  0  0
 16 21  1  0  0  0  0
 17  3  1  0  0  0  0
 18 15  1  0  0  0  0
 18  1  1  0  0  0  0
 19 23  1  1  0  0  0
 19  2  1  0  0  0  0
 19  9  1  0  0  0  0
 20 22  1  0  0  0  0
 21  6  1  0  0  0  0
 22 27  1  0  0  0  0
 23 30  2  0  0  0  0
 24 14  1  6  0  0  0
 24  9  1  0  0  0  0
 24 17  1  0  0  0  0
 25  8  2  0  0  0  0
 25 23  1  0  0  0  0
 27 26  1  1  0  0  0
 28 12  1  0  0  0  0
 29 13  1  0  0  0  0
 30 13  1  0  0  0  0
M  END
>  <MODEL>
2

>  <REMARK>
 VINA RESULT:      -8.6      1.912      2.733
  Name = 
  0 active torsions:
  status: ('A' for Active; 'I' for Inactive)
                            x       y       z     vdW  Elec       q    Type
                         _______ _______ _______ _____ _____    ______ ____

>  <TORSDO>
F 0

$$$$
=
 OpenBabel11062419523D

 30 34  0  0  1  0  0  0  0  0999 V2000
  189.6860  177.1210  142.4620 O   0  0  0  0  0  0  0  0  0  0  0  0
  186.3730  176.5100  147.1100 C   0  0  0  0  0  0  0  0  0  0  0  0
  191.3990  177.2380  146.2240 C   0  0  0  0  0  2  0  0  0  0  0  0
  186.5200  175.7590  148.1080 O   0  0  0  0  0  0  0  0  0  0  0  0
  185.2710  177.4810  147.1210 C   0  0  0  0  0  3  0  0  0  0  0  0
  191.4680  176.4260  147.5240 C   0  0  0  0  0  2  0  0  0  0  0  0
  193.0240  174.9620  142.0450 C   0  0  0  0  0  2  0  0  0  0  0  0
  189.0350  176.8510  143.6590 C   0  0  0  0  0  0  0  0  0  0  0  0
  188.7660  176.2860  146.1150 C   0  0  2  0  0  3  0  0  0  0  0  0
  186.3680  178.5060  141.8630 C   0  0  0  0  0  1  0  0  0  0  0  0
  194.9440  175.8600  141.0770 C   0  0  0  0  0  1  0  0  0  0  0  0
  192.0930  176.0130  144.1720 C   0  0  0  0  0  0  0  0  0  0  0  0
  185.0390  178.2660  146.0720 C   0  0  0  0  0  0  0  0  0  0  0  0
  189.4260  174.5400  144.4390 C   0  0  0  0  0  1  0  0  0  0  0  0
  187.6510  178.1280  142.4290 N   0  0  0  0  0  0  0  0  0  0  0  0
  189.1460  175.3690  147.3000 C   0  0  0  0  0  2  0  0  0  0  0  0
  191.0770  176.3880  145.0100 C   0  0  0  0  0  0  0  0  0  0  0  0
  188.8460  177.9120  141.6260 C   0  0  0  0  0  2  0  0  0  0  0  0
  187.2330  176.3270  145.8680 C   0  0  2  0  0  3  0  0  0  0  0  0
  193.8940  176.1250  142.0440 N   0  0  0  0  0  0  0  0  0  0  0  0
  190.6450  175.1370  147.4970 C   0  0  0  0  0  2  0  0  0  0  0  0
  194.5300  176.1430  143.3530 C   0  0  0  0  0  2  0  0  0  0  0  0
  186.9240  177.3490  144.7880 C   0  0  0  0  0  0  0  0  0  0  0  0
  189.5920  176.0170  144.8000 C   0  0  1  0  0  0  0  0  0  0  0  0
  187.8420  177.4120  143.6440 C   0  0  0  0  0  0  0  0  0  0  0  0
  193.9800  175.9290  145.6530 O   0  0  0  0  0  1  0  0  0  0  0  0
  193.5220  176.4780  144.4540 C   0  0  2  0  0  3  0  0  0  0  0  0
  191.7960  175.2350  142.9030 C   0  0  0  0  0  2  0  0  0  0  0  0
  183.9640  179.1940  146.1120 N   0  0  0  0  0  1  0  0  0  0  0  0
  185.9100  178.2160  144.8900 C   0  0  0  0  0  3  0  0  0  0  0  0
  1  8  1  0  0  0  0
  2  5  1  0  0  0  0
  2  4  2  0  0  0  0
  3  6  1  0  0  0  0
  7 28  1  0  0  0  0
  8 24  1  0  0  0  0
  9 16  1  1  0  0  0
 10 15  1  0  0  0  0
 11 20  1  0  0  0  0
 12 27  1  0  0  0  0
 12 17  2  0  0  0  0
 13 29  1  0  0  0  0
 13  5  2  0  0  0  0
 15 25  1  0  0  0  0
 16 21  1  0  0  0  0
 17  3  1  0  0  0  0
 18 15  1  0  0  0  0
 18  1  1  0  0  0  0
 19 23  1  6  0  0  0
 19  9  1  0  0  0  0
 19  2  1  0  0  0  0
 20  7  1  0  0  0  0
 20 22  1  0  0  0  0
 21  6  1  0  0  0  0
 22 27  1  0  0  0  0
 23 30  2  0  0  0  0
 24 14  1  6  0  0  0
 24 17  1  0  0  0  0
 24  9  1  0  0  0  0
 25  8  2  0  0  0  0
 25 23  1  0  0  0  0
 27 26  1  1  0  0  0
 28 12  1  0  0  0  0
 30 13  1  0  0  0  0
M  END
>  <MODEL>
3

>  <REMARK>
 VINA RESULT:      -8.4      2.301      6.578
  Name = 
  0 active torsions:
  status: ('A' for Active; 'I' for Inactive)
                            x       y       z     vdW  Elec       q    Type
                         _______ _______ _______ _____ _____    ______ ____

>  <TORSDO>
F 0

$$$$
=
 OpenBabel11062419523D

 30 34  0  0  1  0  0  0  0  0999 V2000
  188.5560  175.6380  142.3540 O   0  0  0  0  0  0  0  0  0  0  0  0
  193.6710  174.3800  144.6350 C   0  0  0  0  0  0  0  0  0  0  0  0
  188.9320  175.2740  146.4560 C   0  0  0  0  0  2  0  0  0  0  0  0
  194.2860  174.9330  145.5840 O   0  0  0  0  0  0  0  0  0  0  0  0
  194.2380  173.1570  144.0520 C   0  0  0  0  0  3  0  0  0  0  0  0
  189.7750  175.8040  147.6240 C   0  0  0  0  0  2  0  0  0  0  0  0
  186.3890  178.6830  143.7730 C   0  0  0  0  0  2  0  0  0  0  0  0
  189.7480  175.4770  143.0480 C   0  0  0  0  0  0  0  0  0  0  0  0
  191.3340  175.4540  145.0250 C   0  0  2  0  0  3  0  0  0  0  0  0
  190.4840  173.5250  140.0940 C   0  0  0  0  0  1  0  0  0  0  0  0
  184.0660  178.5640  143.9140 C   0  0  0  0  0  1  0  0  0  0  0  0
  187.8040  177.0190  145.0880 C   0  0  0  0  0  0  0  0  0  0  0  0
  193.6570  172.5590  143.0170 C   0  0  0  0  0  0  0  0  0  0  0  0
  190.5910  177.6070  143.9730 C   0  0  0  0  0  1  0  0  0  0  0  0
  189.8450  174.1290  141.2510 N   0  0  0  0  0  0  0  0  0  0  0  0
  191.9060  176.1910  146.2580 C   0  0  0  0  0  2  0  0  0  0  0  0
  188.9000  176.2200  145.2710 C   0  0  0  0  0  0  0  0  0  0  0  0
  188.5660  174.8230  141.1860 C   0  0  0  0  0  2  0  0  0  0  0  0
  192.4430  175.0350  144.0210 C   0  0  2  0  0  3  0  0  0  0  0  0
  185.2880  177.8320  144.1940 N   0  0  0  0  0  0  0  0  0  0  0  0
  190.8660  176.7910  147.2060 C   0  0  0  0  0  2  0  0  0  0  0  0
  185.3950  177.7380  145.6420 C   0  0  0  0  0  2  0  0  0  0  0  0
  191.8280  174.1990  142.9130 C   0  0  0  0  0  0  0  0  0  0  0  0
  190.1270  176.1940  144.3320 C   0  0  1  0  0  0  0  0  0  0  0  0
  190.5160  174.6190  142.4060 C   0  0  0  0  0  0  0  0  0  0  0  0
  187.0140  177.3370  147.3310 O   0  0  0  0  0  1  0  0  0  0  0  0
  186.6250  176.9270  146.0560 C   0  0  2  0  0  3  0  0  0  0  0  0
  187.7010  177.9160  143.8660 C   0  0  0  0  0  2  0  0  0  0  0  0
  194.2310  171.3770  142.4730 N   0  0  0  0  0  1  0  0  0  0  0  0
  192.4030  173.0800  142.4560 C   0  0  0  0  0  3  0  0  0  0  0  0
  1  8  1  0  0  0  0
  2  4  2  0  0  0  0
  3  6  1  0  0  0  0
  5  2  1  0  0  0  0
  7 28  1  0  0  0  0
  7 20  1  0  0  0  0
  8 24  1  0  0  0  0
  9 16  1  1  0  0  0
 10 15  1  0  0  0  0
 11 20  1  0  0  0  0
 12 17  2  0  0  0  0
 12 27  1  0  0  0  0
 13  5  2  0  0  0  0
 15 25  1  0  0  0  0
 16 21  1  0  0  0  0
 17  3  1  0  0  0  0
 18 15  1  0  0  0  0
 18  1  1  0  0  0  0
 19 23  1  6  0  0  0
 19  2  1  0  0  0  0
 19  9  1  0  0  0  0
 20 22  1  0  0  0  0
 21  6  1  0  0  0  0
 22 27  1  0  0  0  0
 24 14  1  6  0  0  0
 24  9  1  0  0  0  0
 24 17  1  0  0  0  0
 25 23  1  0  0  0  0
 25  8  2  0  0  0  0
 27 26  1  1  0  0  0
 28 12  1  0  0  0  0
 29 13  1  0  0  0  0
 30 23  2  0  0  0  0
 30 13  1  0  0  0  0
M  END
>  <MODEL>
4

>  <REMARK>
 VINA RESULT:      -8.4      1.441      1.686
  Name = 
  0 active torsions:
  status: ('A' for Active; 'I' for Inactive)
                            x       y       z     vdW  Elec       q    Type
                         _______ _______ _______ _____ _____    ______ ____

>  <TORSDO>
F 0

$$$$
=
 OpenBabel11062419523D

 30 34  0  0  1  0  0  0  0  0999 V2000
  191.7670  176.0050  146.5590 O   0  0  0  0  0  0  0  0  0  0  0  0
  186.6370  176.7320  144.0890 C   0  0  0  0  0  0  0  0  0  0  0  0
  189.9500  172.8230  144.6440 C   0  0  0  0  0  2  0  0  0  0  0  0
  186.2490  176.4170  142.9340 O   0  0  0  0  0  0  0  0  0  0  0  0
  185.6510  177.2700  145.0350 C   0  0  0  0  0  3  0  0  0  0  0  0
  189.3160  172.4510  143.2960 C   0  0  0  0  0  2  0  0  0  0  0  0
  194.7630  174.2760  144.5550 C   0  0  0  0  0  2  0  0  0  0  0  0
  190.6020  176.0700  145.8050 C   0  0  0  0  0  0  0  0  0  0  0  0
  188.8350  175.3430  144.1390 C   0  0  2  0  0  3  0  0  0  0  0  0
  189.8000  178.4700  148.3880 C   0  0  0  0  0  1  0  0  0  0  0  0
  196.2760  172.8540  145.6130 C   0  0  0  0  0  1  0  0  0  0  0  0
  192.2900  173.6580  144.5180 C   0  0  0  0  0  0  0  0  0  0  0  0
  186.0150  177.6650  146.2520 C   0  0  0  0  0  0  0  0  0  0  0  0
  191.0610  176.2190  143.3820 C   0  0  0  0  0  1  0  0  0  0  0  0
  190.2600  177.3040  147.6530 N   0  0  0  0  0  0  0  0  0  0  0  0
  188.5030  174.8110  142.7260 C   0  0  0  0  0  2  0  0  0  0  0  0
  190.9530  173.9540  144.5350 C   0  0  0  0  0  0  0  0  0  0  0  0
  191.6200  176.7910  147.7380 C   0  0  0  0  0  2  0  0  0  0  0  0
  188.1130  176.6830  144.4510 C   0  0  2  0  0  3  0  0  0  0  0  0
  194.8630  173.1560  145.4750 N   0  0  0  0  0  0  0  0  0  0  0  0
  189.3080  173.5920  142.2770 C   0  0  0  0  0  2  0  0  0  0  0  0
  194.2610  172.0250  144.7850 C   0  0  0  0  0  2  0  0  0  0  0  0
  188.3730  177.0700  145.8960 C   0  0  0  0  0  0  0  0  0  0  0  0
  190.3760  175.3860  144.4670 C   0  0  1  0  0  0  0  0  0  0  0  0
  189.7260  176.8390  146.4180 C   0  0  0  0  0  0  0  0  0  0  0  0
  192.3240  171.4720  143.5290 O   0  0  0  0  0  1  0  0  0  0  0  0
  192.7490  172.2050  144.6380 C   0  0  2  0  0  3  0  0  0  0  0  0
  193.3240  174.7710  144.4960 C   0  0  0  0  0  2  0  0  0  0  0  0
  185.0370  178.1820  147.1450 N   0  0  0  0  0  1  0  0  0  0  0  0
  187.4070  177.5310  146.6990 C   0  0  0  0  0  3  0  0  0  0  0  0
  1 18  1  0  0  0  0
  2  5  1  0  0  0  0
  4  2  2  0  0  0  0
  5 13  2  0  0  0  0
  6  3  1  0  0  0  0
  7 20  1  0  0  0  0
  8 25  2  0  0  0  0
  8  1  1  0  0  0  0
  9 16  1  6  0  0  0
  9 19  1  0  0  0  0
  9 24  1  0  0  0  0
 12 17  2  0  0  0  0
 12 27  1  0  0  0  0
 13 30  1  0  0  0  0
 13 29  1  0  0  0  0
 15 18  1  0  0  0  0
 15 10  1  0  0  0  0
 17  3  1  0  0  0  0
 19  2  1  1  0  0  0
 19 23  1  0  0  0  0
 20 11  1  0  0  0  0
 21 16  1  0  0  0  0
 21  6  1  0  0  0  0
 22 20  1  0  0  0  0
 23 25  1  0  0  0  0
 23 30  2  0  0  0  0
 24 14  1  6  0  0  0
 24 17  1  0  0  0  0
 24  8  1  0  0  0  0
 25 15  1  0  0  0  0
 27 26  1  6  0  0  0
 27 22  1  0  0  0  0
 28 12  1  0  0  0  0
 28  7  1  0  0  0  0
M  END
>  <MODEL>
5

>  <REMARK>
 VINA RESULT:      -8.2      2.422      7.530
  Name = 
  0 active torsions:
  status: ('A' for Active; 'I' for Inactive)
                            x       y       z     vdW  Elec       q    Type
                         _______ _______ _______ _____ _____    ______ ____

>  <TORSDO>
F 0

$$$$
=
 OpenBabel11062419523D

 30 34  0  0  1  0  0  0  0  0999 V2000
  189.8400  175.1400  145.4940 O   0  0  0  0  0  0  0  0  0  0  0  0
  186.0880  177.5230  141.8630 C   0  0  0  0  0  0  0  0  0  0  0  0
  188.3430  172.9130  142.3490 C   0  0  0  0  0  2  0  0  0  0  0  0
  186.0880  177.5410  140.6040 O   0  0  0  0  0  0  0  0  0  0  0  0
  184.9280  178.0810  142.5700 C   0  0  0  0  0  3  0  0  0  0  0  0
  188.1750  172.9730  140.8240 C   0  0  0  0  0  2  0  0  0  0  0  0
  193.0420  173.1830  144.1170 C   0  0  0  0  0  2  0  0  0  0  0  0
  189.0410  175.6230  144.4670 C   0  0  0  0  0  0  0  0  0  0  0  0
  187.8830  175.6740  142.2120 C   0  0  2  0  0  3  0  0  0  0  0  0
  187.7640  177.5900  147.2190 C   0  0  0  0  0  1  0  0  0  0  0  0
  193.8450  171.2660  145.1710 C   0  0  0  0  0  1  0  0  0  0  0  0
  190.6770  173.1830  143.1670 C   0  0  0  0  0  0  0  0  0  0  0  0
  184.8970  178.1330  143.8990 C   0  0  0  0  0  0  0  0  0  0  0  0
  190.3400  176.1330  142.4280 C   0  0  0  0  0  1  0  0  0  0  0  0
  188.2660  176.5160  146.3800 N   0  0  0  0  0  0  0  0  0  0  0  0
  187.9920  175.5230  140.6770 C   0  0  0  0  0  2  0  0  0  0  0  0
  189.4830  173.7760  142.8540 C   0  0  0  0  0  0  0  0  0  0  0  0
  189.4110  175.6910  146.7360 C   0  0  0  0  0  2  0  0  0  0  0  0
  187.3160  177.0580  142.6310 C   0  0  2  0  0  3  0  0  0  0  0  0
  192.6360  171.9120  144.6940 N   0  0  0  0  0  0  0  0  0  0  0  0
  188.7040  174.2610  140.1900 C   0  0  0  0  0  2  0  0  0  0  0  0
  192.1480  171.1130  143.5810 C   0  0  0  0  0  2  0  0  0  0  0  0
  187.1070  177.0820  144.1350 C   0  0  0  0  0  0  0  0  0  0  0  0
  189.1970  175.2880  142.9930 C   0  0  1  0  0  0  0  0  0  0  0  0
  188.1350  176.4420  144.9640 C   0  0  0  0  0  0  0  0  0  0  0  0
  190.7170  171.2890  141.6950 O   0  0  0  0  0  1  0  0  0  0  0  0
  190.8330  171.6690  143.0330 C   0  0  2  0  0  3  0  0  0  0  0  0
  191.8120  174.0040  143.7550 C   0  0  0  0  0  2  0  0  0  0  0  0
  183.7610  178.6800  144.5550 N   0  0  0  0  0  1  0  0  0  0  0  0
  186.0040  177.5900  144.6980 C   0  0  0  0  0  3  0  0  0  0  0  0
  1 18  1  0  0  0  0
  2  5  1  0  0  0  0
  3 17  1  0  0  0  0
  4  2  2  0  0  0  0
  5 13  2  0  0  0  0
  6  3  1  0  0  0  0
  7 20  1  0  0  0  0
  8 25  2  0  0  0  0
  8  1  1  0  0  0  0
  9 16  1  6  0  0  0
  9 19  1  0  0  0  0
  9 24  1  0  0  0  0
 12 28  1  0  0  0  0
 13 29  1  0  0  0  0
 13 30  1  0  0  0  0
 15 18  1  0  0  0  0
 15 10  1  0  0  0  0
 17 24  1  0  0  0  0
 17 12  2  0  0  0  0
 19  2  1  6  0  0  0
 19 23  1  0  0  0  0
 20 11  1  0  0  0  0
 21 16  1  0  0  0  0
 21  6  1  0  0  0  0
 22 20  1  0  0  0  0
 23 30  2  0  0  0  0
 23 25  1  0  0  0  0
 24 14  1  6  0  0  0
 24  8  1  0  0  0  0
 25 15  1  0  0  0  0
 27 26  1  6  0  0  0
 27 12  1  0  0  0  0
 27 22  1  0  0  0  0
 28  7  1  0  0  0  0
M  END
>  <MODEL>
6

>  <REMARK>
 VINA RESULT:      -8.2      2.064      7.447
  Name = 
  0 active torsions:
  status: ('A' for Active; 'I' for Inactive)
                            x       y       z     vdW  Elec       q    Type
                         _______ _______ _______ _____ _____    ______ ____

>  <TORSDO>
F 0

$$$$
=
 OpenBabel11062419523D

 30 34  0  0  1  0  0  0  0  0999 V2000
  190.4220  174.3520  142.4880 O   0  0  0  0  0  0  0  0  0  0  0  0
  187.3340  177.4980  146.1650 C   0  0  0  0  0  0  0  0  0  0  0  0
  192.3320  176.4130  145.5210 C   0  0  0  0  0  2  0  0  0  0  0  0
  187.3630  177.5220  147.4230 O   0  0  0  0  0  0  0  0  0  0  0  0
  186.4870  178.4730  145.4650 C   0  0  0  0  0  3  0  0  0  0  0  0
  192.2890  176.5950  147.0440 C   0  0  0  0  0  2  0  0  0  0  0  0
  193.1450  171.7490  143.8250 C   0  0  0  0  0  2  0  0  0  0  0  0
  189.7970  175.0340  143.5240 C   0  0  0  0  0  0  0  0  0  0  0  0
  189.5490  176.1950  145.7630 C   0  0  2  0  0  3  0  0  0  0  0  0
  187.4810  175.7360  140.8370 C   0  0  0  0  0  1  0  0  0  0  0  0
  195.1590  171.4090  142.7040 C   0  0  0  0  0  1  0  0  0  0  0  0
  192.6060  174.0650  144.7440 C   0  0  0  0  0  0  0  0  0  0  0  0
  186.3810  178.4610  144.1400 C   0  0  0  0  0  0  0  0  0  0  0  0
  189.6910  173.6960  145.5980 C   0  0  0  0  0  1  0  0  0  0  0  0
  188.6740  175.5280  141.6390 N   0  0  0  0  0  0  0  0  0  0  0  0
  189.7780  176.1610  147.2920 C   0  0  0  0  0  2  0  0  0  0  0  0
  191.7530  175.0870  145.0660 C   0  0  0  0  0  0  0  0  0  0  0  0
  189.7380  174.6080  141.2640 C   0  0  0  0  0  2  0  0  0  0  0  0
  188.0550  176.4020  145.3940 C   0  0  2  0  0  3  0  0  0  0  0  0
  194.2570  172.4370  143.1910 N   0  0  0  0  0  0  0  0  0  0  0  0
  191.1920  175.7850  147.7370 C   0  0  0  0  0  2  0  0  0  0  0  0
  194.9550  173.1280  144.2650 C   0  0  0  0  0  2  0  0  0  0  0  0
  187.9260  176.5650  143.8890 C   0  0  0  0  0  0  0  0  0  0  0  0
  190.2130  174.9960  144.9840 C   0  0  1  0  0  0  0  0  0  0  0  0
  188.7660  175.7040  143.0480 C   0  0  0  0  0  0  0  0  0  0  0  0
  194.5060  174.5160  146.1380 O   0  0  0  0  0  1  0  0  0  0  0  0
  194.1170  174.2830  144.8180 C   0  0  2  0  0  3  0  0  0  0  0  0
  192.0640  172.7530  144.2040 C   0  0  0  0  0  2  0  0  0  0  0  0
  185.5510  179.4160  143.4920 N   0  0  0  0  0  1  0  0  0  0  0  0
  187.1460  177.5000  143.3340 C   0  0  0  0  0  3  0  0  0  0  0  0
  1  8  1  0  0  0  0
  2  4  2  0  0  0  0
  3  6  1  0  0  0  0
  5  2  1  0  0  0  0
  6 21  1  0  0  0  0
  7 28  1  0  0  0  0
  8 24  1  0  0  0  0
  9 16  1  1  0  0  0
 10 15  1  0  0  0  0
 11 20  1  0  0  0  0
 12 27  1  0  0  0  0
 12 17  2  0  0  0  0
 13  5  2  0  0  0  0
 15 25  1  0  0  0  0
 16 21  1  0  0  0  0
 17  3  1  0  0  0  0
 18 15  1  0  0  0  0
 18  1  1  0  0  0  0
 19 23  1  6  0  0  0
 19  9  1  0  0  0  0
 19  2  1  0  0  0  0
 20  7  1  0  0  0  0
 20 22  1  0  0  0  0
 22 27  1  0  0  0  0
 24 17  1  0  0  0  0
 24 14  1  1  0  0  0
 24  9  1  0  0  0  0
 25  8  2  0  0  0  0
 25 23  1  0  0  0  0
 27 26  1  1  0  0  0
 28 12  1  0  0  0  0
 29 13  1  0  0  0  0
 30 23  2  0  0  0  0
 30 13  1  0  0  0  0
M  END
>  <MODEL>
7

>  <REMARK>
 VINA RESULT:      -8.2      1.737      6.734
  Name = 
  0 active torsions:
  status: ('A' for Active; 'I' for Inactive)
                            x       y       z     vdW  Elec       q    Type
                         _______ _______ _______ _____ _____    ______ ____

>  <TORSDO>
F 0

$$$$
=
 OpenBabel11062419523D

 30 34  0  0  1  0  0  0  0  0999 V2000
  191.0230  172.8490  143.5840 O   0  0  0  0  0  0  0  0  0  0  0  0
  196.3240  173.0640  145.7770 C   0  0  0  0  0  0  0  0  0  0  0  0
  191.8000  175.3050  146.8180 C   0  0  0  0  0  2  0  0  0  0  0  0
  197.0360  174.0620  146.0600 O   0  0  0  0  0  0  0  0  0  0  0  0
  196.8150  171.7280  146.1380 C   0  0  0  0  0  3  0  0  0  0  0  0
  192.7610  176.4160  147.2630 C   0  0  0  0  0  2  0  0  0  0  0  0
  189.0450  176.2110  142.7090 C   0  0  0  0  0  2  0  0  0  0  0  0
  192.2760  173.1050  144.1250 C   0  0  0  0  0  0  0  0  0  0  0  0
  194.0500  174.2950  145.4890 C   0  0  2  0  0  3  0  0  0  0  0  0
  192.6910  169.6270  143.2270 C   0  0  0  0  0  1  0  0  0  0  0  0
  186.7470  176.3940  143.0440 C   0  0  0  0  0  1  0  0  0  0  0  0
  190.5630  175.7590  144.7070 C   0  0  0  0  0  0  0  0  0  0  0  0
  196.1270  170.6360  145.8190 C   0  0  0  0  0  0  0  0  0  0  0  0
  193.2330  175.2320  143.3100 C   0  0  0  0  0  1  0  0  0  0  0  0
  192.1780  170.8970  143.7090 N   0  0  0  0  0  0  0  0  0  0  0  0
  194.7510  175.6230  145.8600 C   0  0  0  0  0  2  0  0  0  0  0  0
  191.6620  175.2090  145.3100 C   0  0  0  0  0  0  0  0  0  0  0  0
  190.9080  171.4620  143.2750 C   0  0  0  0  0  2  0  0  0  0  0  0
  195.0490  173.2270  144.9630 C   0  0  2  0  0  3  0  0  0  0  0  0
  187.9820  175.9500  143.6640 N   0  0  0  0  0  0  0  0  0  0  0  0
  193.8180  176.7800  146.2180 C   0  0  0  0  0  2  0  0  0  0  0  0
  188.2300  176.8440  144.7840 C   0  0  0  0  0  2  0  0  0  0  0  0
  194.3170  171.9140  144.7540 C   0  0  0  0  0  0  0  0  0  0  0  0
  192.7900  174.4670  144.5590 C   0  0  1  0  0  0  0  0  0  0  0  0
  192.9660  171.9830  144.1830 C   0  0  0  0  0  0  0  0  0  0  0  0
  190.0040  177.5600  146.1910 O   0  0  0  0  0  1  0  0  0  0  0  0
  189.4850  176.4310  145.5570 C   0  0  2  0  0  3  0  0  0  0  0  0
  190.3510  175.6080  143.2110 C   0  0  0  0  0  2  0  0  0  0  0  0
  196.6290  169.3560  146.1810 N   0  0  0  0  0  1  0  0  0  0  0  0
  194.8300  170.7390  145.1370 C   0  0  0  0  0  3  0  0  0  0  0  0
  1  8  1  0  0  0  0
  2  4  2  0  0  0  0
  2  5  1  0  0  0  0
  3  6  1  0  0  0  0
  7 28  1  0  0  0  0
  7 20  1  0  0  0  0
  8 25  2  0  0  0  0
  8 24  1  0  0  0  0
  9 16  1  6  0  0  0
 10 15  1  0  0  0  0
 11 20  1  0  0  0  0
 12 17  2  0  0  0  0
 12 27  1  0  0  0  0
 13  5  2  0  0  0  0
 13 29  1  0  0  0  0
 15 25  1  0  0  0  0
 16 21  1  0  0  0  0
 17  3  1  0  0  0  0
 18  1  1  0  0  0  0
 18 15  1  0  0  0  0
 19 23  1  1  0  0  0
 19  9  1  0  0  0  0
 19  2  1  0  0  0  0
 20 22  1  0  0  0  0
 21  6  1  0  0  0  0
 22 27  1  0  0  0  0
 23 30  2  0  0  0  0
 24 14  1  6  0  0  0
 24 17  1  0  0  0  0
 24  9  1  0  0  0  0
 25 23  1  0  0  0  0
 27 26  1  6  0  0  0
 28 12  1  0  0  0  0
 30 13  1  0  0  0  0
M  END
>  <MODEL>
8

>  <REMARK>
 VINA RESULT:      -7.9      2.482      4.206
  Name = 
  0 active torsions:
  status: ('A' for Active; 'I' for Inactive)
                            x       y       z     vdW  Elec       q    Type
                         _______ _______ _______ _____ _____    ______ ____

>  <TORSDO>
F 0

$$$$
=
 OpenBabel11062419523D

 30 34  0  0  1  0  0  0  0  0999 V2000
  190.6610  176.6620  146.2510 O   0  0  0  0  0  0  0  0  0  0  0  0
  192.5270  174.3930  141.3190 C   0  0  0  0  0  0  0  0  0  0  0  0
  188.8410  177.7250  142.6940 C   0  0  0  0  0  2  0  0  0  0  0  0
  191.8770  173.8510  140.3880 O   0  0  0  0  0  0  0  0  0  0  0  0
  193.9680  174.6100  141.1340 C   0  0  0  0  0  3  0  0  0  0  0  0
  188.1860  177.0920  141.4570 C   0  0  0  0  0  2  0  0  0  0  0  0
  186.7650  176.6560  147.1470 C   0  0  0  0  0  2  0  0  0  0  0  0
  190.9120  176.0920  145.0090 C   0  0  0  0  0  0  0  0  0  0  0  0
  190.5330  175.4950  142.5750 C   0  0  2  0  0  3  0  0  0  0  0  0
  194.2450  176.0180  146.4100 C   0  0  0  0  0  1  0  0  0  0  0  0
  185.7690  178.4440  148.2610 C   0  0  0  0  0  1  0  0  0  0  0  0
  187.8500  177.0540  144.8750 C   0  0  0  0  0  0  0  0  0  0  0  0
  194.7110  175.1340  142.1040 C   0  0  0  0  0  0  0  0  0  0  0  0
  189.2450  174.3710  144.4110 C   0  0  0  0  0  1  0  0  0  0  0  0
  192.9040  176.4030  146.0070 N   0  0  0  0  0  0  0  0  0  0  0  0
  189.5770  174.9420  141.4930 C   0  0  0  0  0  2  0  0  0  0  0  0
  188.7970  176.8250  143.9130 C   0  0  0  0  0  0  0  0  0  0  0  0
  191.8890  176.8620  146.9450 C   0  0  0  0  0  2  0  0  0  0  0  0
  191.8630  174.6940  142.6540 C   0  0  2  0  0  3  0  0  0  0  0  0
  186.6690  178.1060  147.1740 N   0  0  0  0  0  0  0  0  0  0  0  0
  188.1800  175.5620  141.4720 C   0  0  0  0  0  2  0  0  0  0  0  0
  185.9900  178.4780  145.9420 C   0  0  0  0  0  2  0  0  0  0  0  0
  192.8020  175.3750  143.6340 C   0  0  0  0  0  0  0  0  0  0  0  0
  189.8600  175.7050  143.9850 C   0  0  1  0  0  0  0  0  0  0  0  0
  192.2100  175.9160  144.8640 C   0  0  0  0  0  0  0  0  0  0  0  0
  186.0540  178.0210  143.6130 O   0  0  0  0  0  1  0  0  0  0  0  0
  186.8770  178.2220  144.7210 C   0  0  2  0  0  3  0  0  0  0  0  0
  187.8320  176.2270  146.1490 C   0  0  0  0  0  2  0  0  0  0  0  0
  196.1040  175.3300  141.8950 N   0  0  0  0  0  1  0  0  0  0  0  0
  194.1030  175.5530  143.3730 C   0  0  0  0  0  3  0  0  0  0  0  0
  1 18  1  0  0  0  0
  3 17  1  0  0  0  0
  4  2  2  0  0  0  0
  5  2  1  0  0  0  0
  5 13  2  0  0  0  0
  6 21  1  0  0  0  0
  6  3  1  0  0  0  0
  7 20  1  0  0  0  0
  8  1  1  0  0  0  0
  9 16  1  6  0  0  0
  9 19  1  0  0  0  0
  9 24  1  0  0  0  0
 12 28  1  0  0  0  0
 13 30  1  0  0  0  0
 15 10  1  0  0  0  0
 15 18  1  0  0  0  0
 17 24  1  0  0  0  0
 17 12  2  0  0  0  0
 19  2  1  6  0  0  0
 19 23  1  0  0  0  0
 20 11  1  0  0  0  0
 21 16  1  0  0  0  0
 22 20  1  0  0  0  0
 23 25  1  0  0  0  0
 24 14  1  1  0  0  0
 24  8  1  0  0  0  0
 25  8  2  0  0  0  0
 25 15  1  0  0  0  0
 27 26  1  6  0  0  0
 27 12  1  0  0  0  0
 27 22  1  0  0  0  0
 28  7  1  0  0  0  0
 29 13  1  0  0  0  0
 30 23  2  0  0  0  0
M  END
>  <MODEL>
9

>  <REMARK>
 VINA RESULT:      -7.8      2.576      4.515
  Name = 
  0 active torsions:
  status: ('A' for Active; 'I' for Inactive)
                            x       y       z     vdW  Elec       q    Type
                         _______ _______ _______ _____ _____    ______ ____

>  <TORSDO>
F 0

$$$$
