=
 OpenBabel11062421193D

 51 56  0  0  1  0  0  0  0  0999 V2000
  191.2570  172.6320  140.8760 C   0  0  1  0  0  3  0  0  0  0  0  0
  193.5370  169.1830  144.5790 C   0  0  0  0  0  2  0  0  0  0  0  0
  195.3100  171.0480  144.5540 C   0  0  2  0  0  3  0  0  0  0  0  0
  192.1580  172.9330  139.6890 C   0  0  0  0  0  2  0  0  0  0  0  0
  192.9560  170.0180  143.4230 C   0  0  1  0  0  3  0  0  0  0  0  0
  194.8890  169.6890  145.1380 C   0  0  1  0  0  3  0  0  0  0  0  0
  192.0560  172.4370  142.0030 O   0  0  0  0  0  0  0  0  0  0  0  0
  195.3620  171.6430  139.4650 C   0  0  0  0  0  1  0  0  0  0  0  0
  190.2730  173.7730  141.1720 C   0  0  0  0  0  2  0  0  0  0  0  0
  192.9370  171.7460  139.3310 N   0  0  0  0  0  2  0  0  0  0  0  0
  191.2420  171.7690  142.9160 C   0  0  1  0  0  3  0  0  0  0  0  0
  193.9660  170.3130  141.0220 C   0  0  0  0  0  2  0  0  0  0  0  0
  192.1140  171.1610  144.0020 C   0  0  0  0  0  2  0  0  0  0  0  0
  194.0610  170.5180  142.5110 C   0  0  0  0  0  0  0  0  0  0  0  0
  194.0680  171.6240  140.2500 C   0  0  1  0  0  3  0  0  0  0  0  0
  189.6930  173.6320  142.5760 C   0  0  0  0  0  0  0  0  0  0  0  0
  195.1810  171.0100  143.0550 C   0  0  0  0  0  3  0  0  0  0  0  0
  190.2140  172.7390  143.4350 C   0  0  0  0  0  3  0  0  0  0  0  0
  196.7000  171.4750  145.0420 C   0  0  2  0  0  3  0  0  0  0  0  0
  197.5910  170.4010  144.9970 O   0  0  0  0  0  1  0  0  0  0  0  0
  196.7040  172.1420  146.4170 C   0  0  0  0  0  2  0  0  0  0  0  0
  197.0960  173.5060  146.3000 O   0  0  0  0  0  0  0  0  0  0  0  0
  196.6380  175.8310  142.8130 C   0  0  0  0  0  0  0  0  0  0  0  0
  197.9350  174.3470  144.2260 C   0  0  0  0  0  3  0  0  0  0  0  0
  195.6030  175.8000  143.7510 C   0  0  0  0  0  3  0  0  0  0  0  0
  195.7170  175.0440  144.9250 C   0  0  0  0  0  0  0  0  0  0  0  0
  197.8120  175.1070  143.0630 C   0  0  0  0  0  3  0  0  0  0  0  0
  196.8920  174.2870  145.1580 C   0  0  0  0  0  0  0  0  0  0  0  0
  196.4830  176.6050  141.6550 O   0  0  0  0  0  0  0  0  0  0  0  0
  195.1090  175.3380  140.1270 C   0  0  0  0  0  1  0  0  0  0  0  0
  196.4290  176.0480  140.3480 C   0  0  0  0  0  2  0  0  0  0  0  0
  194.6080  175.1420  145.9190 C   0  0  0  0  0  2  0  0  0  0  0  0
  193.6090  174.0190  145.7160 C   0  0  0  0  0  2  0  0  0  0  0  0
  192.2210  174.6060  145.5600 C   0  0  0  0  0  2  0  0  0  0  0  0
  191.3260  176.6110  146.3830 C   0  0  0  0  0  2  0  0  0  0  0  0
  192.3060  176.0540  145.4570 N   0  0  0  0  0  0  0  0  0  0  0  0
  190.1760  177.1740  145.5860 C   0  0  0  0  0  2  0  0  0  0  0  0
  191.8670  176.4060  144.1120 C   0  0  0  0  0  2  0  0  0  0  0  0
  190.7580  177.4150  144.2190 C   0  0  0  0  0  2  0  0  0  0  0  0
  194.9410  168.4390  146.9710 C   0  0  0  0  0  1  0  0  0  0  0  0
  194.8260  169.7620  146.5380 O   0  0  0  0  0  0  0  0  0  0  0  0
  188.7530  174.5940  143.0600 N   0  0  0  0  0  0  0  0  0  0  0  0
  188.0300  175.4600  142.2190 N   0  0  0  0  0  0  0  0  0  0  0  0
  186.2020  176.8430  141.8420 O   0  0  0  0  0  0  0  0  0  0  0  0
  186.7900  176.5260  144.0850 N   0  0  0  0  0  2  0  0  0  0  0  0
  186.9670  176.2970  142.6820 C   0  0  0  0  0  0  0  0  0  0  0  0
  185.2430  178.5940  146.9120 C   0  0  0  0  0  2  0  0  0  0  0  0
  185.3620  176.8640  146.3580 S   0  0  0  0  0  0  0  0  0  0  0  0
  185.7630  177.3760  144.6650 C   0  0  1  0  0  3  0  0  0  0  0  0
  185.3140  179.4970  145.7040 C   0  0  0  0  0  2  0  0  0  0  0  0
  186.1920  178.8210  144.6890 C   0  0  0  0  0  2  0  0  0  0  0  0
  1  4  1  6  0  0  0
  1  9  1  0  0  0  0
  1  7  1  0  0  0  0
  2  6  1  0  0  0  0
  3 19  1  6  0  0  0
  3  6  1  0  0  0  0
  5 13  1  1  0  0  0
  5  2  1  0  0  0  0
  6 41  1  1  0  0  0
  7 11  1  0  0  0  0
  9 16  1  0  0  0  0
 10  4  1  0  0  0  0
 10 15  1  0  0  0  0
 11 18  1  1  0  0  0
 11 13  1  0  0  0  0
 12 14  1  0  0  0  0
 14 17  2  0  0  0  0
 14  5  1  0  0  0  0
 15  8  1  6  0  0  0
 15 12  1  0  0  0  0
 16 42  1  0  0  0  0
 16 18  2  0  0  0  0
 17  3  1  0  0  0  0
 19 20  1  1  0  0  0
 19 21  1  0  0  0  0
 22 21  1  0  0  0  0
 23 27  2  0  0  0  0
 23 25  1  0  0  0  0
 24 28  2  0  0  0  0
 25 26  2  0  0  0  0
 26 28  1  0  0  0  0
 26 32  1  0  0  0  0
 27 24  1  0  0  0  0
 28 22  1  0  0  0  0
 29 23  1  0  0  0  0
 30 31  1  0  0  0  0
 31 29  1  0  0  0  0
 33 32  1  0  0  0  0
 34 33  1  0  0  0  0
 36 34  1  0  0  0  0
 36 35  1  0  0  0  0
 37 35  1  0  0  0  0
 38 39  1  0  0  0  0
 38 36  1  0  0  0  0
 39 37  1  0  0  0  0
 41 40  1  0  0  0  0
 43 46  1  0  0  0  0
 43 42  2  0  0  0  0
 44 46  2  0  0  0  0
 46 45  1  0  0  0  0
 48 47  1  0  0  0  0
 49 45  1  1  0  0  0
 49 51  1  0  0  0  0
 49 48  1  0  0  0  0
 50 47  1  0  0  0  0
 51 50  1  0  0  0  0
M  END
>  <MODEL>
1

>  <REMARK>
 VINA RESULT:      -6.9      0.000      0.000
  Name = 
  14 active torsions:
  status: ('A' for Active; 'I' for Inactive)
    1  A    between atoms: C_4  and  O_9
    2  A    between atoms: C_4  and  C_20
    3  A    between atoms: C_5  and  C_20
    4  A    between atoms: C_8  and  O_28
    5  A    between atoms: O_9  and  C_51
    6  A    between atoms: N_10  and  C_35
    7  A    between atoms: C_12  and  O_25
    8  A    between atoms: N_14  and  N_29
    9  A    between atoms: N_14  and  C_37
   10  A    between atoms: C_16  and  C_35
   11  A    between atoms: C_16  and  C_42
   12  A    between atoms: C_27  and  N_43
   13  A    between atoms: O_28  and  C_45
   14  A    between atoms: C_41  and  C_42
                            x       y       z     vdW  Elec       q    Type
                         _______ _______ _______ _____ _____    ______ ____

>  <TORSDO>
F 14

$$$$
=
 OpenBabel11062421193D

 51 56  0  0  1  0  0  0  0  0999 V2000
  194.5790  175.1520  144.0580 C   0  0  1  0  0  3  0  0  0  0  0  0
  189.8320  173.2230  141.9230 C   0  0  0  0  0  2  0  0  0  0  0  0
  189.0740  175.5730  142.6490 C   0  0  2  0  0  3  0  0  0  0  0  0
  194.4580  175.5970  145.5070 C   0  0  0  0  0  2  0  0  0  0  0  0
  191.1170  173.6470  142.6590 C   0  0  1  0  0  3  0  0  0  0  0  0
  188.6660  174.2390  142.0030 C   0  0  1  0  0  3  0  0  0  0  0  0
  193.3630  175.3950  143.4150 O   0  0  0  0  0  0  0  0  0  0  0  0
  191.4380  175.4980  147.1950 C   0  0  0  0  0  1  0  0  0  0  0  0
  195.6840  175.9030  143.3020 C   0  0  0  0  0  2  0  0  0  0  0  0
  193.5310  174.7240  146.2290 N   0  0  0  0  0  2  0  0  0  0  0  0
  193.3950  174.6060  142.2670 C   0  0  1  0  0  3  0  0  0  0  0  0
  191.4260  173.9710  145.2420 C   0  0  0  0  0  2  0  0  0  0  0  0
  191.9850  174.4860  141.7140 C   0  0  0  0  0  2  0  0  0  0  0  0
  190.7840  174.3830  143.9440 C   0  0  0  0  0  0  0  0  0  0  0  0
  192.1600  175.1250  145.9170 C   0  0  1  0  0  3  0  0  0  0  0  0
  195.5060  175.7460  141.7950 C   0  0  0  0  0  0  0  0  0  0  0  0
  189.8100  175.3020  143.9340 C   0  0  0  0  0  3  0  0  0  0  0  0
  194.3780  175.2100  141.3000 C   0  0  0  0  0  3  0  0  0  0  0  0
  187.8770  176.5190  142.8140 C   0  0  2  0  0  3  0  0  0  0  0  0
  186.6820  175.8000  142.8650 O   0  0  0  0  0  1  0  0  0  0  0  0
  187.8120  177.6330  141.7690 C   0  0  0  0  0  2  0  0  0  0  0  0
  186.8420  178.6040  142.1460 O   0  0  0  0  0  0  0  0  0  0  0  0
  182.7600  178.2580  141.1520 C   0  0  0  0  0  0  0  0  0  0  0  0
  185.1100  178.1170  140.5720 C   0  0  0  0  0  3  0  0  0  0  0  0
  183.1140  178.6660  142.4390 C   0  0  0  0  0  3  0  0  0  0  0  0
  184.4590  178.7980  142.8100 C   0  0  0  0  0  0  0  0  0  0  0  0
  183.7680  177.9940  140.2140 C   0  0  0  0  0  3  0  0  0  0  0  0
  185.4750  178.4990  141.8680 C   0  0  0  0  0  0  0  0  0  0  0  0
  181.4020  178.1430  140.8230 O   0  0  0  0  0  0  0  0  0  0  0  0
  179.2200  179.1770  140.7670 C   0  0  0  0  0  1  0  0  0  0  0  0
  180.3580  178.6700  141.6310 C   0  0  0  0  0  2  0  0  0  0  0  0
  184.7510  179.3330  144.1720 C   0  0  0  0  0  2  0  0  0  0  0  0
  184.3260  178.3380  145.2360 C   0  0  0  0  0  2  0  0  0  0  0  0
  184.8200  178.8120  146.5880 C   0  0  0  0  0  2  0  0  0  0  0  0
  186.6970  178.2760  147.8860 C   0  0  0  0  0  2  0  0  0  0  0  0
  185.4920  177.7220  147.2780 N   0  0  0  0  0  0  0  0  0  0  0  0
  187.8950  177.7890  147.1110 C   0  0  0  0  0  2  0  0  0  0  0  0
  185.9270  176.7810  146.2530 C   0  0  0  0  0  2  0  0  0  0  0  0
  187.4040  176.5490  146.4130 C   0  0  0  0  0  2  0  0  0  0  0  0
  188.9000  173.6450  139.8780 C   0  0  0  0  0  1  0  0  0  0  0  0
  188.1430  174.4610  140.7200 O   0  0  0  0  0  0  0  0  0  0  0  0
  196.4290  176.3710  140.8980 N   0  0  0  0  0  2  0  0  0  0  0  0
  197.3940  175.6590  140.1630 N   0  0  0  0  0  2  0  0  0  0  0  0
  197.9410  174.1720  138.4630 O   0  0  0  0  0  0  0  0  0  0  0  0
  195.8990  175.2880  138.2180 N   0  0  0  0  0  2  0  0  0  0  0  0
  197.1090  174.9980  138.9270 C   0  0  0  0  0  0  0  0  0  0  0  0
  193.6220  174.8890  135.1650 C   0  0  0  0  0  2  0  0  0  0  0  0
  193.7440  174.3280  136.8930 S   0  0  0  0  0  0  0  0  0  0  0  0
  195.5190  174.6980  136.9460 C   0  0  1  0  0  3  0  0  0  0  0  0
  195.0140  175.1420  134.6380 C   0  0  0  0  0  2  0  0  0  0  0  0
  195.8540  175.6090  135.7930 C   0  0  0  0  0  2  0  0  0  0  0  0
  1  9  1  6  0  0  0
  1  4  1  0  0  0  0
  2  6  1  0  0  0  0
  2  5  1  0  0  0  0
  3 19  1  1  0  0  0
  3 17  1  0  0  0  0
  4 10  1  0  0  0  0
  5 13  1  6  0  0  0
  5 14  1  0  0  0  0
  6 41  1  6  0  0  0
  6  3  1  0  0  0  0
  7  1  1  0  0  0  0
 11 18  1  6  0  0  0
 11  7  1  0  0  0  0
 12 15  1  0  0  0  0
 13 11  1  0  0  0  0
 14 12  1  0  0  0  0
 15 10  1  0  0  0  0
 15  8  1  1  0  0  0
 16  9  1  0  0  0  0
 17 14  2  0  0  0  0
 18 16  2  0  0  0  0
 19 20  1  6  0  0  0
 21 22  1  0  0  0  0
 21 19  1  0  0  0  0
 23 25  1  0  0  0  0
 24 28  2  0  0  0  0
 25 26  2  0  0  0  0
 26 32  1  0  0  0  0
 27 24  1  0  0  0  0
 27 23  2  0  0  0  0
 28 22  1  0  0  0  0
 28 26  1  0  0  0  0
 29 23  1  0  0  0  0
 29 31  1  0  0  0  0
 30 31  1  0  0  0  0
 32 33  1  0  0  0  0
 33 34  1  0  0  0  0
 34 36  1  0  0  0  0
 36 35  1  0  0  0  0
 37 35  1  0  0  0  0
 38 39  1  0  0  0  0
 38 36  1  0  0  0  0
 39 37  1  0  0  0  0
 40 41  1  0  0  0  0
 42 16  1  0  0  0  0
 43 42  1  0  0  0  0
 44 46  2  0  0  0  0
 45 46  1  0  0  0  0
 46 43  1  0  0  0  0
 47 48  1  0  0  0  0
 48 49  1  0  0  0  0
 49 45  1  1  0  0  0
 50 47  1  0  0  0  0
 50 51  1  0  0  0  0
 51 49  1  0  0  0  0
M  END
>  <MODEL>
2

>  <REMARK>
 VINA RESULT:      -6.9      3.872     10.169
  Name = 
  14 active torsions:
  status: ('A' for Active; 'I' for Inactive)
    1  A    between atoms: C_4  and  O_9
    2  A    between atoms: C_4  and  C_20
    3  A    between atoms: C_5  and  C_20
    4  A    between atoms: C_8  and  O_28
    5  A    between atoms: O_9  and  C_51
    6  A    between atoms: N_10  and  C_35
    7  A    between atoms: C_12  and  O_25
    8  A    between atoms: N_14  and  N_29
    9  A    between atoms: N_14  and  C_37
   10  A    between atoms: C_16  and  C_35
   11  A    between atoms: C_16  and  C_42
   12  A    between atoms: C_27  and  N_43
   13  A    between atoms: O_28  and  C_45
   14  A    between atoms: C_41  and  C_42
                            x       y       z     vdW  Elec       q    Type
                         _______ _______ _______ _____ _____    ______ ____

>  <TORSDO>
F 14

$$$$
=
 OpenBabel11062421193D

 51 56  0  0  1  0  0  0  0  0999 V2000
  188.8470  174.2400  142.4560 C   0  0  1  0  0  3  0  0  0  0  0  0
  192.4830  175.1860  146.5410 C   0  0  0  0  0  2  0  0  0  0  0  0
  194.1050  174.6890  144.6050 C   0  0  2  0  0  3  0  0  0  0  0  0
  189.0030  172.8740  141.8060 C   0  0  0  0  0  2  0  0  0  0  0  0
  191.4410  174.7620  145.4900 C   0  0  1  0  0  3  0  0  0  0  0  0
  193.9590  175.0490  146.0930 C   0  0  1  0  0  3  0  0  0  0  0  0
  190.1050  174.6840  142.8660 O   0  0  0  0  0  0  0  0  0  0  0  0
  191.5000  170.6780  142.7660 C   0  0  0  0  0  1  0  0  0  0  0  0
  188.2550  175.2840  141.4970 C   0  0  0  0  0  2  0  0  0  0  0  0
  189.3850  171.8780  142.8080 N   0  0  0  0  0  2  0  0  0  0  0  0
  189.8510  175.6910  143.7960 C   0  0  1  0  0  3  0  0  0  0  0  0
  191.0460  172.3510  144.5370 C   0  0  0  0  0  2  0  0  0  0  0  0
  191.1180  175.9590  144.5890 C   0  0  0  0  0  2  0  0  0  0  0  0
  191.9290  173.5600  144.7020 C   0  0  0  0  0  0  0  0  0  0  0  0
  190.8190  171.9950  143.0720 C   0  0  1  0  0  3  0  0  0  0  0  0
  188.4970  176.6950  142.0230 C   0  0  0  0  0  0  0  0  0  0  0  0
  193.2000  173.5300  144.2800 C   0  0  0  0  0  3  0  0  0  0  0  0
  189.3270  176.8950  143.0610 C   0  0  0  0  0  3  0  0  0  0  0  0
  195.5690  174.4540  144.2140 C   0  0  2  0  0  3  0  0  0  0  0  0
  196.4020  174.5500  145.3300 O   0  0  0  0  0  1  0  0  0  0  0  0
  196.0630  175.3450  143.0740 C   0  0  0  0  0  2  0  0  0  0  0  0
  196.1830  174.5880  141.8750 O   0  0  0  0  0  0  0  0  0  0  0  0
  192.8800  172.8340  139.9280 C   0  0  0  0  0  0  0  0  0  0  0  0
  194.0800  174.7730  140.7540 C   0  0  0  0  0  3  0  0  0  0  0  0
  193.8920  172.0110  140.4260 C   0  0  0  0  0  3  0  0  0  0  0  0
  195.0050  172.5520  141.0840 C   0  0  0  0  0  0  0  0  0  0  0  0
  192.9750  174.2220  140.1060 C   0  0  0  0  0  3  0  0  0  0  0  0
  195.1130  173.9580  141.2320 C   0  0  0  0  0  0  0  0  0  0  0  0
  191.7830  172.2490  139.2800 O   0  0  0  0  0  0  0  0  0  0  0  0
  189.5880  172.2440  138.2760 C   0  0  0  0  0  1  0  0  0  0  0  0
  190.9090  172.9710  138.4230 C   0  0  0  0  0  2  0  0  0  0  0  0
  195.9910  171.5990  141.6710 C   0  0  0  0  0  2  0  0  0  0  0  0
  195.4530  171.0020  142.9580 C   0  0  0  0  0  2  0  0  0  0  0  0
  196.5540  170.9830  143.9990 C   0  0  0  0  0  2  0  0  0  0  0  0
  196.8410  170.2780  146.2160 C   0  0  0  0  0  2  0  0  0  0  0  0
  195.9750  171.0500  145.3310 N   0  0  0  0  0  0  0  0  0  0  0  0
  196.1390  168.9940  146.5770 C   0  0  0  0  0  2  0  0  0  0  0  0
  194.6980  170.3500  145.2700 C   0  0  0  0  0  2  0  0  0  0  0  0
  194.6830  169.2890  146.3350 C   0  0  0  0  0  2  0  0  0  0  0  0
  194.0530  177.2010  145.5630 C   0  0  0  0  0  1  0  0  0  0  0  0
  194.6520  176.2360  146.3750 O   0  0  0  0  0  0  0  0  0  0  0  0
  188.0280  177.8240  141.2810 N   0  0  0  0  0  2  0  0  0  0  0  0
  186.6680  178.0630  141.0150 N   0  0  0  0  0  2  0  0  0  0  0  0
  184.4340  177.9010  141.6310 O   0  0  0  0  0  0  0  0  0  0  0  0
  185.9800  177.8390  143.3870 N   0  0  0  0  0  2  0  0  0  0  0  0
  185.6400  177.9260  141.9990 C   0  0  0  0  0  0  0  0  0  0  0  0
  184.9170  178.0270  147.0620 C   0  0  0  0  0  2  0  0  0  0  0  0
  185.7440  176.8870  145.9090 S   0  0  0  0  0  0  0  0  0  0  0  0
  185.0190  177.7240  144.4730 C   0  0  1  0  0  3  0  0  0  0  0  0
  183.9440  178.8810  146.2850 C   0  0  0  0  0  2  0  0  0  0  0  0
  184.5160  179.0760  144.9090 C   0  0  0  0  0  2  0  0  0  0  0  0
  1  9  1  6  0  0  0
  1  7  1  0  0  0  0
  3 19  1  1  0  0  0
  3  6  1  0  0  0  0
  4  1  1  0  0  0  0
  4 10  1  0  0  0  0
  5 13  1  6  0  0  0
  5  2  1  0  0  0  0
  6 41  1  6  0  0  0
  6  2  1  0  0  0  0
  7 11  1  0  0  0  0
  9 16  1  0  0  0  0
 10 15  1  0  0  0  0
 11 18  1  6  0  0  0
 11 13  1  0  0  0  0
 12 14  1  0  0  0  0
 14  5  1  0  0  0  0
 15  8  1  1  0  0  0
 15 12  1  0  0  0  0
 16 18  2  0  0  0  0
 17  3  1  0  0  0  0
 17 14  2  0  0  0  0
 19 20  1  1  0  0  0
 21 19  1  0  0  0  0
 22 21  1  0  0  0  0
 23 27  2  0  0  0  0
 23 25  1  0  0  0  0
 24 28  2  0  0  0  0
 25 26  2  0  0  0  0
 26 28  1  0  0  0  0
 26 32  1  0  0  0  0
 27 24  1  0  0  0  0
 28 22  1  0  0  0  0
 29 23  1  0  0  0  0
 30 31  1  0  0  0  0
 31 29  1  0  0  0  0
 32 33  1  0  0  0  0
 33 34  1  0  0  0  0
 34 36  1  0  0  0  0
 35 37  1  0  0  0  0
 36 35  1  0  0  0  0
 38 36  1  0  0  0  0
 38 39  1  0  0  0  0
 39 37  1  0  0  0  0
 40 41  1  0  0  0  0
 42 16  1  0  0  0  0
 43 42  1  0  0  0  0
 43 46  1  0  0  0  0
 44 46  2  0  0  0  0
 46 45  1  0  0  0  0
 48 47  1  0  0  0  0
 49 45  1  6  0  0  0
 49 51  1  0  0  0  0
 49 48  1  0  0  0  0
 50 47  1  0  0  0  0
 51 50  1  0  0  0  0
M  END
>  <MODEL>
3

>  <REMARK>
 VINA RESULT:      -6.8      2.064      5.082
  Name = 
  14 active torsions:
  status: ('A' for Active; 'I' for Inactive)
    1  A    between atoms: C_4  and  O_9
    2  A    between atoms: C_4  and  C_20
    3  A    between atoms: C_5  and  C_20
    4  A    between atoms: C_8  and  O_28
    5  A    between atoms: O_9  and  C_51
    6  A    between atoms: N_10  and  C_35
    7  A    between atoms: C_12  and  O_25
    8  A    between atoms: N_14  and  N_29
    9  A    between atoms: N_14  and  C_37
   10  A    between atoms: C_16  and  C_35
   11  A    between atoms: C_16  and  C_42
   12  A    between atoms: C_27  and  N_43
   13  A    between atoms: O_28  and  C_45
   14  A    between atoms: C_41  and  C_42
                            x       y       z     vdW  Elec       q    Type
                         _______ _______ _______ _____ _____    ______ ____

>  <TORSDO>
F 14

$$$$
=
 OpenBabel11062421193D

 51 56  0  0  1  0  0  0  0  0999 V2000
  190.7070  171.8500  140.8760 C   0  0  1  0  0  3  0  0  0  0  0  0
  193.4180  169.1470  144.8940 C   0  0  0  0  0  2  0  0  0  0  0  0
  195.3340  170.5830  143.9500 C   0  0  2  0  0  3  0  0  0  0  0  0
  191.3140  171.6580  139.4950 C   0  0  0  0  0  2  0  0  0  0  0  0
  192.6700  169.7380  143.6850 C   0  0  1  0  0  3  0  0  0  0  0  0
  194.9170  169.5270  144.9860 C   0  0  1  0  0  3  0  0  0  0  0  0
  191.7330  171.8180  141.8220 O   0  0  0  0  0  0  0  0  0  0  0  0
  194.1910  169.7930  139.0180 C   0  0  0  0  0  1  0  0  0  0  0  0
  189.9670  173.1890  141.0110 C   0  0  0  0  0  2  0  0  0  0  0  0
  191.8360  170.2970  139.3580 N   0  0  0  0  0  2  0  0  0  0  0  0
  191.0990  171.5750  143.0390 C   0  0  1  0  0  3  0  0  0  0  0  0
  193.0790  169.1990  141.1520 C   0  0  0  0  0  2  0  0  0  0  0  0
  192.1360  171.1270  144.0540 C   0  0  0  0  0  2  0  0  0  0  0  0
  193.5640  169.7690  142.4590 C   0  0  0  0  0  0  0  0  0  0  0  0
  193.1380  170.2180  140.0200 C   0  0  1  0  0  3  0  0  0  0  0  0
  189.7410  173.5320  142.4800 C   0  0  0  0  0  0  0  0  0  0  0  0
  194.8340  170.1740  142.5900 C   0  0  0  0  0  3  0  0  0  0  0  0
  190.3510  172.8180  143.4420 C   0  0  0  0  0  3  0  0  0  0  0  0
  196.8420  170.8620  143.9920 C   0  0  2  0  0  3  0  0  0  0  0  0
  197.5630  169.6710  144.0860 O   0  0  0  0  0  1  0  0  0  0  0  0
  197.2640  171.8550  145.0750 C   0  0  0  0  0  2  0  0  0  0  0  0
  197.4110  173.1570  144.5180 O   0  0  0  0  0  0  0  0  0  0  0  0
  194.3930  176.0820  144.8520 C   0  0  0  0  0  0  0  0  0  0  0  0
  195.2680  173.8660  145.3050 C   0  0  0  0  0  3  0  0  0  0  0  0
  195.5500  176.3780  144.1290 C   0  0  0  0  0  3  0  0  0  0  0  0
  196.5760  175.4320  143.9890 C   0  0  0  0  0  0  0  0  0  0  0  0
  194.2530  174.8130  145.4320 C   0  0  0  0  0  3  0  0  0  0  0  0
  196.4430  174.1620  144.6040 C   0  0  0  0  0  0  0  0  0  0  0  0
  193.3910  177.0560  144.9630 O   0  0  0  0  0  0  0  0  0  0  0  0
  191.0210  176.8270  145.3590 C   0  0  0  0  0  1  0  0  0  0  0  0
  192.1250  176.9460  144.3270 C   0  0  0  0  0  2  0  0  0  0  0  0
  197.7330  175.7930  143.1190 C   0  0  0  0  0  2  0  0  0  0  0  0
  197.6760  175.0250  141.8120 C   0  0  0  0  0  2  0  0  0  0  0  0
  196.9410  175.8530  140.7770 C   0  0  0  0  0  2  0  0  0  0  0  0
  194.6410  175.6670  140.3620 C   0  0  0  0  0  2  0  0  0  0  0  0
  195.9350  175.0380  140.1160 N   0  0  0  0  0  0  0  0  0  0  0  0
  193.8770  174.8250  141.3510 C   0  0  0  0  0  2  0  0  0  0  0  0
  195.9190  173.7520  140.8000 C   0  0  0  0  0  2  0  0  0  0  0  0
  194.5120  173.4640  141.2450 C   0  0  0  0  0  2  0  0  0  0  0  0
  194.9060  168.8980  147.1140 C   0  0  0  0  0  1  0  0  0  0  0  0
  195.2120  169.9770  146.2820 O   0  0  0  0  0  0  0  0  0  0  0  0
  189.0680  174.7430  142.8360 N   0  0  0  0  0  0  0  0  0  0  0  0
  189.3290  175.9810  142.2210 N   0  0  0  0  0  0  0  0  0  0  0  0
  188.6500  178.1250  141.6390 O   0  0  0  0  0  0  0  0  0  0  0  0
  187.5640  177.1820  143.4850 N   0  0  0  0  0  2  0  0  0  0  0  0
  188.5120  177.1390  142.4130 C   0  0  0  0  0  0  0  0  0  0  0  0
  184.1780  178.8210  144.2040 C   0  0  0  0  0  2  0  0  0  0  0  0
  185.1890  178.2770  142.7910 S   0  0  0  0  0  0  0  0  0  0  0  0
  186.7030  178.3130  143.7890 C   0  0  1  0  0  3  0  0  0  0  0  0
  185.0970  179.2100  145.3370 C   0  0  0  0  0  2  0  0  0  0  0  0
  186.3180  178.3380  145.2460 C   0  0  0  0  0  2  0  0  0  0  0  0
  1  4  1  6  0  0  0
  1  9  1  0  0  0  0
  1  7  1  0  0  0  0
  2  6  1  0  0  0  0
  3 19  1  6  0  0  0
  3  6  1  0  0  0  0
  5 13  1  1  0  0  0
  5  2  1  0  0  0  0
  6 41  1  1  0  0  0
  7 11  1  0  0  0  0
  9 16  1  0  0  0  0
 10  4  1  0  0  0  0
 10 15  1  0  0  0  0
 11 18  1  1  0  0  0
 11 13  1  0  0  0  0
 12 14  1  0  0  0  0
 14 17  2  0  0  0  0
 14  5  1  0  0  0  0
 15  8  1  6  0  0  0
 15 12  1  0  0  0  0
 16 42  1  0  0  0  0
 16 18  2  0  0  0  0
 17  3  1  0  0  0  0
 19 20  1  1  0  0  0
 19 21  1  0  0  0  0
 22 28  1  0  0  0  0
 22 21  1  0  0  0  0
 23 29  1  0  0  0  0
 23 27  1  0  0  0  0
 24 27  2  0  0  0  0
 25 23  2  0  0  0  0
 26 25  1  0  0  0  0
 26 28  2  0  0  0  0
 28 24  1  0  0  0  0
 31 29  1  0  0  0  0
 31 30  1  0  0  0  0
 32 26  1  0  0  0  0
 33 32  1  0  0  0  0
 34 33  1  0  0  0  0
 35 37  1  0  0  0  0
 36 35  1  0  0  0  0
 36 34  1  0  0  0  0
 36 38  1  0  0  0  0
 38 39  1  0  0  0  0
 39 37  1  0  0  0  0
 41 40  1  0  0  0  0
 43 46  1  0  0  0  0
 43 42  2  0  0  0  0
 44 46  2  0  0  0  0
 46 45  1  0  0  0  0
 47 50  1  0  0  0  0
 48 49  1  0  0  0  0
 48 47  1  0  0  0  0
 49 45  1  1  0  0  0
 49 51  1  0  0  0  0
 51 50  1  0  0  0  0
M  END
>  <MODEL>
4

>  <REMARK>
 VINA RESULT:      -6.8      1.560      3.162
  Name = 
  14 active torsions:
  status: ('A' for Active; 'I' for Inactive)
    1  A    between atoms: C_4  and  O_9
    2  A    between atoms: C_4  and  C_20
    3  A    between atoms: C_5  and  C_20
    4  A    between atoms: C_8  and  O_28
    5  A    between atoms: O_9  and  C_51
    6  A    between atoms: N_10  and  C_35
    7  A    between atoms: C_12  and  O_25
    8  A    between atoms: N_14  and  N_29
    9  A    between atoms: N_14  and  C_37
   10  A    between atoms: C_16  and  C_35
   11  A    between atoms: C_16  and  C_42
   12  A    between atoms: C_27  and  N_43
   13  A    between atoms: O_28  and  C_45
   14  A    between atoms: C_41  and  C_42
                            x       y       z     vdW  Elec       q    Type
                         _______ _______ _______ _____ _____    ______ ____

>  <TORSDO>
F 14

$$$$
=
 OpenBabel11062421193D

 51 56  0  0  1  0  0  0  0  0999 V2000
  190.6500  171.6070  143.1560 C   0  0  1  0  0  3  0  0  0  0  0  0
  195.7080  171.7190  145.4390 C   0  0  0  0  0  2  0  0  0  0  0  0
  196.2710  172.5330  143.0630 C   0  0  2  0  0  3  0  0  0  0  0  0
  190.5620  170.7340  141.9140 C   0  0  0  0  0  2  0  0  0  0  0  0
  194.3230  171.5040  144.8020 C   0  0  1  0  0  3  0  0  0  0  0  0
  196.8130  172.1880  144.4600 C   0  0  1  0  0  3  0  0  0  0  0  0
  191.9290  172.1640  143.2180 O   0  0  0  0  0  0  0  0  0  0  0  0
  193.3360  169.1080  140.6330 C   0  0  0  0  0  1  0  0  0  0  0  0
  189.6250  172.7500  143.1460 C   0  0  0  0  0  2  0  0  0  0  0  0
  191.4200  169.5570  142.0610 N   0  0  0  0  0  2  0  0  0  0  0  0
  192.0800  172.5820  144.5390 C   0  0  1  0  0  3  0  0  0  0  0  0
  193.6640  169.7010  143.0170 C   0  0  0  0  0  2  0  0  0  0  0  0
  193.5530  172.8300  144.8120 C   0  0  0  0  0  2  0  0  0  0  0  0
  194.4540  170.9210  143.4070 C   0  0  0  0  0  0  0  0  0  0  0  0
  192.8040  169.9390  141.7820 C   0  0  1  0  0  3  0  0  0  0  0  0
  190.0050  173.8220  144.1620 C   0  0  0  0  0  0  0  0  0  0  0  0
  195.3840  171.4170  142.5800 C   0  0  0  0  0  3  0  0  0  0  0  0
  191.2090  173.7900  144.7590 C   0  0  0  0  0  3  0  0  0  0  0  0
  197.3980  172.8900  142.0850 C   0  0  2  0  0  3  0  0  0  0  0  0
  197.8200  174.2070  142.2760 O   0  0  0  0  0  1  0  0  0  0  0  0
  197.0610  172.6220  140.6180 C   0  0  0  0  0  2  0  0  0  0  0  0
  196.2680  173.6820  140.0940 O   0  0  0  0  0  0  0  0  0  0  0  0
  192.0540  173.6090  139.9870 C   0  0  0  0  0  0  0  0  0  0  0  0
  194.2150  172.7890  139.2550 C   0  0  0  0  0  3  0  0  0  0  0  0
  192.6970  174.5340  140.8120 C   0  0  0  0  0  3  0  0  0  0  0  0
  194.0960  174.5950  140.8730 C   0  0  0  0  0  0  0  0  0  0  0  0
  192.8230  172.7410  139.1990 C   0  0  0  0  0  3  0  0  0  0  0  0
  194.8700  173.6940  140.0990 C   0  0  0  0  0  0  0  0  0  0  0  0
  190.6530  173.5860  139.9530 O   0  0  0  0  0  0  0  0  0  0  0  0
  188.8780  173.7990  138.3300 C   0  0  0  0  0  1  0  0  0  0  0  0
  189.9090  172.8870  138.9640 C   0  0  0  0  0  2  0  0  0  0  0  0
  194.7040  175.6760  141.7030 C   0  0  0  0  0  2  0  0  0  0  0  0
  194.0100  175.7680  143.0490 C   0  0  0  0  0  2  0  0  0  0  0  0
  195.0220  176.1550  144.1080 C   0  0  0  0  0  2  0  0  0  0  0  0
  194.5660  176.4820  146.3840 C   0  0  0  0  0  2  0  0  0  0  0  0
  194.4150  177.0730  145.0590 N   0  0  0  0  0  0  0  0  0  0  0  0
  193.2190  175.9850  146.8460 C   0  0  0  0  0  2  0  0  0  0  0  0
  192.9870  177.0990  144.7660 C   0  0  0  0  0  2  0  0  0  0  0  0
  192.2350  176.7730  146.0260 C   0  0  0  0  0  2  0  0  0  0  0  0
  196.9810  173.4220  146.2970 C   0  0  0  0  0  1  0  0  0  0  0  0
  197.4910  173.2900  145.0040 O   0  0  0  0  0  0  0  0  0  0  0  0
  189.1840  174.9820  144.3170 N   0  0  0  0  0  0  0  0  0  0  0  0
  188.1560  175.3270  143.4210 N   0  0  0  0  0  0  0  0  0  0  0  0
  186.1170  176.3560  142.9910 O   0  0  0  0  0  0  0  0  0  0  0  0
  187.3020  177.1790  144.8340 N   0  0  0  0  0  2  0  0  0  0  0  0
  187.1420  176.2890  143.7230 C   0  0  0  0  0  0  0  0  0  0  0  0
  184.0830  179.2080  144.4030 C   0  0  0  0  0  2  0  0  0  0  0  0
  185.7910  179.1590  143.7760 S   0  0  0  0  0  0  0  0  0  0  0  0
  186.3510  178.2100  145.2170 C   0  0  1  0  0  3  0  0  0  0  0  0
  184.0660  178.6640  145.8110 C   0  0  0  0  0  2  0  0  0  0  0  0
  185.1450  177.6210  145.9020 C   0  0  0  0  0  2  0  0  0  0  0  0
  1  4  1  6  0  0  0
  1  7  1  0  0  0  0
  3 19  1  6  0  0  0
  3  6  1  0  0  0  0
  4 10  1  0  0  0  0
  5 13  1  6  0  0  0
  5  2  1  0  0  0  0
  6 41  1  1  0  0  0
  6  2  1  0  0  0  0
  7 11  1  0  0  0  0
  9  1  1  0  0  0  0
  9 16  1  0  0  0  0
 11 18  1  6  0  0  0
 11 13  1  0  0  0  0
 12 14  1  0  0  0  0
 14  5  1  0  0  0  0
 15  8  1  6  0  0  0
 15 10  1  0  0  0  0
 15 12  1  0  0  0  0
 16 42  1  0  0  0  0
 16 18  2  0  0  0  0
 17  3  1  0  0  0  0
 17 14  2  0  0  0  0
 19 20  1  6  0  0  0
 21 19  1  0  0  0  0
 22 28  1  0  0  0  0
 22 21  1  0  0  0  0
 23 25  1  0  0  0  0
 24 28  2  0  0  0  0
 25 26  2  0  0  0  0
 26 32  1  0  0  0  0
 27 24  1  0  0  0  0
 27 23  2  0  0  0  0
 28 26  1  0  0  0  0
 29 23  1  0  0  0  0
 30 31  1  0  0  0  0
 31 29  1  0  0  0  0
 32 33  1  0  0  0  0
 33 34  1  0  0  0  0
 34 36  1  0  0  0  0
 35 37  1  0  0  0  0
 36 35  1  0  0  0  0
 38 36  1  0  0  0  0
 38 39  1  0  0  0  0
 39 37  1  0  0  0  0
 41 40  1  0  0  0  0
 43 46  1  0  0  0  0
 43 42  2  0  0  0  0
 44 46  2  0  0  0  0
 46 45  1  0  0  0  0
 47 50  1  0  0  0  0
 48 47  1  0  0  0  0
 48 49  1  0  0  0  0
 49 45  1  6  0  0  0
 49 51  1  0  0  0  0
 50 51  1  0  0  0  0
M  END
>  <MODEL>
5

>  <REMARK>
 VINA RESULT:      -6.6      1.878      3.752
  Name = 
  14 active torsions:
  status: ('A' for Active; 'I' for Inactive)
    1  A    between atoms: C_4  and  O_9
    2  A    between atoms: C_4  and  C_20
    3  A    between atoms: C_5  and  C_20
    4  A    between atoms: C_8  and  O_28
    5  A    between atoms: O_9  and  C_51
    6  A    between atoms: N_10  and  C_35
    7  A    between atoms: C_12  and  O_25
    8  A    between atoms: N_14  and  N_29
    9  A    between atoms: N_14  and  C_37
   10  A    between atoms: C_16  and  C_35
   11  A    between atoms: C_16  and  C_42
   12  A    between atoms: C_27  and  N_43
   13  A    between atoms: O_28  and  C_45
   14  A    between atoms: C_41  and  C_42
                            x       y       z     vdW  Elec       q    Type
                         _______ _______ _______ _____ _____    ______ ____

>  <TORSDO>
F 14

$$$$
=
 OpenBabel11062421193D

 51 56  0  0  1  0  0  0  0  0999 V2000
  190.8600  172.6080  141.3770 C   0  0  1  0  0  3  0  0  0  0  0  0
  194.1890  169.5740  144.6200 C   0  0  0  0  0  2  0  0  0  0  0  0
  195.8260  171.4300  143.9100 C   0  0  2  0  0  3  0  0  0  0  0  0
  191.3850  172.7840  139.9600 C   0  0  0  0  0  2  0  0  0  0  0  0
  193.2830  170.2820  143.5950 C   0  0  1  0  0  3  0  0  0  0  0  0
  195.6270  170.1390  144.7220 C   0  0  1  0  0  3  0  0  0  0  0  0
  191.9480  172.5350  142.2480 O   0  0  0  0  0  0  0  0  0  0  0  0
  194.4380  171.4840  138.9780 C   0  0  0  0  0  1  0  0  0  0  0  0
  189.9630  173.7730  141.8200 C   0  0  0  0  0  2  0  0  0  0  0  0
  192.0700  171.5670  139.5200 N   0  0  0  0  0  2  0  0  0  0  0  0
  191.4420  171.9660  143.4150 C   0  0  1  0  0  3  0  0  0  0  0  0
  193.5740  170.3230  140.9900 C   0  0  0  0  0  2  0  0  0  0  0  0
  192.6000  171.4780  144.2680 C   0  0  0  0  0  2  0  0  0  0  0  0
  194.0740  170.6840  142.3640 C   0  0  0  0  0  0  0  0  0  0  0  0
  193.4150  171.5450  140.0920 C   0  0  1  0  0  3  0  0  0  0  0  0
  189.8020  173.7800  143.3370 C   0  0  0  0  0  0  0  0  0  0  0  0
  195.2850  171.2330  142.5190 C   0  0  0  0  0  3  0  0  0  0  0  0
  190.5690  172.9830  144.1010 C   0  0  0  0  0  3  0  0  0  0  0  0
  197.2830  171.9080  143.9420 C   0  0  2  0  0  3  0  0  0  0  0  0
  197.4030  173.0820  144.6870 O   0  0  0  0  0  1  0  0  0  0  0  0
  197.9220  172.0580  142.5620 C   0  0  0  0  0  2  0  0  0  0  0  0
  197.9270  173.4270  142.1690 O   0  0  0  0  0  0  0  0  0  0  0  0
  196.1590  174.8240  138.6060 C   0  0  0  0  0  0  0  0  0  0  0  0
  197.7880  173.4660  139.7830 C   0  0  0  0  0  3  0  0  0  0  0  0
  195.6870  175.2990  139.8310 C   0  0  0  0  0  3  0  0  0  0  0  0
  196.2500  174.8640  141.0390 C   0  0  0  0  0  0  0  0  0  0  0  0
  197.2230  173.9110  138.5880 C   0  0  0  0  0  3  0  0  0  0  0  0
  197.3040  173.9160  141.0170 C   0  0  0  0  0  0  0  0  0  0  0  0
  195.5700  175.2890  137.4220 O   0  0  0  0  0  0  0  0  0  0  0  0
  193.5030  176.0300  136.4180 C   0  0  0  0  0  1  0  0  0  0  0  0
  194.2940  174.8590  136.9670 C   0  0  0  0  0  2  0  0  0  0  0  0
  195.7550  175.4940  142.2970 C   0  0  0  0  0  2  0  0  0  0  0  0
  194.6160  174.6820  142.8860 C   0  0  0  0  0  2  0  0  0  0  0  0
  193.4160  175.5830  143.0950 C   0  0  0  0  0  2  0  0  0  0  0  0
  193.1470  176.9380  144.9890 C   0  0  0  0  0  2  0  0  0  0  0  0
  193.0260  175.5700  144.4960 N   0  0  0  0  0  0  0  0  0  0  0  0
  194.3480  177.0190  145.8960 C   0  0  0  0  0  2  0  0  0  0  0  0
  194.0220  174.7750  145.2020 C   0  0  0  0  0  2  0  0  0  0  0  0
  194.5770  175.5970  146.3320 C   0  0  0  0  0  2  0  0  0  0  0  0
  195.0280  169.6040  146.7910 C   0  0  0  0  0  1  0  0  0  0  0  0
  195.9550  170.3590  146.0690 O   0  0  0  0  0  0  0  0  0  0  0  0
  189.0040  174.7870  143.9660 N   0  0  0  0  0  0  0  0  0  0  0  0
  189.5430  175.8220  144.7500 N   0  0  0  0  0  0  0  0  0  0  0  0
  189.3370  177.9090  145.7510 O   0  0  0  0  0  0  0  0  0  0  0  0
  187.3290  176.7900  145.3120 N   0  0  0  0  0  2  0  0  0  0  0  0
  188.7570  176.8900  145.2860 C   0  0  0  0  0  0  0  0  0  0  0  0
  184.2330  179.0420  145.2140 C   0  0  0  0  0  2  0  0  0  0  0  0
  185.9410  178.9970  144.5860 S   0  0  0  0  0  0  0  0  0  0  0  0
  186.4350  177.7990  145.8560 C   0  0  1  0  0  3  0  0  0  0  0  0
  184.1740  178.2810  146.5170 C   0  0  0  0  0  2  0  0  0  0  0  0
  185.1920  177.1780  146.4390 C   0  0  0  0  0  2  0  0  0  0  0  0
  1  4  1  6  0  0  0
  1  9  1  0  0  0  0
  1  7  1  0  0  0  0
  2  6  1  0  0  0  0
  3 19  1  6  0  0  0
  3  6  1  0  0  0  0
  5 13  1  1  0  0  0
  5  2  1  0  0  0  0
  6 41  1  1  0  0  0
  7 11  1  0  0  0  0
  9 16  1  0  0  0  0
 10  4  1  0  0  0  0
 10 15  1  0  0  0  0
 11 18  1  1  0  0  0
 11 13  1  0  0  0  0
 12 14  1  0  0  0  0
 14 17  2  0  0  0  0
 14  5  1  0  0  0  0
 15  8  1  6  0  0  0
 15 12  1  0  0  0  0
 16 42  1  0  0  0  0
 16 18  2  0  0  0  0
 17  3  1  0  0  0  0
 19 20  1  6  0  0  0
 21 19  1  0  0  0  0
 22 21  1  0  0  0  0
 23 25  1  0  0  0  0
 24 28  2  0  0  0  0
 25 26  2  0  0  0  0
 26 32  1  0  0  0  0
 27 23  2  0  0  0  0
 27 24  1  0  0  0  0
 28 26  1  0  0  0  0
 28 22  1  0  0  0  0
 29 23  1  0  0  0  0
 30 31  1  0  0  0  0
 31 29  1  0  0  0  0
 32 33  1  0  0  0  0
 33 34  1  0  0  0  0
 34 36  1  0  0  0  0
 35 37  1  0  0  0  0
 36 35  1  0  0  0  0
 36 38  1  0  0  0  0
 37 39  1  0  0  0  0
 38 39  1  0  0  0  0
 41 40  1  0  0  0  0
 42 43  2  0  0  0  0
 43 46  1  0  0  0  0
 46 45  1  0  0  0  0
 46 44  2  0  0  0  0
 47 50  1  0  0  0  0
 48 47  1  0  0  0  0
 48 49  1  0  0  0  0
 49 45  1  6  0  0  0
 49 51  1  0  0  0  0
 51 50  1  0  0  0  0
M  END
>  <MODEL>
6

>  <REMARK>
 VINA RESULT:      -6.6      1.897      2.732
  Name = 
  14 active torsions:
  status: ('A' for Active; 'I' for Inactive)
    1  A    between atoms: C_4  and  O_9
    2  A    between atoms: C_4  and  C_20
    3  A    between atoms: C_5  and  C_20
    4  A    between atoms: C_8  and  O_28
    5  A    between atoms: O_9  and  C_51
    6  A    between atoms: N_10  and  C_35
    7  A    between atoms: C_12  and  O_25
    8  A    between atoms: N_14  and  N_29
    9  A    between atoms: N_14  and  C_37
   10  A    between atoms: C_16  and  C_35
   11  A    between atoms: C_16  and  C_42
   12  A    between atoms: C_27  and  N_43
   13  A    between atoms: O_28  and  C_45
   14  A    between atoms: C_41  and  C_42
                            x       y       z     vdW  Elec       q    Type
                         _______ _______ _______ _____ _____    ______ ____

>  <TORSDO>
F 14

$$$$
=
 OpenBabel11062421193D

 51 56  0  0  1  0  0  0  0  0999 V2000
  193.9430  176.2080  144.7900 C   0  0  1  0  0  3  0  0  0  0  0  0
  195.2050  173.8110  139.9470 C   0  0  0  0  0  2  0  0  0  0  0  0
  194.0110  171.8540  141.1170 C   0  0  2  0  0  3  0  0  0  0  0  0
  194.5010  175.4720  145.9980 C   0  0  0  0  0  2  0  0  0  0  0  0
  195.0330  174.4590  141.3330 C   0  0  1  0  0  3  0  0  0  0  0  0
  194.7370  172.3370  139.8510 C   0  0  1  0  0  3  0  0  0  0  0  0
  193.6430  175.2730  143.7980 O   0  0  0  0  0  0  0  0  0  0  0  0
  196.2720  172.5170  145.6680 C   0  0  0  0  0  1  0  0  0  0  0  0
  192.6640  176.9920  145.1190 C   0  0  0  0  0  2  0  0  0  0  0  0
  195.8130  174.9040  145.6830 N   0  0  0  0  0  2  0  0  0  0  0  0
  193.5510  176.0110  142.6190 C   0  0  1  0  0  3  0  0  0  0  0  0
  196.2700  173.8050  143.5490 C   0  0  0  0  0  2  0  0  0  0  0  0
  193.6270  175.0600  141.4370 C   0  0  0  0  0  2  0  0  0  0  0  0
  195.3180  173.4570  142.4360 C   0  0  0  0  0  0  0  0  0  0  0  0
  195.6270  173.6680  144.9250 C   0  0  1  0  0  3  0  0  0  0  0  0
  191.9170  177.3610  143.8410 C   0  0  0  0  0  0  0  0  0  0  0  0
  194.8260  172.2160  142.3300 C   0  0  0  0  0  3  0  0  0  0  0  0
  192.2850  176.8240  142.6650 C   0  0  0  0  0  3  0  0  0  0  0  0
  193.6540  170.3640  141.0380 C   0  0  2  0  0  3  0  0  0  0  0  0
  194.4650  169.7090  140.1090 O   0  0  0  0  0  1  0  0  0  0  0  0
  192.1740  170.0880  140.7760 C   0  0  0  0  0  2  0  0  0  0  0  0
  191.4470  170.1010  142.0010 O   0  0  0  0  0  0  0  0  0  0  0  0
  190.3650  173.5640  144.1490 C   0  0  0  0  0  0  0  0  0  0  0  0
  191.6550  171.5250  143.9100 C   0  0  0  0  0  3  0  0  0  0  0  0
  189.7430  173.2990  142.9260 C   0  0  0  0  0  3  0  0  0  0  0  0
  190.0700  172.1570  142.1830 C   0  0  0  0  0  0  0  0  0  0  0  0
  191.3170  172.6620  144.6430 C   0  0  0  0  0  3  0  0  0  0  0  0
  191.0570  171.2650  142.6710 C   0  0  0  0  0  0  0  0  0  0  0  0
  190.0030  174.7160  144.8610 O   0  0  0  0  0  0  0  0  0  0  0  0
  189.1760  174.5380  147.1220 C   0  0  0  0  0  1  0  0  0  0  0  0
  190.3370  174.9230  146.2270 C   0  0  0  0  0  2  0  0  0  0  0  0
  189.2910  171.8980  140.9370 C   0  0  0  0  0  2  0  0  0  0  0  0
  188.3650  173.0620  140.6370 C   0  0  0  0  0  2  0  0  0  0  0  0
  188.7520  173.6780  139.3080 C   0  0  0  0  0  2  0  0  0  0  0  0
  190.9470  173.7400  138.4860 C   0  0  0  0  0  2  0  0  0  0  0  0
  189.7860  172.8760  138.6740 N   0  0  0  0  0  0  0  0  0  0  0  0
  191.0740  174.0640  137.0200 C   0  0  0  0  0  2  0  0  0  0  0  0
  189.2950  172.5310  137.3460 C   0  0  0  0  0  2  0  0  0  0  0  0
  190.3180  172.9610  136.3310 C   0  0  0  0  0  2  0  0  0  0  0  0
  194.7280  172.4800  137.6360 C   0  0  0  0  0  1  0  0  0  0  0  0
  193.9120  172.1740  138.7270 O   0  0  0  0  0  0  0  0  0  0  0  0
  190.6920  178.0950  143.9160 N   0  0  0  0  0  2  0  0  0  0  0  0
  189.6560  177.9700  142.9720 N   0  0  0  0  0  2  0  0  0  0  0  0
  187.4750  177.3740  142.4390 O   0  0  0  0  0  0  0  0  0  0  0  0
  187.8610  177.9160  144.6830 N   0  0  0  0  0  2  0  0  0  0  0  0
  188.2930  177.7310  143.3310 C   0  0  0  0  0  0  0  0  0  0  0  0
  185.0270  178.3030  147.2290 C   0  0  0  0  0  2  0  0  0  0  0  0
  186.4650  177.2370  146.8990 S   0  0  0  0  0  0  0  0  0  0  0  0
  186.4980  177.7280  145.1540 C   0  0  1  0  0  3  0  0  0  0  0  0
  184.5050  178.8340  145.9160 C   0  0  0  0  0  2  0  0  0  0  0  0
  185.6810  178.9840  144.9930 C   0  0  0  0  0  2  0  0  0  0  0  0
  1  9  1  1  0  0  0
  1  4  1  0  0  0  0
  3 19  1  6  0  0  0
  3 17  1  0  0  0  0
  5  2  1  6  0  0  0
  5 13  1  0  0  0  0
  5 14  1  0  0  0  0
  6 41  1  6  0  0  0
  6  2  1  0  0  0  0
  6  3  1  0  0  0  0
  7  1  1  0  0  0  0
 10  4  1  0  0  0  0
 11 13  1  6  0  0  0
 11 18  1  0  0  0  0
 11  7  1  0  0  0  0
 12 15  1  0  0  0  0
 14 12  1  0  0  0  0
 15  8  1  1  0  0  0
 15 10  1  0  0  0  0
 16 42  1  0  0  0  0
 16  9  1  0  0  0  0
 17 14  2  0  0  0  0
 18 16  2  0  0  0  0
 19 20  1  6  0  0  0
 21 19  1  0  0  0  0
 21 22  1  0  0  0  0
 22 28  1  0  0  0  0
 23 27  1  0  0  0  0
 23 29  1  0  0  0  0
 24 27  2  0  0  0  0
 25 23  2  0  0  0  0
 26 28  2  0  0  0  0
 26 25  1  0  0  0  0
 28 24  1  0  0  0  0
 29 31  1  0  0  0  0
 31 30  1  0  0  0  0
 32 26  1  0  0  0  0
 33 32  1  0  0  0  0
 34 33  1  0  0  0  0
 35 36  1  0  0  0  0
 36 34  1  0  0  0  0
 37 35  1  0  0  0  0
 38 36  1  0  0  0  0
 39 37  1  0  0  0  0
 39 38  1  0  0  0  0
 40 41  1  0  0  0  0
 43 46  1  0  0  0  0
 43 42  1  0  0  0  0
 44 46  2  0  0  0  0
 46 45  1  0  0  0  0
 48 47  1  0  0  0  0
 49 45  1  1  0  0  0
 49 48  1  0  0  0  0
 50 47  1  0  0  0  0
 51 49  1  0  0  0  0
 51 50  1  0  0  0  0
M  END
>  <MODEL>
7

>  <REMARK>
 VINA RESULT:      -6.4      2.346      6.156
  Name = 
  14 active torsions:
  status: ('A' for Active; 'I' for Inactive)
    1  A    between atoms: C_4  and  O_9
    2  A    between atoms: C_4  and  C_20
    3  A    between atoms: C_5  and  C_20
    4  A    between atoms: C_8  and  O_28
    5  A    between atoms: O_9  and  C_51
    6  A    between atoms: N_10  and  C_35
    7  A    between atoms: C_12  and  O_25
    8  A    between atoms: N_14  and  N_29
    9  A    between atoms: N_14  and  C_37
   10  A    between atoms: C_16  and  C_35
   11  A    between atoms: C_16  and  C_42
   12  A    between atoms: C_27  and  N_43
   13  A    between atoms: O_28  and  C_45
   14  A    between atoms: C_41  and  C_42
                            x       y       z     vdW  Elec       q    Type
                         _______ _______ _______ _____ _____    ______ ____

>  <TORSDO>
F 14

$$$$
=
 OpenBabel11062421193D

 51 56  0  0  1  0  0  0  0  0999 V2000
  191.7780  170.7070  141.1550 C   0  0  1  0  0  3  0  0  0  0  0  0
  194.1190  175.7200  141.6060 C   0  0  0  0  0  2  0  0  0  0  0  0
  194.5320  174.8180  143.9810 C   0  0  2  0  0  3  0  0  0  0  0  0
  190.6770  170.4560  142.1740 C   0  0  0  0  0  2  0  0  0  0  0  0
  193.3070  174.4160  141.4870 C   0  0  1  0  0  3  0  0  0  0  0  0
  194.7110  175.9970  143.0100 C   0  0  1  0  0  3  0  0  0  0  0  0
  192.7390  171.5370  141.7350 O   0  0  0  0  0  0  0  0  0  0  0  0
  189.8620  172.7990  144.5870 C   0  0  0  0  0  1  0  0  0  0  0  0
  192.4680  169.4120  140.7030 C   0  0  0  0  0  2  0  0  0  0  0  0
  189.9290  171.6890  142.4240 N   0  0  0  0  0  2  0  0  0  0  0  0
  193.4640  172.0580  140.6650 C   0  0  1  0  0  3  0  0  0  0  0  0
  191.0410  173.8500  142.6770 C   0  0  0  0  0  2  0  0  0  0  0  0
  194.2560  173.2610  141.1460 C   0  0  0  0  0  2  0  0  0  0  0  0
  192.5130  174.1580  142.7540 C   0  0  0  0  0  0  0  0  0  0  0  0
  190.6910  172.5270  143.3490 C   0  0  1  0  0  3  0  0  0  0  0  0
  193.8010  169.7200  140.0290 C   0  0  0  0  0  0  0  0  0  0  0  0
  193.1020  174.3490  143.9410 C   0  0  0  0  0  3  0  0  0  0  0  0
  194.3170  170.9600  140.0880 C   0  0  0  0  0  3  0  0  0  0  0  0
  195.0290  175.1580  145.3910 C   0  0  2  0  0  3  0  0  0  0  0  0
  195.8180  174.1250  145.9010 O   0  0  0  0  0  1  0  0  0  0  0  0
  193.9190  175.5440  146.3690 C   0  0  0  0  0  2  0  0  0  0  0  0
  192.9740  176.3940  145.7280 O   0  0  0  0  0  0  0  0  0  0  0  0
  188.8490  176.1800  146.5720 C   0  0  0  0  0  0  0  0  0  0  0  0
  191.1470  175.5470  147.0160 C   0  0  0  0  0  3  0  0  0  0  0  0
  189.2850  176.9740  145.5090 C   0  0  0  0  0  3  0  0  0  0  0  0
  190.6470  177.0690  145.1920 C   0  0  0  0  0  0  0  0  0  0  0  0
  189.7880  175.4560  147.3180 C   0  0  0  0  0  3  0  0  0  0  0  0
  191.5970  176.3620  145.9710 C   0  0  0  0  0  0  0  0  0  0  0  0
  187.4770  176.1110  146.8500 O   0  0  0  0  0  0  0  0  0  0  0  0
  185.1760  176.8040  146.6160 C   0  0  0  0  0  1  0  0  0  0  0  0
  186.6150  177.2400  146.8050 C   0  0  0  0  0  2  0  0  0  0  0  0
  191.0210  177.8600  143.9830 C   0  0  0  0  0  2  0  0  0  0  0  0
  190.2780  177.3500  142.7630 C   0  0  0  0  0  2  0  0  0  0  0  0
  189.2710  178.3910  142.3190 C   0  0  0  0  0  2  0  0  0  0  0  0
  186.9330  178.2710  142.1910 C   0  0  0  0  0  2  0  0  0  0  0  0
  188.1690  177.7470  141.6210 N   0  0  0  0  0  0  0  0  0  0  0  0
  186.2990  177.1960  143.0360 C   0  0  0  0  0  2  0  0  0  0  0  0
  188.2270  176.3310  141.9600 C   0  0  0  0  0  2  0  0  0  0  0  0
  186.8900  175.9160  142.5090 C   0  0  0  0  0  2  0  0  0  0  0  0
  196.2670  176.5590  141.5320 C   0  0  0  0  0  1  0  0  0  0  0  0
  196.0690  176.3290  142.8950 O   0  0  0  0  0  0  0  0  0  0  0  0
  194.6130  168.6530  139.5310 N   0  0  0  0  0  2  0  0  0  0  0  0
  195.9320  168.4200  139.9600 N   0  0  0  0  0  2  0  0  0  0  0  0
  197.6000  168.6440  141.5620 O   0  0  0  0  0  0  0  0  0  0  0  0
  195.4030  168.7700  142.3590 N   0  0  0  0  0  2  0  0  0  0  0  0
  196.3650  168.6200  141.3090 C   0  0  0  0  0  0  0  0  0  0  0  0
  194.8710  170.2860  145.8350 C   0  0  0  0  0  2  0  0  0  0  0  0
  195.6460  170.6990  144.2400 S   0  0  0  0  0  0  0  0  0  0  0  0
  195.7280  168.9510  143.7640 C   0  0  1  0  0  3  0  0  0  0  0  0
  194.9020  168.7880  146.0160 C   0  0  0  0  0  2  0  0  0  0  0  0
  194.7940  168.1680  144.6510 C   0  0  0  0  0  2  0  0  0  0  0  0
  1  9  1  1  0  0  0
  1  7  1  0  0  0  0
  1  4  1  0  0  0  0
  2  6  1  0  0  0  0
  3 19  1  1  0  0  0
  4 10  1  0  0  0  0
  5 13  1  1  0  0  0
  5  2  1  0  0  0  0
  5 14  1  0  0  0  0
  6 41  1  6  0  0  0
  6  3  1  0  0  0  0
 10 15  1  0  0  0  0
 11 18  1  1  0  0  0
 11 13  1  0  0  0  0
 11  7  1  0  0  0  0
 12 14  1  0  0  0  0
 12 15  1  0  0  0  0
 14 17  2  0  0  0  0
 15  8  1  1  0  0  0
 16 18  2  0  0  0  0
 16  9  1  0  0  0  0
 17  3  1  0  0  0  0
 19 20  1  1  0  0  0
 19 21  1  0  0  0  0
 22 28  1  0  0  0  0
 22 21  1  0  0  0  0
 23 29  1  0  0  0  0
 23 27  1  0  0  0  0
 24 27  2  0  0  0  0
 25 23  2  0  0  0  0
 26 25  1  0  0  0  0
 26 28  2  0  0  0  0
 28 24  1  0  0  0  0
 30 31  1  0  0  0  0
 31 29  1  0  0  0  0
 32 26  1  0  0  0  0
 33 32  1  0  0  0  0
 34 33  1  0  0  0  0
 35 37  1  0  0  0  0
 36 38  1  0  0  0  0
 36 35  1  0  0  0  0
 36 34  1  0  0  0  0
 38 39  1  0  0  0  0
 39 37  1  0  0  0  0
 40 41  1  0  0  0  0
 42 43  1  0  0  0  0
 42 16  1  0  0  0  0
 43 46  1  0  0  0  0
 46 44  2  0  0  0  0
 46 45  1  0  0  0  0
 47 50  1  0  0  0  0
 48 47  1  0  0  0  0
 49 45  1  6  0  0  0
 49 48  1  0  0  0  0
 49 51  1  0  0  0  0
 51 50  1  0  0  0  0
M  END
>  <MODEL>
8

>  <REMARK>
 VINA RESULT:      -6.3      2.830      7.867
  Name = 
  14 active torsions:
  status: ('A' for Active; 'I' for Inactive)
    1  A    between atoms: C_4  and  O_9
    2  A    between atoms: C_4  and  C_20
    3  A    between atoms: C_5  and  C_20
    4  A    between atoms: C_8  and  O_28
    5  A    between atoms: O_9  and  C_51
    6  A    between atoms: N_10  and  C_35
    7  A    between atoms: C_12  and  O_25
    8  A    between atoms: N_14  and  N_29
    9  A    between atoms: N_14  and  C_37
   10  A    between atoms: C_16  and  C_35
   11  A    between atoms: C_16  and  C_42
   12  A    between atoms: C_27  and  N_43
   13  A    between atoms: O_28  and  C_45
   14  A    between atoms: C_41  and  C_42
                            x       y       z     vdW  Elec       q    Type
                         _______ _______ _______ _____ _____    ______ ____

>  <TORSDO>
F 14

$$$$
=
 OpenBabel11062421193D

 51 56  0  0  1  0  0  0  0  0999 V2000
  194.6500  172.5480  140.8180 C   0  0  1  0  0  3  0  0  0  0  0  0
  192.6220  174.0830  135.8850 C   0  0  0  0  0  2  0  0  0  0  0  0
  190.4270  173.7420  137.1850 C   0  0  2  0  0  3  0  0  0  0  0  0
  194.1430  171.1940  141.2900 C   0  0  0  0  0  2  0  0  0  0  0  0
  193.2230  173.4950  137.1750 C   0  0  1  0  0  3  0  0  0  0  0  0
  191.0740  174.1260  135.8440 C   0  0  1  0  0  3  0  0  0  0  0  0
  193.6450  173.1640  140.0710 O   0  0  0  0  0  0  0  0  0  0  0  0
  191.8440  169.3720  139.4540 C   0  0  0  0  0  1  0  0  0  0  0  0
  195.0240  173.4750  141.9830 C   0  0  0  0  0  2  0  0  0  0  0  0
  193.9850  170.2880  140.1520 N   0  0  0  0  0  2  0  0  0  0  0  0
  194.2920  174.1570  139.3380 C   0  0  1  0  0  3  0  0  0  0  0  0
  193.0210  171.0260  138.0320 C   0  0  0  0  0  2  0  0  0  0  0  0
  193.3790  174.6120  138.2130 C   0  0  0  0  0  2  0  0  0  0  0  0
  192.3780  172.3430  137.6870 C   0  0  0  0  0  0  0  0  0  0  0  0
  192.7320  170.5980  139.4660 C   0  0  1  0  0  3  0  0  0  0  0  0
  195.1230  174.9210  141.5080 C   0  0  0  0  0  0  0  0  0  0  0  0
  191.0450  172.4660  137.6920 C   0  0  0  0  0  3  0  0  0  0  0  0
  194.6920  175.2600  140.2810 C   0  0  0  0  0  3  0  0  0  0  0  0
  188.8970  173.6880  137.0870 C   0  0  2  0  0  3  0  0  0  0  0  0
  188.3750  174.9460  136.7830 O   0  0  0  0  0  1  0  0  0  0  0  0
  188.2120  173.0840  138.3130 C   0  0  0  0  0  2  0  0  0  0  0  0
  188.2340  174.0100  139.3940 O   0  0  0  0  0  0  0  0  0  0  0  0
  190.2090  173.1650  143.0220 C   0  0  0  0  0  0  0  0  0  0  0  0
  189.4730  172.5270  140.8010 C   0  0  0  0  0  3  0  0  0  0  0  0
  189.5980  174.4100  142.8540 C   0  0  0  0  0  3  0  0  0  0  0  0
  188.9270  174.7290  141.6660 C   0  0  0  0  0  0  0  0  0  0  0  0
  190.1330  172.2190  141.9900 C   0  0  0  0  0  3  0  0  0  0  0  0
  188.8810  173.7820  140.6130 C   0  0  0  0  0  0  0  0  0  0  0  0
  190.8660  172.8870  144.2290 O   0  0  0  0  0  0  0  0  0  0  0  0
  193.1010  172.8410  145.1400 C   0  0  0  0  0  1  0  0  0  0  0  0
  192.0600  172.1210  144.3060 C   0  0  0  0  0  2  0  0  0  0  0  0
  188.2180  176.0410  141.6050 C   0  0  0  0  0  2  0  0  0  0  0  0
  186.9240  175.9830  142.3930 C   0  0  0  0  0  2  0  0  0  0  0  0
  186.2100  177.3160  142.2810 C   0  0  0  0  0  2  0  0  0  0  0  0
  185.2180  178.8910  143.7060 C   0  0  0  0  0  2  0  0  0  0  0  0
  185.2750  177.4690  143.3840 N   0  0  0  0  0  0  0  0  0  0  0  0
  185.9380  179.1190  145.0110 C   0  0  0  0  0  2  0  0  0  0  0  0
  185.8670  176.7970  144.5340 C   0  0  0  0  0  2  0  0  0  0  0  0
  185.9260  177.7710  145.6790 C   0  0  0  0  0  2  0  0  0  0  0  0
  191.8110  176.0660  135.0590 C   0  0  0  0  0  1  0  0  0  0  0  0
  190.6450  175.4010  135.4460 O   0  0  0  0  0  0  0  0  0  0  0  0
  195.4590  175.9560  142.4360 N   0  0  0  0  0  2  0  0  0  0  0  0
  195.4500  175.7770  143.8310 N   0  0  0  0  0  2  0  0  0  0  0  0
  194.6100  176.3190  145.9280 O   0  0  0  0  0  0  0  0  0  0  0  0
  193.1860  176.7470  144.1210 N   0  0  0  0  0  2  0  0  0  0  0  0
  194.4210  176.2910  144.6810 C   0  0  0  0  0  0  0  0  0  0  0  0
  189.4870  177.5870  144.6510 C   0  0  0  0  0  2  0  0  0  0  0  0
  190.9730  178.2820  143.8610 S   0  0  0  0  0  0  0  0  0  0  0  0
  192.0640  177.2630  144.8900 C   0  0  1  0  0  3  0  0  0  0  0  0
  189.9130  176.7450  145.8290 C   0  0  0  0  0  2  0  0  0  0  0  0
  191.2510  176.1470  145.4940 C   0  0  0  0  0  2  0  0  0  0  0  0
  1  4  1  1  0  0  0
  1  9  1  0  0  0  0
  3 19  1  6  0  0  0
  3 17  1  0  0  0  0
  5  2  1  6  0  0  0
  5 14  1  0  0  0  0
  5 13  1  0  0  0  0
  6 41  1  1  0  0  0
  6  2  1  0  0  0  0
  6  3  1  0  0  0  0
  7  1  1  0  0  0  0
 10  4  1  0  0  0  0
 11 13  1  6  0  0  0
 11  7  1  0  0  0  0
 11 18  1  0  0  0  0
 12 15  1  0  0  0  0
 14 17  2  0  0  0  0
 14 12  1  0  0  0  0
 15  8  1  6  0  0  0
 15 10  1  0  0  0  0
 16  9  1  0  0  0  0
 16 42  1  0  0  0  0
 18 16  2  0  0  0  0
 19 20  1  1  0  0  0
 19 21  1  0  0  0  0
 21 22  1  0  0  0  0
 22 28  1  0  0  0  0
 23 29  1  0  0  0  0
 24 27  1  0  0  0  0
 25 23  1  0  0  0  0
 26 25  2  0  0  0  0
 27 23  2  0  0  0  0
 28 24  2  0  0  0  0
 28 26  1  0  0  0  0
 29 31  1  0  0  0  0
 31 30  1  0  0  0  0
 32 26  1  0  0  0  0
 32 33  1  0  0  0  0
 34 33  1  0  0  0  0
 34 36  1  0  0  0  0
 35 37  1  0  0  0  0
 36 35  1  0  0  0  0
 36 38  1  0  0  0  0
 37 39  1  0  0  0  0
 38 39  1  0  0  0  0
 40 41  1  0  0  0  0
 42 43  1  0  0  0  0
 43 46  1  0  0  0  0
 45 46  1  0  0  0  0
 46 44  2  0  0  0  0
 47 50  1  0  0  0  0
 48 47  1  0  0  0  0
 48 49  1  0  0  0  0
 49 45  1  6  0  0  0
 49 51  1  0  0  0  0
 51 50  1  0  0  0  0
M  END
>  <MODEL>
9

>  <REMARK>
 VINA RESULT:      -6.3      2.821      7.617
  Name = 
  14 active torsions:
  status: ('A' for Active; 'I' for Inactive)
    1  A    between atoms: C_4  and  O_9
    2  A    between atoms: C_4  and  C_20
    3  A    between atoms: C_5  and  C_20
    4  A    between atoms: C_8  and  O_28
    5  A    between atoms: O_9  and  C_51
    6  A    between atoms: N_10  and  C_35
    7  A    between atoms: C_12  and  O_25
    8  A    between atoms: N_14  and  N_29
    9  A    between atoms: N_14  and  C_37
   10  A    between atoms: C_16  and  C_35
   11  A    between atoms: C_16  and  C_42
   12  A    between atoms: C_27  and  N_43
   13  A    between atoms: O_28  and  C_45
   14  A    between atoms: C_41  and  C_42
                            x       y       z     vdW  Elec       q    Type
                         _______ _______ _______ _____ _____    ______ ____

>  <TORSDO>
F 14

$$$$
