=
 OpenBabel11062422243D

 36 38  0  0  1  0  0  0  0  0999 V2000
  190.7130  174.8620  145.5690 C   0  0  0  0  0  0  0  0  0  0  0  0
  190.5170  173.5750  145.1580 N   0  0  0  0  0  0  0  0  0  0  0  0
  190.1130  177.2490  144.9810 C   0  0  0  0  0  3  0  0  0  0  0  0
  188.9540  176.6830  143.1050 N   0  0  0  0  0  0  0  0  0  0  0  0
  189.4150  175.5730  143.7030 C   0  0  0  0  0  0  0  0  0  0  0  0
  189.7810  173.2870  144.0400 C   0  0  0  0  0  3  0  0  0  0  0  0
  189.2250  174.2920  143.3010 N   0  0  0  0  0  0  0  0  0  0  0  0
  190.1280  175.8780  144.8180 C   0  0  0  0  0  0  0  0  0  0  0  0
  189.3570  177.7110  143.8990 C   0  0  0  0  0  3  0  0  0  0  0  0
  188.0840  176.7930  141.9200 C   0  0  2  0  0  3  0  0  0  0  0  0
  188.1150  178.1900  141.3130 C   0  0  0  0  0  1  0  0  0  0  0  0
  186.6370  176.4200  142.2400 C   0  0  0  0  0  2  0  0  0  0  0  0
  185.7330  177.4840  141.8110 N   0  0  0  0  0  2  0  0  0  0  0  0
  185.6460  179.2120  143.3600 F   0  0  0  0  0  0  0  0  0  0  0  0
  183.6880  178.3440  142.6190 O   0  0  0  0  0  1  0  0  0  0  0  0
  185.0160  178.0430  142.9610 C   0  0  1  0  0  0  0  0  0  0  0  0
  185.0520  177.1340  144.0440 O   0  0  0  0  0  0  0  0  0  0  0  0
  184.7480  178.5020  147.5380 C   0  0  0  0  0  2  0  0  0  0  0  0
  186.2370  178.8240  147.6590 C   0  0  0  0  0  2  0  0  0  0  0  0
  184.3370  178.2060  146.0870 C   0  0  0  0  0  2  0  0  0  0  0  0
  187.0990  177.6560  147.1540 C   0  0  0  0  0  2  0  0  0  0  0  0
  186.4860  176.9070  145.9610 C   0  0  0  0  0  2  0  0  0  0  0  0
  185.5180  177.8010  145.1920 C   0  0  0  0  0  3  0  0  0  0  0  0
  191.5190  175.1430  146.7960 C   0  0  0  0  0  2  0  0  0  0  0  0
  193.6300  176.8940  145.9340 O   0  0  0  0  0  0  0  0  0  0  0  0
  193.9170  175.6870  146.1560 C   0  0  0  0  0  0  0  0  0  0  0  0
  192.9140  174.7690  146.6000 N   0  0  0  0  0  2  0  0  0  0  0  0
  195.3130  175.2040  145.9250 C   0  0  0  0  0  2  0  0  0  0  0  0
  195.3950  174.1330  144.8350 C   0  0  2  0  0  3  0  0  0  0  0  0
  196.5600  172.0800  144.4120 O   0  0  0  0  0  0  0  0  0  0  0  0
  197.0080  173.0770  146.4250 O   0  0  0  0  0  1  0  0  0  0  0  0
  196.3440  173.0340  145.2060 C   0  0  0  0  0  0  0  0  0  0  0  0
  195.7360  174.6920  143.5980 O   0  0  0  0  0  0  0  0  0  0  0  0
  196.7920  175.5620  143.8770 C   0  0  0  0  0  2  0  0  0  0  0  0
  196.5350  176.8090  143.3030 O   0  0  0  0  0  0  0  0  0  0  0  0
  196.3350  176.5350  141.9490 C   0  0  0  0  0  1  0  0  0  0  0  0
  1 24  1  0  0  0  0
  2  1  1  0  0  0  0
  4  5  1  0  0  0  0
  4  9  1  0  0  0  0
  5  8  1  0  0  0  0
  6  2  2  0  0  0  0
  7  5  2  0  0  0  0
  7  6  1  0  0  0  0
  8  3  1  0  0  0  0
  8  1  2  0  0  0  0
  9  3  2  0  0  0  0
 10 11  1  1  0  0  0
 10 12  1  0  0  0  0
 10  4  1  0  0  0  0
 13 12  1  0  0  0  0
 13 16  1  0  0  0  0
 16 15  1  6  0  0  0
 16 14  1  0  0  0  0
 16 17  1  0  0  0  0
 17 23  1  0  0  0  0
 18 19  1  0  0  0  0
 20 18  1  0  0  0  0
 21 19  1  0  0  0  0
 22 21  1  0  0  0  0
 23 22  1  0  0  0  0
 23 20  1  0  0  0  0
 25 26  2  0  0  0  0
 26 27  1  0  0  0  0
 27 24  1  0  0  0  0
 28 26  1  0  0  0  0
 29 32  1  0  0  0  0
 29 28  1  1  0  0  0
 30 32  2  0  0  0  0
 32 31  1  0  0  0  0
 33 34  1  0  0  0  0
 33 29  1  0  0  0  0
 35 34  1  0  0  0  0
 36 35  1  0  0  0  0
M  END
>  <MODEL>
1

>  <REMARK>
 VINA RESULT:      -6.7      0.000      0.000
  Name = 
  14 active torsions:
  status: ('A' for Active; 'I' for Inactive)
    1  A    between atoms: O_2  and  C_25
    2  A    between atoms: O_2  and  C_31
    3  A    between atoms: C_4  and  C_10
    4  A    between atoms: O_5  and  C_12
    5  A    between atoms: C_10  and  N_23
    6  A    between atoms: C_11  and  C_20
    7  A    between atoms: C_12  and  O_36
    8  A    between atoms: N_14  and  C_21
    9  A    between atoms: C_20  and  C_22
   10  A    between atoms: C_21  and  C_35
   11  A    between atoms: C_22  and  C_33
   12  A    between atoms: C_22  and  O_36
   13  A    between atoms: C_31  and  N_34
   14  A    between atoms: N_34  and  C_35
                            x       y       z     vdW  Elec       q    Type
                         _______ _______ _______ _____ _____    ______ ____

>  <TORSDO>
F 14

$$$$
=
 OpenBabel11062422243D

 36 38  0  0  1  0  0  0  0  0999 V2000
  191.3940  175.9720  146.4580 C   0  0  0  0  0  0  0  0  0  0  0  0
  190.5390  175.2790  147.2670 N   0  0  0  0  0  0  0  0  0  0  0  0
  191.5740  176.9480  144.1300 C   0  0  0  0  0  3  0  0  0  0  0  0
  189.5430  176.1730  143.4550 N   0  0  0  0  0  0  0  0  0  0  0  0
  189.7580  175.8230  144.7330 C   0  0  0  0  0  0  0  0  0  0  0  0
  189.3120  174.8650  146.8210 C   0  0  0  0  0  3  0  0  0  0  0  0
  188.9140  175.1360  145.5420 N   0  0  0  0  0  0  0  0  0  0  0  0
  190.9720  176.2570  145.1620 C   0  0  0  0  0  0  0  0  0  0  0  0
  190.6430  176.8850  143.0890 C   0  0  0  0  0  3  0  0  0  0  0  0
  188.3350  175.9640  142.6370 C   0  0  2  0  0  3  0  0  0  0  0  0
  188.3860  174.6520  141.8640 C   0  0  0  0  0  1  0  0  0  0  0  0
  188.1060  177.1130  141.6550 C   0  0  0  0  0  2  0  0  0  0  0  0
  186.7670  177.0270  141.0790 N   0  0  0  0  0  2  0  0  0  0  0  0
  186.6090  178.9580  142.3590 F   0  0  0  0  0  0  0  0  0  0  0  0
  184.9950  178.5660  140.8180 O   0  0  0  0  0  1  0  0  0  0  0  0
  185.8600  177.9660  141.7470 C   0  0  1  0  0  0  0  0  0  0  0  0
  185.1190  177.2950  142.7480 O   0  0  0  0  0  0  0  0  0  0  0  0
  184.1210  178.8830  146.0120 C   0  0  0  0  0  2  0  0  0  0  0  0
  185.5430  178.8770  146.5750 C   0  0  0  0  0  2  0  0  0  0  0  0
  184.0970  178.6060  144.5000 C   0  0  0  0  0  2  0  0  0  0  0  0
  186.2280  177.5240  146.3330 C   0  0  0  0  0  2  0  0  0  0  0  0
  185.8390  176.8640  145.0010 C   0  0  0  0  0  2  0  0  0  0  0  0
  185.3660  177.9050  143.9910 C   0  0  0  0  0  3  0  0  0  0  0  0
  192.7250  176.4120  146.9760 C   0  0  0  0  0  2  0  0  0  0  0  0
  194.9150  177.3750  145.3820 O   0  0  0  0  0  0  0  0  0  0  0  0
  194.8550  176.1380  145.6160 C   0  0  0  0  0  0  0  0  0  0  0  0
  193.7970  175.5990  146.4140 N   0  0  0  0  0  2  0  0  0  0  0  0
  195.8820  175.2230  145.0320 C   0  0  0  0  0  2  0  0  0  0  0  0
  195.7600  175.0910  143.5120 C   0  0  2  0  0  3  0  0  0  0  0  0
  197.7880  176.3090  143.1210 O   0  0  0  0  0  1  0  0  0  0  0  0
  196.0300  176.8470  141.7560 O   0  0  0  0  0  0  0  0  0  0  0  0
  196.5860  176.1170  142.7980 C   0  0  0  0  0  0  0  0  0  0  0  0
  194.4230  175.1520  143.1020 O   0  0  0  0  0  0  0  0  0  0  0  0
  194.1280  173.8640  142.6510 C   0  0  0  0  0  2  0  0  0  0  0  0
  192.8860  173.8640  142.0110 O   0  0  0  0  0  0  0  0  0  0  0  0
  191.9980  173.3810  142.9740 C   0  0  0  0  0  1  0  0  0  0  0  0
  1 24  1  0  0  0  0
  1  2  1  0  0  0  0
  3  8  1  0  0  0  0
  4  5  1  0  0  0  0
  5  8  1  0  0  0  0
  5  7  2  0  0  0  0
  6  2  2  0  0  0  0
  7  6  1  0  0  0  0
  8  1  2  0  0  0  0
  9  4  1  0  0  0  0
  9  3  2  0  0  0  0
 10 11  1  6  0  0  0
 10  4  1  0  0  0  0
 12 10  1  0  0  0  0
 13 12  1  0  0  0  0
 13 16  1  0  0  0  0
 16 15  1  6  0  0  0
 16 14  1  0  0  0  0
 16 17  1  0  0  0  0
 17 23  1  0  0  0  0
 18 19  1  0  0  0  0
 20 18  1  0  0  0  0
 21 19  1  0  0  0  0
 22 21  1  0  0  0  0
 23 20  1  0  0  0  0
 23 22  1  0  0  0  0
 25 26  2  0  0  0  0
 26 27  1  0  0  0  0
 27 24  1  0  0  0  0
 28 26  1  0  0  0  0
 29 28  1  1  0  0  0
 31 32  2  0  0  0  0
 32 30  1  0  0  0  0
 32 29  1  0  0  0  0
 33 29  1  0  0  0  0
 34 33  1  0  0  0  0
 35 34  1  0  0  0  0
 35 36  1  0  0  0  0
M  END
>  <MODEL>
2

>  <REMARK>
 VINA RESULT:      -6.6      1.690      2.522
  Name = 
  14 active torsions:
  status: ('A' for Active; 'I' for Inactive)
    1  A    between atoms: O_2  and  C_25
    2  A    between atoms: O_2  and  C_31
    3  A    between atoms: C_4  and  C_10
    4  A    between atoms: O_5  and  C_12
    5  A    between atoms: C_10  and  N_23
    6  A    between atoms: C_11  and  C_20
    7  A    between atoms: C_12  and  O_36
    8  A    between atoms: N_14  and  C_21
    9  A    between atoms: C_20  and  C_22
   10  A    between atoms: C_21  and  C_35
   11  A    between atoms: C_22  and  C_33
   12  A    between atoms: C_22  and  O_36
   13  A    between atoms: C_31  and  N_34
   14  A    between atoms: N_34  and  C_35
                            x       y       z     vdW  Elec       q    Type
                         _______ _______ _______ _____ _____    ______ ____

>  <TORSDO>
F 14

$$$$
=
 OpenBabel11062422243D

 36 38  0  0  1  0  0  0  0  0999 V2000
  190.4120  175.1300  142.3460 C   0  0  0  0  0  0  0  0  0  0  0  0
  189.9110  173.8610  142.2940 N   0  0  0  0  0  0  0  0  0  0  0  0
  189.6840  177.5520  142.4330 C   0  0  0  0  0  3  0  0  0  0  0  0
  187.4630  177.0750  142.2870 N   0  0  0  0  0  0  0  0  0  0  0  0
  188.1710  175.9340  142.2880 C   0  0  0  0  0  0  0  0  0  0  0  0
  188.5620  173.6280  142.2420 C   0  0  0  0  0  3  0  0  0  0  0  0
  187.6810  174.6710  142.2360 N   0  0  0  0  0  0  0  0  0  0  0  0
  189.5040  176.1850  142.3570 C   0  0  0  0  0  0  0  0  0  0  0  0
  188.3850  178.0680  142.4010 C   0  0  0  0  0  3  0  0  0  0  0  0
  186.0000  177.2460  142.2950 C   0  0  2  0  0  3  0  0  0  0  0  0
  185.5030  177.9980  141.0660 C   0  0  0  0  0  1  0  0  0  0  0  0
  185.5180  177.9710  143.5520 C   0  0  0  0  0  2  0  0  0  0  0  0
  185.5770  177.0780  144.7050 N   0  0  0  0  0  2  0  0  0  0  0  0
  185.9060  178.9880  145.9840 F   0  0  0  0  0  0  0  0  0  0  0  0
  186.1810  176.9740  146.9850 O   0  0  0  0  0  1  0  0  0  0  0  0
  186.3510  177.6900  145.7900 C   0  0  1  0  0  0  0  0  0  0  0  0
  187.7200  177.7440  145.4380 O   0  0  0  0  0  0  0  0  0  0  0  0
  189.6680  174.6220  146.2330 C   0  0  0  0  0  2  0  0  0  0  0  0
  190.1190  175.1220  147.6060 C   0  0  0  0  0  2  0  0  0  0  0  0
  188.5330  175.4800  145.6500 C   0  0  0  0  0  2  0  0  0  0  0  0
  190.6170  176.5740  147.5300 C   0  0  0  0  0  2  0  0  0  0  0  0
  189.8450  177.4390  146.5220 C   0  0  0  0  0  2  0  0  0  0  0  0
  188.4470  176.8790  146.2770 C   0  0  0  0  0  3  0  0  0  0  0  0
  191.8890  175.3510  142.4050 C   0  0  0  0  0  2  0  0  0  0  0  0
  193.2010  173.2400  143.8490 O   0  0  0  0  0  0  0  0  0  0  0  0
  192.9880  174.3250  144.4530 C   0  0  0  0  0  0  0  0  0  0  0  0
  192.3520  175.4180  143.7850 N   0  0  0  0  0  2  0  0  0  0  0  0
  193.3790  174.4620  145.8900 C   0  0  0  0  0  2  0  0  0  0  0  0
  194.7280  175.1590  146.0720 C   0  0  2  0  0  3  0  0  0  0  0  0
  194.0490  177.2210  147.0900 O   0  0  0  0  0  1  0  0  0  0  0  0
  195.0620  177.4120  145.0450 O   0  0  0  0  0  0  0  0  0  0  0  0
  194.5830  176.6500  146.1030 C   0  0  0  0  0  0  0  0  0  0  0  0
  195.6410  174.7660  145.0860 O   0  0  0  0  0  0  0  0  0  0  0  0
  196.6180  174.0420  145.7730 C   0  0  0  0  0  2  0  0  0  0  0  0
  197.8010  174.0300  145.0280 O   0  0  0  0  0  0  0  0  0  0  0  0
  197.4970  174.7620  143.8800 C   0  0  0  0  0  1  0  0  0  0  0  0
  1  8  1  0  0  0  0
  1 24  1  0  0  0  0
  2  1  2  0  0  0  0
  4  5  1  0  0  0  0
  4 10  1  0  0  0  0
  4  9  1  0  0  0  0
  5  8  2  0  0  0  0
  6  2  1  0  0  0  0
  7  6  2  0  0  0  0
  7  5  1  0  0  0  0
  8  3  1  0  0  0  0
  9  3  2  0  0  0  0
 10 11  1  6  0  0  0
 10 12  1  0  0  0  0
 12 13  1  0  0  0  0
 13 16  1  0  0  0  0
 16 14  1  1  0  0  0
 16 15  1  0  0  0  0
 17 16  1  0  0  0  0
 17 23  1  0  0  0  0
 18 19  1  0  0  0  0
 20 18  1  0  0  0  0
 20 23  1  0  0  0  0
 21 19  1  0  0  0  0
 22 21  1  0  0  0  0
 23 22  1  0  0  0  0
 24 27  1  0  0  0  0
 25 26  2  0  0  0  0
 26 28  1  0  0  0  0
 27 26  1  0  0  0  0
 29 28  1  6  0  0  0
 29 32  1  0  0  0  0
 31 32  2  0  0  0  0
 32 30  1  0  0  0  0
 33 34  1  0  0  0  0
 33 29  1  0  0  0  0
 35 34  1  0  0  0  0
 36 35  1  0  0  0  0
M  END
>  <MODEL>
3

>  <REMARK>
 VINA RESULT:      -6.5      1.989      3.457
  Name = 
  14 active torsions:
  status: ('A' for Active; 'I' for Inactive)
    1  A    between atoms: O_2  and  C_25
    2  A    between atoms: O_2  and  C_31
    3  A    between atoms: C_4  and  C_10
    4  A    between atoms: O_5  and  C_12
    5  A    between atoms: C_10  and  N_23
    6  A    between atoms: C_11  and  C_20
    7  A    between atoms: C_12  and  O_36
    8  A    between atoms: N_14  and  C_21
    9  A    between atoms: C_20  and  C_22
   10  A    between atoms: C_21  and  C_35
   11  A    between atoms: C_22  and  C_33
   12  A    between atoms: C_22  and  O_36
   13  A    between atoms: C_31  and  N_34
   14  A    between atoms: N_34  and  C_35
                            x       y       z     vdW  Elec       q    Type
                         _______ _______ _______ _____ _____    ______ ____

>  <TORSDO>
F 14

$$$$
=
 OpenBabel11062422243D

 36 38  0  0  1  0  0  0  0  0999 V2000
  192.0350  176.1510  146.3020 C   0  0  0  0  0  0  0  0  0  0  0  0
  191.2970  175.5360  147.2730 N   0  0  0  0  0  0  0  0  0  0  0  0
  191.8920  176.9540  143.9070 C   0  0  0  0  0  3  0  0  0  0  0  0
  189.7760  176.1770  143.5850 N   0  0  0  0  0  0  0  0  0  0  0  0
  190.1680  175.9140  144.8430 C   0  0  0  0  0  0  0  0  0  0  0  0
  190.0140  175.1180  147.0380 C   0  0  0  0  0  3  0  0  0  0  0  0
  189.4410  175.3050  145.8110 N   0  0  0  0  0  0  0  0  0  0  0  0
  191.4350  176.3510  145.0620 C   0  0  0  0  0  0  0  0  0  0  0  0
  190.8210  176.8370  143.0160 C   0  0  0  0  0  3  0  0  0  0  0  0
  188.4620  175.9360  142.9650 C   0  0  2  0  0  3  0  0  0  0  0  0
  188.4520  174.6720  142.1140 C   0  0  0  0  0  1  0  0  0  0  0  0
  188.0120  177.1180  142.1060 C   0  0  0  0  0  2  0  0  0  0  0  0
  187.6070  178.2350  142.9550 N   0  0  0  0  0  2  0  0  0  0  0  0
  185.9360  179.8310  143.1830 F   0  0  0  0  0  0  0  0  0  0  0  0
  185.8230  178.4140  141.4190 O   0  0  0  0  0  1  0  0  0  0  0  0
  186.1830  178.5310  142.7710 C   0  0  1  0  0  0  0  0  0  0  0  0
  185.4010  177.6620  143.5660 O   0  0  0  0  0  0  0  0  0  0  0  0
  184.3850  178.4220  147.1110 C   0  0  0  0  0  2  0  0  0  0  0  0
  185.7950  178.2380  147.6700 C   0  0  0  0  0  2  0  0  0  0  0  0
  184.3810  178.5280  145.5770 C   0  0  0  0  0  2  0  0  0  0  0  0
  186.4520  176.9670  147.1090 C   0  0  0  0  0  2  0  0  0  0  0  0
  186.0700  176.6670  145.6510 C   0  0  0  0  0  2  0  0  0  0  0  0
  185.6400  177.9390  144.9250 C   0  0  0  0  0  3  0  0  0  0  0  0
  193.4310  176.5970  146.5930 C   0  0  0  0  0  2  0  0  0  0  0  0
  195.2870  175.9290  144.5010 O   0  0  0  0  0  0  0  0  0  0  0  0
  195.2430  175.1800  145.5130 C   0  0  0  0  0  0  0  0  0  0  0  0
  194.3510  175.4670  146.5940 N   0  0  0  0  0  2  0  0  0  0  0  0
  196.1110  173.9640  145.5730 C   0  0  0  0  0  2  0  0  0  0  0  0
  195.3220  172.6650  145.3990 C   0  0  2  0  0  3  0  0  0  0  0  0
  197.1040  171.2060  146.0650 O   0  0  0  0  0  1  0  0  0  0  0  0
  196.0850  170.6830  144.0830 O   0  0  0  0  0  0  0  0  0  0  0  0
  196.2270  171.4870  145.2060 C   0  0  0  0  0  0  0  0  0  0  0  0
  194.4030  172.7660  144.3480 O   0  0  0  0  0  0  0  0  0  0  0  0
  193.2250  172.2060  144.8480 C   0  0  0  0  0  2  0  0  0  0  0  0
  192.1400  173.0190  144.5120 O   0  0  0  0  0  0  0  0  0  0  0  0
  192.3260  173.3070  143.1590 C   0  0  0  0  0  1  0  0  0  0  0  0
  1 24  1  0  0  0  0
  1  2  1  0  0  0  0
  3  8  1  0  0  0  0
  4  5  1  0  0  0  0
  5  8  1  0  0  0  0
  5  7  2  0  0  0  0
  6  2  2  0  0  0  0
  7  6  1  0  0  0  0
  8  1  2  0  0  0  0
  9  4  1  0  0  0  0
  9  3  2  0  0  0  0
 10 11  1  6  0  0  0
 10  4  1  0  0  0  0
 12 13  1  0  0  0  0
 12 10  1  0  0  0  0
 16 15  1  6  0  0  0
 16 13  1  0  0  0  0
 16 14  1  0  0  0  0
 16 17  1  0  0  0  0
 17 23  1  0  0  0  0
 18 19  1  0  0  0  0
 20 18  1  0  0  0  0
 21 19  1  0  0  0  0
 22 21  1  0  0  0  0
 23 20  1  0  0  0  0
 23 22  1  0  0  0  0
 24 27  1  0  0  0  0
 25 26  2  0  0  0  0
 26 28  1  0  0  0  0
 26 27  1  0  0  0  0
 29 28  1  6  0  0  0
 31 32  2  0  0  0  0
 32 29  1  0  0  0  0
 32 30  1  0  0  0  0
 33 34  1  0  0  0  0
 33 29  1  0  0  0  0
 35 34  1  0  0  0  0
 36 35  1  0  0  0  0
M  END
>  <MODEL>
4

>  <REMARK>
 VINA RESULT:      -6.5      1.662      2.436
  Name = 
  14 active torsions:
  status: ('A' for Active; 'I' for Inactive)
    1  A    between atoms: O_2  and  C_25
    2  A    between atoms: O_2  and  C_31
    3  A    between atoms: C_4  and  C_10
    4  A    between atoms: O_5  and  C_12
    5  A    between atoms: C_10  and  N_23
    6  A    between atoms: C_11  and  C_20
    7  A    between atoms: C_12  and  O_36
    8  A    between atoms: N_14  and  C_21
    9  A    between atoms: C_20  and  C_22
   10  A    between atoms: C_21  and  C_35
   11  A    between atoms: C_22  and  C_33
   12  A    between atoms: C_22  and  O_36
   13  A    between atoms: C_31  and  N_34
   14  A    between atoms: N_34  and  C_35
                            x       y       z     vdW  Elec       q    Type
                         _______ _______ _______ _____ _____    ______ ____

>  <TORSDO>
F 14

$$$$
=
 OpenBabel11062422243D

 36 38  0  0  1  0  0  0  0  0999 V2000
  191.4790  176.4570  145.1250 C   0  0  0  0  0  0  0  0  0  0  0  0
  191.8260  177.5300  144.3550 N   0  0  0  0  0  0  0  0  0  0  0  0
  190.0780  174.3500  145.0820 C   0  0  0  0  0  3  0  0  0  0  0  0
  189.2350  174.7410  143.0040 N   0  0  0  0  0  0  0  0  0  0  0  0
  190.0850  175.7260  143.3390 C   0  0  0  0  0  0  0  0  0  0  0  0
  191.3160  177.7000  143.0960 C   0  0  0  0  0  3  0  0  0  0  0  0
  190.4340  176.7930  142.5790 N   0  0  0  0  0  0  0  0  0  0  0  0
  190.5930  175.5300  144.5830 C   0  0  0  0  0  0  0  0  0  0  0  0
  189.2470  173.8830  144.0590 C   0  0  0  0  0  3  0  0  0  0  0  0
  188.5280  174.5350  141.7270 C   0  0  2  0  0  3  0  0  0  0  0  0
  189.4170  173.8790  140.6780 C   0  0  0  0  0  1  0  0  0  0  0  0
  187.9770  175.8460  141.1640 C   0  0  0  0  0  2  0  0  0  0  0  0
  186.9210  176.3640  142.0290 N   0  0  0  0  0  2  0  0  0  0  0  0
  187.9240  178.2830  141.1890 F   0  0  0  0  0  0  0  0  0  0  0  0
  185.7510  178.4040  141.8190 O   0  0  0  0  0  1  0  0  0  0  0  0
  186.9970  177.8260  142.1120 C   0  0  1  0  0  0  0  0  0  0  0  0
  187.4310  178.2170  143.4000 O   0  0  0  0  0  0  0  0  0  0  0  0
  186.3290  176.8200  146.7170 C   0  0  0  0  0  2  0  0  0  0  0  0
  184.8570  177.1690  146.4990 C   0  0  0  0  0  2  0  0  0  0  0  0
  187.1460  176.9240  145.4190 C   0  0  0  0  0  2  0  0  0  0  0  0
  184.7020  178.5990  145.9580 C   0  0  0  0  0  2  0  0  0  0  0  0
  185.8260  179.0220  145.0000 C   0  0  0  0  0  2  0  0  0  0  0  0
  186.4810  177.8050  144.3520 C   0  0  0  0  0  3  0  0  0  0  0  0
  192.0560  176.2990  146.4950 C   0  0  0  0  0  2  0  0  0  0  0  0
  194.7970  176.9760  145.9530 O   0  0  0  0  0  0  0  0  0  0  0  0
  194.5230  175.7700  146.1920 C   0  0  0  0  0  0  0  0  0  0  0  0
  193.1800  175.3720  146.4830 N   0  0  0  0  0  2  0  0  0  0  0  0
  195.6070  174.7410  146.1440 C   0  0  0  0  0  2  0  0  0  0  0  0
  195.4620  173.7860  144.9580 C   0  0  2  0  0  3  0  0  0  0  0  0
  195.8190  171.5710  145.8060 O   0  0  0  0  0  1  0  0  0  0  0  0
  193.6420  172.1210  145.3560 O   0  0  0  0  0  0  0  0  0  0  0  0
  194.9960  172.4290  145.3910 C   0  0  0  0  0  0  0  0  0  0  0  0
  196.6540  173.6960  144.2300 O   0  0  0  0  0  0  0  0  0  0  0  0
  196.5350  174.6610  143.2280 C   0  0  0  0  0  2  0  0  0  0  0  0
  197.5660  175.5960  143.3530 O   0  0  0  0  0  0  0  0  0  0  0  0
  196.9450  176.8290  143.1490 C   0  0  0  0  0  1  0  0  0  0  0  0
  1 24  1  0  0  0  0
  2  1  2  0  0  0  0
  4  5  1  0  0  0  0
  4  9  1  0  0  0  0
  5  8  2  0  0  0  0
  6  2  1  0  0  0  0
  7  6  2  0  0  0  0
  7  5  1  0  0  0  0
  8  3  1  0  0  0  0
  8  1  1  0  0  0  0
  9  3  2  0  0  0  0
 10 11  1  6  0  0  0
 10  4  1  0  0  0  0
 12 10  1  0  0  0  0
 12 13  1  0  0  0  0
 13 16  1  0  0  0  0
 15 16  1  0  0  0  0
 16 14  1  6  0  0  0
 16 17  1  0  0  0  0
 17 23  1  0  0  0  0
 19 18  1  0  0  0  0
 20 18  1  0  0  0  0
 21 19  1  0  0  0  0
 22 21  1  0  0  0  0
 23 22  1  0  0  0  0
 23 20  1  0  0  0  0
 25 26  2  0  0  0  0
 26 27  1  0  0  0  0
 27 24  1  0  0  0  0
 28 26  1  0  0  0  0
 29 32  1  0  0  0  0
 29 28  1  1  0  0  0
 31 32  2  0  0  0  0
 32 30  1  0  0  0  0
 33 29  1  0  0  0  0
 34 35  1  0  0  0  0
 34 33  1  0  0  0  0
 36 35  1  0  0  0  0
M  END
>  <MODEL>
5

>  <REMARK>
 VINA RESULT:      -6.3      1.683      2.404
  Name = 
  14 active torsions:
  status: ('A' for Active; 'I' for Inactive)
    1  A    between atoms: O_2  and  C_25
    2  A    between atoms: O_2  and  C_31
    3  A    between atoms: C_4  and  C_10
    4  A    between atoms: O_5  and  C_12
    5  A    between atoms: C_10  and  N_23
    6  A    between atoms: C_11  and  C_20
    7  A    between atoms: C_12  and  O_36
    8  A    between atoms: N_14  and  C_21
    9  A    between atoms: C_20  and  C_22
   10  A    between atoms: C_21  and  C_35
   11  A    between atoms: C_22  and  C_33
   12  A    between atoms: C_22  and  O_36
   13  A    between atoms: C_31  and  N_34
   14  A    between atoms: N_34  and  C_35
                            x       y       z     vdW  Elec       q    Type
                         _______ _______ _______ _____ _____    ______ ____

>  <TORSDO>
F 14

$$$$
=
 OpenBabel11062422243D

 36 38  0  0  1  0  0  0  0  0999 V2000
  190.6480  175.3510  144.0670 C   0  0  0  0  0  0  0  0  0  0  0  0
  190.6120  174.1190  143.4770 N   0  0  0  0  0  0  0  0  0  0  0  0
  189.4100  177.5570  144.1370 C   0  0  0  0  0  3  0  0  0  0  0  0
  187.8850  176.9550  142.5580 N   0  0  0  0  0  0  0  0  0  0  0  0
  188.7290  175.9350  142.7830 C   0  0  0  0  0  0  0  0  0  0  0  0
  189.6510  173.7960  142.5570 C   0  0  0  0  0  3  0  0  0  0  0  0
  188.6990  174.7110  142.2020 N   0  0  0  0  0  0  0  0  0  0  0  0
  189.6640  176.2690  143.7100 C   0  0  0  0  0  0  0  0  0  0  0  0
  188.2840  177.9430  143.4040 C   0  0  0  0  0  3  0  0  0  0  0  0
  186.6970  176.9870  141.6880 C   0  0  2  0  0  3  0  0  0  0  0  0
  187.0660  177.1180  140.2150 C   0  0  0  0  0  1  0  0  0  0  0  0
  185.7450  178.1230  142.0650 C   0  0  0  0  0  2  0  0  0  0  0  0
  184.7500  177.6520  143.0240 N   0  0  0  0  0  2  0  0  0  0  0  0
  185.2720  179.7470  143.8790 F   0  0  0  0  0  0  0  0  0  0  0  0
  183.1000  179.2930  143.4220 O   0  0  0  0  0  1  0  0  0  0  0  0
  184.3080  178.7520  143.8880 C   0  0  1  0  0  0  0  0  0  0  0  0
  184.1620  178.2940  145.2180 O   0  0  0  0  0  0  0  0  0  0  0  0
  186.6610  178.6700  148.0090 C   0  0  0  0  0  2  0  0  0  0  0  0
  187.7350  177.8410  147.3060 C   0  0  0  0  0  2  0  0  0  0  0  0
  185.5240  179.0710  147.0550 C   0  0  0  0  0  2  0  0  0  0  0  0
  187.1410  176.5530  146.7130 C   0  0  0  0  0  2  0  0  0  0  0  0
  185.7120  176.7230  146.1750 C   0  0  0  0  0  2  0  0  0  0  0  0
  185.4340  178.1780  145.8080 C   0  0  0  0  0  3  0  0  0  0  0  0
  191.7090  175.6710  145.0700 C   0  0  0  0  0  2  0  0  0  0  0  0
  194.0930  176.6330  146.3560 O   0  0  0  0  0  0  0  0  0  0  0  0
  194.1230  176.4630  145.1080 C   0  0  0  0  0  0  0  0  0  0  0  0
  192.9740  175.9730  144.4120 N   0  0  0  0  0  2  0  0  0  0  0  0
  195.3620  176.8030  144.3440 C   0  0  0  0  0  2  0  0  0  0  0  0
  196.1210  175.5630  143.8670 C   0  0  2  0  0  3  0  0  0  0  0  0
  195.6830  174.0520  142.0570 O   0  0  0  0  0  1  0  0  0  0  0  0
  195.6770  176.2760  141.5150 O   0  0  0  0  0  0  0  0  0  0  0  0
  195.8230  175.2460  142.4340 C   0  0  0  0  0  0  0  0  0  0  0  0
  195.8600  174.4590  144.6880 O   0  0  0  0  0  0  0  0  0  0  0  0
  197.0850  174.1610  145.2870 C   0  0  0  0  0  2  0  0  0  0  0  0
  196.9210  173.1040  146.1870 O   0  0  0  0  0  0  0  0  0  0  0  0
  195.9860  172.2680  145.5760 C   0  0  0  0  0  1  0  0  0  0  0  0
  1 24  1  0  0  0  0
  2  1  2  0  0  0  0
  4  5  1  0  0  0  0
  4  9  1  0  0  0  0
  5  8  2  0  0  0  0
  6  2  1  0  0  0  0
  7  6  2  0  0  0  0
  7  5  1  0  0  0  0
  8  1  1  0  0  0  0
  8  3  1  0  0  0  0
  9  3  2  0  0  0  0
 10 11  1  6  0  0  0
 10 12  1  0  0  0  0
 10  4  1  0  0  0  0
 12 13  1  0  0  0  0
 13 16  1  0  0  0  0
 14 16  1  0  0  0  0
 16 15  1  6  0  0  0
 16 17  1  0  0  0  0
 17 23  1  0  0  0  0
 19 18  1  0  0  0  0
 20 18  1  0  0  0  0
 21 19  1  0  0  0  0
 22 21  1  0  0  0  0
 23 22  1  0  0  0  0
 23 20  1  0  0  0  0
 26 25  2  0  0  0  0
 27 24  1  0  0  0  0
 27 26  1  0  0  0  0
 28 26  1  0  0  0  0
 29 28  1  1  0  0  0
 29 33  1  0  0  0  0
 30 32  1  0  0  0  0
 31 32  2  0  0  0  0
 32 29  1  0  0  0  0
 33 34  1  0  0  0  0
 34 35  1  0  0  0  0
 36 35  1  0  0  0  0
M  END
>  <MODEL>
6

>  <REMARK>
 VINA RESULT:      -6.2      1.352      2.286
  Name = 
  14 active torsions:
  status: ('A' for Active; 'I' for Inactive)
    1  A    between atoms: O_2  and  C_25
    2  A    between atoms: O_2  and  C_31
    3  A    between atoms: C_4  and  C_10
    4  A    between atoms: O_5  and  C_12
    5  A    between atoms: C_10  and  N_23
    6  A    between atoms: C_11  and  C_20
    7  A    between atoms: C_12  and  O_36
    8  A    between atoms: N_14  and  C_21
    9  A    between atoms: C_20  and  C_22
   10  A    between atoms: C_21  and  C_35
   11  A    between atoms: C_22  and  C_33
   12  A    between atoms: C_22  and  O_36
   13  A    between atoms: C_31  and  N_34
   14  A    between atoms: N_34  and  C_35
                            x       y       z     vdW  Elec       q    Type
                         _______ _______ _______ _____ _____    ______ ____

>  <TORSDO>
F 14

$$$$
=
 OpenBabel11062422243D

 36 38  0  0  1  0  0  0  0  0999 V2000
  189.4450  173.4180  142.7790 C   0  0  0  0  0  0  0  0  0  0  0  0
  189.2950  172.2880  143.5310 N   0  0  0  0  0  0  0  0  0  0  0  0
  191.1760  175.1260  142.0820 C   0  0  0  0  0  3  0  0  0  0  0  0
  192.8390  174.2180  143.3440 N   0  0  0  0  0  0  0  0  0  0  0  0
  191.7190  173.4900  143.4810 C   0  0  0  0  0  0  0  0  0  0  0  0
  190.3390  171.7620  144.2450 C   0  0  0  0  0  3  0  0  0  0  0  0
  191.5640  172.3670  144.2240 N   0  0  0  0  0  0  0  0  0  0  0  0
  190.7010  174.0170  142.7520 C   0  0  0  0  0  0  0  0  0  0  0  0
  192.5180  175.2080  142.4680 C   0  0  0  0  0  3  0  0  0  0  0  0
  194.1770  173.9560  143.9020 C   0  0  2  0  0  3  0  0  0  0  0  0
  194.6800  172.5590  143.5560 C   0  0  0  0  0  1  0  0  0  0  0  0
  194.2060  174.1340  145.4200 C   0  0  0  0  0  2  0  0  0  0  0  0
  194.7190  175.4570  145.7650 N   0  0  0  0  0  2  0  0  0  0  0  0
  194.1580  177.1450  147.2570 F   0  0  0  0  0  0  0  0  0  0  0  0
  193.0990  177.0960  145.2550 O   0  0  0  0  0  1  0  0  0  0  0  0
  193.6430  176.3070  146.2810 C   0  0  1  0  0  0  0  0  0  0  0  0
  192.6370  175.5090  146.8750 O   0  0  0  0  0  0  0  0  0  0  0  0
  188.9010  175.3610  146.4360 C   0  0  0  0  0  2  0  0  0  0  0  0
  188.7570  176.8670  146.2200 C   0  0  0  0  0  2  0  0  0  0  0  0
  190.3640  174.9000  146.3320 C   0  0  0  0  0  2  0  0  0  0  0  0
  189.5730  177.6560  147.2560 C   0  0  0  0  0  2  0  0  0  0  0  0
  190.8950  176.9760  147.6470 C   0  0  0  0  0  2  0  0  0  0  0  0
  191.3750  176.0360  146.5450 C   0  0  0  0  0  3  0  0  0  0  0  0
  188.2860  173.9650  142.0090 C   0  0  0  0  0  2  0  0  0  0  0  0
  187.5830  176.4850  140.8190 O   0  0  0  0  0  0  0  0  0  0  0  0
  187.3740  176.3360  142.0520 C   0  0  0  0  0  0  0  0  0  0  0  0
  187.6900  175.1010  142.7000 N   0  0  0  0  0  2  0  0  0  0  0  0
  186.8180  177.4710  142.8510 C   0  0  0  0  0  2  0  0  0  0  0  0
  185.3210  177.3210  143.1280 C   0  0  2  0  0  3  0  0  0  0  0  0
  185.0250  178.6680  141.1670 O   0  0  0  0  0  0  0  0  0  0  0  0
  183.1320  178.2730  142.3920 O   0  0  0  0  0  1  0  0  0  0  0  0
  184.4960  178.1310  142.1750 C   0  0  0  0  0  0  0  0  0  0  0  0
  185.0140  177.6440  144.4550 O   0  0  0  0  0  0  0  0  0  0  0  0
  185.6600  178.8600  144.6850 C   0  0  0  0  0  2  0  0  0  0  0  0
  185.6470  179.1450  146.0530 O   0  0  0  0  0  0  0  0  0  0  0  0
  184.6590  178.3090  146.5750 C   0  0  0  0  0  1  0  0  0  0  0  0
  1  2  1  0  0  0  0
  2  6  2  0  0  0  0
  3  9  2  0  0  0  0
  3  8  1  0  0  0  0
  4  5  1  0  0  0  0
  4 10  1  0  0  0  0
  5  7  2  0  0  0  0
  7  6  1  0  0  0  0
  8  1  2  0  0  0  0
  8  5  1  0  0  0  0
  9  4  1  0  0  0  0
 10 11  1  1  0  0  0
 10 12  1  0  0  0  0
 12 13  1  0  0  0  0
 13 16  1  0  0  0  0
 16 15  1  6  0  0  0
 16 17  1  0  0  0  0
 16 14  1  0  0  0  0
 19 18  1  0  0  0  0
 19 21  1  0  0  0  0
 20 18  1  0  0  0  0
 20 23  1  0  0  0  0
 21 22  1  0  0  0  0
 23 17  1  0  0  0  0
 23 22  1  0  0  0  0
 24 27  1  0  0  0  0
 24  1  1  0  0  0  0
 25 26  2  0  0  0  0
 26 27  1  0  0  0  0
 26 28  1  0  0  0  0
 29 28  1  6  0  0  0
 29 33  1  0  0  0  0
 30 32  2  0  0  0  0
 32 31  1  0  0  0  0
 32 29  1  0  0  0  0
 33 34  1  0  0  0  0
 34 35  1  0  0  0  0
 35 36  1  0  0  0  0
M  END
>  <MODEL>
7

>  <REMARK>
 VINA RESULT:      -6.1      2.829      8.261
  Name = 
  14 active torsions:
  status: ('A' for Active; 'I' for Inactive)
    1  A    between atoms: O_2  and  C_25
    2  A    between atoms: O_2  and  C_31
    3  A    between atoms: C_4  and  C_10
    4  A    between atoms: O_5  and  C_12
    5  A    between atoms: C_10  and  N_23
    6  A    between atoms: C_11  and  C_20
    7  A    between atoms: C_12  and  O_36
    8  A    between atoms: N_14  and  C_21
    9  A    between atoms: C_20  and  C_22
   10  A    between atoms: C_21  and  C_35
   11  A    between atoms: C_22  and  C_33
   12  A    between atoms: C_22  and  O_36
   13  A    between atoms: C_31  and  N_34
   14  A    between atoms: N_34  and  C_35
                            x       y       z     vdW  Elec       q    Type
                         _______ _______ _______ _____ _____    ______ ____

>  <TORSDO>
F 14

$$$$
=
 OpenBabel11062422243D

 36 38  0  0  1  0  0  0  0  0999 V2000
  190.4600  176.9740  145.5720 C   0  0  0  0  0  0  0  0  0  0  0  0
  190.0690  176.4960  146.7900 N   0  0  0  0  0  0  0  0  0  0  0  0
  192.2890  176.7380  143.8390 C   0  0  0  0  0  3  0  0  0  0  0  0
  193.5030  175.2520  145.0640 N   0  0  0  0  0  0  0  0  0  0  0  0
  192.3870  175.5840  145.7330 C   0  0  0  0  0  0  0  0  0  0  0  0
  190.8200  175.5750  147.4700 C   0  0  0  0  0  3  0  0  0  0  0  0
  191.9920  175.1130  146.9420 N   0  0  0  0  0  0  0  0  0  0  0  0
  191.6480  176.4840  145.0350 C   0  0  0  0  0  0  0  0  0  0  0  0
  193.4350  175.9380  143.8920 C   0  0  0  0  0  3  0  0  0  0  0  0
  194.5320  174.2630  145.4310 C   0  0  2  0  0  3  0  0  0  0  0  0
  195.9430  174.8020  145.2300 C   0  0  0  0  0  1  0  0  0  0  0  0
  194.3790  172.9620  144.6430 C   0  0  0  0  0  2  0  0  0  0  0  0
  193.1370  172.2900  145.0130 N   0  0  0  0  0  2  0  0  0  0  0  0
  192.8320  172.8210  142.7730 F   0  0  0  0  0  0  0  0  0  0  0  0
  192.0270  170.8390  143.5170 O   0  0  0  0  0  1  0  0  0  0  0  0
  192.2450  172.1840  143.8540 C   0  0  1  0  0  0  0  0  0  0  0  0
  191.0160  172.8280  144.1290 O   0  0  0  0  0  0  0  0  0  0  0  0
  187.9050  172.6660  142.0140 C   0  0  0  0  0  2  0  0  0  0  0  0
  188.5520  173.3620  140.8160 C   0  0  0  0  0  2  0  0  0  0  0  0
  188.9470  172.2080  143.0470 C   0  0  0  0  0  2  0  0  0  0  0  0
  189.3510  174.5980  141.2590 C   0  0  0  0  0  2  0  0  0  0  0  0
  190.0450  174.4290  142.6200 C   0  0  0  0  0  2  0  0  0  0  0  0
  190.2850  172.9550  142.9340 C   0  0  0  0  0  3  0  0  0  0  0  0
  189.6160  177.9770  144.8530 C   0  0  0  0  0  2  0  0  0  0  0  0
  188.5190  178.0570  142.1980 O   0  0  0  0  0  0  0  0  0  0  0  0
  187.8530  177.4730  143.0940 C   0  0  0  0  0  0  0  0  0  0  0  0
  188.3520  177.3870  144.4320 N   0  0  0  0  0  2  0  0  0  0  0  0
  186.5180  176.8890  142.7630 C   0  0  0  0  0  2  0  0  0  0  0  0
  185.3890  177.9190  142.8330 C   0  0  2  0  0  3  0  0  0  0  0  0
  183.5290  178.2810  141.3620 O   0  0  0  0  0  1  0  0  0  0  0  0
  185.5930  178.2910  140.3710 O   0  0  0  0  0  0  0  0  0  0  0  0
  184.7770  178.1660  141.4870 C   0  0  0  0  0  0  0  0  0  0  0  0
  185.8270  179.1160  143.4100 O   0  0  0  0  0  0  0  0  0  0  0  0
  184.8480  179.4390  144.3510 C   0  0  0  0  0  2  0  0  0  0  0  0
  184.4450  178.2820  145.0240 O   0  0  0  0  0  0  0  0  0  0  0  0
  184.4400  178.6460  146.3710 C   0  0  0  0  0  1  0  0  0  0  0  0
  1  2  1  0  0  0  0
  2  6  2  0  0  0  0
  3  9  2  0  0  0  0
  3  8  1  0  0  0  0
  4 10  1  0  0  0  0
  4  5  1  0  0  0  0
  5  7  2  0  0  0  0
  7  6  1  0  0  0  0
  8  1  2  0  0  0  0
  8  5  1  0  0  0  0
  9  4  1  0  0  0  0
 10 11  1  6  0  0  0
 12 13  1  0  0  0  0
 12 10  1  0  0  0  0
 15 16  1  0  0  0  0
 16 14  1  6  0  0  0
 16 17  1  0  0  0  0
 16 13  1  0  0  0  0
 18 20  1  0  0  0  0
 19 21  1  0  0  0  0
 19 18  1  0  0  0  0
 21 22  1  0  0  0  0
 22 23  1  0  0  0  0
 23 20  1  0  0  0  0
 23 17  1  0  0  0  0
 24  1  1  0  0  0  0
 25 26  2  0  0  0  0
 26 27  1  0  0  0  0
 27 24  1  0  0  0  0
 28 26  1  0  0  0  0
 29 28  1  6  0  0  0
 29 33  1  0  0  0  0
 30 32  1  0  0  0  0
 31 32  2  0  0  0  0
 32 29  1  0  0  0  0
 33 34  1  0  0  0  0
 34 35  1  0  0  0  0
 35 36  1  0  0  0  0
M  END
>  <MODEL>
8

>  <REMARK>
 VINA RESULT:      -6.1      3.175      8.631
  Name = 
  14 active torsions:
  status: ('A' for Active; 'I' for Inactive)
    1  A    between atoms: O_2  and  C_25
    2  A    between atoms: O_2  and  C_31
    3  A    between atoms: C_4  and  C_10
    4  A    between atoms: O_5  and  C_12
    5  A    between atoms: C_10  and  N_23
    6  A    between atoms: C_11  and  C_20
    7  A    between atoms: C_12  and  O_36
    8  A    between atoms: N_14  and  C_21
    9  A    between atoms: C_20  and  C_22
   10  A    between atoms: C_21  and  C_35
   11  A    between atoms: C_22  and  C_33
   12  A    between atoms: C_22  and  O_36
   13  A    between atoms: C_31  and  N_34
   14  A    between atoms: N_34  and  C_35
                            x       y       z     vdW  Elec       q    Type
                         _______ _______ _______ _____ _____    ______ ____

>  <TORSDO>
F 14

$$$$
=
 OpenBabel11062422243D

 36 38  0  0  1  0  0  0  0  0999 V2000
  190.6800  176.4390  145.8560 C   0  0  0  0  0  0  0  0  0  0  0  0
  191.3530  177.0950  144.8650 N   0  0  0  0  0  0  0  0  0  0  0  0
  188.3590  176.1340  146.8170 C   0  0  0  0  0  3  0  0  0  0  0  0
  187.3800  177.6120  145.3890 N   0  0  0  0  0  0  0  0  0  0  0  0
  188.6920  177.5190  145.1140 C   0  0  0  0  0  0  0  0  0  0  0  0
  190.7090  177.9480  144.0090 C   0  0  0  0  0  3  0  0  0  0  0  0
  189.3660  178.1680  144.1330 N   0  0  0  0  0  0  0  0  0  0  0  0
  189.3090  176.6560  145.9620 C   0  0  0  0  0  0  0  0  0  0  0  0
  187.1680  176.7460  146.4160 C   0  0  0  0  0  3  0  0  0  0  0  0
  186.3450  178.3760  144.6710 C   0  0  2  0  0  3  0  0  0  0  0  0
  185.2260  178.8380  145.5960 C   0  0  0  0  0  1  0  0  0  0  0  0
  185.7400  177.5710  143.5200 C   0  0  0  0  0  2  0  0  0  0  0  0
  186.0680  178.1920  142.2400 N   0  0  0  0  0  2  0  0  0  0  0  0
  186.3340  177.1270  140.1940 F   0  0  0  0  0  0  0  0  0  0  0  0
  188.1920  177.8580  141.2650 O   0  0  0  0  0  1  0  0  0  0  0  0
  186.9150  177.3020  141.4400 C   0  0  1  0  0  0  0  0  0  0  0  0
  187.0100  176.0350  142.0610 O   0  0  0  0  0  0  0  0  0  0  0  0
  189.9090  173.7140  142.6820 C   0  0  0  0  0  2  0  0  0  0  0  0
  190.5900  174.0340  141.3510 C   0  0  0  0  0  2  0  0  0  0  0  0
  188.7970  174.7220  143.0170 C   0  0  0  0  0  2  0  0  0  0  0  0
  189.5790  174.0220  140.1940 C   0  0  0  0  0  2  0  0  0  0  0  0
  188.1890  174.5480  140.5840 C   0  0  0  0  0  2  0  0  0  0  0  0
  188.2740  175.4810  141.7890 C   0  0  0  0  0  3  0  0  0  0  0  0
  191.4120  175.5110  146.7720 C   0  0  0  0  0  2  0  0  0  0  0  0
  193.2820  174.0040  145.1920 O   0  0  0  0  0  0  0  0  0  0  0  0
  193.7310  174.9410  145.9030 C   0  0  0  0  0  0  0  0  0  0  0  0
  192.8500  175.7370  146.7010 N   0  0  0  0  0  2  0  0  0  0  0  0
  195.2020  175.2060  145.9360 C   0  0  0  0  0  2  0  0  0  0  0  0
  195.9830  174.3240  144.9610 C   0  0  2  0  0  3  0  0  0  0  0  0
  197.1890  173.5590  146.8870 O   0  0  0  0  0  1  0  0  0  0  0  0
  197.3910  172.2610  145.0120 O   0  0  0  0  0  0  0  0  0  0  0  0
  196.8910  173.3720  145.6780 C   0  0  0  0  0  0  0  0  0  0  0  0
  196.6980  175.0950  144.0370 O   0  0  0  0  0  0  0  0  0  0  0  0
  196.0910  174.8320  142.8060 C   0  0  0  0  0  2  0  0  0  0  0  0
  195.2700  175.9060  142.4500 O   0  0  0  0  0  0  0  0  0  0  0  0
  196.1220  176.7900  141.7860 C   0  0  0  0  0  1  0  0  0  0  0  0
  1  8  1  0  0  0  0
  1 24  1  0  0  0  0
  2  1  2  0  0  0  0
  4  9  1  0  0  0  0
  5  4  1  0  0  0  0
  5  8  2  0  0  0  0
  6  7  2  0  0  0  0
  6  2  1  0  0  0  0
  7  5  1  0  0  0  0
  8  3  1  0  0  0  0
  9  3  2  0  0  0  0
 10  4  1  0  0  0  0
 10 11  1  1  0  0  0
 12 10  1  0  0  0  0
 13 12  1  0  0  0  0
 15 16  1  0  0  0  0
 16 14  1  6  0  0  0
 16 17  1  0  0  0  0
 16 13  1  0  0  0  0
 18 20  1  0  0  0  0
 19 18  1  0  0  0  0
 21 22  1  0  0  0  0
 21 19  1  0  0  0  0
 22 23  1  0  0  0  0
 23 17  1  0  0  0  0
 23 20  1  0  0  0  0
 25 26  2  0  0  0  0
 26 28  1  0  0  0  0
 26 27  1  0  0  0  0
 27 24  1  0  0  0  0
 29 32  1  0  0  0  0
 29 28  1  1  0  0  0
 31 32  2  0  0  0  0
 32 30  1  0  0  0  0
 33 29  1  0  0  0  0
 34 33  1  0  0  0  0
 35 34  1  0  0  0  0
 36 35  1  0  0  0  0
M  END
>  <MODEL>
9

>  <REMARK>
 VINA RESULT:      -6.1      1.933      3.890
  Name = 
  14 active torsions:
  status: ('A' for Active; 'I' for Inactive)
    1  A    between atoms: O_2  and  C_25
    2  A    between atoms: O_2  and  C_31
    3  A    between atoms: C_4  and  C_10
    4  A    between atoms: O_5  and  C_12
    5  A    between atoms: C_10  and  N_23
    6  A    between atoms: C_11  and  C_20
    7  A    between atoms: C_12  and  O_36
    8  A    between atoms: N_14  and  C_21
    9  A    between atoms: C_20  and  C_22
   10  A    between atoms: C_21  and  C_35
   11  A    between atoms: C_22  and  C_33
   12  A    between atoms: C_22  and  O_36
   13  A    between atoms: C_31  and  N_34
   14  A    between atoms: N_34  and  C_35
                            x       y       z     vdW  Elec       q    Type
                         _______ _______ _______ _____ _____    ______ ____

>  <TORSDO>
F 14

$$$$
