=
 OpenBabel11062421383D

 52 56  0  0  1  0  0  0  0  0999 V2000
  188.1980  174.1710  138.5760 N   0  0  0  0  0  0  0  0  0  0  0  0
  186.7400  176.3320  137.2860 N   0  0  0  0  0  1  0  0  0  0  0  0
  187.4400  176.2330  141.4560 C   0  0  0  0  0  0  0  0  0  0  0  0
  187.9090  175.2160  140.6270 C   0  0  0  0  0  0  0  0  0  0  0  0
  188.7650  173.8270  141.0260 S   0  0  0  0  0  0  0  0  0  0  0  0
  186.7240  177.2790  140.8470 C   0  0  0  0  0  3  0  0  0  0  0  0
  186.9830  176.2870  138.6880 C   0  0  0  0  0  0  0  0  0  0  0  0
  188.8280  173.3140  139.4160 C   0  0  0  0  0  0  0  0  0  0  0  0
  187.6920  175.2310  139.2590 C   0  0  0  0  0  0  0  0  0  0  0  0
  186.5170  177.2840  139.4960 N   0  0  0  0  0  0  0  0  0  0  0  0
  187.5900  177.9500  145.1350 O   0  0  0  0  0  0  0  0  0  0  0  0
  188.8800  177.0010  143.3460 C   0  0  0  0  0  0  0  0  0  0  0  0
  187.6710  176.1960  142.9370 C   0  0  1  0  0  3  0  0  0  0  0  0
  186.5040  176.6250  143.6110 O   0  0  0  0  0  0  0  0  0  0  0  0
  186.8150  176.7850  144.9770 C   0  0  2  0  0  3  0  0  0  0  0  0
  189.9880  176.9470  142.6730 N   0  0  0  0  0  0  0  0  0  0  0  0
  188.7850  177.7190  144.5450 O   0  0  0  0  0  0  0  0  0  0  0  0
  185.5390  176.9090  145.7900 C   0  0  0  0  0  2  0  0  0  0  0  0
  183.9620  178.6720  145.4650 O   0  0  0  0  0  1  0  0  0  0  0  0
  185.1350  178.6240  147.5280 C   0  0  0  0  0  1  0  0  0  0  0  0
  185.1980  178.3690  146.0370 C   0  0  1  0  0  3  0  0  0  0  0  0
  191.1850  177.6750  143.0690 C   0  0  0  0  0  2  0  0  0  0  0  0
  192.2140  176.7360  143.5100 N   0  0  0  0  0  2  0  0  0  0  0  0
  192.6720  177.0450  144.8720 C   0  0  1  0  0  3  0  0  0  0  0  0
  191.7560  176.4720  145.9460 C   0  0  0  0  0  1  0  0  0  0  0  0
  194.1470  176.7090  145.1180 C   0  0  2  0  0  3  0  0  0  0  0  0
  194.2870  175.4920  146.0120 C   0  0  0  0  0  1  0  0  0  0  0  0
  194.8360  177.7890  145.6730 O   0  0  0  0  0  1  0  0  0  0  0  0
  189.4420  172.0370  138.9670 C   0  0  0  0  0  2  0  0  0  0  0  0
  190.4710  172.3140  137.9800 N   0  0  0  0  0  2  0  0  0  0  0  0
  191.5670  171.2780  139.7550 O   0  0  0  0  0  1  0  0  0  0  0  0
  191.6800  171.6270  138.4090 C   0  0  2  0  0  3  0  0  0  0  0  0
  192.7770  172.4740  138.2440 O   0  0  0  0  0  0  0  0  0  0  0  0
  192.8910  173.1600  139.4600 C   0  0  2  0  0  3  0  0  0  0  0  0
  195.4170  172.7970  138.9150 C   0  0  0  0  0  1  0  0  0  0  0  0
  193.4970  174.5710  139.2990 C   0  0  1  0  0  3  0  0  0  0  0  0
  194.3490  173.4130  139.8190 C   0  0  1  0  0  0  0  0  0  0  0  0
  195.0870  175.0730  137.4200 O   0  0  0  0  0  1  0  0  0  0  0  0
  193.7780  174.9780  137.8760 C   0  0  0  0  0  0  0  0  0  0  0  0
  192.8260  175.1510  137.0710 O   0  0  0  0  0  0  0  0  0  0  0  0
  194.6260  173.4780  141.3110 C   0  0  0  0  0  2  0  0  0  0  0  0
  194.8610  171.6740  142.7650 C   0  0  0  0  0  2  0  0  0  0  0  0
  193.8780  172.4480  142.0150 N   0  0  0  0  0  0  0  0  0  0  0  0
  194.2690  170.3440  143.2230 C   0  0  0  0  0  2  0  0  0  0  0  0
  191.9870  170.8360  143.4670 C   0  0  0  0  0  2  0  0  0  0  0  0
  193.2150  170.5640  144.2050 N   0  0  0  0  0  2  0  0  0  0  0  0
  191.7560  172.3460  143.2810 C   0  0  2  0  0  3  0  0  0  0  0  0
  193.0400  173.1350  142.9900 C   0  0  0  0  0  2  0  0  0  0  0  0
  191.8980  173.2790  145.4720 F   0  0  0  0  0  0  0  0  0  0  0  0
  190.1020  172.0290  144.9640 F   0  0  0  0  0  0  0  0  0  0  0  0
  190.3250  174.0910  144.0800 F   0  0  0  0  0  0  0  0  0  0  0  0
  191.0060  172.9510  144.4680 C   0  0  0  0  0  0  0  0  0  0  0  0
  1  9  1  0  0  0  0
  1  8  2  0  0  0  0
  2  7  1  0  0  0  0
  4  5  1  0  0  0  0
  4  3  2  0  0  0  0
  6  3  1  0  0  0  0
  7  9  2  0  0  0  0
  7 10  1  0  0  0  0
  8  5  1  0  0  0  0
  9  4  1  0  0  0  0
 10  6  2  0  0  0  0
 12 17  1  0  0  0  0
 13  3  1  6  0  0  0
 13 12  1  0  0  0  0
 13 14  1  0  0  0  0
 14 15  1  0  0  0  0
 15 11  1  0  0  0  0
 15 18  1  1  0  0  0
 16 22  1  0  0  0  0
 16 12  2  0  0  0  0
 17 11  1  0  0  0  0
 18 21  1  0  0  0  0
 19 21  1  0  0  0  0
 21 20  1  1  0  0  0
 22 23  1  0  0  0  0
 23 24  1  0  0  0  0
 24 26  1  0  0  0  0
 24 25  1  1  0  0  0
 26 28  1  0  0  0  0
 26 27  1  1  0  0  0
 29  8  1  0  0  0  0
 30 32  1  0  0  0  0
 30 29  1  0  0  0  0
 32 31  1  1  0  0  0
 33 32  1  0  0  0  0
 34 33  1  6  0  0  0
 34 37  1  0  0  0  0
 36 39  1  6  0  0  0
 36 34  1  0  0  0  0
 36 37  1  0  0  0  0
 37 35  1  6  0  0  0
 37 41  1  0  0  0  0
 38 39  1  0  0  0  0
 40 39  2  0  0  0  0
 41 43  1  0  0  0  0
 42 44  1  0  0  0  0
 43 42  1  0  0  0  0
 43 48  1  0  0  0  0
 44 46  1  0  0  0  0
 45 46  1  0  0  0  0
 47 45  1  0  0  0  0
 47 52  1  1  0  0  0
 48 47  1  0  0  0  0
 51 52  1  0  0  0  0
 52 50  1  0  0  0  0
 52 49  1  0  0  0  0
M  END
>  <MODEL>
1

>  <REMARK>
 VINA RESULT:      -6.4      0.000      0.000
  Name = 
  16 active torsions:
  status: ('A' for Active; 'I' for Inactive)
    1  A    between atoms: N_4  and  C_14
    2  A    between atoms: N_4  and  C_21
    3  A    between atoms: C_6  and  C_36
    4  A    between atoms: C_6  and  C_38
    5  A    between atoms: C_7  and  C_17
    6  A    between atoms: C_8  and  C_21
    7  A    between atoms: N_9  and  C_19
    8  A    between atoms: O_10  and  C_16
    9  A    between atoms: O_10  and  C_18
   10  A    between atoms: C_14  and  N_37
   11  A    between atoms: C_16  and  N_46
   12  A    between atoms: C_19  and  C_42
   13  A    between atoms: C_27  and  C_29
   14  A    between atoms: C_40  and  C_50
   15  A    between atoms: C_45  and  C_49
   16  A    between atoms: N_46  and  C_50
                            x       y       z     vdW  Elec       q    Type
                         _______ _______ _______ _____ _____    ______ ____

>  <TORSDO>
F 16

$$$$
=
 OpenBabel11062421383D

 52 56  0  0  1  0  0  0  0  0999 V2000
  194.7440  176.2220  145.1890 N   0  0  0  0  0  0  0  0  0  0  0  0
  196.9570  176.7920  143.3900 N   0  0  0  0  0  1  0  0  0  0  0  0
  195.6050  172.8580  144.1570 C   0  0  0  0  0  0  0  0  0  0  0  0
  194.9960  173.9560  144.7630 C   0  0  0  0  0  0  0  0  0  0  0  0
  193.7170  173.9970  145.8520 S   0  0  0  0  0  0  0  0  0  0  0  0
  196.6840  173.1180  143.2930 C   0  0  0  0  0  3  0  0  0  0  0  0
  196.4920  175.4730  143.6560 C   0  0  0  0  0  0  0  0  0  0  0  0
  193.7640  175.6840  145.9560 C   0  0  0  0  0  0  0  0  0  0  0  0
  195.4220  175.2510  144.5230 C   0  0  0  0  0  0  0  0  0  0  0  0
  197.0960  174.4010  143.0630 N   0  0  0  0  0  0  0  0  0  0  0  0
  195.6120  168.8480  143.5050 O   0  0  0  0  0  0  0  0  0  0  0  0
  194.3520  170.8810  143.2880 C   0  0  0  0  0  0  0  0  0  0  0  0
  195.1400  171.4610  144.4370 C   0  0  1  0  0  3  0  0  0  0  0  0
  196.2490  170.6500  144.7730 O   0  0  0  0  0  0  0  0  0  0  0  0
  195.8180  169.3080  144.8210 C   0  0  2  0  0  3  0  0  0  0  0  0
  193.4580  171.5800  142.6600 N   0  0  0  0  0  0  0  0  0  0  0  0
  194.5520  169.5230  143.0070 O   0  0  0  0  0  0  0  0  0  0  0  0
  196.8690  168.4490  145.5010 C   0  0  0  0  0  2  0  0  0  0  0  0
  197.4850  168.6140  147.8020 O   0  0  0  0  0  1  0  0  0  0  0  0
  195.1890  168.8870  147.2660 C   0  0  0  0  0  1  0  0  0  0  0  0
  196.4810  168.1660  146.9440 C   0  0  1  0  0  3  0  0  0  0  0  0
  192.6500  171.0340  141.5780 C   0  0  0  0  0  2  0  0  0  0  0  0
  191.8320  172.0920  140.9890 N   0  0  0  0  0  2  0  0  0  0  0  0
  190.5210  171.5820  140.5650 C   0  0  1  0  0  3  0  0  0  0  0  0
  189.3740  172.5040  140.9600 C   0  0  0  0  0  1  0  0  0  0  0  0
  190.4650  171.1730  139.0900 C   0  0  2  0  0  3  0  0  0  0  0  0
  189.4610  172.0170  138.3280 C   0  0  0  0  0  1  0  0  0  0  0  0
  190.1580  169.8190  138.9410 O   0  0  0  0  0  1  0  0  0  0  0  0
  192.8820  176.4940  146.8370 C   0  0  0  0  0  2  0  0  0  0  0  0
  191.8100  175.6570  147.3500 N   0  0  0  0  0  2  0  0  0  0  0  0
  189.5580  175.2160  146.9510 O   0  0  0  0  0  1  0  0  0  0  0  0
  190.5610  176.1760  146.8120 C   0  0  2  0  0  3  0  0  0  0  0  0
  190.7270  176.4750  145.4600 O   0  0  0  0  0  0  0  0  0  0  0  0
  189.7550  175.7150  144.7980 C   0  0  2  0  0  3  0  0  0  0  0  0
  189.5090  177.9720  143.5100 C   0  0  0  0  0  1  0  0  0  0  0  0
  190.1270  175.4090  143.3310 C   0  0  1  0  0  3  0  0  0  0  0  0
  189.1120  176.5030  143.6640 C   0  0  1  0  0  0  0  0  0  0  0  0
  192.5070  175.0080  142.6380 O   0  0  0  0  0  0  0  0  0  0  0  0
  191.4840  175.9080  142.9080 C   0  0  0  0  0  0  0  0  0  0  0  0
  191.6720  177.1380  142.7150 O   0  0  0  0  0  1  0  0  0  0  0  0
  187.6740  176.1160  143.3660 C   0  0  0  0  0  2  0  0  0  0  0  0
  185.6070  177.0030  142.7600 C   0  0  0  0  0  2  0  0  0  0  0  0
  186.7860  177.2480  143.5840 N   0  0  0  0  0  0  0  0  0  0  0  0
  184.7880  178.2800  142.5930 C   0  0  0  0  0  2  0  0  0  0  0  0
  185.2280  179.4550  144.5760 C   0  0  0  0  0  2  0  0  0  0  0  0
  184.2110  178.6880  143.8670 N   0  0  0  0  0  2  0  0  0  0  0  0
  186.0430  178.5710  145.5370 C   0  0  2  0  0  3  0  0  0  0  0  0
  186.3570  177.1770  144.9760 C   0  0  0  0  0  2  0  0  0  0  0  0
  184.0210  178.7310  146.7940 F   0  0  0  0  0  0  0  0  0  0  0  0
  185.9350  179.3880  147.7700 F   0  0  0  0  0  0  0  0  0  0  0  0
  185.5410  177.1950  147.4300 F   0  0  0  0  0  0  0  0  0  0  0  0
  185.3740  178.4650  146.9070 C   0  0  0  0  0  0  0  0  0  0  0  0
  1  8  2  0  0  0  0
  2  7  1  0  0  0  0
  3  4  1  0  0  0  0
  4  5  1  0  0  0  0
  5  8  1  0  0  0  0
  6  3  2  0  0  0  0
  7  9  1  0  0  0  0
  8 29  1  0  0  0  0
  9  4  2  0  0  0  0
  9  1  1  0  0  0  0
 10  6  1  0  0  0  0
 10  7  2  0  0  0  0
 11 15  1  0  0  0  0
 12 13  1  0  0  0  0
 13  3  1  6  0  0  0
 13 14  1  0  0  0  0
 14 15  1  0  0  0  0
 15 18  1  6  0  0  0
 16 12  2  0  0  0  0
 17 12  1  0  0  0  0
 17 11  1  0  0  0  0
 18 21  1  0  0  0  0
 21 20  1  1  0  0  0
 21 19  1  0  0  0  0
 22 16  1  0  0  0  0
 23 22  1  0  0  0  0
 24 25  1  6  0  0  0
 24 23  1  0  0  0  0
 26 27  1  6  0  0  0
 26 24  1  0  0  0  0
 28 26  1  0  0  0  0
 29 30  1  0  0  0  0
 32 31  1  6  0  0  0
 32 30  1  0  0  0  0
 33 32  1  0  0  0  0
 34 33  1  1  0  0  0
 36 39  1  1  0  0  0
 36 37  1  0  0  0  0
 36 34  1  0  0  0  0
 37 35  1  6  0  0  0
 37 34  1  0  0  0  0
 38 39  2  0  0  0  0
 40 39  1  0  0  0  0
 41 43  1  0  0  0  0
 41 37  1  0  0  0  0
 42 43  1  0  0  0  0
 43 48  1  0  0  0  0
 44 42  1  0  0  0  0
 44 46  1  0  0  0  0
 45 47  1  0  0  0  0
 46 45  1  0  0  0  0
 47 52  1  1  0  0  0
 48 47  1  0  0  0  0
 49 52  1  0  0  0  0
 52 51  1  0  0  0  0
 52 50  1  0  0  0  0
M  END
>  <MODEL>
2

>  <REMARK>
 VINA RESULT:      -6.2      3.755      9.721
  Name = 
  16 active torsions:
  status: ('A' for Active; 'I' for Inactive)
    1  A    between atoms: N_4  and  C_14
    2  A    between atoms: N_4  and  C_21
    3  A    between atoms: C_6  and  C_36
    4  A    between atoms: C_6  and  C_38
    5  A    between atoms: C_7  and  C_17
    6  A    between atoms: C_8  and  C_21
    7  A    between atoms: N_9  and  C_19
    8  A    between atoms: O_10  and  C_16
    9  A    between atoms: O_10  and  C_18
   10  A    between atoms: C_14  and  N_37
   11  A    between atoms: C_16  and  N_46
   12  A    between atoms: C_19  and  C_42
   13  A    between atoms: C_27  and  C_29
   14  A    between atoms: C_40  and  C_50
   15  A    between atoms: C_45  and  C_49
   16  A    between atoms: N_46  and  C_50
                            x       y       z     vdW  Elec       q    Type
                         _______ _______ _______ _____ _____    ______ ____

>  <TORSDO>
F 16

$$$$
=
 OpenBabel11062421383D

 52 56  0  0  1  0  0  0  0  0999 V2000
  192.8280  176.1880  146.2270 N   0  0  0  0  0  0  0  0  0  0  0  0
  191.1560  175.2270  148.4050 N   0  0  0  0  0  1  0  0  0  0  0  0
  189.5660  176.4060  144.6670 C   0  0  0  0  0  0  0  0  0  0  0  0
  190.9370  176.4580  144.9110 C   0  0  0  0  0  0  0  0  0  0  0  0
  192.1790  176.9660  143.9000 S   0  0  0  0  0  0  0  0  0  0  0  0
  188.7440  175.9540  145.7150 C   0  0  0  0  0  3  0  0  0  0  0  0
  190.6340  175.6260  147.1420 C   0  0  0  0  0  0  0  0  0  0  0  0
  193.3580  176.6570  145.0720 C   0  0  0  0  0  0  0  0  0  0  0  0
  191.4770  176.0750  146.1270 C   0  0  0  0  0  0  0  0  0  0  0  0
  189.2890  175.5770  146.9110 N   0  0  0  0  0  0  0  0  0  0  0  0
  186.5630  176.6730  141.9440 O   0  0  0  0  0  0  0  0  0  0  0  0
  188.6820  175.6640  142.4530 C   0  0  0  0  0  0  0  0  0  0  0  0
  188.9940  176.8370  143.3500 C   0  0  1  0  0  3  0  0  0  0  0  0
  187.8560  177.6470  143.5680 O   0  0  0  0  0  0  0  0  0  0  0  0
  187.2190  177.8590  142.3280 C   0  0  2  0  0  3  0  0  0  0  0  0
  189.5040  174.6680  142.3300 N   0  0  0  0  0  0  0  0  0  0  0  0
  187.5200  175.7560  141.6760 O   0  0  0  0  0  0  0  0  0  0  0  0
  186.2070  178.9840  142.4490 C   0  0  0  0  0  2  0  0  0  0  0  0
  185.2320  179.8510  144.4490 O   0  0  0  0  0  1  0  0  0  0  0  0
  183.8690  178.4700  143.0820 C   0  0  0  0  0  1  0  0  0  0  0  0
  185.2620  178.7340  143.6140 C   0  0  1  0  0  3  0  0  0  0  0  0
  189.2520  173.5460  141.4380 C   0  0  0  0  0  2  0  0  0  0  0  0
  189.1010  172.3180  142.2160 N   0  0  0  0  0  2  0  0  0  0  0  0
  190.4040  171.7910  142.6440 C   0  0  1  0  0  3  0  0  0  0  0  0
  190.5820  171.8160  144.1570 C   0  0  0  0  0  1  0  0  0  0  0  0
  190.7490  170.4280  142.0340 C   0  0  2  0  0  3  0  0  0  0  0  0
  192.0080  169.8560  142.6570 C   0  0  0  0  0  1  0  0  0  0  0  0
  190.8970  170.5070  140.6480 O   0  0  0  0  0  1  0  0  0  0  0  0
  194.8080  176.9300  144.8920 C   0  0  0  0  0  2  0  0  0  0  0  0
  195.2840  176.2590  143.6950 N   0  0  0  0  0  2  0  0  0  0  0  0
  197.2720  175.2490  143.0220 O   0  0  0  0  0  1  0  0  0  0  0  0
  196.3880  175.3970  144.0910 C   0  0  2  0  0  3  0  0  0  0  0  0
  195.8900  174.1440  144.4530 O   0  0  0  0  0  0  0  0  0  0  0  0
  195.2220  173.6770  143.3140 C   0  0  2  0  0  3  0  0  0  0  0  0
  196.7020  171.5940  143.8480 C   0  0  0  0  0  1  0  0  0  0  0  0
  194.2400  172.5260  143.6240 C   0  0  1  0  0  3  0  0  0  0  0  0
  195.6040  172.2370  142.9990 C   0  0  1  0  0  0  0  0  0  0  0  0
  194.5660  170.9420  145.5450 O   0  0  0  0  0  0  0  0  0  0  0  0
  194.1210  172.1740  145.0840 C   0  0  0  0  0  0  0  0  0  0  0  0
  193.6970  173.0290  145.9050 O   0  0  0  0  0  1  0  0  0  0  0  0
  195.5390  171.8780  141.5240 C   0  0  0  0  0  2  0  0  0  0  0  0
  196.6140  173.1870  139.9250 C   0  0  0  0  0  2  0  0  0  0  0  0
  195.3920  173.0770  140.7140 N   0  0  0  0  0  0  0  0  0  0  0  0
  196.7560  174.5880  139.3370 C   0  0  0  0  0  2  0  0  0  0  0  0
  194.5290  175.2800  139.0760 C   0  0  0  0  0  2  0  0  0  0  0  0
  195.7130  174.8360  138.3500 N   0  0  0  0  0  2  0  0  0  0  0  0
  193.5790  174.1110  139.3870 C   0  0  2  0  0  3  0  0  0  0  0  0
  194.3030  172.8150  139.7790 C   0  0  0  0  0  2  0  0  0  0  0  0
  191.3590  173.5210  138.7380 F   0  0  0  0  0  0  0  0  0  0  0  0
  193.0640  172.8100  137.4590 F   0  0  0  0  0  0  0  0  0  0  0  0
  192.4820  174.9880  137.4480 F   0  0  0  0  0  0  0  0  0  0  0  0
  192.6030  173.8570  138.2370 C   0  0  0  0  0  0  0  0  0  0  0  0
  3  4  2  0  0  0  0
  3  6  1  0  0  0  0
  4  9  1  0  0  0  0
  5  4  1  0  0  0  0
  5  8  1  0  0  0  0
  6 10  2  0  0  0  0
  7  2  1  0  0  0  0
  8  1  2  0  0  0  0
  9  1  1  0  0  0  0
  9  7  2  0  0  0  0
 10  7  1  0  0  0  0
 11 15  1  0  0  0  0
 12 13  1  0  0  0  0
 13 14  1  0  0  0  0
 13  3  1  1  0  0  0
 15 18  1  1  0  0  0
 15 14  1  0  0  0  0
 16 12  2  0  0  0  0
 17 11  1  0  0  0  0
 17 12  1  0  0  0  0
 18 21  1  0  0  0  0
 21 20  1  6  0  0  0
 21 19  1  0  0  0  0
 22 23  1  0  0  0  0
 22 16  1  0  0  0  0
 23 24  1  0  0  0  0
 24 25  1  1  0  0  0
 26 24  1  0  0  0  0
 26 27  1  1  0  0  0
 28 26  1  0  0  0  0
 29  8  1  0  0  0  0
 30 32  1  0  0  0  0
 30 29  1  0  0  0  0
 32 31  1  6  0  0  0
 32 33  1  0  0  0  0
 34 36  1  0  0  0  0
 34 33  1  1  0  0  0
 36 39  1  1  0  0  0
 37 34  1  0  0  0  0
 37 36  1  0  0  0  0
 37 35  1  1  0  0  0
 39 38  2  0  0  0  0
 39 40  1  0  0  0  0
 41 37  1  0  0  0  0
 42 43  1  0  0  0  0
 43 41  1  0  0  0  0
 44 42  1  0  0  0  0
 45 47  1  0  0  0  0
 46 45  1  0  0  0  0
 46 44  1  0  0  0  0
 47 52  1  6  0  0  0
 47 48  1  0  0  0  0
 48 43  1  0  0  0  0
 50 52  1  0  0  0  0
 51 52  1  0  0  0  0
 52 49  1  0  0  0  0
M  END
>  <MODEL>
3

>  <REMARK>
 VINA RESULT:      -6.1      3.173      6.317
  Name = 
  16 active torsions:
  status: ('A' for Active; 'I' for Inactive)
    1  A    between atoms: N_4  and  C_14
    2  A    between atoms: N_4  and  C_21
    3  A    between atoms: C_6  and  C_36
    4  A    between atoms: C_6  and  C_38
    5  A    between atoms: C_7  and  C_17
    6  A    between atoms: C_8  and  C_21
    7  A    between atoms: N_9  and  C_19
    8  A    between atoms: O_10  and  C_16
    9  A    between atoms: O_10  and  C_18
   10  A    between atoms: C_14  and  N_37
   11  A    between atoms: C_16  and  N_46
   12  A    between atoms: C_19  and  C_42
   13  A    between atoms: C_27  and  C_29
   14  A    between atoms: C_40  and  C_50
   15  A    between atoms: C_45  and  C_49
   16  A    between atoms: N_46  and  C_50
                            x       y       z     vdW  Elec       q    Type
                         _______ _______ _______ _____ _____    ______ ____

>  <TORSDO>
F 16

$$$$
=
 OpenBabel11062421383D

 52 56  0  0  1  0  0  0  0  0999 V2000
  194.5460  176.1050  145.0630 N   0  0  0  0  0  0  0  0  0  0  0  0
  196.7820  177.0020  143.4340 N   0  0  0  0  0  1  0  0  0  0  0  0
  196.0010  172.9100  144.1700 C   0  0  0  0  0  0  0  0  0  0  0  0
  195.1820  173.9030  144.7040 C   0  0  0  0  0  0  0  0  0  0  0  0
  193.8280  173.7510  145.6880 S   0  0  0  0  0  0  0  0  0  0  0  0
  197.0930  173.3300  143.3900 C   0  0  0  0  0  3  0  0  0  0  0  0
  196.5080  175.6280  143.6890 C   0  0  0  0  0  0  0  0  0  0  0  0
  193.6030  175.4250  145.7610 C   0  0  0  0  0  0  0  0  0  0  0  0
  195.4190  175.2470  144.4730 C   0  0  0  0  0  0  0  0  0  0  0  0
  197.3170  174.6600  143.1670 N   0  0  0  0  0  0  0  0  0  0  0  0
  196.9680  168.9680  143.9920 O   0  0  0  0  0  0  0  0  0  0  0  0
  195.4950  170.6780  143.1720 C   0  0  0  0  0  0  0  0  0  0  0  0
  195.7390  171.4590  144.4400 C   0  0  1  0  0  3  0  0  0  0  0  0
  196.8060  170.9150  145.1930 O   0  0  0  0  0  0  0  0  0  0  0  0
  196.6410  169.5160  145.2480 C   0  0  2  0  0  3  0  0  0  0  0  0
  194.7430  171.1460  142.2240 N   0  0  0  0  0  0  0  0  0  0  0  0
  196.0240  169.3820  143.1170 O   0  0  0  0  0  0  0  0  0  0  0  0
  197.5500  168.9270  146.3120 C   0  0  0  0  0  2  0  0  0  0  0  0
  197.3300  168.3050  148.6070 O   0  0  0  0  0  1  0  0  0  0  0  0
  195.3330  168.7200  147.3930 C   0  0  0  0  0  1  0  0  0  0  0  0
  196.7410  168.1660  147.3500 C   0  0  1  0  0  3  0  0  0  0  0  0
  194.4520  170.3970  141.0100 C   0  0  0  0  0  2  0  0  0  0  0  0
  194.5370  171.2810  139.8500 N   0  0  0  0  0  2  0  0  0  0  0  0
  195.3550  172.4680  140.1390 C   0  0  1  0  0  3  0  0  0  0  0  0
  196.7730  172.3540  139.5940 C   0  0  0  0  0  1  0  0  0  0  0  0
  194.6820  173.7890  139.7550 C   0  0  2  0  0  3  0  0  0  0  0  0
  194.1050  174.4820  140.9750 C   0  0  0  0  0  1  0  0  0  0  0  0
  193.6830  173.6000  138.7980 O   0  0  0  0  0  1  0  0  0  0  0  0
  192.5370  176.0920  146.5540 C   0  0  0  0  0  2  0  0  0  0  0  0
  191.2350  175.6380  146.0950 N   0  0  0  0  0  2  0  0  0  0  0  0
  189.4390  177.1190  146.0110 O   0  0  0  0  0  1  0  0  0  0  0  0
  190.6200  176.7410  145.3720 C   0  0  2  0  0  3  0  0  0  0  0  0
  190.3290  176.3360  144.0690 O   0  0  0  0  0  0  0  0  0  0  0  0
  189.0930  175.6820  144.1600 C   0  0  2  0  0  3  0  0  0  0  0  0
  188.9080  176.6520  141.7440 C   0  0  0  0  0  1  0  0  0  0  0  0
  188.9880  174.4620  143.2200 C   0  0  1  0  0  3  0  0  0  0  0  0
  188.3150  175.7850  142.8550 C   0  0  1  0  0  0  0  0  0  0  0  0
  190.2450  174.2220  141.0590 O   0  0  0  0  0  0  0  0  0  0  0  0
  190.2430  174.1520  142.4460 C   0  0  0  0  0  0  0  0  0  0  0  0
  191.3170  173.9120  143.0570 O   0  0  0  0  0  1  0  0  0  0  0  0
  186.8050  175.7700  143.0220 C   0  0  0  0  0  2  0  0  0  0  0  0
  185.1680  177.3960  142.7010 C   0  0  0  0  0  2  0  0  0  0  0  0
  186.3330  177.0570  143.5110 N   0  0  0  0  0  0  0  0  0  0  0  0
  184.8230  178.8760  142.8410 C   0  0  0  0  0  2  0  0  0  0  0  0
  185.5590  179.3880  145.0100 C   0  0  0  0  0  2  0  0  0  0  0  0
  184.3700  179.1690  144.1950 N   0  0  0  0  0  2  0  0  0  0  0  0
  186.0030  178.1010  145.7280 C   0  0  2  0  0  3  0  0  0  0  0  0
  185.8580  176.8360  144.8720 C   0  0  0  0  0  2  0  0  0  0  0  0
  186.0660  177.1690  147.9240 F   0  0  0  0  0  0  0  0  0  0  0  0
  184.0830  177.2860  146.8750 F   0  0  0  0  0  0  0  0  0  0  0  0
  185.0560  179.1640  147.6520 F   0  0  0  0  0  0  0  0  0  0  0  0
  185.2900  177.9310  147.0700 C   0  0  0  0  0  0  0  0  0  0  0  0
  1  8  2  0  0  0  0
  2  7  1  0  0  0  0
  3  4  1  0  0  0  0
  4  5  1  0  0  0  0
  5  8  1  0  0  0  0
  6  3  2  0  0  0  0
  7  9  1  0  0  0  0
  8 29  1  0  0  0  0
  9  4  2  0  0  0  0
  9  1  1  0  0  0  0
 10  6  1  0  0  0  0
 10  7  2  0  0  0  0
 11 15  1  0  0  0  0
 12 13  1  0  0  0  0
 13  3  1  6  0  0  0
 13 14  1  0  0  0  0
 14 15  1  0  0  0  0
 15 18  1  1  0  0  0
 16 12  2  0  0  0  0
 17 12  1  0  0  0  0
 17 11  1  0  0  0  0
 18 21  1  0  0  0  0
 21 20  1  1  0  0  0
 21 19  1  0  0  0  0
 22 16  1  0  0  0  0
 23 24  1  0  0  0  0
 23 22  1  0  0  0  0
 24 25  1  6  0  0  0
 26 24  1  0  0  0  0
 26 27  1  1  0  0  0
 28 26  1  0  0  0  0
 30 29  1  0  0  0  0
 32 31  1  1  0  0  0
 32 30  1  0  0  0  0
 33 32  1  0  0  0  0
 34 33  1  6  0  0  0
 36 39  1  6  0  0  0
 36 34  1  0  0  0  0
 37 35  1  6  0  0  0
 37 41  1  0  0  0  0
 37 36  1  0  0  0  0
 37 34  1  0  0  0  0
 38 39  2  0  0  0  0
 39 40  1  0  0  0  0
 41 43  1  0  0  0  0
 42 44  1  0  0  0  0
 42 43  1  0  0  0  0
 43 48  1  0  0  0  0
 44 46  1  0  0  0  0
 45 47  1  0  0  0  0
 46 45  1  0  0  0  0
 47 52  1  1  0  0  0
 48 47  1  0  0  0  0
 50 52  1  0  0  0  0
 52 51  1  0  0  0  0
 52 49  1  0  0  0  0
M  END
>  <MODEL>
4

>  <REMARK>
 VINA RESULT:      -6.1      3.861      9.697
  Name = 
  16 active torsions:
  status: ('A' for Active; 'I' for Inactive)
    1  A    between atoms: N_4  and  C_14
    2  A    between atoms: N_4  and  C_21
    3  A    between atoms: C_6  and  C_36
    4  A    between atoms: C_6  and  C_38
    5  A    between atoms: C_7  and  C_17
    6  A    between atoms: C_8  and  C_21
    7  A    between atoms: N_9  and  C_19
    8  A    between atoms: O_10  and  C_16
    9  A    between atoms: O_10  and  C_18
   10  A    between atoms: C_14  and  N_37
   11  A    between atoms: C_16  and  N_46
   12  A    between atoms: C_19  and  C_42
   13  A    between atoms: C_27  and  C_29
   14  A    between atoms: C_40  and  C_50
   15  A    between atoms: C_45  and  C_49
   16  A    between atoms: N_46  and  C_50
                            x       y       z     vdW  Elec       q    Type
                         _______ _______ _______ _____ _____    ______ ____

>  <TORSDO>
F 16

$$$$
=
 OpenBabel11062421383D

 52 56  0  0  1  0  0  0  0  0999 V2000
  188.2000  174.5930  139.4800 N   0  0  0  0  0  0  0  0  0  0  0  0
  186.7220  176.9470  138.6200 N   0  0  0  0  0  1  0  0  0  0  0  0
  187.9170  176.3520  142.6340 C   0  0  0  0  0  0  0  0  0  0  0  0
  188.2230  175.4140  141.6490 C   0  0  0  0  0  0  0  0  0  0  0  0
  189.0400  173.9530  141.7870 S   0  0  0  0  0  0  0  0  0  0  0  0
  187.1930  177.4900  142.2350 C   0  0  0  0  0  3  0  0  0  0  0  0
  187.1310  176.7350  139.9680 C   0  0  0  0  0  0  0  0  0  0  0  0
  188.8770  173.6210  140.1370 C   0  0  0  0  0  0  0  0  0  0  0  0
  187.8430  175.5920  140.3300 C   0  0  0  0  0  0  0  0  0  0  0  0
  186.8240  177.6550  140.9290 N   0  0  0  0  0  0  0  0  0  0  0  0
  188.7210  177.6580  146.3960 O   0  0  0  0  0  0  0  0  0  0  0  0
  189.6600  176.7680  144.3720 C   0  0  0  0  0  0  0  0  0  0  0  0
  188.3240  176.1390  144.0610 C   0  0  1  0  0  3  0  0  0  0  0  0
  187.3080  176.6160  144.9210 O   0  0  0  0  0  0  0  0  0  0  0  0
  187.8020  176.6010  146.2420 C   0  0  2  0  0  3  0  0  0  0  0  0
  190.6620  176.6680  143.5550 N   0  0  0  0  0  0  0  0  0  0  0  0
  189.7980  177.3650  145.6320 O   0  0  0  0  0  0  0  0  0  0  0  0
  186.6590  176.7740  147.2260 C   0  0  0  0  0  2  0  0  0  0  0  0
  184.3730  177.2610  146.7400 O   0  0  0  0  0  1  0  0  0  0  0  0
  185.7050  179.0270  147.6020 C   0  0  0  0  0  1  0  0  0  0  0  0
  185.6600  177.7990  146.7160 C   0  0  1  0  0  3  0  0  0  0  0  0
  191.9750  177.2230  143.8490 C   0  0  0  0  0  2  0  0  0  0  0  0
  192.8900  176.1540  144.2410 N   0  0  0  0  0  2  0  0  0  0  0  0
  194.1780  176.6920  144.7010 C   0  0  1  0  0  3  0  0  0  0  0  0
  194.4760  176.3460  146.1540 C   0  0  0  0  0  1  0  0  0  0  0  0
  195.3500  176.3690  143.7680 C   0  0  2  0  0  3  0  0  0  0  0  0
  194.8760  175.6270  142.5330 C   0  0  0  0  0  1  0  0  0  0  0  0
  196.3380  175.6280  144.4190 O   0  0  0  0  0  1  0  0  0  0  0  0
  189.3580  172.3760  139.4820 C   0  0  0  0  0  2  0  0  0  0  0  0
  190.8100  172.3420  139.5130 N   0  0  0  0  0  2  0  0  0  0  0  0
  191.0590  171.3430  137.4240 O   0  0  0  0  0  1  0  0  0  0  0  0
  191.2770  172.5170  138.1450 C   0  0  2  0  0  3  0  0  0  0  0  0
  192.6430  172.8040  138.1550 O   0  0  0  0  0  0  0  0  0  0  0  0
  193.0450  172.6080  139.4820 C   0  0  2  0  0  3  0  0  0  0  0  0
  194.7480  171.0490  138.2650 C   0  0  0  0  0  1  0  0  0  0  0  0
  194.4420  173.1930  139.7790 C   0  0  1  0  0  3  0  0  0  0  0  0
  194.2580  171.6910  139.5640 C   0  0  1  0  0  0  0  0  0  0  0  0
  194.5280  175.1200  138.1710 O   0  0  0  0  0  1  0  0  0  0  0  0
  195.0760  173.9280  138.6270 C   0  0  0  0  0  0  0  0  0  0  0  0
  196.1530  173.5080  138.1270 O   0  0  0  0  0  0  0  0  0  0  0  0
  194.3430  170.8740  140.8420 C   0  0  0  0  0  2  0  0  0  0  0  0
  192.4060  170.3080  142.0040 C   0  0  0  0  0  2  0  0  0  0  0  0
  193.3930  171.3670  141.8270 N   0  0  0  0  0  0  0  0  0  0  0  0
  191.1560  170.8410  142.7000 C   0  0  0  0  0  2  0  0  0  0  0  0
  191.9940  172.5860  144.0270 C   0  0  0  0  0  2  0  0  0  0  0  0
  191.4610  171.2290  144.0710 N   0  0  0  0  0  2  0  0  0  0  0  0
  193.5320  172.5940  143.9700 C   0  0  2  0  0  3  0  0  0  0  0  0
  194.1220  171.4870  143.0840 C   0  0  0  0  0  2  0  0  0  0  0  0
  194.1210  171.2580  145.8570 F   0  0  0  0  0  0  0  0  0  0  0  0
  193.4160  173.3600  146.2210 F   0  0  0  0  0  0  0  0  0  0  0  0
  195.4570  172.9950  145.3350 F   0  0  0  0  0  0  0  0  0  0  0  0
  194.1460  172.5510  145.3690 C   0  0  0  0  0  0  0  0  0  0  0  0
  1  8  2  0  0  0  0
  1  9  1  0  0  0  0
  2  7  1  0  0  0  0
  4  5  1  0  0  0  0
  4  3  2  0  0  0  0
  6  3  1  0  0  0  0
  7  9  2  0  0  0  0
  7 10  1  0  0  0  0
  8  5  1  0  0  0  0
  9  4  1  0  0  0  0
 10  6  2  0  0  0  0
 12 17  1  0  0  0  0
 13  3  1  6  0  0  0
 13 12  1  0  0  0  0
 13 14  1  0  0  0  0
 14 15  1  0  0  0  0
 15 11  1  0  0  0  0
 15 18  1  1  0  0  0
 16 22  1  0  0  0  0
 16 12  2  0  0  0  0
 17 11  1  0  0  0  0
 21 19  1  0  0  0  0
 21 18  1  0  0  0  0
 21 20  1  1  0  0  0
 22 23  1  0  0  0  0
 23 24  1  0  0  0  0
 24 25  1  1  0  0  0
 26 27  1  6  0  0  0
 26 28  1  0  0  0  0
 26 24  1  0  0  0  0
 29 30  1  0  0  0  0
 29  8  1  0  0  0  0
 32 31  1  6  0  0  0
 32 33  1  0  0  0  0
 32 30  1  0  0  0  0
 34 33  1  6  0  0  0
 34 37  1  0  0  0  0
 34 36  1  0  0  0  0
 36 39  1  6  0  0  0
 37 35  1  6  0  0  0
 37 36  1  0  0  0  0
 37 41  1  0  0  0  0
 38 39  1  0  0  0  0
 40 39  2  0  0  0  0
 41 43  1  0  0  0  0
 42 44  1  0  0  0  0
 43 42  1  0  0  0  0
 43 48  1  0  0  0  0
 44 46  1  0  0  0  0
 45 46  1  0  0  0  0
 47 45  1  0  0  0  0
 47 52  1  1  0  0  0
 48 47  1  0  0  0  0
 51 52  1  0  0  0  0
 52 49  1  0  0  0  0
 52 50  1  0  0  0  0
M  END
>  <MODEL>
5

>  <REMARK>
 VINA RESULT:      -6.0      1.558      2.056
  Name = 
  16 active torsions:
  status: ('A' for Active; 'I' for Inactive)
    1  A    between atoms: N_4  and  C_14
    2  A    between atoms: N_4  and  C_21
    3  A    between atoms: C_6  and  C_36
    4  A    between atoms: C_6  and  C_38
    5  A    between atoms: C_7  and  C_17
    6  A    between atoms: C_8  and  C_21
    7  A    between atoms: N_9  and  C_19
    8  A    between atoms: O_10  and  C_16
    9  A    between atoms: O_10  and  C_18
   10  A    between atoms: C_14  and  N_37
   11  A    between atoms: C_16  and  N_46
   12  A    between atoms: C_19  and  C_42
   13  A    between atoms: C_27  and  C_29
   14  A    between atoms: C_40  and  C_50
   15  A    between atoms: C_45  and  C_49
   16  A    between atoms: N_46  and  C_50
                            x       y       z     vdW  Elec       q    Type
                         _______ _______ _______ _____ _____    ______ ____

>  <TORSDO>
F 16

$$$$
=
 OpenBabel11062421383D

 52 56  0  0  1  0  0  0  0  0999 V2000
  189.5640  172.2820  140.4950 N   0  0  0  0  0  0  0  0  0  0  0  0
  188.5730  173.6510  138.1280 N   0  0  0  0  0  1  0  0  0  0  0  0
  188.1620  175.2540  142.0210 C   0  0  0  0  0  0  0  0  0  0  0  0
  188.7920  174.0280  141.8130 C   0  0  0  0  0  0  0  0  0  0  0  0
  189.4640  172.9730  142.9350 S   0  0  0  0  0  0  0  0  0  0  0  0
  187.6670  175.9210  140.8860 C   0  0  0  0  0  3  0  0  0  0  0  0
  188.4410  174.1800  139.4430 C   0  0  0  0  0  0  0  0  0  0  0  0
  189.9230  171.8730  141.7360 C   0  0  0  0  0  0  0  0  0  0  0  0
  188.9380  173.4880  140.5470 C   0  0  0  0  0  0  0  0  0  0  0  0
  187.8180  175.3780  139.6400 N   0  0  0  0  0  0  0  0  0  0  0  0
  187.5380  178.3110  144.6220 O   0  0  0  0  0  0  0  0  0  0  0  0
  189.1390  176.7320  143.7790 C   0  0  0  0  0  0  0  0  0  0  0  0
  187.9990  175.8190  143.3990 C   0  0  1  0  0  3  0  0  0  0  0  0
  186.7490  176.4740  143.5000 O   0  0  0  0  0  0  0  0  0  0  0  0
  186.7130  177.1740  144.7240 C   0  0  2  0  0  3  0  0  0  0  0  0
  190.3710  176.4220  143.5170 N   0  0  0  0  0  0  0  0  0  0  0  0
  188.8130  177.8720  144.5250 O   0  0  0  0  0  0  0  0  0  0  0  0
  185.2910  177.6030  145.0350 C   0  0  0  0  0  2  0  0  0  0  0  0
  185.9620  176.7250  147.1510 O   0  0  0  0  0  1  0  0  0  0  0  0
  185.1500  178.9550  147.1040 C   0  0  0  0  0  1  0  0  0  0  0  0
  185.0300  177.5580  146.5320 C   0  0  1  0  0  3  0  0  0  0  0  0
  191.4950  177.2590  143.9120 C   0  0  0  0  0  2  0  0  0  0  0  0
  192.5930  176.4220  144.3880 N   0  0  0  0  0  2  0  0  0  0  0  0
  192.1740  175.5770  145.5150 C   0  0  1  0  0  3  0  0  0  0  0  0
  192.4120  174.0930  145.2600 C   0  0  0  0  0  1  0  0  0  0  0  0
  192.7240  176.0360  146.8690 C   0  0  2  0  0  3  0  0  0  0  0  0
  191.6330  176.6600  147.7170 C   0  0  0  0  0  1  0  0  0  0  0  0
  193.7830  176.9340  146.7180 O   0  0  0  0  0  1  0  0  0  0  0  0
  190.5850  170.5690  142.0050 C   0  0  0  0  0  2  0  0  0  0  0  0
  191.9940  170.7890  142.2840 N   0  0  0  0  0  2  0  0  0  0  0  0
  193.8740  169.4350  142.0470 O   0  0  0  0  0  1  0  0  0  0  0  0
  192.7520  169.9330  141.3840 C   0  0  2  0  0  3  0  0  0  0  0  0
  193.1650  170.6760  140.2770 O   0  0  0  0  0  0  0  0  0  0  0  0
  193.9430  171.7130  140.8050 C   0  0  2  0  0  3  0  0  0  0  0  0
  195.5950  170.7860  139.0090 C   0  0  0  0  0  1  0  0  0  0  0  0
  194.1700  172.8650  139.8030 C   0  0  1  0  0  3  0  0  0  0  0  0
  195.2710  171.8390  140.0700 C   0  0  1  0  0  0  0  0  0  0  0  0
  192.0780  172.5320  138.4520 O   0  0  0  0  0  1  0  0  0  0  0  0
  193.4570  172.7040  138.4860 C   0  0  0  0  0  0  0  0  0  0  0  0
  194.0960  172.8080  137.4060 O   0  0  0  0  0  0  0  0  0  0  0  0
  196.4110  172.3720  140.9200 C   0  0  0  0  0  2  0  0  0  0  0  0
  197.1330  171.0550  142.7000 C   0  0  0  0  0  2  0  0  0  0  0  0
  196.1750  172.0890  142.3270 N   0  0  0  0  0  0  0  0  0  0  0  0
  196.7350  170.3960  144.0180 C   0  0  0  0  0  2  0  0  0  0  0  0
  195.6050  172.1150  145.1480 C   0  0  0  0  0  2  0  0  0  0  0  0
  196.8440  171.3460  145.1180 N   0  0  0  0  0  2  0  0  0  0  0  0
  195.7290  173.4290  144.3580 C   0  0  2  0  0  3  0  0  0  0  0  0
  196.5400  173.2950  143.0620 C   0  0  0  0  0  2  0  0  0  0  0  0
  195.8030  174.4380  146.5200 F   0  0  0  0  0  0  0  0  0  0  0  0
  195.8770  175.7780  144.7180 F   0  0  0  0  0  0  0  0  0  0  0  0
  197.6650  174.5140  145.2540 F   0  0  0  0  0  0  0  0  0  0  0  0
  196.2820  174.5580  145.2280 C   0  0  0  0  0  0  0  0  0  0  0  0
  1  9  1  0  0  0  0
  1  8  2  0  0  0  0
  2  7  1  0  0  0  0
  4  3  1  0  0  0  0
  4  5  1  0  0  0  0
  6  3  2  0  0  0  0
  7 10  2  0  0  0  0
  7  9  1  0  0  0  0
  8 29  1  0  0  0  0
  8  5  1  0  0  0  0
  9  4  2  0  0  0  0
 10  6  1  0  0  0  0
 11 15  1  0  0  0  0
 12 17  1  0  0  0  0
 13  3  1  6  0  0  0
 13 14  1  0  0  0  0
 13 12  1  0  0  0  0
 14 15  1  0  0  0  0
 15 18  1  6  0  0  0
 16 12  2  0  0  0  0
 16 22  1  0  0  0  0
 17 11  1  0  0  0  0
 18 21  1  0  0  0  0
 21 20  1  1  0  0  0
 21 19  1  0  0  0  0
 22 23  1  0  0  0  0
 23 24  1  0  0  0  0
 24 25  1  6  0  0  0
 24 26  1  0  0  0  0
 26 27  1  1  0  0  0
 28 26  1  0  0  0  0
 29 30  1  0  0  0  0
 32 31  1  1  0  0  0
 32 30  1  0  0  0  0
 33 32  1  0  0  0  0
 34 33  1  6  0  0  0
 36 39  1  6  0  0  0
 36 37  1  0  0  0  0
 36 34  1  0  0  0  0
 37 35  1  6  0  0  0
 37 34  1  0  0  0  0
 37 41  1  0  0  0  0
 38 39  1  0  0  0  0
 40 39  2  0  0  0  0
 41 43  1  0  0  0  0
 42 44  1  0  0  0  0
 43 42  1  0  0  0  0
 43 48  1  0  0  0  0
 44 46  1  0  0  0  0
 46 45  1  0  0  0  0
 47 45  1  0  0  0  0
 47 52  1  1  0  0  0
 48 47  1  0  0  0  0
 50 52  1  0  0  0  0
 52 51  1  0  0  0  0
 52 49  1  0  0  0  0
M  END
>  <MODEL>
6

>  <REMARK>
 VINA RESULT:      -5.9      2.172      2.974
  Name = 
  16 active torsions:
  status: ('A' for Active; 'I' for Inactive)
    1  A    between atoms: N_4  and  C_14
    2  A    between atoms: N_4  and  C_21
    3  A    between atoms: C_6  and  C_36
    4  A    between atoms: C_6  and  C_38
    5  A    between atoms: C_7  and  C_17
    6  A    between atoms: C_8  and  C_21
    7  A    between atoms: N_9  and  C_19
    8  A    between atoms: O_10  and  C_16
    9  A    between atoms: O_10  and  C_18
   10  A    between atoms: C_14  and  N_37
   11  A    between atoms: C_16  and  N_46
   12  A    between atoms: C_19  and  C_42
   13  A    between atoms: C_27  and  C_29
   14  A    between atoms: C_40  and  C_50
   15  A    between atoms: C_45  and  C_49
   16  A    between atoms: N_46  and  C_50
                            x       y       z     vdW  Elec       q    Type
                         _______ _______ _______ _____ _____    ______ ____

>  <TORSDO>
F 16

$$$$
=
 OpenBabel11062421383D

 52 56  0  0  1  0  0  0  0  0999 V2000
  191.2700  175.8750  146.7750 N   0  0  0  0  0  0  0  0  0  0  0  0
  193.8420  177.1940  147.1000 N   0  0  0  0  0  1  0  0  0  0  0  0
  193.4490  173.3860  145.3000 C   0  0  0  0  0  0  0  0  0  0  0  0
  192.3320  174.0760  145.7680 C   0  0  0  0  0  0  0  0  0  0  0  0
  190.7160  173.6170  145.7570 S   0  0  0  0  0  0  0  0  0  0  0  0
  194.7010  174.0070  145.4600 C   0  0  0  0  0  3  0  0  0  0  0  0
  193.6960  175.9130  146.4950 C   0  0  0  0  0  0  0  0  0  0  0  0
  190.2270  175.0540  146.5020 C   0  0  0  0  0  0  0  0  0  0  0  0
  192.4390  175.3240  146.3570 C   0  0  0  0  0  0  0  0  0  0  0  0
  194.7940  175.2400  146.0430 N   0  0  0  0  0  0  0  0  0  0  0  0
  194.9780  170.0100  143.6360 O   0  0  0  0  0  0  0  0  0  0  0  0
  193.7390  172.0260  143.2260 C   0  0  0  0  0  0  0  0  0  0  0  0
  193.3180  172.0300  144.6760 C   0  0  1  0  0  3  0  0  0  0  0  0
  194.0470  171.0840  145.4350 O   0  0  0  0  0  0  0  0  0  0  0  0
  194.0840  169.8720  144.7150 C   0  0  2  0  0  3  0  0  0  0  0  0
  193.3860  172.9760  142.4170 N   0  0  0  0  0  0  0  0  0  0  0  0
  194.4300  170.8950  142.7730 O   0  0  0  0  0  0  0  0  0  0  0  0
  194.5480  168.7450  145.6200 C   0  0  0  0  0  2  0  0  0  0  0  0
  194.5730  168.5350  147.9980 O   0  0  0  0  0  1  0  0  0  0  0  0
  196.5830  169.2290  146.9430 C   0  0  0  0  0  1  0  0  0  0  0  0
  195.0710  169.2930  146.9380 C   0  0  1  0  0  3  0  0  0  0  0  0
  193.7380  172.9770  141.0040 C   0  0  0  0  0  2  0  0  0  0  0  0
  192.5340  172.8080  140.1940 N   0  0  0  0  0  2  0  0  0  0  0  0
  192.4890  171.4780  139.5710 C   0  0  1  0  0  3  0  0  0  0  0  0
  193.8730  170.9390  139.2320 C   0  0  0  0  0  1  0  0  0  0  0  0
  191.6360  170.4640  140.3400 C   0  0  2  0  0  3  0  0  0  0  0  0
  192.4080  169.1830  140.5940 C   0  0  0  0  0  1  0  0  0  0  0  0
  190.4450  170.1780  139.6690 O   0  0  0  0  0  1  0  0  0  0  0  0
  188.8240  175.3640  146.8830 C   0  0  0  0  0  2  0  0  0  0  0  0
  188.4370  176.6420  146.3110 N   0  0  0  0  0  2  0  0  0  0  0  0
  186.8320  176.1110  147.9130 O   0  0  0  0  0  1  0  0  0  0  0  0
  187.2680  177.1090  147.0420 C   0  0  2  0  0  3  0  0  0  0  0  0
  186.2470  177.4090  146.1390 O   0  0  0  0  0  0  0  0  0  0  0  0
  186.8560  178.1930  145.1510 C   0  0  2  0  0  3  0  0  0  0  0  0
  185.4470  176.5920  143.6460 C   0  0  0  0  0  1  0  0  0  0  0  0
  185.8540  179.0930  144.3960 C   0  0  1  0  0  3  0  0  0  0  0  0
  186.3730  177.8030  143.7600 C   0  0  1  0  0  0  0  0  0  0  0  0
  184.1840  179.0410  146.2710 O   0  0  0  0  0  1  0  0  0  0  0  0
  184.4380  179.0250  144.9050 C   0  0  0  0  0  0  0  0  0  0  0  0
  183.4750  179.0390  144.0940 O   0  0  0  0  0  0  0  0  0  0  0  0
  187.3910  178.0320  142.6550 C   0  0  0  0  0  2  0  0  0  0  0  0
  188.1920  176.3470  141.2600 C   0  0  0  0  0  2  0  0  0  0  0  0
  188.3320  176.9240  142.5920 N   0  0  0  0  0  0  0  0  0  0  0  0
  188.8230  174.9590  141.2000 C   0  0  0  0  0  2  0  0  0  0  0  0
  190.5420  175.0910  142.7930 C   0  0  0  0  0  2  0  0  0  0  0  0
  190.2690  175.0480  141.3610 N   0  0  0  0  0  2  0  0  0  0  0  0
  190.6680  176.5360  143.3060 C   0  0  2  0  0  3  0  0  0  0  0  0
  189.6670  177.5080  142.6670 C   0  0  0  0  0  2  0  0  0  0  0  0
  192.9850  176.0030  143.1060 F   0  0  0  0  0  0  0  0  0  0  0  0
  192.4140  177.8460  144.2570 F   0  0  0  0  0  0  0  0  0  0  0  0
  192.2210  177.8170  142.0110 F   0  0  0  0  0  0  0  0  0  0  0  0
  192.0970  177.0610  143.1640 C   0  0  0  0  0  0  0  0  0  0  0  0
  3  6  2  0  0  0  0
  3  4  1  0  0  0  0
  4  9  2  0  0  0  0
  5  4  1  0  0  0  0
  5  8  1  0  0  0  0
  6 10  1  0  0  0  0
  7  2  1  0  0  0  0
  8  1  2  0  0  0  0
  8 29  1  0  0  0  0
  9  7  1  0  0  0  0
  9  1  1  0  0  0  0
 10  7  2  0  0  0  0
 11 15  1  0  0  0  0
 12 13  1  0  0  0  0
 13  3  1  1  0  0  0
 13 14  1  0  0  0  0
 15 14  1  0  0  0  0
 15 18  1  1  0  0  0
 16 12  2  0  0  0  0
 17 12  1  0  0  0  0
 17 11  1  0  0  0  0
 18 21  1  0  0  0  0
 21 20  1  6  0  0  0
 21 19  1  0  0  0  0
 22 16  1  0  0  0  0
 23 22  1  0  0  0  0
 24 25  1  1  0  0  0
 24 23  1  0  0  0  0
 24 26  1  0  0  0  0
 26 27  1  6  0  0  0
 28 26  1  0  0  0  0
 30 29  1  0  0  0  0
 30 32  1  0  0  0  0
 32 31  1  1  0  0  0
 33 32  1  0  0  0  0
 34 33  1  1  0  0  0
 36 39  1  1  0  0  0
 36 34  1  0  0  0  0
 37 35  1  6  0  0  0
 37 36  1  0  0  0  0
 37 34  1  0  0  0  0
 39 38  1  0  0  0  0
 40 39  2  0  0  0  0
 41 37  1  0  0  0  0
 42 43  1  0  0  0  0
 43 41  1  0  0  0  0
 43 48  1  0  0  0  0
 44 42  1  0  0  0  0
 44 46  1  0  0  0  0
 45 47  1  0  0  0  0
 46 45  1  0  0  0  0
 47 52  1  6  0  0  0
 48 47  1  0  0  0  0
 49 52  1  0  0  0  0
 51 52  1  0  0  0  0
 52 50  1  0  0  0  0
M  END
>  <MODEL>
7

>  <REMARK>
 VINA RESULT:      -5.9      3.050      9.286
  Name = 
  16 active torsions:
  status: ('A' for Active; 'I' for Inactive)
    1  A    between atoms: N_4  and  C_14
    2  A    between atoms: N_4  and  C_21
    3  A    between atoms: C_6  and  C_36
    4  A    between atoms: C_6  and  C_38
    5  A    between atoms: C_7  and  C_17
    6  A    between atoms: C_8  and  C_21
    7  A    between atoms: N_9  and  C_19
    8  A    between atoms: O_10  and  C_16
    9  A    between atoms: O_10  and  C_18
   10  A    between atoms: C_14  and  N_37
   11  A    between atoms: C_16  and  N_46
   12  A    between atoms: C_19  and  C_42
   13  A    between atoms: C_27  and  C_29
   14  A    between atoms: C_40  and  C_50
   15  A    between atoms: C_45  and  C_49
   16  A    between atoms: N_46  and  C_50
                            x       y       z     vdW  Elec       q    Type
                         _______ _______ _______ _____ _____    ______ ____

>  <TORSDO>
F 16

$$$$
=
 OpenBabel11062421383D

 52 56  0  0  1  0  0  0  0  0999 V2000
  188.0280  174.8010  140.7360 N   0  0  0  0  0  0  0  0  0  0  0  0
  186.4060  177.0870  139.9590 N   0  0  0  0  0  1  0  0  0  0  0  0
  189.4640  177.3520  142.8700 C   0  0  0  0  0  0  0  0  0  0  0  0
  189.1880  176.1460  142.2280 C   0  0  0  0  0  0  0  0  0  0  0  0
  189.9070  174.6420  142.4340 S   0  0  0  0  0  0  0  0  0  0  0  0
  188.6800  178.4630  142.5120 C   0  0  0  0  0  3  0  0  0  0  0  0
  187.4380  177.1630  140.9370 C   0  0  0  0  0  0  0  0  0  0  0  0
  188.9110  173.9240  141.2720 C   0  0  0  0  0  0  0  0  0  0  0  0
  188.1930  176.0390  141.2720 C   0  0  0  0  0  0  0  0  0  0  0  0
  187.7000  178.3460  141.5650 N   0  0  0  0  0  0  0  0  0  0  0  0
  191.9770  175.7480  145.6290 O   0  0  0  0  0  0  0  0  0  0  0  0
  190.0240  177.1030  145.2900 C   0  0  0  0  0  0  0  0  0  0  0  0
  190.5350  177.4490  143.9130 C   0  0  1  0  0  3  0  0  0  0  0  0
  191.6330  176.6370  143.5430 O   0  0  0  0  0  0  0  0  0  0  0  0
  192.5270  176.5780  144.6330 C   0  0  2  0  0  3  0  0  0  0  0  0
  188.8810  177.5430  145.7170 N   0  0  0  0  0  0  0  0  0  0  0  0
  190.8900  176.3820  146.1230 O   0  0  0  0  0  0  0  0  0  0  0  0
  193.8620  176.0140  144.1800 C   0  0  0  0  0  2  0  0  0  0  0  0
  194.5600  177.5210  145.8950 O   0  0  0  0  0  1  0  0  0  0  0  0
  195.3010  175.2710  146.0520 C   0  0  0  0  0  1  0  0  0  0  0  0
  194.9720  176.4270  145.1320 C   0  0  1  0  0  3  0  0  0  0  0  0
  188.3820  177.2650  147.0570 C   0  0  0  0  0  2  0  0  0  0  0  0
  186.9310  177.4350  147.0900 N   0  0  0  0  0  2  0  0  0  0  0  0
  186.3980  177.7560  145.7580 C   0  0  1  0  0  3  0  0  0  0  0  0
  185.6780  176.5780  145.1130 C   0  0  0  0  0  1  0  0  0  0  0  0
  185.5710  179.0440  145.7180 C   0  0  2  0  0  3  0  0  0  0  0  0
  184.0870  178.7410  145.7990 C   0  0  0  0  0  1  0  0  0  0  0  0
  185.8410  179.7960  144.5730 O   0  0  0  0  0  1  0  0  0  0  0  0
  188.9430  172.4800  140.9180 C   0  0  0  0  0  2  0  0  0  0  0  0
  190.3190  172.0150  140.9040 N   0  0  0  0  0  2  0  0  0  0  0  0
  191.6600  170.3840  139.9210 O   0  0  0  0  0  1  0  0  0  0  0  0
  190.4400  171.0520  139.8200 C   0  0  2  0  0  3  0  0  0  0  0  0
  190.3820  171.7210  138.5970 O   0  0  0  0  0  0  0  0  0  0  0  0
  191.4550  172.6210  138.6250 C   0  0  2  0  0  3  0  0  0  0  0  0
  191.7950  171.5970  136.2480 C   0  0  0  0  0  1  0  0  0  0  0  0
  191.2850  173.7900  137.6320 C   0  0  1  0  0  3  0  0  0  0  0  0
  192.2140  172.6210  137.3050 C   0  0  1  0  0  0  0  0  0  0  0  0
  188.7760  173.6930  137.5680 O   0  0  0  0  0  1  0  0  0  0  0  0
  189.9790  173.7950  136.8810 C   0  0  0  0  0  0  0  0  0  0  0  0
  189.9690  173.9760  135.6350 O   0  0  0  0  0  0  0  0  0  0  0  0
  193.6900  172.9580  137.4280 C   0  0  0  0  0  2  0  0  0  0  0  0
  195.0850  171.8750  138.9460 C   0  0  0  0  0  2  0  0  0  0  0  0
  194.1010  172.9440  138.8240 N   0  0  0  0  0  0  0  0  0  0  0  0
  195.2990  171.4990  140.4100 C   0  0  0  0  0  2  0  0  0  0  0  0
  194.8630  173.5090  141.5400 C   0  0  0  0  0  2  0  0  0  0  0  0
  195.9260  172.5980  141.1330 N   0  0  0  0  0  2  0  0  0  0  0  0
  194.6670  174.6480  140.5240 C   0  0  2  0  0  3  0  0  0  0  0  0
  194.8030  174.2000  139.0630 C   0  0  0  0  0  2  0  0  0  0  0  0
  196.5150  175.9710  139.7940 F   0  0  0  0  0  0  0  0  0  0  0  0
  196.2780  175.6000  141.9970 F   0  0  0  0  0  0  0  0  0  0  0  0
  194.8660  176.9980  140.9340 F   0  0  0  0  0  0  0  0  0  0  0  0
  195.5950  175.8280  140.8160 C   0  0  0  0  0  0  0  0  0  0  0  0
  1  8  2  0  0  0  0
  1  9  1  0  0  0  0
  2  7  1  0  0  0  0
  4  5  1  0  0  0  0
  4  3  2  0  0  0  0
  6  3  1  0  0  0  0
  7  9  2  0  0  0  0
  7 10  1  0  0  0  0
  8  5  1  0  0  0  0
  9  4  1  0  0  0  0
 10  6  2  0  0  0  0
 11 17  1  0  0  0  0
 12 16  2  0  0  0  0
 12 17  1  0  0  0  0
 13  3  1  6  0  0  0
 13 12  1  0  0  0  0
 14 13  1  0  0  0  0
 14 15  1  0  0  0  0
 15 18  1  6  0  0  0
 15 11  1  0  0  0  0
 16 22  1  0  0  0  0
 18 21  1  0  0  0  0
 21 19  1  0  0  0  0
 21 20  1  1  0  0  0
 22 23  1  0  0  0  0
 24 25  1  1  0  0  0
 24 23  1  0  0  0  0
 26 24  1  0  0  0  0
 26 27  1  6  0  0  0
 28 26  1  0  0  0  0
 29  8  1  0  0  0  0
 30 29  1  0  0  0  0
 32 31  1  1  0  0  0
 32 30  1  0  0  0  0
 33 32  1  0  0  0  0
 34 33  1  6  0  0  0
 36 39  1  6  0  0  0
 36 34  1  0  0  0  0
 37 35  1  6  0  0  0
 37 41  1  0  0  0  0
 37 36  1  0  0  0  0
 37 34  1  0  0  0  0
 39 38  1  0  0  0  0
 40 39  2  0  0  0  0
 41 43  1  0  0  0  0
 42 44  1  0  0  0  0
 43 42  1  0  0  0  0
 43 48  1  0  0  0  0
 44 46  1  0  0  0  0
 46 45  1  0  0  0  0
 47 52  1  1  0  0  0
 47 45  1  0  0  0  0
 48 47  1  0  0  0  0
 49 52  1  0  0  0  0
 52 51  1  0  0  0  0
 52 50  1  0  0  0  0
M  END
>  <MODEL>
8

>  <REMARK>
 VINA RESULT:      -5.9      2.793      5.332
  Name = 
  16 active torsions:
  status: ('A' for Active; 'I' for Inactive)
    1  A    between atoms: N_4  and  C_14
    2  A    between atoms: N_4  and  C_21
    3  A    between atoms: C_6  and  C_36
    4  A    between atoms: C_6  and  C_38
    5  A    between atoms: C_7  and  C_17
    6  A    between atoms: C_8  and  C_21
    7  A    between atoms: N_9  and  C_19
    8  A    between atoms: O_10  and  C_16
    9  A    between atoms: O_10  and  C_18
   10  A    between atoms: C_14  and  N_37
   11  A    between atoms: C_16  and  N_46
   12  A    between atoms: C_19  and  C_42
   13  A    between atoms: C_27  and  C_29
   14  A    between atoms: C_40  and  C_50
   15  A    between atoms: C_45  and  C_49
   16  A    between atoms: N_46  and  C_50
                            x       y       z     vdW  Elec       q    Type
                         _______ _______ _______ _____ _____    ______ ____

>  <TORSDO>
F 16

$$$$
=
 OpenBabel11062421383D

 52 56  0  0  1  0  0  0  0  0999 V2000
  188.2110  174.0660  138.8130 N   0  0  0  0  0  0  0  0  0  0  0  0
  186.7560  176.2040  137.4820 N   0  0  0  0  0  1  0  0  0  0  0  0
  187.4610  176.1860  141.6530 C   0  0  0  0  0  0  0  0  0  0  0  0
  187.9270  175.1520  140.8430 C   0  0  0  0  0  0  0  0  0  0  0  0
  188.7800  173.7690  141.2690 S   0  0  0  0  0  0  0  0  0  0  0  0
  186.7460  177.2220  141.0240 C   0  0  0  0  0  3  0  0  0  0  0  0
  187.0010  176.1860  138.8840 C   0  0  0  0  0  0  0  0  0  0  0  0
  188.8400  173.2240  139.6690 C   0  0  0  0  0  0  0  0  0  0  0  0
  187.7080  175.1400  139.4760 C   0  0  0  0  0  0  0  0  0  0  0  0
  186.5380  177.2000  139.6730 N   0  0  0  0  0  0  0  0  0  0  0  0
  187.6010  177.9720  145.2990 O   0  0  0  0  0  0  0  0  0  0  0  0
  188.8970  177.0000  143.5260 C   0  0  0  0  0  0  0  0  0  0  0  0
  187.6940  176.1780  143.1330 C   0  0  1  0  0  3  0  0  0  0  0  0
  186.5240  176.6100  143.8010 O   0  0  0  0  0  0  0  0  0  0  0  0
  186.8350  176.7970  145.1640 C   0  0  2  0  0  3  0  0  0  0  0  0
  190.0040  176.9430  142.8540 N   0  0  0  0  0  0  0  0  0  0  0  0
  188.7960  177.7390  144.7120 O   0  0  0  0  0  0  0  0  0  0  0  0
  185.5580  176.9260  145.9750 C   0  0  0  0  0  2  0  0  0  0  0  0
  183.8610  178.5990  146.1170 O   0  0  0  0  0  1  0  0  0  0  0  0
  185.6720  178.7510  147.6440 C   0  0  0  0  0  1  0  0  0  0  0  0
  185.2350  178.3870  146.2410 C   0  0  1  0  0  3  0  0  0  0  0  0
  191.1960  177.6880  143.2340 C   0  0  0  0  0  2  0  0  0  0  0  0
  192.3440  176.7870  143.3010 N   0  0  0  0  0  2  0  0  0  0  0  0
  192.2200  175.8410  144.4200 C   0  0  1  0  0  3  0  0  0  0  0  0
  192.0160  174.4040  143.9570 C   0  0  0  0  0  1  0  0  0  0  0  0
  193.3330  175.9700  145.4630 C   0  0  2  0  0  3  0  0  0  0  0  0
  192.7870  175.7940  146.8670 C   0  0  0  0  0  1  0  0  0  0  0  0
  193.9970  177.1950  145.3610 O   0  0  0  0  0  1  0  0  0  0  0  0
  189.4510  171.9370  139.2460 C   0  0  0  0  0  2  0  0  0  0  0  0
  190.4500  171.5310  140.2190 N   0  0  0  0  0  2  0  0  0  0  0  0
  191.7120  169.5750  140.1380 O   0  0  0  0  0  1  0  0  0  0  0  0
  191.4800  170.7940  139.5010 C   0  0  2  0  0  3  0  0  0  0  0  0
  192.6600  171.5380  139.4890 O   0  0  0  0  0  0  0  0  0  0  0  0
  193.2100  171.3660  140.7660 C   0  0  2  0  0  3  0  0  0  0  0  0
  195.3740  171.9310  139.4200 C   0  0  0  0  0  1  0  0  0  0  0  0
  193.7530  172.6790  141.3680 C   0  0  1  0  0  3  0  0  0  0  0  0
  194.7060  171.6470  140.7670 C   0  0  1  0  0  0  0  0  0  0  0  0
  194.5430  174.3990  139.7170 O   0  0  0  0  0  0  0  0  0  0  0  0
  193.5250  173.9040  140.5210 C   0  0  0  0  0  0  0  0  0  0  0  0
  192.3830  174.4330  140.4750 O   0  0  0  0  0  1  0  0  0  0  0  0
  195.4930  170.8620  141.8020 C   0  0  0  0  0  2  0  0  0  0  0  0
  194.9380  169.8730  143.8370 C   0  0  0  0  0  2  0  0  0  0  0  0
  195.0050  171.1530  143.1420 N   0  0  0  0  0  0  0  0  0  0  0  0
  194.0820  169.9840  145.0960 C   0  0  0  0  0  2  0  0  0  0  0  0
  194.3720  172.2220  145.7380 C   0  0  0  0  0  2  0  0  0  0  0  0
  194.7250  170.8490  146.0770 N   0  0  0  0  0  2  0  0  0  0  0  0
  195.4430  172.8850  144.8530 C   0  0  2  0  0  3  0  0  0  0  0  0
  196.0410  171.9430  143.7990 C   0  0  0  0  0  2  0  0  0  0  0  0
  197.5280  174.0450  144.8660 F   0  0  0  0  0  0  0  0  0  0  0  0
  197.1200  172.5740  146.5140 F   0  0  0  0  0  0  0  0  0  0  0  0
  196.0300  174.5470  146.4720 F   0  0  0  0  0  0  0  0  0  0  0  0
  196.5470  173.5270  145.6920 C   0  0  0  0  0  0  0  0  0  0  0  0
  1  9  1  0  0  0  0
  1  8  2  0  0  0  0
  2  7  1  0  0  0  0
  4  5  1  0  0  0  0
  4  3  2  0  0  0  0
  6  3  1  0  0  0  0
  7  9  2  0  0  0  0
  7 10  1  0  0  0  0
  8  5  1  0  0  0  0
  9  4  1  0  0  0  0
 10  6  2  0  0  0  0
 12 17  1  0  0  0  0
 13  3  1  6  0  0  0
 13 12  1  0  0  0  0
 13 14  1  0  0  0  0
 14 15  1  0  0  0  0
 15 11  1  0  0  0  0
 15 18  1  1  0  0  0
 16 22  1  0  0  0  0
 16 12  2  0  0  0  0
 17 11  1  0  0  0  0
 18 21  1  0  0  0  0
 19 21  1  0  0  0  0
 21 20  1  1  0  0  0
 22 23  1  0  0  0  0
 23 24  1  0  0  0  0
 24 25  1  6  0  0  0
 24 26  1  0  0  0  0
 26 27  1  1  0  0  0
 28 26  1  0  0  0  0
 29  8  1  0  0  0  0
 29 30  1  0  0  0  0
 32 31  1  1  0  0  0
 32 30  1  0  0  0  0
 33 32  1  0  0  0  0
 34 33  1  6  0  0  0
 34 37  1  0  0  0  0
 34 36  1  0  0  0  0
 36 39  1  6  0  0  0
 37 35  1  6  0  0  0
 37 36  1  0  0  0  0
 37 41  1  0  0  0  0
 38 39  2  0  0  0  0
 40 39  1  0  0  0  0
 41 43  1  0  0  0  0
 42 44  1  0  0  0  0
 43 48  1  0  0  0  0
 43 42  1  0  0  0  0
 44 46  1  0  0  0  0
 45 46  1  0  0  0  0
 47 52  1  1  0  0  0
 47 45  1  0  0  0  0
 48 47  1  0  0  0  0
 49 52  1  0  0  0  0
 52 51  1  0  0  0  0
 52 50  1  0  0  0  0
M  END
>  <MODEL>
9

>  <REMARK>
 VINA RESULT:      -5.9      1.896      2.390
  Name = 
  16 active torsions:
  status: ('A' for Active; 'I' for Inactive)
    1  A    between atoms: N_4  and  C_14
    2  A    between atoms: N_4  and  C_21
    3  A    between atoms: C_6  and  C_36
    4  A    between atoms: C_6  and  C_38
    5  A    between atoms: C_7  and  C_17
    6  A    between atoms: C_8  and  C_21
    7  A    between atoms: N_9  and  C_19
    8  A    between atoms: O_10  and  C_16
    9  A    between atoms: O_10  and  C_18
   10  A    between atoms: C_14  and  N_37
   11  A    between atoms: C_16  and  N_46
   12  A    between atoms: C_19  and  C_42
   13  A    between atoms: C_27  and  C_29
   14  A    between atoms: C_40  and  C_50
   15  A    between atoms: C_45  and  C_49
   16  A    between atoms: N_46  and  C_50
                            x       y       z     vdW  Elec       q    Type
                         _______ _______ _______ _____ _____    ______ ____

>  <TORSDO>
F 16

$$$$
