=
 OpenBabel11062418213D

 66 70  0  0  1  0  0  0  0  0999 V2000
  189.5390  175.5410  142.5140 O   0  0  0  0  0  0  0  0  0  0  0  0
  188.7730  174.5930  141.8330 C   0  0  0  0  0  2  0  0  0  0  0  0
  189.3860  174.3100  140.4710 C   0  0  2  0  0  3  0  0  0  0  0  0
  187.7420  171.9320  138.8130 F   0  0  0  0  0  0  0  0  0  0  0  0
  188.3730  173.9870  139.5420 O   0  0  0  0  0  0  0  0  0  0  0  0
  189.8660  172.2460  139.7980 C   0  0  1  0  0  3  0  0  0  0  0  0
  190.3580  173.2930  140.5730 O   0  0  0  0  0  0  0  0  0  0  0  0
  188.7970  172.8200  138.9140 C   0  0  0  0  0  0  0  0  0  0  0  0
  189.2690  173.1260  137.6470 F   0  0  0  0  0  0  0  0  0  0  0  0
  191.4390  170.2000  139.7260 C   0  0  1  0  0  0  0  0  0  0  0  0
  190.9290  169.8590  140.9800 O   0  0  0  0  0  1  0  0  0  0  0  0
  190.4600  170.1440  138.7180 O   0  0  0  0  0  0  0  0  0  0  0  0
  190.9450  171.4320  139.0550 C   0  0  1  0  0  3  0  0  0  0  0  0
  192.7890  169.6450  139.3000 C   0  0  0  0  0  2  0  0  0  0  0  0
  193.0650  169.8940  137.8210 C   0  0  2  0  0  3  0  0  0  0  0  0
  193.0890  168.6730  137.1380 O   0  0  0  0  0  0  0  0  0  0  0  0
  192.3710  168.8570  136.0430 O   0  0  0  0  0  0  0  0  0  0  0  0
  192.1050  170.2330  135.9860 C   0  0  2  0  0  3  0  0  0  0  0  0
  190.8260  170.4500  135.1990 C   0  0  0  0  0  2  0  0  0  0  0  0
  192.1660  170.7250  134.5490 C   0  0  1  0  0  3  0  0  0  0  0  0
  192.3550  172.8220  135.5990 O   0  0  0  0  0  0  0  0  0  0  0  0
  192.4200  172.1940  134.5550 C   0  0  0  0  0  3  0  0  0  0  0  0
  194.4250  170.5510  137.6590 C   0  0  0  0  0  2  0  0  0  0  0  0
  195.4520  169.5460  137.4120 N   0  0  0  0  0  2  0  0  0  0  0  0
  196.7530  170.0530  137.8560 C   0  0  1  0  0  3  0  0  0  0  0  0
  197.6960  169.9380  136.8320 O   0  0  0  0  0  1  0  0  0  0  0  0
  197.9300  171.7890  138.9320 C   0  0  1  0  0  3  0  0  0  0  0  0
  197.6510  172.2180  137.5500 C   0  0  1  0  0  3  0  0  0  0  0  0
  197.7220  172.8010  139.8740 O   0  0  0  0  0  1  0  0  0  0  0  0
  196.6490  171.4400  138.2970 N   0  0  0  0  0  0  0  0  0  0  0  0
  197.1660  173.6550  137.4080 C   0  0  0  0  0  2  0  0  0  0  0  0
  197.5670  174.1700  136.1750 O   0  0  0  0  0  0  0  0  0  0  0  0
  197.0430  175.4620  136.1470 C   0  0  0  0  0  1  0  0  0  0  0  0
  190.2020  174.8230  143.5110 C   0  0  0  0  0  2  0  0  0  0  0  0
  191.3370  175.6480  144.1160 C   0  0  2  0  0  3  0  0  0  0  0  0
  190.8800  176.5870  145.2430 C   0  0  2  0  0  3  0  0  0  0  0  0
  190.3710  175.8400  146.3130 O   0  0  0  0  0  0  0  0  0  0  0  0
  191.2960  175.1160  148.6680 O   0  0  0  0  0  1  0  0  0  0  0  0
  191.3220  176.2460  147.6610 P   0  0  1  0  0  0  0  0  0  0  0  0
  193.0310  176.5150  147.1190 C   0  0  0  0  0  1  0  0  0  0  0  0
  190.7430  177.6620  148.3860 O   0  0  0  0  0  0  0  0  0  0  0  0
  189.8490  177.6090  144.7790 C   0  0  0  0  0  2  0  0  0  0  0  0
  187.6340  178.1440  145.6670 C   0  0  0  0  0  3  0  0  0  0  0  0
  188.4990  177.2200  145.2630 C   0  0  0  0  0  3  0  0  0  0  0  0
  186.0970  176.8850  147.1060 C   0  0  0  0  0  2  0  0  0  0  0  0
  186.2910  177.8060  146.1660 C   0  0  0  0  0  0  0  0  0  0  0  0
  184.8880  178.7290  145.5620 S   0  0  0  0  0  0  0  0  0  0  0  0
  185.6080  178.9180  143.9000 C   0  0  0  0  0  2  0  0  0  0  0  0
  185.6520  176.7660  142.8790 O   0  0  0  0  0  0  0  0  0  0  0  0
  185.0640  177.8740  142.9890 C   0  0  0  0  0  0  0  0  0  0  0  0
  183.8560  178.1120  142.2740 N   0  0  0  0  0  1  0  0  0  0  0  0
  192.3000  176.5140  142.8270 S   0  0  0  0  0  0  0  0  0  0  0  0
  193.7250  176.7860  143.9200 C   0  0  0  0  0  2  0  0  0  0  0  0
  194.6960  175.6340  143.7810 C   0  0  0  0  0  2  0  0  0  0  0  0
  195.7570  175.9880  142.7580 C   0  0  0  0  0  2  0  0  0  0  0  0
  196.5770  174.8190  142.4680 N   0  0  0  0  0  2  0  0  0  0  0  0
  197.5370  174.0740  144.8490 S   0  0  0  0  0  0  0  0  0  0  0  0
  196.8160  173.7630  143.4040 C   0  0  0  0  0  0  0  0  0  0  0  0
  196.4710  172.4230  143.0290 N   0  0  0  0  0  2  0  0  0  0  0  0
  195.2660  171.7360  143.4760 C   0  0  2  0  0  3  0  0  0  0  0  0
  192.2930  171.1660  144.0690 C   0  0  0  0  0  1  0  0  0  0  0  0
  194.0580  172.6170  143.2620 C   0  0  2  0  0  3  0  0  0  0  0  0
  193.1060  172.3500  144.3480 N   0  0  0  0  0  0  0  0  0  0  0  0
  193.9450  172.0020  145.4890 C   0  0  0  0  0  2  0  0  0  0  0  0
  195.3010  171.5340  144.9740 C   0  0  0  0  0  2  0  0  0  0  0  0
  193.4700  172.4800  141.8590 C   0  0  0  0  0  1  0  0  0  0  0  0
  1 34  1  0  0  0  0
  2  1  1  0  0  0  0
  3  7  1  0  0  0  0
  3  2  1  1  0  0  0
  4  8  1  0  0  0  0
  5  3  1  0  0  0  0
  6  7  1  6  0  0  0
  8  5  1  0  0  0  0
  8  6  1  0  0  0  0
  9  8  1  0  0  0  0
 10 11  1  1  0  0  0
 12 10  1  0  0  0  0
 13 12  1  6  0  0  0
 13 10  1  0  0  0  0
 13  6  1  0  0  0  0
 14 10  1  0  0  0  0
 15 23  1  1  0  0  0
 15 14  1  0  0  0  0
 16 15  1  0  0  0  0
 17 16  1  0  0  0  0
 18 17  1  6  0  0  0
 19 18  1  0  0  0  0
 20 22  1  1  0  0  0
 20 19  1  0  0  0  0
 20 18  1  0  0  0  0
 22 21  2  0  0  0  0
 24 23  1  0  0  0  0
 24 25  1  0  0  0  0
 25 26  1  6  0  0  0
 25 30  1  0  0  0  0
 27 29  1  1  0  0  0
 28 31  1  1  0  0  0
 28 30  1  0  0  0  0
 28 27  1  0  0  0  0
 30 27  1  0  0  0  0
 32 31  1  0  0  0  0
 33 32  1  0  0  0  0
 35 34  1  6  0  0  0
 35 36  1  0  0  0  0
 36 42  1  6  0  0  0
 36 37  1  0  0  0  0
 37 39  1  0  0  0  0
 39 40  1  6  0  0  0
 39 41  2  0  0  0  0
 39 38  1  0  0  0  0
 42 44  1  0  0  0  0
 43 46  1  0  0  0  0
 44 43  2  0  0  0  0
 46 45  2  0  0  0  0
 47 46  1  0  0  0  0
 48 47  1  0  0  0  0
 49 50  2  0  0  0  0
 50 48  1  0  0  0  0
 51 50  1  0  0  0  0
 52 53  1  0  0  0  0
 52 35  1  0  0  0  0
 54 53  1  0  0  0  0
 55 54  1  0  0  0  0
 56 55  1  0  0  0  0
 56 58  1  0  0  0  0
 58 57  2  0  0  0  0
 59 58  1  0  0  0  0
 60 59  1  1  0  0  0
 60 65  1  0  0  0  0
 61 63  1  0  0  0  0
 62 66  1  6  0  0  0
 62 60  1  0  0  0  0
 62 63  1  0  0  0  0
 63 64  1  0  0  0  0
 65 64  1  0  0  0  0
M  END
>  <MODEL>
1

>  <REMARK>
 VINA RESULT:      -4.4      0.000      0.000
  Name = 
  34 active torsions:
  status: ('A' for Active; 'I' for Inactive)
    1  A    between atoms: O_2  and  C_47
    2  A    between atoms: C_4  and  C_40
    3  A    between atoms: O_6  and  C_20
    4  A    between atoms: O_6  and  C_38
    5  A    between atoms: N_7  and  C_12
    6  A    between atoms: N_7  and  C_36
    7  A    between atoms: C_8  and  N_21
    8  A    between atoms: C_9  and  O_17
    9  A    between atoms: C_10  and  C_33
   10  A    between atoms: C_10  and  C_60
   11  A    between atoms: C_12  and  N_48
   12  A    between atoms: C_16  and  C_24
   13  A    between atoms: O_17  and  O_57
   14  A    between atoms: C_18  and  C_47
   15  A    between atoms: C_19  and  C_45
   16  A    between atoms: C_20  and  C_34
   17  A    between atoms: N_21  and  C_25
   18  A    between atoms: C_22  and  C_38
   19  A    between atoms: C_23  and  C_36
   20  A    between atoms: C_23  and  C_40
   21  A    between atoms: C_23  and  O_57
   22  A    between atoms: C_24  and  S_66
   23  A    between atoms: C_25  and  N_53
   24  A    between atoms: C_34  and  C_60
   25  A    between atoms: C_34  and  S_62
   26  A    between atoms: C_35  and  C_49
   27  A    between atoms: P_37  and  O_39
   28  A    between atoms: O_39  and  C_60
   29  A    between atoms: C_45  and  S_66
   30  A    between atoms: C_51  and  C_56
   31  A    between atoms: C_51  and  S_62
   32  A    between atoms: N_53  and  C_58
   33  A    between atoms: C_54  and  C_61
   34  A    between atoms: C_56  and  C_58
                            x       y       z     vdW  Elec       q    Type
                         _______ _______ _______ _____ _____    ______ ____

>  <TORSDO>
F 34

$$$$
=
 OpenBabel11062418213D

 66 70  0  0  1  0  0  0  0  0999 V2000
  186.4780  177.7430  142.4390 O   0  0  0  0  0  0  0  0  0  0  0  0
  186.5540  176.3820  142.1380 C   0  0  0  0  0  2  0  0  0  0  0  0
  187.9020  176.0610  141.5110 C   0  0  2  0  0  3  0  0  0  0  0  0
  187.7870  173.3450  139.5840 F   0  0  0  0  0  0  0  0  0  0  0  0
  187.7180  175.5230  140.2180 O   0  0  0  0  0  0  0  0  0  0  0  0
  188.7960  174.0290  141.6080 C   0  0  1  0  0  3  0  0  0  0  0  0
  188.6390  175.1980  142.3480 O   0  0  0  0  0  0  0  0  0  0  0  0
  188.4980  174.3720  140.1760 C   0  0  0  0  0  0  0  0  0  0  0  0
  189.6480  174.6230  139.4440 F   0  0  0  0  0  0  0  0  0  0  0  0
  190.1220  172.1090  142.7130 C   0  0  1  0  0  0  0  0  0  0  0  0
  188.9190  171.7230  143.3080 O   0  0  0  0  0  1  0  0  0  0  0  0
  190.0880  171.9840  141.3130 O   0  0  0  0  0  0  0  0  0  0  0  0
  190.1400  173.3030  141.8270 C   0  0  1  0  0  3  0  0  0  0  0  0
  191.4340  171.6600  143.3370 C   0  0  0  0  0  2  0  0  0  0  0  0
  191.7590  170.2090  142.9950 C   0  0  2  0  0  3  0  0  0  0  0  0
  192.6490  169.6950  143.9440 O   0  0  0  0  0  0  0  0  0  0  0  0
  193.6930  170.5070  143.9380 O   0  0  0  0  0  0  0  0  0  0  0  0
  194.3230  170.3310  145.1780 C   0  0  2  0  0  3  0  0  0  0  0  0
  194.5530  171.6940  145.8050 C   0  0  0  0  0  2  0  0  0  0  0  0
  195.7090  170.9570  145.1620 C   0  0  1  0  0  3  0  0  0  0  0  0
  197.5960  169.7880  145.9400 O   0  0  0  0  0  0  0  0  0  0  0  0
  196.5360  170.3200  146.2260 C   0  0  0  0  0  3  0  0  0  0  0  0
  192.4320  170.1430  141.6350 C   0  0  0  0  0  2  0  0  0  0  0  0
  192.6930  168.7590  141.2590 N   0  0  0  0  0  2  0  0  0  0  0  0
  191.9040  168.4130  140.0750 C   0  0  1  0  0  3  0  0  0  0  0  0
  190.5410  168.4000  140.3830 O   0  0  0  0  0  1  0  0  0  0  0  0
  193.1150  168.6810  138.0710 C   0  0  1  0  0  3  0  0  0  0  0  0
  191.6790  168.7190  137.7420 C   0  0  1  0  0  3  0  0  0  0  0  0
  193.8600  169.6500  137.3910 O   0  0  0  0  0  1  0  0  0  0  0  0
  192.1680  169.3440  138.9820 N   0  0  0  0  0  0  0  0  0  0  0  0
  191.2730  169.8080  136.7580 C   0  0  0  0  0  2  0  0  0  0  0  0
  190.1060  170.4330  137.2000 O   0  0  0  0  0  0  0  0  0  0  0  0
  189.6060  171.0810  136.0700 C   0  0  0  0  0  1  0  0  0  0  0  0
  185.5330  178.2580  141.5500 C   0  0  0  0  0  2  0  0  0  0  0  0
  184.1160  178.0730  142.0930 C   0  0  2  0  0  3  0  0  0  0  0  0
  183.0340  178.0930  141.0020 C   0  0  2  0  0  3  0  0  0  0  0  0
  181.8730  177.4620  141.4650 O   0  0  0  0  0  0  0  0  0  0  0  0
  181.0940  179.7970  140.5360 O   0  0  0  0  0  0  0  0  0  0  0  0
  180.6420  178.6310  141.3870 P   0  0  1  0  0  0  0  0  0  0  0  0
  179.1680  177.8880  140.6380 C   0  0  0  0  0  1  0  0  0  0  0  0
  180.2540  179.1810  142.9400 O   0  0  0  0  0  1  0  0  0  0  0  0
  183.4960  177.4510  139.6990 C   0  0  0  0  0  2  0  0  0  0  0  0
  182.5300  176.0430  137.9480 C   0  0  0  0  0  3  0  0  0  0  0  0
  182.3420  176.8130  139.0140 C   0  0  0  0  0  3  0  0  0  0  0  0
  180.7120  176.0420  136.3020 C   0  0  0  0  0  2  0  0  0  0  0  0
  181.4180  175.4000  137.2290 C   0  0  0  0  0  0  0  0  0  0  0  0
  181.0710  173.6780  137.5390 S   0  0  0  0  0  0  0  0  0  0  0  0
  179.8950  173.5670  136.1540 C   0  0  0  0  0  2  0  0  0  0  0  0
  180.7360  171.6240  135.0600 O   0  0  0  0  0  0  0  0  0  0  0  0
  179.7850  172.1560  135.6930 C   0  0  0  0  0  0  0  0  0  0  0  0
  178.6220  171.3950  136.0010 N   0  0  0  0  0  1  0  0  0  0  0  0
  183.7600  179.2350  143.4570 S   0  0  0  0  0  0  0  0  0  0  0  0
  185.2200  178.7320  144.4130 C   0  0  0  0  0  2  0  0  0  0  0  0
  184.7820  177.9320  145.6200 C   0  0  0  0  0  2  0  0  0  0  0  0
  185.8060  178.0860  146.7270 C   0  0  0  0  0  2  0  0  0  0  0  0
  187.1370  177.7860  146.2160 N   0  0  0  0  0  2  0  0  0  0  0  0
  188.6660  178.5390  148.2760 S   0  0  0  0  0  0  0  0  0  0  0  0
  188.2670  177.5160  147.0510 C   0  0  0  0  0  0  0  0  0  0  0  0
  189.0790  176.3710  146.7590 N   0  0  0  0  0  2  0  0  0  0  0  0
  190.4690  176.4460  146.3270 C   0  0  2  0  0  3  0  0  0  0  0  0
  192.9390  176.6090  144.4860 C   0  0  0  0  0  1  0  0  0  0  0  0
  190.5440  176.4430  144.8190 C   0  0  2  0  0  3  0  0  0  0  0  0
  191.7680  175.7320  144.4290 N   0  0  0  0  0  0  0  0  0  0  0  0
  191.9590  174.7370  145.4780 C   0  0  0  0  0  2  0  0  0  0  0  0
  191.2120  175.1920  146.7260 C   0  0  0  0  0  2  0  0  0  0  0  0
  190.4080  177.8420  144.2190 C   0  0  0  0  0  1  0  0  0  0  0  0
  2  1  1  0  0  0  0
  3  2  1  1  0  0  0
  3  7  1  0  0  0  0
  4  8  1  0  0  0  0
  5  3  1  0  0  0  0
  6 13  1  0  0  0  0
  6  7  1  1  0  0  0
  8  5  1  0  0  0  0
  8  6  1  0  0  0  0
  9  8  1  0  0  0  0
 10 11  1  1  0  0  0
 10 14  1  0  0  0  0
 12 10  1  0  0  0  0
 13 12  1  6  0  0  0
 13 10  1  0  0  0  0
 15 23  1  6  0  0  0
 15 14  1  0  0  0  0
 15 16  1  0  0  0  0
 17 16  1  0  0  0  0
 18 17  1  6  0  0  0
 18 19  1  0  0  0  0
 20 18  1  0  0  0  0
 20 19  1  0  0  0  0
 20 22  1  1  0  0  0
 21 22  2  0  0  0  0
 24 23  1  0  0  0  0
 25 26  1  1  0  0  0
 25 24  1  0  0  0  0
 27 29  1  6  0  0  0
 27 30  1  0  0  0  0
 28 31  1  6  0  0  0
 28 27  1  0  0  0  0
 28 30  1  0  0  0  0
 30 25  1  0  0  0  0
 31 32  1  0  0  0  0
 33 32  1  0  0  0  0
 34  1  1  0  0  0  0
 35 34  1  6  0  0  0
 35 52  1  0  0  0  0
 36 42  1  6  0  0  0
 36 37  1  0  0  0  0
 36 35  1  0  0  0  0
 38 39  2  0  0  0  0
 39 40  1  6  0  0  0
 39 37  1  0  0  0  0
 39 41  1  0  0  0  0
 43 44  2  0  0  0  0
 44 42  1  0  0  0  0
 45 46  2  0  0  0  0
 46 47  1  0  0  0  0
 46 43  1  0  0  0  0
 48 47  1  0  0  0  0
 49 50  2  0  0  0  0
 50 51  1  0  0  0  0
 50 48  1  0  0  0  0
 52 53  1  0  0  0  0
 53 54  1  0  0  0  0
 54 55  1  0  0  0  0
 56 55  1  0  0  0  0
 56 58  1  0  0  0  0
 58 57  2  0  0  0  0
 59 58  1  0  0  0  0
 60 65  1  0  0  0  0
 60 59  1  6  0  0  0
 62 66  1  1  0  0  0
 62 60  1  0  0  0  0
 63 61  1  0  0  0  0
 63 62  1  0  0  0  0
 63 64  1  0  0  0  0
 64 65  1  0  0  0  0
M  END
>  <MODEL>
2

>  <REMARK>
 VINA RESULT:      -4.3      4.418      8.219
  Name = 
  34 active torsions:
  status: ('A' for Active; 'I' for Inactive)
    1  A    between atoms: O_2  and  C_47
    2  A    between atoms: C_4  and  C_40
    3  A    between atoms: O_6  and  C_20
    4  A    between atoms: O_6  and  C_38
    5  A    between atoms: N_7  and  C_12
    6  A    between atoms: N_7  and  C_36
    7  A    between atoms: C_8  and  N_21
    8  A    between atoms: C_9  and  O_17
    9  A    between atoms: C_10  and  C_33
   10  A    between atoms: C_10  and  C_60
   11  A    between atoms: C_12  and  N_48
   12  A    between atoms: C_16  and  C_24
   13  A    between atoms: O_17  and  O_57
   14  A    between atoms: C_18  and  C_47
   15  A    between atoms: C_19  and  C_45
   16  A    between atoms: C_20  and  C_34
   17  A    between atoms: N_21  and  C_25
   18  A    between atoms: C_22  and  C_38
   19  A    between atoms: C_23  and  C_36
   20  A    between atoms: C_23  and  C_40
   21  A    between atoms: C_23  and  O_57
   22  A    between atoms: C_24  and  S_66
   23  A    between atoms: C_25  and  N_53
   24  A    between atoms: C_34  and  C_60
   25  A    between atoms: C_34  and  S_62
   26  A    between atoms: C_35  and  C_49
   27  A    between atoms: P_37  and  O_39
   28  A    between atoms: O_39  and  C_60
   29  A    between atoms: C_45  and  S_66
   30  A    between atoms: C_51  and  C_56
   31  A    between atoms: C_51  and  S_62
   32  A    between atoms: N_53  and  C_58
   33  A    between atoms: C_54  and  C_61
   34  A    between atoms: C_56  and  C_58
                            x       y       z     vdW  Elec       q    Type
                         _______ _______ _______ _____ _____    ______ ____

>  <TORSDO>
F 34

$$$$
=
 OpenBabel11062418213D

 66 70  0  0  1  0  0  0  0  0999 V2000
  187.4660  175.1200  141.7590 O   0  0  0  0  0  0  0  0  0  0  0  0
  188.6350  174.3640  141.8670 C   0  0  0  0  0  2  0  0  0  0  0  0
  189.2830  174.2070  140.5000 C   0  0  2  0  0  3  0  0  0  0  0  0
  187.7490  171.9190  138.6260 F   0  0  0  0  0  0  0  0  0  0  0  0
  188.2990  173.9280  139.5270 O   0  0  0  0  0  0  0  0  0  0  0  0
  189.8430  172.2190  139.6790 C   0  0  1  0  0  3  0  0  0  0  0  0
  190.2860  173.2150  140.5440 O   0  0  0  0  0  0  0  0  0  0  0  0
  188.7720  172.8270  138.8190 C   0  0  0  0  0  0  0  0  0  0  0  0
  189.2590  173.2470  137.5910 F   0  0  0  0  0  0  0  0  0  0  0  0
  191.4210  170.1910  139.4350 C   0  0  1  0  0  0  0  0  0  0  0  0
  190.8450  169.6970  140.6080 O   0  0  0  0  0  1  0  0  0  0  0  0
  190.4970  170.2660  138.3770 O   0  0  0  0  0  0  0  0  0  0  0  0
  190.9610  171.4990  138.8980 C   0  0  1  0  0  3  0  0  0  0  0  0
  192.7930  169.6870  139.0150 C   0  0  0  0  0  2  0  0  0  0  0  0
  193.9070  170.6210  139.4760 C   0  0  2  0  0  3  0  0  0  0  0  0
  195.0220  170.4640  138.6440 O   0  0  0  0  0  0  0  0  0  0  0  0
  195.7760  171.5310  138.8470 O   0  0  0  0  0  0  0  0  0  0  0  0
  196.0570  172.0480  137.5740 C   0  0  2  0  0  3  0  0  0  0  0  0
  196.8940  173.3050  137.7320 C   0  0  0  0  0  2  0  0  0  0  0  0
  195.4190  173.4190  137.4070 C   0  0  1  0  0  3  0  0  0  0  0  0
  194.7990  174.7680  135.5830 O   0  0  0  0  0  0  0  0  0  0  0  0
  195.2600  173.7010  135.9520 C   0  0  0  0  0  3  0  0  0  0  0  0
  194.3230  170.2610  140.8920 C   0  0  0  0  0  2  0  0  0  0  0  0
  194.9400  168.9400  140.9240 N   0  0  0  0  0  2  0  0  0  0  0  0
  195.1830  168.5440  142.3130 C   0  0  1  0  0  3  0  0  0  0  0  0
  196.5340  168.2410  142.5040 O   0  0  0  0  0  1  0  0  0  0  0  0
  194.0610  168.9340  144.3480 C   0  0  1  0  0  3  0  0  0  0  0  0
  195.4600  169.3650  144.5110 C   0  0  1  0  0  3  0  0  0  0  0  0
  193.1420  169.8250  144.9110 O   0  0  0  0  0  1  0  0  0  0  0  0
  194.7630  169.5930  143.2350 N   0  0  0  0  0  0  0  0  0  0  0  0
  195.6440  170.6970  145.2280 C   0  0  0  0  0  2  0  0  0  0  0  0
  196.9840  170.8640  145.5780 O   0  0  0  0  0  0  0  0  0  0  0  0
  197.1210  172.2350  145.7960 C   0  0  0  0  0  1  0  0  0  0  0  0
  187.2650  175.6590  143.0300 C   0  0  0  0  0  2  0  0  0  0  0  0
  187.5930  177.1520  143.0490 C   0  0  2  0  0  3  0  0  0  0  0  0
  186.4390  178.0390  142.5560 C   0  0  2  0  0  3  0  0  0  0  0  0
  186.6690  178.4330  141.2320 O   0  0  0  0  0  0  0  0  0  0  0  0
  185.4460  177.0990  139.3220 O   0  0  0  0  0  0  0  0  0  0  0  0
  185.2190  178.1390  140.3970 P   0  0  1  0  0  0  0  0  0  0  0  0
  183.9780  177.5210  141.5670 C   0  0  0  0  0  1  0  0  0  0  0  0
  184.6460  179.5670  139.6900 O   0  0  0  0  0  1  0  0  0  0  0  0
  186.2160  179.2620  143.4360 C   0  0  0  0  0  2  0  0  0  0  0  0
  185.1860  178.4440  145.4980 C   0  0  0  0  0  3  0  0  0  0  0  0
  186.2760  178.8700  144.8680 C   0  0  0  0  0  3  0  0  0  0  0  0
  184.4230  178.6600  147.8190 C   0  0  0  0  0  2  0  0  0  0  0  0
  185.1930  178.0560  146.9180 C   0  0  0  0  0  0  0  0  0  0  0  0
  186.1910  176.6670  147.4290 S   0  0  0  0  0  0  0  0  0  0  0  0
  187.7190  177.6560  147.4650 C   0  0  0  0  0  2  0  0  0  0  0  0
  188.7020  175.6300  146.6870 O   0  0  0  0  0  0  0  0  0  0  0  0
  188.8850  176.8030  147.1100 C   0  0  0  0  0  0  0  0  0  0  0  0
  190.2060  177.3230  147.2100 N   0  0  0  0  0  1  0  0  0  0  0  0
  189.1670  177.5060  142.1930 S   0  0  0  0  0  0  0  0  0  0  0  0
  190.0590  177.8440  143.7390 C   0  0  0  0  0  2  0  0  0  0  0  0
  191.3330  177.0310  143.7760 C   0  0  0  0  0  2  0  0  0  0  0  0
  191.0170  175.6170  144.2220 C   0  0  0  0  0  2  0  0  0  0  0  0
  191.6370  174.6600  143.3150 N   0  0  0  0  0  2  0  0  0  0  0  0
  193.4520  173.5090  144.9060 S   0  0  0  0  0  0  0  0  0  0  0  0
  192.9680  174.1600  143.4740 C   0  0  0  0  0  0  0  0  0  0  0  0
  193.8880  174.2970  142.3830 N   0  0  0  0  0  2  0  0  0  0  0  0
  195.3090  174.5780  142.5450 C   0  0  2  0  0  3  0  0  0  0  0  0
  197.9340  176.1360  142.9880 C   0  0  0  0  0  1  0  0  0  0  0  0
  195.5270  176.0620  142.7220 C   0  0  2  0  0  3  0  0  0  0  0  0
  196.8080  176.4080  142.0940 N   0  0  0  0  0  0  0  0  0  0  0  0
  196.9360  175.4670  140.9870 C   0  0  0  0  0  2  0  0  0  0  0  0
  196.0580  174.2550  141.2720 C   0  0  0  0  0  2  0  0  0  0  0  0
  195.3950  176.5080  144.1770 C   0  0  0  0  0  1  0  0  0  0  0  0
  1  2  1  0  0  0  0
  1 34  1  0  0  0  0
  3  7  1  0  0  0  0
  3  2  1  1  0  0  0
  4  8  1  0  0  0  0
  5  3  1  0  0  0  0
  6  7  1  6  0  0  0
  8  5  1  0  0  0  0
  8  6  1  0  0  0  0
  9  8  1  0  0  0  0
 10 11  1  1  0  0  0
 12 10  1  0  0  0  0
 13 12  1  6  0  0  0
 13 10  1  0  0  0  0
 13  6  1  0  0  0  0
 14 10  1  0  0  0  0
 15 14  1  6  0  0  0
 15 23  1  0  0  0  0
 16 17  1  0  0  0  0
 16 15  1  0  0  0  0
 18 19  1  0  0  0  0
 18 17  1  1  0  0  0
 20 22  1  6  0  0  0
 20 18  1  0  0  0  0
 20 19  1  0  0  0  0
 21 22  2  0  0  0  0
 23 24  1  0  0  0  0
 24 25  1  0  0  0  0
 25 26  1  6  0  0  0
 25 30  1  0  0  0  0
 27 28  1  0  0  0  0
 27 29  1  1  0  0  0
 28 31  1  1  0  0  0
 30 27  1  0  0  0  0
 30 28  1  0  0  0  0
 31 32  1  0  0  0  0
 32 33  1  0  0  0  0
 35 34  1  6  0  0  0
 36 35  1  0  0  0  0
 36 42  1  1  0  0  0
 37 36  1  0  0  0  0
 38 39  2  0  0  0  0
 39 37  1  0  0  0  0
 39 40  1  1  0  0  0
 41 39  1  0  0  0  0
 42 44  1  0  0  0  0
 43 46  1  0  0  0  0
 44 43  2  0  0  0  0
 46 47  1  0  0  0  0
 46 45  2  0  0  0  0
 47 48  1  0  0  0  0
 49 50  2  0  0  0  0
 50 51  1  0  0  0  0
 50 48  1  0  0  0  0
 52 35  1  0  0  0  0
 52 53  1  0  0  0  0
 53 54  1  0  0  0  0
 54 55  1  0  0  0  0
 56 58  1  0  0  0  0
 56 55  1  0  0  0  0
 58 57  2  0  0  0  0
 59 58  1  0  0  0  0
 60 59  1  6  0  0  0
 60 62  1  0  0  0  0
 62 66  1  1  0  0  0
 63 62  1  0  0  0  0
 63 61  1  0  0  0  0
 64 65  1  0  0  0  0
 64 63  1  0  0  0  0
 65 60  1  0  0  0  0
M  END
>  <MODEL>
3

>  <REMARK>
 VINA RESULT:      -4.2      2.717      5.230
  Name = 
  34 active torsions:
  status: ('A' for Active; 'I' for Inactive)
    1  A    between atoms: O_2  and  C_47
    2  A    between atoms: C_4  and  C_40
    3  A    between atoms: O_6  and  C_20
    4  A    between atoms: O_6  and  C_38
    5  A    between atoms: N_7  and  C_12
    6  A    between atoms: N_7  and  C_36
    7  A    between atoms: C_8  and  N_21
    8  A    between atoms: C_9  and  O_17
    9  A    between atoms: C_10  and  C_33
   10  A    between atoms: C_10  and  C_60
   11  A    between atoms: C_12  and  N_48
   12  A    between atoms: C_16  and  C_24
   13  A    between atoms: O_17  and  O_57
   14  A    between atoms: C_18  and  C_47
   15  A    between atoms: C_19  and  C_45
   16  A    between atoms: C_20  and  C_34
   17  A    between atoms: N_21  and  C_25
   18  A    between atoms: C_22  and  C_38
   19  A    between atoms: C_23  and  C_36
   20  A    between atoms: C_23  and  C_40
   21  A    between atoms: C_23  and  O_57
   22  A    between atoms: C_24  and  S_66
   23  A    between atoms: C_25  and  N_53
   24  A    between atoms: C_34  and  C_60
   25  A    between atoms: C_34  and  S_62
   26  A    between atoms: C_35  and  C_49
   27  A    between atoms: P_37  and  O_39
   28  A    between atoms: O_39  and  C_60
   29  A    between atoms: C_45  and  S_66
   30  A    between atoms: C_51  and  C_56
   31  A    between atoms: C_51  and  S_62
   32  A    between atoms: N_53  and  C_58
   33  A    between atoms: C_54  and  C_61
   34  A    between atoms: C_56  and  C_58
                            x       y       z     vdW  Elec       q    Type
                         _______ _______ _______ _____ _____    ______ ____

>  <TORSDO>
F 34

$$$$
=
 OpenBabel11062418213D

 66 70  0  0  1  0  0  0  0  0999 V2000
  192.5170  169.1840  142.6430 O   0  0  0  0  0  0  0  0  0  0  0  0
  192.6730  170.0220  143.7490 C   0  0  0  0  0  2  0  0  0  0  0  0
  192.5580  171.4760  143.3200 C   0  0  2  0  0  3  0  0  0  0  0  0
  193.3920  173.5840  145.7620 F   0  0  0  0  0  0  0  0  0  0  0  0
  193.5690  172.2440  143.9390 O   0  0  0  0  0  0  0  0  0  0  0  0
  191.4640  172.9830  144.5360 C   0  0  1  0  0  3  0  0  0  0  0  0
  191.2660  171.9690  143.6020 O   0  0  0  0  0  0  0  0  0  0  0  0
  192.9200  173.3480  144.4850 C   0  0  0  0  0  0  0  0  0  0  0  0
  193.1570  174.4580  143.6890 F   0  0  0  0  0  0  0  0  0  0  0  0
  189.8910  174.6920  145.6610 C   0  0  1  0  0  0  0  0  0  0  0  0
  190.2020  174.0680  146.8710 O   0  0  0  0  0  1  0  0  0  0  0  0
  191.0100  175.3140  145.0780 O   0  0  0  0  0  0  0  0  0  0  0  0
  190.4980  174.1780  144.4050 C   0  0  1  0  0  3  0  0  0  0  0  0
  188.6130  175.5090  145.5570 C   0  0  0  0  0  2  0  0  0  0  0  0
  188.8090  176.7670  144.7160 C   0  0  2  0  0  3  0  0  0  0  0  0
  187.8020  177.6910  145.0190 O   0  0  0  0  0  0  0  0  0  0  0  0
  186.7040  176.9790  145.2130 O   0  0  0  0  0  0  0  0  0  0  0  0
  186.3130  177.2320  146.5350 C   0  0  2  0  0  3  0  0  0  0  0  0
  184.8510  177.6380  146.5410 C   0  0  0  0  0  2  0  0  0  0  0  0
  185.9260  178.6930  146.7020 C   0  0  1  0  0  3  0  0  0  0  0  0
  187.1090  179.4350  148.5950 O   0  0  0  0  0  0  0  0  0  0  0  0
  186.0400  179.0590  148.1420 C   0  0  0  0  0  3  0  0  0  0  0  0
  188.7000  176.4190  143.2420 C   0  0  0  0  0  2  0  0  0  0  0  0
  188.1050  177.5220  142.4980 N   0  0  0  0  0  2  0  0  0  0  0  0
  187.0080  177.0200  141.6670 C   0  0  1  0  0  3  0  0  0  0  0  0
  187.0430  175.6250  141.6050 O   0  0  0  0  0  1  0  0  0  0  0  0
  185.8570  178.9060  142.4890 C   0  0  1  0  0  3  0  0  0  0  0  0
  185.2050  178.4850  141.2360 C   0  0  1  0  0  3  0  0  0  0  0  0
  184.9470  179.2520  143.4930 O   0  0  0  0  0  1  0  0  0  0  0  0
  185.7180  177.4750  142.1750 N   0  0  0  0  0  0  0  0  0  0  0  0
  183.6820  178.4780  141.2750 C   0  0  0  0  0  2  0  0  0  0  0  0
  183.1920  177.4850  140.4270 O   0  0  0  0  0  0  0  0  0  0  0  0
  181.8710  177.8570  140.1780 C   0  0  0  0  0  1  0  0  0  0  0  0
  193.1950  169.8250  141.6050 C   0  0  0  0  0  2  0  0  0  0  0  0
  194.3120  168.9390  141.0540 C   0  0  2  0  0  3  0  0  0  0  0  0
  195.6760  169.6440  140.9830 C   0  0  2  0  0  3  0  0  0  0  0  0
  195.9230  170.3310  142.1780 O   0  0  0  0  0  0  0  0  0  0  0  0
  195.7180  168.2820  143.8150 O   0  0  0  0  0  0  0  0  0  0  0  0
  196.7220  169.2290  143.1950 P   0  0  1  0  0  0  0  0  0  0  0  0
  197.9090  168.2720  142.2130 C   0  0  0  0  0  1  0  0  0  0  0  0
  197.5540  170.0520  144.4180 O   0  0  0  0  0  1  0  0  0  0  0  0
  195.7880  170.5960  139.7970 C   0  0  0  0  0  2  0  0  0  0  0  0
  196.2310  172.9990  139.8830 C   0  0  0  0  0  3  0  0  0  0  0  0
  196.6300  171.7640  140.1670 C   0  0  0  0  0  3  0  0  0  0  0  0
  197.3270  175.1190  139.3150 C   0  0  0  0  0  2  0  0  0  0  0  0
  197.0350  174.1860  140.2180 C   0  0  0  0  0  0  0  0  0  0  0  0
  197.5500  174.4320  141.9090 S   0  0  0  0  0  0  0  0  0  0  0  0
  196.0140  175.3040  142.3500 C   0  0  0  0  0  2  0  0  0  0  0  0
  195.6550  176.0460  144.5860 O   0  0  0  0  0  0  0  0  0  0  0  0
  196.2620  176.2210  143.4960 C   0  0  0  0  0  0  0  0  0  0  0  0
  197.2160  177.2710  143.3750 N   0  0  0  0  0  1  0  0  0  0  0  0
  193.8380  168.1660  139.4670 S   0  0  0  0  0  0  0  0  0  0  0  0
  192.4590  169.3150  139.1930 C   0  0  0  0  0  2  0  0  0  0  0  0
  191.9220  169.1350  137.7900 C   0  0  0  0  0  2  0  0  0  0  0  0
  191.2220  170.4060  137.3510 C   0  0  0  0  0  2  0  0  0  0  0  0
  191.9560  171.5690  137.8310 N   0  0  0  0  0  2  0  0  0  0  0  0
  191.8740  172.7240  135.4210 S   0  0  0  0  0  0  0  0  0  0  0  0
  192.2540  172.7110  137.0220 C   0  0  0  0  0  0  0  0  0  0  0  0
  192.9450  173.8150  137.6210 N   0  0  0  0  0  2  0  0  0  0  0  0
  194.0400  174.5340  136.9820 C   0  0  2  0  0  3  0  0  0  0  0  0
  195.5820  176.2980  134.9750 C   0  0  0  0  0  1  0  0  0  0  0  0
  193.5510  175.2070  135.7210 C   0  0  2  0  0  3  0  0  0  0  0  0
  194.6500  175.1940  134.7470 N   0  0  0  0  0  0  0  0  0  0  0  0
  195.3900  173.9740  135.0500 C   0  0  0  0  0  2  0  0  0  0  0  0
  195.0880  173.5640  136.4870 C   0  0  0  0  0  2  0  0  0  0  0  0
  192.9560  176.5890  135.9830 C   0  0  0  0  0  1  0  0  0  0  0  0
  1  2  1  0  0  0  0
  3  7  1  0  0  0  0
  3  2  1  1  0  0  0
  3  5  1  0  0  0  0
  5  8  1  0  0  0  0
  6  7  1  6  0  0  0
  8  6  1  0  0  0  0
  8  4  1  0  0  0  0
  9  8  1  0  0  0  0
 10 11  1  1  0  0  0
 12 10  1  0  0  0  0
 13  6  1  0  0  0  0
 13 12  1  1  0  0  0
 13 10  1  0  0  0  0
 14 10  1  0  0  0  0
 15 23  1  6  0  0  0
 15 16  1  0  0  0  0
 15 14  1  0  0  0  0
 16 17  1  0  0  0  0
 18 17  1  6  0  0  0
 18 19  1  0  0  0  0
 18 20  1  0  0  0  0
 19 20  1  0  0  0  0
 20 22  1  1  0  0  0
 22 21  2  0  0  0  0
 24 23  1  0  0  0  0
 25 26  1  1  0  0  0
 25 30  1  0  0  0  0
 25 24  1  0  0  0  0
 27 29  1  1  0  0  0
 28 31  1  1  0  0  0
 28 30  1  0  0  0  0
 28 27  1  0  0  0  0
 30 27  1  0  0  0  0
 32 31  1  0  0  0  0
 33 32  1  0  0  0  0
 34  1  1  0  0  0  0
 35 34  1  6  0  0  0
 36 42  1  6  0  0  0
 36 35  1  0  0  0  0
 36 37  1  0  0  0  0
 37 39  1  0  0  0  0
 39 40  1  6  0  0  0
 39 38  2  0  0  0  0
 39 41  1  0  0  0  0
 42 44  1  0  0  0  0
 43 44  2  0  0  0  0
 43 46  1  0  0  0  0
 45 46  2  0  0  0  0
 46 47  1  0  0  0  0
 47 48  1  0  0  0  0
 48 50  1  0  0  0  0
 50 49  2  0  0  0  0
 51 50  1  0  0  0  0
 52 35  1  0  0  0  0
 53 52  1  0  0  0  0
 54 53  1  0  0  0  0
 55 54  1  0  0  0  0
 55 56  1  0  0  0  0
 57 58  2  0  0  0  0
 58 59  1  0  0  0  0
 58 56  1  0  0  0  0
 60 59  1  6  0  0  0
 62 66  1  1  0  0  0
 62 60  1  0  0  0  0
 63 61  1  0  0  0  0
 63 64  1  0  0  0  0
 63 62  1  0  0  0  0
 64 65  1  0  0  0  0
 65 60  1  0  0  0  0
M  END
>  <MODEL>
4

>  <REMARK>
 VINA RESULT:      -4.0      4.002     10.833
  Name = 
  34 active torsions:
  status: ('A' for Active; 'I' for Inactive)
    1  A    between atoms: O_2  and  C_47
    2  A    between atoms: C_4  and  C_40
    3  A    between atoms: O_6  and  C_20
    4  A    between atoms: O_6  and  C_38
    5  A    between atoms: N_7  and  C_12
    6  A    between atoms: N_7  and  C_36
    7  A    between atoms: C_8  and  N_21
    8  A    between atoms: C_9  and  O_17
    9  A    between atoms: C_10  and  C_33
   10  A    between atoms: C_10  and  C_60
   11  A    between atoms: C_12  and  N_48
   12  A    between atoms: C_16  and  C_24
   13  A    between atoms: O_17  and  O_57
   14  A    between atoms: C_18  and  C_47
   15  A    between atoms: C_19  and  C_45
   16  A    between atoms: C_20  and  C_34
   17  A    between atoms: N_21  and  C_25
   18  A    between atoms: C_22  and  C_38
   19  A    between atoms: C_23  and  C_36
   20  A    between atoms: C_23  and  C_40
   21  A    between atoms: C_23  and  O_57
   22  A    between atoms: C_24  and  S_66
   23  A    between atoms: C_25  and  N_53
   24  A    between atoms: C_34  and  C_60
   25  A    between atoms: C_34  and  S_62
   26  A    between atoms: C_35  and  C_49
   27  A    between atoms: P_37  and  O_39
   28  A    between atoms: O_39  and  C_60
   29  A    between atoms: C_45  and  S_66
   30  A    between atoms: C_51  and  C_56
   31  A    between atoms: C_51  and  S_62
   32  A    between atoms: N_53  and  C_58
   33  A    between atoms: C_54  and  C_61
   34  A    between atoms: C_56  and  C_58
                            x       y       z     vdW  Elec       q    Type
                         _______ _______ _______ _____ _____    ______ ____

>  <TORSDO>
F 34

$$$$
=
 OpenBabel11062418213D

 66 70  0  0  1  0  0  0  0  0999 V2000
  188.2590  176.6710  141.9760 O   0  0  0  0  0  0  0  0  0  0  0  0
  189.5730  176.1990  141.9540 C   0  0  0  0  0  2  0  0  0  0  0  0
  189.6150  174.8020  141.3550 C   0  0  2  0  0  3  0  0  0  0  0  0
  186.9030  173.0200  142.1090 F   0  0  0  0  0  0  0  0  0  0  0  0
  188.3150  174.3950  140.9840 O   0  0  0  0  0  0  0  0  0  0  0  0
  189.2190  172.9830  142.5710 C   0  0  1  0  0  3  0  0  0  0  0  0
  190.2190  173.9010  142.2570 O   0  0  0  0  0  0  0  0  0  0  0  0
  188.1510  173.1230  141.5250 C   0  0  0  0  0  0  0  0  0  0  0  0
  188.2730  172.1780  140.5180 F   0  0  0  0  0  0  0  0  0  0  0  0
  190.8580  171.0860  141.9560 C   0  0  1  0  0  0  0  0  0  0  0  0
  191.4000  171.9620  141.0140 O   0  0  0  0  0  1  0  0  0  0  0  0
  191.0480  171.5350  143.2750 O   0  0  0  0  0  0  0  0  0  0  0  0
  189.7150  171.5400  142.7930 C   0  0  1  0  0  3  0  0  0  0  0  0
  191.0680  169.5900  141.7830 C   0  0  0  0  0  2  0  0  0  0  0  0
  192.4460  169.1500  142.2670 C   0  0  2  0  0  3  0  0  0  0  0  0
  192.7000  169.7120  143.5240 O   0  0  0  0  0  0  0  0  0  0  0  0
  193.0480  168.7030  144.3070 O   0  0  0  0  0  0  0  0  0  0  0  0
  194.0160  169.2150  145.1820 C   0  0  2  0  0  3  0  0  0  0  0  0
  195.2930  168.4110  145.0200 C   0  0  0  0  0  2  0  0  0  0  0  0
  194.3980  168.1690  146.2180 C   0  0  1  0  0  3  0  0  0  0  0  0
  196.1380  168.6630  147.7220 O   0  0  0  0  0  0  0  0  0  0  0  0
  194.9760  168.8590  147.4060 C   0  0  0  0  0  3  0  0  0  0  0  0
  193.5090  169.6490  141.3060 C   0  0  0  0  0  2  0  0  0  0  0  0
  193.3890  168.9780  140.0160 N   0  0  0  0  0  2  0  0  0  0  0  0
  194.2590  169.6340  139.0380 C   0  0  1  0  0  3  0  0  0  0  0  0
  194.1830  168.9820  137.8040 O   0  0  0  0  0  1  0  0  0  0  0  0
  194.7020  171.5690  137.7680 C   0  0  1  0  0  3  0  0  0  0  0  0
  193.2880  171.2070  137.5660 C   0  0  1  0  0  3  0  0  0  0  0  0
  194.8980  172.9430  137.9410 O   0  0  0  0  0  1  0  0  0  0  0  0
  193.9090  171.0430  138.8900 N   0  0  0  0  0  0  0  0  0  0  0  0
  192.3120  172.3760  137.6120 C   0  0  0  0  0  2  0  0  0  0  0  0
  191.8930  172.6940  136.3200 O   0  0  0  0  0  0  0  0  0  0  0  0
  191.1520  173.8660  136.4700 C   0  0  0  0  0  1  0  0  0  0  0  0
  188.1770  177.4560  143.1280 C   0  0  0  0  0  2  0  0  0  0  0  0
  187.6190  176.6490  144.3000 C   0  0  2  0  0  3  0  0  0  0  0  0
  186.7630  177.4820  145.2660 C   0  0  2  0  0  3  0  0  0  0  0  0
  186.7710  176.9010  146.5400 O   0  0  0  0  0  0  0  0  0  0  0  0
  185.4680  177.6300  148.7060 O   0  0  0  0  0  1  0  0  0  0  0  0
  186.3930  178.1500  147.6270 P   0  0  1  0  0  0  0  0  0  0  0  0
  187.9230  178.7460  148.3970 C   0  0  0  0  0  1  0  0  0  0  0  0
  185.6480  179.4340  146.8130 O   0  0  0  0  0  0  0  0  0  0  0  0
  185.3290  177.6620  144.7800 C   0  0  0  0  0  2  0  0  0  0  0  0
  184.4460  177.7220  142.5010 C   0  0  0  0  0  3  0  0  0  0  0  0
  185.3290  178.1720  143.3850 C   0  0  0  0  0  3  0  0  0  0  0  0
  185.4670  178.0750  140.2990 C   0  0  0  0  0  2  0  0  0  0  0  0
  184.4140  178.1880  141.1050 C   0  0  0  0  0  0  0  0  0  0  0  0
  182.8880  178.8330  140.4440 S   0  0  0  0  0  0  0  0  0  0  0  0
  181.9030  178.1910  141.8340 C   0  0  0  0  0  2  0  0  0  0  0  0
  179.5820  178.0570  142.3530 O   0  0  0  0  0  0  0  0  0  0  0  0
  180.4640  178.1430  141.4580 C   0  0  0  0  0  0  0  0  0  0  0  0
  180.0810  178.2350  140.0900 N   0  0  0  0  0  1  0  0  0  0  0  0
  188.9310  175.7100  145.1560 S   0  0  0  0  0  0  0  0  0  0  0  0
  189.7700  177.2080  145.7480 C   0  0  0  0  0  2  0  0  0  0  0  0
  190.3450  177.9650  144.5710 C   0  0  0  0  0  2  0  0  0  0  0  0
  191.8350  177.7010  144.4800 C   0  0  0  0  0  2  0  0  0  0  0  0
  192.1610  176.4560  145.1610 N   0  0  0  0  0  2  0  0  0  0  0  0
  192.5520  173.8110  145.1700 S   0  0  0  0  0  0  0  0  0  0  0  0
  192.7030  175.3070  144.5030 C   0  0  0  0  0  0  0  0  0  0  0  0
  193.4330  175.4960  143.2830 N   0  0  0  0  0  2  0  0  0  0  0  0
  194.8680  175.7410  143.2220 C   0  0  2  0  0  3  0  0  0  0  0  0
  197.8690  175.3210  142.6450 C   0  0  0  0  0  1  0  0  0  0  0  0
  195.5720  174.5520  142.6120 C   0  0  2  0  0  3  0  0  0  0  0  0
  196.8850  174.4270  143.2550 N   0  0  0  0  0  0  0  0  0  0  0  0
  196.6760  174.9230  144.6100 C   0  0  0  0  0  2  0  0  0  0  0  0
  195.4470  175.8250  144.6160 C   0  0  0  0  0  2  0  0  0  0  0  0
  195.6180  174.6130  141.0870 C   0  0  0  0  0  1  0  0  0  0  0  0
  1 34  1  0  0  0  0
  2  1  1  0  0  0  0
  3  2  1  1  0  0  0
  3  7  1  0  0  0  0
  5  3  1  0  0  0  0
  5  8  1  0  0  0  0
  6  7  1  6  0  0  0
  6 13  1  0  0  0  0
  8  4  1  0  0  0  0
  8  6  1  0  0  0  0
  9  8  1  0  0  0  0
 10 11  1  6  0  0  0
 10 13  1  0  0  0  0
 10 12  1  0  0  0  0
 13 12  1  1  0  0  0
 14 10  1  0  0  0  0
 14 15  1  0  0  0  0
 15 23  1  6  0  0  0
 15 16  1  0  0  0  0
 16 17  1  0  0  0  0
 18 17  1  6  0  0  0
 18 20  1  0  0  0  0
 19 18  1  0  0  0  0
 19 20  1  0  0  0  0
 20 22  1  1  0  0  0
 22 21  2  0  0  0  0
 24 23  1  0  0  0  0
 25 26  1  6  0  0  0
 25 24  1  0  0  0  0
 27 29  1  1  0  0  0
 27 30  1  0  0  0  0
 28 31  1  1  0  0  0
 28 27  1  0  0  0  0
 28 30  1  0  0  0  0
 30 25  1  0  0  0  0
 32 33  1  0  0  0  0
 32 31  1  0  0  0  0
 35 34  1  6  0  0  0
 35 52  1  0  0  0  0
 35 36  1  0  0  0  0
 36 42  1  6  0  0  0
 36 37  1  0  0  0  0
 37 39  1  0  0  0  0
 39 40  1  1  0  0  0
 39 38  1  0  0  0  0
 41 39  2  0  0  0  0
 43 44  2  0  0  0  0
 44 42  1  0  0  0  0
 45 46  2  0  0  0  0
 46 43  1  0  0  0  0
 47 46  1  0  0  0  0
 47 48  1  0  0  0  0
 50 48  1  0  0  0  0
 50 49  2  0  0  0  0
 51 50  1  0  0  0  0
 52 53  1  0  0  0  0
 54 53  1  0  0  0  0
 55 54  1  0  0  0  0
 55 56  1  0  0  0  0
 58 56  1  0  0  0  0
 58 57  2  0  0  0  0
 59 58  1  0  0  0  0
 60 59  1  1  0  0  0
 60 65  1  0  0  0  0
 61 63  1  0  0  0  0
 62 66  1  6  0  0  0
 62 60  1  0  0  0  0
 62 63  1  0  0  0  0
 63 64  1  0  0  0  0
 64 65  1  0  0  0  0
M  END
>  <MODEL>
5

>  <REMARK>
 VINA RESULT:      -3.8      2.996      5.401
  Name = 
  34 active torsions:
  status: ('A' for Active; 'I' for Inactive)
    1  A    between atoms: O_2  and  C_47
    2  A    between atoms: C_4  and  C_40
    3  A    between atoms: O_6  and  C_20
    4  A    between atoms: O_6  and  C_38
    5  A    between atoms: N_7  and  C_12
    6  A    between atoms: N_7  and  C_36
    7  A    between atoms: C_8  and  N_21
    8  A    between atoms: C_9  and  O_17
    9  A    between atoms: C_10  and  C_33
   10  A    between atoms: C_10  and  C_60
   11  A    between atoms: C_12  and  N_48
   12  A    between atoms: C_16  and  C_24
   13  A    between atoms: O_17  and  O_57
   14  A    between atoms: C_18  and  C_47
   15  A    between atoms: C_19  and  C_45
   16  A    between atoms: C_20  and  C_34
   17  A    between atoms: N_21  and  C_25
   18  A    between atoms: C_22  and  C_38
   19  A    between atoms: C_23  and  C_36
   20  A    between atoms: C_23  and  C_40
   21  A    between atoms: C_23  and  O_57
   22  A    between atoms: C_24  and  S_66
   23  A    between atoms: C_25  and  N_53
   24  A    between atoms: C_34  and  C_60
   25  A    between atoms: C_34  and  S_62
   26  A    between atoms: C_35  and  C_49
   27  A    between atoms: P_37  and  O_39
   28  A    between atoms: O_39  and  C_60
   29  A    between atoms: C_45  and  S_66
   30  A    between atoms: C_51  and  C_56
   31  A    between atoms: C_51  and  S_62
   32  A    between atoms: N_53  and  C_58
   33  A    between atoms: C_54  and  C_61
   34  A    between atoms: C_56  and  C_58
                            x       y       z     vdW  Elec       q    Type
                         _______ _______ _______ _____ _____    ______ ____

>  <TORSDO>
F 34

$$$$
=
 OpenBabel11062418213D

 66 70  0  0  1  0  0  0  0  0999 V2000
  187.8620  175.4920  141.1050 O   0  0  0  0  0  0  0  0  0  0  0  0
  187.9440  174.1130  141.3070 C   0  0  0  0  0  2  0  0  0  0  0  0
  189.3200  173.7460  141.8420 C   0  0  2  0  0  3  0  0  0  0  0  0
  191.6720  173.8790  139.4860 F   0  0  0  0  0  0  0  0  0  0  0  0
  190.3120  174.5100  141.1900 O   0  0  0  0  0  0  0  0  0  0  0  0
  190.6190  172.2500  140.8330 C   0  0  1  0  0  3  0  0  0  0  0  0
  189.5420  172.3590  141.7100 O   0  0  0  0  0  0  0  0  0  0  0  0
  191.2800  173.5970  140.7800 C   0  0  0  0  0  0  0  0  0  0  0  0
  192.3750  173.6790  141.6260 F   0  0  0  0  0  0  0  0  0  0  0  0
  192.2900  170.4820  139.9700 C   0  0  1  0  0  0  0  0  0  0  0  0
  192.0490  170.9890  138.6910 O   0  0  0  0  0  1  0  0  0  0  0  0
  192.9110  171.4230  140.8100 O   0  0  0  0  0  0  0  0  0  0  0  0
  191.5750  171.0760  141.1300 C   0  0  1  0  0  3  0  0  0  0  0  0
  192.8430  169.0730  140.1150 C   0  0  0  0  0  2  0  0  0  0  0  0
  194.3630  169.0440  139.9930 C   0  0  2  0  0  3  0  0  0  0  0  0
  194.7320  168.1750  138.9600 O   0  0  0  0  0  0  0  0  0  0  0  0
  195.7990  168.7180  138.3960 O   0  0  0  0  0  0  0  0  0  0  0  0
  195.3470  169.8900  137.7710 C   0  0  2  0  0  3  0  0  0  0  0  0
  196.0240  170.0120  136.4180 C   0  0  0  0  0  2  0  0  0  0  0  0
  196.4990  170.8630  137.5770 C   0  0  1  0  0  3  0  0  0  0  0  0
  196.1640  172.8830  136.4190 O   0  0  0  0  0  0  0  0  0  0  0  0
  195.9460  172.2400  137.4330 C   0  0  0  0  0  3  0  0  0  0  0  0
  194.9690  168.5220  141.2840 C   0  0  0  0  0  2  0  0  0  0  0  0
  193.9580  168.4530  142.3330 N   0  0  0  0  0  2  0  0  0  0  0  0
  194.1260  169.5780  143.2540 C   0  0  1  0  0  3  0  0  0  0  0  0
  193.1470  169.5440  144.2510 O   0  0  0  0  0  1  0  0  0  0  0  0
  195.5310  170.7240  144.7620 C   0  0  1  0  0  3  0  0  0  0  0  0
  195.2920  169.3730  145.3000 C   0  0  1  0  0  3  0  0  0  0  0  0
  196.8610  171.1360  144.8840 O   0  0  0  0  0  1  0  0  0  0  0  0
  195.4580  169.5700  143.8500 N   0  0  0  0  0  0  0  0  0  0  0  0
  196.5260  168.6740  145.8550 C   0  0  0  0  0  2  0  0  0  0  0  0
  196.2530  168.1720  147.1280 O   0  0  0  0  0  0  0  0  0  0  0  0
  197.1990  168.7790  147.9550 C   0  0  0  0  0  1  0  0  0  0  0  0
  186.9450  175.9430  142.0560 C   0  0  0  0  0  2  0  0  0  0  0  0
  187.6610  176.5320  143.2700 C   0  0  2  0  0  3  0  0  0  0  0  0
  186.9190  177.7180  143.9050 C   0  0  2  0  0  3  0  0  0  0  0  0
  185.7480  177.2720  144.5310 O   0  0  0  0  0  0  0  0  0  0  0  0
  185.2450  179.4390  145.9370 O   0  0  0  0  0  0  0  0  0  0  0  0
  185.7250  178.0090  146.0610 P   0  0  1  0  0  0  0  0  0  0  0  0
  184.5900  177.0960  147.1410 C   0  0  0  0  0  1  0  0  0  0  0  0
  187.2730  177.9900  146.7470 O   0  0  0  0  0  1  0  0  0  0  0  0
  186.5910  178.8160  142.9000 C   0  0  0  0  0  2  0  0  0  0  0  0
  184.2580  178.9110  142.1730 C   0  0  0  0  0  3  0  0  0  0  0  0
  185.4690  178.3830  142.0280 C   0  0  0  0  0  3  0  0  0  0  0  0
  183.1770  177.4700  140.5090 C   0  0  0  0  0  2  0  0  0  0  0  0
  183.1130  178.5070  141.3410 C   0  0  0  0  0  0  0  0  0  0  0  0
  181.5630  179.3700  141.5270 S   0  0  0  0  0  0  0  0  0  0  0  0
  180.5820  177.8530  141.3030 C   0  0  0  0  0  2  0  0  0  0  0  0
  178.8810  179.3660  140.6000 O   0  0  0  0  0  0  0  0  0  0  0  0
  179.2930  178.1760  140.6330 C   0  0  0  0  0  0  0  0  0  0  0  0
  178.5450  177.1470  139.9940 N   0  0  0  0  0  1  0  0  0  0  0  0
  189.4090  176.9140  142.9000 S   0  0  0  0  0  0  0  0  0  0  0  0
  189.6730  177.7630  144.4840 C   0  0  0  0  0  2  0  0  0  0  0  0
  190.7100  177.0150  145.2930 C   0  0  0  0  0  2  0  0  0  0  0  0
  192.0870  177.5680  144.9850 C   0  0  0  0  0  2  0  0  0  0  0  0
  193.1040  176.7750  145.6620 N   0  0  0  0  0  2  0  0  0  0  0  0
  192.7190  174.1310  145.5640 S   0  0  0  0  0  0  0  0  0  0  0  0
  193.5570  175.4990  145.1990 C   0  0  0  0  0  0  0  0  0  0  0  0
  194.7870  175.4320  144.4660 N   0  0  0  0  0  2  0  0  0  0  0  0
  194.8660  175.2600  143.0200 C   0  0  2  0  0  3  0  0  0  0  0  0
  196.0370  175.0720  140.1730 C   0  0  0  0  0  1  0  0  0  0  0  0
  196.2880  175.4570  142.5520 C   0  0  2  0  0  3  0  0  0  0  0  0
  196.2430  176.0730  141.2200 N   0  0  0  0  0  0  0  0  0  0  0  0
  195.0360  176.8920  141.2390 C   0  0  0  0  0  2  0  0  0  0  0  0
  194.1010  176.3590  142.3180 C   0  0  0  0  0  2  0  0  0  0  0  0
  197.1160  174.1760  142.6290 C   0  0  0  0  0  1  0  0  0  0  0  0
  1  2  1  0  0  0  0
  1 34  1  0  0  0  0
  3  2  1  6  0  0  0
  4  8  1  0  0  0  0
  5  3  1  0  0  0  0
  6 13  1  0  0  0  0
  6  7  1  1  0  0  0
  7  3  1  0  0  0  0
  8  6  1  0  0  0  0
  8  5  1  0  0  0  0
  8  9  1  0  0  0  0
 10 11  1  6  0  0  0
 10 14  1  0  0  0  0
 10 12  1  0  0  0  0
 10 13  1  0  0  0  0
 13 12  1  1  0  0  0
 15 14  1  1  0  0  0
 15 23  1  0  0  0  0
 16 15  1  0  0  0  0
 17 16  1  0  0  0  0
 18 17  1  1  0  0  0
 19 20  1  0  0  0  0
 19 18  1  0  0  0  0
 20 22  1  6  0  0  0
 20 18  1  0  0  0  0
 21 22  2  0  0  0  0
 23 24  1  0  0  0  0
 24 25  1  0  0  0  0
 25 30  1  0  0  0  0
 25 26  1  1  0  0  0
 27 29  1  1  0  0  0
 27 28  1  0  0  0  0
 28 31  1  1  0  0  0
 30 27  1  0  0  0  0
 30 28  1  0  0  0  0
 31 32  1  0  0  0  0
 32 33  1  0  0  0  0
 35 34  1  6  0  0  0
 35 36  1  0  0  0  0
 36 42  1  6  0  0  0
 36 37  1  0  0  0  0
 37 39  1  0  0  0  0
 38 39  2  0  0  0  0
 39 41  1  0  0  0  0
 39 40  1  1  0  0  0
 44 43  2  0  0  0  0
 44 42  1  0  0  0  0
 45 46  2  0  0  0  0
 46 47  1  0  0  0  0
 46 43  1  0  0  0  0
 48 47  1  0  0  0  0
 49 50  2  0  0  0  0
 50 48  1  0  0  0  0
 51 50  1  0  0  0  0
 52 35  1  0  0  0  0
 52 53  1  0  0  0  0
 53 54  1  0  0  0  0
 55 54  1  0  0  0  0
 55 56  1  0  0  0  0
 58 57  2  0  0  0  0
 58 56  1  0  0  0  0
 59 58  1  0  0  0  0
 60 59  1  1  0  0  0
 61 63  1  0  0  0  0
 62 66  1  6  0  0  0
 62 60  1  0  0  0  0
 63 64  1  0  0  0  0
 63 62  1  0  0  0  0
 64 65  1  0  0  0  0
 65 60  1  0  0  0  0
M  END
>  <MODEL>
6

>  <REMARK>
 VINA RESULT:      -3.7      3.159      5.445
  Name = 
  34 active torsions:
  status: ('A' for Active; 'I' for Inactive)
    1  A    between atoms: O_2  and  C_47
    2  A    between atoms: C_4  and  C_40
    3  A    between atoms: O_6  and  C_20
    4  A    between atoms: O_6  and  C_38
    5  A    between atoms: N_7  and  C_12
    6  A    between atoms: N_7  and  C_36
    7  A    between atoms: C_8  and  N_21
    8  A    between atoms: C_9  and  O_17
    9  A    between atoms: C_10  and  C_33
   10  A    between atoms: C_10  and  C_60
   11  A    between atoms: C_12  and  N_48
   12  A    between atoms: C_16  and  C_24
   13  A    between atoms: O_17  and  O_57
   14  A    between atoms: C_18  and  C_47
   15  A    between atoms: C_19  and  C_45
   16  A    between atoms: C_20  and  C_34
   17  A    between atoms: N_21  and  C_25
   18  A    between atoms: C_22  and  C_38
   19  A    between atoms: C_23  and  C_36
   20  A    between atoms: C_23  and  C_40
   21  A    between atoms: C_23  and  O_57
   22  A    between atoms: C_24  and  S_66
   23  A    between atoms: C_25  and  N_53
   24  A    between atoms: C_34  and  C_60
   25  A    between atoms: C_34  and  S_62
   26  A    between atoms: C_35  and  C_49
   27  A    between atoms: P_37  and  O_39
   28  A    between atoms: O_39  and  C_60
   29  A    between atoms: C_45  and  S_66
   30  A    between atoms: C_51  and  C_56
   31  A    between atoms: C_51  and  S_62
   32  A    between atoms: N_53  and  C_58
   33  A    between atoms: C_54  and  C_61
   34  A    between atoms: C_56  and  C_58
                            x       y       z     vdW  Elec       q    Type
                         _______ _______ _______ _____ _____    ______ ____

>  <TORSDO>
F 34

$$$$
=
 OpenBabel11062418213D

 66 70  0  0  1  0  0  0  0  0999 V2000
  192.3790  174.9890  141.7030 O   0  0  0  0  0  0  0  0  0  0  0  0
  193.7480  175.2190  141.8520 C   0  0  0  0  0  2  0  0  0  0  0  0
  194.5390  174.0910  141.2090 C   0  0  2  0  0  3  0  0  0  0  0  0
  197.6540  175.0010  140.4520 F   0  0  0  0  0  0  0  0  0  0  0  0
  195.8920  174.1600  141.6090 O   0  0  0  0  0  0  0  0  0  0  0  0
  195.6780  174.3750  139.3200 C   0  0  1  0  0  3  0  0  0  0  0  0
  194.3960  174.1310  139.8060 O   0  0  0  0  0  0  0  0  0  0  0  0
  196.6350  174.0680  140.4360 C   0  0  0  0  0  0  0  0  0  0  0  0
  197.1730  172.7940  140.3320 F   0  0  0  0  0  0  0  0  0  0  0  0
  195.4580  174.3010  136.7490 C   0  0  1  0  0  0  0  0  0  0  0  0
  194.6740  175.4520  136.8590 O   0  0  0  0  0  1  0  0  0  0  0  0
  196.7870  174.5200  137.1560 O   0  0  0  0  0  0  0  0  0  0  0  0
  196.0040  173.6770  137.9840 C   0  0  1  0  0  3  0  0  0  0  0  0
  195.3330  173.4360  135.5050 C   0  0  0  0  0  2  0  0  0  0  0  0
  194.7360  172.0690  135.8210 C   0  0  2  0  0  3  0  0  0  0  0  0
  193.3620  172.2020  136.0550 O   0  0  0  0  0  0  0  0  0  0  0  0
  193.0940  173.4890  135.9070 O   0  0  0  0  0  0  0  0  0  0  0  0
  191.7410  173.5580  135.5440 C   0  0  2  0  0  3  0  0  0  0  0  0
  191.5700  174.6590  134.5140 C   0  0  0  0  0  2  0  0  0  0  0  0
  191.1530  174.9000  135.9500 C   0  0  1  0  0  3  0  0  0  0  0  0
  189.1340  173.7060  135.7730 O   0  0  0  0  0  0  0  0  0  0  0  0
  189.6730  174.7620  136.0590 C   0  0  0  0  0  3  0  0  0  0  0  0
  195.3750  171.5110  137.0810 C   0  0  0  0  0  2  0  0  0  0  0  0
  194.4100  170.7250  137.8400 N   0  0  0  0  0  2  0  0  0  0  0  0
  194.4160  169.3410  137.3620 C   0  0  1  0  0  3  0  0  0  0  0  0
  195.6080  168.7060  137.7200 O   0  0  0  0  0  1  0  0  0  0  0  0
  192.9760  169.1510  139.2190 C   0  0  1  0  0  3  0  0  0  0  0  0
  192.1680  169.5640  138.0570 C   0  0  1  0  0  3  0  0  0  0  0  0
  192.3570  168.1690  139.9980 O   0  0  0  0  0  1  0  0  0  0  0  0
  193.2700  168.6030  137.8840 N   0  0  0  0  0  0  0  0  0  0  0  0
  190.8390  168.8340  137.9060 C   0  0  0  0  0  2  0  0  0  0  0  0
  189.8890  169.6930  137.3550 O   0  0  0  0  0  0  0  0  0  0  0  0
  189.9650  170.8480  138.1350 C   0  0  0  0  0  1  0  0  0  0  0  0
  191.8220  175.3030  142.9440 C   0  0  0  0  0  2  0  0  0  0  0  0
  192.9100  175.6510  143.9590 C   0  0  2  0  0  3  0  0  0  0  0  0
  192.7230  174.9620  145.3190 C   0  0  2  0  0  3  0  0  0  0  0  0
  192.5990  175.9220  146.3310 O   0  0  0  0  0  0  0  0  0  0  0  0
  191.3400  174.9250  148.4160 O   0  0  0  0  0  1  0  0  0  0  0  0
  191.1090  175.6140  147.0880 P   0  0  1  0  0  0  0  0  0  0  0  0
  190.2570  177.1880  147.3790 C   0  0  0  0  0  1  0  0  0  0  0  0
  190.1400  174.6360  146.1040 O   0  0  0  0  0  0  0  0  0  0  0  0
  193.8510  173.9930  145.6510 C   0  0  0  0  0  2  0  0  0  0  0  0
  194.3520  171.7240  144.8860 C   0  0  0  0  0  3  0  0  0  0  0  0
  193.4470  172.6080  145.2950 C   0  0  0  0  0  3  0  0  0  0  0  0
  194.1360  169.3270  145.3570 C   0  0  0  0  0  2  0  0  0  0  0  0
  193.9980  170.3450  144.5120 C   0  0  0  0  0  0  0  0  0  0  0  0
  193.2710  170.0450  142.9110 S   0  0  0  0  0  0  0  0  0  0  0  0
  191.8990  171.2040  143.2110 C   0  0  0  0  0  2  0  0  0  0  0  0
  190.4550  169.8720  141.8630 O   0  0  0  0  0  0  0  0  0  0  0  0
  190.8490  171.0280  142.1710 C   0  0  0  0  0  0  0  0  0  0  0  0
  190.2610  172.1670  141.5530 N   0  0  0  0  0  1  0  0  0  0  0  0
  193.1350  177.4580  144.1110 S   0  0  0  0  0  0  0  0  0  0  0  0
  191.6240  177.8360  143.1760 C   0  0  0  0  0  2  0  0  0  0  0  0
  190.5650  178.3620  144.1190 C   0  0  0  0  0  2  0  0  0  0  0  0
  189.2480  177.6650  143.8390 C   0  0  0  0  0  2  0  0  0  0  0  0
  188.9600  177.7040  142.4110 N   0  0  0  0  0  2  0  0  0  0  0  0
  187.4670  176.1850  140.7950 S   0  0  0  0  0  0  0  0  0  0  0  0
  187.6720  177.4290  141.8520 C   0  0  0  0  0  0  0  0  0  0  0  0
  186.5800  178.2980  142.1820 N   0  0  0  0  0  2  0  0  0  0  0  0
  185.6550  178.0610  143.2830 C   0  0  2  0  0  3  0  0  0  0  0  0
  184.2730  178.3200  146.0290 C   0  0  0  0  0  1  0  0  0  0  0  0
  185.9970  178.9570  144.4500 C   0  0  2  0  0  3  0  0  0  0  0  0
  185.6920  178.2250  145.6850 N   0  0  0  0  0  0  0  0  0  0  0  0
  185.9320  176.8260  145.3480 C   0  0  0  0  0  2  0  0  0  0  0  0
  185.8400  176.6660  143.8350 C   0  0  0  0  0  2  0  0  0  0  0  0
  185.3390  180.3310  144.3510 C   0  0  0  0  0  1  0  0  0  0  0  0
  1  2  1  0  0  0  0
  1 34  1  0  0  0  0
  3  5  1  0  0  0  0
  3  2  1  1  0  0  0
  6  7  1  1  0  0  0
  6  8  1  0  0  0  0
  7  3  1  0  0  0  0
  8  4  1  0  0  0  0
  8  5  1  0  0  0  0
  9  8  1  0  0  0  0
 10 11  1  1  0  0  0
 10 12  1  0  0  0  0
 10 13  1  0  0  0  0
 13 12  1  6  0  0  0
 13  6  1  0  0  0  0
 14 10  1  0  0  0  0
 15 14  1  1  0  0  0
 15 16  1  0  0  0  0
 15 23  1  0  0  0  0
 17 16  1  0  0  0  0
 18 17  1  1  0  0  0
 18 20  1  0  0  0  0
 19 18  1  0  0  0  0
 19 20  1  0  0  0  0
 20 22  1  6  0  0  0
 21 22  2  0  0  0  0
 23 24  1  0  0  0  0
 25 26  1  1  0  0  0
 25 24  1  0  0  0  0
 25 30  1  0  0  0  0
 27 29  1  1  0  0  0
 28 31  1  1  0  0  0
 28 27  1  0  0  0  0
 30 28  1  0  0  0  0
 30 27  1  0  0  0  0
 32 31  1  0  0  0  0
 32 33  1  0  0  0  0
 35 34  1  6  0  0  0
 35 52  1  0  0  0  0
 35 36  1  0  0  0  0
 36 42  1  1  0  0  0
 36 37  1  0  0  0  0
 37 39  1  0  0  0  0
 39 40  1  1  0  0  0
 39 38  1  0  0  0  0
 41 39  2  0  0  0  0
 43 44  2  0  0  0  0
 44 42  1  0  0  0  0
 46 43  1  0  0  0  0
 46 45  2  0  0  0  0
 47 48  1  0  0  0  0
 47 46  1  0  0  0  0
 49 50  2  0  0  0  0
 50 48  1  0  0  0  0
 51 50  1  0  0  0  0
 53 52  1  0  0  0  0
 53 54  1  0  0  0  0
 55 54  1  0  0  0  0
 56 55  1  0  0  0  0
 57 58  2  0  0  0  0
 58 59  1  0  0  0  0
 58 56  1  0  0  0  0
 60 59  1  6  0  0  0
 60 65  1  0  0  0  0
 60 62  1  0  0  0  0
 62 66  1  6  0  0  0
 62 63  1  0  0  0  0
 63 61  1  0  0  0  0
 64 63  1  0  0  0  0
 65 64  1  0  0  0  0
M  END
>  <MODEL>
7

>  <REMARK>
 VINA RESULT:      -3.6      3.038      7.151
  Name = 
  34 active torsions:
  status: ('A' for Active; 'I' for Inactive)
    1  A    between atoms: O_2  and  C_47
    2  A    between atoms: C_4  and  C_40
    3  A    between atoms: O_6  and  C_20
    4  A    between atoms: O_6  and  C_38
    5  A    between atoms: N_7  and  C_12
    6  A    between atoms: N_7  and  C_36
    7  A    between atoms: C_8  and  N_21
    8  A    between atoms: C_9  and  O_17
    9  A    between atoms: C_10  and  C_33
   10  A    between atoms: C_10  and  C_60
   11  A    between atoms: C_12  and  N_48
   12  A    between atoms: C_16  and  C_24
   13  A    between atoms: O_17  and  O_57
   14  A    between atoms: C_18  and  C_47
   15  A    between atoms: C_19  and  C_45
   16  A    between atoms: C_20  and  C_34
   17  A    between atoms: N_21  and  C_25
   18  A    between atoms: C_22  and  C_38
   19  A    between atoms: C_23  and  C_36
   20  A    between atoms: C_23  and  C_40
   21  A    between atoms: C_23  and  O_57
   22  A    between atoms: C_24  and  S_66
   23  A    between atoms: C_25  and  N_53
   24  A    between atoms: C_34  and  C_60
   25  A    between atoms: C_34  and  S_62
   26  A    between atoms: C_35  and  C_49
   27  A    between atoms: P_37  and  O_39
   28  A    between atoms: O_39  and  C_60
   29  A    between atoms: C_45  and  S_66
   30  A    between atoms: C_51  and  C_56
   31  A    between atoms: C_51  and  S_62
   32  A    between atoms: N_53  and  C_58
   33  A    between atoms: C_54  and  C_61
   34  A    between atoms: C_56  and  C_58
                            x       y       z     vdW  Elec       q    Type
                         _______ _______ _______ _____ _____    ______ ____

>  <TORSDO>
F 34

$$$$
=
 OpenBabel11062418213D

 66 70  0  0  1  0  0  0  0  0999 V2000
  192.5760  169.1610  142.6530 O   0  0  0  0  0  0  0  0  0  0  0  0
  192.5870  169.9410  143.8110 C   0  0  0  0  0  2  0  0  0  0  0  0
  192.6470  171.4160  143.4450 C   0  0  2  0  0  3  0  0  0  0  0  0
  193.3650  173.3430  146.0660 F   0  0  0  0  0  0  0  0  0  0  0  0
  193.6400  172.0640  144.2110 O   0  0  0  0  0  0  0  0  0  0  0  0
  191.5510  172.9660  144.6010 C   0  0  1  0  0  3  0  0  0  0  0  0
  191.3780  172.0120  143.6020 O   0  0  0  0  0  0  0  0  0  0  0  0
  193.0280  173.2010  144.7340 C   0  0  0  0  0  0  0  0  0  0  0  0
  193.4500  174.3150  144.0250 F   0  0  0  0  0  0  0  0  0  0  0  0
  189.8670  174.6650  145.5720 C   0  0  1  0  0  0  0  0  0  0  0  0
  189.8590  173.8820  146.7280 O   0  0  0  0  0  1  0  0  0  0  0  0
  191.1230  175.2510  145.3320 O   0  0  0  0  0  0  0  0  0  0  0  0
  190.7110  174.2470  144.4210 C   0  0  1  0  0  3  0  0  0  0  0  0
  188.6960  175.5960  145.3000 C   0  0  0  0  0  2  0  0  0  0  0  0
  189.1360  177.0550  145.2210 C   0  0  2  0  0  3  0  0  0  0  0  0
  188.0490  177.8860  145.5170 O   0  0  0  0  0  0  0  0  0  0  0  0
  187.2660  177.1840  146.3190 O   0  0  0  0  0  0  0  0  0  0  0  0
  185.9520  177.5000  145.9430 C   0  0  2  0  0  3  0  0  0  0  0  0
  185.7960  179.0100  145.9410 C   0  0  0  0  0  2  0  0  0  0  0  0
  185.2280  178.1960  147.0860 C   0  0  1  0  0  3  0  0  0  0  0  0
  183.2350  178.4160  145.8550 O   0  0  0  0  0  0  0  0  0  0  0  0
  183.7590  178.0370  146.8900 C   0  0  0  0  0  3  0  0  0  0  0  0
  189.6000  177.3730  143.8100 C   0  0  0  0  0  2  0  0  0  0  0  0
  188.5440  178.0450  143.0630 N   0  0  0  0  0  2  0  0  0  0  0  0
  188.6370  177.6840  141.6470 C   0  0  1  0  0  3  0  0  0  0  0  0
  188.7520  176.2990  141.5030 O   0  0  0  0  0  1  0  0  0  0  0  0
  186.9410  177.0400  140.1420 C   0  0  1  0  0  3  0  0  0  0  0  0
  186.2980  177.4540  141.4010 C   0  0  1  0  0  3  0  0  0  0  0  0
  186.2790  177.5160  139.0050 O   0  0  0  0  0  1  0  0  0  0  0  0
  187.4800  178.1760  140.9050 N   0  0  0  0  0  0  0  0  0  0  0  0
  185.0660  178.3350  141.2360 C   0  0  0  0  0  2  0  0  0  0  0  0
  183.9120  177.5580  141.3290 O   0  0  0  0  0  0  0  0  0  0  0  0
  183.1850  178.1320  142.3720 C   0  0  0  0  0  1  0  0  0  0  0  0
  193.3940  169.8420  141.7500 C   0  0  0  0  0  2  0  0  0  0  0  0
  194.6980  169.0820  141.5140 C   0  0  2  0  0  3  0  0  0  0  0  0
  195.9550  169.9390  141.7270 C   0  0  2  0  0  3  0  0  0  0  0  0
  195.9330  170.5150  143.0040 O   0  0  0  0  0  0  0  0  0  0  0  0
  197.8610  168.7490  143.3070 O   0  0  0  0  0  0  0  0  0  0  0  0
  196.7050  169.4030  144.0320 P   0  0  1  0  0  0  0  0  0  0  0  0
  197.3390  170.2840  145.4840 C   0  0  0  0  0  1  0  0  0  0  0  0
  195.6110  168.2150  144.5410 O   0  0  0  0  0  1  0  0  0  0  0  0
  196.1200  171.0220  140.6670 C   0  0  0  0  0  2  0  0  0  0  0  0
  196.6080  173.4100  140.8670 C   0  0  0  0  0  3  0  0  0  0  0  0
  196.8910  172.1620  141.2260 C   0  0  0  0  0  3  0  0  0  0  0  0
  197.8450  175.5080  140.5800 C   0  0  0  0  0  2  0  0  0  0  0  0
  197.3510  174.5700  141.3840 C   0  0  0  0  0  0  0  0  0  0  0  0
  197.5090  174.7780  143.1490 S   0  0  0  0  0  0  0  0  0  0  0  0
  195.8770  175.5710  143.2980 C   0  0  0  0  0  2  0  0  0  0  0  0
  196.6060  177.7890  143.7730 O   0  0  0  0  0  0  0  0  0  0  0  0
  195.9740  176.7740  144.1690 C   0  0  0  0  0  0  0  0  0  0  0  0
  195.3190  176.7930  145.4330 N   0  0  0  0  0  1  0  0  0  0  0  0
  194.6970  168.2270  139.8990 S   0  0  0  0  0  0  0  0  0  0  0  0
  193.2350  169.1250  139.3010 C   0  0  0  0  0  2  0  0  0  0  0  0
  193.3030  169.2560  137.7960 C   0  0  0  0  0  2  0  0  0  0  0  0
  192.4960  170.4610  137.3570 C   0  0  0  0  0  2  0  0  0  0  0  0
  193.3240  171.6590  137.4060 N   0  0  0  0  0  2  0  0  0  0  0  0
  194.0920  174.1210  136.7030 S   0  0  0  0  0  0  0  0  0  0  0  0
  193.0790  172.8280  136.6180 C   0  0  0  0  0  0  0  0  0  0  0  0
  191.8990  172.8720  135.8040 N   0  0  0  0  0  2  0  0  0  0  0  0
  190.5830  173.2580  136.2960 C   0  0  2  0  0  3  0  0  0  0  0  0
  188.2440  173.7920  138.2360 C   0  0  0  0  0  1  0  0  0  0  0  0
  190.5000  173.0270  137.7870 C   0  0  2  0  0  3  0  0  0  0  0  0
  189.1230  172.6290  138.1060 N   0  0  0  0  0  0  0  0  0  0  0  0
  188.6680  171.9110  136.9200 C   0  0  0  0  0  2  0  0  0  0  0  0
  189.5220  172.3410  135.7320 C   0  0  0  0  0  2  0  0  0  0  0  0
  191.0180  174.2150  138.5960 C   0  0  0  0  0  1  0  0  0  0  0  0
  1  2  1  0  0  0  0
  3  7  1  0  0  0  0
  3  2  1  1  0  0  0
  3  5  1  0  0  0  0
  5  8  1  0  0  0  0
  6  7  1  6  0  0  0
  6  8  1  0  0  0  0
  8  4  1  0  0  0  0
  9  8  1  0  0  0  0
 10 11  1  1  0  0  0
 12 10  1  0  0  0  0
 13  6  1  0  0  0  0
 13 12  1  1  0  0  0
 13 10  1  0  0  0  0
 14 10  1  0  0  0  0
 15 23  1  6  0  0  0
 15 14  1  0  0  0  0
 15 16  1  0  0  0  0
 16 17  1  0  0  0  0
 18 17  1  1  0  0  0
 18 20  1  0  0  0  0
 19 18  1  0  0  0  0
 19 20  1  0  0  0  0
 20 22  1  6  0  0  0
 21 22  2  0  0  0  0
 24 23  1  0  0  0  0
 25 26  1  1  0  0  0
 25 24  1  0  0  0  0
 27 29  1  6  0  0  0
 27 30  1  0  0  0  0
 27 28  1  0  0  0  0
 28 31  1  6  0  0  0
 30 28  1  0  0  0  0
 30 25  1  0  0  0  0
 31 32  1  0  0  0  0
 32 33  1  0  0  0  0
 34  1  1  0  0  0  0
 35 36  1  0  0  0  0
 35 34  1  6  0  0  0
 36 42  1  6  0  0  0
 36 37  1  0  0  0  0
 37 39  1  0  0  0  0
 38 39  2  0  0  0  0
 39 41  1  0  0  0  0
 39 40  1  1  0  0  0
 42 44  1  0  0  0  0
 43 44  2  0  0  0  0
 43 46  1  0  0  0  0
 45 46  2  0  0  0  0
 46 47  1  0  0  0  0
 47 48  1  0  0  0  0
 48 50  1  0  0  0  0
 49 50  2  0  0  0  0
 50 51  1  0  0  0  0
 52 35  1  0  0  0  0
 53 52  1  0  0  0  0
 54 53  1  0  0  0  0
 55 56  1  0  0  0  0
 55 54  1  0  0  0  0
 58 57  2  0  0  0  0
 58 56  1  0  0  0  0
 59 58  1  0  0  0  0
 60 59  1  6  0  0  0
 60 62  1  0  0  0  0
 62 63  1  0  0  0  0
 62 66  1  1  0  0  0
 63 61  1  0  0  0  0
 64 63  1  0  0  0  0
 65 60  1  0  0  0  0
 65 64  1  0  0  0  0
M  END
>  <MODEL>
8

>  <REMARK>
 VINA RESULT:      -3.4      4.006     10.443
  Name = 
  34 active torsions:
  status: ('A' for Active; 'I' for Inactive)
    1  A    between atoms: O_2  and  C_47
    2  A    between atoms: C_4  and  C_40
    3  A    between atoms: O_6  and  C_20
    4  A    between atoms: O_6  and  C_38
    5  A    between atoms: N_7  and  C_12
    6  A    between atoms: N_7  and  C_36
    7  A    between atoms: C_8  and  N_21
    8  A    between atoms: C_9  and  O_17
    9  A    between atoms: C_10  and  C_33
   10  A    between atoms: C_10  and  C_60
   11  A    between atoms: C_12  and  N_48
   12  A    between atoms: C_16  and  C_24
   13  A    between atoms: O_17  and  O_57
   14  A    between atoms: C_18  and  C_47
   15  A    between atoms: C_19  and  C_45
   16  A    between atoms: C_20  and  C_34
   17  A    between atoms: N_21  and  C_25
   18  A    between atoms: C_22  and  C_38
   19  A    between atoms: C_23  and  C_36
   20  A    between atoms: C_23  and  C_40
   21  A    between atoms: C_23  and  O_57
   22  A    between atoms: C_24  and  S_66
   23  A    between atoms: C_25  and  N_53
   24  A    between atoms: C_34  and  C_60
   25  A    between atoms: C_34  and  S_62
   26  A    between atoms: C_35  and  C_49
   27  A    between atoms: P_37  and  O_39
   28  A    between atoms: O_39  and  C_60
   29  A    between atoms: C_45  and  S_66
   30  A    between atoms: C_51  and  C_56
   31  A    between atoms: C_51  and  S_62
   32  A    between atoms: N_53  and  C_58
   33  A    between atoms: C_54  and  C_61
   34  A    between atoms: C_56  and  C_58
                            x       y       z     vdW  Elec       q    Type
                         _______ _______ _______ _____ _____    ______ ____

>  <TORSDO>
F 34

$$$$
=
 OpenBabel11062418213D

 66 70  0  0  1  0  0  0  0  0999 V2000
  185.9760  177.7670  142.1240 O   0  0  0  0  0  0  0  0  0  0  0  0
  186.1110  176.3960  141.8940 C   0  0  0  0  0  2  0  0  0  0  0  0
  187.5490  176.0690  141.5240 C   0  0  2  0  0  3  0  0  0  0  0  0
  187.7710  173.3890  139.5570 F   0  0  0  0  0  0  0  0  0  0  0  0
  187.6050  175.5560  140.2100 O   0  0  0  0  0  0  0  0  0  0  0  0
  188.3890  174.0230  141.7470 C   0  0  1  0  0  3  0  0  0  0  0  0
  188.1070  175.1800  142.4670 O   0  0  0  0  0  0  0  0  0  0  0  0
  188.3680  174.3950  140.2920 C   0  0  0  0  0  0  0  0  0  0  0  0
  189.6380  174.6440  139.7940 F   0  0  0  0  0  0  0  0  0  0  0  0
  190.8020  174.1090  142.6590 C   0  0  1  0  0  0  0  0  0  0  0  0
  190.6800  175.5000  142.6380 O   0  0  0  0  0  1  0  0  0  0  0  0
  189.9180  173.5100  143.5730 O   0  0  0  0  0  0  0  0  0  0  0  0
  189.6600  173.2750  142.2000 C   0  0  1  0  0  3  0  0  0  0  0  0
  192.1900  173.4880  142.6530 C   0  0  0  0  0  2  0  0  0  0  0  0
  193.2630  174.4980  142.2570 C   0  0  2  0  0  3  0  0  0  0  0  0
  193.7820  174.1600  141.0020 O   0  0  0  0  0  0  0  0  0  0  0  0
  192.7850  173.5970  140.3390 O   0  0  0  0  0  0  0  0  0  0  0  0
  193.2170  173.4980  139.0090 C   0  0  2  0  0  3  0  0  0  0  0  0
  192.8870  172.1100  138.4920 C   0  0  0  0  0  2  0  0  0  0  0  0
  194.3100  172.4480  138.8850 C   0  0  1  0  0  3  0  0  0  0  0  0
  194.6620  172.4200  136.5590 O   0  0  0  0  0  0  0  0  0  0  0  0
  195.1040  172.7250  137.6540 C   0  0  0  0  0  3  0  0  0  0  0  0
  194.4000  174.4560  143.2630 C   0  0  0  0  0  2  0  0  0  0  0  0
  194.9230  173.1000  143.3880 N   0  0  0  0  0  2  0  0  0  0  0  0
  195.4390  172.8950  144.7430 C   0  0  1  0  0  3  0  0  0  0  0  0
  194.5360  173.3870  145.6890 O   0  0  0  0  0  1  0  0  0  0  0  0
  194.5790  170.9520  145.7630 C   0  0  1  0  0  3  0  0  0  0  0  0
  194.6620  170.7050  144.3120 C   0  0  1  0  0  3  0  0  0  0  0  0
  195.0090  169.8640  146.5300 O   0  0  0  0  0  1  0  0  0  0  0  0
  195.7130  171.4830  144.9890 N   0  0  0  0  0  0  0  0  0  0  0  0
  195.2200  169.3430  143.9220 C   0  0  0  0  0  2  0  0  0  0  0  0
  194.1720  168.4640  143.6480 O   0  0  0  0  0  0  0  0  0  0  0  0
  193.4550  169.0810  142.6220 C   0  0  0  0  0  1  0  0  0  0  0  0
  185.0150  178.1950  141.2060 C   0  0  0  0  0  2  0  0  0  0  0  0
  183.6040  177.9890  141.7570 C   0  0  2  0  0  3  0  0  0  0  0  0
  182.5200  177.9560  140.6690 C   0  0  2  0  0  3  0  0  0  0  0  0
  181.3200  177.4690  141.2010 O   0  0  0  0  0  0  0  0  0  0  0  0
  179.1310  178.3400  140.0290 O   0  0  0  0  0  0  0  0  0  0  0  0
  180.1900  178.7280  141.0370 P   0  0  1  0  0  0  0  0  0  0  0  0
  179.3990  179.0260  142.6410 C   0  0  0  0  0  1  0  0  0  0  0  0
  180.9610  180.1480  140.5300 O   0  0  0  0  0  1  0  0  0  0  0  0
  182.9270  177.1320  139.4530 C   0  0  0  0  0  2  0  0  0  0  0  0
  181.8180  175.9580  137.6160 C   0  0  0  0  0  3  0  0  0  0  0  0
  181.7230  176.7780  138.6580 C   0  0  0  0  0  3  0  0  0  0  0  0
  180.4260  176.1460  135.6060 C   0  0  0  0  0  2  0  0  0  0  0  0
  180.6570  175.5880  136.7920 C   0  0  0  0  0  0  0  0  0  0  0  0
  179.5810  174.2800  137.3530 S   0  0  0  0  0  0  0  0  0  0  0  0
  180.9670  173.1400  137.6580 C   0  0  0  0  0  2  0  0  0  0  0  0
  180.9210  172.2650  135.4420 O   0  0  0  0  0  0  0  0  0  0  0  0
  180.9290  172.0200  136.6780 C   0  0  0  0  0  0  0  0  0  0  0  0
  180.9410  170.6730  137.1350 N   0  0  0  0  0  1  0  0  0  0  0  0
  183.2230  179.1760  143.0930 S   0  0  0  0  0  0  0  0  0  0  0  0
  184.7890  178.8690  143.9620 C   0  0  0  0  0  2  0  0  0  0  0  0
  184.5080  178.5520  145.4140 C   0  0  0  0  0  2  0  0  0  0  0  0
  185.4240  179.3740  146.2970 C   0  0  0  0  0  2  0  0  0  0  0  0
  186.7090  178.7020  146.4420 N   0  0  0  0  0  2  0  0  0  0  0  0
  185.8950  176.6800  147.9900 S   0  0  0  0  0  0  0  0  0  0  0  0
  186.8500  177.3290  146.8180 C   0  0  0  0  0  0  0  0  0  0  0  0
  187.8810  176.5490  146.1970 N   0  0  0  0  0  2  0  0  0  0  0  0
  189.2530  176.4780  146.6830 C   0  0  2  0  0  3  0  0  0  0  0  0
  192.3370  176.4100  146.6900 C   0  0  0  0  0  1  0  0  0  0  0  0
  190.2170  176.5090  145.5210 C   0  0  2  0  0  3  0  0  0  0  0  0
  191.3730  175.6750  145.8710 N   0  0  0  0  0  0  0  0  0  0  0  0
  190.8220  174.6340  146.7320 C   0  0  0  0  0  2  0  0  0  0  0  0
  189.5130  175.1360  147.3290 C   0  0  0  0  0  2  0  0  0  0  0  0
  190.5710  177.9300  145.0870 C   0  0  0  0  0  1  0  0  0  0  0  0
  2  1  1  0  0  0  0
  3  2  1  1  0  0  0
  3  7  1  0  0  0  0
  4  8  1  0  0  0  0
  5  8  1  0  0  0  0
  5  3  1  0  0  0  0
  6 13  1  0  0  0  0
  6  7  1  1  0  0  0
  8  6  1  0  0  0  0
  9  8  1  0  0  0  0
 10 11  1  6  0  0  0
 10 12  1  0  0  0  0
 13 10  1  0  0  0  0
 13 12  1  1  0  0  0
 14 10  1  0  0  0  0
 15 14  1  1  0  0  0
 15 23  1  0  0  0  0
 16 15  1  0  0  0  0
 17 16  1  0  0  0  0
 18 17  1  1  0  0  0
 19 20  1  0  0  0  0
 19 18  1  0  0  0  0
 20 22  1  6  0  0  0
 20 18  1  0  0  0  0
 21 22  2  0  0  0  0
 23 24  1  0  0  0  0
 24 25  1  0  0  0  0
 25 30  1  0  0  0  0
 25 26  1  1  0  0  0
 27 29  1  1  0  0  0
 28 31  1  1  0  0  0
 28 30  1  0  0  0  0
 28 27  1  0  0  0  0
 30 27  1  0  0  0  0
 32 31  1  0  0  0  0
 33 32  1  0  0  0  0
 34  1  1  0  0  0  0
 35 34  1  6  0  0  0
 35 52  1  0  0  0  0
 36 42  1  6  0  0  0
 36 37  1  0  0  0  0
 36 35  1  0  0  0  0
 38 39  2  0  0  0  0
 39 37  1  0  0  0  0
 39 40  1  1  0  0  0
 41 39  1  0  0  0  0
 43 44  2  0  0  0  0
 44 42  1  0  0  0  0
 45 46  2  0  0  0  0
 46 47  1  0  0  0  0
 46 43  1  0  0  0  0
 47 48  1  0  0  0  0
 49 50  2  0  0  0  0
 50 51  1  0  0  0  0
 50 48  1  0  0  0  0
 52 53  1  0  0  0  0
 53 54  1  0  0  0  0
 54 55  1  0  0  0  0
 55 56  1  0  0  0  0
 56 58  1  0  0  0  0
 58 57  2  0  0  0  0
 59 58  1  0  0  0  0
 60 59  1  6  0  0  0
 60 65  1  0  0  0  0
 62 66  1  1  0  0  0
 62 63  1  0  0  0  0
 62 60  1  0  0  0  0
 63 61  1  0  0  0  0
 63 64  1  0  0  0  0
 64 65  1  0  0  0  0
M  END
>  <MODEL>
9

>  <REMARK>
 VINA RESULT:      -3.1      4.474      8.264
  Name = 
  34 active torsions:
  status: ('A' for Active; 'I' for Inactive)
    1  A    between atoms: O_2  and  C_47
    2  A    between atoms: C_4  and  C_40
    3  A    between atoms: O_6  and  C_20
    4  A    between atoms: O_6  and  C_38
    5  A    between atoms: N_7  and  C_12
    6  A    between atoms: N_7  and  C_36
    7  A    between atoms: C_8  and  N_21
    8  A    between atoms: C_9  and  O_17
    9  A    between atoms: C_10  and  C_33
   10  A    between atoms: C_10  and  C_60
   11  A    between atoms: C_12  and  N_48
   12  A    between atoms: C_16  and  C_24
   13  A    between atoms: O_17  and  O_57
   14  A    between atoms: C_18  and  C_47
   15  A    between atoms: C_19  and  C_45
   16  A    between atoms: C_20  and  C_34
   17  A    between atoms: N_21  and  C_25
   18  A    between atoms: C_22  and  C_38
   19  A    between atoms: C_23  and  C_36
   20  A    between atoms: C_23  and  C_40
   21  A    between atoms: C_23  and  O_57
   22  A    between atoms: C_24  and  S_66
   23  A    between atoms: C_25  and  N_53
   24  A    between atoms: C_34  and  C_60
   25  A    between atoms: C_34  and  S_62
   26  A    between atoms: C_35  and  C_49
   27  A    between atoms: P_37  and  O_39
   28  A    between atoms: O_39  and  C_60
   29  A    between atoms: C_45  and  S_66
   30  A    between atoms: C_51  and  C_56
   31  A    between atoms: C_51  and  S_62
   32  A    between atoms: N_53  and  C_58
   33  A    between atoms: C_54  and  C_61
   34  A    between atoms: C_56  and  C_58
                            x       y       z     vdW  Elec       q    Type
                         _______ _______ _______ _____ _____    ______ ____

>  <TORSDO>
F 34

$$$$
