=
 OpenBabel11062422153D

 44 50  0  0  1  0  0  0  0  0999 V2000
  187.8930  175.0620  143.3660 N   0  0  0  0  0  2  0  0  0  0  0  0
  186.0210  179.2550  145.2190 C   0  0  0  0  0  3  0  0  0  0  0  0
  186.5440  178.4560  144.0990 C   0  0  0  0  0  3  0  0  0  0  0  0
  191.9210  175.3410  145.5720 C   0  0  0  0  0  0  0  0  0  0  0  0
  191.3920  176.8790  147.8260 N   0  0  0  0  0  0  0  0  0  0  0  0
  187.4810  176.4390  143.0530 C   0  0  1  0  0  3  0  0  0  0  0  0
  186.0330  176.8080  147.7960 O   0  0  0  0  0  0  0  0  0  0  0  0
  190.6170  175.7210  145.9010 C   0  0  0  0  0  0  0  0  0  0  0  0
  186.3140  177.3470  146.6940 C   0  0  0  0  0  0  0  0  0  0  0  0
  188.4960  176.3160  146.0420 C   0  0  0  0  0  0  0  0  0  0  0  0
  185.9080  178.7360  146.4400 C   0  0  0  0  0  3  0  0  0  0  0  0
  192.9210  175.7510  146.4070 N   0  0  0  0  0  0  0  0  0  0  0  0
  190.3860  176.4830  147.0130 C   0  0  0  0  0  0  0  0  0  0  0  0
  192.6670  176.5020  147.5230 C   0  0  0  0  0  3  0  0  0  0  0  0
  187.0700  176.5710  145.6430 C   0  0  2  0  0  3  0  0  0  0  0  0
  189.1640  175.0510  143.9710 N   0  0  0  0  0  0  0  0  0  0  0  0
  189.4010  175.5970  145.2730 C   0  0  0  0  0  0  0  0  0  0  0  0
  187.0180  177.2130  144.2680 C   0  0  0  0  0  0  0  0  0  0  0  0
  189.1000  176.8670  147.1240 N   0  0  0  0  0  0  0  0  0  0  0  0
  192.4160  173.2720  144.4280 C   0  0  0  0  0  0  0  0  0  0  0  0
  192.5730  172.0480  144.4880 O   0  0  0  0  0  0  0  0  0  0  0  0
  192.2510  174.5660  144.3640 C   0  0  0  0  0  0  0  0  0  0  0  0
  192.3040  175.2320  143.0310 C   0  0  0  0  0  2  0  0  0  0  0  0
  193.4880  176.1920  142.9170 C   0  0  0  0  0  2  0  0  0  0  0  0
  194.8250  175.4920  142.6390 C   0  0  2  0  0  3  0  0  0  0  0  0
  195.9030  175.8190  143.6890 C   0  0  0  0  0  0  0  0  0  0  0  0
  196.4470  177.0760  143.5610 O   0  0  0  0  0  0  0  0  0  0  0  0
  195.5920  176.8310  144.5720 O   0  0  0  0  0  0  0  0  0  0  0  0
  196.8540  174.7430  144.2400 C   0  0  2  0  0  3  0  0  0  0  0  0
  197.8890  174.4790  143.3420 O   0  0  0  0  0  1  0  0  0  0  0  0
  195.9420  170.9530  144.8090 C   0  0  0  0  0  2  0  0  0  0  0  0
  196.1570  173.4560  144.6900 C   0  0  1  0  0  3  0  0  0  0  0  0
  196.2730  172.1180  143.4680 S   0  0  0  0  0  0  0  0  0  0  0  0
  196.7370  172.9600  146.0040 C   0  0  0  0  0  2  0  0  0  0  0  0
  196.7100  171.4400  146.0180 C   0  0  0  0  0  2  0  0  0  0  0  0
  195.2940  175.6910  141.1970 C   0  0  0  0  0  2  0  0  0  0  0  0
  194.9730  174.4800  140.3400 C   0  0  0  0  0  2  0  0  0  0  0  0
  196.1540  173.8340  139.9830 O   0  0  0  0  0  1  0  0  0  0  0  0
  188.4690  177.1990  142.1480 C   0  0  2  0  0  3  0  0  0  0  0  0
  189.2170  178.1090  142.8980 O   0  0  0  0  0  1  0  0  0  0  0  0
  187.7820  177.8940  141.0670 N   0  0  0  0  0  2  0  0  0  0  0  0
  185.5060  177.9940  140.2600 C   0  0  0  0  0  2  0  0  0  0  0  0
  186.6410  177.0860  140.6790 C   0  0  0  0  0  3  0  0  0  0  0  0
  186.3520  177.3110  139.2130 C   0  0  0  0  0  2  0  0  0  0  0  0
  1 16  1  0  0  0  0
  2 11  2  0  0  0  0
  3 18  2  0  0  0  0
  3  2  1  0  0  0  0
  4  8  2  0  0  0  0
  4 12  1  0  0  0  0
  6 39  1  1  0  0  0
  6  1  1  0  0  0  0
  6 18  1  0  0  0  0
  8 13  1  0  0  0  0
  9  7  2  0  0  0  0
 10 19  2  0  0  0  0
 11  9  1  0  0  0  0
 12 14  2  0  0  0  0
 13 19  1  0  0  0  0
 13  5  2  0  0  0  0
 14  5  1  0  0  0  0
 15 18  1  6  0  0  0
 15 10  1  0  0  0  0
 15  9  1  0  0  0  0
 16 17  2  0  0  0  0
 17  8  1  0  0  0  0
 17 10  1  0  0  0  0
 20 21  2  0  0  0  0
 22 20  2  0  0  0  0
 22  4  1  0  0  0  0
 23 22  1  0  0  0  0
 24 23  1  0  0  0  0
 25 36  1  6  0  0  0
 25 24  1  0  0  0  0
 25 26  1  0  0  0  0
 26 29  1  0  0  0  0
 26 28  1  0  0  0  0
 27 26  1  0  0  0  0
 27 28  1  0  0  0  0
 29 30  1  6  0  0  0
 31 35  1  0  0  0  0
 32 29  1  6  0  0  0
 32 34  1  0  0  0  0
 33 32  1  0  0  0  0
 33 31  1  0  0  0  0
 34 35  1  0  0  0  0
 37 36  1  0  0  0  0
 38 37  1  0  0  0  0
 39 40  1  1  0  0  0
 41 39  1  0  0  0  0
 42 43  1  0  0  0  0
 43 41  1  0  0  0  0
 44 42  1  0  0  0  0
 44 43  1  0  0  0  0
M  END
>  <MODEL>
1

>  <REMARK>
 VINA RESULT:      -7.4      0.000      0.000
  Name = 
  12 active torsions:
  status: ('A' for Active; 'I' for Inactive)
    1  A    between atoms: C_1  and  C_24
    2  A    between atoms: C_1  and  C_40
    3  A    between atoms: C_3  and  C_8
    4  A    between atoms: C_3  and  C_33
    5  A    between atoms: C_6  and  C_31
    6  A    between atoms: C_7  and  C_24
    7  A    between atoms: C_8  and  C_17
    8  A    between atoms: C_10  and  C_30
    9  A    between atoms: C_17  and  C_31
   10  A    between atoms: C_17  and  C_40
   11  A    between atoms: C_22  and  N_27
   12  A    between atoms: N_27  and  C_30
                            x       y       z     vdW  Elec       q    Type
                         _______ _______ _______ _____ _____    ______ ____

>  <TORSDO>
F 12

$$$$
=
 OpenBabel11062422153D

 44 50  0  0  1  0  0  0  0  0999 V2000
  189.2270  178.1080  143.8060 N   0  0  0  0  0  2  0  0  0  0  0  0
  184.7720  177.9790  141.6480 C   0  0  0  0  0  3  0  0  0  0  0  0
  185.6330  178.1520  142.8300 C   0  0  0  0  0  3  0  0  0  0  0  0
  190.1000  173.6150  143.3350 C   0  0  0  0  0  0  0  0  0  0  0  0
  188.5720  172.8200  141.1530 N   0  0  0  0  0  0  0  0  0  0  0  0
  187.7790  178.2420  144.0240 C   0  0  1  0  0  3  0  0  0  0  0  0
  187.2440  177.5990  139.1230 O   0  0  0  0  0  0  0  0  0  0  0  0
  189.4070  174.5470  142.5560 C   0  0  0  0  0  0  0  0  0  0  0  0
  186.7500  177.6370  140.2800 C   0  0  0  0  0  0  0  0  0  0  0  0
  188.2860  176.2190  141.6510 C   0  0  0  0  0  0  0  0  0  0  0  0
  185.2950  177.7400  140.4460 C   0  0  0  0  0  3  0  0  0  0  0  0
  189.9990  172.3020  142.9750 N   0  0  0  0  0  0  0  0  0  0  0  0
  188.6580  174.1270  141.4910 C   0  0  0  0  0  0  0  0  0  0  0  0
  189.2550  171.9030  141.8970 C   0  0  0  0  0  3  0  0  0  0  0  0
  187.6520  177.5720  141.4880 C   0  0  2  0  0  3  0  0  0  0  0  0
  189.5940  176.7520  143.7350 N   0  0  0  0  0  0  0  0  0  0  0  0
  189.1830  175.8980  142.6610 C   0  0  0  0  0  0  0  0  0  0  0  0
  186.9620  177.9850  142.7770 C   0  0  0  0  0  0  0  0  0  0  0  0
  187.9570  175.1250  140.9210 N   0  0  0  0  0  0  0  0  0  0  0  0
  190.2920  174.2100  145.6680 C   0  0  0  0  0  0  0  0  0  0  0  0
  189.7330  174.4210  146.7500 O   0  0  0  0  0  0  0  0  0  0  0  0
  190.8830  173.9880  144.5250 C   0  0  0  0  0  0  0  0  0  0  0  0
  192.3720  174.0220  144.4670 C   0  0  0  0  0  2  0  0  0  0  0  0
  192.8910  175.2990  143.8030 C   0  0  0  0  0  2  0  0  0  0  0  0
  194.1230  175.8960  144.4950 C   0  0  2  0  0  3  0  0  0  0  0  0
  195.4380  175.5720  143.7640 C   0  0  0  0  0  0  0  0  0  0  0  0
  195.3010  175.4140  142.4040 O   0  0  0  0  0  0  0  0  0  0  0  0
  195.8840  176.5300  142.8790 O   0  0  0  0  0  0  0  0  0  0  0  0
  196.5430  174.7230  144.4150 C   0  0  2  0  0  3  0  0  0  0  0  0
  197.7920  175.0160  143.8660 O   0  0  0  0  0  1  0  0  0  0  0  0
  196.9790  170.8120  144.2330 C   0  0  0  0  0  2  0  0  0  0  0  0
  196.2660  173.2170  144.4120 C   0  0  1  0  0  3  0  0  0  0  0  0
  197.3370  172.2980  143.2680 S   0  0  0  0  0  0  0  0  0  0  0  0
  196.4360  172.6350  145.8040 C   0  0  0  0  0  2  0  0  0  0  0  0
  196.9780  171.2190  145.6900 C   0  0  0  0  0  2  0  0  0  0  0  0
  194.1590  175.5770  145.9900 C   0  0  0  0  0  2  0  0  0  0  0  0
  193.7110  176.7650  146.8200 C   0  0  0  0  0  2  0  0  0  0  0  0
  192.3860  176.5890  147.2130 O   0  0  0  0  0  1  0  0  0  0  0  0
  187.2660  177.5220  145.2850 C   0  0  2  0  0  3  0  0  0  0  0  0
  186.5290  176.3880  144.9340 O   0  0  0  0  0  1  0  0  0  0  0  0
  186.4530  178.4020  146.1150 N   0  0  0  0  0  2  0  0  0  0  0  0
  184.4640  178.4600  147.4870 C   0  0  0  0  0  2  0  0  0  0  0  0
  185.2120  177.7090  146.4070 C   0  0  0  0  0  3  0  0  0  0  0  0
  184.0490  178.6050  146.0430 C   0  0  0  0  0  2  0  0  0  0  0  0
  1  6  1  0  0  0  0
  2  3  1  0  0  0  0
  4 22  1  0  0  0  0
  5 13  2  0  0  0  0
  5 14  1  0  0  0  0
  6 39  1  1  0  0  0
  7  9  2  0  0  0  0
  8 17  1  0  0  0  0
  8  4  2  0  0  0  0
  9 11  1  0  0  0  0
 10 17  1  0  0  0  0
 11  2  2  0  0  0  0
 12  4  1  0  0  0  0
 13  8  1  0  0  0  0
 14 12  2  0  0  0  0
 15  9  1  6  0  0  0
 15 10  1  0  0  0  0
 15 18  1  0  0  0  0
 16  1  1  0  0  0  0
 17 16  2  0  0  0  0
 18  3  2  0  0  0  0
 18  6  1  0  0  0  0
 19 13  1  0  0  0  0
 19 10  2  0  0  0  0
 20 21  2  0  0  0  0
 22 20  2  0  0  0  0
 23 22  1  0  0  0  0
 24 23  1  0  0  0  0
 25 24  1  6  0  0  0
 25 36  1  0  0  0  0
 26 29  1  0  0  0  0
 26 25  1  0  0  0  0
 27 28  1  0  0  0  0
 27 26  1  0  0  0  0
 28 26  1  0  0  0  0
 29 30  1  6  0  0  0
 31 35  1  0  0  0  0
 32 29  1  1  0  0  0
 32 34  1  0  0  0  0
 33 31  1  0  0  0  0
 33 32  1  0  0  0  0
 35 34  1  0  0  0  0
 36 37  1  0  0  0  0
 37 38  1  0  0  0  0
 39 40  1  6  0  0  0
 39 41  1  0  0  0  0
 41 43  1  0  0  0  0
 43 42  1  0  0  0  0
 44 43  1  0  0  0  0
 44 42  1  0  0  0  0
M  END
>  <MODEL>
2

>  <REMARK>
 VINA RESULT:      -7.4      2.150      4.539
  Name = 
  12 active torsions:
  status: ('A' for Active; 'I' for Inactive)
    1  A    between atoms: C_1  and  C_24
    2  A    between atoms: C_1  and  C_40
    3  A    between atoms: C_3  and  C_8
    4  A    between atoms: C_3  and  C_33
    5  A    between atoms: C_6  and  C_31
    6  A    between atoms: C_7  and  C_24
    7  A    between atoms: C_8  and  C_17
    8  A    between atoms: C_10  and  C_30
    9  A    between atoms: C_17  and  C_31
   10  A    between atoms: C_17  and  C_40
   11  A    between atoms: C_22  and  N_27
   12  A    between atoms: N_27  and  C_30
                            x       y       z     vdW  Elec       q    Type
                         _______ _______ _______ _____ _____    ______ ____

>  <TORSDO>
F 12

$$$$
=
 OpenBabel11062422153D

 44 50  0  0  1  0  0  0  0  0999 V2000
  193.4060  175.1010  146.4880 N   0  0  0  0  0  2  0  0  0  0  0  0
  197.4740  172.6780  145.0360 C   0  0  0  0  0  3  0  0  0  0  0  0
  196.7630  173.9200  145.3850 C   0  0  0  0  0  3  0  0  0  0  0  0
  191.0160  174.3410  142.6310 C   0  0  0  0  0  0  0  0  0  0  0  0
  192.1080  172.0180  141.5640 N   0  0  0  0  0  0  0  0  0  0  0  0
  194.8170  175.2420  146.0960 C   0  0  1  0  0  3  0  0  0  0  0  0
  194.9520  170.2830  145.7620 O   0  0  0  0  0  0  0  0  0  0  0  0
  191.9660  173.5960  143.3360 C   0  0  0  0  0  0  0  0  0  0  0  0
  195.4620  171.4090  145.5220 C   0  0  0  0  0  0  0  0  0  0  0  0
  193.5700  172.7560  144.5980 C   0  0  0  0  0  0  0  0  0  0  0  0
  196.8670  171.4950  145.1030 C   0  0  0  0  0  3  0  0  0  0  0  0
  190.6430  173.8770  141.4020 N   0  0  0  0  0  0  0  0  0  0  0  0
  192.4910  172.4600  142.7840 C   0  0  0  0  0  0  0  0  0  0  0  0
  191.1710  172.7300  140.8740 C   0  0  0  0  0  3  0  0  0  0  0  0
  194.6290  172.6590  145.6590 C   0  0  2  0  0  3  0  0  0  0  0  0
  192.5900  174.9480  145.3520 N   0  0  0  0  0  0  0  0  0  0  0  0
  192.6470  173.7900  144.5130 C   0  0  0  0  0  0  0  0  0  0  0  0
  195.4570  173.9320  145.6900 C   0  0  0  0  0  0  0  0  0  0  0  0
  193.4780  171.9270  143.5290 N   0  0  0  0  0  0  0  0  0  0  0  0
  191.0450  176.7390  142.9180 C   0  0  0  0  0  0  0  0  0  0  0  0
  191.6120  177.8170  142.7100 O   0  0  0  0  0  0  0  0  0  0  0  0
  190.4460  175.6000  143.1390 C   0  0  0  0  0  0  0  0  0  0  0  0
  189.1240  175.6060  143.8300 C   0  0  0  0  0  2  0  0  0  0  0  0
  188.8060  176.9680  144.4470 C   0  0  0  0  0  2  0  0  0  0  0  0
  187.9620  176.8840  145.7250 C   0  0  2  0  0  3  0  0  0  0  0  0
  186.5250  177.3990  145.5310 C   0  0  0  0  0  0  0  0  0  0  0  0
  185.5530  176.4570  145.7750 O   0  0  0  0  0  0  0  0  0  0  0  0
  185.7460  177.4460  146.6680 O   0  0  0  0  0  0  0  0  0  0  0  0
  186.1730  178.4430  144.4580 C   0  0  2  0  0  3  0  0  0  0  0  0
  185.5470  179.5540  145.0240 O   0  0  0  0  0  1  0  0  0  0  0  0
  183.7780  178.1240  141.3470 C   0  0  0  0  0  2  0  0  0  0  0  0
  185.3730  177.8870  143.2760 C   0  0  1  0  0  3  0  0  0  0  0  0
  183.7640  178.7010  143.0590 S   0  0  0  0  0  0  0  0  0  0  0  0
  186.1600  178.0230  141.9830 C   0  0  0  0  0  2  0  0  0  0  0  0
  185.1940  178.2820  140.8380 C   0  0  0  0  0  2  0  0  0  0  0  0
  188.6750  177.4990  146.9310 C   0  0  0  0  0  2  0  0  0  0  0  0
  190.0930  176.9750  147.0610 C   0  0  0  0  0  2  0  0  0  0  0  0
  190.0660  175.6570  147.5100 O   0  0  0  0  0  1  0  0  0  0  0  0
  195.0850  176.4120  145.1310 C   0  0  2  0  0  3  0  0  0  0  0  0
  194.6810  177.6200  145.7030 O   0  0  0  0  0  1  0  0  0  0  0  0
  194.4110  176.2200  143.8530 N   0  0  0  0  0  2  0  0  0  0  0  0
  195.2530  174.9140  142.0020 C   0  0  0  0  0  2  0  0  0  0  0  0
  195.4310  176.1730  142.8210 C   0  0  0  0  0  3  0  0  0  0  0  0
  194.7640  176.2370  141.4660 C   0  0  0  0  0  2  0  0  0  0  0  0
  2 11  2  0  0  0  0
  2  3  1  0  0  0  0
  3 18  2  0  0  0  0
  4 22  1  0  0  0  0
  4  8  2  0  0  0  0
  5 13  2  0  0  0  0
  6 39  1  6  0  0  0
  6  1  1  0  0  0  0
  8 17  1  0  0  0  0
  9 15  1  0  0  0  0
  9  7  2  0  0  0  0
 11  9  1  0  0  0  0
 12  4  1  0  0  0  0
 13  8  1  0  0  0  0
 13 19  1  0  0  0  0
 14 12  2  0  0  0  0
 14  5  1  0  0  0  0
 15 10  1  6  0  0  0
 15 18  1  0  0  0  0
 16  1  1  0  0  0  0
 17 10  1  0  0  0  0
 17 16  2  0  0  0  0
 18  6  1  0  0  0  0
 19 10  2  0  0  0  0
 20 22  2  0  0  0  0
 21 20  2  0  0  0  0
 22 23  1  0  0  0  0
 23 24  1  0  0  0  0
 25 24  1  6  0  0  0
 25 36  1  0  0  0  0
 26 25  1  0  0  0  0
 26 27  1  0  0  0  0
 26 28  1  0  0  0  0
 27 28  1  0  0  0  0
 29 30  1  1  0  0  0
 29 26  1  0  0  0  0
 31 33  1  0  0  0  0
 32 29  1  1  0  0  0
 33 32  1  0  0  0  0
 34 32  1  0  0  0  0
 35 31  1  0  0  0  0
 35 34  1  0  0  0  0
 36 37  1  0  0  0  0
 37 38  1  0  0  0  0
 39 40  1  1  0  0  0
 41 39  1  0  0  0  0
 42 43  1  0  0  0  0
 43 41  1  0  0  0  0
 44 42  1  0  0  0  0
 44 43  1  0  0  0  0
M  END
>  <MODEL>
3

>  <REMARK>
 VINA RESULT:      -7.2      3.154      9.151
  Name = 
  12 active torsions:
  status: ('A' for Active; 'I' for Inactive)
    1  A    between atoms: C_1  and  C_24
    2  A    between atoms: C_1  and  C_40
    3  A    between atoms: C_3  and  C_8
    4  A    between atoms: C_3  and  C_33
    5  A    between atoms: C_6  and  C_31
    6  A    between atoms: C_7  and  C_24
    7  A    between atoms: C_8  and  C_17
    8  A    between atoms: C_10  and  C_30
    9  A    between atoms: C_17  and  C_31
   10  A    between atoms: C_17  and  C_40
   11  A    between atoms: C_22  and  N_27
   12  A    between atoms: N_27  and  C_30
                            x       y       z     vdW  Elec       q    Type
                         _______ _______ _______ _____ _____    ______ ____

>  <TORSDO>
F 12

$$$$
=
 OpenBabel11062422153D

 44 50  0  0  1  0  0  0  0  0999 V2000
  194.0800  173.9790  145.7260 N   0  0  0  0  0  2  0  0  0  0  0  0
  197.1910  176.4540  142.7730 C   0  0  0  0  0  3  0  0  0  0  0  0
  196.3040  176.3800  143.9460 C   0  0  0  0  0  3  0  0  0  0  0  0
  190.6860  173.6360  142.6380 C   0  0  0  0  0  0  0  0  0  0  0  0
  191.9540  173.7910  140.1690 N   0  0  0  0  0  0  0  0  0  0  0  0
  194.7460  175.2690  145.4890 C   0  0  1  0  0  3  0  0  0  0  0  0
  197.0510  173.0810  141.6650 O   0  0  0  0  0  0  0  0  0  0  0  0
  192.0810  173.6410  142.5380 C   0  0  0  0  0  0  0  0  0  0  0  0
  196.7170  174.1210  142.2890 C   0  0  0  0  0  0  0  0  0  0  0  0
  194.2730  173.8220  142.7200 C   0  0  0  0  0  0  0  0  0  0  0  0
  197.3900  175.3930  141.9940 C   0  0  0  0  0  3  0  0  0  0  0  0
  189.9750  173.7040  141.4740 N   0  0  0  0  0  0  0  0  0  0  0  0
  192.6780  173.7240  141.3100 C   0  0  0  0  0  0  0  0  0  0  0  0
  190.5930  173.7730  140.2540 C   0  0  0  0  0  3  0  0  0  0  0  0
  195.6260  174.0610  143.3290 C   0  0  2  0  0  3  0  0  0  0  0  0
  192.9700  173.8310  144.8740 N   0  0  0  0  0  0  0  0  0  0  0  0
  193.1020  173.6920  143.4550 C   0  0  0  0  0  0  0  0  0  0  0  0
  195.5860  175.2830  144.2300 C   0  0  0  0  0  0  0  0  0  0  0  0
  194.0170  173.8420  141.3890 N   0  0  0  0  0  0  0  0  0  0  0  0
  189.6790  172.4630  144.4930 C   0  0  0  0  0  0  0  0  0  0  0  0
  189.3970  171.3850  145.0280 O   0  0  0  0  0  0  0  0  0  0  0  0
  189.9750  173.6010  143.9270 C   0  0  0  0  0  0  0  0  0  0  0  0
  189.6690  174.8670  144.6540 C   0  0  0  0  0  2  0  0  0  0  0  0
  188.5590  175.6670  143.9710 C   0  0  0  0  0  2  0  0  0  0  0  0
  188.5960  177.1670  144.2890 C   0  0  2  0  0  3  0  0  0  0  0  0
  187.2150  177.7350  144.6640 C   0  0  0  0  0  0  0  0  0  0  0  0
  186.4280  176.8660  145.3840 O   0  0  0  0  0  0  0  0  0  0  0  0
  186.9880  177.9170  146.0110 O   0  0  0  0  0  0  0  0  0  0  0  0
  186.4540  178.7000  143.7390 C   0  0  2  0  0  3  0  0  0  0  0  0
  185.8780  179.7430  144.4660 O   0  0  0  0  0  1  0  0  0  0  0  0
  183.3670  178.0200  141.3880 C   0  0  0  0  0  2  0  0  0  0  0  0
  185.4320  178.0200  142.8230 C   0  0  1  0  0  3  0  0  0  0  0  0
  183.7470  178.6660  143.0330 S   0  0  0  0  0  0  0  0  0  0  0  0
  185.8290  178.1740  141.3660 C   0  0  0  0  0  2  0  0  0  0  0  0
  184.5740  178.2900  140.5160 C   0  0  0  0  0  2  0  0  0  0  0  0
  189.3140  177.9720  143.2040 C   0  0  0  0  0  2  0  0  0  0  0  0
  190.7590  178.2410  143.5820 C   0  0  0  0  0  2  0  0  0  0  0  0
  191.5950  177.3780  142.8770 O   0  0  0  0  0  1  0  0  0  0  0  0
  193.8230  176.4910  145.6560 C   0  0  2  0  0  3  0  0  0  0  0  0
  194.3200  177.3460  146.6420 O   0  0  0  0  0  1  0  0  0  0  0  0
  192.4600  176.0950  145.9860 N   0  0  0  0  0  2  0  0  0  0  0  0
  190.7260  176.8280  147.5030 C   0  0  0  0  0  2  0  0  0  0  0  0
  192.1980  176.5140  147.3510 C   0  0  0  0  0  3  0  0  0  0  0  0
  191.2720  175.5140  148.0050 C   0  0  0  0  0  2  0  0  0  0  0  0
  2  3  1  0  0  0  0
  3 18  2  0  0  0  0
  4 22  1  0  0  0  0
  5 14  1  0  0  0  0
  5 13  2  0  0  0  0
  6 39  1  6  0  0  0
  6  1  1  0  0  0  0
  7  9  2  0  0  0  0
  8  4  2  0  0  0  0
  8 17  1  0  0  0  0
 10 15  1  0  0  0  0
 10 17  1  0  0  0  0
 11  9  1  0  0  0  0
 11  2  2  0  0  0  0
 12  4  1  0  0  0  0
 13 19  1  0  0  0  0
 13  8  1  0  0  0  0
 14 12  2  0  0  0  0
 15  9  1  6  0  0  0
 15 18  1  0  0  0  0
 16  1  1  0  0  0  0
 17 16  2  0  0  0  0
 18  6  1  0  0  0  0
 19 10  2  0  0  0  0
 20 21  2  0  0  0  0
 22 20  2  0  0  0  0
 22 23  1  0  0  0  0
 24 25  1  0  0  0  0
 24 23  1  0  0  0  0
 25 36  1  6  0  0  0
 25 26  1  0  0  0  0
 26 27  1  0  0  0  0
 26 28  1  0  0  0  0
 27 28  1  0  0  0  0
 29 30  1  1  0  0  0
 29 26  1  0  0  0  0
 31 33  1  0  0  0  0
 32 33  1  0  0  0  0
 32 29  1  1  0  0  0
 34 32  1  0  0  0  0
 35 34  1  0  0  0  0
 35 31  1  0  0  0  0
 36 37  1  0  0  0  0
 38 37  1  0  0  0  0
 39 41  1  0  0  0  0
 39 40  1  1  0  0  0
 41 43  1  0  0  0  0
 42 44  1  0  0  0  0
 43 42  1  0  0  0  0
 43 44  1  0  0  0  0
M  END
>  <MODEL>
4

>  <REMARK>
 VINA RESULT:      -7.1      3.133      8.940
  Name = 
  12 active torsions:
  status: ('A' for Active; 'I' for Inactive)
    1  A    between atoms: C_1  and  C_24
    2  A    between atoms: C_1  and  C_40
    3  A    between atoms: C_3  and  C_8
    4  A    between atoms: C_3  and  C_33
    5  A    between atoms: C_6  and  C_31
    6  A    between atoms: C_7  and  C_24
    7  A    between atoms: C_8  and  C_17
    8  A    between atoms: C_10  and  C_30
    9  A    between atoms: C_17  and  C_31
   10  A    between atoms: C_17  and  C_40
   11  A    between atoms: C_22  and  N_27
   12  A    between atoms: N_27  and  C_30
                            x       y       z     vdW  Elec       q    Type
                         _______ _______ _______ _____ _____    ______ ____

>  <TORSDO>
F 12

$$$$
=
 OpenBabel11062422153D

 44 50  0  0  1  0  0  0  0  0999 V2000
  193.9790  173.2560  145.8410 N   0  0  0  0  0  2  0  0  0  0  0  0
  197.8460  170.2380  145.1590 C   0  0  0  0  0  3  0  0  0  0  0  0
  197.1940  171.5530  145.0390 C   0  0  0  0  0  3  0  0  0  0  0  0
  191.2220  171.1660  142.8070 C   0  0  0  0  0  0  0  0  0  0  0  0
  192.1650  168.5540  142.6710 N   0  0  0  0  0  0  0  0  0  0  0  0
  195.3490  173.1530  145.3150 C   0  0  1  0  0  3  0  0  0  0  0  0
  195.3590  168.4660  146.9740 O   0  0  0  0  0  0  0  0  0  0  0  0
  192.2200  170.7090  143.6730 C   0  0  0  0  0  0  0  0  0  0  0  0
  195.8650  169.3760  146.2670 C   0  0  0  0  0  0  0  0  0  0  0  0
  193.9200  170.3490  145.0350 C   0  0  0  0  0  0  0  0  0  0  0  0
  197.2250  169.2130  145.7380 C   0  0  0  0  0  3  0  0  0  0  0  0
  190.7270  170.2750  141.8980 N   0  0  0  0  0  0  0  0  0  0  0  0
  192.6700  169.4200  143.5800 C   0  0  0  0  0  0  0  0  0  0  0  0
  191.1810  168.9850  141.8310 C   0  0  0  0  0  3  0  0  0  0  0  0
  195.0720  170.6220  145.9590 C   0  0  2  0  0  3  0  0  0  0  0  0
  193.0570  172.7120  144.9280 N   0  0  0  0  0  0  0  0  0  0  0  0
  193.0130  171.3140  144.6180 C   0  0  0  0  0  0  0  0  0  0  0  0
  195.9230  171.7570  145.4160 C   0  0  0  0  0  0  0  0  0  0  0  0
  193.7120  169.1720  144.3950 N   0  0  0  0  0  0  0  0  0  0  0  0
  191.0820  173.3920  141.8800 C   0  0  0  0  0  0  0  0  0  0  0  0
  191.4190  174.1860  140.9950 O   0  0  0  0  0  0  0  0  0  0  0  0
  190.7270  172.5520  142.8150 C   0  0  0  0  0  0  0  0  0  0  0  0
  189.7320  172.9920  143.8350 C   0  0  0  0  0  2  0  0  0  0  0  0
  189.7110  174.5130  143.9960 C   0  0  0  0  0  2  0  0  0  0  0  0
  190.4990  175.0150  145.2130 C   0  0  2  0  0  3  0  0  0  0  0  0
  189.5910  175.4840  146.3640 C   0  0  0  0  0  0  0  0  0  0  0  0
  188.9530  174.4620  147.0270 O   0  0  0  0  0  0  0  0  0  0  0  0
  189.9770  175.0940  147.6290 O   0  0  0  0  0  0  0  0  0  0  0  0
  188.8160  176.8110  146.3000 C   0  0  2  0  0  3  0  0  0  0  0  0
  189.2950  177.7180  147.2460 O   0  0  0  0  0  1  0  0  0  0  0  0
  184.9630  177.5740  146.6010 C   0  0  0  0  0  2  0  0  0  0  0  0
  187.2950  176.6570  146.3860 C   0  0  1  0  0  3  0  0  0  0  0  0
  186.5150  177.8860  147.4730 S   0  0  0  0  0  0  0  0  0  0  0  0
  186.6640  176.7640  145.0090 C   0  0  0  0  0  2  0  0  0  0  0  0
  185.3010  177.4260  145.1340 C   0  0  0  0  0  2  0  0  0  0  0  0
  191.5730  176.0340  144.8270 C   0  0  0  0  0  2  0  0  0  0  0  0
  191.2480  176.7060  143.5060 C   0  0  0  0  0  2  0  0  0  0  0  0
  192.4090  176.8360  142.7490 O   0  0  0  0  0  1  0  0  0  0  0  0
  195.5470  173.8300  143.9460 C   0  0  2  0  0  3  0  0  0  0  0  0
  195.7250  172.8690  142.9470 O   0  0  0  0  0  1  0  0  0  0  0  0
  196.6790  174.7470  143.9580 N   0  0  0  0  0  2  0  0  0  0  0  0
  197.1720  176.9530  143.1010 C   0  0  0  0  0  2  0  0  0  0  0  0
  196.1550  176.0940  143.8190 C   0  0  0  0  0  3  0  0  0  0  0  0
  195.9820  176.4070  142.3510 C   0  0  0  0  0  2  0  0  0  0  0  0
  2 11  2  0  0  0  0
  3  2  1  0  0  0  0
  3 18  2  0  0  0  0
  4 22  1  0  0  0  0
  4  8  2  0  0  0  0
  5 13  2  0  0  0  0
  6 39  1  6  0  0  0
  6 18  1  0  0  0  0
  6  1  1  0  0  0  0
  8 17  1  0  0  0  0
  9  7  2  0  0  0  0
 11  9  1  0  0  0  0
 12  4  1  0  0  0  0
 13  8  1  0  0  0  0
 13 19  1  0  0  0  0
 14 12  2  0  0  0  0
 14  5  1  0  0  0  0
 15 10  1  6  0  0  0
 15  9  1  0  0  0  0
 16  1  1  0  0  0  0
 17 16  2  0  0  0  0
 17 10  1  0  0  0  0
 18 15  1  0  0  0  0
 19 10  2  0  0  0  0
 20 22  2  0  0  0  0
 21 20  2  0  0  0  0
 22 23  1  0  0  0  0
 23 24  1  0  0  0  0
 25 24  1  6  0  0  0
 25 26  1  0  0  0  0
 26 27  1  0  0  0  0
 26 28  1  0  0  0  0
 27 28  1  0  0  0  0
 29 26  1  0  0  0  0
 29 30  1  1  0  0  0
 31 33  1  0  0  0  0
 32 29  1  6  0  0  0
 32 33  1  0  0  0  0
 34 35  1  0  0  0  0
 34 32  1  0  0  0  0
 35 31  1  0  0  0  0
 36 25  1  0  0  0  0
 37 36  1  0  0  0  0
 38 37  1  0  0  0  0
 39 40  1  6  0  0  0
 39 41  1  0  0  0  0
 42 43  1  0  0  0  0
 43 41  1  0  0  0  0
 44 42  1  0  0  0  0
 44 43  1  0  0  0  0
M  END
>  <MODEL>
5

>  <REMARK>
 VINA RESULT:      -7.1      3.620      9.058
  Name = 
  12 active torsions:
  status: ('A' for Active; 'I' for Inactive)
    1  A    between atoms: C_1  and  C_24
    2  A    between atoms: C_1  and  C_40
    3  A    between atoms: C_3  and  C_8
    4  A    between atoms: C_3  and  C_33
    5  A    between atoms: C_6  and  C_31
    6  A    between atoms: C_7  and  C_24
    7  A    between atoms: C_8  and  C_17
    8  A    between atoms: C_10  and  C_30
    9  A    between atoms: C_17  and  C_31
   10  A    between atoms: C_17  and  C_40
   11  A    between atoms: C_22  and  N_27
   12  A    between atoms: N_27  and  C_30
                            x       y       z     vdW  Elec       q    Type
                         _______ _______ _______ _____ _____    ______ ____

>  <TORSDO>
F 12

$$$$
=
 OpenBabel11062422153D

 44 50  0  0  1  0  0  0  0  0999 V2000
  187.9890  175.0920  143.3600 N   0  0  0  0  0  2  0  0  0  0  0  0
  185.9040  179.2210  145.1280 C   0  0  0  0  0  3  0  0  0  0  0  0
  186.4850  178.4340  144.0270 C   0  0  0  0  0  3  0  0  0  0  0  0
  191.9510  175.5570  145.6530 C   0  0  0  0  0  0  0  0  0  0  0  0
  191.3080  177.0930  147.8790 N   0  0  0  0  0  0  0  0  0  0  0  0
  187.5280  176.4470  143.0240 C   0  0  1  0  0  3  0  0  0  0  0  0
  185.9580  176.8000  147.7290 O   0  0  0  0  0  0  0  0  0  0  0  0
  190.6250  175.8860  145.9480 C   0  0  0  0  0  0  0  0  0  0  0  0
  186.2420  177.3400  146.6280 C   0  0  0  0  0  0  0  0  0  0  0  0
  188.4790  176.3940  146.0360 C   0  0  0  0  0  0  0  0  0  0  0  0
  185.7840  178.7090  146.3510 C   0  0  0  0  0  3  0  0  0  0  0  0
  192.9140  176.0160  146.5060 N   0  0  0  0  0  0  0  0  0  0  0  0
  190.3370  176.6480  147.0470 C   0  0  0  0  0  0  0  0  0  0  0  0
  192.6040  176.7660  147.6080 C   0  0  0  0  0  3  0  0  0  0  0  0
  187.0530  176.5870  145.6030 C   0  0  2  0  0  3  0  0  0  0  0  0
  189.2450  175.1390  143.9930 N   0  0  0  0  0  0  0  0  0  0  0  0
  189.4300  175.7070  145.2950 C   0  0  0  0  0  0  0  0  0  0  0  0
  187.0050  177.2130  144.2200 C   0  0  0  0  0  0  0  0  0  0  0  0
  189.0350  176.9800  147.1250 N   0  0  0  0  0  0  0  0  0  0  0  0
  192.6630  175.3920  143.3510 C   0  0  0  0  0  0  0  0  0  0  0  0
  192.9680  175.9670  142.3000 O   0  0  0  0  0  0  0  0  0  0  0  0
  192.3390  174.7860  144.4610 C   0  0  0  0  0  0  0  0  0  0  0  0
  192.4650  173.3010  144.5310 C   0  0  0  0  0  2  0  0  0  0  0  0
  193.6110  172.8660  145.4460 C   0  0  0  0  0  2  0  0  0  0  0  0
  194.7040  172.0650  144.7260 C   0  0  2  0  0  3  0  0  0  0  0  0
  196.1260  172.5030  145.1200 C   0  0  0  0  0  0  0  0  0  0  0  0
  196.6760  171.7690  146.1460 O   0  0  0  0  0  0  0  0  0  0  0  0
  197.1230  171.5790  144.8910 O   0  0  0  0  0  0  0  0  0  0  0  0
  196.5730  173.9730  145.0510 C   0  0  2  0  0  3  0  0  0  0  0  0
  196.0770  174.7000  146.1330 O   0  0  0  0  0  1  0  0  0  0  0  0
  196.4400  176.5800  142.1010 C   0  0  0  0  0  2  0  0  0  0  0  0
  196.2650  174.6630  143.7190 C   0  0  1  0  0  3  0  0  0  0  0  0
  196.0990  176.4650  143.8720 S   0  0  0  0  0  0  0  0  0  0  0  0
  197.3470  174.3640  142.6950 C   0  0  0  0  0  2  0  0  0  0  0  0
  197.5270  175.5740  141.7920 C   0  0  0  0  0  2  0  0  0  0  0  0
  194.4780  172.0060  143.2140 C   0  0  0  0  0  2  0  0  0  0  0  0
  194.3010  170.5760  142.7380 C   0  0  0  0  0  2  0  0  0  0  0  0
  195.5320  170.0580  142.3440 O   0  0  0  0  0  1  0  0  0  0  0  0
  188.5040  177.2390  142.1330 C   0  0  2  0  0  3  0  0  0  0  0  0
  189.2300  178.1540  142.8980 O   0  0  0  0  0  1  0  0  0  0  0  0
  187.8080  177.9350  141.0580 N   0  0  0  0  0  2  0  0  0  0  0  0
  185.6440  177.9320  139.9830 C   0  0  0  0  0  2  0  0  0  0  0  0
  186.7240  177.0790  140.6110 C   0  0  0  0  0  3  0  0  0  0  0  0
  186.6110  177.1740  139.1060 C   0  0  0  0  0  2  0  0  0  0  0  0
  1 16  1  0  0  0  0
  2 11  2  0  0  0  0
  3 18  2  0  0  0  0
  3  2  1  0  0  0  0
  4  8  2  0  0  0  0
  4 12  1  0  0  0  0
  6 39  1  1  0  0  0
  6  1  1  0  0  0  0
  6 18  1  0  0  0  0
  8 13  1  0  0  0  0
  9  7  2  0  0  0  0
 10 19  2  0  0  0  0
 11  9  1  0  0  0  0
 12 14  2  0  0  0  0
 13 19  1  0  0  0  0
 13  5  2  0  0  0  0
 14  5  1  0  0  0  0
 15 18  1  6  0  0  0
 15 10  1  0  0  0  0
 15  9  1  0  0  0  0
 16 17  2  0  0  0  0
 17  8  1  0  0  0  0
 17 10  1  0  0  0  0
 20 22  2  0  0  0  0
 21 20  2  0  0  0  0
 22 23  1  0  0  0  0
 22  4  1  0  0  0  0
 23 24  1  0  0  0  0
 25 36  1  6  0  0  0
 25 26  1  0  0  0  0
 25 24  1  0  0  0  0
 26 27  1  0  0  0  0
 28 26  1  0  0  0  0
 28 27  1  0  0  0  0
 29 26  1  0  0  0  0
 29 30  1  1  0  0  0
 31 33  1  0  0  0  0
 32 33  1  0  0  0  0
 32 29  1  1  0  0  0
 34 32  1  0  0  0  0
 35 31  1  0  0  0  0
 35 34  1  0  0  0  0
 37 36  1  0  0  0  0
 38 37  1  0  0  0  0
 39 40  1  1  0  0  0
 41 39  1  0  0  0  0
 42 43  1  0  0  0  0
 43 41  1  0  0  0  0
 44 42  1  0  0  0  0
 44 43  1  0  0  0  0
M  END
>  <MODEL>
6

>  <REMARK>
 VINA RESULT:      -7.1      1.632      2.724
  Name = 
  12 active torsions:
  status: ('A' for Active; 'I' for Inactive)
    1  A    between atoms: C_1  and  C_24
    2  A    between atoms: C_1  and  C_40
    3  A    between atoms: C_3  and  C_8
    4  A    between atoms: C_3  and  C_33
    5  A    between atoms: C_6  and  C_31
    6  A    between atoms: C_7  and  C_24
    7  A    between atoms: C_8  and  C_17
    8  A    between atoms: C_10  and  C_30
    9  A    between atoms: C_17  and  C_31
   10  A    between atoms: C_17  and  C_40
   11  A    between atoms: C_22  and  N_27
   12  A    between atoms: N_27  and  C_30
                            x       y       z     vdW  Elec       q    Type
                         _______ _______ _______ _____ _____    ______ ____

>  <TORSDO>
F 12

$$$$
=
 OpenBabel11062422153D

 44 50  0  0  1  0  0  0  0  0999 V2000
  189.9150  177.8720  143.7750 N   0  0  0  0  0  2  0  0  0  0  0  0
  184.9700  177.6140  143.8460 C   0  0  0  0  0  3  0  0  0  0  0  0
  186.2760  177.5970  144.5250 C   0  0  0  0  0  3  0  0  0  0  0  0
  190.5530  173.8800  141.5770 C   0  0  0  0  0  0  0  0  0  0  0  0
  188.2030  173.4720  140.1470 N   0  0  0  0  0  0  0  0  0  0  0  0
  188.7290  177.7040  144.6290 C   0  0  1  0  0  3  0  0  0  0  0  0
  185.9980  178.3420  140.5240 O   0  0  0  0  0  0  0  0  0  0  0  0
  189.5610  174.8630  141.5150 C   0  0  0  0  0  0  0  0  0  0  0  0
  186.0960  177.9840  141.7260 C   0  0  0  0  0  0  0  0  0  0  0  0
  188.1180  176.5150  141.7670 C   0  0  0  0  0  0  0  0  0  0  0  0
  184.8810  177.8000  142.5300 C   0  0  0  0  0  3  0  0  0  0  0  0
  190.3220  172.7160  140.9010 N   0  0  0  0  0  0  0  0  0  0  0  0
  188.4120  174.6340  140.8090 C   0  0  0  0  0  0  0  0  0  0  0  0
  189.1710  172.5110  140.1890 C   0  0  0  0  0  3  0  0  0  0  0  0
  187.4550  177.7390  142.3330 C   0  0  2  0  0  3  0  0  0  0  0  0
  190.2320  176.6630  143.1270 N   0  0  0  0  0  0  0  0  0  0  0  0
  189.3860  176.0800  142.1280 C   0  0  0  0  0  0  0  0  0  0  0  0
  187.4330  177.6680  143.8500 C   0  0  0  0  0  0  0  0  0  0  0  0
  187.5090  175.6220  140.9480 N   0  0  0  0  0  0  0  0  0  0  0  0
  191.8190  173.7330  143.6290 C   0  0  0  0  0  0  0  0  0  0  0  0
  191.8460  173.4460  144.8300 O   0  0  0  0  0  0  0  0  0  0  0  0
  191.7900  174.0370  142.3590 C   0  0  0  0  0  0  0  0  0  0  0  0
  193.0580  174.4510  141.6910 C   0  0  0  0  0  2  0  0  0  0  0  0
  193.6680  175.6940  142.3400 C   0  0  0  0  0  2  0  0  0  0  0  0
  195.1930  175.6240  142.4920 C   0  0  2  0  0  3  0  0  0  0  0  0
  195.6520  175.6780  143.9610 C   0  0  0  0  0  0  0  0  0  0  0  0
  195.7710  176.9520  144.4650 O   0  0  0  0  0  0  0  0  0  0  0  0
  194.7360  176.1860  144.8570 O   0  0  0  0  0  0  0  0  0  0  0  0
  196.6310  174.6450  144.5460 C   0  0  2  0  0  3  0  0  0  0  0  0
  197.9360  174.8910  144.1170 O   0  0  0  0  0  1  0  0  0  0  0  0
  196.4210  170.7160  144.7270 C   0  0  0  0  0  2  0  0  0  0  0  0
  196.2240  173.1880  144.3090 C   0  0  1  0  0  3  0  0  0  0  0  0
  197.6210  172.0320  144.4210 S   0  0  0  0  0  0  0  0  0  0  0  0
  195.1620  172.7570  145.3060 C   0  0  0  0  0  2  0  0  0  0  0  0
  195.3600  171.2880  145.6420 C   0  0  0  0  0  2  0  0  0  0  0  0
  195.9120  176.6270  141.5890 C   0  0  0  0  0  2  0  0  0  0  0  0
  196.7750  175.9230  140.5580 C   0  0  0  0  0  2  0  0  0  0  0  0
  195.9660  175.3860  139.5600 O   0  0  0  0  0  1  0  0  0  0  0  0
  188.8720  176.5940  145.6880 C   0  0  2  0  0  3  0  0  0  0  0  0
  188.1520  176.9230  146.8390 O   0  0  0  0  0  1  0  0  0  0  0  0
  190.2670  176.3520  146.0290 N   0  0  0  0  0  2  0  0  0  0  0  0
  191.6700  175.3600  147.7290 C   0  0  0  0  0  2  0  0  0  0  0  0
  190.3180  175.9660  147.4270 C   0  0  0  0  0  3  0  0  0  0  0  0
  191.3780  176.7860  148.1270 C   0  0  0  0  0  2  0  0  0  0  0  0
  1  6  1  0  0  0  0
  2  3  1  0  0  0  0
  4 22  1  0  0  0  0
  5 14  1  0  0  0  0
  5 13  2  0  0  0  0
  6 39  1  6  0  0  0
  7  9  2  0  0  0  0
  8  4  2  0  0  0  0
  8 17  1  0  0  0  0
  9 11  1  0  0  0  0
 10 17  1  0  0  0  0
 10 15  1  0  0  0  0
 11  2  2  0  0  0  0
 12  4  1  0  0  0  0
 13 19  1  0  0  0  0
 13  8  1  0  0  0  0
 14 12  2  0  0  0  0
 15  9  1  6  0  0  0
 15 18  1  0  0  0  0
 16  1  1  0  0  0  0
 17 16  2  0  0  0  0
 18  3  2  0  0  0  0
 18  6  1  0  0  0  0
 19 10  2  0  0  0  0
 20 21  2  0  0  0  0
 22 20  2  0  0  0  0
 23 24  1  0  0  0  0
 23 22  1  0  0  0  0
 24 25  1  0  0  0  0
 25 36  1  6  0  0  0
 25 26  1  0  0  0  0
 26 27  1  0  0  0  0
 26 29  1  0  0  0  0
 26 28  1  0  0  0  0
 27 28  1  0  0  0  0
 29 30  1  6  0  0  0
 31 35  1  0  0  0  0
 32 33  1  0  0  0  0
 32 29  1  1  0  0  0
 32 34  1  0  0  0  0
 33 31  1  0  0  0  0
 34 35  1  0  0  0  0
 37 36  1  0  0  0  0
 38 37  1  0  0  0  0
 39 41  1  0  0  0  0
 39 40  1  1  0  0  0
 41 43  1  0  0  0  0
 42 44  1  0  0  0  0
 43 42  1  0  0  0  0
 43 44  1  0  0  0  0
M  END
>  <MODEL>
7

>  <REMARK>
 VINA RESULT:      -7.1      1.963      4.446
  Name = 
  12 active torsions:
  status: ('A' for Active; 'I' for Inactive)
    1  A    between atoms: C_1  and  C_24
    2  A    between atoms: C_1  and  C_40
    3  A    between atoms: C_3  and  C_8
    4  A    between atoms: C_3  and  C_33
    5  A    between atoms: C_6  and  C_31
    6  A    between atoms: C_7  and  C_24
    7  A    between atoms: C_8  and  C_17
    8  A    between atoms: C_10  and  C_30
    9  A    between atoms: C_17  and  C_31
   10  A    between atoms: C_17  and  C_40
   11  A    between atoms: C_22  and  N_27
   12  A    between atoms: N_27  and  C_30
                            x       y       z     vdW  Elec       q    Type
                         _______ _______ _______ _____ _____    ______ ____

>  <TORSDO>
F 12

$$$$
=
 OpenBabel11062422153D

 44 50  0  0  1  0  0  0  0  0999 V2000
  193.9690  175.1850  142.2430 N   0  0  0  0  0  2  0  0  0  0  0  0
  195.3990  171.0310  144.5290 C   0  0  0  0  0  3  0  0  0  0  0  0
  194.7070  171.7330  143.4350 C   0  0  0  0  0  3  0  0  0  0  0  0
  191.0060  176.5100  145.5040 C   0  0  0  0  0  0  0  0  0  0  0  0
  191.9350  175.3150  147.8360 N   0  0  0  0  0  0  0  0  0  0  0  0
  193.9330  173.7150  142.2040 C   0  0  1  0  0  3  0  0  0  0  0  0
  196.8230  173.7940  146.2500 O   0  0  0  0  0  0  0  0  0  0  0  0
  192.2260  175.8270  145.5330 C   0  0  0  0  0  0  0  0  0  0  0  0
  196.0650  173.1730  145.4610 C   0  0  0  0  0  0  0  0  0  0  0  0
  194.0760  174.6680  145.2130 C   0  0  0  0  0  0  0  0  0  0  0  0
  196.0410  171.7040  145.4810 C   0  0  0  0  0  3  0  0  0  0  0  0
  190.2950  176.5700  146.6690 N   0  0  0  0  0  0  0  0  0  0  0  0
  192.6560  175.2440  146.6930 C   0  0  0  0  0  0  0  0  0  0  0  0
  190.7500  175.9920  147.8220 C   0  0  0  0  0  3  0  0  0  0  0  0
  195.1810  173.9350  144.5050 C   0  0  2  0  0  3  0  0  0  0  0  0
  193.0250  175.6790  143.1610 N   0  0  0  0  0  0  0  0  0  0  0  0
  193.1420  175.4710  144.5730 C   0  0  0  0  0  0  0  0  0  0  0  0
  194.6080  173.0700  143.3950 C   0  0  0  0  0  0  0  0  0  0  0  0
  193.7810  174.5230  146.5280 N   0  0  0  0  0  0  0  0  0  0  0  0
  190.8470  178.3000  143.8910 C   0  0  0  0  0  0  0  0  0  0  0  0
  191.2160  179.4200  143.5220 O   0  0  0  0  0  0  0  0  0  0  0  0
  190.4560  177.1170  144.2810 C   0  0  0  0  0  0  0  0  0  0  0  0
  189.5170  176.3490  143.4130 C   0  0  0  0  0  2  0  0  0  0  0  0
  188.7360  177.2600  142.4650 C   0  0  0  0  0  2  0  0  0  0  0  0
  187.5290  176.5780  141.8090 C   0  0  2  0  0  3  0  0  0  0  0  0
  186.2440  177.4210  141.8940 C   0  0  0  0  0  0  0  0  0  0  0  0
  186.3500  178.6660  141.3160 O   0  0  0  0  0  0  0  0  0  0  0  0
  185.6370  177.7110  140.6910 O   0  0  0  0  0  0  0  0  0  0  0  0
  185.2920  177.3350  143.0990 C   0  0  2  0  0  3  0  0  0  0  0  0
  184.0490  177.8940  142.7980 O   0  0  0  0  0  1  0  0  0  0  0  0
  185.6560  178.7340  146.7630 C   0  0  0  0  0  2  0  0  0  0  0  0
  185.8670  177.9060  144.3980 C   0  0  1  0  0  3  0  0  0  0  0  0
  184.7290  179.0420  145.2430 S   0  0  0  0  0  0  0  0  0  0  0  0
  186.2350  176.7890  145.3600 C   0  0  0  0  0  2  0  0  0  0  0  0
  185.9930  177.2590  146.7860 C   0  0  0  0  0  2  0  0  0  0  0  0
  187.3470  175.1370  142.2880 C   0  0  0  0  0  2  0  0  0  0  0  0
  187.8160  174.1440  141.2410 C   0  0  0  0  0  2  0  0  0  0  0  0
  188.1920  174.8240  140.0850 O   0  0  0  0  0  1  0  0  0  0  0  0
  192.5510  173.1310  141.8580 C   0  0  2  0  0  3  0  0  0  0  0  0
  191.7010  174.1340  141.3870 O   0  0  0  0  0  1  0  0  0  0  0  0
  191.9440  172.4670  143.0050 N   0  0  0  0  0  2  0  0  0  0  0  0
  189.6630  171.9200  143.5850 C   0  0  0  0  0  2  0  0  0  0  0  0
  190.6160  173.0240  143.1830 C   0  0  0  0  0  3  0  0  0  0  0  0
  190.2050  172.8640  144.6300 C   0  0  0  0  0  2  0  0  0  0  0  0
  1 16  1  0  0  0  0
  2 11  2  0  0  0  0
  3  2  1  0  0  0  0
  4  8  2  0  0  0  0
  4 12  1  0  0  0  0
  6 39  1  1  0  0  0
  6  1  1  0  0  0  0
  6 18  1  0  0  0  0
  8 13  1  0  0  0  0
  9 11  1  0  0  0  0
  9  7  2  0  0  0  0
 10 19  2  0  0  0  0
 12 14  2  0  0  0  0
 13  5  2  0  0  0  0
 14  5  1  0  0  0  0
 15 18  1  6  0  0  0
 15 10  1  0  0  0  0
 15  9  1  0  0  0  0
 16 17  2  0  0  0  0
 17 10  1  0  0  0  0
 17  8  1  0  0  0  0
 18  3  2  0  0  0  0
 19 13  1  0  0  0  0
 20 22  2  0  0  0  0
 21 20  2  0  0  0  0
 22  4  1  0  0  0  0
 23 22  1  0  0  0  0
 24 23  1  0  0  0  0
 25 26  1  0  0  0  0
 25 36  1  1  0  0  0
 25 24  1  0  0  0  0
 26 29  1  0  0  0  0
 27 26  1  0  0  0  0
 28 27  1  0  0  0  0
 28 26  1  0  0  0  0
 29 30  1  6  0  0  0
 31 35  1  0  0  0  0
 32 29  1  6  0  0  0
 32 33  1  0  0  0  0
 32 34  1  0  0  0  0
 33 31  1  0  0  0  0
 34 35  1  0  0  0  0
 37 36  1  0  0  0  0
 38 37  1  0  0  0  0
 39 40  1  1  0  0  0
 39 41  1  0  0  0  0
 41 43  1  0  0  0  0
 42 44  1  0  0  0  0
 43 42  1  0  0  0  0
 43 44  1  0  0  0  0
M  END
>  <MODEL>
8

>  <REMARK>
 VINA RESULT:      -7.0      3.186      8.371
  Name = 
  12 active torsions:
  status: ('A' for Active; 'I' for Inactive)
    1  A    between atoms: C_1  and  C_24
    2  A    between atoms: C_1  and  C_40
    3  A    between atoms: C_3  and  C_8
    4  A    between atoms: C_3  and  C_33
    5  A    between atoms: C_6  and  C_31
    6  A    between atoms: C_7  and  C_24
    7  A    between atoms: C_8  and  C_17
    8  A    between atoms: C_10  and  C_30
    9  A    between atoms: C_17  and  C_31
   10  A    between atoms: C_17  and  C_40
   11  A    between atoms: C_22  and  N_27
   12  A    between atoms: N_27  and  C_30
                            x       y       z     vdW  Elec       q    Type
                         _______ _______ _______ _____ _____    ______ ____

>  <TORSDO>
F 12

$$$$
=
 OpenBabel11062422153D

 44 50  0  0  1  0  0  0  0  0999 V2000
  190.6640  177.8960  143.4420 N   0  0  0  0  0  2  0  0  0  0  0  0
  185.7650  177.7630  144.1520 C   0  0  0  0  0  3  0  0  0  0  0  0
  187.1350  178.0120  144.6300 C   0  0  0  0  0  3  0  0  0  0  0  0
  191.1990  173.3420  143.0570 C   0  0  0  0  0  0  0  0  0  0  0  0
  188.7270  172.4070  142.1940 N   0  0  0  0  0  0  0  0  0  0  0  0
  189.5810  178.1190  144.4120 C   0  0  1  0  0  3  0  0  0  0  0  0
  186.4160  177.0180  140.7390 O   0  0  0  0  0  0  0  0  0  0  0  0
  190.1750  174.2230  142.6990 C   0  0  0  0  0  0  0  0  0  0  0  0
  186.6510  177.1940  141.9630 C   0  0  0  0  0  0  0  0  0  0  0  0
  188.7130  175.8490  142.3930 C   0  0  0  0  0  0  0  0  0  0  0  0
  185.5330  177.3810  142.8970 C   0  0  0  0  0  3  0  0  0  0  0  0
  190.9360  172.0050  142.9590 N   0  0  0  0  0  0  0  0  0  0  0  0
  188.9660  173.7350  142.2830 C   0  0  0  0  0  0  0  0  0  0  0  0
  189.7250  171.5380  142.5270 C   0  0  0  0  0  3  0  0  0  0  0  0
  188.0730  177.2070  142.4650 C   0  0  2  0  0  3  0  0  0  0  0  0
  190.9510  176.5230  143.3280 N   0  0  0  0  0  0  0  0  0  0  0  0
  190.0250  175.5880  142.7630 C   0  0  0  0  0  0  0  0  0  0  0  0
  188.2120  177.7780  143.8650 C   0  0  0  0  0  0  0  0  0  0  0  0
  188.0500  174.7040  142.0940 N   0  0  0  0  0  0  0  0  0  0  0  0
  192.7240  173.8970  144.8460 C   0  0  0  0  0  0  0  0  0  0  0  0
  192.9310  173.9960  146.0600 O   0  0  0  0  0  0  0  0  0  0  0  0
  192.5060  173.7940  143.5620 C   0  0  0  0  0  0  0  0  0  0  0  0
  193.6330  174.0460  142.6190 C   0  0  0  0  0  2  0  0  0  0  0  0
  194.8000  174.7630  143.3000 C   0  0  0  0  0  2  0  0  0  0  0  0
  196.0940  173.9380  143.3350 C   0  0  2  0  0  3  0  0  0  0  0  0
  196.4840  173.4950  144.7570 C   0  0  0  0  0  0  0  0  0  0  0  0
  197.5670  174.1660  145.2770 O   0  0  0  0  0  0  0  0  0  0  0  0
  196.3350  174.4460  145.7430 O   0  0  0  0  0  0  0  0  0  0  0  0
  196.3250  172.0390  145.2270 C   0  0  2  0  0  3  0  0  0  0  0  0
  197.5570  171.3850  145.2610 O   0  0  0  0  0  1  0  0  0  0  0  0
  194.3910  169.1100  143.4400 C   0  0  0  0  0  2  0  0  0  0  0  0
  195.2810  171.2350  144.4470 C   0  0  1  0  0  3  0  0  0  0  0  0
  196.0100  169.9120  143.4380 S   0  0  0  0  0  0  0  0  0  0  0  0
  194.2640  170.6160  145.3900 C   0  0  0  0  0  2  0  0  0  0  0  0
  193.8160  169.2750  144.8300 C   0  0  0  0  0  2  0  0  0  0  0  0
  197.2330  174.6150  142.5710 C   0  0  0  0  0  2  0  0  0  0  0  0
  196.9000  176.0600  142.2490 C   0  0  0  0  0  2  0  0  0  0  0  0
  197.5650  176.9020  143.1380 O   0  0  0  0  0  1  0  0  0  0  0  0
  189.8700  177.5520  145.8150 C   0  0  2  0  0  3  0  0  0  0  0  0
  191.2050  177.1550  145.9160 O   0  0  0  0  0  1  0  0  0  0  0  0
  188.9950  176.4310  146.1330 N   0  0  0  0  0  2  0  0  0  0  0  0
  188.9420  174.5410  147.6380 C   0  0  0  0  0  2  0  0  0  0  0  0
  189.8100  175.3960  146.7420 C   0  0  0  0  0  3  0  0  0  0  0  0
  189.3280  174.0440  146.2660 C   0  0  0  0  0  2  0  0  0  0  0  0
  1  6  1  0  0  0  0
  2  3  1  0  0  0  0
  4 22  1  0  0  0  0
  5 13  2  0  0  0  0
  5 14  1  0  0  0  0
  6 39  1  1  0  0  0
  7  9  2  0  0  0  0
  8 17  1  0  0  0  0
  8  4  2  0  0  0  0
  9 11  1  0  0  0  0
 10 15  1  0  0  0  0
 10 17  1  0  0  0  0
 11  2  2  0  0  0  0
 12  4  1  0  0  0  0
 13  8  1  0  0  0  0
 14 12  2  0  0  0  0
 15  9  1  1  0  0  0
 15 18  1  0  0  0  0
 16  1  1  0  0  0  0
 17 16  2  0  0  0  0
 18  6  1  0  0  0  0
 18  3  2  0  0  0  0
 19 13  1  0  0  0  0
 19 10  2  0  0  0  0
 20 21  2  0  0  0  0
 22 20  2  0  0  0  0
 23 24  1  0  0  0  0
 23 22  1  0  0  0  0
 24 25  1  0  0  0  0
 25 36  1  1  0  0  0
 25 26  1  0  0  0  0
 26 29  1  0  0  0  0
 26 27  1  0  0  0  0
 26 28  1  0  0  0  0
 27 28  1  0  0  0  0
 29 30  1  6  0  0  0
 31 35  1  0  0  0  0
 32 29  1  1  0  0  0
 32 34  1  0  0  0  0
 33 31  1  0  0  0  0
 33 32  1  0  0  0  0
 35 34  1  0  0  0  0
 37 36  1  0  0  0  0
 37 38  1  0  0  0  0
 39 40  1  6  0  0  0
 39 41  1  0  0  0  0
 41 43  1  0  0  0  0
 43 42  1  0  0  0  0
 44 43  1  0  0  0  0
 44 42  1  0  0  0  0
M  END
>  <MODEL>
9

>  <REMARK>
 VINA RESULT:      -7.0      2.205      4.256
  Name = 
  12 active torsions:
  status: ('A' for Active; 'I' for Inactive)
    1  A    between atoms: C_1  and  C_24
    2  A    between atoms: C_1  and  C_40
    3  A    between atoms: C_3  and  C_8
    4  A    between atoms: C_3  and  C_33
    5  A    between atoms: C_6  and  C_31
    6  A    between atoms: C_7  and  C_24
    7  A    between atoms: C_8  and  C_17
    8  A    between atoms: C_10  and  C_30
    9  A    between atoms: C_17  and  C_31
   10  A    between atoms: C_17  and  C_40
   11  A    between atoms: C_22  and  N_27
   12  A    between atoms: N_27  and  C_30
                            x       y       z     vdW  Elec       q    Type
                         _______ _______ _______ _____ _____    ______ ____

>  <TORSDO>
F 12

$$$$
