=
 OpenBabel11062421583D

 35 38  0  0  1  0  0  0  0  0999 V2000
  192.2460  171.6010  144.3100 C   0  0  0  0  0  1  0  0  0  0  0  0
  190.6340  171.3380  142.4590 C   0  0  0  0  0  3  0  0  0  0  0  0
  190.6220  173.4510  143.6450 C   0  0  0  0  0  0  0  0  0  0  0  0
  189.1620  173.0570  141.7370 C   0  0  0  0  0  0  0  0  0  0  0  0
  189.6660  171.8010  141.6290 N   0  0  0  0  0  0  0  0  0  0  0  0
  188.1730  173.4800  140.8000 N   0  0  0  0  0  1  0  0  0  0  0  0
  189.6380  173.9280  142.7440 C   0  0  0  0  0  0  0  0  0  0  0  0
  191.1380  172.1460  143.4750 C   0  0  0  0  0  0  0  0  0  0  0  0
  189.6080  176.2600  142.2460 O   0  0  0  0  0  0  0  0  0  0  0  0
  187.9650  175.5470  143.7340 N   0  0  0  0  0  2  0  0  0  0  0  0
  189.0900  175.3040  142.8830 C   0  0  0  0  0  0  0  0  0  0  0  0
  184.6230  178.0150  144.7840 C   0  0  0  0  0  2  0  0  0  0  0  0
  186.4830  177.2870  142.6320 C   0  0  0  0  0  2  0  0  0  0  0  0
  188.1720  177.8930  144.5210 C   0  0  0  0  0  2  0  0  0  0  0  0
  185.8630  178.2900  145.6400 C   0  0  2  0  0  0  0  0  0  0  0  0
  184.6100  178.7760  143.4550 C   0  0  1  0  0  3  0  0  0  0  0  0
  187.3020  176.8410  143.8570 C   0  0  2  0  0  0  0  0  0  0  0  0
  187.0040  177.2790  145.3040 C   0  0  1  0  0  0  0  0  0  0  0  0
  185.9380  178.7090  142.7010 C   0  0  0  0  0  2  0  0  0  0  0  0
  187.5210  176.3530  146.4030 C   0  0  0  0  0  1  0  0  0  0  0  0
  185.4200  178.1550  147.0900 C   0  0  0  0  0  1  0  0  0  0  0  0
  183.5790  178.3000  142.6470 O   0  0  0  0  0  1  0  0  0  0  0  0
  186.2890  179.6020  145.4740 F   0  0  0  0  0  0  0  0  0  0  0  0
  191.0570  174.2960  144.6820 O   0  0  0  0  0  0  0  0  0  0  0  0
  192.4500  175.7500  145.9600 C   0  0  0  0  0  3  0  0  0  0  0  0
  194.8680  176.2330  145.6650 C   0  0  0  0  0  3  0  0  0  0  0  0
  195.0930  176.0050  144.3570 C   0  0  0  0  0  0  0  0  0  0  0  0
  194.0130  175.9450  143.3460 C   0  0  0  0  0  3  0  0  0  0  0  0
  193.5630  176.3750  146.3430 C   0  0  0  0  0  0  0  0  0  0  0  0
  192.3840  174.7890  144.8170 C   0  0  2  0  0  3  0  0  0  0  0  0
  192.7940  175.4430  143.5430 C   0  0  0  0  0  3  0  0  0  0  0  0
  193.5120  177.1420  147.4580 F   0  0  0  0  0  0  0  0  0  0  0  0
  197.0070  177.0420  143.1600 O   0  0  0  0  0  0  0  0  0  0  0  0
  196.4860  175.9680  143.8740 C   0  0  0  0  0  0  0  0  0  0  0  0
  197.2210  174.9690  144.1010 O   0  0  0  0  0  1  0  0  0  0  0  0
  2  8  1  0  0  0  0
  3 24  1  0  0  0  0
  4  7  2  0  0  0  0
  5  4  1  0  0  0  0
  5  2  2  0  0  0  0
  6  4  1  0  0  0  0
  7 11  1  0  0  0  0
  7  3  1  0  0  0  0
  8  3  2  0  0  0  0
  8  1  1  0  0  0  0
  9 11  2  0  0  0  0
 11 10  1  0  0  0  0
 12 15  1  0  0  0  0
 13 19  1  0  0  0  0
 13 17  1  0  0  0  0
 14 18  1  0  0  0  0
 15 21  1  1  0  0  0
 16 22  1  6  0  0  0
 16 12  1  0  0  0  0
 17 10  1  6  0  0  0
 17 14  1  0  0  0  0
 17 18  1  0  0  0  0
 18 15  1  0  0  0  0
 18 20  1  1  0  0  0
 19 16  1  0  0  0  0
 23 15  1  0  0  0  0
 25 29  2  0  0  0  0
 26 29  1  0  0  0  0
 27 26  2  0  0  0  0
 28 31  2  0  0  0  0
 28 27  1  0  0  0  0
 29 32  1  0  0  0  0
 30 24  1  6  0  0  0
 30 25  1  0  0  0  0
 31 30  1  0  0  0  0
 33 34  2  0  0  0  0
 34 35  1  0  0  0  0
 34 27  1  0  0  0  0
M  END
>  <MODEL>
1

>  <REMARK>
 VINA RESULT:      -8.7      0.000      0.000
  Name = 
  5 active torsions:
  status: ('A' for Active; 'I' for Inactive)
    1  A    between atoms: C_8  and  O_16
    2  A    between atoms: C_10  and  C_14
    3  A    between atoms: O_16  and  C_25
    4  A    between atoms: C_22  and  N_28
    5  A    between atoms: C_29  and  C_34
                            x       y       z     vdW  Elec       q    Type
                         _______ _______ _______ _____ _____    ______ ____

>  <TORSDO>
F 5

$$$$
=
 OpenBabel11062421583D

 35 38  0  0  1  0  0  0  0  0999 V2000
  190.9080  171.4760  143.8500 C   0  0  0  0  0  1  0  0  0  0  0  0
  189.9670  171.7960  141.5900 C   0  0  0  0  0  3  0  0  0  0  0  0
  189.6290  173.5820  143.1920 C   0  0  0  0  0  0  0  0  0  0  0  0
  188.8480  173.7710  140.8940 C   0  0  0  0  0  0  0  0  0  0  0  0
  189.3280  172.5260  140.6430 N   0  0  0  0  0  0  0  0  0  0  0  0
  188.2210  174.4900  139.8320 N   0  0  0  0  0  1  0  0  0  0  0  0
  188.9960  174.3440  142.1780 C   0  0  0  0  0  0  0  0  0  0  0  0
  190.1390  172.3020  142.8760 C   0  0  0  0  0  0  0  0  0  0  0  0
  188.8890  176.7000  141.8300 O   0  0  0  0  0  0  0  0  0  0  0  0
  187.4690  175.8810  143.4840 N   0  0  0  0  0  2  0  0  0  0  0  0
  188.4680  175.7020  142.4730 C   0  0  0  0  0  0  0  0  0  0  0  0
  184.2740  178.2400  145.0930 C   0  0  0  0  0  2  0  0  0  0  0  0
  185.8650  177.6790  142.6890 C   0  0  0  0  0  2  0  0  0  0  0  0
  187.7660  178.1690  144.4020 C   0  0  0  0  0  2  0  0  0  0  0  0
  185.6070  178.4660  145.8120 C   0  0  2  0  0  0  0  0  0  0  0  0
  184.1020  179.0900  143.8310 C   0  0  1  0  0  3  0  0  0  0  0  0
  186.8240  177.1570  143.7750 C   0  0  2  0  0  0  0  0  0  0  0  0
  186.7010  177.4920  145.2730 C   0  0  1  0  0  0  0  0  0  0  0  0
  185.3310  179.0870  142.9210 C   0  0  0  0  0  2  0  0  0  0  0  0
  187.3460  176.4960  146.2360 C   0  0  0  0  0  1  0  0  0  0  0  0
  185.3400  178.2270  147.2910 C   0  0  0  0  0  1  0  0  0  0  0  0
  182.9820  178.6610  143.1200 O   0  0  0  0  0  1  0  0  0  0  0  0
  186.0080  179.7900  145.6880 F   0  0  0  0  0  0  0  0  0  0  0  0
  189.7290  174.1260  144.4850 O   0  0  0  0  0  0  0  0  0  0  0  0
  190.7460  174.8740  146.5080 C   0  0  0  0  0  3  0  0  0  0  0  0
  193.0150  175.8290  146.8400 C   0  0  0  0  0  3  0  0  0  0  0  0
  193.3200  176.3770  145.6490 C   0  0  0  0  0  0  0  0  0  0  0  0
  192.3060  176.6920  144.6170 C   0  0  0  0  0  3  0  0  0  0  0  0
  191.6910  175.3690  147.3080 C   0  0  0  0  0  0  0  0  0  0  0  0
  190.9180  174.6800  145.0360 C   0  0  2  0  0  3  0  0  0  0  0  0
  191.2160  175.9710  144.3560 C   0  0  0  0  0  3  0  0  0  0  0  0
  191.4460  175.3990  148.6400 F   0  0  0  0  0  0  0  0  0  0  0  0
  195.0670  178.1420  145.7090 O   0  0  0  0  0  1  0  0  0  0  0  0
  194.7030  176.8320  145.4130 C   0  0  0  0  0  0  0  0  0  0  0  0
  195.5700  176.0470  144.9440 O   0  0  0  0  0  0  0  0  0  0  0  0
  2  8  1  0  0  0  0
  3 24  1  0  0  0  0
  4  7  2  0  0  0  0
  5  4  1  0  0  0  0
  5  2  2  0  0  0  0
  6  4  1  0  0  0  0
  7 11  1  0  0  0  0
  7  3  1  0  0  0  0
  8  3  2  0  0  0  0
  8  1  1  0  0  0  0
  9 11  2  0  0  0  0
 11 10  1  0  0  0  0
 12 15  1  0  0  0  0
 13 19  1  0  0  0  0
 13 17  1  0  0  0  0
 14 18  1  0  0  0  0
 15 21  1  1  0  0  0
 16 22  1  6  0  0  0
 16 12  1  0  0  0  0
 17 10  1  6  0  0  0
 17 14  1  0  0  0  0
 17 18  1  0  0  0  0
 18 15  1  0  0  0  0
 18 20  1  1  0  0  0
 19 16  1  0  0  0  0
 23 15  1  0  0  0  0
 25 29  2  0  0  0  0
 26 29  1  0  0  0  0
 27 26  2  0  0  0  0
 28 27  1  0  0  0  0
 29 32  1  0  0  0  0
 30 24  1  6  0  0  0
 30 25  1  0  0  0  0
 31 28  2  0  0  0  0
 31 30  1  0  0  0  0
 34 27  1  0  0  0  0
 34 33  1  0  0  0  0
 35 34  2  0  0  0  0
M  END
>  <MODEL>
2

>  <REMARK>
 VINA RESULT:      -8.6      1.289      1.517
  Name = 
  5 active torsions:
  status: ('A' for Active; 'I' for Inactive)
    1  A    between atoms: C_8  and  O_16
    2  A    between atoms: C_10  and  C_14
    3  A    between atoms: O_16  and  C_25
    4  A    between atoms: C_22  and  N_28
    5  A    between atoms: C_29  and  C_34
                            x       y       z     vdW  Elec       q    Type
                         _______ _______ _______ _____ _____    ______ ____

>  <TORSDO>
F 5

$$$$
=
 OpenBabel11062421583D

 35 38  0  0  1  0  0  0  0  0999 V2000
  183.8580  179.1450  143.7710 C   0  0  0  0  0  1  0  0  0  0  0  0
  184.0490  178.3370  141.4460 C   0  0  0  0  0  3  0  0  0  0  0  0
  186.0740  178.3750  142.7750 C   0  0  0  0  0  0  0  0  0  0  0  0
  186.0660  177.5230  140.4940 C   0  0  0  0  0  0  0  0  0  0  0  0
  184.7410  177.8070  140.4080 N   0  0  0  0  0  0  0  0  0  0  0  0
  186.7140  176.9310  139.3690 N   0  0  0  0  0  1  0  0  0  0  0  0
  186.7720  177.7870  141.6910 C   0  0  0  0  0  0  0  0  0  0  0  0
  184.6890  178.6260  142.6480 C   0  0  0  0  0  0  0  0  0  0  0  0
  189.0760  178.3900  141.5620 O   0  0  0  0  0  0  0  0  0  0  0  0
  188.6650  176.1830  142.1840 N   0  0  0  0  0  2  0  0  0  0  0  0
  188.2260  177.4910  141.7990 C   0  0  0  0  0  0  0  0  0  0  0  0
  191.9160  174.9790  144.7030 C   0  0  0  0  0  2  0  0  0  0  0  0
  190.9940  176.9970  142.7790 C   0  0  0  0  0  2  0  0  0  0  0  0
  190.5890  174.8230  141.4020 C   0  0  0  0  0  2  0  0  0  0  0  0
  191.5640  173.9350  143.6390 C   0  0  2  0  0  0  0  0  0  0  0  0
  192.8680  176.0700  144.2050 C   0  0  1  0  0  3  0  0  0  0  0  0
  190.0620  175.8280  142.4100 C   0  0  2  0  0  0  0  0  0  0  0  0
  190.2960  174.3670  142.8370 C   0  0  1  0  0  0  0  0  0  0  0  0
  192.4760  176.6470  142.8450 C   0  0  0  0  0  2  0  0  0  0  0  0
  189.0560  173.4750  142.8750 C   0  0  0  0  0  1  0  0  0  0  0  0
  191.3240  172.6300  144.3840 C   0  0  0  0  0  1  0  0  0  0  0  0
  192.9520  177.0920  145.1490 O   0  0  0  0  0  1  0  0  0  0  0  0
  192.6440  173.7180  142.7920 F   0  0  0  0  0  0  0  0  0  0  0  0
  186.7860  178.6900  143.9470 O   0  0  0  0  0  0  0  0  0  0  0  0
  186.3630  177.9560  146.1760 C   0  0  0  0  0  3  0  0  0  0  0  0
  187.4640  176.1210  147.4370 C   0  0  0  0  0  3  0  0  0  0  0  0
  188.6850  176.0230  146.8780 C   0  0  0  0  0  0  0  0  0  0  0  0
  189.2880  177.0930  146.0510 C   0  0  0  0  0  3  0  0  0  0  0  0
  186.4870  177.2180  147.2790 C   0  0  0  0  0  0  0  0  0  0  0  0
  187.1700  177.7430  144.9360 C   0  0  2  0  0  3  0  0  0  0  0  0
  188.6260  177.8890  145.2120 C   0  0  0  0  0  3  0  0  0  0  0  0
  185.6250  177.4460  148.2980 F   0  0  0  0  0  0  0  0  0  0  0  0
  190.6660  175.0440  148.0130 O   0  0  0  0  0  1  0  0  0  0  0  0
  189.5330  174.8670  147.2270 C   0  0  0  0  0  0  0  0  0  0  0  0
  189.2430  173.7090  146.8230 O   0  0  0  0  0  0  0  0  0  0  0  0
  2  8  1  0  0  0  0
  3 24  1  0  0  0  0
  4  7  2  0  0  0  0
  5  4  1  0  0  0  0
  5  2  2  0  0  0  0
  6  4  1  0  0  0  0
  7 11  1  0  0  0  0
  7  3  1  0  0  0  0
  8  3  2  0  0  0  0
  8  1  1  0  0  0  0
  9 11  2  0  0  0  0
 11 10  1  0  0  0  0
 13 19  1  0  0  0  0
 14 17  1  0  0  0  0
 14 18  1  0  0  0  0
 15 21  1  1  0  0  0
 15 12  1  0  0  0  0
 16 12  1  0  0  0  0
 16 22  1  1  0  0  0
 17 10  1  6  0  0  0
 17 13  1  0  0  0  0
 17 18  1  0  0  0  0
 18 20  1  1  0  0  0
 18 15  1  0  0  0  0
 19 16  1  0  0  0  0
 23 15  1  0  0  0  0
 25 29  2  0  0  0  0
 27 34  1  0  0  0  0
 27 26  2  0  0  0  0
 28 27  1  0  0  0  0
 29 26  1  0  0  0  0
 29 32  1  0  0  0  0
 30 24  1  6  0  0  0
 30 31  1  0  0  0  0
 30 25  1  0  0  0  0
 31 28  2  0  0  0  0
 34 33  1  0  0  0  0
 35 34  2  0  0  0  0
M  END
>  <MODEL>
3

>  <REMARK>
 VINA RESULT:      -8.3      2.453      6.948
  Name = 
  5 active torsions:
  status: ('A' for Active; 'I' for Inactive)
    1  A    between atoms: C_8  and  O_16
    2  A    between atoms: C_10  and  C_14
    3  A    between atoms: O_16  and  C_25
    4  A    between atoms: C_22  and  N_28
    5  A    between atoms: C_29  and  C_34
                            x       y       z     vdW  Elec       q    Type
                         _______ _______ _______ _____ _____    ______ ____

>  <TORSDO>
F 5

$$$$
=
 OpenBabel11062421583D

 35 38  0  0  1  0  0  0  0  0999 V2000
  194.6830  175.6050  143.4070 C   0  0  0  0  0  1  0  0  0  0  0  0
  194.4550  176.3110  145.7620 C   0  0  0  0  0  3  0  0  0  0  0  0
  192.4130  175.8490  144.5430 C   0  0  0  0  0  0  0  0  0  0  0  0
  192.3760  176.4670  146.8970 C   0  0  0  0  0  0  0  0  0  0  0  0
  193.7290  176.5710  146.8770 N   0  0  0  0  0  0  0  0  0  0  0  0
  191.6880  176.7200  148.1220 N   0  0  0  0  0  1  0  0  0  0  0  0
  191.6750  176.0890  145.7290 C   0  0  0  0  0  0  0  0  0  0  0  0
  193.8230  175.9410  144.5780 C   0  0  0  0  0  0  0  0  0  0  0  0
  189.6320  174.9430  146.1780 O   0  0  0  0  0  0  0  0  0  0  0  0
  189.3920  177.0580  145.2310 N   0  0  0  0  0  2  0  0  0  0  0  0
  190.1920  175.9800  145.7300 C   0  0  0  0  0  0  0  0  0  0  0  0
  185.6290  179.1050  145.3420 C   0  0  0  0  0  2  0  0  0  0  0  0
  187.3190  177.1190  146.6930 C   0  0  0  0  0  2  0  0  0  0  0  0
  187.2910  176.1410  144.2790 C   0  0  0  0  0  2  0  0  0  0  0  0
  185.8200  178.2700  144.0730 C   0  0  2  0  0  0  0  0  0  0  0  0
  185.0890  178.3050  146.5310 C   0  0  1  0  0  3  0  0  0  0  0  0
  187.9340  177.0810  145.2820 C   0  0  2  0  0  0  0  0  0  0  0  0
  187.2530  177.6520  144.0250 C   0  0  1  0  0  0  0  0  0  0  0  0
  185.8030  176.9700  146.7420 C   0  0  0  0  0  2  0  0  0  0  0  0
  188.1840  178.0270  142.8720 C   0  0  0  0  0  1  0  0  0  0  0  0
  185.5900  179.2150  142.9010 C   0  0  0  0  0  1  0  0  0  0  0  0
  185.1640  179.0740  147.6920 O   0  0  0  0  0  1  0  0  0  0  0  0
  184.8450  177.2840  143.9870 F   0  0  0  0  0  0  0  0  0  0  0  0
  191.7160  175.5260  143.3650 O   0  0  0  0  0  0  0  0  0  0  0  0
  189.9080  174.0930  142.7590 C   0  0  0  0  0  3  0  0  0  0  0  0
  189.9800  171.6920  142.1280 C   0  0  0  0  0  3  0  0  0  0  0  0
  191.0820  171.2220  142.7440 C   0  0  0  0  0  0  0  0  0  0  0  0
  191.7460  171.9220  143.8660 C   0  0  0  0  0  3  0  0  0  0  0  0
  189.2920  172.9770  142.3710 C   0  0  0  0  0  0  0  0  0  0  0  0
  191.3850  174.2030  142.9610 C   0  0  2  0  0  3  0  0  0  0  0  0
  191.8580  173.2440  143.9980 C   0  0  0  0  0  3  0  0  0  0  0  0
  187.9620  173.0360  142.1250 F   0  0  0  0  0  0  0  0  0  0  0  0
  192.7900  169.4240  142.8810 O   0  0  0  0  0  1  0  0  0  0  0  0
  191.5670  169.8730  142.3950 C   0  0  0  0  0  0  0  0  0  0  0  0
  190.8830  169.1120  141.6590 O   0  0  0  0  0  0  0  0  0  0  0  0
  1  8  1  0  0  0  0
  2  5  1  0  0  0  0
  3  8  1  0  0  0  0
  3  7  2  0  0  0  0
  4  6  1  0  0  0  0
  5  4  2  0  0  0  0
  7 11  1  0  0  0  0
  7  4  1  0  0  0  0
  8  2  2  0  0  0  0
 10 11  1  0  0  0  0
 11  9  2  0  0  0  0
 12 16  1  0  0  0  0
 13 19  1  0  0  0  0
 14 17  1  0  0  0  0
 15 21  1  6  0  0  0
 15 12  1  0  0  0  0
 16 19  1  0  0  0  0
 16 22  1  1  0  0  0
 17 10  1  6  0  0  0
 17 13  1  0  0  0  0
 18 20  1  6  0  0  0
 18 15  1  0  0  0  0
 18 14  1  0  0  0  0
 18 17  1  0  0  0  0
 23 15  1  0  0  0  0
 24  3  1  0  0  0  0
 25 30  1  0  0  0  0
 26 29  1  0  0  0  0
 26 27  2  0  0  0  0
 27 28  1  0  0  0  0
 28 31  2  0  0  0  0
 29 25  2  0  0  0  0
 30 24  1  1  0  0  0
 30 31  1  0  0  0  0
 32 29  1  0  0  0  0
 34 27  1  0  0  0  0
 34 33  1  0  0  0  0
 35 34  2  0  0  0  0
M  END
>  <MODEL>
4

>  <REMARK>
 VINA RESULT:      -8.2      2.898      5.282
  Name = 
  5 active torsions:
  status: ('A' for Active; 'I' for Inactive)
    1  A    between atoms: C_8  and  O_16
    2  A    between atoms: C_10  and  C_14
    3  A    between atoms: O_16  and  C_25
    4  A    between atoms: C_22  and  N_28
    5  A    between atoms: C_29  and  C_34
                            x       y       z     vdW  Elec       q    Type
                         _______ _______ _______ _____ _____    ______ ____

>  <TORSDO>
F 5

$$$$
=
 OpenBabel11062421583D

 35 38  0  0  1  0  0  0  0  0999 V2000
  191.2020  176.6840  148.1700 C   0  0  0  0  0  1  0  0  0  0  0  0
  193.2550  176.5880  146.8020 C   0  0  0  0  0  3  0  0  0  0  0  0
  191.2020  175.8130  145.7740 C   0  0  0  0  0  0  0  0  0  0  0  0
  193.2990  175.8730  144.5380 C   0  0  0  0  0  0  0  0  0  0  0  0
  193.9220  176.3470  145.6470 N   0  0  0  0  0  0  0  0  0  0  0  0
  194.0650  175.6820  143.3500 N   0  0  0  0  0  1  0  0  0  0  0  0
  191.9110  175.6030  144.5650 C   0  0  0  0  0  0  0  0  0  0  0  0
  191.8880  176.3360  146.8940 C   0  0  0  0  0  0  0  0  0  0  0  0
  190.9650  175.8330  142.3880 O   0  0  0  0  0  0  0  0  0  0  0  0
  190.8280  173.6950  143.3040 N   0  0  0  0  0  2  0  0  0  0  0  0
  191.2130  175.0740  143.3630 C   0  0  0  0  0  0  0  0  0  0  0  0
  190.2420  173.3320  139.0740 C   0  0  0  0  0  2  0  0  0  0  0  0
  188.8940  173.6740  141.6610 C   0  0  0  0  0  2  0  0  0  0  0  0
  190.3220  171.5530  142.1570 C   0  0  0  0  0  2  0  0  0  0  0  0
  190.9210  172.1070  139.6920 C   0  0  2  0  0  0  0  0  0  0  0  0
  188.7140  173.3010  139.1650 C   0  0  1  0  0  3  0  0  0  0  0  0
  190.2290  173.0670  142.1310 C   0  0  2  0  0  0  0  0  0  0  0  0
  191.2260  172.3450  141.2050 C   0  0  1  0  0  0  0  0  0  0  0  0
  188.1920  172.9080  140.5470 C   0  0  0  0  0  2  0  0  0  0  0  0
  192.6760  172.3080  141.6840 C   0  0  0  0  0  1  0  0  0  0  0  0
  192.2030  171.8860  138.9030 C   0  0  0  0  0  1  0  0  0  0  0  0
  188.1920  174.5400  138.7950 O   0  0  0  0  0  1  0  0  0  0  0  0
  190.1390  170.9730  139.5100 F   0  0  0  0  0  0  0  0  0  0  0  0
  189.8330  175.4930  145.8200 O   0  0  0  0  0  0  0  0  0  0  0  0
  187.8130  176.3320  146.7700 C   0  0  0  0  0  3  0  0  0  0  0  0
  186.3020  178.0950  145.8860 C   0  0  0  0  0  3  0  0  0  0  0  0
  186.4990  178.0610  144.5550 C   0  0  0  0  0  0  0  0  0  0  0  0
  187.1210  176.9140  143.8550 C   0  0  0  0  0  3  0  0  0  0  0  0
  186.7220  177.0900  146.8850 C   0  0  0  0  0  0  0  0  0  0  0  0
  188.7790  176.4300  145.6340 C   0  0  2  0  0  3  0  0  0  0  0  0
  188.1080  176.1570  144.3330 C   0  0  0  0  0  3  0  0  0  0  0  0
  185.9820  176.9740  148.0130 F   0  0  0  0  0  0  0  0  0  0  0  0
  185.9420  179.0400  142.3410 O   0  0  0  0  0  0  0  0  0  0  0  0
  185.9320  179.1430  143.7280 C   0  0  0  0  0  0  0  0  0  0  0  0
  185.4310  180.1690  144.2620 O   0  0  0  0  0  1  0  0  0  0  0  0
  2  8  1  0  0  0  0
  3 24  1  0  0  0  0
  3  8  2  0  0  0  0
  4  7  2  0  0  0  0
  4  5  1  0  0  0  0
  5  2  2  0  0  0  0
  6  4  1  0  0  0  0
  7  3  1  0  0  0  0
  8  1  1  0  0  0  0
  9 11  2  0  0  0  0
 10 11  1  0  0  0  0
 11  7  1  0  0  0  0
 12 16  1  0  0  0  0
 12 15  1  0  0  0  0
 13 17  1  0  0  0  0
 15 21  1  6  0  0  0
 15 18  1  0  0  0  0
 16 22  1  1  0  0  0
 16 19  1  0  0  0  0
 17 14  1  0  0  0  0
 17 10  1  1  0  0  0
 18 20  1  1  0  0  0
 18 17  1  0  0  0  0
 18 14  1  0  0  0  0
 19 13  1  0  0  0  0
 23 15  1  0  0  0  0
 25 29  2  0  0  0  0
 26 29  1  0  0  0  0
 27 26  2  0  0  0  0
 28 31  2  0  0  0  0
 28 27  1  0  0  0  0
 29 32  1  0  0  0  0
 30 24  1  1  0  0  0
 30 25  1  0  0  0  0
 31 30  1  0  0  0  0
 33 34  2  0  0  0  0
 34 35  1  0  0  0  0
 34 27  1  0  0  0  0
M  END
>  <MODEL>
5

>  <REMARK>
 VINA RESULT:      -8.1      3.050      7.426
  Name = 
  5 active torsions:
  status: ('A' for Active; 'I' for Inactive)
    1  A    between atoms: C_8  and  O_16
    2  A    between atoms: C_10  and  C_14
    3  A    between atoms: O_16  and  C_25
    4  A    between atoms: C_22  and  N_28
    5  A    between atoms: C_29  and  C_34
                            x       y       z     vdW  Elec       q    Type
                         _______ _______ _______ _____ _____    ______ ____

>  <TORSDO>
F 5

$$$$
=
 OpenBabel11062421583D

 35 38  0  0  1  0  0  0  0  0999 V2000
  193.6170  172.6620  144.2880 C   0  0  0  0  0  1  0  0  0  0  0  0
  193.8780  174.6170  145.7720 C   0  0  0  0  0  3  0  0  0  0  0  0
  191.6240  174.0200  145.1150 C   0  0  0  0  0  0  0  0  0  0  0  0
  192.0560  175.8630  146.6460 C   0  0  0  0  0  0  0  0  0  0  0  0
  193.3880  175.6250  146.5350 N   0  0  0  0  0  0  0  0  0  0  0  0
  191.6180  176.9190  147.5000 N   0  0  0  0  0  1  0  0  0  0  0  0
  191.1290  175.0550  145.9470 C   0  0  0  0  0  0  0  0  0  0  0  0
  193.0180  173.7910  145.0540 C   0  0  0  0  0  0  0  0  0  0  0  0
  188.9450  174.5710  146.7730 O   0  0  0  0  0  0  0  0  0  0  0  0
  189.0740  176.3980  145.3340 N   0  0  0  0  0  2  0  0  0  0  0  0
  189.6670  175.3080  146.0500 C   0  0  0  0  0  0  0  0  0  0  0  0
  185.9420  179.3120  145.5800 C   0  0  0  0  0  2  0  0  0  0  0  0
  187.1520  176.9760  146.8860 C   0  0  0  0  0  2  0  0  0  0  0  0
  186.7690  176.0240  144.4920 C   0  0  0  0  0  2  0  0  0  0  0  0
  185.8600  178.4500  144.3170 C   0  0  2  0  0  0  0  0  0  0  0  0
  185.2780  178.6750  146.8050 C   0  0  1  0  0  3  0  0  0  0  0  0
  187.6710  176.7800  145.4490 C   0  0  2  0  0  0  0  0  0  0  0  0
  187.0930  177.4970  144.2150 C   0  0  1  0  0  0  0  0  0  0  0  0
  185.6500  177.2060  147.0050 C   0  0  0  0  0  2  0  0  0  0  0  0
  188.0320  177.6250  143.0160 C   0  0  0  0  0  1  0  0  0  0  0  0
  185.8160  179.4160  143.1430 C   0  0  0  0  0  1  0  0  0  0  0  0
  185.5950  179.4060  147.9490 O   0  0  0  0  0  1  0  0  0  0  0  0
  184.6700  177.7340  144.2910 F   0  0  0  0  0  0  0  0  0  0  0  0
  190.7080  173.2510  144.3750 O   0  0  0  0  0  0  0  0  0  0  0  0
  189.1400  173.9680  142.7290 C   0  0  0  0  0  3  0  0  0  0  0  0
  189.3570  173.9120  140.2550 C   0  0  0  0  0  3  0  0  0  0  0  0
  190.2180  172.9030  140.0220 C   0  0  0  0  0  0  0  0  0  0  0  0
  190.5290  171.8550  141.0200 C   0  0  0  0  0  3  0  0  0  0  0  0
  188.6490  174.2190  141.5150 C   0  0  0  0  0  0  0  0  0  0  0  0
  190.4910  173.3800  142.9760 C   0  0  2  0  0  3  0  0  0  0  0  0
  190.6180  172.0400  142.3370 C   0  0  0  0  0  3  0  0  0  0  0  0
  187.4530  174.8490  141.4290 F   0  0  0  0  0  0  0  0  0  0  0  0
  190.7540  173.8050  137.7700 O   0  0  0  0  0  0  0  0  0  0  0  0
  190.7620  172.7370  138.6610 C   0  0  0  0  0  0  0  0  0  0  0  0
  191.2430  171.6320  138.2890 O   0  0  0  0  0  1  0  0  0  0  0  0
  1  8  1  0  0  0  0
  2  5  1  0  0  0  0
  3  7  2  0  0  0  0
  4  6  1  0  0  0  0
  5  4  2  0  0  0  0
  7 11  1  0  0  0  0
  7  4  1  0  0  0  0
  8  3  1  0  0  0  0
  8  2  2  0  0  0  0
 10 11  1  0  0  0  0
 11  9  2  0  0  0  0
 12 16  1  0  0  0  0
 13 19  1  0  0  0  0
 14 17  1  0  0  0  0
 15 21  1  6  0  0  0
 15 12  1  0  0  0  0
 16 19  1  0  0  0  0
 16 22  1  1  0  0  0
 17 10  1  6  0  0  0
 17 13  1  0  0  0  0
 18 20  1  6  0  0  0
 18 15  1  0  0  0  0
 18 14  1  0  0  0  0
 18 17  1  0  0  0  0
 23 15  1  0  0  0  0
 24  3  1  0  0  0  0
 25 30  1  0  0  0  0
 26 29  1  0  0  0  0
 27 26  2  0  0  0  0
 27 28  1  0  0  0  0
 28 31  2  0  0  0  0
 29 25  2  0  0  0  0
 30 24  1  1  0  0  0
 31 30  1  0  0  0  0
 32 29  1  0  0  0  0
 33 34  2  0  0  0  0
 34 27  1  0  0  0  0
 35 34  1  0  0  0  0
M  END
>  <MODEL>
6

>  <REMARK>
 VINA RESULT:      -8.0      3.233      5.247
  Name = 
  5 active torsions:
  status: ('A' for Active; 'I' for Inactive)
    1  A    between atoms: C_8  and  O_16
    2  A    between atoms: C_10  and  C_14
    3  A    between atoms: O_16  and  C_25
    4  A    between atoms: C_22  and  N_28
    5  A    between atoms: C_29  and  C_34
                            x       y       z     vdW  Elec       q    Type
                         _______ _______ _______ _____ _____    ______ ____

>  <TORSDO>
F 5

$$$$
=
 OpenBabel11062421583D

 35 38  0  0  1  0  0  0  0  0999 V2000
  186.9980  177.0940  140.1490 C   0  0  0  0  0  1  0  0  0  0  0  0
  187.7010  174.7920  139.6010 C   0  0  0  0  0  3  0  0  0  0  0  0
  188.5870  175.7650  141.6360 C   0  0  0  0  0  0  0  0  0  0  0  0
  189.1040  173.4740  140.9920 C   0  0  0  0  0  0  0  0  0  0  0  0
  188.3540  173.6350  139.8720 N   0  0  0  0  0  0  0  0  0  0  0  0
  189.7290  172.2130  141.2230 N   0  0  0  0  0  1  0  0  0  0  0  0
  189.2320  174.5350  141.9190 C   0  0  0  0  0  0  0  0  0  0  0  0
  187.7930  175.8750  140.4710 C   0  0  0  0  0  0  0  0  0  0  0  0
  189.5930  173.7730  144.1500 O   0  0  0  0  0  0  0  0  0  0  0  0
  191.3850  174.9110  143.1920 N   0  0  0  0  0  2  0  0  0  0  0  0
  190.0560  174.3800  143.1470 C   0  0  0  0  0  0  0  0  0  0  0  0
  195.2500  175.1730  145.0240 C   0  0  0  0  0  2  0  0  0  0  0  0
  193.0310  173.3690  144.3540 C   0  0  0  0  0  2  0  0  0  0  0  0
  191.7420  175.2410  145.6260 C   0  0  0  0  0  2  0  0  0  0  0  0
  194.2040  176.0610  145.7030 C   0  0  2  0  0  0  0  0  0  0  0  0
  195.2470  173.7260  145.5230 C   0  0  1  0  0  3  0  0  0  0  0  0
  192.2990  174.7230  144.3140 C   0  0  2  0  0  0  0  0  0  0  0  0
  192.8540  176.0260  144.9200 C   0  0  1  0  0  0  0  0  0  0  0  0
  193.8490  173.1150  145.6150 C   0  0  0  0  0  2  0  0  0  0  0  0
  192.3040  177.3240  144.3300 C   0  0  0  0  0  1  0  0  0  0  0  0
  194.7870  177.4670  145.7270 C   0  0  0  0  0  1  0  0  0  0  0  0
  196.0570  172.9410  144.7030 O   0  0  0  0  0  1  0  0  0  0  0  0
  194.0260  175.6800  147.0270 F   0  0  0  0  0  0  0  0  0  0  0  0
  188.7560  176.8390  142.5270 O   0  0  0  0  0  0  0  0  0  0  0  0
  187.1520  178.4760  143.1840 C   0  0  0  0  0  3  0  0  0  0  0  0
  185.7730  178.5520  145.2490 C   0  0  0  0  0  3  0  0  0  0  0  0
  186.4950  177.8640  146.1530 C   0  0  0  0  0  0  0  0  0  0  0  0
  187.9400  177.5820  145.9940 C   0  0  0  0  0  3  0  0  0  0  0  0
  186.2230  179.0650  143.9380 C   0  0  0  0  0  0  0  0  0  0  0  0
  187.8310  177.1950  143.5470 C   0  0  2  0  0  3  0  0  0  0  0  0
  188.5560  177.3200  144.8420 C   0  0  0  0  0  3  0  0  0  0  0  0
  185.6110  180.1690  143.4490 F   0  0  0  0  0  0  0  0  0  0  0  0
  184.8510  178.2990  147.9640 O   0  0  0  0  0  0  0  0  0  0  0  0
  185.8640  177.5050  147.4380 C   0  0  0  0  0  0  0  0  0  0  0  0
  186.2300  176.4790  148.0710 O   0  0  0  0  0  1  0  0  0  0  0  0
  1  8  1  0  0  0  0
  2  5  2  0  0  0  0
  2  8  1  0  0  0  0
  3  7  1  0  0  0  0
  3 24  1  0  0  0  0
  4  6  1  0  0  0  0
  4  7  2  0  0  0  0
  5  4  1  0  0  0  0
  7 11  1  0  0  0  0
  8  3  2  0  0  0  0
 11 10  1  0  0  0  0
 11  9  2  0  0  0  0
 12 16  1  0  0  0  0
 12 15  1  0  0  0  0
 13 19  1  0  0  0  0
 15 21  1  6  0  0  0
 15 23  1  0  0  0  0
 16 22  1  6  0  0  0
 16 19  1  0  0  0  0
 17 10  1  6  0  0  0
 17 13  1  0  0  0  0
 17 18  1  0  0  0  0
 17 14  1  0  0  0  0
 18 20  1  6  0  0  0
 18 14  1  0  0  0  0
 18 15  1  0  0  0  0
 25 30  1  0  0  0  0
 25 29  2  0  0  0  0
 26 27  2  0  0  0  0
 27 34  1  0  0  0  0
 28 27  1  0  0  0  0
 29 26  1  0  0  0  0
 30 24  1  6  0  0  0
 30 31  1  0  0  0  0
 31 28  2  0  0  0  0
 32 29  1  0  0  0  0
 34 33  2  0  0  0  0
 34 35  1  0  0  0  0
M  END
>  <MODEL>
7

>  <REMARK>
 VINA RESULT:      -7.9      2.147      7.715
  Name = 
  5 active torsions:
  status: ('A' for Active; 'I' for Inactive)
    1  A    between atoms: C_8  and  O_16
    2  A    between atoms: C_10  and  C_14
    3  A    between atoms: O_16  and  C_25
    4  A    between atoms: C_22  and  N_28
    5  A    between atoms: C_29  and  C_34
                            x       y       z     vdW  Elec       q    Type
                         _______ _______ _______ _____ _____    ______ ____

>  <TORSDO>
F 5

$$$$
=
 OpenBabel11062421583D

 35 38  0  0  1  0  0  0  0  0999 V2000
  187.3430  175.2890  138.2960 C   0  0  0  0  0  1  0  0  0  0  0  0
  188.4500  173.1750  138.9300 C   0  0  0  0  0  3  0  0  0  0  0  0
  188.5500  174.9980  140.5230 C   0  0  0  0  0  0  0  0  0  0  0  0
  189.5090  172.8180  141.0260 C   0  0  0  0  0  0  0  0  0  0  0  0
  189.1230  172.3810  139.7990 N   0  0  0  0  0  0  0  0  0  0  0  0
  190.1790  171.9080  141.8970 N   0  0  0  0  0  1  0  0  0  0  0  0
  189.2200  174.1420  141.4310 C   0  0  0  0  0  0  0  0  0  0  0  0
  188.1420  174.4900  139.2680 C   0  0  0  0  0  0  0  0  0  0  0  0
  189.0670  174.2260  143.8100 O   0  0  0  0  0  0  0  0  0  0  0  0
  190.7130  175.5840  142.8770 N   0  0  0  0  0  2  0  0  0  0  0  0
  189.6420  174.6390  142.7680 C   0  0  0  0  0  0  0  0  0  0  0  0
  192.4370  174.9230  146.7440 C   0  0  0  0  0  2  0  0  0  0  0  0
  190.2380  176.2160  145.2880 C   0  0  0  0  0  2  0  0  0  0  0  0
  192.2830  177.1600  143.9790 C   0  0  0  0  0  2  0  0  0  0  0  0
  193.3810  175.6510  145.7840 C   0  0  2  0  0  0  0  0  0  0  0  0
  191.4610  175.8510  147.4730 C   0  0  1  0  0  3  0  0  0  0  0  0
  191.2590  176.0530  144.1460 C   0  0  2  0  0  0  0  0  0  0  0  0
  192.7540  175.7510  144.3570 C   0  0  1  0  0  0  0  0  0  0  0  0
  190.7830  176.8670  146.5540 C   0  0  0  0  0  2  0  0  0  0  0  0
  193.4750  175.0910  143.1830 C   0  0  0  0  0  1  0  0  0  0  0  0
  194.6720  174.8460  145.7610 C   0  0  0  0  0  1  0  0  0  0  0  0
  190.4980  175.0970  148.1410 O   0  0  0  0  0  1  0  0  0  0  0  0
  193.7040  176.9090  146.2790 F   0  0  0  0  0  0  0  0  0  0  0  0
  188.3090  176.3310  140.9020 O   0  0  0  0  0  0  0  0  0  0  0  0
  186.2540  177.5410  140.8880 C   0  0  0  0  0  3  0  0  0  0  0  0
  184.7030  177.9800  142.7770 C   0  0  0  0  0  3  0  0  0  0  0  0
  185.4900  177.9330  143.8680 C   0  0  0  0  0  0  0  0  0  0  0  0
  186.9650  178.0540  143.8110 C   0  0  0  0  0  3  0  0  0  0  0  0
  185.1260  178.0680  141.3640 C   0  0  0  0  0  0  0  0  0  0  0  0
  187.2210  176.7560  141.7140 C   0  0  2  0  0  3  0  0  0  0  0  0
  187.7450  177.5700  142.8460 C   0  0  0  0  0  3  0  0  0  0  0  0
  184.2850  178.6700  140.4900 F   0  0  0  0  0  0  0  0  0  0  0  0
  184.0030  178.9500  145.5790 O   0  0  0  0  0  0  0  0  0  0  0  0
  184.8550  177.9180  145.2000 C   0  0  0  0  0  0  0  0  0  0  0  0
  185.0710  176.9740  146.0070 O   0  0  0  0  0  1  0  0  0  0  0  0
  1  8  1  0  0  0  0
  2  8  2  0  0  0  0
  2  5  1  0  0  0  0
  3 24  1  0  0  0  0
  3  7  2  0  0  0  0
  4  7  1  0  0  0  0
  4  6  1  0  0  0  0
  5  4  2  0  0  0  0
  7 11  1  0  0  0  0
  8  3  1  0  0  0  0
 11 10  1  0  0  0  0
 11  9  2  0  0  0  0
 12 16  1  0  0  0  0
 13 19  1  0  0  0  0
 14 17  1  0  0  0  0
 14 18  1  0  0  0  0
 15 21  1  6  0  0  0
 15 23  1  0  0  0  0
 15 12  1  0  0  0  0
 16 22  1  6  0  0  0
 17 10  1  6  0  0  0
 17 18  1  0  0  0  0
 17 13  1  0  0  0  0
 18 20  1  6  0  0  0
 18 15  1  0  0  0  0
 19 16  1  0  0  0  0
 25 29  2  0  0  0  0
 25 30  1  0  0  0  0
 26 27  2  0  0  0  0
 27 34  1  0  0  0  0
 28 27  1  0  0  0  0
 29 26  1  0  0  0  0
 30 24  1  6  0  0  0
 30 31  1  0  0  0  0
 31 28  2  0  0  0  0
 32 29  1  0  0  0  0
 34 33  2  0  0  0  0
 34 35  1  0  0  0  0
M  END
>  <MODEL>
8

>  <REMARK>
 VINA RESULT:      -7.8      2.783      7.470
  Name = 
  5 active torsions:
  status: ('A' for Active; 'I' for Inactive)
    1  A    between atoms: C_8  and  O_16
    2  A    between atoms: C_10  and  C_14
    3  A    between atoms: O_16  and  C_25
    4  A    between atoms: C_22  and  N_28
    5  A    between atoms: C_29  and  C_34
                            x       y       z     vdW  Elec       q    Type
                         _______ _______ _______ _____ _____    ______ ____

>  <TORSDO>
F 5

$$$$
=
 OpenBabel11062421583D

 35 38  0  0  1  0  0  0  0  0999 V2000
  187.1050  177.8420  146.6880 C   0  0  0  0  0  1  0  0  0  0  0  0
  186.3270  178.6620  144.4930 C   0  0  0  0  0  3  0  0  0  0  0  0
  187.4880  176.5360  144.5320 C   0  0  0  0  0  0  0  0  0  0  0  0
  186.5740  177.4470  142.4680 C   0  0  0  0  0  0  0  0  0  0  0  0
  186.1410  178.5340  143.1560 N   0  0  0  0  0  0  0  0  0  0  0  0
  186.3060  177.3710  141.0690 N   0  0  0  0  0  1  0  0  0  0  0  0
  187.2520  176.4040  143.1410 C   0  0  0  0  0  0  0  0  0  0  0  0
  186.9930  177.6720  145.2110 C   0  0  0  0  0  0  0  0  0  0  0  0
  187.0600  174.1500  142.3860 O   0  0  0  0  0  0  0  0  0  0  0  0
  188.9850  175.2630  141.6930 N   0  0  0  0  0  2  0  0  0  0  0  0
  187.7410  175.2100  142.4010 C   0  0  0  0  0  0  0  0  0  0  0  0
  191.4820  173.7280  138.5680 C   0  0  0  0  0  2  0  0  0  0  0  0
  188.7230  173.9200  139.5570 C   0  0  0  0  0  2  0  0  0  0  0  0
  189.9080  172.9590  141.6680 C   0  0  0  0  0  2  0  0  0  0  0  0
  191.8420  173.1740  139.9490 C   0  0  2  0  0  0  0  0  0  0  0  0
  190.3520  172.9630  137.8730 C   0  0  1  0  0  3  0  0  0  0  0  0
  189.4960  174.1780  140.8630 C   0  0  2  0  0  0  0  0  0  0  0  0
  190.9900  173.8620  141.0620 C   0  0  1  0  0  0  0  0  0  0  0  0
  189.1570  172.6810  138.7830 C   0  0  0  0  0  2  0  0  0  0  0  0
  191.7020  174.6560  142.1560 C   0  0  0  0  0  1  0  0  0  0  0  0
  193.3260  173.4490  140.1460 C   0  0  0  0  0  1  0  0  0  0  0  0
  189.9340  173.6610  136.7410 O   0  0  0  0  0  1  0  0  0  0  0  0
  191.6850  171.7940  139.9770 F   0  0  0  0  0  0  0  0  0  0  0  0
  188.2100  175.5260  145.1940 O   0  0  0  0  0  0  0  0  0  0  0  0
  189.8680  175.3410  146.8980 C   0  0  0  0  0  3  0  0  0  0  0  0
  192.3340  175.5430  146.6860 C   0  0  0  0  0  3  0  0  0  0  0  0
  192.5100  176.3310  145.6090 C   0  0  0  0  0  0  0  0  0  0  0  0
  191.4420  177.1900  145.0490 C   0  0  0  0  0  3  0  0  0  0  0  0
  191.0850  175.3140  147.4410 C   0  0  0  0  0  0  0  0  0  0  0  0
  189.6090  175.5660  145.4430 C   0  0  2  0  0  3  0  0  0  0  0  0
  190.1460  176.8830  145.0000 C   0  0  0  0  0  3  0  0  0  0  0  0
  191.1900  174.9990  148.7540 F   0  0  0  0  0  0  0  0  0  0  0  0
  194.7300  177.4440  145.5400 O   0  0  0  0  0  1  0  0  0  0  0  0
  193.8670  176.4700  145.0470 C   0  0  0  0  0  0  0  0  0  0  0  0
  194.2630  175.7130  144.1210 O   0  0  0  0  0  0  0  0  0  0  0  0
  2  8  1  0  0  0  0
  3 24  1  0  0  0  0
  3  8  2  0  0  0  0
  4  7  2  0  0  0  0
  4  5  1  0  0  0  0
  5  2  2  0  0  0  0
  6  4  1  0  0  0  0
  7  3  1  0  0  0  0
  8  1  1  0  0  0  0
  9 11  2  0  0  0  0
 10 11  1  0  0  0  0
 11  7  1  0  0  0  0
 12 15  1  0  0  0  0
 13 17  1  0  0  0  0
 15 23  1  0  0  0  0
 15 21  1  1  0  0  0
 15 18  1  0  0  0  0
 16 22  1  6  0  0  0
 16 12  1  0  0  0  0
 16 19  1  0  0  0  0
 17 18  1  0  0  0  0
 17 14  1  0  0  0  0
 17 10  1  1  0  0  0
 18 14  1  0  0  0  0
 18 20  1  1  0  0  0
 19 13  1  0  0  0  0
 25 29  2  0  0  0  0
 26 29  1  0  0  0  0
 27 26  2  0  0  0  0
 28 27  1  0  0  0  0
 29 32  1  0  0  0  0
 30 24  1  1  0  0  0
 30 25  1  0  0  0  0
 31 28  2  0  0  0  0
 31 30  1  0  0  0  0
 34 33  1  0  0  0  0
 34 27  1  0  0  0  0
 35 34  2  0  0  0  0
M  END
>  <MODEL>
9

>  <REMARK>
 VINA RESULT:      -7.8      3.062      6.192
  Name = 
  5 active torsions:
  status: ('A' for Active; 'I' for Inactive)
    1  A    between atoms: C_8  and  O_16
    2  A    between atoms: C_10  and  C_14
    3  A    between atoms: O_16  and  C_25
    4  A    between atoms: C_22  and  N_28
    5  A    between atoms: C_29  and  C_34
                            x       y       z     vdW  Elec       q    Type
                         _______ _______ _______ _____ _____    ______ ____

>  <TORSDO>
F 5

$$$$
