=
 OpenBabel11062422323D

 43 52  0  0  1  0  0  0  0  0999 V2000
  189.9430  177.5830  143.9990 C   0  0  0  0  0  2  0  0  0  0  0  0
  188.0230  178.0660  142.6170 C   0  0  1  0  0  3  0  0  0  0  0  0
  188.4990  175.6550  144.3650 C   0  0  2  0  0  0  0  0  0  0  0  0
  188.6530  177.1230  144.6570 C   0  0  2  0  0  0  0  0  0  0  0  0
  188.0420  176.7200  143.3400 C   0  0  2  0  0  0  0  0  0  0  0  0
  189.3010  177.2950  142.6590 C   0  0  2  0  0  3  0  0  0  0  0  0
  188.6110  176.1420  145.7650 N   0  0  0  0  0  0  0  0  0  0  0  0
  188.9150  174.6670  141.4750 C   0  0  0  0  0  3  0  0  0  0  0  0
  189.8420  173.6010  144.9460 C   0  0  0  0  0  3  0  0  0  0  0  0
  190.2770  171.8890  143.3070 N   0  0  0  0  0  0  0  0  0  0  0  0
  189.4230  174.0150  142.5290 C   0  0  0  0  0  0  0  0  0  0  0  0
  188.7140  174.0050  140.1390 C   0  0  0  0  0  2  0  0  0  0  0  0
  189.9430  172.6420  142.3040 C   0  0  0  0  0  0  0  0  0  0  0  0
  189.6450  174.6800  143.8950 C   0  0  1  0  0  3  0  0  0  0  0  0
  189.8610  173.0440  139.8390 C   0  0  0  0  0  2  0  0  0  0  0  0
  190.0510  172.1400  140.9690 N   0  0  0  0  0  2  0  0  0  0  0  0
  190.1670  172.3380  144.6620 C   0  0  0  0  0  3  0  0  0  0  0  0
  189.8350  177.3790  147.3370 O   0  0  0  0  0  1  0  0  0  0  0  0
  189.7950  175.1220  147.5040 O   0  0  0  0  0  1  0  0  0  0  0  0
  189.8490  176.1870  146.6030 C   0  0  0  0  0  0  0  0  0  0  0  0
  191.1000  176.0980  145.8410 N   0  0  0  0  0  2  0  0  0  0  0  0
  192.1930  175.6380  146.6880 C   0  0  0  0  0  2  0  0  0  0  0  0
  193.4810  175.7420  145.9450 C   0  0  0  0  0  0  0  0  0  0  0  0
  194.1020  176.9180  145.9290 C   0  0  0  0  0  2  0  0  0  0  0  0
  194.9430  173.8590  145.5590 N   0  0  0  0  0  2  0  0  0  0  0  0
  193.9750  174.6030  145.1290 C   0  0  0  0  0  0  0  0  0  0  0  0
  193.2820  174.2160  143.8610 C   0  0  0  0  0  2  0  0  0  0  0  0
  193.0770  175.4370  142.9790 C   0  0  0  0  0  3  0  0  0  0  0  0
  194.2160  175.5260  141.9840 C   0  0  0  0  0  2  0  0  0  0  0  0
  192.8690  174.9850  141.5450 C   0  0  0  0  0  2  0  0  0  0  0  0
  187.3410  177.8900  141.2670 C   0  0  0  0  0  2  0  0  0  0  0  0
  185.4780  178.4260  142.5720 C   0  0  0  0  0  2  0  0  0  0  0  0
  183.5750  179.0590  143.8520 O   0  0  0  0  0  1  0  0  0  0  0  0
  183.7280  177.8740  140.4280 C   0  0  0  0  0  2  0  0  0  0  0  0
  185.2290  178.0690  140.2450 C   0  0  0  0  0  2  0  0  0  0  0  0
  185.9240  177.6110  141.4450 N   0  0  0  0  0  0  0  0  0  0  0  0
  183.9700  178.2670  142.7710 C   0  0  1  0  0  3  0  0  0  0  0  0
  183.2520  178.6790  141.5580 N   0  0  0  0  0  0  0  0  0  0  0  0
  181.8430  178.3440  141.7500 C   0  0  0  0  0  2  0  0  0  0  0  0
  181.0020  178.8350  140.5800 C   0  0  2  0  0  0  0  0  0  0  0  0
  179.7590  178.0000  140.3900 C   0  0  0  0  0  2  0  0  0  0  0  0
  180.6830  180.2000  140.6910 O   0  0  0  0  0  0  0  0  0  0  0  0
  179.7080  179.3030  141.1550 C   0  0  2  0  0  3  0  0  0  0  0  0
  2 31  1  6  0  0  0
  2  6  1  0  0  0  0
  2  5  1  0  0  0  0
  3  4  1  0  0  0  0
  3  7  1  1  0  0  0
  4  1  1  6  0  0  0
  4  7  1  0  0  0  0
  5  3  1  0  0  0  0
  5  4  1  0  0  0  0
  6  5  1  0  0  0  0
  6  1  1  0  0  0  0
  7 20  1  0  0  0  0
  8 11  2  0  0  0  0
 10 17  1  0  0  0  0
 11 14  1  0  0  0  0
 12  8  1  0  0  0  0
 13 11  1  0  0  0  0
 13 10  2  0  0  0  0
 14  3  1  0  0  0  0
 14  9  1  0  0  0  0
 15 12  1  0  0  0  0
 15 16  1  0  0  0  0
 16 13  1  0  0  0  0
 17  9  2  0  0  0  0
 20 18  1  0  0  0  0
 20 19  1  0  0  0  0
 21 20  1  0  0  0  0
 21 22  1  0  0  0  0
 23 22  1  0  0  0  0
 24 23  2  0  0  0  0
 26 25  2  0  0  0  0
 26 23  1  0  0  0  0
 27 26  1  0  0  0  0
 28 27  1  0  0  0  0
 29 28  1  0  0  0  0
 30 29  1  0  0  0  0
 30 28  1  0  0  0  0
 31 36  1  0  0  0  0
 32 37  1  0  0  0  0
 34 38  1  0  0  0  0
 35 34  1  0  0  0  0
 35 36  1  0  0  0  0
 36 32  1  0  0  0  0
 37 33  1  0  0  0  0
 38 39  1  0  0  0  0
 38 37  1  0  0  0  0
 40 42  1  0  0  0  0
 40 43  1  0  0  0  0
 40 39  1  0  0  0  0
 41 40  1  0  0  0  0
 41 43  1  0  0  0  0
 42 43  1  0  0  0  0
M  END
>  <MODEL>
1

>  <REMARK>
 VINA RESULT:      -7.4      0.000      0.000
  Name = 
  12 active torsions:
  status: ('A' for Active; 'I' for Inactive)
    1  A    between atoms: C_1  and  C_12
    2  A    between atoms: C_1  and  N_35
    3  A    between atoms: C_4  and  C_30
    4  A    between atoms: C_5  and  C_25
    5  A    between atoms: C_5  and  C_43
    6  A    between atoms: C_10  and  C_13
    7  A    between atoms: C_10  and  N_39
    8  A    between atoms: N_16  and  C_24
    9  A    between atoms: N_16  and  C_43
   10  A    between atoms: C_24  and  N_41
   11  A    between atoms: C_25  and  C_30
   12  A    between atoms: C_26  and  C_28
                            x       y       z     vdW  Elec       q    Type
                         _______ _______ _______ _____ _____    ______ ____

>  <TORSDO>
F 12

$$$$
=
 OpenBabel11062422323D

 43 52  0  0  1  0  0  0  0  0999 V2000
  188.1480  174.4140  141.9910 C   0  0  0  0  0  2  0  0  0  0  0  0
  187.8250  176.6280  141.0820 C   0  0  1  0  0  3  0  0  0  0  0  0
  189.4280  175.8280  143.5080 C   0  0  2  0  0  0  0  0  0  0  0  0
  189.4070  175.2570  142.1160 C   0  0  2  0  0  0  0  0  0  0  0  0
  188.6220  176.5160  142.3800 C   0  0  2  0  0  0  0  0  0  0  0  0
  187.3430  175.6880  142.1370 C   0  0  2  0  0  3  0  0  0  0  0  0
  190.5160  174.9290  143.0390 N   0  0  0  0  0  0  0  0  0  0  0  0
  187.1090  177.3380  144.8650 C   0  0  0  0  0  3  0  0  0  0  0  0
  189.5360  174.6130  145.7150 C   0  0  0  0  0  3  0  0  0  0  0  0
  188.3450  175.4220  147.6450 N   0  0  0  0  0  0  0  0  0  0  0  0
  187.7840  176.3630  145.4890 C   0  0  0  0  0  0  0  0  0  0  0  0
  186.3070  178.3680  145.6130 C   0  0  0  0  0  2  0  0  0  0  0  0
  187.5890  176.2190  146.9540 C   0  0  0  0  0  0  0  0  0  0  0  0
  188.5970  175.2990  144.7380 C   0  0  1  0  0  3  0  0  0  0  0  0
  185.6070  177.7330  146.8120 C   0  0  0  0  0  2  0  0  0  0  0  0
  186.5760  176.9880  147.6090 N   0  0  0  0  0  2  0  0  0  0  0  0
  189.3860  174.6480  147.0400 C   0  0  0  0  0  3  0  0  0  0  0  0
  189.3370  172.9350  143.4030 O   0  0  0  0  0  1  0  0  0  0  0  0
  191.2260  172.8830  142.1550 O   0  0  0  0  0  1  0  0  0  0  0  0
  190.6300  173.4570  143.2800 C   0  0  0  0  0  0  0  0  0  0  0  0
  191.4170  173.0970  144.4660 N   0  0  0  0  0  2  0  0  0  0  0  0
  192.4570  172.1340  144.1270 C   0  0  0  0  0  2  0  0  0  0  0  0
  193.7630  172.5900  144.6820 C   0  0  0  0  0  0  0  0  0  0  0  0
  194.3090  171.8790  145.6630 C   0  0  0  0  0  2  0  0  0  0  0  0
  194.3520  174.2190  142.9990 N   0  0  0  0  0  2  0  0  0  0  0  0
  194.3560  173.8810  144.2490 C   0  0  0  0  0  0  0  0  0  0  0  0
  194.8510  174.8700  145.2570 C   0  0  0  0  0  2  0  0  0  0  0  0
  193.9210  176.0710  145.3140 C   0  0  0  0  0  3  0  0  0  0  0  0
  192.9020  175.8570  146.4150 C   0  0  0  0  0  2  0  0  0  0  0  0
  194.0910  176.7680  146.6530 C   0  0  0  0  0  2  0  0  0  0  0  0
  187.0160  177.9170  141.1100 C   0  0  0  0  0  2  0  0  0  0  0  0
  185.1480  178.4670  142.4010 C   0  0  0  0  0  2  0  0  0  0  0  0
  183.2390  179.1140  143.6650 O   0  0  0  0  0  1  0  0  0  0  0  0
  183.4040  177.8440  140.2720 C   0  0  0  0  0  2  0  0  0  0  0  0
  184.9030  178.0490  140.0830 C   0  0  0  0  0  2  0  0  0  0  0  0
  185.6020  177.6280  141.2950 N   0  0  0  0  0  0  0  0  0  0  0  0
  183.6420  178.2990  142.6040 C   0  0  1  0  0  3  0  0  0  0  0  0
  182.9200  178.6720  141.3810 N   0  0  0  0  0  0  0  0  0  0  0  0
  181.5140  178.3280  141.5820 C   0  0  0  0  0  2  0  0  0  0  0  0
  180.6490  178.8980  140.4660 C   0  0  2  0  0  0  0  0  0  0  0  0
  179.3890  178.0910  140.2630 C   0  0  0  0  0  2  0  0  0  0  0  0
  180.3530  180.2580  140.6660 O   0  0  0  0  0  0  0  0  0  0  0  0
  179.3780  179.3470  141.1030 C   0  0  2  0  0  3  0  0  0  0  0  0
  1  6  1  0  0  0  0
  2 31  1  1  0  0  0
  2  6  1  0  0  0  0
  2  5  1  0  0  0  0
  3  7  1  1  0  0  0
  3 14  1  0  0  0  0
  4  1  1  6  0  0  0
  4  5  1  0  0  0  0
  4  7  1  0  0  0  0
  4  3  1  0  0  0  0
  5  3  1  0  0  0  0
  6  5  1  0  0  0  0
  7 20  1  0  0  0  0
  8 11  2  0  0  0  0
  8 12  1  0  0  0  0
  9 17  2  0  0  0  0
 11 13  1  0  0  0  0
 12 15  1  0  0  0  0
 13 16  1  0  0  0  0
 13 10  2  0  0  0  0
 14 11  1  0  0  0  0
 14  9  1  0  0  0  0
 15 16  1  0  0  0  0
 17 10  1  0  0  0  0
 19 20  1  0  0  0  0
 20 18  1  0  0  0  0
 20 21  1  0  0  0  0
 22 21  1  0  0  0  0
 22 23  1  0  0  0  0
 23 24  2  0  0  0  0
 25 26  2  0  0  0  0
 26 23  1  0  0  0  0
 26 27  1  0  0  0  0
 27 28  1  0  0  0  0
 28 29  1  0  0  0  0
 28 30  1  0  0  0  0
 29 30  1  0  0  0  0
 31 36  1  0  0  0  0
 32 37  1  0  0  0  0
 34 38  1  0  0  0  0
 35 34  1  0  0  0  0
 35 36  1  0  0  0  0
 36 32  1  0  0  0  0
 37 33  1  0  0  0  0
 38 39  1  0  0  0  0
 38 37  1  0  0  0  0
 40 42  1  0  0  0  0
 40 43  1  0  0  0  0
 40 39  1  0  0  0  0
 41 40  1  0  0  0  0
 41 43  1  0  0  0  0
 42 43  1  0  0  0  0
M  END
>  <MODEL>
2

>  <REMARK>
 VINA RESULT:      -7.3      1.945      3.852
  Name = 
  12 active torsions:
  status: ('A' for Active; 'I' for Inactive)
    1  A    between atoms: C_1  and  C_12
    2  A    between atoms: C_1  and  N_35
    3  A    between atoms: C_4  and  C_30
    4  A    between atoms: C_5  and  C_25
    5  A    between atoms: C_5  and  C_43
    6  A    between atoms: C_10  and  C_13
    7  A    between atoms: C_10  and  N_39
    8  A    between atoms: N_16  and  C_24
    9  A    between atoms: N_16  and  C_43
   10  A    between atoms: C_24  and  N_41
   11  A    between atoms: C_25  and  C_30
   12  A    between atoms: C_26  and  C_28
                            x       y       z     vdW  Elec       q    Type
                         _______ _______ _______ _____ _____    ______ ____

>  <TORSDO>
F 12

$$$$
=
 OpenBabel11062422323D

 43 52  0  0  1  0  0  0  0  0999 V2000
  188.0810  175.9000  144.2990 C   0  0  0  0  0  2  0  0  0  0  0  0
  190.2250  176.0300  145.4020 C   0  0  1  0  0  3  0  0  0  0  0  0
  189.6630  175.7900  142.4490 C   0  0  2  0  0  0  0  0  0  0  0  0
  189.0780  176.7100  143.4860 C   0  0  2  0  0  0  0  0  0  0  0  0
  190.2310  175.8260  143.8880 C   0  0  2  0  0  0  0  0  0  0  0  0
  189.2440  175.0750  144.8070 C   0  0  2  0  0  3  0  0  0  0  0  0
  188.9030  177.0040  142.0460 N   0  0  0  0  0  0  0  0  0  0  0  0
  190.8760  173.0120  143.0050 C   0  0  0  0  0  3  0  0  0  0  0  0
  188.5020  174.5790  140.5660 C   0  0  0  0  0  3  0  0  0  0  0  0
  189.1760  172.3630  139.9040 N   0  0  0  0  0  0  0  0  0  0  0  0
  190.0060  173.2210  142.0080 C   0  0  0  0  0  0  0  0  0  0  0  0
  191.8020  171.8270  143.0310 C   0  0  0  0  0  2  0  0  0  0  0  0
  189.8580  172.1520  140.9880 C   0  0  0  0  0  0  0  0  0  0  0  0
  189.0470  174.4200  141.9750 C   0  0  1  0  0  3  0  0  0  0  0  0
  191.0980  170.5850  142.4880 C   0  0  0  0  0  2  0  0  0  0  0  0
  190.4970  170.8890  141.1940 N   0  0  0  0  0  2  0  0  0  0  0  0
  188.5360  173.6170  139.6420 C   0  0  0  0  0  3  0  0  0  0  0  0
  187.3770  176.9130  140.2690 O   0  0  0  0  0  1  0  0  0  0  0  0
  186.8040  175.9950  142.2570 O   0  0  0  0  0  1  0  0  0  0  0  0
  187.4610  177.0720  141.6570 C   0  0  0  0  0  0  0  0  0  0  0  0
  186.7850  178.3140  142.0490 N   0  0  0  0  0  2  0  0  0  0  0  0
  185.4390  178.3720  141.4920 C   0  0  0  0  0  2  0  0  0  0  0  0
  184.4430  178.4650  142.5970 C   0  0  0  0  0  0  0  0  0  0  0  0
  183.1570  178.3200  142.2950 C   0  0  0  0  0  2  0  0  0  0  0  0
  185.0960  180.0940  144.2560 N   0  0  0  0  0  2  0  0  0  0  0  0
  184.8700  178.8530  143.9660 C   0  0  0  0  0  0  0  0  0  0  0  0
  184.9210  177.8390  145.0650 C   0  0  0  0  0  2  0  0  0  0  0  0
  185.8940  178.2830  146.1450 C   0  0  0  0  0  3  0  0  0  0  0  0
  185.1520  178.4030  147.4610 C   0  0  0  0  0  2  0  0  0  0  0  0
  186.0130  177.1860  147.1880 C   0  0  0  0  0  2  0  0  0  0  0  0
  191.4030  175.2750  146.0040 C   0  0  0  0  0  2  0  0  0  0  0  0
  193.3240  176.5580  145.6570 C   0  0  0  0  0  2  0  0  0  0  0  0
  195.3220  177.8210  145.3820 O   0  0  0  0  0  1  0  0  0  0  0  0
  194.6850  174.3490  144.5460 C   0  0  0  0  0  2  0  0  0  0  0  0
  193.3970  174.2110  145.3510 C   0  0  0  0  0  2  0  0  0  0  0  0
  192.5790  175.4050  145.1570 N   0  0  0  0  0  0  0  0  0  0  0  0
  194.6330  176.7140  144.8810 C   0  0  1  0  0  3  0  0  0  0  0  0
  195.4540  175.5040  145.0230 N   0  0  0  0  0  0  0  0  0  0  0  0
  196.6000  175.6470  144.1290 C   0  0  0  0  0  2  0  0  0  0  0  0
  196.2080  175.3430  142.6890 C   0  0  2  0  0  0  0  0  0  0  0  0
  196.2450  176.5790  141.8230 C   0  0  0  0  0  2  0  0  0  0  0  0
  196.9860  174.3120  142.1330 O   0  0  0  0  0  0  0  0  0  0  0  0
  197.4130  175.6200  141.8550 C   0  0  2  0  0  3  0  0  0  0  0  0
  1  6  1  0  0  0  0
  2 31  1  1  0  0  0
  3  7  1  6  0  0  0
  3  4  1  0  0  0  0
  3  5  1  0  0  0  0
  4  5  1  0  0  0  0
  4  1  1  1  0  0  0
  5  6  1  0  0  0  0
  5  2  1  0  0  0  0
  6  2  1  0  0  0  0
  7  4  1  0  0  0  0
  8 12  1  0  0  0  0
  9 14  1  0  0  0  0
 10 13  2  0  0  0  0
 11  8  2  0  0  0  0
 13 16  1  0  0  0  0
 13 11  1  0  0  0  0
 14 11  1  0  0  0  0
 14  3  1  0  0  0  0
 15 12  1  0  0  0  0
 16 15  1  0  0  0  0
 17 10  1  0  0  0  0
 17  9  2  0  0  0  0
 18 20  1  0  0  0  0
 20  7  1  0  0  0  0
 20 21  1  0  0  0  0
 20 19  1  0  0  0  0
 22 21  1  0  0  0  0
 22 23  1  0  0  0  0
 23 26  1  0  0  0  0
 24 23  2  0  0  0  0
 26 25  2  0  0  0  0
 26 27  1  0  0  0  0
 27 28  1  0  0  0  0
 28 30  1  0  0  0  0
 28 29  1  0  0  0  0
 30 29  1  0  0  0  0
 34 38  1  0  0  0  0
 34 35  1  0  0  0  0
 36 35  1  0  0  0  0
 36 32  1  0  0  0  0
 36 31  1  0  0  0  0
 37 38  1  0  0  0  0
 37 33  1  0  0  0  0
 37 32  1  0  0  0  0
 39 38  1  0  0  0  0
 40 39  1  0  0  0  0
 41 43  1  0  0  0  0
 41 40  1  0  0  0  0
 42 40  1  0  0  0  0
 43 42  1  0  0  0  0
 43 40  1  0  0  0  0
M  END
>  <MODEL>
3

>  <REMARK>
 VINA RESULT:      -7.0      2.725      9.040
  Name = 
  12 active torsions:
  status: ('A' for Active; 'I' for Inactive)
    1  A    between atoms: C_1  and  C_12
    2  A    between atoms: C_1  and  N_35
    3  A    between atoms: C_4  and  C_30
    4  A    between atoms: C_5  and  C_25
    5  A    between atoms: C_5  and  C_43
    6  A    between atoms: C_10  and  C_13
    7  A    between atoms: C_10  and  N_39
    8  A    between atoms: N_16  and  C_24
    9  A    between atoms: N_16  and  C_43
   10  A    between atoms: C_24  and  N_41
   11  A    between atoms: C_25  and  C_30
   12  A    between atoms: C_26  and  C_28
                            x       y       z     vdW  Elec       q    Type
                         _______ _______ _______ _____ _____    ______ ____

>  <TORSDO>
F 12

$$$$
=
 OpenBabel11062422323D

 43 52  0  0  1  0  0  0  0  0999 V2000
  193.0880  173.6010  142.0110 C   0  0  0  0  0  2  0  0  0  0  0  0
  190.7790  173.9490  141.3990 C   0  0  1  0  0  3  0  0  0  0  0  0
  192.6440  175.8650  142.7950 C   0  0  2  0  0  0  0  0  0  0  0  0
  192.8420  175.0300  141.5590 C   0  0  2  0  0  0  0  0  0  0  0  0
  191.4700  175.0650  142.1810 C   0  0  2  0  0  0  0  0  0  0  0  0
  191.6700  173.5780  142.5390 C   0  0  2  0  0  3  0  0  0  0  0  0
  193.7640  176.1490  141.8580 N   0  0  0  0  0  0  0  0  0  0  0  0
  190.7000  175.2860  145.1160 C   0  0  0  0  0  3  0  0  0  0  0  0
  194.2830  176.2870  144.6640 C   0  0  0  0  0  3  0  0  0  0  0  0
  193.5440  176.5070  146.9460 N   0  0  0  0  0  0  0  0  0  0  0  0
  191.9800  175.6220  145.3270 C   0  0  0  0  0  0  0  0  0  0  0  0
  189.6430  175.4330  146.1770 C   0  0  0  0  0  2  0  0  0  0  0  0
  192.3740  175.9980  146.7090 C   0  0  0  0  0  0  0  0  0  0  0  0
  193.0710  175.4660  144.2580 C   0  0  1  0  0  3  0  0  0  0  0  0
  190.2090  175.0760  147.5490 C   0  0  0  0  0  2  0  0  0  0  0  0
  191.4430  175.8200  147.7800 N   0  0  0  0  0  2  0  0  0  0  0  0
  194.5030  176.7240  145.9060 C   0  0  0  0  0  3  0  0  0  0  0  0
  195.6810  175.4470  140.7040 O   0  0  0  0  0  1  0  0  0  0  0  0
  195.9190  176.7320  142.5540 O   0  0  0  0  0  1  0  0  0  0  0  0
  195.1810  175.6890  141.9900 C   0  0  0  0  0  0  0  0  0  0  0  0
  195.3540  174.4880  142.8150 N   0  0  0  0  0  2  0  0  0  0  0  0
  196.7620  174.1220  142.9110 C   0  0  0  0  0  2  0  0  0  0  0  0
  197.0020  173.3840  144.1840 C   0  0  0  0  0  0  0  0  0  0  0  0
  197.4090  174.0780  145.2430 C   0  0  0  0  0  2  0  0  0  0  0  0
  197.9110  171.2070  144.7020 N   0  0  0  0  0  2  0  0  0  0  0  0
  196.9290  171.9010  144.2210 C   0  0  0  0  0  0  0  0  0  0  0  0
  195.6730  171.1890  143.8280 C   0  0  0  0  0  2  0  0  0  0  0  0
  194.8240  170.9030  145.0560 C   0  0  0  0  0  3  0  0  0  0  0  0
  193.9770  172.1200  145.3670 C   0  0  0  0  0  2  0  0  0  0  0  0
  193.3580  170.9280  144.6640 C   0  0  0  0  0  2  0  0  0  0  0  0
  189.3180  173.8820  141.8240 C   0  0  0  0  0  2  0  0  0  0  0  0
  188.1430  175.6840  140.9140 C   0  0  0  0  0  2  0  0  0  0  0  0
  186.8610  177.4670  139.9970 O   0  0  0  0  0  1  0  0  0  0  0  0
  187.1940  176.4440  143.4610 C   0  0  0  0  0  2  0  0  0  0  0  0
  187.8130  175.0790  143.1790 C   0  0  0  0  0  2  0  0  0  0  0  0
  188.8130  175.2130  142.1230 N   0  0  0  0  0  0  0  0  0  0  0  0
  187.4940  177.0460  141.1690 C   0  0  1  0  0  3  0  0  0  0  0  0
  186.5160  176.9450  142.2600 N   0  0  0  0  0  0  0  0  0  0  0  0
  186.0630  178.3000  142.5670 C   0  0  0  0  0  2  0  0  0  0  0  0
  185.3020  178.3350  143.8850 C   0  0  2  0  0  0  0  0  0  0  0  0
  185.9080  179.3170  144.8580 C   0  0  0  0  0  2  0  0  0  0  0  0
  183.9310  178.5860  143.7000 O   0  0  0  0  0  0  0  0  0  0  0  0
  184.7240  179.7040  144.0030 C   0  0  2  0  0  3  0  0  0  0  0  0
  1  6  1  0  0  0  0
  2 31  1  1  0  0  0
  2  5  1  0  0  0  0
  2  6  1  0  0  0  0
  3  7  1  6  0  0  0
  3 14  1  0  0  0  0
  4  7  1  0  0  0  0
  4  1  1  1  0  0  0
  4  5  1  0  0  0  0
  4  3  1  0  0  0  0
  5  6  1  0  0  0  0
  5  3  1  0  0  0  0
  7 20  1  0  0  0  0
  8 11  2  0  0  0  0
  8 12  1  0  0  0  0
  9 17  2  0  0  0  0
 11 13  1  0  0  0  0
 12 15  1  0  0  0  0
 13 10  2  0  0  0  0
 13 16  1  0  0  0  0
 14  9  1  0  0  0  0
 14 11  1  0  0  0  0
 15 16  1  0  0  0  0
 17 10  1  0  0  0  0
 18 20  1  0  0  0  0
 20 19  1  0  0  0  0
 20 21  1  0  0  0  0
 21 22  1  0  0  0  0
 22 23  1  0  0  0  0
 23 26  1  0  0  0  0
 23 24  2  0  0  0  0
 26 25  2  0  0  0  0
 27 26  1  0  0  0  0
 27 28  1  0  0  0  0
 28 29  1  0  0  0  0
 30 28  1  0  0  0  0
 30 29  1  0  0  0  0
 31 36  1  0  0  0  0
 32 37  1  0  0  0  0
 32 36  1  0  0  0  0
 33 37  1  0  0  0  0
 35 34  1  0  0  0  0
 36 35  1  0  0  0  0
 37 38  1  0  0  0  0
 38 39  1  0  0  0  0
 38 34  1  0  0  0  0
 39 40  1  0  0  0  0
 40 43  1  0  0  0  0
 40 41  1  0  0  0  0
 42 40  1  0  0  0  0
 42 43  1  0  0  0  0
 43 41  1  0  0  0  0
M  END
>  <MODEL>
4

>  <REMARK>
 VINA RESULT:      -6.8      3.024      5.489
  Name = 
  12 active torsions:
  status: ('A' for Active; 'I' for Inactive)
    1  A    between atoms: C_1  and  C_12
    2  A    between atoms: C_1  and  N_35
    3  A    between atoms: C_4  and  C_30
    4  A    between atoms: C_5  and  C_25
    5  A    between atoms: C_5  and  C_43
    6  A    between atoms: C_10  and  C_13
    7  A    between atoms: C_10  and  N_39
    8  A    between atoms: N_16  and  C_24
    9  A    between atoms: N_16  and  C_43
   10  A    between atoms: C_24  and  N_41
   11  A    between atoms: C_25  and  C_30
   12  A    between atoms: C_26  and  C_28
                            x       y       z     vdW  Elec       q    Type
                         _______ _______ _______ _____ _____    ______ ____

>  <TORSDO>
F 12

$$$$
=
 OpenBabel11062422323D

 43 52  0  0  1  0  0  0  0  0999 V2000
  191.8850  176.8330  144.4210 C   0  0  0  0  0  2  0  0  0  0  0  0
  189.5750  176.7130  145.1130 C   0  0  1  0  0  3  0  0  0  0  0  0
  191.8630  174.9360  145.9510 C   0  0  2  0  0  0  0  0  0  0  0  0
  191.7610  176.4360  145.8830 C   0  0  2  0  0  0  0  0  0  0  0  0
  190.5160  175.6260  145.6300 C   0  0  2  0  0  0  0  0  0  0  0  0
  190.5720  176.1230  144.1710 C   0  0  2  0  0  3  0  0  0  0  0  0
  192.8560  175.7970  146.6470 N   0  0  0  0  0  0  0  0  0  0  0  0
  190.1900  173.1930  144.0370 C   0  0  0  0  0  3  0  0  0  0  0  0
  193.6930  173.3040  145.3620 C   0  0  0  0  0  3  0  0  0  0  0  0
  193.2060  171.2440  144.2120 N   0  0  0  0  0  0  0  0  0  0  0  0
  191.4820  172.9390  144.2830 C   0  0  0  0  0  0  0  0  0  0  0  0
  189.2540  172.1490  143.4900 C   0  0  0  0  0  2  0  0  0  0  0  0
  192.0220  171.6270  143.8450 C   0  0  0  0  0  0  0  0  0  0  0  0
  192.4510  173.9970  144.8300 C   0  0  1  0  0  3  0  0  0  0  0  0
  189.9700  171.2730  142.4640 C   0  0  0  0  0  2  0  0  0  0  0  0
  191.2150  170.7680  143.0330 N   0  0  0  0  0  2  0  0  0  0  0  0
  194.0440  172.0570  145.0410 C   0  0  0  0  0  3  0  0  0  0  0  0
  194.5620  177.4020  146.7650 O   0  0  0  0  0  1  0  0  0  0  0  0
  195.1190  175.2200  146.5320 O   0  0  0  0  0  1  0  0  0  0  0  0
  194.2040  176.2000  146.1420 C   0  0  0  0  0  0  0  0  0  0  0  0
  194.2810  176.3650  144.6850 N   0  0  0  0  0  2  0  0  0  0  0  0
  195.6240  176.7590  144.2770 C   0  0  0  0  0  2  0  0  0  0  0  0
  196.1830  175.7410  143.3420 C   0  0  0  0  0  0  0  0  0  0  0  0
  197.0690  174.8720  143.8190 C   0  0  0  0  0  2  0  0  0  0  0  0
  195.9030  176.9190  141.2520 N   0  0  0  0  0  2  0  0  0  0  0  0
  195.8650  175.7940  141.8920 C   0  0  0  0  0  0  0  0  0  0  0  0
  195.6240  174.5360  141.1180 C   0  0  0  0  0  2  0  0  0  0  0  0
  194.3790  173.8320  141.6330 C   0  0  0  0  0  3  0  0  0  0  0  0
  193.1870  174.7540  141.4740 C   0  0  0  0  0  2  0  0  0  0  0  0
  193.4100  173.6290  140.4820 C   0  0  0  0  0  2  0  0  0  0  0  0
  188.1990  176.1030  144.8800 C   0  0  0  0  0  2  0  0  0  0  0  0
  187.2300  176.7530  142.8560 C   0  0  0  0  0  2  0  0  0  0  0  0
  186.1800  177.3370  140.8020 O   0  0  0  0  0  1  0  0  0  0  0  0
  184.9910  177.8330  144.1920 C   0  0  0  0  0  2  0  0  0  0  0  0
  185.9800  176.8850  144.8630 C   0  0  0  0  0  2  0  0  0  0  0  0
  187.3050  177.0790  144.2780 N   0  0  0  0  0  0  0  0  0  0  0  0
  186.2300  177.6750  142.1560 C   0  0  1  0  0  3  0  0  0  0  0  0
  184.8990  177.5310  142.7600 N   0  0  0  0  0  0  0  0  0  0  0  0
  184.0390  178.5520  142.1680 C   0  0  0  0  0  2  0  0  0  0  0  0
  182.7830  177.9300  141.5730 C   0  0  2  0  0  0  0  0  0  0  0  0
  181.5310  178.6300  142.0410 C   0  0  0  0  0  2  0  0  0  0  0  0
  182.8350  177.8700  140.1690 O   0  0  0  0  0  0  0  0  0  0  0  0
  182.1600  178.9740  140.7110 C   0  0  2  0  0  3  0  0  0  0  0  0
  2 31  1  6  0  0  0
  2  5  1  0  0  0  0
  3  7  1  1  0  0  0
  4  1  1  6  0  0  0
  4  3  1  0  0  0  0
  4  7  1  0  0  0  0
  5  4  1  0  0  0  0
  5  3  1  0  0  0  0
  6  1  1  0  0  0  0
  6  2  1  0  0  0  0
  6  5  1  0  0  0  0
  8 11  2  0  0  0  0
 10 17  1  0  0  0  0
 11 14  1  0  0  0  0
 12  8  1  0  0  0  0
 13 10  2  0  0  0  0
 13 11  1  0  0  0  0
 14  9  1  0  0  0  0
 14  3  1  0  0  0  0
 15 16  1  0  0  0  0
 15 12  1  0  0  0  0
 16 13  1  0  0  0  0
 17  9  2  0  0  0  0
 20 19  1  0  0  0  0
 20  7  1  0  0  0  0
 20 18  1  0  0  0  0
 21 20  1  0  0  0  0
 22 21  1  0  0  0  0
 23 24  2  0  0  0  0
 23 22  1  0  0  0  0
 25 26  2  0  0  0  0
 26 23  1  0  0  0  0
 27 28  1  0  0  0  0
 27 26  1  0  0  0  0
 29 28  1  0  0  0  0
 30 29  1  0  0  0  0
 30 28  1  0  0  0  0
 32 36  1  0  0  0  0
 33 37  1  0  0  0  0
 34 35  1  0  0  0  0
 36 35  1  0  0  0  0
 36 31  1  0  0  0  0
 37 38  1  0  0  0  0
 37 32  1  0  0  0  0
 38 34  1  0  0  0  0
 39 38  1  0  0  0  0
 40 41  1  0  0  0  0
 40 39  1  0  0  0  0
 42 43  1  0  0  0  0
 42 40  1  0  0  0  0
 43 40  1  0  0  0  0
 43 41  1  0  0  0  0
M  END
>  <MODEL>
5

>  <REMARK>
 VINA RESULT:      -6.6      2.298      3.489
  Name = 
  12 active torsions:
  status: ('A' for Active; 'I' for Inactive)
    1  A    between atoms: C_1  and  C_12
    2  A    between atoms: C_1  and  N_35
    3  A    between atoms: C_4  and  C_30
    4  A    between atoms: C_5  and  C_25
    5  A    between atoms: C_5  and  C_43
    6  A    between atoms: C_10  and  C_13
    7  A    between atoms: C_10  and  N_39
    8  A    between atoms: N_16  and  C_24
    9  A    between atoms: N_16  and  C_43
   10  A    between atoms: C_24  and  N_41
   11  A    between atoms: C_25  and  C_30
   12  A    between atoms: C_26  and  C_28
                            x       y       z     vdW  Elec       q    Type
                         _______ _______ _______ _____ _____    ______ ____

>  <TORSDO>
F 12

$$$$
=
 OpenBabel11062422323D

 43 52  0  0  1  0  0  0  0  0999 V2000
  190.2330  174.7650  143.7760 C   0  0  0  0  0  2  0  0  0  0  0  0
  191.1370  172.8670  142.5890 C   0  0  1  0  0  3  0  0  0  0  0  0
  192.1330  174.1060  145.1520 C   0  0  2  0  0  0  0  0  0  0  0  0
  190.7450  173.7020  144.7340 C   0  0  2  0  0  0  0  0  0  0  0  0
  191.8950  173.3410  143.8280 C   0  0  2  0  0  0  0  0  0  0  0  0
  191.3090  174.3350  142.8030 C   0  0  2  0  0  3  0  0  0  0  0  0
  191.0470  173.9680  146.1580 N   0  0  0  0  0  0  0  0  0  0  0  0
  194.4030  174.8940  143.2210 C   0  0  0  0  0  3  0  0  0  0  0  0
  192.8890  176.1590  146.4070 C   0  0  0  0  0  3  0  0  0  0  0  0
  194.9700  177.2500  145.8770 N   0  0  0  0  0  0  0  0  0  0  0  0
  194.1140  175.6170  144.3110 C   0  0  0  0  0  0  0  0  0  0  0  0
  195.7360  174.9800  142.5270 C   0  0  0  0  0  2  0  0  0  0  0  0
  195.0970  176.6460  144.7360 C   0  0  0  0  0  0  0  0  0  0  0  0
  192.7550  175.5480  145.0220 C   0  0  1  0  0  3  0  0  0  0  0  0
  196.2480  176.4180  142.5300 C   0  0  0  0  0  2  0  0  0  0  0  0
  196.2080  176.9510  143.8870 N   0  0  0  0  0  2  0  0  0  0  0  0
  193.8880  176.9650  146.7700 C   0  0  0  0  0  3  0  0  0  0  0  0
  188.9330  174.5340  147.0010 O   0  0  0  0  0  1  0  0  0  0  0  0
  190.7730  175.4820  147.9190 O   0  0  0  0  0  1  0  0  0  0  0  0
  190.1970  175.0640  146.7170 C   0  0  0  0  0  0  0  0  0  0  0  0
  190.0520  176.2280  145.8340 N   0  0  0  0  0  2  0  0  0  0  0  0
  189.2300  177.2560  146.4610 C   0  0  0  0  0  2  0  0  0  0  0  0
  188.0230  177.5110  145.6240 C   0  0  0  0  0  0  0  0  0  0  0  0
  188.1870  177.6500  144.3120 C   0  0  0  0  0  2  0  0  0  0  0  0
  186.6250  178.1960  147.4720 N   0  0  0  0  0  2  0  0  0  0  0  0
  186.7010  177.7450  146.2600 C   0  0  0  0  0  0  0  0  0  0  0  0
  185.4380  177.5910  145.4730 C   0  0  0  0  0  2  0  0  0  0  0  0
  184.7010  178.9180  145.3960 C   0  0  0  0  0  3  0  0  0  0  0  0
  185.3280  179.7720  144.3120 C   0  0  0  0  0  2  0  0  0  0  0  0
  184.0300  179.0370  144.0390 C   0  0  0  0  0  2  0  0  0  0  0  0
  192.1410  172.3590  141.5630 C   0  0  0  0  0  2  0  0  0  0  0  0
  190.0780  172.3670  140.4660 C   0  0  0  0  0  2  0  0  0  0  0  0
  187.9730  172.4750  139.3600 O   0  0  0  0  0  1  0  0  0  0  0  0
  191.2580  173.3620  138.1020 C   0  0  0  0  0  2  0  0  0  0  0  0
  191.9590  173.3920  139.4570 C   0  0  0  0  0  2  0  0  0  0  0  0
  191.5180  172.2490  140.2520 N   0  0  0  0  0  0  0  0  0  0  0  0
  189.3450  172.3580  139.1230 C   0  0  1  0  0  3  0  0  0  0  0  0
  189.8070  173.4740  138.2860 N   0  0  0  0  0  0  0  0  0  0  0  0
  189.2010  173.3090  136.9670 C   0  0  0  0  0  2  0  0  0  0  0  0
  190.1460  172.5810  136.0200 C   0  0  2  0  0  0  0  0  0  0  0  0
  189.6940  171.1670  135.7510 C   0  0  0  0  0  2  0  0  0  0  0  0
  190.3420  173.2870  134.8200 O   0  0  0  0  0  0  0  0  0  0  0  0
  189.3630  172.2830  134.7870 C   0  0  2  0  0  3  0  0  0  0  0  0
  2 31  1  6  0  0  0
  2  6  1  0  0  0  0
  2  5  1  0  0  0  0
  3  7  1  1  0  0  0
  4  1  1  6  0  0  0
  4  3  1  0  0  0  0
  4  7  1  0  0  0  0
  5  4  1  0  0  0  0
  5  3  1  0  0  0  0
  6  1  1  0  0  0  0
  6  5  1  0  0  0  0
  7 20  1  0  0  0  0
  8 11  2  0  0  0  0
  9 17  2  0  0  0  0
 10 17  1  0  0  0  0
 11 13  1  0  0  0  0
 11 14  1  0  0  0  0
 12 15  1  0  0  0  0
 12  8  1  0  0  0  0
 13 10  2  0  0  0  0
 14  3  1  0  0  0  0
 14  9  1  0  0  0  0
 15 16  1  0  0  0  0
 16 13  1  0  0  0  0
 20 18  1  0  0  0  0
 20 19  1  0  0  0  0
 21 22  1  0  0  0  0
 21 20  1  0  0  0  0
 23 26  1  0  0  0  0
 23 22  1  0  0  0  0
 24 23  2  0  0  0  0
 26 25  2  0  0  0  0
 27 26  1  0  0  0  0
 28 27  1  0  0  0  0
 29 28  1  0  0  0  0
 30 29  1  0  0  0  0
 30 28  1  0  0  0  0
 34 38  1  0  0  0  0
 34 35  1  0  0  0  0
 35 36  1  0  0  0  0
 36 32  1  0  0  0  0
 36 31  1  0  0  0  0
 37 33  1  0  0  0  0
 37 32  1  0  0  0  0
 38 37  1  0  0  0  0
 39 38  1  0  0  0  0
 40 39  1  0  0  0  0
 41 40  1  0  0  0  0
 42 40  1  0  0  0  0
 43 42  1  0  0  0  0
 43 41  1  0  0  0  0
 43 40  1  0  0  0  0
M  END
>  <MODEL>
6

>  <REMARK>
 VINA RESULT:      -6.6      3.356      7.635
  Name = 
  12 active torsions:
  status: ('A' for Active; 'I' for Inactive)
    1  A    between atoms: C_1  and  C_12
    2  A    between atoms: C_1  and  N_35
    3  A    between atoms: C_4  and  C_30
    4  A    between atoms: C_5  and  C_25
    5  A    between atoms: C_5  and  C_43
    6  A    between atoms: C_10  and  C_13
    7  A    between atoms: C_10  and  N_39
    8  A    between atoms: N_16  and  C_24
    9  A    between atoms: N_16  and  C_43
   10  A    between atoms: C_24  and  N_41
   11  A    between atoms: C_25  and  C_30
   12  A    between atoms: C_26  and  C_28
                            x       y       z     vdW  Elec       q    Type
                         _______ _______ _______ _____ _____    ______ ____

>  <TORSDO>
F 12

$$$$
=
 OpenBabel11062422323D

 43 52  0  0  1  0  0  0  0  0999 V2000
  189.2670  175.6320  143.7000 C   0  0  0  0  0  2  0  0  0  0  0  0
  189.3860  173.4080  142.7670 C   0  0  1  0  0  3  0  0  0  0  0  0
  190.9450  174.5390  145.0880 C   0  0  2  0  0  0  0  0  0  0  0  0
  189.4730  174.5850  144.7820 C   0  0  2  0  0  0  0  0  0  0  0  0
  190.3570  173.7430  143.8980 C   0  0  2  0  0  0  0  0  0  0  0  0
  190.0540  174.7430  142.7610 C   0  0  2  0  0  3  0  0  0  0  0  0
  189.9620  174.9060  146.1410 N   0  0  0  0  0  0  0  0  0  0  0  0
  193.0590  174.3320  142.8540 C   0  0  0  0  0  3  0  0  0  0  0  0
  192.5230  176.2740  146.0130 C   0  0  0  0  0  3  0  0  0  0  0  0
  194.7590  176.5170  145.1480 N   0  0  0  0  0  0  0  0  0  0  0  0
  193.1880  175.1860  143.8780 C   0  0  0  0  0  0  0  0  0  0  0  0
  194.2320  173.8900  142.0210 C   0  0  0  0  0  2  0  0  0  0  0  0
  194.5130  175.8270  144.0770 C   0  0  0  0  0  0  0  0  0  0  0  0
  191.9990  175.6540  144.7290 C   0  0  1  0  0  3  0  0  0  0  0  0
  195.2010  175.0500  141.8040 C   0  0  0  0  0  2  0  0  0  0  0  0
  195.5330  175.6580  143.0880 N   0  0  0  0  0  2  0  0  0  0  0  0
  193.7780  176.6980  146.1760 C   0  0  0  0  0  3  0  0  0  0  0  0
  190.3250  176.6190  147.7010 O   0  0  0  0  0  1  0  0  0  0  0  0
  189.9290  177.1650  145.5400 O   0  0  0  0  0  1  0  0  0  0  0  0
  189.5750  176.2860  146.5660 C   0  0  0  0  0  0  0  0  0  0  0  0
  188.1470  176.4530  146.8580 N   0  0  0  0  0  2  0  0  0  0  0  0
  187.7020  177.8010  146.5270 C   0  0  0  0  0  2  0  0  0  0  0  0
  186.4180  177.7340  145.7740 C   0  0  0  0  0  0  0  0  0  0  0  0
  185.5320  176.8080  146.1270 C   0  0  0  0  0  2  0  0  0  0  0  0
  185.4430  179.6310  144.6390 N   0  0  0  0  0  2  0  0  0  0  0  0
  186.2020  178.5830  144.5740 C   0  0  0  0  0  0  0  0  0  0  0  0
  186.9550  178.3210  143.3080 C   0  0  0  0  0  2  0  0  0  0  0  0
  186.2170  177.3000  142.4580 C   0  0  0  0  0  3  0  0  0  0  0  0
  185.6240  177.9970  141.2510 C   0  0  0  0  0  2  0  0  0  0  0  0
  186.9000  177.1910  141.1070 C   0  0  0  0  0  2  0  0  0  0  0  0
  190.0740  172.4650  141.7900 C   0  0  0  0  0  2  0  0  0  0  0  0
  190.8610  172.1460  139.6140 C   0  0  0  0  0  2  0  0  0  0  0  0
  191.6010  171.7440  137.3880 O   0  0  0  0  0  1  0  0  0  0  0  0
  188.5170  173.2790  138.5240 C   0  0  0  0  0  2  0  0  0  0  0  0
  188.6210  172.8210  139.9750 C   0  0  0  0  0  2  0  0  0  0  0  0
  189.9970  172.9890  140.4350 N   0  0  0  0  0  0  0  0  0  0  0  0
  190.7660  172.5680  138.1460 C   0  0  1  0  0  3  0  0  0  0  0  0
  189.3810  172.4520  137.6740 N   0  0  0  0  0  0  0  0  0  0  0  0
  189.3270  173.0270  136.3320 C   0  0  0  0  0  2  0  0  0  0  0  0
  189.5060  174.5380  136.3800 C   0  0  2  0  0  0  0  0  0  0  0  0
  190.7320  174.9840  135.6200 C   0  0  0  0  0  2  0  0  0  0  0  0
  188.3600  175.2230  135.9380 O   0  0  0  0  0  0  0  0  0  0  0  0
  189.3650  175.0260  134.9780 C   0  0  2  0  0  3  0  0  0  0  0  0
  2 31  1  6  0  0  0
  2  5  1  0  0  0  0
  3  7  1  1  0  0  0
  4  1  1  6  0  0  0
  4  3  1  0  0  0  0
  4  7  1  0  0  0  0
  5  4  1  0  0  0  0
  5  3  1  0  0  0  0
  6  2  1  0  0  0  0
  6  1  1  0  0  0  0
  6  5  1  0  0  0  0
  7 20  1  0  0  0  0
  8 11  2  0  0  0  0
  9 17  2  0  0  0  0
 10 17  1  0  0  0  0
 11 13  1  0  0  0  0
 11 14  1  0  0  0  0
 12  8  1  0  0  0  0
 13 10  2  0  0  0  0
 14  3  1  0  0  0  0
 14  9  1  0  0  0  0
 15 12  1  0  0  0  0
 15 16  1  0  0  0  0
 16 13  1  0  0  0  0
 19 20  1  0  0  0  0
 20 21  1  0  0  0  0
 20 18  1  0  0  0  0
 22 21  1  0  0  0  0
 23 24  2  0  0  0  0
 23 22  1  0  0  0  0
 26 25  2  0  0  0  0
 26 23  1  0  0  0  0
 27 26  1  0  0  0  0
 28 27  1  0  0  0  0
 29 28  1  0  0  0  0
 30 29  1  0  0  0  0
 30 28  1  0  0  0  0
 32 36  1  0  0  0  0
 33 37  1  0  0  0  0
 34 35  1  0  0  0  0
 35 36  1  0  0  0  0
 36 31  1  0  0  0  0
 37 32  1  0  0  0  0
 38 37  1  0  0  0  0
 38 34  1  0  0  0  0
 39 40  1  0  0  0  0
 39 38  1  0  0  0  0
 41 40  1  0  0  0  0
 42 40  1  0  0  0  0
 43 41  1  0  0  0  0
 43 42  1  0  0  0  0
 43 40  1  0  0  0  0
M  END
>  <MODEL>
7

>  <REMARK>
 VINA RESULT:      -6.5      3.093      7.122
  Name = 
  12 active torsions:
  status: ('A' for Active; 'I' for Inactive)
    1  A    between atoms: C_1  and  C_12
    2  A    between atoms: C_1  and  N_35
    3  A    between atoms: C_4  and  C_30
    4  A    between atoms: C_5  and  C_25
    5  A    between atoms: C_5  and  C_43
    6  A    between atoms: C_10  and  C_13
    7  A    between atoms: C_10  and  N_39
    8  A    between atoms: N_16  and  C_24
    9  A    between atoms: N_16  and  C_43
   10  A    between atoms: C_24  and  N_41
   11  A    between atoms: C_25  and  C_30
   12  A    between atoms: C_26  and  C_28
                            x       y       z     vdW  Elec       q    Type
                         _______ _______ _______ _____ _____    ______ ____

>  <TORSDO>
F 12

$$$$
=
 OpenBabel11062422323D

 43 52  0  0  1  0  0  0  0  0999 V2000
  192.5320  173.8960  142.7370 C   0  0  0  0  0  2  0  0  0  0  0  0
  190.3330  174.8930  142.7610 C   0  0  1  0  0  3  0  0  0  0  0  0
  191.0580  171.9780  143.0340 C   0  0  2  0  0  0  0  0  0  0  0  0
  191.6130  173.1950  143.7240 C   0  0  2  0  0  0  0  0  0  0  0  0
  190.4090  173.3690  142.8340 C   0  0  2  0  0  0  0  0  0  0  0  0
  191.3140  174.1840  141.8860 C   0  0  2  0  0  3  0  0  0  0  0  0
  191.8810  171.8440  144.2650 N   0  0  0  0  0  0  0  0  0  0  0  0
  189.9150  172.2610  140.1860 C   0  0  0  0  0  3  0  0  0  0  0  0
  192.0950  169.8820  142.0910 C   0  0  0  0  0  3  0  0  0  0  0  0
  191.3990  168.9940  139.9630 N   0  0  0  0  0  0  0  0  0  0  0  0
  190.7110  171.2410  140.5340 C   0  0  0  0  0  0  0  0  0  0  0  0
  189.0050  172.2000  138.9890 C   0  0  0  0  0  2  0  0  0  0  0  0
  190.7970  170.0860  139.6050 C   0  0  0  0  0  0  0  0  0  0  0  0
  191.6530  171.2940  141.7450 C   0  0  1  0  0  3  0  0  0  0  0  0
  189.6820  171.4570  137.8390 C   0  0  0  0  0  2  0  0  0  0  0  0
  190.1870  170.1740  138.3140 N   0  0  0  0  0  2  0  0  0  0  0  0
  192.0070  168.8490  141.2510 C   0  0  0  0  0  3  0  0  0  0  0  0
  193.5000  170.1900  144.6440 O   0  0  0  0  0  1  0  0  0  0  0  0
  193.8910  171.7710  143.0720 O   0  0  0  0  0  1  0  0  0  0  0  0
  193.3450  171.5470  144.3380 C   0  0  0  0  0  0  0  0  0  0  0  0
  194.0800  172.3570  145.3180 N   0  0  0  0  0  2  0  0  0  0  0  0
  195.3760  172.7630  144.7890 C   0  0  0  0  0  2  0  0  0  0  0  0
  195.8650  173.9610  145.5290 C   0  0  0  0  0  0  0  0  0  0  0  0
  196.8180  173.7900  146.4400 C   0  0  0  0  0  2  0  0  0  0  0  0
  195.2160  175.8720  144.2020 N   0  0  0  0  0  2  0  0  0  0  0  0
  195.2020  175.2790  145.3530 C   0  0  0  0  0  0  0  0  0  0  0  0
  194.3960  175.8820  146.4600 C   0  0  0  0  0  2  0  0  0  0  0  0
  192.9390  176.0020  146.0450 C   0  0  0  0  0  3  0  0  0  0  0  0
  192.1230  174.9680  146.7940 C   0  0  0  0  0  2  0  0  0  0  0  0
  192.1110  176.4130  147.2490 C   0  0  0  0  0  2  0  0  0  0  0  0
  189.0980  175.2860  141.9630 C   0  0  0  0  0  2  0  0  0  0  0  0
  188.8270  176.3660  144.0170 C   0  0  0  0  0  2  0  0  0  0  0  0
  188.5920  177.5470  146.0690 O   0  0  0  0  0  1  0  0  0  0  0  0
  186.6110  177.8180  143.0420 C   0  0  0  0  0  2  0  0  0  0  0  0
  187.5880  177.0840  142.1310 C   0  0  0  0  0  2  0  0  0  0  0  0
  188.1090  175.9110  142.8290 N   0  0  0  0  0  0  0  0  0  0  0  0
  187.8770  177.1250  144.9460 C   0  0  1  0  0  3  0  0  0  0  0  0
  187.3040  178.2830  144.2490 N   0  0  0  0  0  0  0  0  0  0  0  0
  186.2860  178.8590  145.1240 C   0  0  0  0  0  2  0  0  0  0  0  0
  185.0370  177.9890  145.1530 C   0  0  2  0  0  0  0  0  0  0  0  0
  184.8160  177.3670  146.5110 C   0  0  0  0  0  2  0  0  0  0  0  0
  183.8940  178.6860  144.7240 O   0  0  0  0  0  0  0  0  0  0  0  0
  184.0940  178.6330  146.1120 C   0  0  2  0  0  3  0  0  0  0  0  0
  2 31  1  6  0  0  0
  2  5  1  0  0  0  0
  3  4  1  0  0  0  0
  3  7  1  1  0  0  0
  4  1  1  6  0  0  0
  4  7  1  0  0  0  0
  5  3  1  0  0  0  0
  5  4  1  0  0  0  0
  6  1  1  0  0  0  0
  6  2  1  0  0  0  0
  6  5  1  0  0  0  0
  7 20  1  0  0  0  0
  8 11  2  0  0  0  0
 10 17  1  0  0  0  0
 11 14  1  0  0  0  0
 12  8  1  0  0  0  0
 13 10  2  0  0  0  0
 13 11  1  0  0  0  0
 14  9  1  0  0  0  0
 14  3  1  0  0  0  0
 15 16  1  0  0  0  0
 15 12  1  0  0  0  0
 16 13  1  0  0  0  0
 17  9  2  0  0  0  0
 19 20  1  0  0  0  0
 20 18  1  0  0  0  0
 20 21  1  0  0  0  0
 22 21  1  0  0  0  0
 22 23  1  0  0  0  0
 23 24  2  0  0  0  0
 25 26  2  0  0  0  0
 26 23  1  0  0  0  0
 26 27  1  0  0  0  0
 28 27  1  0  0  0  0
 28 29  1  0  0  0  0
 28 30  1  0  0  0  0
 29 30  1  0  0  0  0
 31 36  1  0  0  0  0
 32 37  1  0  0  0  0
 34 38  1  0  0  0  0
 35 36  1  0  0  0  0
 35 34  1  0  0  0  0
 36 32  1  0  0  0  0
 37 33  1  0  0  0  0
 38 37  1  0  0  0  0
 38 39  1  0  0  0  0
 39 40  1  0  0  0  0
 40 43  1  0  0  0  0
 40 41  1  0  0  0  0
 42 40  1  0  0  0  0
 42 43  1  0  0  0  0
 43 41  1  0  0  0  0
M  END
>  <MODEL>
8

>  <REMARK>
 VINA RESULT:      -6.4      2.899      4.746
  Name = 
  12 active torsions:
  status: ('A' for Active; 'I' for Inactive)
    1  A    between atoms: C_1  and  C_12
    2  A    between atoms: C_1  and  N_35
    3  A    between atoms: C_4  and  C_30
    4  A    between atoms: C_5  and  C_25
    5  A    between atoms: C_5  and  C_43
    6  A    between atoms: C_10  and  C_13
    7  A    between atoms: C_10  and  N_39
    8  A    between atoms: N_16  and  C_24
    9  A    between atoms: N_16  and  C_43
   10  A    between atoms: C_24  and  N_41
   11  A    between atoms: C_25  and  C_30
   12  A    between atoms: C_26  and  C_28
                            x       y       z     vdW  Elec       q    Type
                         _______ _______ _______ _____ _____    ______ ____

>  <TORSDO>
F 12

$$$$
=
 OpenBabel11062422323D

 43 52  0  0  1  0  0  0  0  0999 V2000
  191.6300  175.6410  146.8470 C   0  0  0  0  0  2  0  0  0  0  0  0
  193.9630  175.9020  146.2840 C   0  0  1  0  0  3  0  0  0  0  0  0
  191.6530  175.3330  144.4300 C   0  0  2  0  0  0  0  0  0  0  0  0
  191.8050  176.3600  145.5200 C   0  0  2  0  0  0  0  0  0  0  0  0
  193.0090  175.5310  145.1500 C   0  0  2  0  0  0  0  0  0  0  0  0
  192.9040  174.8820  146.5460 C   0  0  2  0  0  3  0  0  0  0  0  0
  190.7240  176.4910  144.5180 N   0  0  0  0  0  0  0  0  0  0  0  0
  193.1680  172.6490  144.4810 C   0  0  0  0  0  3  0  0  0  0  0  0
  189.7020  173.8800  143.7660 C   0  0  0  0  0  3  0  0  0  0  0  0
  190.0210  171.5870  143.1030 N   0  0  0  0  0  0  0  0  0  0  0  0
  191.8640  172.7240  144.1810 C   0  0  0  0  0  0  0  0  0  0  0  0
  194.0170  171.4700  144.0910 C   0  0  0  0  0  2  0  0  0  0  0  0
  191.2250  171.5240  143.5840 C   0  0  0  0  0  0  0  0  0  0  0  0
  190.9830  173.9150  144.5820 C   0  0  1  0  0  3  0  0  0  0  0  0
  193.2250  170.1720  144.2260 C   0  0  0  0  0  2  0  0  0  0  0  0
  191.9560  170.2960  143.5180 N   0  0  0  0  0  2  0  0  0  0  0  0
  189.2570  172.7970  143.1260 C   0  0  0  0  0  3  0  0  0  0  0  0
  189.2680  175.3940  145.9930 O   0  0  0  0  0  1  0  0  0  0  0  0
  189.2790  177.6580  145.9390 O   0  0  0  0  0  1  0  0  0  0  0  0
  189.3690  176.5080  145.1510 C   0  0  0  0  0  0  0  0  0  0  0  0
  188.2540  176.5010  144.1960 N   0  0  0  0  0  2  0  0  0  0  0  0
  188.3720  177.6040  143.2510 C   0  0  0  0  0  2  0  0  0  0  0  0
  187.0620  177.8280  142.5770 C   0  0  0  0  0  0  0  0  0  0  0  0
  187.0370  177.8550  141.2480 C   0  0  0  0  0  2  0  0  0  0  0  0
  184.7130  177.6020  143.0930 N   0  0  0  0  0  2  0  0  0  0  0  0
  185.8500  178.1550  143.3720 C   0  0  0  0  0  0  0  0  0  0  0  0
  185.9460  179.0230  144.5870 C   0  0  0  0  0  2  0  0  0  0  0  0
  185.0000  178.5230  145.6670 C   0  0  0  0  0  3  0  0  0  0  0  0
  185.7480  177.5690  146.5770 C   0  0  0  0  0  2  0  0  0  0  0  0
  185.4970  178.9970  147.0210 C   0  0  0  0  0  2  0  0  0  0  0  0
  195.3040  175.2240  146.0400 C   0  0  0  0  0  2  0  0  0  0  0  0
  195.8770  176.1870  143.9900 C   0  0  0  0  0  2  0  0  0  0  0  0
  196.5560  177.1680  141.9310 O   0  0  0  0  0  1  0  0  0  0  0  0
  196.8560  173.7230  143.0240 C   0  0  0  0  0  2  0  0  0  0  0  0
  196.5830  173.9860  144.5010 C   0  0  0  0  0  2  0  0  0  0  0  0
  195.4780  174.9340  144.6250 N   0  0  0  0  0  0  0  0  0  0  0  0
  196.1760  175.9540  142.5080 C   0  0  1  0  0  3  0  0  0  0  0  0
  197.2540  174.9670  142.3580 N   0  0  0  0  0  0  0  0  0  0  0  0
  197.3730  174.6640  140.9340 C   0  0  0  0  0  2  0  0  0  0  0  0
  196.6500  173.3680  140.5910 C   0  0  2  0  0  0  0  0  0  0  0  0
  195.4320  173.6130  139.7340 C   0  0  0  0  0  2  0  0  0  0  0  0
  197.5060  172.4250  139.9950 O   0  0  0  0  0  0  0  0  0  0  0  0
  196.7480  173.2080  139.1120 C   0  0  2  0  0  3  0  0  0  0  0  0
  2 31  1  6  0  0  0
  2  6  1  0  0  0  0
  3  7  1  6  0  0  0
  3 14  1  0  0  0  0
  3  5  1  0  0  0  0
  3  4  1  0  0  0  0
  4  1  1  1  0  0  0
  5  4  1  0  0  0  0
  5  2  1  0  0  0  0
  5  6  1  0  0  0  0
  6  1  1  0  0  0  0
  7 20  1  0  0  0  0
  7  4  1  0  0  0  0
  9 14  1  0  0  0  0
 10 17  1  0  0  0  0
 10 13  2  0  0  0  0
 11  8  2  0  0  0  0
 11 14  1  0  0  0  0
 12 15  1  0  0  0  0
 12  8  1  0  0  0  0
 13 11  1  0  0  0  0
 16 13  1  0  0  0  0
 16 15  1  0  0  0  0
 17  9  2  0  0  0  0
 20 19  1  0  0  0  0
 20 18  1  0  0  0  0
 21 20  1  0  0  0  0
 22 21  1  0  0  0  0
 23 22  1  0  0  0  0
 23 26  1  0  0  0  0
 24 23  2  0  0  0  0
 25 26  2  0  0  0  0
 26 27  1  0  0  0  0
 27 28  1  0  0  0  0
 28 29  1  0  0  0  0
 28 30  1  0  0  0  0
 29 30  1  0  0  0  0
 32 36  1  0  0  0  0
 33 37  1  0  0  0  0
 34 35  1  0  0  0  0
 35 36  1  0  0  0  0
 36 31  1  0  0  0  0
 37 32  1  0  0  0  0
 38 37  1  0  0  0  0
 38 34  1  0  0  0  0
 39 38  1  0  0  0  0
 40 39  1  0  0  0  0
 41 40  1  0  0  0  0
 42 40  1  0  0  0  0
 43 41  1  0  0  0  0
 43 42  1  0  0  0  0
 43 40  1  0  0  0  0
M  END
>  <MODEL>
9

>  <REMARK>
 VINA RESULT:      -6.4      3.115      9.346
  Name = 
  12 active torsions:
  status: ('A' for Active; 'I' for Inactive)
    1  A    between atoms: C_1  and  C_12
    2  A    between atoms: C_1  and  N_35
    3  A    between atoms: C_4  and  C_30
    4  A    between atoms: C_5  and  C_25
    5  A    between atoms: C_5  and  C_43
    6  A    between atoms: C_10  and  C_13
    7  A    between atoms: C_10  and  N_39
    8  A    between atoms: N_16  and  C_24
    9  A    between atoms: N_16  and  C_43
   10  A    between atoms: C_24  and  N_41
   11  A    between atoms: C_25  and  C_30
   12  A    between atoms: C_26  and  C_28
                            x       y       z     vdW  Elec       q    Type
                         _______ _______ _______ _____ _____    ______ ____

>  <TORSDO>
F 12

$$$$
