=
 OpenBabel11072408493D

 26 28  0  0  0  0  0  0  0  0999 V2000
  186.5980  178.1560  145.2200 C   0  0  0  0  0  0  0  0  0  0  0  0
  185.3390  178.6820  144.8900 C   0  0  0  0  0  0  0  0  0  0  0  0
  184.3550  178.7850  145.8880 C   0  0  0  0  0  3  0  0  0  0  0  0
  187.5700  178.0460  144.2750 N   0  0  0  0  0  0  0  0  0  0  0  0
  189.1040  177.1100  145.8690 C   0  0  0  0  0  0  0  0  0  0  0  0
  185.8710  177.8400  147.5220 C   0  0  0  0  0  3  0  0  0  0  0  0
  188.7980  177.5400  144.5680 C   0  0  0  0  0  3  0  0  0  0  0  0
  184.6200  178.3660  147.1950 C   0  0  0  0  0  3  0  0  0  0  0  0
  186.8590  177.7340  146.5420 C   0  0  0  0  0  0  0  0  0  0  0  0
  188.1130  177.2120  146.8550 C   0  0  0  0  0  3  0  0  0  0  0  0
  185.0870  179.0980  143.5750 O   0  0  0  0  0  0  0  0  0  0  0  0
  184.2710  178.3630  142.6700 C   0  0  0  0  0  2  0  0  0  0  0  0
  185.0640  177.4960  141.9170 O   0  0  0  0  0  0  0  0  0  0  0  0
  185.2160  178.1390  140.6870 C   0  0  0  0  0  2  0  0  0  0  0  0
  187.4630  177.2290  140.8600 N   0  0  0  0  0  1  0  0  0  0  0  0
  186.3900  177.5410  139.9340 C   0  0  0  0  0  2  0  0  0  0  0  0
  190.4070  176.5710  146.1790 N   0  0  0  0  0  0  0  0  0  0  0  0
  191.0570  174.6940  144.6960 C   0  0  0  0  0  0  0  0  0  0  0  0
  193.1130  176.2650  143.6200 C   0  0  0  0  0  3  0  0  0  0  0  0
  191.2500  176.0130  145.1580 C   0  0  0  0  0  0  0  0  0  0  0  0
  192.9130  174.9620  143.1580 C   0  0  0  0  0  3  0  0  0  0  0  0
  191.8900  174.1790  143.6970 C   0  0  0  0  0  3  0  0  0  0  0  0
  192.2860  176.7860  144.6180 C   0  0  0  0  0  3  0  0  0  0  0  0
  189.8230  173.6480  145.3780 Cl  0  0  0  0  0  0  0  0  0  0  0  0
  190.9580  176.7130  147.5230 C   0  0  0  0  0  2  0  0  0  0  0  0
  191.0890  175.4560  148.1150 O   0  0  0  0  0  1  0  0  0  0  0  0
  1  9  1  0  0  0  0
  2  1  2  0  0  0  0
  2  3  1  0  0  0  0
  3  8  2  0  0  0  0
  4  7  2  0  0  0  0
  4  1  1  0  0  0  0
  5 17  1  0  0  0  0
  5 10  2  0  0  0  0
  7  5  1  0  0  0  0
  8  6  1  0  0  0  0
  9 10  1  0  0  0  0
  9  6  2  0  0  0  0
 11  2  1  0  0  0  0
 12 11  1  0  0  0  0
 13 12  1  0  0  0  0
 14 13  1  0  0  0  0
 16 14  1  0  0  0  0
 16 15  1  0  0  0  0
 17 25  1  0  0  0  0
 18 20  1  0  0  0  0
 18 24  1  0  0  0  0
 19 23  1  0  0  0  0
 20 17  1  0  0  0  0
 21 19  2  0  0  0  0
 21 22  1  0  0  0  0
 22 18  2  0  0  0  0
 23 20  2  0  0  0  0
 25 26  1  0  0  0  0
M  END
>  <MODEL>
1

>  <REMARK>
 VINA RESULT:      -6.8      0.000      0.000
  Name = 
  8 active torsions:
  status: ('A' for Active; 'I' for Inactive)
    1  A    between atoms: C_4  and  C_13
    2  A    between atoms: C_6  and  N_23
    3  A    between atoms: C_7  and  O_8
    4  A    between atoms: O_8  and  C_25
    5  A    between atoms: C_10  and  N_23
    6  A    between atoms: C_13  and  O_15
    7  A    between atoms: O_15  and  C_25
    8  A    between atoms: C_16  and  N_23
                            x       y       z     vdW  Elec       q    Type
                         _______ _______ _______ _____ _____    ______ ____

>  <TORSDO>
F 8

$$$$
=
 OpenBabel11072408493D

 26 28  0  0  0  0  0  0  0  0999 V2000
  186.7710  177.7410  145.0790 C   0  0  0  0  0  0  0  0  0  0  0  0
  185.6720  178.6100  145.0050 C   0  0  0  0  0  0  0  0  0  0  0  0
  185.0370  179.0160  146.1910 C   0  0  0  0  0  3  0  0  0  0  0  0
  187.4060  177.3320  143.9480 N   0  0  0  0  0  0  0  0  0  0  0  0
  188.9580  176.0100  145.2180 C   0  0  0  0  0  0  0  0  0  0  0  0
  186.5800  177.6920  147.5050 C   0  0  0  0  0  3  0  0  0  0  0  0
  188.4730  176.4890  143.9910 C   0  0  0  0  0  3  0  0  0  0  0  0
  185.4880  178.5590  147.4320 C   0  0  0  0  0  3  0  0  0  0  0  0
  187.2210  177.2820  146.3360 C   0  0  0  0  0  0  0  0  0  0  0  0
  188.3130  176.4170  146.3950 C   0  0  0  0  0  3  0  0  0  0  0  0
  185.2300  179.0600  143.7530 O   0  0  0  0  0  0  0  0  0  0  0  0
  184.1110  178.5000  143.0750 C   0  0  0  0  0  2  0  0  0  0  0  0
  184.5520  177.6260  142.0810 O   0  0  0  0  0  0  0  0  0  0  0  0
  185.0180  178.4600  141.0630 C   0  0  0  0  0  2  0  0  0  0  0  0
  187.1210  177.3730  140.5120 N   0  0  0  0  0  1  0  0  0  0  0  0
  185.7780  177.6440  140.0340 C   0  0  0  0  0  2  0  0  0  0  0  0
  190.0890  175.1140  145.2640 N   0  0  0  0  0  0  0  0  0  0  0  0
  192.0630  175.7670  146.6150 C   0  0  0  0  0  0  0  0  0  0  0  0
  193.4420  176.4300  144.2680 C   0  0  0  0  0  3  0  0  0  0  0  0
  191.4340  175.6100  145.3620 C   0  0  0  0  0  0  0  0  0  0  0  0
  194.0650  176.5740  145.5100 C   0  0  0  0  0  3  0  0  0  0  0  0
  193.3750  176.2460  146.6790 C   0  0  0  0  0  3  0  0  0  0  0  0
  192.1310  175.9520  144.1950 C   0  0  0  0  0  3  0  0  0  0  0  0
  191.2230  175.4220  148.1180 Cl  0  0  0  0  0  0  0  0  0  0  0  0
  189.8800  173.6720  145.3550 C   0  0  0  0  0  2  0  0  0  0  0  0
  189.7640  173.1300  144.0750 O   0  0  0  0  0  1  0  0  0  0  0  0
  1  9  1  0  0  0  0
  2  1  2  0  0  0  0
  2  3  1  0  0  0  0
  3  8  2  0  0  0  0
  4  7  2  0  0  0  0
  4  1  1  0  0  0  0
  5 17  1  0  0  0  0
  5 10  2  0  0  0  0
  7  5  1  0  0  0  0
  8  6  1  0  0  0  0
  9 10  1  0  0  0  0
  9  6  2  0  0  0  0
 11  2  1  0  0  0  0
 12 11  1  0  0  0  0
 13 12  1  0  0  0  0
 14 13  1  0  0  0  0
 16 15  1  0  0  0  0
 16 14  1  0  0  0  0
 17 25  1  0  0  0  0
 17 20  1  0  0  0  0
 18 22  1  0  0  0  0
 18 24  1  0  0  0  0
 19 21  1  0  0  0  0
 20 18  2  0  0  0  0
 21 22  2  0  0  0  0
 23 19  2  0  0  0  0
 23 20  1  0  0  0  0
 26 25  1  0  0  0  0
M  END
>  <MODEL>
2

>  <REMARK>
 VINA RESULT:      -6.6      1.582      1.917
  Name = 
  8 active torsions:
  status: ('A' for Active; 'I' for Inactive)
    1  A    between atoms: C_4  and  C_13
    2  A    between atoms: C_6  and  N_23
    3  A    between atoms: C_7  and  O_8
    4  A    between atoms: O_8  and  C_25
    5  A    between atoms: C_10  and  N_23
    6  A    between atoms: C_13  and  O_15
    7  A    between atoms: O_15  and  C_25
    8  A    between atoms: C_16  and  N_23
                            x       y       z     vdW  Elec       q    Type
                         _______ _______ _______ _____ _____    ______ ____

>  <TORSDO>
F 8

$$$$
=
 OpenBabel11072408493D

 26 28  0  0  0  0  0  0  0  0999 V2000
  186.5970  178.0210  145.0220 C   0  0  0  0  0  0  0  0  0  0  0  0
  185.3430  178.4960  144.6060 C   0  0  0  0  0  0  0  0  0  0  0  0
  184.3050  178.6080  145.5450 C   0  0  0  0  0  3  0  0  0  0  0  0
  187.6200  177.9020  144.1340 N   0  0  0  0  0  0  0  0  0  0  0  0
  189.0930  177.0760  145.8420 C   0  0  0  0  0  0  0  0  0  0  0  0
  185.7580  177.7750  147.2930 C   0  0  0  0  0  3  0  0  0  0  0  0
  188.8450  177.4440  144.5110 C   0  0  0  0  0  3  0  0  0  0  0  0
  184.5120  178.2500  146.8810 C   0  0  0  0  0  3  0  0  0  0  0  0
  186.7990  177.6600  146.3710 C   0  0  0  0  0  0  0  0  0  0  0  0
  188.0480  177.1870  146.7710 C   0  0  0  0  0  3  0  0  0  0  0  0
  185.1500  178.8510  143.2630 O   0  0  0  0  0  0  0  0  0  0  0  0
  184.1180  178.3000  142.4530 C   0  0  0  0  0  2  0  0  0  0  0  0
  184.3940  178.5450  141.1070 O   0  0  0  0  0  0  0  0  0  0  0  0
  183.2540  178.1080  140.4300 C   0  0  0  0  0  2  0  0  0  0  0  0
  180.8720  178.5900  140.4910 N   0  0  0  0  0  1  0  0  0  0  0  0
  182.0310  178.2870  141.3110 C   0  0  0  0  0  2  0  0  0  0  0  0
  190.3910  176.5890  146.2420 N   0  0  0  0  0  0  0  0  0  0  0  0
  191.1550  174.7090  144.8160 C   0  0  0  0  0  0  0  0  0  0  0  0
  193.2790  176.2840  143.8880 C   0  0  0  0  0  3  0  0  0  0  0  0
  191.3090  176.0300  145.2870 C   0  0  0  0  0  0  0  0  0  0  0  0
  193.1180  174.9790  143.4170 C   0  0  0  0  0  3  0  0  0  0  0  0
  192.0610  174.1940  143.8830 C   0  0  0  0  0  3  0  0  0  0  0  0
  192.3790  176.8050  144.8220 C   0  0  0  0  0  3  0  0  0  0  0  0
  189.8770  173.6610  145.4090 Cl  0  0  0  0  0  0  0  0  0  0  0  0
  190.8600  176.7850  147.6100 C   0  0  0  0  0  2  0  0  0  0  0  0
  191.1880  175.5540  148.1780 O   0  0  0  0  0  1  0  0  0  0  0  0
  1  9  1  0  0  0  0
  2  1  2  0  0  0  0
  2  3  1  0  0  0  0
  3  8  2  0  0  0  0
  4  7  2  0  0  0  0
  4  1  1  0  0  0  0
  5 17  1  0  0  0  0
  5 10  2  0  0  0  0
  7  5  1  0  0  0  0
  8  6  1  0  0  0  0
  9 10  1  0  0  0  0
  9  6  2  0  0  0  0
 11  2  1  0  0  0  0
 12 11  1  0  0  0  0
 13 12  1  0  0  0  0
 14 13  1  0  0  0  0
 14 16  1  0  0  0  0
 15 16  1  0  0  0  0
 17 25  1  0  0  0  0
 18 20  1  0  0  0  0
 18 24  1  0  0  0  0
 19 23  1  0  0  0  0
 20 17  1  0  0  0  0
 21 22  1  0  0  0  0
 21 19  2  0  0  0  0
 22 18  2  0  0  0  0
 23 20  2  0  0  0  0
 25 26  1  0  0  0  0
M  END
>  <MODEL>
3

>  <REMARK>
 VINA RESULT:      -6.5      1.515      1.690
  Name = 
  8 active torsions:
  status: ('A' for Active; 'I' for Inactive)
    1  A    between atoms: C_4  and  C_13
    2  A    between atoms: C_6  and  N_23
    3  A    between atoms: C_7  and  O_8
    4  A    between atoms: O_8  and  C_25
    5  A    between atoms: C_10  and  N_23
    6  A    between atoms: C_13  and  O_15
    7  A    between atoms: O_15  and  C_25
    8  A    between atoms: C_16  and  N_23
                            x       y       z     vdW  Elec       q    Type
                         _______ _______ _______ _____ _____    ______ ____

>  <TORSDO>
F 8

$$$$
=
 OpenBabel11072408493D

 26 28  0  0  0  0  0  0  0  0999 V2000
  186.6570  177.9000  145.0090 C   0  0  0  0  0  0  0  0  0  0  0  0
  185.5450  178.6980  145.3180 C   0  0  0  0  0  0  0  0  0  0  0  0
  185.0810  178.7470  146.6430 C   0  0  0  0  0  3  0  0  0  0  0  0
  187.1290  177.8350  143.7350 N   0  0  0  0  0  0  0  0  0  0  0  0
  188.8690  176.3130  144.3870 C   0  0  0  0  0  0  0  0  0  0  0  0
  186.8190  177.2110  147.3380 C   0  0  0  0  0  3  0  0  0  0  0  0
  188.2050  177.0680  143.4090 C   0  0  0  0  0  3  0  0  0  0  0  0
  185.7150  178.0070  147.6460 C   0  0  0  0  0  3  0  0  0  0  0  0
  187.2920  177.1550  146.0270 C   0  0  0  0  0  0  0  0  0  0  0  0
  188.3940  176.3640  145.7060 C   0  0  0  0  0  3  0  0  0  0  0  0
  184.9200  179.4340  144.3020 O   0  0  0  0  0  0  0  0  0  0  0  0
  183.7000  179.0330  143.6870 C   0  0  0  0  0  2  0  0  0  0  0  0
  183.9490  178.0120  142.7680 O   0  0  0  0  0  0  0  0  0  0  0  0
  183.0590  178.2600  141.7210 C   0  0  0  0  0  2  0  0  0  0  0  0
  185.2370  178.1760  140.6450 N   0  0  0  0  0  1  0  0  0  0  0  0
  183.8110  178.3020  140.4040 C   0  0  0  0  0  2  0  0  0  0  0  0
  190.0090  175.4980  144.0410 N   0  0  0  0  0  0  0  0  0  0  0  0
  192.0720  176.7500  144.6130 C   0  0  0  0  0  0  0  0  0  0  0  0
  192.8710  174.6540  146.2920 C   0  0  0  0  0  3  0  0  0  0  0  0
  191.2540  175.6090  144.7510 C   0  0  0  0  0  0  0  0  0  0  0  0
  193.6730  175.7900  146.1600 C   0  0  0  0  0  3  0  0  0  0  0  0
  193.2750  176.8320  145.3200 C   0  0  0  0  0  3  0  0  0  0  0  0
  191.6670  174.5640  145.5870 C   0  0  0  0  0  3  0  0  0  0  0  0
  191.6460  178.0650  143.5280 Cl  0  0  0  0  0  0  0  0  0  0  0  0
  189.8770  174.4360  143.0480 C   0  0  0  0  0  2  0  0  0  0  0  0
  190.6840  174.7180  141.9450 O   0  0  0  0  0  1  0  0  0  0  0  0
  1  2  2  0  0  0  0
  1  9  1  0  0  0  0
  2  3  1  0  0  0  0
  3  8  2  0  0  0  0
  4  1  1  0  0  0  0
  5 10  2  0  0  0  0
  6  8  1  0  0  0  0
  7  4  2  0  0  0  0
  7  5  1  0  0  0  0
  9  6  2  0  0  0  0
 10  9  1  0  0  0  0
 11  2  1  0  0  0  0
 12 11  1  0  0  0  0
 13 12  1  0  0  0  0
 14 13  1  0  0  0  0
 16 15  1  0  0  0  0
 16 14  1  0  0  0  0
 17  5  1  0  0  0  0
 17 20  1  0  0  0  0
 18 20  2  0  0  0  0
 18 22  1  0  0  0  0
 20 23  1  0  0  0  0
 21 19  1  0  0  0  0
 22 21  2  0  0  0  0
 23 19  2  0  0  0  0
 24 18  1  0  0  0  0
 25 17  1  0  0  0  0
 26 25  1  0  0  0  0
M  END
>  <MODEL>
4

>  <REMARK>
 VINA RESULT:      -6.4      2.150      2.610
  Name = 
  8 active torsions:
  status: ('A' for Active; 'I' for Inactive)
    1  A    between atoms: C_4  and  C_13
    2  A    between atoms: C_6  and  N_23
    3  A    between atoms: C_7  and  O_8
    4  A    between atoms: O_8  and  C_25
    5  A    between atoms: C_10  and  N_23
    6  A    between atoms: C_13  and  O_15
    7  A    between atoms: O_15  and  C_25
    8  A    between atoms: C_16  and  N_23
                            x       y       z     vdW  Elec       q    Type
                         _______ _______ _______ _____ _____    ______ ____

>  <TORSDO>
F 8

$$$$
=
 OpenBabel11072408493D

 26 28  0  0  0  0  0  0  0  0999 V2000
  185.3820  177.5850  143.1670 C   0  0  0  0  0  0  0  0  0  0  0  0
  184.2140  178.3060  142.8720 C   0  0  0  0  0  0  0  0  0  0  0  0
  183.5350  178.9680  143.9090 C   0  0  0  0  0  3  0  0  0  0  0  0
  186.0600  176.9350  142.1830 N   0  0  0  0  0  0  0  0  0  0  0  0
  187.7040  176.1470  143.7470 C   0  0  0  0  0  0  0  0  0  0  0  0
  185.1700  178.1900  145.5150 C   0  0  0  0  0  3  0  0  0  0  0  0
  187.1930  176.2280  142.4430 C   0  0  0  0  0  3  0  0  0  0  0  0
  184.0110  178.9090  145.2210 C   0  0  0  0  0  3  0  0  0  0  0  0
  185.8560  177.5290  144.4950 C   0  0  0  0  0  0  0  0  0  0  0  0
  187.0160  176.8070  144.7750 C   0  0  0  0  0  3  0  0  0  0  0  0
  183.7480  178.3550  141.5500 O   0  0  0  0  0  0  0  0  0  0  0  0
  182.4260  177.9830  141.1760 C   0  0  0  0  0  2  0  0  0  0  0  0
  181.7170  179.1140  140.7680 O   0  0  0  0  0  0  0  0  0  0  0  0
  180.6190  179.1670  141.6280 C   0  0  0  0  0  2  0  0  0  0  0  0
  179.8990  180.9370  140.1260 N   0  0  0  0  0  1  0  0  0  0  0  0
  179.4410  179.8140  140.9230 C   0  0  0  0  0  2  0  0  0  0  0  0
  188.9060  175.3970  144.0220 N   0  0  0  0  0  0  0  0  0  0  0  0
  190.6230  176.5960  145.3500 C   0  0  0  0  0  0  0  0  0  0  0  0
  190.1030  174.9150  147.5300 C   0  0  0  0  0  3  0  0  0  0  0  0
  189.6460  175.5850  145.2400 C   0  0  0  0  0  0  0  0  0  0  0  0
  191.0620  175.9240  147.6380 C   0  0  0  0  0  3  0  0  0  0  0  0
  191.3230  176.7590  146.5500 C   0  0  0  0  0  3  0  0  0  0  0  0
  189.3990  174.7450  146.3350 C   0  0  0  0  0  3  0  0  0  0  0  0
  191.0290  177.6380  143.9960 Cl  0  0  0  0  0  0  0  0  0  0  0  0
  189.3200  174.3210  143.1270 C   0  0  0  0  0  2  0  0  0  0  0  0
  190.4090  174.7360  142.3610 O   0  0  0  0  0  1  0  0  0  0  0  0
  1  9  1  0  0  0  0
  2  1  2  0  0  0  0
  2  3  1  0  0  0  0
  3  8  2  0  0  0  0
  4  7  2  0  0  0  0
  4  1  1  0  0  0  0
  5 17  1  0  0  0  0
  5 10  2  0  0  0  0
  7  5  1  0  0  0  0
  8  6  1  0  0  0  0
  9 10  1  0  0  0  0
  9  6  2  0  0  0  0
 11  2  1  0  0  0  0
 12 11  1  0  0  0  0
 13 12  1  0  0  0  0
 13 14  1  0  0  0  0
 15 16  1  0  0  0  0
 16 14  1  0  0  0  0
 17 20  1  0  0  0  0
 18 22  1  0  0  0  0
 19 21  1  0  0  0  0
 20 18  2  0  0  0  0
 20 23  1  0  0  0  0
 22 21  2  0  0  0  0
 23 19  2  0  0  0  0
 24 18  1  0  0  0  0
 25 17  1  0  0  0  0
 26 25  1  0  0  0  0
M  END
>  <MODEL>
5

>  <REMARK>
 VINA RESULT:      -6.4      3.078      3.992
  Name = 
  8 active torsions:
  status: ('A' for Active; 'I' for Inactive)
    1  A    between atoms: C_4  and  C_13
    2  A    between atoms: C_6  and  N_23
    3  A    between atoms: C_7  and  O_8
    4  A    between atoms: O_8  and  C_25
    5  A    between atoms: C_10  and  N_23
    6  A    between atoms: C_13  and  O_15
    7  A    between atoms: O_15  and  C_25
    8  A    between atoms: C_16  and  N_23
                            x       y       z     vdW  Elec       q    Type
                         _______ _______ _______ _____ _____    ______ ____

>  <TORSDO>
F 8

$$$$
=
 OpenBabel11072408493D

 26 28  0  0  0  0  0  0  0  0999 V2000
  187.4960  177.6890  143.4230 C   0  0  0  0  0  0  0  0  0  0  0  0
  186.4850  178.5330  142.9360 C   0  0  0  0  0  0  0  0  0  0  0  0
  186.0120  178.3520  141.6260 C   0  0  0  0  0  3  0  0  0  0  0  0
  187.9720  177.8400  144.6880 N   0  0  0  0  0  0  0  0  0  0  0  0
  189.5060  176.0140  144.3990 C   0  0  0  0  0  0  0  0  0  0  0  0
  187.5470  176.5100  141.2950 C   0  0  0  0  0  3  0  0  0  0  0  0
  188.9510  177.0370  145.1850 C   0  0  0  0  0  3  0  0  0  0  0  0
  186.5400  177.3470  140.8110 C   0  0  0  0  0  3  0  0  0  0  0  0
  188.0250  176.6760  142.5950 C   0  0  0  0  0  0  0  0  0  0  0  0
  189.0300  175.8460  143.0910 C   0  0  0  0  0  3  0  0  0  0  0  0
  185.9650  179.5370  143.7650 O   0  0  0  0  0  0  0  0  0  0  0  0
  184.7470  179.3980  144.4870 C   0  0  0  0  0  2  0  0  0  0  0  0
  185.0170  179.2970  145.8520 O   0  0  0  0  0  0  0  0  0  0  0  0
  184.2160  178.2410  146.2910 C   0  0  0  0  0  2  0  0  0  0  0  0
  185.9760  177.0400  147.4590 N   0  0  0  0  0  1  0  0  0  0  0  0
  185.0340  176.9650  146.3580 C   0  0  0  0  0  2  0  0  0  0  0  0
  190.5460  175.1630  144.9250 N   0  0  0  0  0  0  0  0  0  0  0  0
  192.2250  175.9530  146.5700 C   0  0  0  0  0  0  0  0  0  0  0  0
  194.0390  176.4170  144.4860 C   0  0  0  0  0  3  0  0  0  0  0  0
  191.8500  175.6780  145.2380 C   0  0  0  0  0  0  0  0  0  0  0  0
  194.4090  176.6780  145.8070 C   0  0  0  0  0  3  0  0  0  0  0  0
  193.5030  176.4490  146.8440 C   0  0  0  0  0  3  0  0  0  0  0  0
  192.7630  175.9220  144.2030 C   0  0  0  0  0  3  0  0  0  0  0  0
  191.1060  175.7360  147.9070 Cl  0  0  0  0  0  0  0  0  0  0  0  0
  190.2480  173.7810  145.2880 C   0  0  0  0  0  2  0  0  0  0  0  0
  190.9950  172.9130  144.4900 O   0  0  0  0  0  1  0  0  0  0  0  0
  1  4  1  0  0  0  0
  2  1  1  0  0  0  0
  2 11  1  0  0  0  0
  3  2  2  0  0  0  0
  4  7  2  0  0  0  0
  5 17  1  0  0  0  0
  5  7  1  0  0  0  0
  6  9  1  0  0  0  0
  8  6  2  0  0  0  0
  8  3  1  0  0  0  0
  9 10  1  0  0  0  0
  9  1  2  0  0  0  0
 10  5  2  0  0  0  0
 11 12  1  0  0  0  0
 12 13  1  0  0  0  0
 13 14  1  0  0  0  0
 14 16  1  0  0  0  0
 16 15  1  0  0  0  0
 17 20  1  0  0  0  0
 17 25  1  0  0  0  0
 18 22  1  0  0  0  0
 18 24  1  0  0  0  0
 19 21  1  0  0  0  0
 20 18  2  0  0  0  0
 21 22  2  0  0  0  0
 23 19  2  0  0  0  0
 23 20  1  0  0  0  0
 26 25  1  0  0  0  0
M  END
>  <MODEL>
6

>  <REMARK>
 VINA RESULT:      -6.4      2.043      3.893
  Name = 
  8 active torsions:
  status: ('A' for Active; 'I' for Inactive)
    1  A    between atoms: C_4  and  C_13
    2  A    between atoms: C_6  and  N_23
    3  A    between atoms: C_7  and  O_8
    4  A    between atoms: O_8  and  C_25
    5  A    between atoms: C_10  and  N_23
    6  A    between atoms: C_13  and  O_15
    7  A    between atoms: O_15  and  C_25
    8  A    between atoms: C_16  and  N_23
                            x       y       z     vdW  Elec       q    Type
                         _______ _______ _______ _____ _____    ______ ____

>  <TORSDO>
F 8

$$$$
=
 OpenBabel11072408493D

 26 28  0  0  0  0  0  0  0  0999 V2000
  191.0690  176.4580  145.2420 C   0  0  0  0  0  0  0  0  0  0  0  0
  192.4040  176.4130  145.6750 C   0  0  0  0  0  0  0  0  0  0  0  0
  192.7080  175.8010  146.9020 C   0  0  0  0  0  3  0  0  0  0  0  0
  190.7450  177.0430  144.0580 N   0  0  0  0  0  0  0  0  0  0  0  0
  188.4160  176.5510  144.3760 C   0  0  0  0  0  0  0  0  0  0  0  0
  190.3680  175.2910  147.2600 C   0  0  0  0  0  3  0  0  0  0  0  0
  189.4600  177.1010  143.6160 C   0  0  0  0  0  3  0  0  0  0  0  0
  191.6960  175.2430  147.6890 C   0  0  0  0  0  3  0  0  0  0  0  0
  190.0520  175.8940  146.0420 C   0  0  0  0  0  0  0  0  0  0  0  0
  188.7300  175.9470  145.6020 C   0  0  0  0  0  3  0  0  0  0  0  0
  193.4080  176.9770  144.8750 O   0  0  0  0  0  0  0  0  0  0  0  0
  194.7480  177.1550  145.3190 C   0  0  0  0  0  2  0  0  0  0  0  0
  195.6330  176.8040  144.2980 O   0  0  0  0  0  0  0  0  0  0  0  0
  195.5810  175.4100  144.2530 C   0  0  0  0  0  2  0  0  0  0  0  0
  197.5120  174.1660  145.0490 N   0  0  0  0  0  1  0  0  0  0  0  0
  196.9480  174.8530  143.9020 C   0  0  0  0  0  2  0  0  0  0  0  0
  187.0520  176.6130  143.9080 N   0  0  0  0  0  0  0  0  0  0  0  0
  185.5990  178.6030  144.1870 C   0  0  0  0  0  0  0  0  0  0  0  0
  184.5150  177.4780  146.5130 C   0  0  0  0  0  3  0  0  0  0  0  0
  186.0440  177.3400  144.6300 C   0  0  0  0  0  0  0  0  0  0  0  0
  184.0690  178.7230  146.0650 C   0  0  0  0  0  3  0  0  0  0  0  0
  184.6130  179.2840  144.9080 C   0  0  0  0  0  3  0  0  0  0  0  0
  185.5000  176.7910  145.7990 C   0  0  0  0  0  3  0  0  0  0  0  0
  186.2870  179.3790  142.7700 Cl  0  0  0  0  0  0  0  0  0  0  0  0
  186.6970  176.0550  142.6070 C   0  0  0  0  0  2  0  0  0  0  0  0
  187.3180  174.8170  142.4390 O   0  0  0  0  0  1  0  0  0  0  0  0
  1  2  2  0  0  0  0
  1  9  1  0  0  0  0
  2  3  1  0  0  0  0
  3  8  2  0  0  0  0
  4  1  1  0  0  0  0
  5 10  2  0  0  0  0
  6  8  1  0  0  0  0
  7  4  2  0  0  0  0
  7  5  1  0  0  0  0
  9  6  2  0  0  0  0
 10  9  1  0  0  0  0
 11 12  1  0  0  0  0
 11  2  1  0  0  0  0
 13 12  1  0  0  0  0
 14 13  1  0  0  0  0
 16 14  1  0  0  0  0
 16 15  1  0  0  0  0
 17  5  1  0  0  0  0
 17 20  1  0  0  0  0
 18 20  2  0  0  0  0
 18 22  1  0  0  0  0
 20 23  1  0  0  0  0
 21 19  1  0  0  0  0
 22 21  2  0  0  0  0
 23 19  2  0  0  0  0
 24 18  1  0  0  0  0
 25 17  1  0  0  0  0
 26 25  1  0  0  0  0
M  END
>  <MODEL>
7

>  <REMARK>
 VINA RESULT:      -6.3      3.098      7.658
  Name = 
  8 active torsions:
  status: ('A' for Active; 'I' for Inactive)
    1  A    between atoms: C_4  and  C_13
    2  A    between atoms: C_6  and  N_23
    3  A    between atoms: C_7  and  O_8
    4  A    between atoms: O_8  and  C_25
    5  A    between atoms: C_10  and  N_23
    6  A    between atoms: C_13  and  O_15
    7  A    between atoms: O_15  and  C_25
    8  A    between atoms: C_16  and  N_23
                            x       y       z     vdW  Elec       q    Type
                         _______ _______ _______ _____ _____    ______ ____

>  <TORSDO>
F 8

$$$$
=
 OpenBabel11072408493D

 26 28  0  0  0  0  0  0  0  0999 V2000
  186.9870  177.8300  144.9660 C   0  0  0  0  0  0  0  0  0  0  0  0
  185.8610  178.6630  144.8800 C   0  0  0  0  0  0  0  0  0  0  0  0
  185.1460  178.9740  146.0480 C   0  0  0  0  0  3  0  0  0  0  0  0
  187.7000  177.5130  143.8510 N   0  0  0  0  0  0  0  0  0  0  0  0
  189.2290  176.1730  145.1290 C   0  0  0  0  0  0  0  0  0  0  0  0
  186.6640  177.6280  147.3700 C   0  0  0  0  0  3  0  0  0  0  0  0
  188.7940  176.7070  143.9060 C   0  0  0  0  0  3  0  0  0  0  0  0
  185.5450  178.4590  147.2850 C   0  0  0  0  0  3  0  0  0  0  0  0
  187.3850  177.3130  146.2170 C   0  0  0  0  0  0  0  0  0  0  0  0
  188.5040  176.4850  146.2890 C   0  0  0  0  0  3  0  0  0  0  0  0
  185.4720  179.1720  143.6330 O   0  0  0  0  0  0  0  0  0  0  0  0
  184.2860  178.7640  142.9610 C   0  0  0  0  0  2  0  0  0  0  0  0
  184.5250  178.6810  141.5890 O   0  0  0  0  0  0  0  0  0  0  0  0
  185.3000  177.5290  141.4380 C   0  0  0  0  0  2  0  0  0  0  0  0
  187.4020  176.7330  140.5130 N   0  0  0  0  0  1  0  0  0  0  0  0
  186.3950  177.7740  140.4170 C   0  0  0  0  0  2  0  0  0  0  0  0
  190.3890  175.3160  145.1880 N   0  0  0  0  0  0  0  0  0  0  0  0
  192.4950  176.2620  144.2820 C   0  0  0  0  0  0  0  0  0  0  0  0
  193.5050  176.4910  146.8850 C   0  0  0  0  0  3  0  0  0  0  0  0
  191.7080  175.8540  145.3790 C   0  0  0  0  0  0  0  0  0  0  0  0
  194.2760  176.9040  145.7970 C   0  0  0  0  0  3  0  0  0  0  0  0
  193.7730  176.7860  144.5000 C   0  0  0  0  0  3  0  0  0  0  0  0
  192.2270  175.9660  146.6760 C   0  0  0  0  0  3  0  0  0  0  0  0
  191.9330  176.0850  142.6270 Cl  0  0  0  0  0  0  0  0  0  0  0  0
  190.2310  173.8660  145.1960 C   0  0  0  0  0  2  0  0  0  0  0  0
  190.5550  173.3480  143.9420 O   0  0  0  0  0  1  0  0  0  0  0  0
  1  9  1  0  0  0  0
  2  1  2  0  0  0  0
  2  3  1  0  0  0  0
  3  8  2  0  0  0  0
  4  7  2  0  0  0  0
  4  1  1  0  0  0  0
  5 17  1  0  0  0  0
  5 10  2  0  0  0  0
  7  5  1  0  0  0  0
  8  6  1  0  0  0  0
  9 10  1  0  0  0  0
  9  6  2  0  0  0  0
 11  2  1  0  0  0  0
 12 11  1  0  0  0  0
 13 12  1  0  0  0  0
 14 13  1  0  0  0  0
 16 15  1  0  0  0  0
 16 14  1  0  0  0  0
 17 25  1  0  0  0  0
 17 20  1  0  0  0  0
 18 22  2  0  0  0  0
 18 20  1  0  0  0  0
 20 23  2  0  0  0  0
 21 19  2  0  0  0  0
 22 21  1  0  0  0  0
 23 19  1  0  0  0  0
 24 18  1  0  0  0  0
 26 25  1  0  0  0  0
M  END
>  <MODEL>
8

>  <REMARK>
 VINA RESULT:      -6.1      1.668      2.079
  Name = 
  8 active torsions:
  status: ('A' for Active; 'I' for Inactive)
    1  A    between atoms: C_4  and  C_13
    2  A    between atoms: C_6  and  N_23
    3  A    between atoms: C_7  and  O_8
    4  A    between atoms: O_8  and  C_25
    5  A    between atoms: C_10  and  N_23
    6  A    between atoms: C_13  and  O_15
    7  A    between atoms: O_15  and  C_25
    8  A    between atoms: C_16  and  N_23
                            x       y       z     vdW  Elec       q    Type
                         _______ _______ _______ _____ _____    ______ ____

>  <TORSDO>
F 8

$$$$
=
 OpenBabel11072408493D

 26 28  0  0  0  0  0  0  0  0999 V2000
  187.1040  178.0560  143.1710 C   0  0  0  0  0  0  0  0  0  0  0  0
  185.9180  178.7560  142.9010 C   0  0  0  0  0  0  0  0  0  0  0  0
  185.3330  178.6500  141.6270 C   0  0  0  0  0  3  0  0  0  0  0  0
  187.6920  178.1390  144.3950 N   0  0  0  0  0  0  0  0  0  0  0  0
  189.4640  176.6670  143.7170 C   0  0  0  0  0  0  0  0  0  0  0  0
  187.1050  177.1670  140.9060 C   0  0  0  0  0  3  0  0  0  0  0  0
  188.8410  177.4720  144.6830 C   0  0  0  0  0  3  0  0  0  0  0  0
  185.9240  177.8610  140.6370 C   0  0  0  0  0  3  0  0  0  0  0  0
  187.6960  177.2610  142.1660 C   0  0  0  0  0  0  0  0  0  0  0  0
  188.8750  176.5720  142.4480 C   0  0  0  0  0  3  0  0  0  0  0  0
  185.3370  179.5450  143.9040 O   0  0  0  0  0  0  0  0  0  0  0  0
  184.1820  179.1490  144.6340 C   0  0  0  0  0  2  0  0  0  0  0  0
  184.4170  177.9260  145.2630 O   0  0  0  0  0  0  0  0  0  0  0  0
  184.3220  178.2090  146.6270 C   0  0  0  0  0  2  0  0  0  0  0  0
  186.1000  179.4750  147.6960 N   0  0  0  0  0  1  0  0  0  0  0  0
  185.6970  178.1490  147.2640 C   0  0  0  0  0  2  0  0  0  0  0  0
  190.6840  175.9600  144.0220 N   0  0  0  0  0  0  0  0  0  0  0  0
  190.2080  173.6550  144.8020 C   0  0  0  0  0  0  0  0  0  0  0  0
  191.5810  172.6280  142.5860 C   0  0  0  0  0  3  0  0  0  0  0  0
  190.7850  174.5350  143.8630 C   0  0  0  0  0  0  0  0  0  0  0  0
  191.0000  171.7590  143.5130 C   0  0  0  0  0  3  0  0  0  0  0  0
  190.3190  172.2730  144.6180 C   0  0  0  0  0  3  0  0  0  0  0  0
  191.4770  174.0100  142.7630 C   0  0  0  0  0  3  0  0  0  0  0  0
  189.3890  174.2460  146.2390 Cl  0  0  0  0  0  0  0  0  0  0  0  0
  191.8950  176.7000  144.3650 C   0  0  0  0  0  2  0  0  0  0  0  0
  192.0960  176.6630  145.7450 O   0  0  0  0  0  1  0  0  0  0  0  0
  1  4  1  0  0  0  0
  2  1  1  0  0  0  0
  2 11  1  0  0  0  0
  3  2  2  0  0  0  0
  4  7  2  0  0  0  0
  5 17  1  0  0  0  0
  5  7  1  0  0  0  0
  6  9  1  0  0  0  0
  8  6  2  0  0  0  0
  8  3  1  0  0  0  0
  9 10  1  0  0  0  0
  9  1  2  0  0  0  0
 10  5  2  0  0  0  0
 11 12  1  0  0  0  0
 12 13  1  0  0  0  0
 13 14  1  0  0  0  0
 14 16  1  0  0  0  0
 16 15  1  0  0  0  0
 17 25  1  0  0  0  0
 18 24  1  0  0  0  0
 19 23  2  0  0  0  0
 19 21  1  0  0  0  0
 20 17  1  0  0  0  0
 20 18  2  0  0  0  0
 21 22  2  0  0  0  0
 22 18  1  0  0  0  0
 23 20  1  0  0  0  0
 25 26  1  0  0  0  0
M  END
>  <MODEL>
9

>  <REMARK>
 VINA RESULT:      -5.9      1.790      3.950
  Name = 
  8 active torsions:
  status: ('A' for Active; 'I' for Inactive)
    1  A    between atoms: C_4  and  C_13
    2  A    between atoms: C_6  and  N_23
    3  A    between atoms: C_7  and  O_8
    4  A    between atoms: O_8  and  C_25
    5  A    between atoms: C_10  and  N_23
    6  A    between atoms: C_13  and  O_15
    7  A    between atoms: O_15  and  C_25
    8  A    between atoms: C_16  and  N_23
                            x       y       z     vdW  Elec       q    Type
                         _______ _______ _______ _____ _____    ______ ____

>  <TORSDO>
F 8

$$$$
