=
 OpenBabel11072409113D

 65 71  0  0  1  0  0  0  0  0999 V2000
  191.3570  172.6090  140.1600 C   0  0  2  0  0  3  0  0  0  0  0  0
  191.6150  172.1050  137.2590 O   0  0  0  0  0  0  0  0  0  0  0  0
  187.8370  174.4620  137.7150 C   0  0  2  0  0  3  0  0  0  0  0  0
  189.8130  173.4260  136.5990 N   0  0  0  0  0  2  0  0  0  0  0  0
  190.4900  173.2600  139.0780 C   0  0  2  0  0  3  0  0  0  0  0  0
  188.3680  174.5560  139.1440 C   0  0  0  0  0  2  0  0  0  0  0  0
  189.0390  173.2560  139.5400 C   0  0  0  0  0  2  0  0  0  0  0  0
  190.6620  172.8680  137.6180 C   0  0  0  0  0  0  0  0  0  0  0  0
  188.9960  174.6270  136.7260 C   0  0  0  0  0  2  0  0  0  0  0  0
  186.8100  176.1030  136.0200 C   0  0  0  0  0  1  0  0  0  0  0  0
  186.8330  175.6260  137.4610 C   0  0  2  0  0  3  0  0  0  0  0  0
  186.9990  176.8220  138.4200 C   0  0  0  0  0  2  0  0  0  0  0  0
  185.7680  177.1030  139.0800 O   0  0  0  0  0  0  0  0  0  0  0  0
  186.1270  178.0590  140.0580 C   0  0  0  0  0  2  0  0  0  0  0  0
  185.0120  178.2470  141.0980 C   0  0  1  0  0  3  0  0  0  0  0  0
  183.6020  177.9060  140.6210 C   0  0  0  0  0  1  0  0  0  0  0  0
  187.7700  177.0180  144.8470 C   0  0  0  0  0  0  0  0  0  0  0  0
  187.0520  177.7600  143.9450 C   0  0  0  0  0  0  0  0  0  0  0  0
  188.3560  175.8110  144.4420 C   0  0  0  0  0  3  0  0  0  0  0  0
  187.1390  175.9420  142.3470 C   0  0  0  0  0  3  0  0  0  0  0  0
  185.9320  178.4570  144.5980 C   0  0  1  0  0  3  0  0  0  0  0  0
  185.3490  177.6290  142.3880 N   0  0  0  0  0  0  0  0  0  0  0  0
  186.9940  177.0160  146.1460 C   0  0  2  0  0  3  0  0  0  0  0  0
  184.8700  178.2410  143.5810 C   0  0  0  0  0  0  0  0  0  0  0  0
  186.6780  177.2180  142.7120 C   0  0  0  0  0  0  0  0  0  0  0  0
  185.6780  177.6110  145.7780 N   0  0  0  0  0  0  0  0  0  0  0  0
  188.0400  175.2700  143.1770 C   0  0  0  0  0  3  0  0  0  0  0  0
  183.6630  178.5970  143.7500 O   0  0  0  0  0  0  0  0  0  0  0  0
  184.9400  178.3030  146.8400 C   0  0  0  0  0  1  0  0  0  0  0  0
  187.8120  177.7980  147.2140 C   0  0  0  0  0  2  0  0  0  0  0  0
  189.1680  177.4360  147.1280 O   0  0  0  0  0  1  0  0  0  0  0  0
  192.7470  172.2720  139.6290 C   0  0  0  0  0  2  0  0  0  0  0  0
  195.0000  173.3560  138.9740 C   0  0  1  0  0  3  0  0  0  0  0  0
  196.5350  175.2160  138.2800 C   0  0  0  0  0  1  0  0  0  0  0  0
  193.7600  173.3960  139.9010 C   0  0  2  0  0  3  0  0  0  0  0  0
  194.1960  173.3980  141.3490 C   0  0  0  0  0  3  0  0  0  0  0  0
  196.1580  174.2890  139.4250 C   0  0  1  0  0  3  0  0  0  0  0  0
  195.8390  175.0870  140.7190 C   0  0  0  0  0  2  0  0  0  0  0  0
  195.1790  174.1890  141.7430 C   0  0  0  0  0  0  0  0  0  0  0  0
  195.4170  171.3530  137.3720 C   0  0  0  0  0  1  0  0  0  0  0  0
  195.5330  171.9730  138.7340 C   0  0  0  0  0  0  0  0  0  0  0  0
  196.0820  171.3510  139.6200 O   0  0  0  0  0  0  0  0  0  0  0  0
  195.5720  174.2890  143.1190 N   0  0  0  0  0  2  0  0  0  0  0  0
  193.5100  177.0410  144.7550 N   0  0  0  0  0  0  0  0  0  0  0  0
  195.0470  174.8390  145.5430 C   0  0  1  0  0  3  0  0  0  0  0  0
  194.1620  173.7750  145.5940 F   0  0  0  0  0  0  0  0  0  0  0  0
  195.2400  175.3630  144.0930 C   0  0  2  0  0  3  0  0  0  0  0  0
  194.5200  177.1130  145.8640 C   0  0  0  0  0  2  0  0  0  0  0  0
  193.9590  176.0820  143.7100 C   0  0  0  0  0  2  0  0  0  0  0  0
  194.6880  175.8460  146.4930 O   0  0  0  0  0  0  0  0  0  0  0  0
  192.1930  176.6500  145.2690 C   0  0  0  0  0  0  0  0  0  0  0  0
  191.8990  175.3230  144.9160 F   0  0  0  0  0  0  0  0  0  0  0  0
  192.2100  176.7060  146.6500 F   0  0  0  0  0  0  0  0  0  0  0  0
  191.1930  177.4800  144.8400 F   0  0  0  0  0  0  0  0  0  0  0  0
  190.7630  171.4530  140.8440 N   0  0  0  0  0  2  0  0  0  0  0  0
  190.8500  171.6800  142.5990 P   0  0  2  0  0  0  0  0  0  0  0  0
  189.2750  171.6360  143.2240 O   0  0  0  0  0  1  0  0  0  0  0  0
  191.4690  173.0430  142.9010 O   0  0  0  0  0  0  0  0  0  0  0  0
  191.8830  169.3430  142.4690 O   0  0  0  0  0  1  0  0  0  0  0  0
  191.8340  170.4010  143.3380 N   0  0  0  0  0  0  0  0  0  0  0  0
  195.5110  170.1320  143.4580 C   0  0  0  0  0  2  0  0  0  0  0  0
  193.2070  170.8890  143.5020 C   0  0  2  0  0  3  0  0  0  0  0  0
  195.1010  170.6140  144.8390 C   0  0  0  0  0  2  0  0  0  0  0  0
  194.2370  170.2080  142.6000 C   0  0  0  0  0  2  0  0  0  0  0  0
  193.6460  170.6870  144.8900 N   0  0  0  0  0  2  0  0  0  0  0  0
  1 32  1  6  0  0  0
  1 55  1  0  0  0  0
  2  8  2  0  0  0  0
  3 11  1  6  0  0  0
  3  6  1  0  0  0  0
  4  9  1  0  0  0  0
  4  8  1  0  0  0  0
  5  7  1  0  0  0  0
  5  1  1  1  0  0  0
  6  7  1  0  0  0  0
  8  5  1  0  0  0  0
  9  3  1  0  0  0  0
 11 10  1  6  0  0  0
 11 12  1  0  0  0  0
 12 13  1  0  0  0  0
 13 14  1  0  0  0  0
 14 15  1  0  0  0  0
 15 16  1  6  0  0  0
 15 22  1  0  0  0  0
 17 23  1  0  0  0  0
 18 21  1  0  0  0  0
 18 17  2  0  0  0  0
 19 17  1  0  0  0  0
 20 25  2  0  0  0  0
 20 27  1  0  0  0  0
 21 24  1  6  0  0  0
 21 26  1  0  0  0  0
 22 25  1  0  0  0  0
 22 24  1  0  0  0  0
 23 30  1  1  0  0  0
 24 28  2  0  0  0  0
 25 18  1  0  0  0  0
 26 23  1  0  0  0  0
 26 29  1  0  0  0  0
 27 19  2  0  0  0  0
 31 30  1  0  0  0  0
 33 41  1  1  0  0  0
 33 37  1  0  0  0  0
 33 35  1  0  0  0  0
 35 32  1  1  0  0  0
 35 36  1  0  0  0  0
 36 39  2  0  0  0  0
 37 34  1  6  0  0  0
 37 38  1  0  0  0  0
 38 39  1  0  0  0  0
 39 43  1  0  0  0  0
 40 41  1  0  0  0  0
 41 42  2  0  0  0  0
 44 51  1  0  0  0  0
 44 48  1  0  0  0  0
 45 46  1  6  0  0  0
 45 50  1  0  0  0  0
 47 43  1  6  0  0  0
 47 45  1  0  0  0  0
 48 50  1  0  0  0  0
 49 47  1  0  0  0  0
 49 44  1  0  0  0  0
 51 53  1  0  0  0  0
 52 51  1  0  0  0  0
 54 51  1  0  0  0  0
 55 56  1  0  0  0  0
 56 58  2  1  0  0  0
 56 57  1  0  0  0  0
 56 60  1  0  0  0  0
 59 60  1  0  0  0  0
 61 63  1  0  0  0  0
 62 60  1  1  0  0  0
 62 65  1  0  0  0  0
 63 65  1  0  0  0  0
 64 61  1  0  0  0  0
 64 62  1  0  0  0  0
M  END
>  <MODEL>
1

>  <REMARK>
 VINA RESULT:      -7.1      0.000      0.000
  Name = 
  18 active torsions:
  status: ('A' for Active; 'I' for Inactive)
    1  A    between atoms: C_3  and  N_50
    2  A    between atoms: P_6  and  N_40
    3  A    between atoms: P_6  and  N_50
    4  A    between atoms: C_7  and  N_24
    5  A    between atoms: C_7  and  C_29
    6  A    between atoms: N_9  and  C_31
    7  A    between atoms: C_11  and  C_65
    8  A    between atoms: N_14  and  C_17
    9  A    between atoms: N_14  and  C_62
   10  A    between atoms: C_21  and  C_61
   11  A    between atoms: C_27  and  C_35
   12  A    between atoms: C_29  and  O_41
   13  A    between atoms: C_33  and  C_43
   14  A    between atoms: C_34  and  C_54
   15  A    between atoms: C_35  and  C_54
   16  A    between atoms: N_40  and  C_54
   17  A    between atoms: O_41  and  C_46
   18  A    between atoms: C_46  and  C_65
                            x       y       z     vdW  Elec       q    Type
                         _______ _______ _______ _____ _____    ______ ____

>  <TORSDO>
F 18

$$$$
=
 OpenBabel11072409113D

 65 71  0  0  1  0  0  0  0  0999 V2000
  189.5380  174.8580  143.8450 C   0  0  2  0  0  3  0  0  0  0  0  0
  191.7840  175.4840  142.0280 O   0  0  0  0  0  0  0  0  0  0  0  0
  191.0610  171.0930  141.5410 C   0  0  2  0  0  3  0  0  0  0  0  0
  191.9120  173.3820  141.0300 N   0  0  0  0  0  2  0  0  0  0  0  0
  190.1140  173.8960  142.8010 C   0  0  2  0  0  3  0  0  0  0  0  0
  189.8570  171.4520  142.4090 C   0  0  0  0  0  2  0  0  0  0  0  0
  190.2400  172.5110  143.4230 C   0  0  0  0  0  2  0  0  0  0  0  0
  191.3230  174.2990  141.9700 C   0  0  0  0  0  0  0  0  0  0  0  0
  191.2800  172.1850  140.4880 C   0  0  0  0  0  2  0  0  0  0  0  0
  190.9230  168.5260  141.6530 C   0  0  0  0  0  1  0  0  0  0  0  0
  190.7720  169.7620  140.7840 C   0  0  2  0  0  3  0  0  0  0  0  0
  191.5670  169.5970  139.4730 C   0  0  0  0  0  2  0  0  0  0  0  0
  190.6970  169.2180  138.4110 O   0  0  0  0  0  0  0  0  0  0  0  0
  190.7040  170.3450  137.5580 C   0  0  0  0  0  2  0  0  0  0  0  0
  191.7550  170.2030  136.4470 C   0  0  1  0  0  3  0  0  0  0  0  0
  191.2090  169.8700  135.0600 C   0  0  0  0  0  1  0  0  0  0  0  0
  193.5770  174.4890  137.6680 C   0  0  0  0  0  0  0  0  0  0  0  0
  193.1520  173.1860  137.7330 C   0  0  0  0  0  0  0  0  0  0  0  0
  192.9690  175.3720  136.7670 C   0  0  0  0  0  3  0  0  0  0  0  0
  191.8020  173.5050  135.7470 C   0  0  0  0  0  3  0  0  0  0  0  0
  194.2660  172.2760  138.0420 C   0  0  1  0  0  3  0  0  0  0  0  0
  192.7050  171.3250  136.4390 N   0  0  0  0  0  0  0  0  0  0  0  0
  195.0900  174.4700  137.7150 C   0  0  2  0  0  3  0  0  0  0  0  0
  193.9530  171.1640  137.1070 C   0  0  0  0  0  0  0  0  0  0  0  0
  192.3100  172.6610  136.7490 C   0  0  0  0  0  0  0  0  0  0  0  0
  195.4350  173.0280  137.5550 N   0  0  0  0  0  0  0  0  0  0  0  0
  192.0700  174.8760  135.7990 C   0  0  0  0  0  3  0  0  0  0  0  0
  194.7090  170.1570  136.9460 O   0  0  0  0  0  0  0  0  0  0  0  0
  196.7010  172.5790  138.1430 C   0  0  0  0  0  1  0  0  0  0  0  0
  195.5530  175.1300  139.0450 C   0  0  0  0  0  2  0  0  0  0  0  0
  194.4340  175.4050  139.8500 O   0  0  0  0  0  1  0  0  0  0  0  0
  189.6840  174.2950  145.2560 C   0  0  0  0  0  2  0  0  0  0  0  0
  190.3920  176.1140  146.9500 C   0  0  1  0  0  3  0  0  0  0  0  0
  191.4850  177.0220  149.0180 C   0  0  0  0  0  1  0  0  0  0  0  0
  190.8400  174.9550  146.0270 C   0  0  2  0  0  3  0  0  0  0  0  0
  191.9220  175.4310  145.0840 C   0  0  0  0  0  3  0  0  0  0  0  0
  191.5640  176.9740  147.5000 C   0  0  1  0  0  3  0  0  0  0  0  0
  192.9600  176.4930  147.0190 C   0  0  0  0  0  2  0  0  0  0  0  0
  192.9240  176.1610  145.5420 C   0  0  0  0  0  0  0  0  0  0  0  0
  187.9150  176.8710  146.7380 C   0  0  0  0  0  1  0  0  0  0  0  0
  189.3550  177.0100  146.3370 C   0  0  0  0  0  0  0  0  0  0  0  0
  189.6630  177.8690  145.5370 O   0  0  0  0  0  0  0  0  0  0  0  0
  194.0170  176.5660  144.7070 N   0  0  0  0  0  2  0  0  0  0  0  0
  196.8700  174.1600  145.4670 N   0  0  0  0  0  0  0  0  0  0  0  0
  195.4350  175.0560  143.2360 C   0  0  1  0  0  3  0  0  0  0  0  0
  194.3710  174.1780  143.1100 F   0  0  0  0  0  0  0  0  0  0  0  0
  195.3370  175.9020  144.5360 C   0  0  2  0  0  3  0  0  0  0  0  0
  197.5370  174.5770  144.1880 C   0  0  0  0  0  2  0  0  0  0  0  0
  195.6410  174.9680  145.6940 C   0  0  0  0  0  2  0  0  0  0  0  0
  196.6810  174.3730  143.0680 O   0  0  0  0  0  0  0  0  0  0  0  0
  196.5400  172.7310  145.4450 C   0  0  0  0  0  0  0  0  0  0  0  0
  195.1510  172.5470  145.3510 F   0  0  0  0  0  0  0  0  0  0  0  0
  197.1010  172.1520  144.3220 F   0  0  0  0  0  0  0  0  0  0  0  0
  197.0270  172.0620  146.5350 F   0  0  0  0  0  0  0  0  0  0  0  0
  188.1650  175.3170  143.6020 N   0  0  0  0  0  2  0  0  0  0  0  0
  188.1670  176.6210  142.4030 P   0  0  2  0  0  0  0  0  0  0  0  0
  187.8950  175.9430  140.8740 O   0  0  0  0  0  0  0  0  0  0  0  0
  189.5300  177.3090  142.4090 O   0  0  0  0  0  1  0  0  0  0  0  0
  187.3170  179.0330  142.3390 O   0  0  0  0  0  1  0  0  0  0  0  0
  186.8990  177.8050  142.7780 N   0  0  0  0  0  0  0  0  0  0  0  0
  184.0710  178.4260  140.4940 C   0  0  0  0  0  2  0  0  0  0  0  0
  185.6880  177.4650  142.0240 C   0  0  2  0  0  3  0  0  0  0  0  0
  183.4350  178.0420  141.8200 C   0  0  0  0  0  2  0  0  0  0  0  0
  185.5750  178.1500  140.6620 C   0  0  0  0  0  2  0  0  0  0  0  0
  184.4970  177.8390  142.7990 N   0  0  0  0  0  2  0  0  0  0  0  0
  1 32  1  1  0  0  0
  3 11  1  6  0  0  0
  3  6  1  0  0  0  0
  4  8  1  0  0  0  0
  5  7  1  0  0  0  0
  5  1  1  1  0  0  0
  6  7  1  0  0  0  0
  8  2  2  0  0  0  0
  8  5  1  0  0  0  0
  9  4  1  0  0  0  0
  9  3  1  0  0  0  0
 11 10  1  1  0  0  0
 12 11  1  0  0  0  0
 13 12  1  0  0  0  0
 14 13  1  0  0  0  0
 15 16  1  6  0  0  0
 15 14  1  0  0  0  0
 17 23  1  0  0  0  0
 17 18  1  0  0  0  0
 18 21  1  0  0  0  0
 19 17  2  0  0  0  0
 20 27  2  0  0  0  0
 20 25  1  0  0  0  0
 21 24  1  6  0  0  0
 22 15  1  0  0  0  0
 22 25  1  0  0  0  0
 22 24  1  0  0  0  0
 23 30  1  1  0  0  0
 25 18  2  0  0  0  0
 26 23  1  0  0  0  0
 26 21  1  0  0  0  0
 26 29  1  0  0  0  0
 27 19  1  0  0  0  0
 28 24  2  0  0  0  0
 30 31  1  0  0  0  0
 33 41  1  6  0  0  0
 33 37  1  0  0  0  0
 35 32  1  6  0  0  0
 35 33  1  0  0  0  0
 36 39  2  0  0  0  0
 36 35  1  0  0  0  0
 37 34  1  1  0  0  0
 38 37  1  0  0  0  0
 39 38  1  0  0  0  0
 41 40  1  0  0  0  0
 42 41  2  0  0  0  0
 43 39  1  0  0  0  0
 44 49  1  0  0  0  0
 45 46  1  1  0  0  0
 45 47  1  0  0  0  0
 47 43  1  1  0  0  0
 47 49  1  0  0  0  0
 48 44  1  0  0  0  0
 50 45  1  0  0  0  0
 50 48  1  0  0  0  0
 51 44  1  0  0  0  0
 51 54  1  0  0  0  0
 52 51  1  0  0  0  0
 53 51  1  0  0  0  0
 55  1  1  0  0  0  0
 56 57  2  6  0  0  0
 56 58  1  0  0  0  0
 56 60  1  0  0  0  0
 56 55  1  0  0  0  0
 59 60  1  0  0  0  0
 61 64  1  0  0  0  0
 61 63  1  0  0  0  0
 62 60  1  1  0  0  0
 62 65  1  0  0  0  0
 63 65  1  0  0  0  0
 64 62  1  0  0  0  0
M  END
>  <MODEL>
2

>  <REMARK>
 VINA RESULT:      -7.0      2.831      8.934
  Name = 
  18 active torsions:
  status: ('A' for Active; 'I' for Inactive)
    1  A    between atoms: C_3  and  N_50
    2  A    between atoms: P_6  and  N_40
    3  A    between atoms: P_6  and  N_50
    4  A    between atoms: C_7  and  N_24
    5  A    between atoms: C_7  and  C_29
    6  A    between atoms: N_9  and  C_31
    7  A    between atoms: C_11  and  C_65
    8  A    between atoms: N_14  and  C_17
    9  A    between atoms: N_14  and  C_62
   10  A    between atoms: C_21  and  C_61
   11  A    between atoms: C_27  and  C_35
   12  A    between atoms: C_29  and  O_41
   13  A    between atoms: C_33  and  C_43
   14  A    between atoms: C_34  and  C_54
   15  A    between atoms: C_35  and  C_54
   16  A    between atoms: N_40  and  C_54
   17  A    between atoms: O_41  and  C_46
   18  A    between atoms: C_46  and  C_65
                            x       y       z     vdW  Elec       q    Type
                         _______ _______ _______ _____ _____    ______ ____

>  <TORSDO>
F 18

$$$$
=
 OpenBabel11072409113D

 65 71  0  0  1  0  0  0  0  0999 V2000
  194.6630  174.0560  142.2310 C   0  0  2  0  0  3  0  0  0  0  0  0
  196.6990  175.5920  143.7250 O   0  0  0  0  0  0  0  0  0  0  0  0
  192.8910  176.1440  146.0120 C   0  0  2  0  0  3  0  0  0  0  0  0
  195.3390  176.1430  145.5360 N   0  0  0  0  0  2  0  0  0  0  0  0
  194.4520  174.6710  143.6180 C   0  0  2  0  0  3  0  0  0  0  0  0
  192.4310  175.0890  145.0080 C   0  0  0  0  0  2  0  0  0  0  0  0
  193.0800  175.3320  143.6600 C   0  0  0  0  0  2  0  0  0  0  0  0
  195.5480  175.5080  144.2620 C   0  0  0  0  0  0  0  0  0  0  0  0
  194.3030  175.8050  146.5030 C   0  0  0  0  0  2  0  0  0  0  0  0
  191.0490  174.8990  147.3080 C   0  0  0  0  0  1  0  0  0  0  0  0
  191.9440  176.1230  147.2510 C   0  0  2  0  0  3  0  0  0  0  0  0
  191.1100  177.4080  147.4280 C   0  0  0  0  0  2  0  0  0  0  0  0
  189.7740  177.0840  147.7980 O   0  0  0  0  0  0  0  0  0  0  0  0
  188.9880  177.8970  146.9490 C   0  0  0  0  0  2  0  0  0  0  0  0
  187.5050  177.5030  147.0070 C   0  0  1  0  0  3  0  0  0  0  0  0
  186.5980  178.4570  147.7820 C   0  0  0  0  0  1  0  0  0  0  0  0
  186.0510  178.2160  142.4730 C   0  0  0  0  0  0  0  0  0  0  0  0
  186.8430  178.1220  143.5890 C   0  0  0  0  0  0  0  0  0  0  0  0
  184.6950  178.5420  142.6120 C   0  0  0  0  0  3  0  0  0  0  0  0
  184.8910  178.2740  145.0150 C   0  0  0  0  0  3  0  0  0  0  0  0
  187.8750  177.0870  143.4250 C   0  0  1  0  0  3  0  0  0  0  0  0
  186.9740  177.1510  145.6820 N   0  0  0  0  0  0  0  0  0  0  0  0
  186.3990  177.0490  141.5760 C   0  0  2  0  0  3  0  0  0  0  0  0
  187.8240  176.4600  144.7720 C   0  0  0  0  0  0  0  0  0  0  0  0
  186.2760  178.0920  144.8660 C   0  0  0  0  0  0  0  0  0  0  0  0
  187.2670  176.1870  142.4280 N   0  0  0  0  0  0  0  0  0  0  0  0
  184.1100  178.5760  143.8950 C   0  0  0  0  0  3  0  0  0  0  0  0
  188.4960  175.4300  145.0850 O   0  0  0  0  0  0  0  0  0  0  0  0
  188.2440  175.3380  141.7390 C   0  0  0  0  0  1  0  0  0  0  0  0
  187.0630  177.6000  140.2810 C   0  0  0  0  0  2  0  0  0  0  0  0
  186.3910  177.0960  139.1540 O   0  0  0  0  0  1  0  0  0  0  0  0
  194.2690  172.5820  142.2130 C   0  0  0  0  0  2  0  0  0  0  0  0
  192.1200  171.9600  143.5070 C   0  0  1  0  0  3  0  0  0  0  0  0
  189.7800  172.2780  144.3570 C   0  0  0  0  0  1  0  0  0  0  0  0
  192.7440  172.3890  142.1570 C   0  0  2  0  0  3  0  0  0  0  0  0
  192.3590  171.4090  141.0710 C   0  0  0  0  0  3  0  0  0  0  0  0
  190.6470  171.4770  143.3970 C   0  0  1  0  0  3  0  0  0  0  0  0
  190.0860  171.5300  141.9500 C   0  0  0  0  0  2  0  0  0  0  0  0
  191.1080  170.9940  140.9690 C   0  0  0  0  0  0  0  0  0  0  0  0
  193.8970  171.3770  145.3100 C   0  0  0  0  0  1  0  0  0  0  0  0
  192.9300  170.9370  144.2500 C   0  0  0  0  0  0  0  0  0  0  0  0
  192.7980  169.7510  144.0290 O   0  0  0  0  0  0  0  0  0  0  0  0
  190.6750  170.1320  139.9070 N   0  0  0  0  0  2  0  0  0  0  0  0
  189.2590  172.3680  137.1690 N   0  0  0  0  0  0  0  0  0  0  0  0
  191.3610  170.5490  137.4970 C   0  0  1  0  0  3  0  0  0  0  0  0
  192.4350  171.3070  137.9330 F   0  0  0  0  0  0  0  0  0  0  0  0
  190.2140  170.5130  138.5450 C   0  0  2  0  0  3  0  0  0  0  0  0
  189.5710  171.3000  136.1610 C   0  0  0  0  0  2  0  0  0  0  0  0
  189.5710  171.8880  138.5420 C   0  0  0  0  0  2  0  0  0  0  0  0
  190.9520  170.9520  136.1870 O   0  0  0  0  0  0  0  0  0  0  0  0
  190.0060  173.5960  136.8800 C   0  0  0  0  0  0  0  0  0  0  0  0
  189.1350  174.6950  136.7930 F   0  0  0  0  0  0  0  0  0  0  0  0
  190.8770  173.8540  137.9220 F   0  0  0  0  0  0  0  0  0  0  0  0
  190.7540  173.5010  135.7380 F   0  0  0  0  0  0  0  0  0  0  0  0
  195.9940  174.2500  141.6420 N   0  0  0  0  0  2  0  0  0  0  0  0
  195.8440  175.0300  140.0580 P   0  0  2  0  0  0  0  0  0  0  0  0
  197.2340  175.9610  139.7850 O   0  0  0  0  0  0  0  0  0  0  0  0
  194.6220  175.9440  140.0600 O   0  0  0  0  0  1  0  0  0  0  0  0
  194.3600  173.7790  138.3910 O   0  0  0  0  0  1  0  0  0  0  0  0
  195.6710  173.8060  138.7830 N   0  0  0  0  0  0  0  0  0  0  0  0
  196.2210  174.9300  135.3140 C   0  0  0  0  0  2  0  0  0  0  0  0
  196.4630  174.2140  137.6180 C   0  0  2  0  0  3  0  0  0  0  0  0
  196.9360  173.5940  135.4180 C   0  0  0  0  0  2  0  0  0  0  0  0
  195.8100  175.2910  136.7510 C   0  0  0  0  0  2  0  0  0  0  0  0
  196.7120  173.0520  136.7530 N   0  0  0  0  0  2  0  0  0  0  0  0
  1 32  1  1  0  0  0
  2  8  2  0  0  0  0
  3  9  1  0  0  0  0
  3 11  1  1  0  0  0
  4  9  1  0  0  0  0
  5  1  1  6  0  0  0
  5  7  1  0  0  0  0
  5  8  1  0  0  0  0
  6  3  1  0  0  0  0
  7  6  1  0  0  0  0
  8  4  1  0  0  0  0
 11 10  1  6  0  0  0
 11 12  1  0  0  0  0
 12 13  1  0  0  0  0
 14 15  1  0  0  0  0
 14 13  1  0  0  0  0
 15 16  1  6  0  0  0
 17 19  2  0  0  0  0
 17 18  1  0  0  0  0
 18 25  2  0  0  0  0
 19 27  1  0  0  0  0
 21 18  1  1  0  0  0
 21 24  1  0  0  0  0
 22 15  1  0  0  0  0
 23 30  1  6  0  0  0
 23 26  1  0  0  0  0
 23 17  1  0  0  0  0
 24 28  2  0  0  0  0
 24 22  1  0  0  0  0
 25 20  1  0  0  0  0
 25 22  1  0  0  0  0
 26 21  1  0  0  0  0
 27 20  2  0  0  0  0
 29 26  1  0  0  0  0
 31 30  1  0  0  0  0
 33 41  1  6  0  0  0
 35 32  1  1  0  0  0
 35 33  1  0  0  0  0
 36 35  1  0  0  0  0
 37 33  1  0  0  0  0
 37 34  1  1  0  0  0
 38 37  1  0  0  0  0
 39 36  2  0  0  0  0
 39 38  1  0  0  0  0
 41 40  1  0  0  0  0
 42 41  2  0  0  0  0
 43 39  1  0  0  0  0
 44 49  1  0  0  0  0
 45 46  1  1  0  0  0
 45 47  1  0  0  0  0
 47 43  1  1  0  0  0
 48 50  1  0  0  0  0
 48 44  1  0  0  0  0
 49 47  1  0  0  0  0
 50 45  1  0  0  0  0
 51 44  1  0  0  0  0
 51 53  1  0  0  0  0
 52 51  1  0  0  0  0
 54 51  1  0  0  0  0
 55  1  1  0  0  0  0
 56 57  2  6  0  0  0
 56 58  1  0  0  0  0
 56 55  1  0  0  0  0
 59 60  1  0  0  0  0
 60 56  1  0  0  0  0
 61 63  1  0  0  0  0
 61 64  1  0  0  0  0
 62 60  1  1  0  0  0
 63 65  1  0  0  0  0
 64 62  1  0  0  0  0
 65 62  1  0  0  0  0
M  END
>  <MODEL>
3

>  <REMARK>
 VINA RESULT:      -6.9      3.095      7.646
  Name = 
  18 active torsions:
  status: ('A' for Active; 'I' for Inactive)
    1  A    between atoms: C_3  and  N_50
    2  A    between atoms: P_6  and  N_40
    3  A    between atoms: P_6  and  N_50
    4  A    between atoms: C_7  and  N_24
    5  A    between atoms: C_7  and  C_29
    6  A    between atoms: N_9  and  C_31
    7  A    between atoms: C_11  and  C_65
    8  A    between atoms: N_14  and  C_17
    9  A    between atoms: N_14  and  C_62
   10  A    between atoms: C_21  and  C_61
   11  A    between atoms: C_27  and  C_35
   12  A    between atoms: C_29  and  O_41
   13  A    between atoms: C_33  and  C_43
   14  A    between atoms: C_34  and  C_54
   15  A    between atoms: C_35  and  C_54
   16  A    between atoms: N_40  and  C_54
   17  A    between atoms: O_41  and  C_46
   18  A    between atoms: C_46  and  C_65
                            x       y       z     vdW  Elec       q    Type
                         _______ _______ _______ _____ _____    ______ ____

>  <TORSDO>
F 18

$$$$
=
 OpenBabel11072409113D

 65 71  0  0  1  0  0  0  0  0999 V2000
  192.4880  174.6670  144.1150 C   0  0  2  0  0  3  0  0  0  0  0  0
  194.5140  176.7270  144.7410 O   0  0  0  0  0  0  0  0  0  0  0  0
  196.0360  174.6500  141.0800 C   0  0  2  0  0  3  0  0  0  0  0  0
  195.8120  176.4110  142.8320 N   0  0  0  0  0  2  0  0  0  0  0  0
  193.6520  175.0580  143.1980 C   0  0  2  0  0  3  0  0  0  0  0  0
  194.6500  174.0160  141.1710 C   0  0  0  0  0  2  0  0  0  0  0  0
  194.2710  173.7920  142.6220 C   0  0  0  0  0  2  0  0  0  0  0  0
  194.6800  176.0810  143.6570 C   0  0  0  0  0  0  0  0  0  0  0  0
  195.9400  176.1450  141.4040 C   0  0  0  0  0  2  0  0  0  0  0  0
  197.6210  175.5510  139.2640 C   0  0  0  0  0  1  0  0  0  0  0  0
  196.5660  174.5200  139.6200 C   0  0  2  0  0  3  0  0  0  0  0  0
  195.4590  174.4920  138.5470 C   0  0  0  0  0  2  0  0  0  0  0  0
  195.4560  173.2390  137.8700 O   0  0  0  0  0  0  0  0  0  0  0  0
  194.9230  173.5510  136.5980 C   0  0  0  0  0  2  0  0  0  0  0  0
  194.3250  172.3100  135.9190 C   0  0  1  0  0  3  0  0  0  0  0  0
  194.9710  170.9780  136.2920 C   0  0  0  0  0  1  0  0  0  0  0  0
  190.0060  172.1970  138.0430 C   0  0  0  0  0  0  0  0  0  0  0  0
  191.2450  172.6150  137.6300 C   0  0  0  0  0  0  0  0  0  0  0  0
  189.7520  170.8270  138.1970 C   0  0  0  0  0  3  0  0  0  0  0  0
  191.8730  170.3300  137.1290 C   0  0  0  0  0  3  0  0  0  0  0  0
  191.1510  173.8250  136.7980 C   0  0  1  0  0  3  0  0  0  0  0  0
  192.8580  172.2850  136.0080 N   0  0  0  0  0  0  0  0  0  0  0  0
  188.9810  173.0170  137.2900 C   0  0  2  0  0  3  0  0  0  0  0  0
  192.1400  173.4860  135.7420 C   0  0  0  0  0  0  0  0  0  0  0  0
  192.1710  171.7030  137.1160 C   0  0  0  0  0  0  0  0  0  0  0  0
  189.7840  173.7310  136.2560 N   0  0  0  0  0  0  0  0  0  0  0  0
  190.6970  169.8850  137.7390 C   0  0  0  0  0  3  0  0  0  0  0  0
  192.3450  174.2130  134.7220 O   0  0  0  0  0  0  0  0  0  0  0  0
  189.2600  175.0130  135.7760 C   0  0  0  0  0  1  0  0  0  0  0  0
  188.2300  173.9250  138.3050 C   0  0  0  0  0  2  0  0  0  0  0  0
  188.9100  173.9200  139.5360 O   0  0  0  0  0  1  0  0  0  0  0  0
  192.4200  175.5730  145.3410 C   0  0  0  0  0  2  0  0  0  0  0  0
  190.5000  176.6420  146.7020 C   0  0  1  0  0  3  0  0  0  0  0  0
  189.0690  178.5090  147.5740 C   0  0  0  0  0  1  0  0  0  0  0  0
  191.1820  176.4850  145.3200 C   0  0  2  0  0  3  0  0  0  0  0  0
  190.1760  176.0150  144.2950 C   0  0  0  0  0  2  0  0  0  0  0  0
  189.0970  177.3070  146.6420 C   0  0  1  0  0  3  0  0  0  0  0  0
  188.6580  177.6940  145.2040 C   0  0  0  0  0  2  0  0  0  0  0  0
  188.9800  176.5750  144.2360 C   0  0  0  0  0  0  0  0  0  0  0  0
  189.1990  174.4940  147.3700 C   0  0  0  0  0  1  0  0  0  0  0  0
  190.4180  175.3630  147.4840 C   0  0  0  0  0  0  0  0  0  0  0  0
  191.3350  175.0010  148.1920 O   0  0  0  0  0  0  0  0  0  0  0  0
  188.0220  176.2230  143.2280 N   0  0  0  0  0  0  0  0  0  0  0  0
  184.7080  177.8330  144.1960 N   0  0  0  0  0  0  0  0  0  0  0  0
  186.6090  178.0390  142.1510 C   0  0  1  0  0  3  0  0  0  0  0  0
  187.5090  178.9980  142.5850 F   0  0  0  0  0  0  0  0  0  0  0  0
  186.6490  176.7630  143.0380 C   0  0  2  0  0  3  0  0  0  0  0  0
  184.3330  177.8890  142.7430 C   0  0  0  0  0  2  0  0  0  0  0  0
  186.0090  177.1300  144.3650 C   0  0  0  0  0  2  0  0  0  0  0  0
  185.3050  178.6030  141.9840 O   0  0  0  0  0  0  0  0  0  0  0  0
  184.7820  179.1800  144.7710 C   0  0  0  0  0  0  0  0  0  0  0  0
  184.1160  180.1050  143.9500 F   0  0  0  0  0  0  0  0  0  0  0  0
  184.1370  179.1880  145.9940 F   0  0  0  0  0  0  0  0  0  0  0  0
  186.0700  179.5900  144.9870 F   0  0  0  0  0  0  0  0  0  0  0  0
  192.4290  173.2530  144.5040 N   0  0  0  0  0  2  0  0  0  0  0  0
  191.0390  172.4720  143.7330 P   0  0  2  0  0  0  0  0  0  0  0  0
  190.5180  173.4500  142.4510 O   0  0  0  0  0  0  0  0  0  0  0  0
  189.9080  172.3370  144.7500 O   0  0  0  0  0  1  0  0  0  0  0  0
  190.5110  170.4380  142.2740 O   0  0  0  0  0  1  0  0  0  0  0  0
  191.4920  170.8650  143.1290 N   0  0  0  0  0  0  0  0  0  0  0  0
  193.7420  170.2260  140.2770 C   0  0  0  0  0  2  0  0  0  0  0  0
  192.7270  170.9790  142.3470 C   0  0  2  0  0  3  0  0  0  0  0  0
  194.4790  169.6940  141.4940 C   0  0  0  0  0  2  0  0  0  0  0  0
  192.5230  170.9830  140.8320 C   0  0  0  0  0  2  0  0  0  0  0  0
  193.6210  169.8560  142.6620 N   0  0  0  0  0  2  0  0  0  0  0  0
  1 55  1  0  0  0  0
  1 32  1  1  0  0  0
  3 11  1  6  0  0  0
  3  6  1  0  0  0  0
  3  9  1  0  0  0  0
  4  8  1  0  0  0  0
  5  8  1  0  0  0  0
  5  1  1  1  0  0  0
  6  7  1  0  0  0  0
  7  5  1  0  0  0  0
  8  2  2  0  0  0  0
  9  4  1  0  0  0  0
 11 10  1  6  0  0  0
 12 11  1  0  0  0  0
 13 12  1  0  0  0  0
 14 13  1  0  0  0  0
 15 22  1  0  0  0  0
 15 16  1  1  0  0  0
 15 14  1  0  0  0  0
 17 19  1  0  0  0  0
 18 17  2  0  0  0  0
 20 27  1  0  0  0  0
 21 24  1  6  0  0  0
 21 18  1  0  0  0  0
 22 25  1  0  0  0  0
 23 17  1  0  0  0  0
 23 30  1  1  0  0  0
 24 22  1  0  0  0  0
 25 20  2  0  0  0  0
 25 18  1  0  0  0  0
 26 21  1  0  0  0  0
 26 23  1  0  0  0  0
 27 19  2  0  0  0  0
 28 24  2  0  0  0  0
 29 26  1  0  0  0  0
 30 31  1  0  0  0  0
 33 41  1  6  0  0  0
 35 32  1  1  0  0  0
 35 33  1  0  0  0  0
 36 35  1  0  0  0  0
 37 33  1  0  0  0  0
 37 34  1  1  0  0  0
 38 37  1  0  0  0  0
 39 36  1  0  0  0  0
 39 38  1  0  0  0  0
 40 41  1  0  0  0  0
 41 42  2  0  0  0  0
 43 39  2  0  0  0  0
 44 49  1  0  0  0  0
 44 51  1  0  0  0  0
 45 46  1  1  0  0  0
 45 47  1  0  0  0  0
 47 43  1  1  0  0  0
 47 49  1  0  0  0  0
 48 44  1  0  0  0  0
 50 45  1  0  0  0  0
 50 48  1  0  0  0  0
 51 54  1  0  0  0  0
 51 53  1  0  0  0  0
 52 51  1  0  0  0  0
 56 57  2  6  0  0  0
 56 55  1  0  0  0  0
 56 58  1  0  0  0  0
 59 60  1  0  0  0  0
 60 56  1  0  0  0  0
 61 64  1  0  0  0  0
 61 63  1  0  0  0  0
 62 65  1  0  0  0  0
 62 60  1  1  0  0  0
 63 65  1  0  0  0  0
 64 62  1  0  0  0  0
M  END
>  <MODEL>
4

>  <REMARK>
 VINA RESULT:      -6.7      2.491      8.700
  Name = 
  18 active torsions:
  status: ('A' for Active; 'I' for Inactive)
    1  A    between atoms: C_3  and  N_50
    2  A    between atoms: P_6  and  N_40
    3  A    between atoms: P_6  and  N_50
    4  A    between atoms: C_7  and  N_24
    5  A    between atoms: C_7  and  C_29
    6  A    between atoms: N_9  and  C_31
    7  A    between atoms: C_11  and  C_65
    8  A    between atoms: N_14  and  C_17
    9  A    between atoms: N_14  and  C_62
   10  A    between atoms: C_21  and  C_61
   11  A    between atoms: C_27  and  C_35
   12  A    between atoms: C_29  and  O_41
   13  A    between atoms: C_33  and  C_43
   14  A    between atoms: C_34  and  C_54
   15  A    between atoms: C_35  and  C_54
   16  A    between atoms: N_40  and  C_54
   17  A    between atoms: O_41  and  C_46
   18  A    between atoms: C_46  and  C_65
                            x       y       z     vdW  Elec       q    Type
                         _______ _______ _______ _____ _____    ______ ____

>  <TORSDO>
F 18

$$$$
=
 OpenBabel11072409113D

 65 71  0  0  1  0  0  0  0  0999 V2000
  191.2980  171.4290  139.1560 C   0  0  2  0  0  3  0  0  0  0  0  0
  191.0390  171.4760  136.2120 O   0  0  0  0  0  0  0  0  0  0  0  0
  187.8450  174.2250  137.7220 C   0  0  2  0  0  3  0  0  0  0  0  0
  189.4220  173.1510  136.1150 N   0  0  0  0  0  2  0  0  0  0  0  0
  190.4130  172.4020  138.3710 C   0  0  2  0  0  3  0  0  0  0  0  0
  188.5850  173.9560  139.0300 C   0  0  0  0  0  2  0  0  0  0  0  0
  189.0660  172.5190  139.0740 C   0  0  0  0  0  2  0  0  0  0  0  0
  190.2980  172.2850  136.8580 C   0  0  0  0  0  0  0  0  0  0  0  0
  188.8580  174.4100  136.5870 C   0  0  0  0  0  2  0  0  0  0  0  0
  187.1630  176.4580  136.6420 C   0  0  0  0  0  1  0  0  0  0  0  0
  187.0350  175.5500  137.8510 C   0  0  2  0  0  3  0  0  0  0  0  0
  187.3200  176.3380  139.1460 C   0  0  0  0  0  2  0  0  0  0  0  0
  186.2610  177.2530  139.4120 O   0  0  0  0  0  0  0  0  0  0  0  0
  186.2770  177.3790  140.8210 C   0  0  0  0  0  2  0  0  0  0  0  0
  187.7070  177.2990  141.3770 C   0  0  1  0  0  3  0  0  0  0  0  0
  188.4670  178.6220  141.4330 C   0  0  0  0  0  1  0  0  0  0  0  0
  189.7470  175.0220  145.0960 C   0  0  0  0  0  0  0  0  0  0  0  0
  189.3590  176.0070  144.2240 C   0  0  0  0  0  0  0  0  0  0  0  0
  189.8930  173.7070  144.6340 C   0  0  0  0  0  3  0  0  0  0  0  0
  188.8660  174.3460  142.5310 C   0  0  0  0  0  3  0  0  0  0  0  0
  188.5270  177.0180  144.8970 C   0  0  1  0  0  3  0  0  0  0  0  0
  187.7680  176.5440  142.6360 N   0  0  0  0  0  0  0  0  0  0  0  0
  188.9750  175.2290  146.3810 C   0  0  2  0  0  3  0  0  0  0  0  0
  187.4900  177.2290  143.8540 C   0  0  0  0  0  0  0  0  0  0  0  0
  188.8620  175.6850  142.9580 C   0  0  0  0  0  0  0  0  0  0  0  0
  187.9580  176.2600  146.0250 N   0  0  0  0  0  0  0  0  0  0  0  0
  189.4530  173.3670  143.3380 C   0  0  0  0  0  3  0  0  0  0  0  0
  186.4750  177.9730  144.0230 O   0  0  0  0  0  0  0  0  0  0  0  0
  187.4700  177.1150  147.1120 C   0  0  0  0  0  1  0  0  0  0  0  0
  189.9770  175.6300  147.5010 C   0  0  0  0  0  2  0  0  0  0  0  0
  190.9210  176.5360  146.9880 O   0  0  0  0  0  1  0  0  0  0  0  0
  192.7540  171.5190  138.7070 C   0  0  0  0  0  2  0  0  0  0  0  0
  194.2270  173.3300  137.5970 C   0  0  1  0  0  3  0  0  0  0  0  0
  194.7510  175.5840  136.6280 C   0  0  0  0  0  1  0  0  0  0  0  0
  193.2950  172.9570  138.7770 C   0  0  2  0  0  3  0  0  0  0  0  0
  193.9950  173.2120  140.0920 C   0  0  0  0  0  3  0  0  0  0  0  0
  195.0100  174.6560  137.8050 C   0  0  1  0  0  3  0  0  0  0  0  0
  194.6950  175.3530  139.1570 C   0  0  0  0  0  2  0  0  0  0  0  0
  194.6620  174.3370  140.2790 C   0  0  0  0  0  0  0  0  0  0  0  0
  194.9530  171.4550  135.9520 C   0  0  0  0  0  1  0  0  0  0  0  0
  195.1820  172.2370  137.2120 C   0  0  0  0  0  0  0  0  0  0  0  0
  196.1580  171.9890  137.8900 O   0  0  0  0  0  0  0  0  0  0  0  0
  195.2720  174.6630  141.5360 N   0  0  0  0  0  2  0  0  0  0  0  0
  193.3340  175.4260  144.7250 N   0  0  0  0  0  0  0  0  0  0  0  0
  195.8040  176.0770  143.5790 C   0  0  1  0  0  3  0  0  0  0  0  0
  196.6810  175.1030  144.0250 F   0  0  0  0  0  0  0  0  0  0  0  0
  194.7130  175.4880  142.6410 C   0  0  2  0  0  3  0  0  0  0  0  0
  193.8670  176.8290  144.6910 C   0  0  0  0  0  2  0  0  0  0  0  0
  193.7710  174.6790  143.5140 C   0  0  0  0  0  2  0  0  0  0  0  0
  195.2920  176.8410  144.6740 O   0  0  0  0  0  0  0  0  0  0  0  0
  193.7740  174.7270  145.9370 C   0  0  0  0  0  0  0  0  0  0  0  0
  194.8270  173.8450  145.6440 F   0  0  0  0  0  0  0  0  0  0  0  0
  194.2610  175.6500  146.8430 F   0  0  0  0  0  0  0  0  0  0  0  0
  192.7560  174.0500  146.5530 F   0  0  0  0  0  0  0  0  0  0  0  0
  190.8440  170.0330  139.1870 N   0  0  0  0  0  2  0  0  0  0  0  0
  191.5260  169.2070  140.5970 P   0  0  2  0  0  0  0  0  0  0  0  0
  192.9070  168.3570  140.1050 O   0  0  0  0  0  0  0  0  0  0  0  0
  190.5000  168.2190  141.1480 O   0  0  0  0  0  1  0  0  0  0  0  0
  190.8580  170.5730  142.6550 O   0  0  0  0  0  1  0  0  0  0  0  0
  191.9530  170.3860  141.8540 N   0  0  0  0  0  0  0  0  0  0  0  0
  194.2280  170.2420  144.7530 C   0  0  0  0  0  2  0  0  0  0  0  0
  193.0140  169.8240  142.6970 C   0  0  2  0  0  3  0  0  0  0  0  0
  195.1360  170.3110  143.5370 C   0  0  0  0  0  2  0  0  0  0  0  0
  192.8100  170.0300  144.1980 C   0  0  0  0  0  2  0  0  0  0  0  0
  194.3040  170.4330  142.3460 N   0  0  0  0  0  2  0  0  0  0  0  0
  1 32  1  6  0  0  0
  1 55  1  0  0  0  0
  2  8  2  0  0  0  0
  3 11  1  1  0  0  0
  3  6  1  0  0  0  0
  4  9  1  0  0  0  0
  4  8  1  0  0  0  0
  5  7  1  0  0  0  0
  5  1  1  1  0  0  0
  6  7  1  0  0  0  0
  8  5  1  0  0  0  0
  9  3  1  0  0  0  0
 11 10  1  6  0  0  0
 11 12  1  0  0  0  0
 12 13  1  0  0  0  0
 13 14  1  0  0  0  0
 14 15  1  0  0  0  0
 15 16  1  1  0  0  0
 15 22  1  0  0  0  0
 17 23  1  0  0  0  0
 18 21  1  0  0  0  0
 18 17  2  0  0  0  0
 19 17  1  0  0  0  0
 20 25  2  0  0  0  0
 20 27  1  0  0  0  0
 21 24  1  6  0  0  0
 21 26  1  0  0  0  0
 22 25  1  0  0  0  0
 22 24  1  0  0  0  0
 23 30  1  1  0  0  0
 24 28  2  0  0  0  0
 25 18  1  0  0  0  0
 26 23  1  0  0  0  0
 26 29  1  0  0  0  0
 27 19  2  0  0  0  0
 31 30  1  0  0  0  0
 33 41  1  1  0  0  0
 33 37  1  0  0  0  0
 33 35  1  0  0  0  0
 35 32  1  6  0  0  0
 35 36  1  0  0  0  0
 36 39  2  0  0  0  0
 37 34  1  6  0  0  0
 37 38  1  0  0  0  0
 38 39  1  0  0  0  0
 39 43  1  0  0  0  0
 40 41  1  0  0  0  0
 41 42  2  0  0  0  0
 44 51  1  0  0  0  0
 45 46  1  1  0  0  0
 45 50  1  0  0  0  0
 47 43  1  6  0  0  0
 47 49  1  0  0  0  0
 47 45  1  0  0  0  0
 48 44  1  0  0  0  0
 49 44  1  0  0  0  0
 50 48  1  0  0  0  0
 51 54  1  0  0  0  0
 51 53  1  0  0  0  0
 52 51  1  0  0  0  0
 55 56  1  0  0  0  0
 56 57  2  6  0  0  0
 56 58  1  0  0  0  0
 56 60  1  0  0  0  0
 60 59  1  0  0  0  0
 62 60  1  6  0  0  0
 62 64  1  0  0  0  0
 63 61  1  0  0  0  0
 64 61  1  0  0  0  0
 65 62  1  0  0  0  0
 65 63  1  0  0  0  0
M  END
>  <MODEL>
5

>  <REMARK>
 VINA RESULT:      -6.6      1.708      2.349
  Name = 
  18 active torsions:
  status: ('A' for Active; 'I' for Inactive)
    1  A    between atoms: C_3  and  N_50
    2  A    between atoms: P_6  and  N_40
    3  A    between atoms: P_6  and  N_50
    4  A    between atoms: C_7  and  N_24
    5  A    between atoms: C_7  and  C_29
    6  A    between atoms: N_9  and  C_31
    7  A    between atoms: C_11  and  C_65
    8  A    between atoms: N_14  and  C_17
    9  A    between atoms: N_14  and  C_62
   10  A    between atoms: C_21  and  C_61
   11  A    between atoms: C_27  and  C_35
   12  A    between atoms: C_29  and  O_41
   13  A    between atoms: C_33  and  C_43
   14  A    between atoms: C_34  and  C_54
   15  A    between atoms: C_35  and  C_54
   16  A    between atoms: N_40  and  C_54
   17  A    between atoms: O_41  and  C_46
   18  A    between atoms: C_46  and  C_65
                            x       y       z     vdW  Elec       q    Type
                         _______ _______ _______ _____ _____    ______ ____

>  <TORSDO>
F 18

$$$$
=
 OpenBabel11072409113D

 65 71  0  0  1  0  0  0  0  0999 V2000
  190.0250  174.6070  142.1330 C   0  0  2  0  0  3  0  0  0  0  0  0
  190.2240  171.9680  143.4500 O   0  0  0  0  0  0  0  0  0  0  0  0
  189.8890  171.0820  139.0750 C   0  0  2  0  0  3  0  0  0  0  0  0
  190.3600  170.7060  141.4950 N   0  0  0  0  0  2  0  0  0  0  0  0
  190.2240  173.2760  141.4010 C   0  0  2  0  0  3  0  0  0  0  0  0
  190.0430  172.6000  139.0140 C   0  0  0  0  0  2  0  0  0  0  0  0
  189.3180  173.2470  140.1770 C   0  0  0  0  0  2  0  0  0  0  0  0
  190.2370  171.9680  142.1770 C   0  0  0  0  0  0  0  0  0  0  0  0
  190.8400  170.5110  140.1330 C   0  0  0  0  0  2  0  0  0  0  0  0
  190.3870  168.9530  137.7180 C   0  0  0  0  0  1  0  0  0  0  0  0
  190.2920  170.4680  137.7000 C   0  0  2  0  0  3  0  0  0  0  0  0
  191.5670  171.0800  137.0860 C   0  0  0  0  0  2  0  0  0  0  0  0
  192.4170  170.0530  136.5850 O   0  0  0  0  0  0  0  0  0  0  0  0
  193.4940  170.7660  136.0090 C   0  0  0  0  0  2  0  0  0  0  0  0
  194.8130  170.4840  136.7450 C   0  0  1  0  0  3  0  0  0  0  0  0
  195.8770  169.7480  135.9340 C   0  0  0  0  0  1  0  0  0  0  0  0
  194.6400  174.6430  139.1630 C   0  0  0  0  0  0  0  0  0  0  0  0
  194.5230  173.3140  138.8450 C   0  0  0  0  0  0  0  0  0  0  0  0
  194.5600  175.6080  138.1500 C   0  0  0  0  0  3  0  0  0  0  0  0
  194.6490  173.8450  136.4850 C   0  0  0  0  0  3  0  0  0  0  0  0
  195.3590  172.4800  139.7220 C   0  0  1  0  0  3  0  0  0  0  0  0
  195.3310  171.6780  137.4270 N   0  0  0  0  0  0  0  0  0  0  0  0
  195.7730  174.7680  140.1580 C   0  0  2  0  0  3  0  0  0  0  0  0
  195.9060  171.5270  138.7210 C   0  0  0  0  0  0  0  0  0  0  0  0
  194.5830  172.8910  137.5140 C   0  0  0  0  0  0  0  0  0  0  0  0
  196.4100  173.4210  140.1470 N   0  0  0  0  0  0  0  0  0  0  0  0
  194.5600  175.2050  136.7970 C   0  0  0  0  0  3  0  0  0  0  0  0
  196.7750  170.6460  139.0020 O   0  0  0  0  0  0  0  0  0  0  0  0
  197.1040  173.0030  141.3700 C   0  0  0  0  0  1  0  0  0  0  0  0
  195.1840  175.2240  141.5240 C   0  0  0  0  0  2  0  0  0  0  0  0
  194.6460  176.5170  141.3990 O   0  0  0  0  0  1  0  0  0  0  0  0
  191.3570  175.1890  142.5980 C   0  0  0  0  0  2  0  0  0  0  0  0
  191.6610  176.1190  144.9900 C   0  0  1  0  0  3  0  0  0  0  0  0
  191.2260  176.2980  147.4550 C   0  0  0  0  0  1  0  0  0  0  0  0
  191.6450  174.8700  144.0750 C   0  0  2  0  0  3  0  0  0  0  0  0
  192.9390  174.1010  144.2240 C   0  0  0  0  0  3  0  0  0  0  0  0
  192.2380  175.8560  146.4090 C   0  0  1  0  0  3  0  0  0  0  0  0
  192.6790  174.3840  146.6330 C   0  0  0  0  0  2  0  0  0  0  0  0
  193.4370  173.8720  145.4260 C   0  0  0  0  0  0  0  0  0  0  0  0
  191.5330  178.4660  143.8820 C   0  0  0  0  0  1  0  0  0  0  0  0
  192.3470  177.3080  144.3810 C   0  0  0  0  0  0  0  0  0  0  0  0
  193.5570  177.3640  144.3060 O   0  0  0  0  0  0  0  0  0  0  0  0
  194.6140  173.0760  145.6250 N   0  0  0  0  0  2  0  0  0  0  0  0
  194.0330  169.4170  144.7440 N   0  0  0  0  0  0  0  0  0  0  0  0
  196.1540  171.0570  145.5500 C   0  0  1  0  0  3  0  0  0  0  0  0
  196.7170  171.5290  144.3760 F   0  0  0  0  0  0  0  0  0  0  0  0
  194.7120  171.5980  145.7590 C   0  0  2  0  0  3  0  0  0  0  0  0
  194.9970  169.0230  145.8260 C   0  0  0  0  0  2  0  0  0  0  0  0
  193.8250  170.8900  144.7510 C   0  0  0  0  0  2  0  0  0  0  0  0
  196.2690  169.6340  145.6340 O   0  0  0  0  0  0  0  0  0  0  0  0
  194.5140  168.9800  143.4290 C   0  0  0  0  0  0  0  0  0  0  0  0
  193.4910  168.3280  142.7210 F   0  0  0  0  0  0  0  0  0  0  0  0
  194.8760  170.0880  142.6860 F   0  0  0  0  0  0  0  0  0  0  0  0
  195.6130  168.1690  143.5130 F   0  0  0  0  0  0  0  0  0  0  0  0
  189.0480  174.5930  143.2300 N   0  0  0  0  0  2  0  0  0  0  0  0
  188.0460  176.0530  143.1640 P   0  0  2  0  0  0  0  0  0  0  0  0
  186.6680  175.7160  142.2370 O   0  0  0  0  0  0  0  0  0  0  0  0
  188.8360  177.1760  142.4970 O   0  0  0  0  0  1  0  0  0  0  0  0
  188.4410  177.5190  145.2230 O   0  0  0  0  0  1  0  0  0  0  0  0
  187.5730  176.5480  144.8020 N   0  0  0  0  0  0  0  0  0  0  0  0
  185.0800  179.2380  145.1960 C   0  0  0  0  0  2  0  0  0  0  0  0
  186.2380  177.1550  144.7510 C   0  0  2  0  0  3  0  0  0  0  0  0
  184.6140  178.1250  146.1180 C   0  0  0  0  0  2  0  0  0  0  0  0
  186.2270  178.6350  144.3670 C   0  0  0  0  0  2  0  0  0  0  0  0
  185.5890  177.0420  146.0640 N   0  0  0  0  0  2  0  0  0  0  0  0
  1 32  1  1  0  0  0
  1 55  1  0  0  0  0
  3 11  1  6  0  0  0
  3  9  1  0  0  0  0
  4  8  1  0  0  0  0
  5  1  1  1  0  0  0
  5  8  1  0  0  0  0
  6  3  1  0  0  0  0
  6  7  1  0  0  0  0
  7  5  1  0  0  0  0
  8  2  2  0  0  0  0
  9  4  1  0  0  0  0
 11 10  1  1  0  0  0
 12 11  1  0  0  0  0
 13 12  1  0  0  0  0
 14 13  1  0  0  0  0
 14 15  1  0  0  0  0
 15 16  1  6  0  0  0
 15 22  1  0  0  0  0
 17 23  1  0  0  0  0
 18 17  1  0  0  0  0
 18 21  1  0  0  0  0
 19 17  2  0  0  0  0
 20 27  2  0  0  0  0
 20 25  1  0  0  0  0
 21 24  1  6  0  0  0
 21 26  1  0  0  0  0
 22 25  1  0  0  0  0
 22 24  1  0  0  0  0
 23 30  1  1  0  0  0
 24 28  2  0  0  0  0
 25 18  2  0  0  0  0
 26 23  1  0  0  0  0
 26 29  1  0  0  0  0
 27 19  1  0  0  0  0
 31 30  1  0  0  0  0
 33 41  1  6  0  0  0
 33 37  1  0  0  0  0
 35 32  1  6  0  0  0
 35 36  1  0  0  0  0
 35 33  1  0  0  0  0
 36 39  2  0  0  0  0
 37 38  1  0  0  0  0
 37 34  1  1  0  0  0
 39 43  1  0  0  0  0
 39 38  1  0  0  0  0
 40 41  1  0  0  0  0
 42 41  2  0  0  0  0
 44 49  1  0  0  0  0
 44 48  1  0  0  0  0
 45 46  1  6  0  0  0
 45 50  1  0  0  0  0
 45 47  1  0  0  0  0
 47 43  1  6  0  0  0
 49 47  1  0  0  0  0
 50 48  1  0  0  0  0
 51 54  1  0  0  0  0
 51 44  1  0  0  0  0
 52 51  1  0  0  0  0
 53 51  1  0  0  0  0
 56 57  2  6  0  0  0
 56 55  1  0  0  0  0
 56 60  1  0  0  0  0
 58 56  1  0  0  0  0
 60 59  1  0  0  0  0
 61 63  1  0  0  0  0
 62 60  1  1  0  0  0
 62 65  1  0  0  0  0
 64 62  1  0  0  0  0
 64 61  1  0  0  0  0
 65 63  1  0  0  0  0
M  END
>  <MODEL>
6

>  <REMARK>
 VINA RESULT:      -6.3      3.014      8.766
  Name = 
  18 active torsions:
  status: ('A' for Active; 'I' for Inactive)
    1  A    between atoms: C_3  and  N_50
    2  A    between atoms: P_6  and  N_40
    3  A    between atoms: P_6  and  N_50
    4  A    between atoms: C_7  and  N_24
    5  A    between atoms: C_7  and  C_29
    6  A    between atoms: N_9  and  C_31
    7  A    between atoms: C_11  and  C_65
    8  A    between atoms: N_14  and  C_17
    9  A    between atoms: N_14  and  C_62
   10  A    between atoms: C_21  and  C_61
   11  A    between atoms: C_27  and  C_35
   12  A    between atoms: C_29  and  O_41
   13  A    between atoms: C_33  and  C_43
   14  A    between atoms: C_34  and  C_54
   15  A    between atoms: C_35  and  C_54
   16  A    between atoms: N_40  and  C_54
   17  A    between atoms: O_41  and  C_46
   18  A    between atoms: C_46  and  C_65
                            x       y       z     vdW  Elec       q    Type
                         _______ _______ _______ _____ _____    ______ ____

>  <TORSDO>
F 18

$$$$
=
 OpenBabel11072409113D

 65 71  0  0  1  0  0  0  0  0999 V2000
  195.8330  172.4220  141.0270 C   0  0  2  0  0  3  0  0  0  0  0  0
  197.8110  172.0160  143.1860 O   0  0  0  0  0  0  0  0  0  0  0  0
  195.3990  175.5700  144.4480 C   0  0  2  0  0  3  0  0  0  0  0  0
  196.9600  173.6320  144.6330 N   0  0  0  0  0  2  0  0  0  0  0  0
  195.8160  173.1450  142.3780 C   0  0  2  0  0  3  0  0  0  0  0  0
  194.5860  175.1320  143.2320 C   0  0  0  0  0  2  0  0  0  0  0  0
  195.5070  174.6190  142.1440 C   0  0  0  0  0  2  0  0  0  0  0  0
  196.9300  172.9130  143.3870 C   0  0  0  0  0  0  0  0  0  0  0  0
  195.8380  174.3350  145.2440 C   0  0  0  0  0  2  0  0  0  0  0  0
  193.8770  175.6520  146.5220 C   0  0  0  0  0  1  0  0  0  0  0  0
  194.5020  176.4370  145.3820 C   0  0  2  0  0  3  0  0  0  0  0  0
  193.4270  177.2560  144.6400 C   0  0  0  0  0  2  0  0  0  0  0  0
  192.1280  176.7530  144.9390 O   0  0  0  0  0  0  0  0  0  0  0  0
  191.2700  177.5770  144.1750 C   0  0  0  0  0  2  0  0  0  0  0  0
  190.4570  176.7560  143.1620 C   0  0  1  0  0  3  0  0  0  0  0  0
  191.0790  175.4290  142.7370 C   0  0  0  0  0  1  0  0  0  0  0  0
  186.4300  177.7280  145.6160 C   0  0  0  0  0  0  0  0  0  0  0  0
  187.5050  177.8510  144.7730 C   0  0  0  0  0  0  0  0  0  0  0  0
  186.5210  176.8940  146.7390 C   0  0  0  0  0  3  0  0  0  0  0  0
  188.6300  176.0290  145.9060 C   0  0  0  0  0  3  0  0  0  0  0  0
  187.0720  178.0390  143.3800 C   0  0  1  0  0  3  0  0  0  0  0  0
  189.0470  176.6310  143.5590 N   0  0  0  0  0  0  0  0  0  0  0  0
  185.1940  177.6010  144.7510 C   0  0  2  0  0  3  0  0  0  0  0  0
  188.0470  177.1540  142.6890 C   0  0  0  0  0  0  0  0  0  0  0  0
  188.5890  176.9740  144.8670 C   0  0  0  0  0  0  0  0  0  0  0  0
  185.7370  177.4150  143.3760 N   0  0  0  0  0  0  0  0  0  0  0  0
  187.6340  176.0400  146.8880 C   0  0  0  0  0  3  0  0  0  0  0  0
  188.0090  176.9160  141.4430 O   0  0  0  0  0  0  0  0  0  0  0  0
  184.8930  177.8580  142.2620 C   0  0  0  0  0  1  0  0  0  0  0  0
  184.3110  178.8650  144.9620 C   0  0  0  0  0  2  0  0  0  0  0  0
  184.0590  179.0410  146.3330 O   0  0  0  0  0  1  0  0  0  0  0  0
  194.8740  173.0760  140.0360 C   0  0  0  0  0  2  0  0  0  0  0  0
  195.9060  173.0630  137.6670 C   0  0  1  0  0  3  0  0  0  0  0  0
  197.0820  172.0760  135.6820 C   0  0  0  0  0  1  0  0  0  0  0  0
  194.9170  172.4000  138.6560 C   0  0  2  0  0  3  0  0  0  0  0  0
  193.5370  172.3300  138.0410 C   0  0  0  0  0  2  0  0  0  0  0  0
  195.7450  172.5870  136.1960 C   0  0  1  0  0  3  0  0  0  0  0  0
  194.6240  171.5290  136.0090 C   0  0  0  0  0  2  0  0  0  0  0  0
  193.3890  171.9250  136.7910 C   0  0  0  0  0  0  0  0  0  0  0  0
  196.8810  175.2920  138.5790 C   0  0  0  0  0  1  0  0  0  0  0  0
  195.8950  174.5630  137.7140 C   0  0  0  0  0  0  0  0  0  0  0  0
  195.1150  175.2060  137.0410 O   0  0  0  0  0  0  0  0  0  0  0  0
  192.0970  171.7610  136.1900 N   0  0  0  0  0  0  0  0  0  0  0  0
  189.3730  172.3600  138.7820 N   0  0  0  0  0  0  0  0  0  0  0  0
  190.5560  173.7290  136.6470 C   0  0  1  0  0  3  0  0  0  0  0  0
  191.6140  174.4290  137.2030 F   0  0  0  0  0  0  0  0  0  0  0  0
  190.7760  172.1920  136.7210 C   0  0  2  0  0  3  0  0  0  0  0  0
  188.5710  173.0910  137.7440 C   0  0  0  0  0  2  0  0  0  0  0  0
  190.6070  171.7920  138.1760 C   0  0  0  0  0  2  0  0  0  0  0  0
  189.3090  174.1740  137.1880 O   0  0  0  0  0  0  0  0  0  0  0  0
  189.7190  173.2480  139.8970 C   0  0  0  0  0  0  0  0  0  0  0  0
  191.1030  173.4800  139.9330 F   0  0  0  0  0  0  0  0  0  0  0  0
  189.1090  174.4740  139.7090 F   0  0  0  0  0  0  0  0  0  0  0  0
  189.2950  172.7640  141.1060 F   0  0  0  0  0  0  0  0  0  0  0  0
  195.6260  170.9690  141.0770 N   0  0  0  0  0  2  0  0  0  0  0  0
  194.0830  170.6070  141.8690 P   0  0  2  0  0  0  0  0  0  0  0  0
  192.9660  170.1470  140.6800 O   0  0  0  0  0  0  0  0  0  0  0  0
  193.5730  171.8600  142.5760 O   0  0  0  0  0  1  0  0  0  0  0  0
  194.9920  168.2870  142.4500 O   0  0  0  0  0  1  0  0  0  0  0  0
  194.2890  169.2980  143.0500 N   0  0  0  0  0  0  0  0  0  0  0  0
  196.3730  168.9990  146.0780 C   0  0  0  0  0  2  0  0  0  0  0  0
  195.1040  169.7860  144.1680 C   0  0  2  0  0  3  0  0  0  0  0  0
  195.1730  169.8290  146.5010 C   0  0  0  0  0  2  0  0  0  0  0  0
  196.2710  168.8750  144.5490 C   0  0  0  0  0  2  0  0  0  0  0  0
  194.2650  169.9400  145.3650 N   0  0  0  0  0  2  0  0  0  0  0  0
  1 32  1  6  0  0  0
  1 55  1  0  0  0  0
  2  8  2  0  0  0  0
  3  9  1  0  0  0  0
  3 11  1  1  0  0  0
  4  9  1  0  0  0  0
  5  1  1  6  0  0  0
  5  8  1  0  0  0  0
  6  3  1  0  0  0  0
  7  5  1  0  0  0  0
  7  6  1  0  0  0  0
  8  4  1  0  0  0  0
 11 10  1  1  0  0  0
 12 13  1  0  0  0  0
 12 11  1  0  0  0  0
 14 13  1  0  0  0  0
 15 16  1  1  0  0  0
 15 22  1  0  0  0  0
 15 14  1  0  0  0  0
 17 19  1  0  0  0  0
 18 25  1  0  0  0  0
 18 17  2  0  0  0  0
 19 27  2  0  0  0  0
 20 27  1  0  0  0  0
 21 24  1  6  0  0  0
 21 18  1  0  0  0  0
 22 25  1  0  0  0  0
 23 30  1  6  0  0  0
 23 17  1  0  0  0  0
 24 22  1  0  0  0  0
 25 20  2  0  0  0  0
 26 21  1  0  0  0  0
 26 23  1  0  0  0  0
 28 24  2  0  0  0  0
 29 26  1  0  0  0  0
 30 31  1  0  0  0  0
 33 41  1  6  0  0  0
 33 35  1  0  0  0  0
 35 32  1  1  0  0  0
 36 35  1  0  0  0  0
 37 34  1  1  0  0  0
 37 33  1  0  0  0  0
 38 37  1  0  0  0  0
 38 39  1  0  0  0  0
 39 36  1  0  0  0  0
 41 40  1  0  0  0  0
 42 41  2  0  0  0  0
 43 39  2  0  0  0  0
 44 51  1  0  0  0  0
 45 47  1  0  0  0  0
 45 50  1  0  0  0  0
 45 46  1  1  0  0  0
 47 43  1  1  0  0  0
 47 49  1  0  0  0  0
 48 44  1  0  0  0  0
 49 44  1  0  0  0  0
 50 48  1  0  0  0  0
 51 52  1  0  0  0  0
 51 54  1  0  0  0  0
 53 51  1  0  0  0  0
 55 56  1  0  0  0  0
 56 57  2  6  0  0  0
 56 58  1  0  0  0  0
 56 60  1  0  0  0  0
 59 60  1  0  0  0  0
 61 63  1  0  0  0  0
 62 60  1  6  0  0  0
 62 64  1  0  0  0  0
 62 65  1  0  0  0  0
 64 61  1  0  0  0  0
 65 63  1  0  0  0  0
M  END
>  <MODEL>
7

>  <REMARK>
 VINA RESULT:      -6.2      2.622      6.308
  Name = 
  18 active torsions:
  status: ('A' for Active; 'I' for Inactive)
    1  A    between atoms: C_3  and  N_50
    2  A    between atoms: P_6  and  N_40
    3  A    between atoms: P_6  and  N_50
    4  A    between atoms: C_7  and  N_24
    5  A    between atoms: C_7  and  C_29
    6  A    between atoms: N_9  and  C_31
    7  A    between atoms: C_11  and  C_65
    8  A    between atoms: N_14  and  C_17
    9  A    between atoms: N_14  and  C_62
   10  A    between atoms: C_21  and  C_61
   11  A    between atoms: C_27  and  C_35
   12  A    between atoms: C_29  and  O_41
   13  A    between atoms: C_33  and  C_43
   14  A    between atoms: C_34  and  C_54
   15  A    between atoms: C_35  and  C_54
   16  A    between atoms: N_40  and  C_54
   17  A    between atoms: O_41  and  C_46
   18  A    between atoms: C_46  and  C_65
                            x       y       z     vdW  Elec       q    Type
                         _______ _______ _______ _____ _____    ______ ____

>  <TORSDO>
F 18

$$$$
=
 OpenBabel11072409113D

 65 71  0  0  1  0  0  0  0  0999 V2000
  192.6600  176.0610  143.6050 C   0  0  2  0  0  3  0  0  0  0  0  0
  195.5120  176.6630  144.1000 O   0  0  0  0  0  0  0  0  0  0  0  0
  195.3830  174.8400  140.0140 C   0  0  2  0  0  3  0  0  0  0  0  0
  196.2740  176.1060  141.9700 N   0  0  0  0  0  2  0  0  0  0  0  0
  193.7680  175.9800  142.5500 C   0  0  2  0  0  3  0  0  0  0  0  0
  193.8850  174.9840  140.2730 C   0  0  0  0  0  2  0  0  0  0  0  0
  193.5770  174.7100  141.7310 C   0  0  0  0  0  2  0  0  0  0  0  0
  195.2160  176.2400  142.9360 C   0  0  0  0  0  0  0  0  0  0  0  0
  196.1140  176.0880  140.5210 C   0  0  0  0  0  2  0  0  0  0  0  0
  194.3560  174.6590  137.6610 C   0  0  0  0  0  1  0  0  0  0  0  0
  195.6320  174.7400  138.4780 C   0  0  2  0  0  3  0  0  0  0  0  0
  196.6040  173.6150  138.0700 C   0  0  0  0  0  2  0  0  0  0  0  0
  195.8850  172.5110  137.5290 O   0  0  0  0  0  0  0  0  0  0  0  0
  196.0200  171.5100  138.5180 C   0  0  0  0  0  2  0  0  0  0  0  0
  195.2310  170.2450  138.1500 C   0  0  1  0  0  3  0  0  0  0  0  0
  195.8000  169.4240  136.9950 C   0  0  0  0  0  1  0  0  0  0  0  0
  194.8430  169.1620  142.8250 C   0  0  0  0  0  0  0  0  0  0  0  0
  194.6530  169.7580  141.6050 C   0  0  0  0  0  0  0  0  0  0  0  0
  196.0900  168.6040  143.1370 C   0  0  0  0  0  3  0  0  0  0  0  0
  196.7860  168.9100  140.8320 C   0  0  0  0  0  3  0  0  0  0  0  0
  193.2750  169.5670  141.1270 C   0  0  1  0  0  3  0  0  0  0  0  0
  194.9090  169.4310  139.3320 N   0  0  0  0  0  0  0  0  0  0  0  0
  193.6140  168.3290  143.1150 C   0  0  2  0  0  3  0  0  0  0  0  0
  193.5410  169.2710  139.6940 C   0  0  0  0  0  0  0  0  0  0  0  0
  195.5860  169.5950  140.5780 C   0  0  0  0  0  0  0  0  0  0  0  0
  192.8640  168.3360  141.8260 N   0  0  0  0  0  0  0  0  0  0  0  0
  197.0730  168.4800  142.1320 C   0  0  0  0  0  3  0  0  0  0  0  0
  192.6320  168.9400  138.8720 O   0  0  0  0  0  0  0  0  0  0  0  0
  191.4100  168.1690  141.9010 C   0  0  0  0  0  1  0  0  0  0  0  0
  192.8690  168.9510  144.3300 C   0  0  0  0  0  2  0  0  0  0  0  0
  193.7990  169.5430  145.2020 O   0  0  0  0  0  1  0  0  0  0  0  0
  191.7840  177.2920  143.3950 C   0  0  0  0  0  2  0  0  0  0  0  0
  189.2150  177.5630  143.4860 C   0  0  1  0  0  3  0  0  0  0  0  0
  186.9340  178.1180  142.6010 C   0  0  0  0  0  1  0  0  0  0  0  0
  190.4300  176.9390  142.7560 C   0  0  2  0  0  3  0  0  0  0  0  0
  190.2550  175.4410  142.6440 C   0  0  0  0  0  3  0  0  0  0  0  0
  187.8440  176.9820  143.0410 C   0  0  1  0  0  3  0  0  0  0  0  0
  187.9630  175.8920  141.9420 C   0  0  0  0  0  2  0  0  0  0  0  0
  189.0930  174.9380  142.2650 C   0  0  0  0  0  0  0  0  0  0  0  0
  188.2500  176.8340  145.7860 C   0  0  0  0  0  1  0  0  0  0  0  0
  189.3190  177.5160  144.9830 C   0  0  0  0  0  0  0  0  0  0  0  0
  190.2710  178.0000  145.5610 O   0  0  0  0  0  0  0  0  0  0  0  0
  188.9020  173.5310  142.0620 N   0  0  0  0  0  2  0  0  0  0  0  0
  189.2230  172.9720  138.3080 N   0  0  0  0  0  0  0  0  0  0  0  0
  190.2770  171.9080  140.6730 C   0  0  1  0  0  3  0  0  0  0  0  0
  191.4170  172.6510  140.9320 F   0  0  0  0  0  0  0  0  0  0  0  0
  188.9870  172.7660  140.7890 C   0  0  2  0  0  3  0  0  0  0  0  0
  189.3290  171.4950  138.5560 C   0  0  0  0  0  2  0  0  0  0  0  0
  188.9640  173.6920  139.5850 C   0  0  0  0  0  2  0  0  0  0  0  0
  190.4040  171.1930  139.4400 O   0  0  0  0  0  0  0  0  0  0  0  0
  190.4420  173.4860  137.6760 C   0  0  0  0  0  0  0  0  0  0  0  0
  191.2370  174.1660  138.6140 F   0  0  0  0  0  0  0  0  0  0  0  0
  191.1930  172.4240  137.2060 F   0  0  0  0  0  0  0  0  0  0  0  0
  190.1780  174.3010  136.6090 F   0  0  0  0  0  0  0  0  0  0  0  0
  193.1010  175.9620  145.0020 N   0  0  0  0  0  2  0  0  0  0  0  0
  192.3720  174.5390  145.7660 P   0  0  2  0  0  0  0  0  0  0  0  0
  190.7830  174.3810  145.1970 O   0  0  0  0  0  0  0  0  0  0  0  0
  192.3440  174.7380  147.2790 O   0  0  0  0  0  1  0  0  0  0  0  0
  192.7400  172.4930  144.2750 O   0  0  0  0  0  1  0  0  0  0  0  0
  193.3080  173.0830  145.3720 N   0  0  0  0  0  0  0  0  0  0  0  0
  196.7650  172.5470  144.2050 C   0  0  0  0  0  2  0  0  0  0  0  0
  194.6690  173.4760  144.9950 C   0  0  2  0  0  3  0  0  0  0  0  0
  196.9020  173.1480  145.5930 C   0  0  0  0  0  2  0  0  0  0  0  0
  195.2730  172.6610  143.8510 C   0  0  0  0  0  2  0  0  0  0  0  0
  195.5670  173.3330  146.1500 N   0  0  0  0  0  2  0  0  0  0  0  0
  1 32  1  1  0  0  0
  1 55  1  0  0  0  0
  3 11  1  6  0  0  0
  3  6  1  0  0  0  0
  3  9  1  0  0  0  0
  4  8  1  0  0  0  0
  5  8  1  0  0  0  0
  5  1  1  1  0  0  0
  6  7  1  0  0  0  0
  7  5  1  0  0  0  0
  8  2  2  0  0  0  0
  9  4  1  0  0  0  0
 11 10  1  6  0  0  0
 12 11  1  0  0  0  0
 13 12  1  0  0  0  0
 13 14  1  0  0  0  0
 15 16  1  6  0  0  0
 15 14  1  0  0  0  0
 15 22  1  0  0  0  0
 17 23  1  0  0  0  0
 17 19  1  0  0  0  0
 18 17  2  0  0  0  0
 20 27  1  0  0  0  0
 21 24  1  6  0  0  0
 21 18  1  0  0  0  0
 21 26  1  0  0  0  0
 22 24  1  0  0  0  0
 22 25  1  0  0  0  0
 23 30  1  1  0  0  0
 25 20  2  0  0  0  0
 25 18  1  0  0  0  0
 26 29  1  0  0  0  0
 26 23  1  0  0  0  0
 27 19  2  0  0  0  0
 28 24  2  0  0  0  0
 30 31  1  0  0  0  0
 33 41  1  1  0  0  0
 35 32  1  1  0  0  0
 35 33  1  0  0  0  0
 36 35  1  0  0  0  0
 37 34  1  6  0  0  0
 37 33  1  0  0  0  0
 38 39  1  0  0  0  0
 38 37  1  0  0  0  0
 39 36  2  0  0  0  0
 41 42  2  0  0  0  0
 41 40  1  0  0  0  0
 43 39  1  0  0  0  0
 44 48  1  0  0  0  0
 44 49  1  0  0  0  0
 45 47  1  0  0  0  0
 45 46  1  6  0  0  0
 47 43  1  1  0  0  0
 48 50  1  0  0  0  0
 49 47  1  0  0  0  0
 50 45  1  0  0  0  0
 51 44  1  0  0  0  0
 51 52  1  0  0  0  0
 53 51  1  0  0  0  0
 54 51  1  0  0  0  0
 55 56  1  0  0  0  0
 56 57  2  6  0  0  0
 56 58  1  0  0  0  0
 59 60  1  0  0  0  0
 60 56  1  0  0  0  0
 61 63  1  0  0  0  0
 62 60  1  1  0  0  0
 62 65  1  0  0  0  0
 63 65  1  0  0  0  0
 64 61  1  0  0  0  0
 64 62  1  0  0  0  0
M  END
>  <MODEL>
8

>  <REMARK>
 VINA RESULT:      -6.1      3.062      9.059
  Name = 
  18 active torsions:
  status: ('A' for Active; 'I' for Inactive)
    1  A    between atoms: C_3  and  N_50
    2  A    between atoms: P_6  and  N_40
    3  A    between atoms: P_6  and  N_50
    4  A    between atoms: C_7  and  N_24
    5  A    between atoms: C_7  and  C_29
    6  A    between atoms: N_9  and  C_31
    7  A    between atoms: C_11  and  C_65
    8  A    between atoms: N_14  and  C_17
    9  A    between atoms: N_14  and  C_62
   10  A    between atoms: C_21  and  C_61
   11  A    between atoms: C_27  and  C_35
   12  A    between atoms: C_29  and  O_41
   13  A    between atoms: C_33  and  C_43
   14  A    between atoms: C_34  and  C_54
   15  A    between atoms: C_35  and  C_54
   16  A    between atoms: N_40  and  C_54
   17  A    between atoms: O_41  and  C_46
   18  A    between atoms: C_46  and  C_65
                            x       y       z     vdW  Elec       q    Type
                         _______ _______ _______ _____ _____    ______ ____

>  <TORSDO>
F 18

$$$$
=
 OpenBabel11072409113D

 65 71  0  0  1  0  0  0  0  0999 V2000
  191.4640  173.4150  139.8990 C   0  0  2  0  0  3  0  0  0  0  0  0
  193.4750  171.2580  139.7040 O   0  0  0  0  0  0  0  0  0  0  0  0
  195.8040  174.9600  140.6550 C   0  0  2  0  0  3  0  0  0  0  0  0
  195.2980  172.5310  140.4020 N   0  0  0  0  0  2  0  0  0  0  0  0
  192.9360  173.5510  140.3010 C   0  0  2  0  0  3  0  0  0  0  0  0
  194.3870  175.5040  140.8220 C   0  0  0  0  0  2  0  0  0  0  0  0
  193.4640  174.8860  139.7910 C   0  0  0  0  0  2  0  0  0  0  0  0
  193.9000  172.3950  140.0870 C   0  0  0  0  0  0  0  0  0  0  0  0
  195.8890  173.5530  141.2570 C   0  0  0  0  0  2  0  0  0  0  0  0
  197.9410  175.1010  142.0820 C   0  0  0  0  0  1  0  0  0  0  0  0
  196.7990  175.8680  141.4400 C   0  0  2  0  0  3  0  0  0  0  0  0
  196.1260  176.7940  142.4730 C   0  0  0  0  0  2  0  0  0  0  0  0
  196.3260  176.2930  143.7920 O   0  0  0  0  0  0  0  0  0  0  0  0
  195.0520  175.7990  144.1550 C   0  0  0  0  0  2  0  0  0  0  0  0
  195.0730  175.1620  145.5520 C   0  0  1  0  0  3  0  0  0  0  0  0
  194.0500  175.7100  146.5430 C   0  0  0  0  0  1  0  0  0  0  0  0
  194.8230  170.8010  143.5270 C   0  0  0  0  0  0  0  0  0  0  0  0
  195.2510  172.0610  143.8620 C   0  0  0  0  0  0  0  0  0  0  0  0
  193.4550  170.5010  143.5630 C   0  0  0  0  0  3  0  0  0  0  0  0
  193.0330  172.6260  144.6560 C   0  0  0  0  0  3  0  0  0  0  0  0
  196.5640  172.0200  144.5250 C   0  0  1  0  0  3  0  0  0  0  0  0
  195.0860  173.6930  145.4890 N   0  0  0  0  0  0  0  0  0  0  0  0
  195.7710  169.8180  144.1790 C   0  0  2  0  0  3  0  0  0  0  0  0
  196.3350  173.0190  145.6020 C   0  0  0  0  0  0  0  0  0  0  0  0
  194.3850  172.9670  144.4790 C   0  0  0  0  0  0  0  0  0  0  0  0
  196.5890  170.6620  145.0960 N   0  0  0  0  0  0  0  0  0  0  0  0
  192.5510  171.4250  144.1290 C   0  0  0  0  0  3  0  0  0  0  0  0
  197.1850  173.2660  146.5120 O   0  0  0  0  0  0  0  0  0  0  0  0
  197.9410  170.1880  145.4070 C   0  0  0  0  0  1  0  0  0  0  0  0
  196.5600  169.0760  143.0630 C   0  0  0  0  0  2  0  0  0  0  0  0
  196.7670  169.9430  141.9750 O   0  0  0  0  0  1  0  0  0  0  0  0
  190.5960  174.4450  140.6150 C   0  0  0  0  0  2  0  0  0  0  0  0
  189.5010  173.2650  142.6370 C   0  0  1  0  0  3  0  0  0  0  0  0
  189.4380  171.8660  144.7190 C   0  0  0  0  0  1  0  0  0  0  0  0
  190.5940  174.2430  142.1400 C   0  0  2  0  0  3  0  0  0  0  0  0
  190.4770  175.5650  142.8650 C   0  0  0  0  0  3  0  0  0  0  0  0
  189.2930  173.2800  144.1770 C   0  0  1  0  0  3  0  0  0  0  0  0
  190.2340  174.2700  144.9180 C   0  0  0  0  0  2  0  0  0  0  0  0
  190.3020  175.5870  144.1750 C   0  0  0  0  0  0  0  0  0  0  0  0
  187.5130  174.7830  141.9320 C   0  0  0  0  0  1  0  0  0  0  0  0
  188.1770  173.4370  141.9500 C   0  0  0  0  0  0  0  0  0  0  0  0
  187.6410  172.5080  141.3810 O   0  0  0  0  0  0  0  0  0  0  0  0
  190.2700  176.8130  144.9190 N   0  0  0  0  0  2  0  0  0  0  0  0
  186.7580  178.2710  144.7090 N   0  0  0  0  0  0  0  0  0  0  0  0
  188.3890  177.0270  146.6130 C   0  0  1  0  0  3  0  0  0  0  0  0
  188.1240  175.6730  146.4910 F   0  0  0  0  0  0  0  0  0  0  0  0
  189.0800  177.5990  145.3440 C   0  0  2  0  0  3  0  0  0  0  0  0
  186.9100  178.7900  146.1090 C   0  0  0  0  0  2  0  0  0  0  0  0
  188.0270  177.6440  144.2510 C   0  0  0  0  0  2  0  0  0  0  0  0
  187.2180  177.7400  147.0200 O   0  0  0  0  0  0  0  0  0  0  0  0
  185.6570  177.3070  144.6230 C   0  0  0  0  0  0  0  0  0  0  0  0
  186.1530  175.9940  144.5650 F   0  0  0  0  0  0  0  0  0  0  0  0
  184.8850  177.3960  145.7670 F   0  0  0  0  0  0  0  0  0  0  0  0
  184.8320  177.5430  143.5570 F   0  0  0  0  0  0  0  0  0  0  0  0
  190.8900  172.0690  140.0220 N   0  0  0  0  0  2  0  0  0  0  0  0
  190.1050  171.6070  138.5020 P   0  0  2  0  0  0  0  0  0  0  0  0
  190.4190  172.8080  137.3490 O   0  0  0  0  0  0  0  0  0  0  0  0
  188.5980  171.5080  138.7230 O   0  0  0  0  0  1  0  0  0  0  0  0
  189.6690  169.2870  137.5140 O   0  0  0  0  0  1  0  0  0  0  0  0
  190.7290  170.0430  137.9380 N   0  0  0  0  0  0  0  0  0  0  0  0
  192.3740  169.1780  134.7520 C   0  0  0  0  0  2  0  0  0  0  0  0
  191.5940  170.2650  136.7740 C   0  0  2  0  0  3  0  0  0  0  0  0
  193.5080  169.4320  135.7300 C   0  0  0  0  0  2  0  0  0  0  0  0
  191.0940  169.6240  135.4790 C   0  0  0  0  0  2  0  0  0  0  0  0
  192.9340  169.7230  137.0380 N   0  0  0  0  0  2  0  0  0  0  0  0
  1 55  1  0  0  0  0
  1 32  1  1  0  0  0
  2  8  2  0  0  0  0
  3  6  1  0  0  0  0
  3  9  1  0  0  0  0
  3 11  1  1  0  0  0
  4  9  1  0  0  0  0
  5  1  1  6  0  0  0
  7  5  1  0  0  0  0
  7  6  1  0  0  0  0
  8  5  1  0  0  0  0
  8  4  1  0  0  0  0
 11 10  1  1  0  0  0
 11 12  1  0  0  0  0
 12 13  1  0  0  0  0
 13 14  1  0  0  0  0
 14 15  1  0  0  0  0
 15 16  1  1  0  0  0
 17 19  2  0  0  0  0
 17 18  1  0  0  0  0
 17 23  1  0  0  0  0
 18 25  2  0  0  0  0
 19 27  1  0  0  0  0
 21 18  1  6  0  0  0
 21 26  1  0  0  0  0
 21 24  1  0  0  0  0
 22 15  1  0  0  0  0
 22 24  1  0  0  0  0
 23 30  1  6  0  0  0
 23 26  1  0  0  0  0
 24 28  2  0  0  0  0
 25 20  1  0  0  0  0
 25 22  1  0  0  0  0
 26 29  1  0  0  0  0
 27 20  2  0  0  0  0
 31 30  1  0  0  0  0
 33 41  1  6  0  0  0
 33 37  1  0  0  0  0
 35 32  1  6  0  0  0
 35 33  1  0  0  0  0
 35 36  1  0  0  0  0
 36 39  2  0  0  0  0
 37 34  1  1  0  0  0
 37 38  1  0  0  0  0
 39 38  1  0  0  0  0
 39 43  1  0  0  0  0
 40 41  1  0  0  0  0
 42 41  2  0  0  0  0
 44 48  1  0  0  0  0
 45 46  1  6  0  0  0
 45 50  1  0  0  0  0
 47 43  1  6  0  0  0
 47 45  1  0  0  0  0
 48 50  1  0  0  0  0
 49 44  1  0  0  0  0
 49 47  1  0  0  0  0
 51 44  1  0  0  0  0
 51 53  1  0  0  0  0
 52 51  1  0  0  0  0
 54 51  1  0  0  0  0
 56 57  2  6  0  0  0
 56 58  1  0  0  0  0
 56 55  1  0  0  0  0
 59 60  1  0  0  0  0
 60 56  1  0  0  0  0
 61 64  1  0  0  0  0
 61 63  1  0  0  0  0
 62 65  1  0  0  0  0
 62 60  1  1  0  0  0
 63 65  1  0  0  0  0
 64 62  1  0  0  0  0
M  END
>  <MODEL>
9

>  <REMARK>
 VINA RESULT:      -6.1      2.886      8.520
  Name = 
  18 active torsions:
  status: ('A' for Active; 'I' for Inactive)
    1  A    between atoms: C_3  and  N_50
    2  A    between atoms: P_6  and  N_40
    3  A    between atoms: P_6  and  N_50
    4  A    between atoms: C_7  and  N_24
    5  A    between atoms: C_7  and  C_29
    6  A    between atoms: N_9  and  C_31
    7  A    between atoms: C_11  and  C_65
    8  A    between atoms: N_14  and  C_17
    9  A    between atoms: N_14  and  C_62
   10  A    between atoms: C_21  and  C_61
   11  A    between atoms: C_27  and  C_35
   12  A    between atoms: C_29  and  O_41
   13  A    between atoms: C_33  and  C_43
   14  A    between atoms: C_34  and  C_54
   15  A    between atoms: C_35  and  C_54
   16  A    between atoms: N_40  and  C_54
   17  A    between atoms: O_41  and  C_46
   18  A    between atoms: C_46  and  C_65
                            x       y       z     vdW  Elec       q    Type
                         _______ _______ _______ _____ _____    ______ ____

>  <TORSDO>
F 18

$$$$
