=
 OpenBabel11062420083D

 35 38  0  0  1  0  0  0  0  0999 V2000
  185.4910  178.2500  141.5520 S   0  0  0  0  0  0  0  0  0  0  0  0
  188.7050  176.4040  142.9350 C   0  0  0  0  0  0  0  0  0  0  0  0
  189.3570  176.6240  144.2510 C   0  0  0  0  0  0  0  0  0  0  0  0
  189.2220  175.6450  142.0730 O   0  0  0  0  0  0  0  0  0  0  0  0
  188.7350  177.3400  145.1990 C   0  0  0  0  0  3  0  0  0  0  0  0
  187.4600  177.1350  142.6420 C   0  0  0  0  0  0  0  0  0  0  0  0
  186.8170  177.2200  141.4040 C   0  0  0  0  0  0  0  0  0  0  0  0
  187.3270  177.8770  145.0760 C   0  0  1  0  0  3  0  0  0  0  0  0
  184.9160  179.4620  143.9530 N   0  0  0  0  0  1  0  0  0  0  0  0
  185.7310  178.5880  143.1810 C   0  0  0  0  0  0  0  0  0  0  0  0
  186.8450  177.8960  143.6440 C   0  0  0  0  0  0  0  0  0  0  0  0
  190.7490  174.7750  145.4140 C   0  0  1  0  0  0  0  0  0  0  0  0
  189.6670  173.7890  144.9710 C   0  0  0  0  0  1  0  0  0  0  0  0
  192.5470  176.9330  143.3400 O   0  0  0  0  0  1  0  0  0  0  0  0
  192.1180  174.1650  145.0790 C   0  0  1  0  0  3  0  0  0  0  0  0
  190.7170  176.0630  144.5860 C   0  0  1  0  0  3  0  0  0  0  0  0
  191.6410  175.8760  143.3920 C   0  0  2  0  0  3  0  0  0  0  0  0
  192.3910  174.5750  143.6360 C   0  0  0  0  0  2  0  0  0  0  0  0
  190.5520  175.1130  146.9010 C   0  0  0  0  0  2  0  0  0  0  0  0
  189.2100  174.6400  147.4430 C   0  0  0  0  0  1  0  0  0  0  0  0
  193.2510  174.6920  145.9640 C   0  0  0  0  0  2  0  0  0  0  0  0
  194.5470  174.7580  145.1790 C   0  0  1  0  0  3  0  0  0  0  0  0
  195.2750  175.8920  145.5850 O   0  0  0  0  0  0  0  0  0  0  0  0
  195.6930  174.6540  146.1060 C   0  0  2  0  0  3  0  0  0  0  0  0
  196.8190  174.2200  145.4090 O   0  0  0  0  0  1  0  0  0  0  0  0
  185.7190  177.7780  146.8500 O   0  0  0  0  0  1  0  0  0  0  0  0
  186.4190  177.0020  145.9270 C   0  0  0  0  0  2  0  0  0  0  0  0
  187.2360  176.5470  140.1340 C   0  0  0  0  0  2  0  0  0  0  0  0
  186.4920  177.0720  138.9950 N   0  0  0  0  0  0  0  0  0  0  0  0
  186.4540  176.4880  137.8370 C   0  0  0  0  0  3  0  0  0  0  0  0
  187.1430  175.3010  137.6060 O   0  0  0  0  0  0  0  0  0  0  0  0
  188.0300  175.2230  136.6080 O   0  0  0  0  0  0  0  0  0  0  0  0
  188.9270  174.2380  137.0180 C   0  0  0  0  0  2  0  0  0  0  0  0
  188.3960  173.5370  138.2520 C   0  0  0  0  0  2  0  0  0  0  0  0
  189.3420  173.5940  139.2750 O   0  0  0  0  0  1  0  0  0  0  0  0
  1 10  1  0  0  0  0
  2  3  1  0  0  0  0
  3  5  2  0  0  0  0
  4  2  2  0  0  0  0
  6  2  1  0  0  0  0
  6 11  1  0  0  0  0
  7  1  1  0  0  0  0
  7  6  2  0  0  0  0
  8  5  1  0  0  0  0
  8 27  1  1  0  0  0
 10 11  2  0  0  0  0
 10  9  1  0  0  0  0
 11  8  1  0  0  0  0
 12 13  1  6  0  0  0
 12 19  1  0  0  0  0
 15 12  1  0  0  0  0
 15 21  1  1  0  0  0
 16  3  1  6  0  0  0
 16 12  1  0  0  0  0
 17 14  1  1  0  0  0
 17 18  1  0  0  0  0
 17 16  1  0  0  0  0
 18 15  1  0  0  0  0
 19 20  1  0  0  0  0
 22 23  1  0  0  0  0
 22 21  1  1  0  0  0
 22 24  1  0  0  0  0
 23 24  1  0  0  0  0
 24 25  1  6  0  0  0
 27 26  1  0  0  0  0
 28  7  1  0  0  0  0
 29 28  1  0  0  0  0
 30 29  2  0  0  0  0
 31 30  1  0  0  0  0
 32 33  1  0  0  0  0
 32 31  1  0  0  0  0
 33 34  1  0  0  0  0
 34 35  1  0  0  0  0
M  END
>  <MODEL>
1

>  <REMARK>
 VINA RESULT:      -6.8      0.000      0.000
  Name = 
  11 active torsions:
  status: ('A' for Active; 'I' for Inactive)
    1  A    between atoms: C_1  and  C_26
    2  A    between atoms: C_2  and  C_31
    3  A    between atoms: C_8  and  C_24
    4  A    between atoms: C_11  and  C_20
    5  A    between atoms: C_12  and  C_31
    6  A    between atoms: N_13  and  C_17
    7  A    between atoms: C_16  and  C_27
    8  A    between atoms: C_17  and  C_21
    9  A    between atoms: O_19  and  C_20
   10  A    between atoms: O_19  and  O_33
   11  A    between atoms: C_23  and  O_33
                            x       y       z     vdW  Elec       q    Type
                         _______ _______ _______ _____ _____    ______ ____

>  <TORSDO>
F 11

$$$$
=
 OpenBabel11062420083D

 35 38  0  0  1  0  0  0  0  0999 V2000
  185.1540  178.2260  141.5500 S   0  0  0  0  0  0  0  0  0  0  0  0
  187.9840  176.1500  143.3740 C   0  0  0  0  0  0  0  0  0  0  0  0
  188.4020  176.2760  144.7940 C   0  0  0  0  0  0  0  0  0  0  0  0
  188.6110  175.4020  142.5770 O   0  0  0  0  0  0  0  0  0  0  0  0
  187.6550  176.9840  145.6540 C   0  0  0  0  0  3  0  0  0  0  0  0
  186.8460  176.9590  142.9070 C   0  0  0  0  0  0  0  0  0  0  0  0
  186.4370  177.1330  141.5820 C   0  0  0  0  0  0  0  0  0  0  0  0
  186.3180  177.6020  145.3150 C   0  0  1  0  0  3  0  0  0  0  0  0
  184.2190  179.3620  143.8730 N   0  0  0  0  0  1  0  0  0  0  0  0
  185.1170  178.4790  143.2100 C   0  0  0  0  0  0  0  0  0  0  0  0
  186.0980  177.7090  143.8240 C   0  0  0  0  0  0  0  0  0  0  0  0
  190.9480  176.4430  145.2370 C   0  0  1  0  0  0  0  0  0  0  0  0
  190.7160  177.9180  145.5710 C   0  0  0  0  0  1  0  0  0  0  0  0
  189.3380  173.7170  146.7110 O   0  0  0  0  0  1  0  0  0  0  0  0
  191.8350  175.8380  146.3370 C   0  0  1  0  0  3  0  0  0  0  0  0
  189.6540  175.6290  145.3310 C   0  0  1  0  0  3  0  0  0  0  0  0
  189.5380  175.0960  146.7510 C   0  0  2  0  0  3  0  0  0  0  0  0
  190.8650  175.3990  147.4280 C   0  0  0  0  0  2  0  0  0  0  0  0
  191.5290  176.3260  143.8190 C   0  0  0  0  0  2  0  0  0  0  0  0
  191.4670  177.6350  143.0440 C   0  0  0  0  0  1  0  0  0  0  0  0
  192.6360  174.6210  145.8690 C   0  0  0  0  0  2  0  0  0  0  0  0
  194.1240  174.8940  145.9810 C   0  0  1  0  0  3  0  0  0  0  0  0
  194.8330  173.7070  145.7190 O   0  0  0  0  0  0  0  0  0  0  0  0
  194.7730  174.6490  144.6760 C   0  0  2  0  0  3  0  0  0  0  0  0
  195.9790  175.3440  144.6170 O   0  0  0  0  0  1  0  0  0  0  0  0
  184.3270  177.5350  146.6480 O   0  0  0  0  0  1  0  0  0  0  0  0
  185.2340  176.7410  145.9480 C   0  0  0  0  0  2  0  0  0  0  0  0
  187.0430  176.4940  140.3710 C   0  0  0  0  0  2  0  0  0  0  0  0
  186.5590  177.1250  139.1490 N   0  0  0  0  0  0  0  0  0  0  0  0
  186.5900  176.5500  137.9870 C   0  0  0  0  0  3  0  0  0  0  0  0
  187.1070  175.2680  137.8320 O   0  0  0  0  0  0  0  0  0  0  0  0
  188.2230  175.0740  137.1210 O   0  0  0  0  0  0  0  0  0  0  0  0
  188.6160  173.7740  137.4370 C   0  0  0  0  0  2  0  0  0  0  0  0
  188.7080  173.6150  138.9410 C   0  0  0  0  0  2  0  0  0  0  0  0
  188.0320  172.4620  139.3380 O   0  0  0  0  0  1  0  0  0  0  0  0
  1  7  1  0  0  0  0
  1 10  1  0  0  0  0
  2  3  1  0  0  0  0
  3  5  2  0  0  0  0
  4  2  2  0  0  0  0
  6  2  1  0  0  0  0
  6 11  1  0  0  0  0
  7  6  2  0  0  0  0
  8  5  1  0  0  0  0
  8 27  1  6  0  0  0
 10 11  2  0  0  0  0
 10  9  1  0  0  0  0
 11  8  1  0  0  0  0
 12 16  1  0  0  0  0
 12 13  1  1  0  0  0
 12 15  1  0  0  0  0
 15 21  1  6  0  0  0
 15 18  1  0  0  0  0
 16  3  1  1  0  0  0
 16 17  1  0  0  0  0
 17 14  1  6  0  0  0
 17 18  1  0  0  0  0
 19 12  1  0  0  0  0
 20 19  1  0  0  0  0
 22 21  1  6  0  0  0
 23 22  1  0  0  0  0
 24 25  1  1  0  0  0
 24 23  1  0  0  0  0
 24 22  1  0  0  0  0
 27 26  1  0  0  0  0
 28  7  1  0  0  0  0
 29 28  1  0  0  0  0
 30 29  2  0  0  0  0
 31 30  1  0  0  0  0
 32 33  1  0  0  0  0
 32 31  1  0  0  0  0
 33 34  1  0  0  0  0
 34 35  1  0  0  0  0
M  END
>  <MODEL>
2

>  <REMARK>
 VINA RESULT:      -6.7      1.334      2.180
  Name = 
  11 active torsions:
  status: ('A' for Active; 'I' for Inactive)
    1  A    between atoms: C_1  and  C_26
    2  A    between atoms: C_2  and  C_31
    3  A    between atoms: C_8  and  C_24
    4  A    between atoms: C_11  and  C_20
    5  A    between atoms: C_12  and  C_31
    6  A    between atoms: N_13  and  C_17
    7  A    between atoms: C_16  and  C_27
    8  A    between atoms: C_17  and  C_21
    9  A    between atoms: O_19  and  C_20
   10  A    between atoms: O_19  and  O_33
   11  A    between atoms: C_23  and  O_33
                            x       y       z     vdW  Elec       q    Type
                         _______ _______ _______ _____ _____    ______ ____

>  <TORSDO>
F 11

$$$$
=
 OpenBabel11062420083D

 35 38  0  0  1  0  0  0  0  0999 V2000
  196.2160  172.7530  143.6680 S   0  0  0  0  0  0  0  0  0  0  0  0
  192.8500  174.7880  143.2450 C   0  0  0  0  0  0  0  0  0  0  0  0
  192.0770  175.4590  144.3220 C   0  0  0  0  0  0  0  0  0  0  0  0
  192.4050  174.7280  142.0680 O   0  0  0  0  0  0  0  0  0  0  0  0
  192.6180  175.6170  145.5390 C   0  0  0  0  0  3  0  0  0  0  0  0
  194.1310  174.1510  143.5980 C   0  0  0  0  0  0  0  0  0  0  0  0
  194.8920  173.3080  142.7840 C   0  0  0  0  0  0  0  0  0  0  0  0
  194.0410  175.2490  145.8950 C   0  0  1  0  0  3  0  0  0  0  0  0
  196.5780  173.5180  146.2850 N   0  0  0  0  0  1  0  0  0  0  0  0
  195.8250  173.5790  145.0780 C   0  0  0  0  0  0  0  0  0  0  0  0
  194.6600  174.3120  144.8850 C   0  0  0  0  0  0  0  0  0  0  0  0
  189.5240  175.0670  144.5030 C   0  0  1  0  0  0  0  0  0  0  0  0
  189.8080  174.3300  145.8130 C   0  0  0  0  0  1  0  0  0  0  0  0
  190.4950  178.3290  143.7200 O   0  0  0  0  0  1  0  0  0  0  0  0
  188.3570  176.0370  144.7430 C   0  0  1  0  0  3  0  0  0  0  0  0
  190.6820  175.9890  144.1080 C   0  0  1  0  0  3  0  0  0  0  0  0
  190.4190  177.3580  144.7170 C   0  0  2  0  0  3  0  0  0  0  0  0
  189.0050  177.3110  145.2750 C   0  0  0  0  0  2  0  0  0  0  0  0
  189.2770  174.0420  143.3850 C   0  0  0  0  0  2  0  0  0  0  0  0
  189.6380  172.6210  143.7940 C   0  0  0  0  0  1  0  0  0  0  0  0
  187.5760  176.3740  143.4700 C   0  0  0  0  0  2  0  0  0  0  0  0
  186.9920  177.7700  143.5630 C   0  0  1  0  0  3  0  0  0  0  0  0
  187.2880  178.4750  142.3820 O   0  0  0  0  0  0  0  0  0  0  0  0
  185.9850  177.9580  142.4980 C   0  0  2  0  0  3  0  0  0  0  0  0
  185.1150  178.9860  142.8550 O   0  0  0  0  0  1  0  0  0  0  0  0
  194.3070  177.3840  146.9500 O   0  0  0  0  0  1  0  0  0  0  0  0
  194.8460  176.5380  145.9820 C   0  0  0  0  0  2  0  0  0  0  0  0
  194.5860  172.9180  141.3720 C   0  0  0  0  0  2  0  0  0  0  0  0
  195.8100  172.7830  140.5900 N   0  0  0  0  0  0  0  0  0  0  0  0
  196.3680  173.7720  139.9610 C   0  0  0  0  0  3  0  0  0  0  0  0
  195.8150  175.0480  139.9910 O   0  0  0  0  0  0  0  0  0  0  0  0
  196.5470  176.0890  140.4000 O   0  0  0  0  0  0  0  0  0  0  0  0
  195.8220  176.6300  141.4600 C   0  0  0  0  0  2  0  0  0  0  0  0
  196.6960  176.7090  142.6950 C   0  0  0  0  0  2  0  0  0  0  0  0
  197.7510  175.8030  142.5890 O   0  0  0  0  0  1  0  0  0  0  0  0
  1 10  1  0  0  0  0
  2  6  1  0  0  0  0
  2  3  1  0  0  0  0
  3  5  2  0  0  0  0
  4  2  2  0  0  0  0
  5  8  1  0  0  0  0
  6 11  1  0  0  0  0
  7  6  2  0  0  0  0
  7  1  1  0  0  0  0
  8 27  1  6  0  0  0
 10  9  1  0  0  0  0
 11 10  2  0  0  0  0
 11  8  1  0  0  0  0
 12 15  1  0  0  0  0
 12 13  1  1  0  0  0
 15 21  1  6  0  0  0
 15 18  1  0  0  0  0
 16  3  1  1  0  0  0
 16 12  1  0  0  0  0
 16 17  1  0  0  0  0
 17 14  1  6  0  0  0
 17 18  1  0  0  0  0
 19 20  1  0  0  0  0
 19 12  1  0  0  0  0
 22 21  1  6  0  0  0
 23 24  1  0  0  0  0
 23 22  1  0  0  0  0
 24 25  1  1  0  0  0
 24 22  1  0  0  0  0
 27 26  1  0  0  0  0
 28  7  1  0  0  0  0
 29 28  1  0  0  0  0
 30 31  1  0  0  0  0
 30 29  2  0  0  0  0
 31 32  1  0  0  0  0
 32 33  1  0  0  0  0
 33 34  1  0  0  0  0
 35 34  1  0  0  0  0
M  END
>  <MODEL>
3

>  <REMARK>
 VINA RESULT:      -6.5      4.512      7.930
  Name = 
  11 active torsions:
  status: ('A' for Active; 'I' for Inactive)
    1  A    between atoms: C_1  and  C_26
    2  A    between atoms: C_2  and  C_31
    3  A    between atoms: C_8  and  C_24
    4  A    between atoms: C_11  and  C_20
    5  A    between atoms: C_12  and  C_31
    6  A    between atoms: N_13  and  C_17
    7  A    between atoms: C_16  and  C_27
    8  A    between atoms: C_17  and  C_21
    9  A    between atoms: O_19  and  C_20
   10  A    between atoms: O_19  and  O_33
   11  A    between atoms: C_23  and  O_33
                            x       y       z     vdW  Elec       q    Type
                         _______ _______ _______ _____ _____    ______ ____

>  <TORSDO>
F 11

$$$$
=
 OpenBabel11062420083D

 35 38  0  0  1  0  0  0  0  0999 V2000
  195.1540  170.8660  145.2440 S   0  0  0  0  0  0  0  0  0  0  0  0
  192.3640  173.5330  144.3770 C   0  0  0  0  0  0  0  0  0  0  0  0
  192.3590  174.9690  144.7600 C   0  0  0  0  0  0  0  0  0  0  0  0
  191.3700  173.0110  143.8060 O   0  0  0  0  0  0  0  0  0  0  0  0
  193.4670  175.5350  145.2600 C   0  0  0  0  0  3  0  0  0  0  0  0
  193.5430  172.7220  144.7260 C   0  0  0  0  0  0  0  0  0  0  0  0
  193.6520  171.3320  144.6370 C   0  0  0  0  0  0  0  0  0  0  0  0
  194.8040  174.8390  145.3740 C   0  0  1  0  0  3  0  0  0  0  0  0
  196.9170  172.7390  146.2170 N   0  0  0  0  0  1  0  0  0  0  0  0
  195.6650  172.4220  145.6190 C   0  0  0  0  0  0  0  0  0  0  0  0
  194.6780  173.3370  145.2700 C   0  0  0  0  0  0  0  0  0  0  0  0
  190.2760  176.0500  145.8560 C   0  0  1  0  0  0  0  0  0  0  0  0
  191.1300  176.2390  147.1110 C   0  0  0  0  0  1  0  0  0  0  0  0
  191.0510  177.1870  142.6450 O   0  0  0  0  0  1  0  0  0  0  0  0
  189.5440  177.3710  145.5720 C   0  0  1  0  0  3  0  0  0  0  0  0
  191.1400  175.8440  144.6070 C   0  0  1  0  0  3  0  0  0  0  0  0
  191.4080  177.2090  143.9920 C   0  0  2  0  0  3  0  0  0  0  0  0
  190.5200  178.1930  144.7380 C   0  0  0  0  0  2  0  0  0  0  0  0
  189.3490  174.8390  146.0460 C   0  0  0  0  0  2  0  0  0  0  0  0
  188.9960  174.5880  147.5060 C   0  0  0  0  0  1  0  0  0  0  0  0
  188.2480  177.1880  144.7780 C   0  0  0  0  0  2  0  0  0  0  0  0
  187.0620  177.6860  145.5810 C   0  0  1  0  0  3  0  0  0  0  0  0
  186.0300  178.0580  144.6990 O   0  0  0  0  0  0  0  0  0  0  0  0
  185.8960  176.8120  145.3370 C   0  0  2  0  0  3  0  0  0  0  0  0
  184.9940  176.9320  146.3920 O   0  0  0  0  0  1  0  0  0  0  0  0
  195.6780  176.7660  144.2480 O   0  0  0  0  0  1  0  0  0  0  0  0
  195.7030  175.3720  144.2670 C   0  0  0  0  0  2  0  0  0  0  0  0
  192.6100  170.3880  144.1240 C   0  0  0  0  0  2  0  0  0  0  0  0
  192.9060  169.9740  142.7570 N   0  0  0  0  0  0  0  0  0  0  0  0
  192.0360  170.0110  141.7950 C   0  0  0  0  0  3  0  0  0  0  0  0
  190.7340  170.4510  142.0180 O   0  0  0  0  0  0  0  0  0  0  0  0
  190.1470  171.2800  141.1490 O   0  0  0  0  0  0  0  0  0  0  0  0
  191.2000  171.7990  140.3980 C   0  0  0  0  0  2  0  0  0  0  0  0
  190.8420  173.1840  139.8960 C   0  0  0  0  0  2  0  0  0  0  0  0
  190.0550  173.8420  140.8420 O   0  0  0  0  0  1  0  0  0  0  0  0
  1 10  1  0  0  0  0
  2  6  1  0  0  0  0
  2  3  1  0  0  0  0
  3  5  2  0  0  0  0
  4  2  2  0  0  0  0
  5  8  1  0  0  0  0
  6 11  1  0  0  0  0
  7  6  2  0  0  0  0
  7  1  1  0  0  0  0
  8 27  1  6  0  0  0
 10  9  1  0  0  0  0
 11  8  1  0  0  0  0
 11 10  2  0  0  0  0
 12 19  1  0  0  0  0
 12 13  1  1  0  0  0
 15 21  1  6  0  0  0
 15 12  1  0  0  0  0
 16  3  1  1  0  0  0
 16 12  1  0  0  0  0
 17 14  1  6  0  0  0
 17 16  1  0  0  0  0
 17 18  1  0  0  0  0
 18 15  1  0  0  0  0
 19 20  1  0  0  0  0
 22 21  1  6  0  0  0
 23 24  1  0  0  0  0
 23 22  1  0  0  0  0
 24 22  1  0  0  0  0
 24 25  1  1  0  0  0
 26 27  1  0  0  0  0
 28  7  1  0  0  0  0
 29 28  1  0  0  0  0
 30 31  1  0  0  0  0
 30 29  2  0  0  0  0
 32 31  1  0  0  0  0
 33 32  1  0  0  0  0
 34 33  1  0  0  0  0
 34 35  1  0  0  0  0
M  END
>  <MODEL>
4

>  <REMARK>
 VINA RESULT:      -6.5      4.215      7.519
  Name = 
  11 active torsions:
  status: ('A' for Active; 'I' for Inactive)
    1  A    between atoms: C_1  and  C_26
    2  A    between atoms: C_2  and  C_31
    3  A    between atoms: C_8  and  C_24
    4  A    between atoms: C_11  and  C_20
    5  A    between atoms: C_12  and  C_31
    6  A    between atoms: N_13  and  C_17
    7  A    between atoms: C_16  and  C_27
    8  A    between atoms: C_17  and  C_21
    9  A    between atoms: O_19  and  C_20
   10  A    between atoms: O_19  and  O_33
   11  A    between atoms: C_23  and  O_33
                            x       y       z     vdW  Elec       q    Type
                         _______ _______ _______ _____ _____    ______ ____

>  <TORSDO>
F 11

$$$$
=
 OpenBabel11062420083D

 35 38  0  0  1  0  0  0  0  0999 V2000
  186.0010  176.9090  142.5580 S   0  0  0  0  0  0  0  0  0  0  0  0
  189.2700  175.5170  144.2970 C   0  0  0  0  0  0  0  0  0  0  0  0
  190.1120  176.2210  145.2980 C   0  0  0  0  0  0  0  0  0  0  0  0
  189.6190  174.4020  143.8260 O   0  0  0  0  0  0  0  0  0  0  0  0
  189.6690  177.3490  145.8750 C   0  0  0  0  0  3  0  0  0  0  0  0
  188.0390  176.1780  143.8310 C   0  0  0  0  0  0  0  0  0  0  0  0
  187.2350  175.7770  142.7610 C   0  0  0  0  0  0  0  0  0  0  0  0
  188.2900  177.9300  145.6630 C   0  0  1  0  0  3  0  0  0  0  0  0
  185.8360  179.1150  144.1930 N   0  0  0  0  0  1  0  0  0  0  0  0
  186.4860  177.9030  143.8230 C   0  0  0  0  0  0  0  0  0  0  0  0
  187.6130  177.3680  144.4350 C   0  0  0  0  0  0  0  0  0  0  0  0
  192.6290  175.9750  144.7400 C   0  0  1  0  0  0  0  0  0  0  0  0
  192.5500  177.3710  144.1210 C   0  0  0  0  0  1  0  0  0  0  0  0
  191.7160  175.1100  147.9980 O   0  0  0  0  0  1  0  0  0  0  0  0
  193.8730  175.9200  145.6400 C   0  0  1  0  0  3  0  0  0  0  0  0
  191.4720  175.7180  145.7120 C   0  0  1  0  0  3  0  0  0  0  0  0
  191.9190  176.1540  147.0980 C   0  0  2  0  0  3  0  0  0  0  0  0
  193.4070  176.4510  146.9910 C   0  0  0  0  0  2  0  0  0  0  0  0
  192.6080  174.9190  143.6230 C   0  0  0  0  0  2  0  0  0  0  0  0
  192.5470  175.5310  142.2310 C   0  0  0  0  0  1  0  0  0  0  0  0
  194.4240  174.5040  145.8300 C   0  0  0  0  0  2  0  0  0  0  0  0
  195.9400  174.5190  145.7930 C   0  0  1  0  0  3  0  0  0  0  0  0
  196.4200  173.2170  146.0270 O   0  0  0  0  0  0  0  0  0  0  0  0
  196.4180  173.6580  144.6910 C   0  0  2  0  0  3  0  0  0  0  0  0
  197.7100  174.0350  144.3310 O   0  0  0  0  0  1  0  0  0  0  0  0
  187.0830  176.2890  146.9250 O   0  0  0  0  0  1  0  0  0  0  0  0
  187.4630  177.6300  146.9050 C   0  0  0  0  0  2  0  0  0  0  0  0
  187.4330  174.5700  141.8990 C   0  0  0  0  0  2  0  0  0  0  0  0
  188.3030  174.8720  140.7680 N   0  0  0  0  0  0  0  0  0  0  0  0
  188.9450  173.9650  140.0980 C   0  0  0  0  0  3  0  0  0  0  0  0
  188.8440  172.6180  140.4320 O   0  0  0  0  0  0  0  0  0  0  0  0
  189.9190  171.8250  140.3580 O   0  0  0  0  0  0  0  0  0  0  0  0
  190.7200  172.2250  141.4270 C   0  0  0  0  0  2  0  0  0  0  0  0
  190.8150  171.1070  142.4460 C   0  0  0  0  0  2  0  0  0  0  0  0
  190.5490  169.8830  141.8330 O   0  0  0  0  0  1  0  0  0  0  0  0
  1  7  1  0  0  0  0
  1 10  1  0  0  0  0
  2  3  1  0  0  0  0
  3  5  2  0  0  0  0
  4  2  2  0  0  0  0
  6  2  1  0  0  0  0
  6 11  1  0  0  0  0
  7  6  2  0  0  0  0
  8  5  1  0  0  0  0
  8 27  1  1  0  0  0
 10  9  1  0  0  0  0
 10 11  2  0  0  0  0
 11  8  1  0  0  0  0
 12 13  1  6  0  0  0
 12 15  1  0  0  0  0
 12 16  1  0  0  0  0
 15 21  1  1  0  0  0
 15 18  1  0  0  0  0
 16  3  1  6  0  0  0
 16 17  1  0  0  0  0
 17 14  1  1  0  0  0
 18 17  1  0  0  0  0
 19 12  1  0  0  0  0
 20 19  1  0  0  0  0
 22 21  1  6  0  0  0
 22 23  1  0  0  0  0
 24 25  1  1  0  0  0
 24 22  1  0  0  0  0
 24 23  1  0  0  0  0
 27 26  1  0  0  0  0
 28  7  1  0  0  0  0
 29 28  1  0  0  0  0
 30 31  1  0  0  0  0
 30 29  2  0  0  0  0
 32 31  1  0  0  0  0
 32 33  1  0  0  0  0
 33 34  1  0  0  0  0
 35 34  1  0  0  0  0
M  END
>  <MODEL>
5

>  <REMARK>
 VINA RESULT:      -6.4      2.193      3.193
  Name = 
  11 active torsions:
  status: ('A' for Active; 'I' for Inactive)
    1  A    between atoms: C_1  and  C_26
    2  A    between atoms: C_2  and  C_31
    3  A    between atoms: C_8  and  C_24
    4  A    between atoms: C_11  and  C_20
    5  A    between atoms: C_12  and  C_31
    6  A    between atoms: N_13  and  C_17
    7  A    between atoms: C_16  and  C_27
    8  A    between atoms: C_17  and  C_21
    9  A    between atoms: O_19  and  C_20
   10  A    between atoms: O_19  and  O_33
   11  A    between atoms: C_23  and  O_33
                            x       y       z     vdW  Elec       q    Type
                         _______ _______ _______ _____ _____    ______ ____

>  <TORSDO>
F 11

$$$$
=
 OpenBabel11062420083D

 35 38  0  0  1  0  0  0  0  0999 V2000
  192.3420  176.2540  145.7850 S   0  0  0  0  0  0  0  0  0  0  0  0
  189.0860  177.3410  143.8200 C   0  0  0  0  0  0  0  0  0  0  0  0
  187.6800  177.1740  144.2690 C   0  0  0  0  0  0  0  0  0  0  0  0
  189.3510  177.7710  142.6650 O   0  0  0  0  0  0  0  0  0  0  0  0
  187.4180  176.8280  145.5380 C   0  0  0  0  0  3  0  0  0  0  0  0
  190.1660  176.9460  144.7400 C   0  0  0  0  0  0  0  0  0  0  0  0
  191.5240  176.8360  144.4310 C   0  0  0  0  0  0  0  0  0  0  0  0
  188.4650  176.6900  146.6200 C   0  0  1  0  0  3  0  0  0  0  0  0
  190.9840  175.6700  148.1040 N   0  0  0  0  0  1  0  0  0  0  0  0
  190.9790  176.1420  146.7600 C   0  0  0  0  0  0  0  0  0  0  0  0
  189.8590  176.5650  146.0530 C   0  0  0  0  0  0  0  0  0  0  0  0
  185.4740  178.4360  143.7720 C   0  0  1  0  0  0  0  0  0  0  0  0
  186.1430  179.6800  144.3600 C   0  0  0  0  0  1  0  0  0  0  0  0
  186.7070  176.4700  141.1620 O   0  0  0  0  0  1  0  0  0  0  0  0
  184.8020  178.8330  142.4490 C   0  0  1  0  0  3  0  0  0  0  0  0
  186.5040  177.3830  143.3490 C   0  0  1  0  0  3  0  0  0  0  0  0
  186.8700  177.6430  141.8960 C   0  0  2  0  0  3  0  0  0  0  0  0
  185.8940  178.6970  141.3940 C   0  0  0  0  0  2  0  0  0  0  0  0
  184.5180  177.8310  144.8130 C   0  0  0  0  0  2  0  0  0  0  0  0
  184.0680  178.8400  145.8590 C   0  0  0  0  0  1  0  0  0  0  0  0
  183.6300  177.9260  142.0670 C   0  0  0  0  0  2  0  0  0  0  0  0
  182.8150  178.5560  140.9540 C   0  0  1  0  0  3  0  0  0  0  0  0
  182.1550  177.5440  140.2340 O   0  0  0  0  0  0  0  0  0  0  0  0
  181.3820  178.2640  141.1630 C   0  0  2  0  0  3  0  0  0  0  0  0
  180.6100  179.2060  140.4840 O   0  0  0  0  0  1  0  0  0  0  0  0
  187.0400  178.3140  147.6550 O   0  0  0  0  0  1  0  0  0  0  0  0
  188.3680  177.9130  147.5200 C   0  0  0  0  0  2  0  0  0  0  0  0
  192.1660  177.1430  143.1140 C   0  0  0  0  0  2  0  0  0  0  0  0
  192.9620  176.0140  142.6450 N   0  0  0  0  0  0  0  0  0  0  0  0
  192.4520  174.9730  142.0620 C   0  0  0  0  0  3  0  0  0  0  0  0
  191.0810  174.8650  141.8520 O   0  0  0  0  0  0  0  0  0  0  0  0
  190.4740  173.6790  141.9690 O   0  0  0  0  0  0  0  0  0  0  0  0
  189.7020  173.7950  143.1240 C   0  0  0  0  0  2  0  0  0  0  0  0
  190.1960  172.8210  144.1740 C   0  0  0  0  0  2  0  0  0  0  0  0
  189.6630  173.1550  145.4190 O   0  0  0  0  0  1  0  0  0  0  0  0
  1 10  1  0  0  0  0
  2  3  1  0  0  0  0
  2  6  1  0  0  0  0
  3  5  2  0  0  0  0
  4  2  2  0  0  0  0
  5  8  1  0  0  0  0
  6 11  1  0  0  0  0
  7  6  2  0  0  0  0
  7  1  1  0  0  0  0
  8 27  1  1  0  0  0
 10  9  1  0  0  0  0
 11  8  1  0  0  0  0
 11 10  2  0  0  0  0
 12 13  1  1  0  0  0
 12 19  1  0  0  0  0
 15 21  1  6  0  0  0
 15 12  1  0  0  0  0
 16 12  1  0  0  0  0
 16  3  1  1  0  0  0
 17 14  1  6  0  0  0
 17 16  1  0  0  0  0
 18 17  1  0  0  0  0
 18 15  1  0  0  0  0
 19 20  1  0  0  0  0
 22 24  1  0  0  0  0
 22 21  1  1  0  0  0
 23 22  1  0  0  0  0
 23 24  1  0  0  0  0
 24 25  1  6  0  0  0
 27 26  1  0  0  0  0
 28  7  1  0  0  0  0
 29 28  1  0  0  0  0
 30 29  2  0  0  0  0
 31 32  1  0  0  0  0
 31 30  1  0  0  0  0
 32 33  1  0  0  0  0
 33 34  1  0  0  0  0
 34 35  1  0  0  0  0
M  END
>  <MODEL>
6

>  <REMARK>
 VINA RESULT:      -6.2      3.783      7.688
  Name = 
  11 active torsions:
  status: ('A' for Active; 'I' for Inactive)
    1  A    between atoms: C_1  and  C_26
    2  A    between atoms: C_2  and  C_31
    3  A    between atoms: C_8  and  C_24
    4  A    between atoms: C_11  and  C_20
    5  A    between atoms: C_12  and  C_31
    6  A    between atoms: N_13  and  C_17
    7  A    between atoms: C_16  and  C_27
    8  A    between atoms: C_17  and  C_21
    9  A    between atoms: O_19  and  C_20
   10  A    between atoms: O_19  and  O_33
   11  A    between atoms: C_23  and  O_33
                            x       y       z     vdW  Elec       q    Type
                         _______ _______ _______ _____ _____    ______ ____

>  <TORSDO>
F 11

$$$$
=
 OpenBabel11062420083D

 35 38  0  0  1  0  0  0  0  0999 V2000
  184.3980  179.3090  144.2500 S   0  0  0  0  0  0  0  0  0  0  0  0
  188.0480  177.8340  143.8670 C   0  0  0  0  0  0  0  0  0  0  0  0
  189.0040  177.5350  144.9630 C   0  0  0  0  0  0  0  0  0  0  0  0
  188.3930  177.7310  142.6590 O   0  0  0  0  0  0  0  0  0  0  0  0
  188.5870  177.5350  146.2380 C   0  0  0  0  0  3  0  0  0  0  0  0
  186.6980  178.3010  144.2250 C   0  0  0  0  0  0  0  0  0  0  0  0
  185.7390  178.8220  143.3520 C   0  0  0  0  0  0  0  0  0  0  0  0
  187.1480  177.7190  146.6650 C   0  0  1  0  0  3  0  0  0  0  0  0
  184.3650  179.0360  146.9860 N   0  0  0  0  0  1  0  0  0  0  0  0
  185.0310  178.8630  145.7400 C   0  0  0  0  0  0  0  0  0  0  0  0
  186.2980  178.3150  145.5680 C   0  0  0  0  0  0  0  0  0  0  0  0
  190.8420  175.7350  144.6610 C   0  0  1  0  0  0  0  0  0  0  0  0
  189.7960  174.9010  143.9220 C   0  0  0  0  0  1  0  0  0  0  0  0
  191.7940  179.0060  143.8880 O   0  0  0  0  0  1  0  0  0  0  0  0
  192.1350  175.7270  143.8320 C   0  0  1  0  0  3  0  0  0  0  0  0
  190.4570  177.2180  144.7090 C   0  0  1  0  0  3  0  0  0  0  0  0
  191.0530  177.8960  143.4850 C   0  0  2  0  0  3  0  0  0  0  0  0
  191.9770  176.8740  142.8400 C   0  0  0  0  0  2  0  0  0  0  0  0
  191.0040  175.1990  146.0930 C   0  0  0  0  0  2  0  0  0  0  0  0
  189.9530  174.1600  146.4570 C   0  0  0  0  0  1  0  0  0  0  0  0
  193.3950  175.9670  144.6680 C   0  0  0  0  0  2  0  0  0  0  0  0
  194.6350  175.8390  143.8030 C   0  0  1  0  0  3  0  0  0  0  0  0
  195.5860  176.7890  144.2160 O   0  0  0  0  0  0  0  0  0  0  0  0
  195.7900  175.4660  144.6460 C   0  0  2  0  0  3  0  0  0  0  0  0
  196.7720  174.8730  143.8550 O   0  0  0  0  0  1  0  0  0  0  0  0
  185.9420  176.4430  148.2950 O   0  0  0  0  0  1  0  0  0  0  0  0
  186.6060  176.3570  147.0720 C   0  0  0  0  0  2  0  0  0  0  0  0
  185.8700  178.9660  141.8680 C   0  0  0  0  0  2  0  0  0  0  0  0
  185.4130  177.7620  141.1840 N   0  0  0  0  0  0  0  0  0  0  0  0
  184.2220  177.6320  140.6850 C   0  0  0  0  0  3  0  0  0  0  0  0
  183.2850  178.6570  140.7820 O   0  0  0  0  0  0  0  0  0  0  0  0
  182.2290  178.5270  141.5920 O   0  0  0  0  0  0  0  0  0  0  0  0
  181.1520  178.3320  140.7290 C   0  0  0  0  0  2  0  0  0  0  0  0
  179.8500  178.5640  141.4700 C   0  0  0  0  0  2  0  0  0  0  0  0
  178.9060  177.6140  141.0800 O   0  0  0  0  0  1  0  0  0  0  0  0
  1 10  1  0  0  0  0
  2  6  1  0  0  0  0
  2  3  1  0  0  0  0
  3  5  2  0  0  0  0
  4  2  2  0  0  0  0
  5  8  1  0  0  0  0
  6 11  1  0  0  0  0
  7  6  2  0  0  0  0
  7  1  1  0  0  0  0
  8 27  1  6  0  0  0
 10  9  1  0  0  0  0
 11 10  2  0  0  0  0
 11  8  1  0  0  0  0
 12 13  1  6  0  0  0
 12 16  1  0  0  0  0
 12 19  1  0  0  0  0
 15 12  1  0  0  0  0
 15 21  1  1  0  0  0
 16  3  1  6  0  0  0
 17 14  1  1  0  0  0
 17 16  1  0  0  0  0
 18 17  1  0  0  0  0
 18 15  1  0  0  0  0
 19 20  1  0  0  0  0
 22 23  1  0  0  0  0
 22 24  1  0  0  0  0
 22 21  1  1  0  0  0
 23 24  1  0  0  0  0
 24 25  1  6  0  0  0
 27 26  1  0  0  0  0
 28  7  1  0  0  0  0
 29 28  1  0  0  0  0
 30 31  1  0  0  0  0
 30 29  2  0  0  0  0
 31 32  1  0  0  0  0
 33 34  1  0  0  0  0
 33 32  1  0  0  0  0
 35 34  1  0  0  0  0
M  END
>  <MODEL>
7

>  <REMARK>
 VINA RESULT:      -6.2      2.978      4.034
  Name = 
  11 active torsions:
  status: ('A' for Active; 'I' for Inactive)
    1  A    between atoms: C_1  and  C_26
    2  A    between atoms: C_2  and  C_31
    3  A    between atoms: C_8  and  C_24
    4  A    between atoms: C_11  and  C_20
    5  A    between atoms: C_12  and  C_31
    6  A    between atoms: N_13  and  C_17
    7  A    between atoms: C_16  and  C_27
    8  A    between atoms: C_17  and  C_21
    9  A    between atoms: O_19  and  C_20
   10  A    between atoms: O_19  and  O_33
   11  A    between atoms: C_23  and  O_33
                            x       y       z     vdW  Elec       q    Type
                         _______ _______ _______ _____ _____    ______ ____

>  <TORSDO>
F 11

$$$$
=
 OpenBabel11062420083D

 35 38  0  0  1  0  0  0  0  0999 V2000
  196.1010  172.9390  143.4020 S   0  0  0  0  0  0  0  0  0  0  0  0
  192.7280  174.9960  143.2210 C   0  0  0  0  0  0  0  0  0  0  0  0
  192.0420  175.6780  144.3490 C   0  0  0  0  0  0  0  0  0  0  0  0
  192.1960  174.9340  142.0810 O   0  0  0  0  0  0  0  0  0  0  0  0
  192.6730  175.8370  145.5220 C   0  0  0  0  0  3  0  0  0  0  0  0
  194.0260  174.3520  143.4800 C   0  0  0  0  0  0  0  0  0  0  0  0
  194.7190  173.4990  142.6160 C   0  0  0  0  0  0  0  0  0  0  0  0
  194.1160  175.4610  145.7720 C   0  0  1  0  0  3  0  0  0  0  0  0
  196.6630  173.7130  145.9800 N   0  0  0  0  0  1  0  0  0  0  0  0
  195.8230  173.7740  144.8330 C   0  0  0  0  0  0  0  0  0  0  0  0
  194.6510  174.5150  144.7240 C   0  0  0  0  0  0  0  0  0  0  0  0
  189.5030  175.2850  144.6740 C   0  0  1  0  0  0  0  0  0  0  0  0
  189.8640  174.5080  145.9420 C   0  0  0  0  0  1  0  0  0  0  0  0
  190.4370  178.5670  143.9320 O   0  0  0  0  0  1  0  0  0  0  0  0
  188.3570  176.2500  145.0150 C   0  0  1  0  0  3  0  0  0  0  0  0
  190.6380  176.2170  144.2370 C   0  0  1  0  0  3  0  0  0  0  0  0
  190.4190  177.5670  144.9020 C   0  0  2  0  0  3  0  0  0  0  0  0
  189.0410  177.5050  145.5440 C   0  0  0  0  0  2  0  0  0  0  0  0
  189.1840  174.2950  143.5420 C   0  0  0  0  0  2  0  0  0  0  0  0
  189.6740  172.8840  143.8350 C   0  0  0  0  0  1  0  0  0  0  0  0
  187.5010  176.6270  143.8030 C   0  0  0  0  0  2  0  0  0  0  0  0
  186.5400  177.7440  144.1620 C   0  0  1  0  0  3  0  0  0  0  0  0
  186.4440  178.6380  143.0800 O   0  0  0  0  0  0  0  0  0  0  0  0
  185.3870  177.7230  143.2380 C   0  0  2  0  0  3  0  0  0  0  0  0
  184.3040  178.3720  143.8270 O   0  0  0  0  0  1  0  0  0  0  0  0
  194.5650  177.5400  146.8760 O   0  0  0  0  0  1  0  0  0  0  0  0
  194.9340  176.7440  145.7930 C   0  0  0  0  0  2  0  0  0  0  0  0
  194.3060  173.1050  141.2330 C   0  0  0  0  0  2  0  0  0  0  0  0
  194.1130  171.6620  141.1360 N   0  0  0  0  0  0  0  0  0  0  0  0
  192.9480  171.0930  141.1680 C   0  0  0  0  0  3  0  0  0  0  0  0
  191.7840  171.8430  141.3070 O   0  0  0  0  0  0  0  0  0  0  0  0
  190.7560  171.6500  140.4740 O   0  0  0  0  0  0  0  0  0  0  0  0
  190.6870  172.8260  139.7280 C   0  0  0  0  0  2  0  0  0  0  0  0
  189.2380  173.1860  139.4670 C   0  0  0  0  0  2  0  0  0  0  0  0
  188.4300  172.6650  140.4780 O   0  0  0  0  0  1  0  0  0  0  0  0
  1 10  1  0  0  0  0
  2  6  1  0  0  0  0
  2  3  1  0  0  0  0
  3  5  2  0  0  0  0
  4  2  2  0  0  0  0
  5  8  1  0  0  0  0
  6 11  1  0  0  0  0
  7  1  1  0  0  0  0
  7  6  2  0  0  0  0
  8 27  1  6  0  0  0
 10  9  1  0  0  0  0
 11 10  2  0  0  0  0
 11  8  1  0  0  0  0
 12 15  1  0  0  0  0
 12 13  1  1  0  0  0
 15 21  1  6  0  0  0
 15 18  1  0  0  0  0
 16  3  1  1  0  0  0
 16 12  1  0  0  0  0
 16 17  1  0  0  0  0
 17 14  1  6  0  0  0
 17 18  1  0  0  0  0
 19 20  1  0  0  0  0
 19 12  1  0  0  0  0
 22 21  1  6  0  0  0
 23 24  1  0  0  0  0
 23 22  1  0  0  0  0
 24 25  1  1  0  0  0
 24 22  1  0  0  0  0
 27 26  1  0  0  0  0
 28  7  1  0  0  0  0
 29 30  2  0  0  0  0
 29 28  1  0  0  0  0
 30 31  1  0  0  0  0
 32 31  1  0  0  0  0
 33 32  1  0  0  0  0
 34 33  1  0  0  0  0
 34 35  1  0  0  0  0
M  END
>  <MODEL>
8

>  <REMARK>
 VINA RESULT:      -6.1      3.996      7.255
  Name = 
  11 active torsions:
  status: ('A' for Active; 'I' for Inactive)
    1  A    between atoms: C_1  and  C_26
    2  A    between atoms: C_2  and  C_31
    3  A    between atoms: C_8  and  C_24
    4  A    between atoms: C_11  and  C_20
    5  A    between atoms: C_12  and  C_31
    6  A    between atoms: N_13  and  C_17
    7  A    between atoms: C_16  and  C_27
    8  A    between atoms: C_17  and  C_21
    9  A    between atoms: O_19  and  C_20
   10  A    between atoms: O_19  and  O_33
   11  A    between atoms: C_23  and  O_33
                            x       y       z     vdW  Elec       q    Type
                         _______ _______ _______ _____ _____    ______ ____

>  <TORSDO>
F 11

$$$$
=
 OpenBabel11062420083D

 35 38  0  0  1  0  0  0  0  0999 V2000
  192.9380  171.1030  141.5090 S   0  0  0  0  0  0  0  0  0  0  0  0
  190.2800  173.2470  143.5050 C   0  0  0  0  0  0  0  0  0  0  0  0
  189.6050  174.4840  143.0370 C   0  0  0  0  0  0  0  0  0  0  0  0
  190.1210  172.8270  144.6830 O   0  0  0  0  0  0  0  0  0  0  0  0
  189.6910  174.8510  141.7500 C   0  0  0  0  0  3  0  0  0  0  0  0
  191.1790  172.5460  142.5730 C   0  0  0  0  0  0  0  0  0  0  0  0
  192.0500  171.4990  142.8860 C   0  0  0  0  0  0  0  0  0  0  0  0
  190.3540  174.0260  140.6700 C   0  0  1  0  0  3  0  0  0  0  0  0
  192.5580  172.4700  139.1520 N   0  0  0  0  0  1  0  0  0  0  0  0
  192.2210  172.2560  140.5190 C   0  0  0  0  0  0  0  0  0  0  0  0
  191.2680  172.9660  141.2390 C   0  0  0  0  0  0  0  0  0  0  0  0
  189.5910  176.1770  144.9970 C   0  0  1  0  0  0  0  0  0  0  0  0
  190.8820  176.7500  144.4110 C   0  0  0  0  0  1  0  0  0  0  0  0
  186.5540  175.7930  143.3160 O   0  0  0  0  0  1  0  0  0  0  0  0
  188.6530  177.3490  145.3270 C   0  0  1  0  0  3  0  0  0  0  0  0
  188.8040  175.3700  143.9590 C   0  0  1  0  0  3  0  0  0  0  0  0
  187.8440  176.3180  143.2580 C   0  0  2  0  0  3  0  0  0  0  0  0
  187.8970  177.6260  144.0320 C   0  0  0  0  0  2  0  0  0  0  0  0
  189.9300  175.2790  146.1980 C   0  0  0  0  0  2  0  0  0  0  0  0
  191.1130  175.7940  147.0050 C   0  0  0  0  0  1  0  0  0  0  0  0
  187.6420  177.0250  146.4300 C   0  0  0  0  0  2  0  0  0  0  0  0
  186.3280  177.7330  146.1650 C   0  0  1  0  0  3  0  0  0  0  0  0
  185.2780  176.7990  146.2290 O   0  0  0  0  0  0  0  0  0  0  0  0
  185.4570  177.6240  147.3540 C   0  0  2  0  0  3  0  0  0  0  0  0
  184.5060  178.6410  147.3320 O   0  0  0  0  0  1  0  0  0  0  0  0
  189.4390  173.6720  138.4840 O   0  0  0  0  0  1  0  0  0  0  0  0
  189.2560  173.3830  139.8350 C   0  0  0  0  0  2  0  0  0  0  0  0
  192.2120  170.8440  144.2220 C   0  0  0  0  0  2  0  0  0  0  0  0
  193.6040  170.8850  144.6580 N   0  0  0  0  0  0  0  0  0  0  0  0
  194.1170  171.8780  145.3160 C   0  0  0  0  0  3  0  0  0  0  0  0
  193.3550  172.9940  145.6460 O   0  0  0  0  0  0  0  0  0  0  0  0
  193.3780  174.0790  144.8640 O   0  0  0  0  0  0  0  0  0  0  0  0
  194.7260  174.4310  144.8000 C   0  0  0  0  0  2  0  0  0  0  0  0
  194.9000  175.8790  145.2110 C   0  0  0  0  0  2  0  0  0  0  0  0
  194.6030  176.0260  146.5660 O   0  0  0  0  0  1  0  0  0  0  0  0
  1  7  1  0  0  0  0
  2  4  2  0  0  0  0
  3  2  1  0  0  0  0
  5  3  2  0  0  0  0
  6  7  2  0  0  0  0
  6  2  1  0  0  0  0
  7 28  1  0  0  0  0
  8 27  1  1  0  0  0
  8 11  1  0  0  0  0
  8  5  1  0  0  0  0
  9 10  1  0  0  0  0
 10 11  2  0  0  0  0
 10  1  1  0  0  0  0
 11  6  1  0  0  0  0
 12 13  1  6  0  0  0
 12 15  1  0  0  0  0
 12 19  1  0  0  0  0
 15 21  1  1  0  0  0
 16  3  1  6  0  0  0
 16 12  1  0  0  0  0
 17 14  1  1  0  0  0
 17 16  1  0  0  0  0
 17 18  1  0  0  0  0
 18 15  1  0  0  0  0
 19 20  1  0  0  0  0
 22 23  1  0  0  0  0
 22 21  1  1  0  0  0
 22 24  1  0  0  0  0
 23 24  1  0  0  0  0
 24 25  1  6  0  0  0
 26 27  1  0  0  0  0
 28 29  1  0  0  0  0
 29 30  2  0  0  0  0
 30 31  1  0  0  0  0
 32 31  1  0  0  0  0
 33 32  1  0  0  0  0
 33 34  1  0  0  0  0
 34 35  1  0  0  0  0
M  END
>  <MODEL>
9

>  <REMARK>
 VINA RESULT:      -6.1      3.532      7.888
  Name = 
  11 active torsions:
  status: ('A' for Active; 'I' for Inactive)
    1  A    between atoms: C_1  and  C_26
    2  A    between atoms: C_2  and  C_31
    3  A    between atoms: C_8  and  C_24
    4  A    between atoms: C_11  and  C_20
    5  A    between atoms: C_12  and  C_31
    6  A    between atoms: N_13  and  C_17
    7  A    between atoms: C_16  and  C_27
    8  A    between atoms: C_17  and  C_21
    9  A    between atoms: O_19  and  C_20
   10  A    between atoms: O_19  and  O_33
   11  A    between atoms: C_23  and  O_33
                            x       y       z     vdW  Elec       q    Type
                         _______ _______ _______ _____ _____    ______ ____

>  <TORSDO>
F 11

$$$$
