=
 OpenBabel11062419583D

 28 29  0  0  1  0  0  0  0  0999 V2000
  184.3790  178.1150  146.0600 C   0  0  0  0  0  2  0  0  0  0  0  0
  186.3670  177.2940  147.1650 C   0  0  0  0  0  2  0  0  0  0  0  0
  185.4070  178.4540  147.1060 C   0  0  0  0  0  2  0  0  0  0  0  0
  187.3950  177.2970  146.0670 C   0  0  0  0  0  0  0  0  0  0  0  0
  184.7810  178.6170  144.7070 C   0  0  0  0  0  0  0  0  0  0  0  0
  186.0030  178.4040  144.1690 C   0  0  0  0  0  0  0  0  0  0  0  0
  187.1710  177.7510  144.8190 C   0  0  0  0  0  3  0  0  0  0  0  0
  191.3290  175.6560  147.0950 C   0  0  2  0  0  3  0  0  0  0  0  0
  190.0900  174.9000  147.2500 N   0  0  0  0  0  2  0  0  0  0  0  0
  191.2020  176.6120  145.9200 C   0  0  0  0  0  2  0  0  0  0  0  0
  189.9800  177.5040  146.1330 C   0  0  0  0  0  2  0  0  0  0  0  0
  188.7210  176.7020  146.3830 C   0  0  0  0  0  0  0  0  0  0  0  0
  188.8170  175.4810  146.9380 C   0  0  0  0  0  3  0  0  0  0  0  0
  192.4910  174.7080  146.8670 C   0  0  0  0  0  2  0  0  0  0  0  0
  193.0150  174.8980  145.5890 O   0  0  0  0  0  1  0  0  0  0  0  0
  183.8300  179.3080  143.9430 O   0  0  0  0  0  0  0  0  0  0  0  0
  182.9930  178.6710  142.9890 C   0  0  0  0  0  1  0  0  0  0  0  0
  186.2720  178.9220  142.7860 C   0  0  0  0  0  2  0  0  0  0  0  0
  187.6500  178.4920  142.2970 C   0  0  0  0  0  2  0  0  0  0  0  0
  187.5360  177.5910  141.0780 C   0  0  1  0  0  3  0  0  0  0  0  0
  187.9140  175.9070  141.5250 S   0  0  0  0  0  0  0  0  0  0  0  0
  188.1100  175.0900  140.2790 O   0  0  0  0  0  0  0  0  0  0  0  0
  186.7860  175.3260  142.3310 O   0  0  0  0  0  0  0  0  0  0  0  0
  189.4130  175.8810  142.4870 C   0  0  0  0  0  2  0  0  0  0  0  0
  190.7320  174.1070  143.3520 O   0  0  0  0  0  1  0  0  0  0  0  0
  189.4490  174.6520  143.3710 C   0  0  0  0  0  2  0  0  0  0  0  0
  186.1830  177.6800  140.5200 C   0  0  0  0  0  0  0  0  0  0  0  0
  185.1140  177.7490  140.0810 N   0  0  0  0  0  0  0  0  0  0  0  0
  1  3  1  0  0  0  0
  3  2  1  0  0  0  0
  4 12  1  0  0  0  0
  4  2  1  0  0  0  0
  5  1  1  0  0  0  0
  6  5  2  0  0  0  0
  6  7  1  0  0  0  0
  7  4  2  0  0  0  0
  8 14  1  6  0  0  0
  8  9  1  0  0  0  0
 10 11  1  0  0  0  0
 10  8  1  0  0  0  0
 11 12  1  0  0  0  0
 12 13  2  0  0  0  0
 13  9  1  0  0  0  0
 15 14  1  0  0  0  0
 16  5  1  0  0  0  0
 17 16  1  0  0  0  0
 18  6  1  0  0  0  0
 19 18  1  0  0  0  0
 20 27  1  1  0  0  0
 20 21  1  0  0  0  0
 20 19  1  0  0  0  0
 21 23  2  0  0  0  0
 21 24  1  0  0  0  0
 22 21  2  0  0  0  0
 24 26  1  0  0  0  0
 25 26  1  0  0  0  0
 28 27  3  0  0  0  0
M  END
>  <MODEL>
1

>  <REMARK>
 VINA RESULT:      -6.4      0.000      0.000
  Name = 
  10 active torsions:
  status: ('A' for Active; 'I' for Inactive)
    1  A    between atoms: C_1  and  C_11
    2  A    between atoms: C_1  and  C_23
    3  A    between atoms: CA_2  and  C_18
    4  A    between atoms: C_4  and  C_11
    5  A    between atoms: O_7  and  C_19
    6  A    between atoms: S_8  and  C_11
    7  A    between atoms: S_8  and  C_17
    8  A    between atoms: C_15  and  C_22
    9  A    between atoms: C_17  and  C_24
   10  A    between atoms: C_21  and  C_23
                            x       y       z     vdW  Elec       q    Type
                         _______ _______ _______ _____ _____    ______ ____

>  <TORSDO>
F 10

$$$$
=
 OpenBabel11062419583D

 28 29  0  0  1  0  0  0  0  0999 V2000
  190.8580  175.3100  147.4460 C   0  0  0  0  0  2  0  0  0  0  0  0
  188.5670  175.8550  146.8970 C   0  0  0  0  0  2  0  0  0  0  0  0
  189.5830  174.7410  146.8820 C   0  0  0  0  0  2  0  0  0  0  0  0
  188.7100  176.8260  145.7580 C   0  0  0  0  0  0  0  0  0  0  0  0
  191.7340  175.8760  146.3700 C   0  0  0  0  0  0  0  0  0  0  0  0
  191.2880  176.7280  145.4200 C   0  0  0  0  0  0  0  0  0  0  0  0
  189.8850  177.1740  145.2000 C   0  0  0  0  0  3  0  0  0  0  0  0
  185.0710  178.8650  144.4070 C   0  0  2  0  0  3  0  0  0  0  0  0
  186.1400  178.4650  143.4970 N   0  0  0  0  0  2  0  0  0  0  0  0
  184.9910  177.8830  145.5660 C   0  0  0  0  0  2  0  0  0  0  0  0
  186.3560  177.8040  146.2460 C   0  0  0  0  0  2  0  0  0  0  0  0
  187.4650  177.4790  145.2680 C   0  0  0  0  0  0  0  0  0  0  0  0
  187.3330  177.8330  143.9780 C   0  0  0  0  0  3  0  0  0  0  0  0
  183.7460  178.9020  143.6690 C   0  0  0  0  0  2  0  0  0  0  0  0
  183.8310  178.1450  142.5010 O   0  0  0  0  0  1  0  0  0  0  0  0
  193.0940  175.5360  146.3700 O   0  0  0  0  0  0  0  0  0  0  0  0
  193.5700  174.2540  145.9850 C   0  0  0  0  0  1  0  0  0  0  0  0
  192.2720  177.2600  144.4210 C   0  0  0  0  0  2  0  0  0  0  0  0
  191.9110  176.8220  143.0070 C   0  0  0  0  0  2  0  0  0  0  0  0
  192.4250  175.4190  142.7270 C   0  0  1  0  0  3  0  0  0  0  0  0
  191.0650  174.3440  142.3060 S   0  0  0  0  0  0  0  0  0  0  0  0
  191.2650  173.8030  140.9180 O   0  0  0  0  0  0  0  0  0  0  0  0
  189.7720  175.1090  142.3640 O   0  0  0  0  0  0  0  0  0  0  0  0
  191.0120  172.9900  143.4630 C   0  0  0  0  0  2  0  0  0  0  0  0
  189.1060  171.7870  142.7150 O   0  0  0  0  0  1  0  0  0  0  0  0
  189.5770  172.5980  143.7480 C   0  0  0  0  0  2  0  0  0  0  0  0
  193.4020  175.4560  141.6350 C   0  0  0  0  0  0  0  0  0  0  0  0
  194.1750  175.4850  140.7750 N   0  0  0  0  0  0  0  0  0  0  0  0
  3  2  1  0  0  0  0
  3  1  1  0  0  0  0
  4  2  1  0  0  0  0
  5  1  1  0  0  0  0
  6  5  2  0  0  0  0
  7  6  1  0  0  0  0
  7  4  2  0  0  0  0
  8 14  1  6  0  0  0
  8 10  1  0  0  0  0
  9 13  1  0  0  0  0
  9  8  1  0  0  0  0
 10 11  1  0  0  0  0
 12  4  1  0  0  0  0
 12 11  1  0  0  0  0
 13 12  2  0  0  0  0
 15 14  1  0  0  0  0
 16  5  1  0  0  0  0
 17 16  1  0  0  0  0
 18  6  1  0  0  0  0
 19 18  1  0  0  0  0
 20 27  1  6  0  0  0
 20 19  1  0  0  0  0
 21 23  2  0  0  0  0
 21 20  1  0  0  0  0
 21 24  1  0  0  0  0
 22 21  2  0  0  0  0
 24 26  1  0  0  0  0
 25 26  1  0  0  0  0
 28 27  3  0  0  0  0
M  END
>  <MODEL>
2

>  <REMARK>
 VINA RESULT:      -6.0      2.426      6.317
  Name = 
  10 active torsions:
  status: ('A' for Active; 'I' for Inactive)
    1  A    between atoms: C_1  and  C_11
    2  A    between atoms: C_1  and  C_23
    3  A    between atoms: CA_2  and  C_18
    4  A    between atoms: C_4  and  C_11
    5  A    between atoms: O_7  and  C_19
    6  A    between atoms: S_8  and  C_11
    7  A    between atoms: S_8  and  C_17
    8  A    between atoms: C_15  and  C_22
    9  A    between atoms: C_17  and  C_24
   10  A    between atoms: C_21  and  C_23
                            x       y       z     vdW  Elec       q    Type
                         _______ _______ _______ _____ _____    ______ ____

>  <TORSDO>
F 10

$$$$
=
 OpenBabel11062419583D

 28 29  0  0  1  0  0  0  0  0999 V2000
  189.0690  174.9280  146.9470 C   0  0  0  0  0  2  0  0  0  0  0  0
  191.4760  174.8200  146.7390 C   0  0  0  0  0  2  0  0  0  0  0  0
  190.3580  175.2850  147.6380 C   0  0  0  0  0  2  0  0  0  0  0  0
  191.7620  175.7490  145.5920 C   0  0  0  0  0  0  0  0  0  0  0  0
  188.5830  176.0430  146.0720 C   0  0  0  0  0  0  0  0  0  0  0  0
  189.3690  176.6800  145.1760 C   0  0  0  0  0  0  0  0  0  0  0  0
  190.8270  176.4820  144.9570 C   0  0  0  0  0  3  0  0  0  0  0  0
  195.8850  176.0590  144.1320 C   0  0  2  0  0  3  0  0  0  0  0  0
  195.5460  175.5060  145.4390 N   0  0  0  0  0  2  0  0  0  0  0  0
  194.7630  175.7680  143.1470 C   0  0  0  0  0  2  0  0  0  0  0  0
  193.4530  176.3170  143.7080 C   0  0  0  0  0  2  0  0  0  0  0  0
  193.1660  175.8040  145.1030 C   0  0  0  0  0  0  0  0  0  0  0  0
  194.1900  175.4530  145.9000 C   0  0  0  0  0  3  0  0  0  0  0  0
  197.1830  175.4540  143.6310 C   0  0  0  0  0  2  0  0  0  0  0  0
  196.9310  174.2200  143.0310 O   0  0  0  0  0  1  0  0  0  0  0  0
  187.2360  176.4200  146.1610 O   0  0  0  0  0  0  0  0  0  0  0  0
  186.6540  176.9340  147.3510 C   0  0  0  0  0  1  0  0  0  0  0  0
  188.7550  177.7540  144.3270 C   0  0  0  0  0  2  0  0  0  0  0  0
  189.3950  177.7960  142.9450 C   0  0  0  0  0  2  0  0  0  0  0  0
  188.3460  177.6400  141.8560 C   0  0  1  0  0  3  0  0  0  0  0  0
  188.0170  175.9110  141.5690 S   0  0  0  0  0  0  0  0  0  0  0  0
  187.6290  175.7060  140.1310 O   0  0  0  0  0  0  0  0  0  0  0  0
  186.8960  175.4490  142.4590 O   0  0  0  0  0  0  0  0  0  0  0  0
  189.4880  174.9700  141.9210 C   0  0  0  0  0  2  0  0  0  0  0  0
  189.7560  173.4070  143.6890 O   0  0  0  0  0  1  0  0  0  0  0  0
  189.1210  173.6040  142.4630 C   0  0  0  0  0  2  0  0  0  0  0  0
  187.1170  178.3350  142.2470 C   0  0  0  0  0  0  0  0  0  0  0  0
  186.1450  178.8840  142.5550 N   0  0  0  0  0  0  0  0  0  0  0  0
  1  3  1  0  0  0  0
  2  3  1  0  0  0  0
  4  2  1  0  0  0  0
  5 16  1  0  0  0  0
  5  1  1  0  0  0  0
  6  5  2  0  0  0  0
  7  6  1  0  0  0  0
  7  4  2  0  0  0  0
  8 14  1  6  0  0  0
  8  9  1  0  0  0  0
  9 13  1  0  0  0  0
 10 11  1  0  0  0  0
 10  8  1  0  0  0  0
 11 12  1  0  0  0  0
 12  4  1  0  0  0  0
 12 13  2  0  0  0  0
 15 14  1  0  0  0  0
 16 17  1  0  0  0  0
 18  6  1  0  0  0  0
 19 18  1  0  0  0  0
 20 27  1  1  0  0  0
 20 19  1  0  0  0  0
 21 20  1  0  0  0  0
 21 24  1  0  0  0  0
 21 23  2  0  0  0  0
 22 21  2  0  0  0  0
 24 26  1  0  0  0  0
 26 25  1  0  0  0  0
 27 28  3  0  0  0  0
M  END
>  <MODEL>
3

>  <REMARK>
 VINA RESULT:      -6.0      2.637      4.140
  Name = 
  10 active torsions:
  status: ('A' for Active; 'I' for Inactive)
    1  A    between atoms: C_1  and  C_11
    2  A    between atoms: C_1  and  C_23
    3  A    between atoms: CA_2  and  C_18
    4  A    between atoms: C_4  and  C_11
    5  A    between atoms: O_7  and  C_19
    6  A    between atoms: S_8  and  C_11
    7  A    between atoms: S_8  and  C_17
    8  A    between atoms: C_15  and  C_22
    9  A    between atoms: C_17  and  C_24
   10  A    between atoms: C_21  and  C_23
                            x       y       z     vdW  Elec       q    Type
                         _______ _______ _______ _____ _____    ______ ____

>  <TORSDO>
F 10

$$$$
=
 OpenBabel11062419583D

 28 29  0  0  1  0  0  0  0  0999 V2000
  190.8990  175.4100  147.4640 C   0  0  0  0  0  2  0  0  0  0  0  0
  188.5900  176.0130  147.0730 C   0  0  0  0  0  2  0  0  0  0  0  0
  189.5480  174.8490  147.1110 C   0  0  0  0  0  2  0  0  0  0  0  0
  188.6580  176.8150  145.8030 C   0  0  0  0  0  0  0  0  0  0  0  0
  191.6830  175.7770  146.2410 C   0  0  0  0  0  0  0  0  0  0  0  0
  191.1790  176.5210  145.2320 C   0  0  0  0  0  0  0  0  0  0  0  0
  189.7830  177.0170  145.0900 C   0  0  0  0  0  3  0  0  0  0  0  0
  184.9700  178.8500  144.5810 C   0  0  2  0  0  3  0  0  0  0  0  0
  186.0870  178.6180  143.6710 N   0  0  0  0  0  2  0  0  0  0  0  0
  184.9000  177.7240  145.6010 C   0  0  0  0  0  2  0  0  0  0  0  0
  186.2440  177.6170  146.3180 C   0  0  0  0  0  2  0  0  0  0  0  0
  187.4000  177.4700  145.3520 C   0  0  0  0  0  0  0  0  0  0  0  0
  187.2930  177.9820  144.1130 C   0  0  0  0  0  3  0  0  0  0  0  0
  183.6700  178.9240  143.8020 C   0  0  0  0  0  2  0  0  0  0  0  0
  183.7870  178.2030  142.6140 O   0  0  0  0  0  1  0  0  0  0  0  0
  193.0180  175.3590  146.1550 O   0  0  0  0  0  0  0  0  0  0  0  0
  193.3920  174.0160  145.8830 C   0  0  0  0  0  1  0  0  0  0  0  0
  192.0760  176.8580  144.0770 C   0  0  0  0  0  2  0  0  0  0  0  0
  191.5470  176.2650  142.7780 C   0  0  0  0  0  2  0  0  0  0  0  0
  192.0730  174.8530  142.5720 C   0  0  1  0  0  3  0  0  0  0  0  0
  190.7130  173.7040  142.4650 S   0  0  0  0  0  0  0  0  0  0  0  0
  189.9220  173.7450  143.7420 O   0  0  0  0  0  0  0  0  0  0  0  0
  191.2370  172.3120  142.2460 O   0  0  0  0  0  0  0  0  0  0  0  0
  189.6600  174.1690  141.1050 C   0  0  0  0  0  2  0  0  0  0  0  0
  188.1830  176.0140  141.3320 O   0  0  0  0  0  1  0  0  0  0  0  0
  188.3220  174.6570  141.6190 C   0  0  0  0  0  2  0  0  0  0  0  0
  192.8840  174.7990  141.3520 C   0  0  0  0  0  0  0  0  0  0  0  0
  193.5250  174.7550  140.3900 N   0  0  0  0  0  0  0  0  0  0  0  0
  2  3  1  0  0  0  0
  3  1  1  0  0  0  0
  4  2  1  0  0  0  0
  5  1  1  0  0  0  0
  6  5  2  0  0  0  0
  7  6  1  0  0  0  0
  7  4  2  0  0  0  0
  8 14  1  6  0  0  0
  8 10  1  0  0  0  0
  9 13  1  0  0  0  0
  9  8  1  0  0  0  0
 10 11  1  0  0  0  0
 12  4  1  0  0  0  0
 12 11  1  0  0  0  0
 13 12  2  0  0  0  0
 15 14  1  0  0  0  0
 16  5  1  0  0  0  0
 17 16  1  0  0  0  0
 18  6  1  0  0  0  0
 19 18  1  0  0  0  0
 20 27  1  6  0  0  0
 20 19  1  0  0  0  0
 21 20  1  0  0  0  0
 21 22  2  0  0  0  0
 23 21  2  0  0  0  0
 24 26  1  0  0  0  0
 24 21  1  0  0  0  0
 25 26  1  0  0  0  0
 28 27  3  0  0  0  0
M  END
>  <MODEL>
4

>  <REMARK>
 VINA RESULT:      -5.9      2.302      6.330
  Name = 
  10 active torsions:
  status: ('A' for Active; 'I' for Inactive)
    1  A    between atoms: C_1  and  C_11
    2  A    between atoms: C_1  and  C_23
    3  A    between atoms: CA_2  and  C_18
    4  A    between atoms: C_4  and  C_11
    5  A    between atoms: O_7  and  C_19
    6  A    between atoms: S_8  and  C_11
    7  A    between atoms: S_8  and  C_17
    8  A    between atoms: C_15  and  C_22
    9  A    between atoms: C_17  and  C_24
   10  A    between atoms: C_21  and  C_23
                            x       y       z     vdW  Elec       q    Type
                         _______ _______ _______ _____ _____    ______ ____

>  <TORSDO>
F 10

$$$$
=
 OpenBabel11062419583D

 28 29  0  0  1  0  0  0  0  0999 V2000
  192.2840  175.6530  146.8580 C   0  0  0  0  0  2  0  0  0  0  0  0
  190.2250  176.8500  147.2740 C   0  0  0  0  0  2  0  0  0  0  0  0
  191.1110  175.7480  147.7960 C   0  0  0  0  0  2  0  0  0  0  0  0
  189.3500  176.4340  146.1240 C   0  0  0  0  0  0  0  0  0  0  0  0
  192.0300  174.6730  145.7520 C   0  0  0  0  0  0  0  0  0  0  0  0
  190.9040  174.6730  145.0050 C   0  0  0  0  0  0  0  0  0  0  0  0
  189.7040  175.5350  145.1860 C   0  0  0  0  0  3  0  0  0  0  0  0
  185.5020  178.5230  145.8750 C   0  0  2  0  0  3  0  0  0  0  0  0
  186.4740  178.5190  144.7870 N   0  0  0  0  0  2  0  0  0  0  0  0
  185.5950  177.2170  146.6490 C   0  0  0  0  0  2  0  0  0  0  0  0
  187.0320  177.0240  147.1300 C   0  0  0  0  0  2  0  0  0  0  0  0
  188.0330  177.1150  145.9980 C   0  0  0  0  0  0  0  0  0  0  0  0
  187.7380  177.8560  144.9150 C   0  0  0  0  0  3  0  0  0  0  0  0
  184.1010  178.6980  145.3210 C   0  0  0  0  0  2  0  0  0  0  0  0
  184.1620  178.9940  143.9600 O   0  0  0  0  0  1  0  0  0  0  0  0
  193.0270  173.7350  145.4520 O   0  0  0  0  0  0  0  0  0  0  0  0
  194.4020  174.0750  145.3450 C   0  0  0  0  0  1  0  0  0  0  0  0
  190.7840  173.6680  143.8980 C   0  0  0  0  0  2  0  0  0  0  0  0
  191.0040  174.3180  142.5380 C   0  0  0  0  0  2  0  0  0  0  0  0
  190.3050  173.5300  141.4410 C   0  0  1  0  0  3  0  0  0  0  0  0
  188.6830  174.2070  141.1410 S   0  0  0  0  0  0  0  0  0  0  0  0
  187.6560  173.3890  141.8730 O   0  0  0  0  0  0  0  0  0  0  0  0
  188.3830  174.1840  139.6680 O   0  0  0  0  0  0  0  0  0  0  0  0
  188.6310  175.8860  141.7360 C   0  0  0  0  0  2  0  0  0  0  0  0
  186.3650  176.5580  141.9610 O   0  0  0  0  0  1  0  0  0  0  0  0
  187.4690  176.6290  141.1120 C   0  0  0  0  0  2  0  0  0  0  0  0
  191.1080  173.5670  140.2150 C   0  0  0  0  0  0  0  0  0  0  0  0
  191.7430  173.5970  139.2480 N   0  0  0  0  0  0  0  0  0  0  0  0
  1  3  1  0  0  0  0
  2  3  1  0  0  0  0
  4  2  1  0  0  0  0
  5  1  1  0  0  0  0
  6  7  1  0  0  0  0
  6  5  2  0  0  0  0
  7  4  2  0  0  0  0
  8 14  1  6  0  0  0
  8 10  1  0  0  0  0
  9 13  1  0  0  0  0
  9  8  1  0  0  0  0
 10 11  1  0  0  0  0
 12  4  1  0  0  0  0
 12 11  1  0  0  0  0
 13 12  2  0  0  0  0
 15 14  1  0  0  0  0
 16  5  1  0  0  0  0
 17 16  1  0  0  0  0
 18  6  1  0  0  0  0
 19 18  1  0  0  0  0
 20 27  1  6  0  0  0
 20 19  1  0  0  0  0
 21 20  1  0  0  0  0
 21 24  1  0  0  0  0
 21 22  2  0  0  0  0
 23 21  2  0  0  0  0
 26 24  1  0  0  0  0
 26 25  1  0  0  0  0
 28 27  3  0  0  0  0
M  END
>  <MODEL>
5

>  <REMARK>
 VINA RESULT:      -5.9      2.326      6.286
  Name = 
  10 active torsions:
  status: ('A' for Active; 'I' for Inactive)
    1  A    between atoms: C_1  and  C_11
    2  A    between atoms: C_1  and  C_23
    3  A    between atoms: CA_2  and  C_18
    4  A    between atoms: C_4  and  C_11
    5  A    between atoms: O_7  and  C_19
    6  A    between atoms: S_8  and  C_11
    7  A    between atoms: S_8  and  C_17
    8  A    between atoms: C_15  and  C_22
    9  A    between atoms: C_17  and  C_24
   10  A    between atoms: C_21  and  C_23
                            x       y       z     vdW  Elec       q    Type
                         _______ _______ _______ _____ _____    ______ ____

>  <TORSDO>
F 10

$$$$
=
 OpenBabel11062419583D

 28 29  0  0  1  0  0  0  0  0999 V2000
  192.5800  176.4560  147.0420 C   0  0  0  0  0  2  0  0  0  0  0  0
  190.1970  176.6960  147.3730 C   0  0  0  0  0  2  0  0  0  0  0  0
  191.3370  175.7130  147.4540 C   0  0  0  0  0  2  0  0  0  0  0  0
  189.6780  176.9140  145.9790 C   0  0  0  0  0  0  0  0  0  0  0  0
  192.8290  176.3440  145.5690 C   0  0  0  0  0  0  0  0  0  0  0  0
  191.8800  176.5780  144.6350 C   0  0  0  0  0  0  0  0  0  0  0  0
  190.4430  176.8810  144.8700 C   0  0  0  0  0  3  0  0  0  0  0  0
  185.4090  177.7780  145.4720 C   0  0  2  0  0  3  0  0  0  0  0  0
  186.0050  177.4570  146.7640 N   0  0  0  0  0  2  0  0  0  0  0  0
  186.4270  178.5050  144.6060 C   0  0  0  0  0  2  0  0  0  0  0  0
  187.6840  177.6460  144.4880 C   0  0  0  0  0  2  0  0  0  0  0  0
  188.2340  177.2450  145.8410 C   0  0  0  0  0  0  0  0  0  0  0  0
  187.3980  177.1430  146.8880 C   0  0  0  0  0  3  0  0  0  0  0  0
  184.1810  178.6480  145.6660 C   0  0  0  0  0  2  0  0  0  0  0  0
  183.6890  179.0590  144.4280 O   0  0  0  0  0  1  0  0  0  0  0  0
  194.1210  176.0160  145.1350 O   0  0  0  0  0  0  0  0  0  0  0  0
  194.7360  174.7660  145.4140 C   0  0  0  0  0  1  0  0  0  0  0  0
  192.2630  176.4740  143.1880 C   0  0  0  0  0  2  0  0  0  0  0  0
  191.3470  175.5100  142.4450 C   0  0  0  0  0  2  0  0  0  0  0  0
  191.5690  174.0810  142.9130 C   0  0  1  0  0  3  0  0  0  0  0  0
  190.0280  173.3710  143.4610 S   0  0  0  0  0  0  0  0  0  0  0  0
  189.9520  173.4350  144.9610 O   0  0  0  0  0  0  0  0  0  0  0  0
  189.9390  171.9370  143.0170 O   0  0  0  0  0  0  0  0  0  0  0  0
  188.6770  174.2990  142.7630 C   0  0  0  0  0  2  0  0  0  0  0  0
  188.5470  174.5440  140.4050 O   0  0  0  0  0  1  0  0  0  0  0  0
  188.2350  173.6790  141.4530 C   0  0  0  0  0  2  0  0  0  0  0  0
  192.1400  173.2840  141.8230 C   0  0  0  0  0  0  0  0  0  0  0  0
  192.5890  172.6550  140.9620 N   0  0  0  0  0  0  0  0  0  0  0  0
  1  3  1  0  0  0  0
  2  3  1  0  0  0  0
  4  2  1  0  0  0  0
  5  1  1  0  0  0  0
  6  7  1  0  0  0  0
  6  5  2  0  0  0  0
  7  4  2  0  0  0  0
  8 14  1  1  0  0  0
  8  9  1  0  0  0  0
  9 13  1  0  0  0  0
 10  8  1  0  0  0  0
 11 10  1  0  0  0  0
 11 12  1  0  0  0  0
 12  4  1  0  0  0  0
 12 13  2  0  0  0  0
 15 14  1  0  0  0  0
 16 17  1  0  0  0  0
 16  5  1  0  0  0  0
 18  6  1  0  0  0  0
 19 20  1  0  0  0  0
 19 18  1  0  0  0  0
 20 27  1  6  0  0  0
 20 21  1  0  0  0  0
 21 22  2  0  0  0  0
 23 21  2  0  0  0  0
 24 21  1  0  0  0  0
 25 26  1  0  0  0  0
 26 24  1  0  0  0  0
 28 27  3  0  0  0  0
M  END
>  <MODEL>
6

>  <REMARK>
 VINA RESULT:      -5.9      2.435      6.419
  Name = 
  10 active torsions:
  status: ('A' for Active; 'I' for Inactive)
    1  A    between atoms: C_1  and  C_11
    2  A    between atoms: C_1  and  C_23
    3  A    between atoms: CA_2  and  C_18
    4  A    between atoms: C_4  and  C_11
    5  A    between atoms: O_7  and  C_19
    6  A    between atoms: S_8  and  C_11
    7  A    between atoms: S_8  and  C_17
    8  A    between atoms: C_15  and  C_22
    9  A    between atoms: C_17  and  C_24
   10  A    between atoms: C_21  and  C_23
                            x       y       z     vdW  Elec       q    Type
                         _______ _______ _______ _____ _____    ______ ____

>  <TORSDO>
F 10

$$$$
=
 OpenBabel11062419583D

 28 29  0  0  1  0  0  0  0  0999 V2000
  186.2650  176.8470  146.6440 C   0  0  0  0  0  2  0  0  0  0  0  0
  188.6440  176.6110  147.0030 C   0  0  0  0  0  2  0  0  0  0  0  0
  187.4430  177.4480  147.3620 C   0  0  0  0  0  2  0  0  0  0  0  0
  189.2260  176.9280  145.6530 C   0  0  0  0  0  0  0  0  0  0  0  0
  186.0630  177.4660  145.2950 C   0  0  0  0  0  0  0  0  0  0  0  0
  187.0590  177.6230  144.3940 C   0  0  0  0  0  0  0  0  0  0  0  0
  188.5020  177.3200  144.5870 C   0  0  0  0  0  3  0  0  0  0  0  0
  193.5210  176.2040  145.1400 C   0  0  2  0  0  3  0  0  0  0  0  0
  192.7780  177.1690  144.3360 N   0  0  0  0  0  2  0  0  0  0  0  0
  192.9090  176.1170  146.5300 C   0  0  0  0  0  2  0  0  0  0  0  0
  191.4270  175.7720  146.4000 C   0  0  0  0  0  2  0  0  0  0  0  0
  190.6920  176.7320  145.4880 C   0  0  0  0  0  0  0  0  0  0  0  0
  191.3660  177.3540  144.5060 C   0  0  0  0  0  3  0  0  0  0  0  0
  194.9760  176.6220  145.2410 C   0  0  0  0  0  2  0  0  0  0  0  0
  195.0650  177.9090  145.7700 O   0  0  0  0  0  1  0  0  0  0  0  0
  184.7710  177.8700  144.9330 O   0  0  0  0  0  0  0  0  0  0  0  0
  184.0450  178.8640  145.6430 C   0  0  0  0  0  1  0  0  0  0  0  0
  186.7240  178.2200  143.0590 C   0  0  0  0  0  2  0  0  0  0  0  0
  186.3450  177.1400  142.0530 C   0  0  0  0  0  2  0  0  0  0  0  0
  187.4890  176.8700  141.0890 C   0  0  1  0  0  3  0  0  0  0  0  0
  188.1580  175.2420  141.3760 S   0  0  0  0  0  0  0  0  0  0  0  0
  188.1910  174.4790  140.0810 O   0  0  0  0  0  0  0  0  0  0  0  0
  187.3020  174.5050  142.3680 O   0  0  0  0  0  0  0  0  0  0  0  0
  189.8160  175.3950  142.0110 C   0  0  0  0  0  2  0  0  0  0  0  0
  190.3720  173.1490  142.5430 O   0  0  0  0  0  1  0  0  0  0  0  0
  190.6360  174.1770  141.6390 C   0  0  0  0  0  2  0  0  0  0  0  0
  187.0150  176.9920  139.7080 C   0  0  0  0  0  0  0  0  0  0  0  0
  186.6390  177.0870  138.6180 N   0  0  0  0  0  0  0  0  0  0  0  0
  1  3  1  0  0  0  0
  2  3  1  0  0  0  0
  4  2  1  0  0  0  0
  5  1  1  0  0  0  0
  6  7  1  0  0  0  0
  6  5  2  0  0  0  0
  7  4  2  0  0  0  0
  8 14  1  1  0  0  0
  8 10  1  0  0  0  0
  9 13  1  0  0  0  0
  9  8  1  0  0  0  0
 11 10  1  0  0  0  0
 12  4  1  0  0  0  0
 12 11  1  0  0  0  0
 13 12  2  0  0  0  0
 14 15  1  0  0  0  0
 16  5  1  0  0  0  0
 16 17  1  0  0  0  0
 18  6  1  0  0  0  0
 19 18  1  0  0  0  0
 20 27  1  6  0  0  0
 20 21  1  0  0  0  0
 20 19  1  0  0  0  0
 21 24  1  0  0  0  0
 21 23  2  0  0  0  0
 22 21  2  0  0  0  0
 26 24  1  0  0  0  0
 26 25  1  0  0  0  0
 28 27  3  0  0  0  0
M  END
>  <MODEL>
7

>  <REMARK>
 VINA RESULT:      -5.8      1.788      2.273
  Name = 
  10 active torsions:
  status: ('A' for Active; 'I' for Inactive)
    1  A    between atoms: C_1  and  C_11
    2  A    between atoms: C_1  and  C_23
    3  A    between atoms: CA_2  and  C_18
    4  A    between atoms: C_4  and  C_11
    5  A    between atoms: O_7  and  C_19
    6  A    between atoms: S_8  and  C_11
    7  A    between atoms: S_8  and  C_17
    8  A    between atoms: C_15  and  C_22
    9  A    between atoms: C_17  and  C_24
   10  A    between atoms: C_21  and  C_23
                            x       y       z     vdW  Elec       q    Type
                         _______ _______ _______ _____ _____    ______ ____

>  <TORSDO>
F 10

$$$$
=
 OpenBabel11062419583D

 28 29  0  0  1  0  0  0  0  0999 V2000
  192.1560  175.5280  146.8750 C   0  0  0  0  0  2  0  0  0  0  0  0
  190.1060  176.7660  147.2110 C   0  0  0  0  0  2  0  0  0  0  0  0
  190.9640  175.6650  147.7830 C   0  0  0  0  0  2  0  0  0  0  0  0
  189.2510  176.3320  146.0530 C   0  0  0  0  0  0  0  0  0  0  0  0
  191.9120  174.5230  145.7900 C   0  0  0  0  0  0  0  0  0  0  0  0
  190.8030  174.5190  145.0170 C   0  0  0  0  0  0  0  0  0  0  0  0
  189.6130  175.4030  145.1470 C   0  0  0  0  0  3  0  0  0  0  0  0
  185.4390  178.4630  145.6660 C   0  0  2  0  0  3  0  0  0  0  0  0
  186.4670  178.4830  144.6300 N   0  0  0  0  0  2  0  0  0  0  0  0
  185.4800  177.1330  146.4030 C   0  0  0  0  0  2  0  0  0  0  0  0
  186.8880  176.9130  146.9530 C   0  0  0  0  0  2  0  0  0  0  0  0
  187.9480  177.0290  145.8790 C   0  0  0  0  0  0  0  0  0  0  0  0
  187.7170  177.8040  144.8050 C   0  0  0  0  0  3  0  0  0  0  0  0
  184.0700  178.6670  145.0440 C   0  0  0  0  0  2  0  0  0  0  0  0
  184.1120  178.3510  143.6870 O   0  0  0  0  0  1  0  0  0  0  0  0
  192.9010  173.5620  145.5370 O   0  0  0  0  0  0  0  0  0  0  0  0
  194.1970  173.8940  145.0580 C   0  0  0  0  0  1  0  0  0  0  0  0
  190.6930  173.4860  143.9340 C   0  0  0  0  0  2  0  0  0  0  0  0
  189.4060  173.6600  143.1370 C   0  0  0  0  0  2  0  0  0  0  0  0
  189.6850  174.3130  141.7930 C   0  0  1  0  0  3  0  0  0  0  0  0
  189.7650  173.0700  140.5160 S   0  0  0  0  0  0  0  0  0  0  0  0
  190.0730  171.7350  141.1340 O   0  0  0  0  0  0  0  0  0  0  0  0
  190.8410  173.4230  139.5260 O   0  0  0  0  0  0  0  0  0  0  0  0
  188.1920  172.9850  139.6840 C   0  0  0  0  0  2  0  0  0  0  0  0
  187.9400  174.5380  137.9060 O   0  0  0  0  0  1  0  0  0  0  0  0
  188.3650  173.2440  138.2020 C   0  0  0  0  0  2  0  0  0  0  0  0
  188.6370  175.2910  141.4890 C   0  0  0  0  0  0  0  0  0  0  0  0
  187.8100  176.0640  141.2490 N   0  0  0  0  0  0  0  0  0  0  0  0
  1  3  1  0  0  0  0
  2  3  1  0  0  0  0
  4  2  1  0  0  0  0
  5  1  1  0  0  0  0
  6  7  1  0  0  0  0
  6  5  2  0  0  0  0
  7  4  2  0  0  0  0
  8 14  1  6  0  0  0
  8 10  1  0  0  0  0
  9 13  1  0  0  0  0
  9  8  1  0  0  0  0
 10 11  1  0  0  0  0
 12  4  1  0  0  0  0
 12 11  1  0  0  0  0
 13 12  2  0  0  0  0
 15 14  1  0  0  0  0
 16  5  1  0  0  0  0
 17 16  1  0  0  0  0
 18  6  1  0  0  0  0
 19 18  1  0  0  0  0
 20 27  1  6  0  0  0
 20 19  1  0  0  0  0
 21 22  2  0  0  0  0
 21 20  1  0  0  0  0
 23 21  2  0  0  0  0
 24 21  1  0  0  0  0
 25 26  1  0  0  0  0
 26 24  1  0  0  0  0
 28 27  3  0  0  0  0
M  END
>  <MODEL>
8

>  <REMARK>
 VINA RESULT:      -5.8      2.357      6.246
  Name = 
  10 active torsions:
  status: ('A' for Active; 'I' for Inactive)
    1  A    between atoms: C_1  and  C_11
    2  A    between atoms: C_1  and  C_23
    3  A    between atoms: CA_2  and  C_18
    4  A    between atoms: C_4  and  C_11
    5  A    between atoms: O_7  and  C_19
    6  A    between atoms: S_8  and  C_11
    7  A    between atoms: S_8  and  C_17
    8  A    between atoms: C_15  and  C_22
    9  A    between atoms: C_17  and  C_24
   10  A    between atoms: C_21  and  C_23
                            x       y       z     vdW  Elec       q    Type
                         _______ _______ _______ _____ _____    ______ ____

>  <TORSDO>
F 10

$$$$
=
 OpenBabel11062419583D

 28 29  0  0  1  0  0  0  0  0999 V2000
  192.0880  175.4010  146.5210 C   0  0  0  0  0  2  0  0  0  0  0  0
  190.1560  176.7790  146.9890 C   0  0  0  0  0  2  0  0  0  0  0  0
  191.0000  175.6530  147.5310 C   0  0  0  0  0  2  0  0  0  0  0  0
  189.1690  176.3490  145.9400 C   0  0  0  0  0  0  0  0  0  0  0  0
  191.6820  174.3680  145.5160 C   0  0  0  0  0  0  0  0  0  0  0  0
  190.5040  174.3990  144.8530 C   0  0  0  0  0  0  0  0  0  0  0  0
  189.3860  175.3600  145.0520 C   0  0  0  0  0  3  0  0  0  0  0  0
  185.4720  178.7040  145.8040 C   0  0  2  0  0  3  0  0  0  0  0  0
  186.3430  178.5280  144.6460 N   0  0  0  0  0  2  0  0  0  0  0  0
  185.5380  177.4670  146.6860 C   0  0  0  0  0  2  0  0  0  0  0  0
  186.9940  177.2060  147.0680 C   0  0  0  0  0  2  0  0  0  0  0  0
  187.8970  177.1180  145.8560 C   0  0  0  0  0  0  0  0  0  0  0  0
  187.5640  177.7820  144.7360 C   0  0  0  0  0  3  0  0  0  0  0  0
  184.0440  178.9390  145.3490 C   0  0  0  0  0  2  0  0  0  0  0  0
  184.0140  179.1660  143.9730 O   0  0  0  0  0  1  0  0  0  0  0  0
  192.5830  173.3360  145.2180 O   0  0  0  0  0  0  0  0  0  0  0  0
  193.9750  173.4250  145.4880 C   0  0  0  0  0  1  0  0  0  0  0  0
  190.2280  173.3290  143.8380 C   0  0  0  0  0  2  0  0  0  0  0  0
  190.7130  173.7440  142.4550 C   0  0  0  0  0  2  0  0  0  0  0  0
  190.1730  172.8070  141.3870 C   0  0  1  0  0  3  0  0  0  0  0  0
  188.5630  173.3540  140.8510 S   0  0  0  0  0  0  0  0  0  0  0  0
  188.4890  174.8530  140.9380 O   0  0  0  0  0  0  0  0  0  0  0  0
  187.5000  172.7500  141.7270 O   0  0  0  0  0  0  0  0  0  0  0  0
  188.3060  172.8480  139.1630 C   0  0  0  0  0  2  0  0  0  0  0  0
  189.3210  174.1230  137.4360 O   0  0  0  0  0  1  0  0  0  0  0  0
  188.1980  174.0610  138.2610 C   0  0  0  0  0  2  0  0  0  0  0  0
  191.1000  172.7600  140.2530 C   0  0  0  0  0  0  0  0  0  0  0  0
  191.8320  172.7220  139.3570 N   0  0  0  0  0  0  0  0  0  0  0  0
  1  3  1  0  0  0  0
  2  3  1  0  0  0  0
  4  2  1  0  0  0  0
  5  1  1  0  0  0  0
  6  7  1  0  0  0  0
  6  5  2  0  0  0  0
  7  4  2  0  0  0  0
  8 14  1  6  0  0  0
  8 10  1  0  0  0  0
  9 13  1  0  0  0  0
  9  8  1  0  0  0  0
 10 11  1  0  0  0  0
 12  4  1  0  0  0  0
 12 11  1  0  0  0  0
 13 12  2  0  0  0  0
 15 14  1  0  0  0  0
 16 17  1  0  0  0  0
 16  5  1  0  0  0  0
 18  6  1  0  0  0  0
 19 18  1  0  0  0  0
 20 27  1  6  0  0  0
 20 19  1  0  0  0  0
 21 22  2  0  0  0  0
 21 20  1  0  0  0  0
 21 23  2  0  0  0  0
 24 21  1  0  0  0  0
 25 26  1  0  0  0  0
 26 24  1  0  0  0  0
 28 27  3  0  0  0  0
M  END
>  <MODEL>
9

>  <REMARK>
 VINA RESULT:      -5.7      2.780      6.456
  Name = 
  10 active torsions:
  status: ('A' for Active; 'I' for Inactive)
    1  A    between atoms: C_1  and  C_11
    2  A    between atoms: C_1  and  C_23
    3  A    between atoms: CA_2  and  C_18
    4  A    between atoms: C_4  and  C_11
    5  A    between atoms: O_7  and  C_19
    6  A    between atoms: S_8  and  C_11
    7  A    between atoms: S_8  and  C_17
    8  A    between atoms: C_15  and  C_22
    9  A    between atoms: C_17  and  C_24
   10  A    between atoms: C_21  and  C_23
                            x       y       z     vdW  Elec       q    Type
                         _______ _______ _______ _____ _____    ______ ____

>  <TORSDO>
F 10

$$$$
