=
 OpenBabel11072408343D

 26 30  0  0  1  0  0  0  0  0999 V2000
  190.7280  177.1420  144.3390 C   0  0  0  0  0  0  0  0  0  0  0  0
  187.1010  176.0920  147.4000 C   0  0  0  0  0  3  0  0  0  0  0  0
  188.0380  177.4340  145.1620 C   0  0  0  0  0  0  0  0  0  0  0  0
  190.0930  175.9910  145.0830 C   0  0  0  0  0  2  0  0  0  0  0  0
  188.8000  176.3980  145.7210 C   0  0  0  0  0  0  0  0  0  0  0  0
  188.5340  178.1460  143.9350 C   0  0  1  0  0  3  0  0  0  0  0  0
  186.3770  177.1030  146.8450 N   0  0  0  0  0  0  0  0  0  0  0  0
  192.1450  177.1840  144.1450 N   0  0  0  0  0  2  0  0  0  0  0  0
  189.9980  178.1000  143.8440 N   0  0  0  0  0  0  0  0  0  0  0  0
  186.8160  177.7740  145.7450 C   0  0  0  0  0  3  0  0  0  0  0  0
  188.3260  175.7170  146.8440 C   0  0  0  0  0  3  0  0  0  0  0  0
  197.0570  175.5230  143.3480 O   0  0  0  0  0  0  0  0  0  0  0  0
  195.5590  176.1010  145.2040 C   0  0  1  0  0  3  0  0  0  0  0  0
  195.8510  176.0260  143.7080 C   0  0  2  0  0  0  0  0  0  0  0  0
  194.7350  175.8870  142.6860 C   0  0  0  0  0  2  0  0  0  0  0  0
  194.1850  176.7430  145.4190 C   0  0  0  0  0  2  0  0  0  0  0  0
  193.0450  176.1250  144.5800 C   0  0  2  0  0  3  0  0  0  0  0  0
  196.9060  176.9040  143.2840 N   0  0  0  0  0  2  0  0  0  0  0  0
  193.5100  175.2920  143.3700 C   0  0  0  0  0  2  0  0  0  0  0  0
  195.6020  174.7200  145.8360 C   0  0  0  0  0  1  0  0  0  0  0  0
  187.4050  176.2570  140.6850 S   0  0  0  0  0  0  0  0  0  0  0  0
  186.0230  179.2040  142.7090 N   0  0  0  0  0  1  0  0  0  0  0  0
  187.9080  177.5870  142.6890 C   0  0  0  0  0  0  0  0  0  0  0  0
  188.4450  176.5150  141.9800 C   0  0  0  0  0  3  0  0  0  0  0  0
  186.7220  178.1010  142.1410 C   0  0  0  0  0  0  0  0  0  0  0  0
  186.2800  177.4670  140.9880 C   0  0  0  0  0  3  0  0  0  0  0  0
  1  4  1  0  0  0  0
  3  5  2  0  0  0  0
  3 10  1  0  0  0  0
  4  5  1  0  0  0  0
  5 11  1  0  0  0  0
  6 23  1  6  0  0  0
  6  3  1  0  0  0  0
  7  2  1  0  0  0  0
  8  1  1  0  0  0  0
  9  6  1  0  0  0  0
  9  1  2  0  0  0  0
 10  7  2  0  0  0  0
 11  2  2  0  0  0  0
 12 14  1  0  0  0  0
 13 16  1  0  0  0  0
 13 20  1  6  0  0  0
 14 15  1  6  0  0  0
 14 13  1  0  0  0  0
 15 19  1  0  0  0  0
 17  8  1  6  0  0  0
 17 16  1  0  0  0  0
 18 12  1  0  0  0  0
 18 14  1  0  0  0  0
 19 17  1  0  0  0  0
 21 26  1  0  0  0  0
 21 24  1  0  0  0  0
 24 23  2  0  0  0  0
 25 23  1  0  0  0  0
 25 22  1  0  0  0  0
 26 25  2  0  0  0  0
M  END
>  <MODEL>
1

>  <REMARK>
 VINA RESULT:      -7.1      0.000      0.000
  Name = 
  2 active torsions:
  status: ('A' for Active; 'I' for Inactive)
    1  A    between atoms: C_6  and  C_17
    2  A    between atoms: C_14  and  N_21
                            x       y       z     vdW  Elec       q    Type
                         _______ _______ _______ _____ _____    ______ ____

>  <TORSDO>
F 2

$$$$
=
 OpenBabel11072408343D

 26 30  0  0  1  0  0  0  0  0999 V2000
  192.5700  175.6180  145.1450 C   0  0  0  0  0  0  0  0  0  0  0  0
  195.5090  176.4610  141.3660 C   0  0  0  0  0  3  0  0  0  0  0  0
  195.1440  175.5910  143.9720 C   0  0  0  0  0  0  0  0  0  0  0  0
  192.6560  175.4610  143.6440 C   0  0  0  0  0  2  0  0  0  0  0  0
  194.0310  175.7760  143.1390 C   0  0  0  0  0  0  0  0  0  0  0  0
  194.9490  175.0960  145.3780 C   0  0  1  0  0  3  0  0  0  0  0  0
  196.5770  176.2790  142.1910 N   0  0  0  0  0  0  0  0  0  0  0  0
  191.3190  175.9240  145.7690 N   0  0  0  0  0  2  0  0  0  0  0  0
  193.6230  175.4570  145.8930 N   0  0  0  0  0  0  0  0  0  0  0  0
  196.4220  175.8510  143.4730 C   0  0  0  0  0  3  0  0  0  0  0  0
  194.2140  176.2070  141.8250 C   0  0  0  0  0  3  0  0  0  0  0  0
  186.3020  177.2140  146.5960 O   0  0  0  0  0  0  0  0  0  0  0  0
  188.1540  177.7860  145.0900 C   0  0  1  0  0  3  0  0  0  0  0  0
  187.6180  177.0480  146.3140 C   0  0  2  0  0  0  0  0  0  0  0  0
  188.2510  175.7560  146.8050 C   0  0  0  0  0  2  0  0  0  0  0  0
  189.6580  177.5270  144.9640 C   0  0  0  0  0  2  0  0  0  0  0  0
  190.0660  176.0390  145.0370 C   0  0  2  0  0  3  0  0  0  0  0  0
  187.2080  177.9230  147.3780 N   0  0  0  0  0  2  0  0  0  0  0  0
  189.0040  175.1060  145.6510 C   0  0  0  0  0  2  0  0  0  0  0  0
  187.4330  177.3410  143.8290 C   0  0  0  0  0  1  0  0  0  0  0  0
  194.8810  171.1730  145.4490 S   0  0  0  0  0  0  0  0  0  0  0  0
  197.5600  173.8360  146.0990 N   0  0  0  0  0  1  0  0  0  0  0  0
  195.1670  173.6130  145.4710 C   0  0  0  0  0  0  0  0  0  0  0  0
  194.1640  172.6780  145.2300 C   0  0  0  0  0  3  0  0  0  0  0  0
  196.4100  173.0490  145.8040 C   0  0  0  0  0  0  0  0  0  0  0  0
  196.4380  171.6630  145.8430 C   0  0  0  0  0  3  0  0  0  0  0  0
  1  8  1  0  0  0  0
  1  9  2  0  0  0  0
  2 11  2  0  0  0  0
  2  7  1  0  0  0  0
  3  6  1  0  0  0  0
  4  1  1  0  0  0  0
  5  4  1  0  0  0  0
  5  3  2  0  0  0  0
  6 23  1  6  0  0  0
  6  9  1  0  0  0  0
  7 10  2  0  0  0  0
 10  3  1  0  0  0  0
 11  5  1  0  0  0  0
 12 18  1  0  0  0  0
 13 20  1  6  0  0  0
 13 14  1  0  0  0  0
 14 12  1  0  0  0  0
 14 15  1  1  0  0  0
 14 18  1  0  0  0  0
 16 17  1  0  0  0  0
 16 13  1  0  0  0  0
 17 19  1  0  0  0  0
 17  8  1  1  0  0  0
 19 15  1  0  0  0  0
 21 26  1  0  0  0  0
 23 25  1  0  0  0  0
 24 21  1  0  0  0  0
 24 23  2  0  0  0  0
 25 26  2  0  0  0  0
 25 22  1  0  0  0  0
M  END
>  <MODEL>
2

>  <REMARK>
 VINA RESULT:      -7.0      3.471      8.444
  Name = 
  2 active torsions:
  status: ('A' for Active; 'I' for Inactive)
    1  A    between atoms: C_6  and  C_17
    2  A    between atoms: C_14  and  N_21
                            x       y       z     vdW  Elec       q    Type
                         _______ _______ _______ _____ _____    ______ ____

>  <TORSDO>
F 2

$$$$
=
 OpenBabel11072408343D

 26 30  0  0  1  0  0  0  0  0999 V2000
  189.5110  175.2290  145.9220 C   0  0  0  0  0  0  0  0  0  0  0  0
  194.3210  175.8200  146.3050 C   0  0  0  0  0  3  0  0  0  0  0  0
  192.1490  174.3090  145.4780 C   0  0  0  0  0  0  0  0  0  0  0  0
  190.5990  176.2660  145.7710 C   0  0  0  0  0  2  0  0  0  0  0  0
  191.9610  175.6460  145.8570 C   0  0  0  0  0  0  0  0  0  0  0  0
  190.9760  173.4960  145.0060 C   0  0  1  0  0  3  0  0  0  0  0  0
  194.4830  174.5200  145.9370 N   0  0  0  0  0  0  0  0  0  0  0  0
  188.2250  175.5990  146.4260 N   0  0  0  0  0  2  0  0  0  0  0  0
  189.7180  173.9900  145.5780 N   0  0  0  0  0  0  0  0  0  0  0  0
  193.4320  173.7590  145.5250 C   0  0  0  0  0  3  0  0  0  0  0  0
  193.0550  176.4100  146.2670 C   0  0  0  0  0  3  0  0  0  0  0  0
  184.9620  179.3790  144.8160 O   0  0  0  0  0  0  0  0  0  0  0  0
  185.5840  178.2010  146.8770 C   0  0  1  0  0  3  0  0  0  0  0  0
  185.6840  178.3700  145.3640 C   0  0  2  0  0  0  0  0  0  0  0  0
  186.9220  177.9380  144.5950 C   0  0  0  0  0  2  0  0  0  0  0  0
  186.4150  176.9880  147.3050 C   0  0  0  0  0  2  0  0  0  0  0  0
  187.8590  176.9680  146.7590 C   0  0  2  0  0  3  0  0  0  0  0  0
  184.4560  178.0910  144.6720 N   0  0  0  0  0  2  0  0  0  0  0  0
  188.1070  177.8940  145.5520 C   0  0  0  0  0  2  0  0  0  0  0  0
  186.0620  179.4500  147.5980 C   0  0  0  0  0  1  0  0  0  0  0  0
  190.5280  174.0300  141.1440 S   0  0  0  0  0  0  0  0  0  0  0  0
  191.8460  171.1760  143.3360 N   0  0  0  0  0  1  0  0  0  0  0  0
  190.9000  173.4670  143.5060 C   0  0  0  0  0  0  0  0  0  0  0  0
  190.4110  174.5260  142.7460 C   0  0  0  0  0  3  0  0  0  0  0  0
  191.3250  172.3640  142.7470 C   0  0  0  0  0  0  0  0  0  0  0  0
  191.1870  172.5020  141.3740 C   0  0  0  0  0  3  0  0  0  0  0  0
  1  8  1  0  0  0  0
  3 10  2  0  0  0  0
  3  5  1  0  0  0  0
  4  5  1  0  0  0  0
  4  1  1  0  0  0  0
  5 11  2  0  0  0  0
  6 23  1  6  0  0  0
  6  3  1  0  0  0  0
  6  9  1  0  0  0  0
  7  2  2  0  0  0  0
  9  1  2  0  0  0  0
 10  7  1  0  0  0  0
 11  2  1  0  0  0  0
 12 14  1  0  0  0  0
 13 16  1  0  0  0  0
 13 20  1  1  0  0  0
 14 15  1  6  0  0  0
 14 13  1  0  0  0  0
 15 19  1  0  0  0  0
 17  8  1  6  0  0  0
 17 16  1  0  0  0  0
 18 12  1  0  0  0  0
 18 14  1  0  0  0  0
 19 17  1  0  0  0  0
 21 26  1  0  0  0  0
 21 24  1  0  0  0  0
 24 23  2  0  0  0  0
 25 22  1  0  0  0  0
 25 23  1  0  0  0  0
 26 25  2  0  0  0  0
M  END
>  <MODEL>
3

>  <REMARK>
 VINA RESULT:      -6.9      3.688      7.447
  Name = 
  2 active torsions:
  status: ('A' for Active; 'I' for Inactive)
    1  A    between atoms: C_6  and  C_17
    2  A    between atoms: C_14  and  N_21
                            x       y       z     vdW  Elec       q    Type
                         _______ _______ _______ _____ _____    ______ ____

>  <TORSDO>
F 2

$$$$
=
 OpenBabel11072408343D

 26 30  0  0  1  0  0  0  0  0999 V2000
  188.9440  176.8730  143.2420 C   0  0  0  0  0  0  0  0  0  0  0  0
  189.3180  172.6130  140.9280 C   0  0  0  0  0  3  0  0  0  0  0  0
  190.5190  174.8270  142.0870 C   0  0  0  0  0  0  0  0  0  0  0  0
  188.3730  175.4740  143.2210 C   0  0  0  0  0  2  0  0  0  0  0  0
  189.1590  174.5750  142.3170 C   0  0  0  0  0  0  0  0  0  0  0  0
  191.1780  176.0130  142.7330 C   0  0  1  0  0  3  0  0  0  0  0  0
  190.6360  172.8770  140.7140 N   0  0  0  0  0  0  0  0  0  0  0  0
  188.1050  177.9910  143.5420 N   0  0  0  0  0  2  0  0  0  0  0  0
  190.2080  177.0800  143.0070 N   0  0  0  0  0  0  0  0  0  0  0  0
  191.2480  173.9560  141.2740 C   0  0  0  0  0  3  0  0  0  0  0  0
  188.5550  173.4570  141.7400 C   0  0  0  0  0  3  0  0  0  0  0  0
  184.9660  178.5990  147.7020 O   0  0  0  0  0  0  0  0  0  0  0  0
  185.1220  179.3140  145.3590 C   0  0  1  0  0  3  0  0  0  0  0  0
  185.7170  178.6050  146.5730 C   0  0  2  0  0  0  0  0  0  0  0  0
  186.7070  177.4610  146.4200 C   0  0  0  0  0  2  0  0  0  0  0  0
  186.1270  179.2670  144.2050 C   0  0  0  0  0  2  0  0  0  0  0  0
  186.7000  177.8650  143.9030 C   0  0  2  0  0  3  0  0  0  0  0  0
  186.0330  179.4910  147.6590 N   0  0  0  0  0  2  0  0  0  0  0  0
  186.5330  176.8380  145.0400 C   0  0  0  0  0  2  0  0  0  0  0  0
  183.8090  178.6720  144.9440 C   0  0  0  0  0  1  0  0  0  0  0  0
  192.4600  174.9200  146.2780 S   0  0  0  0  0  0  0  0  0  0  0  0
  194.1530  175.8610  142.9700 N   0  0  0  0  0  1  0  0  0  0  0  0
  191.9000  175.6190  143.9900 C   0  0  0  0  0  0  0  0  0  0  0  0
  191.2470  175.2870  145.1740 C   0  0  0  0  0  3  0  0  0  0  0  0
  193.3010  175.5480  144.0680 C   0  0  0  0  0  0  0  0  0  0  0  0
  193.8050  175.1660  145.3030 C   0  0  0  0  0  3  0  0  0  0  0  0
  1  8  1  0  0  0  0
  2 11  1  0  0  0  0
  3  5  1  0  0  0  0
  3  6  1  0  0  0  0
  4  1  1  0  0  0  0
  5  4  1  0  0  0  0
  6  9  1  0  0  0  0
  6 23  1  1  0  0  0
  7  2  2  0  0  0  0
  7 10  1  0  0  0  0
  9  1  2  0  0  0  0
 10  3  2  0  0  0  0
 11  5  2  0  0  0  0
 13 20  1  6  0  0  0
 13 14  1  0  0  0  0
 14 15  1  6  0  0  0
 14 18  1  0  0  0  0
 14 12  1  0  0  0  0
 16 13  1  0  0  0  0
 17  8  1  1  0  0  0
 17 16  1  0  0  0  0
 17 19  1  0  0  0  0
 18 12  1  0  0  0  0
 19 15  1  0  0  0  0
 22 25  1  0  0  0  0
 23 25  1  0  0  0  0
 23 24  2  0  0  0  0
 24 21  1  0  0  0  0
 25 26  2  0  0  0  0
 26 21  1  0  0  0  0
M  END
>  <MODEL>
4

>  <REMARK>
 VINA RESULT:      -6.9      3.812      7.775
  Name = 
  2 active torsions:
  status: ('A' for Active; 'I' for Inactive)
    1  A    between atoms: C_6  and  C_17
    2  A    between atoms: C_14  and  N_21
                            x       y       z     vdW  Elec       q    Type
                         _______ _______ _______ _____ _____    ______ ____

>  <TORSDO>
F 2

$$$$
=
 OpenBabel11072408343D

 26 30  0  0  1  0  0  0  0  0999 V2000
  188.9850  175.7510  143.1940 C   0  0  0  0  0  0  0  0  0  0  0  0
  191.1480  175.5970  147.5440 C   0  0  0  0  0  3  0  0  0  0  0  0
  189.4790  176.8790  145.7400 C   0  0  0  0  0  0  0  0  0  0  0  0
  189.3160  174.8080  144.3270 C   0  0  0  0  0  2  0  0  0  0  0  0
  189.8530  175.5470  145.5140 C   0  0  0  0  0  0  0  0  0  0  0  0
  188.5540  177.5680  144.7760 C   0  0  1  0  0  3  0  0  0  0  0  0
  190.7760  176.8920  147.7450 N   0  0  0  0  0  0  0  0  0  0  0  0
  189.0060  175.2900  141.8400 N   0  0  0  0  0  2  0  0  0  0  0  0
  188.6570  176.9890  143.4310 N   0  0  0  0  0  0  0  0  0  0  0  0
  189.9560  177.5400  146.8740 C   0  0  0  0  0  3  0  0  0  0  0  0
  190.6880  174.8980  146.4260 C   0  0  0  0  0  3  0  0  0  0  0  0
  190.0100  172.4120  137.5690 O   0  0  0  0  0  0  0  0  0  0  0  0
  190.9380  172.8270  139.8030 C   0  0  1  0  0  3  0  0  0  0  0  0
  189.9300  173.1500  138.7050 C   0  0  2  0  0  0  0  0  0  0  0  0
  188.5660  173.7410  139.0250 C   0  0  0  0  0  2  0  0  0  0  0  0
  190.7330  173.7910  140.9750 C   0  0  0  0  0  2  0  0  0  0  0  0
  189.2750  173.9080  141.4680 C   0  0  2  0  0  3  0  0  0  0  0  0
  190.5270  173.7030  137.5210 N   0  0  0  0  0  2  0  0  0  0  0  0
  188.2120  173.4090  140.4690 C   0  0  0  0  0  2  0  0  0  0  0  0
  190.7930  171.3890  140.2700 C   0  0  0  0  0  1  0  0  0  0  0  0
  185.0710  177.0680  146.5130 S   0  0  0  0  0  0  0  0  0  0  0  0
  186.3120  179.0610  143.4830 N   0  0  0  0  0  1  0  0  0  0  0  0
  187.1330  177.5320  145.2600 C   0  0  0  0  0  0  0  0  0  0  0  0
  186.7230  176.7910  146.3650 C   0  0  0  0  0  3  0  0  0  0  0  0
  186.1010  178.2520  144.6360 C   0  0  0  0  0  0  0  0  0  0  0  0
  184.8480  178.1080  145.2130 C   0  0  0  0  0  3  0  0  0  0  0  0
  1  9  2  0  0  0  0
  1  4  1  0  0  0  0
  2  7  1  0  0  0  0
  3 10  1  0  0  0  0
  4  5  1  0  0  0  0
  5  3  2  0  0  0  0
  5 11  1  0  0  0  0
  6 23  1  1  0  0  0
  6  3  1  0  0  0  0
  8  1  1  0  0  0  0
  9  6  1  0  0  0  0
 10  7  2  0  0  0  0
 11  2  2  0  0  0  0
 12 14  1  0  0  0  0
 13 20  1  1  0  0  0
 13 16  1  0  0  0  0
 14 15  1  1  0  0  0
 14 13  1  0  0  0  0
 15 19  1  0  0  0  0
 16 17  1  0  0  0  0
 17  8  1  6  0  0  0
 18 12  1  0  0  0  0
 18 14  1  0  0  0  0
 19 17  1  0  0  0  0
 22 25  1  0  0  0  0
 23 24  2  0  0  0  0
 24 21  1  0  0  0  0
 25 26  2  0  0  0  0
 25 23  1  0  0  0  0
 26 21  1  0  0  0  0
M  END
>  <MODEL>
5

>  <REMARK>
 VINA RESULT:      -6.8      3.973      5.281
  Name = 
  2 active torsions:
  status: ('A' for Active; 'I' for Inactive)
    1  A    between atoms: C_6  and  C_17
    2  A    between atoms: C_14  and  N_21
                            x       y       z     vdW  Elec       q    Type
                         _______ _______ _______ _____ _____    ______ ____

>  <TORSDO>
F 2

$$$$
=
 OpenBabel11072408343D

 26 30  0  0  1  0  0  0  0  0999 V2000
  190.0290  176.1420  144.9220 C   0  0  0  0  0  0  0  0  0  0  0  0
  187.1350  177.9910  141.4810 C   0  0  0  0  0  3  0  0  0  0  0  0
  187.4500  176.7960  143.9630 C   0  0  0  0  0  0  0  0  0  0  0  0
  189.9100  177.3030  143.9630 C   0  0  0  0  0  2  0  0  0  0  0  0
  188.5640  177.3350  143.3050 C   0  0  0  0  0  0  0  0  0  0  0  0
  187.6140  176.1690  145.3190 C   0  0  1  0  0  3  0  0  0  0  0  0
  186.0650  177.4600  142.1340 N   0  0  0  0  0  0  0  0  0  0  0  0
  191.3090  175.5790  145.2200 N   0  0  0  0  0  2  0  0  0  0  0  0
  188.9740  175.6500  145.5060 N   0  0  0  0  0  0  0  0  0  0  0  0
  186.1950  176.8710  143.3540 C   0  0  0  0  0  3  0  0  0  0  0  0
  188.4060  177.9430  142.0590 C   0  0  0  0  0  3  0  0  0  0  0  0
  196.4700  174.6740  145.4870 O   0  0  0  0  0  0  0  0  0  0  0  0
  194.7100  174.9680  143.8030 C   0  0  1  0  0  3  0  0  0  0  0  0
  195.1420  174.8200  145.2590 C   0  0  2  0  0  0  0  0  0  0  0  0
  194.3290  175.4200  146.3940 C   0  0  0  0  0  2  0  0  0  0  0  0
  193.1830  175.0640  143.7360 C   0  0  0  0  0  2  0  0  0  0  0  0
  192.5590  176.1050  144.6910 C   0  0  2  0  0  3  0  0  0  0  0  0
  195.6860  173.5280  145.5680 N   0  0  0  0  0  2  0  0  0  0  0  0
  193.4770  176.5580  145.8440 C   0  0  0  0  0  2  0  0  0  0  0  0
  195.3460  176.1930  143.1680 C   0  0  0  0  0  1  0  0  0  0  0  0
  187.3370  178.8450  148.1770 S   0  0  0  0  0  0  0  0  0  0  0  0
  184.8490  176.5450  146.3860 N   0  0  0  0  0  1  0  0  0  0  0  0
  187.2610  177.1360  146.4140 C   0  0  0  0  0  0  0  0  0  0  0  0
  188.1980  177.9520  147.0420 C   0  0  0  0  0  3  0  0  0  0  0  0
  185.9500  177.2960  146.8890 C   0  0  0  0  0  0  0  0  0  0  0  0
  185.7980  178.2310  147.9020 C   0  0  0  0  0  3  0  0  0  0  0  0
  1  8  1  0  0  0  0
  1  9  2  0  0  0  0
  2 11  2  0  0  0  0
  2  7  1  0  0  0  0
  3  6  1  0  0  0  0
  4  1  1  0  0  0  0
  5  3  2  0  0  0  0
  5  4  1  0  0  0  0
  6  9  1  0  0  0  0
  6 23  1  1  0  0  0
  7 10  2  0  0  0  0
 10  3  1  0  0  0  0
 11  5  1  0  0  0  0
 12 18  1  0  0  0  0
 13 20  1  1  0  0  0
 13 14  1  0  0  0  0
 14 12  1  0  0  0  0
 14 18  1  0  0  0  0
 14 15  1  1  0  0  0
 16 13  1  0  0  0  0
 16 17  1  0  0  0  0
 17  8  1  1  0  0  0
 17 19  1  0  0  0  0
 19 15  1  0  0  0  0
 22 25  1  0  0  0  0
 23 25  1  0  0  0  0
 23 24  2  0  0  0  0
 24 21  1  0  0  0  0
 25 26  2  0  0  0  0
 26 21  1  0  0  0  0
M  END
>  <MODEL>
6

>  <REMARK>
 VINA RESULT:      -6.6      2.293      3.923
  Name = 
  2 active torsions:
  status: ('A' for Active; 'I' for Inactive)
    1  A    between atoms: C_6  and  C_17
    2  A    between atoms: C_14  and  N_21
                            x       y       z     vdW  Elec       q    Type
                         _______ _______ _______ _____ _____    ______ ____

>  <TORSDO>
F 2

$$$$
=
 OpenBabel11072408343D

 26 30  0  0  1  0  0  0  0  0999 V2000
  190.2280  176.6920  143.5460 C   0  0  0  0  0  0  0  0  0  0  0  0
  191.2320  172.8890  140.6900 C   0  0  0  0  0  3  0  0  0  0  0  0
  192.0620  175.1790  142.0140 C   0  0  0  0  0  0  0  0  0  0  0  0
  189.9640  175.2120  143.3970 C   0  0  0  0  0  2  0  0  0  0  0  0
  190.8190  174.6090  142.3230 C   0  0  0  0  0  0  0  0  0  0  0  0
  192.5240  176.4060  142.7480 C   0  0  1  0  0  3  0  0  0  0  0  0
  192.4350  173.4580  140.4010 N   0  0  0  0  0  0  0  0  0  0  0  0
  189.2110  177.5600  144.0540 N   0  0  0  0  0  2  0  0  0  0  0  0
  191.3880  177.1970  143.2350 N   0  0  0  0  0  0  0  0  0  0  0  0
  192.8640  174.5810  141.0400 C   0  0  0  0  0  3  0  0  0  0  0  0
  190.4030  173.4520  141.6620 C   0  0  0  0  0  3  0  0  0  0  0  0
  186.0980  177.8590  148.2670 O   0  0  0  0  0  0  0  0  0  0  0  0
  185.9990  178.2230  145.8420 C   0  0  1  0  0  3  0  0  0  0  0  0
  186.7950  177.9100  147.1050 C   0  0  2  0  0  0  0  0  0  0  0  0
  188.0760  177.0920  147.0560 C   0  0  0  0  0  2  0  0  0  0  0  0
  186.9560  178.2940  144.6470 C   0  0  0  0  0  2  0  0  0  0  0  0
  187.9110  177.0890  144.5120 C   0  0  2  0  0  3  0  0  0  0  0  0
  186.8530  179.0040  148.0340 N   0  0  0  0  0  2  0  0  0  0  0  0
  188.0720  176.2430  145.7910 C   0  0  0  0  0  2  0  0  0  0  0  0
  184.9280  177.1730  145.5990 C   0  0  0  0  0  1  0  0  0  0  0  0
  194.3760  175.4050  146.0600 S   0  0  0  0  0  0  0  0  0  0  0  0
  195.5020  176.3320  142.5150 N   0  0  0  0  0  1  0  0  0  0  0  0
  193.4450  176.0510  143.8810 C   0  0  0  0  0  0  0  0  0  0  0  0
  192.9950  175.7240  145.1570 C   0  0  0  0  0  3  0  0  0  0  0  0
  194.8420  176.0170  143.7380 C   0  0  0  0  0  0  0  0  0  0  0  0
  195.5440  175.6680  144.8820 C   0  0  0  0  0  3  0  0  0  0  0  0
  1  8  1  0  0  0  0
  2 11  1  0  0  0  0
  3  5  1  0  0  0  0
  3  6  1  0  0  0  0
  4  1  1  0  0  0  0
  5  4  1  0  0  0  0
  6  9  1  0  0  0  0
  6 23  1  1  0  0  0
  7  2  2  0  0  0  0
  7 10  1  0  0  0  0
  9  1  2  0  0  0  0
 10  3  2  0  0  0  0
 11  5  2  0  0  0  0
 13 20  1  6  0  0  0
 13 14  1  0  0  0  0
 14 15  1  6  0  0  0
 14 18  1  0  0  0  0
 14 12  1  0  0  0  0
 16 13  1  0  0  0  0
 17  8  1  1  0  0  0
 17 16  1  0  0  0  0
 17 19  1  0  0  0  0
 18 12  1  0  0  0  0
 19 15  1  0  0  0  0
 22 25  1  0  0  0  0
 23 24  2  0  0  0  0
 24 21  1  0  0  0  0
 25 23  1  0  0  0  0
 25 26  2  0  0  0  0
 26 21  1  0  0  0  0
M  END
>  <MODEL>
7

>  <REMARK>
 VINA RESULT:      -6.6      3.605      7.721
  Name = 
  2 active torsions:
  status: ('A' for Active; 'I' for Inactive)
    1  A    between atoms: C_6  and  C_17
    2  A    between atoms: C_14  and  N_21
                            x       y       z     vdW  Elec       q    Type
                         _______ _______ _______ _____ _____    ______ ____

>  <TORSDO>
F 2

$$$$
=
 OpenBabel11072408343D

 26 30  0  0  1  0  0  0  0  0999 V2000
  192.6950  176.4050  143.1760 C   0  0  0  0  0  0  0  0  0  0  0  0
  190.9530  176.2220  147.7110 C   0  0  0  0  0  3  0  0  0  0  0  0
  190.6460  176.9410  145.0510 C   0  0  0  0  0  0  0  0  0  0  0  0
  192.5810  175.4890  144.3720 C   0  0  0  0  0  2  0  0  0  0  0  0
  191.6780  176.0660  145.4190 C   0  0  0  0  0  0  0  0  0  0  0  0
  190.4640  177.3130  143.6060 C   0  0  1  0  0  3  0  0  0  0  0  0
  189.9590  177.0730  147.3340 N   0  0  0  0  0  0  0  0  0  0  0  0
  193.8620  176.3720  142.3500 N   0  0  0  0  0  2  0  0  0  0  0  0
  191.7280  177.2200  142.8660 N   0  0  0  0  0  0  0  0  0  0  0  0
  189.7880  177.4380  146.0340 C   0  0  0  0  0  3  0  0  0  0  0  0
  191.8290  175.6980  146.7570 C   0  0  0  0  0  3  0  0  0  0  0  0
  197.9380  174.3540  139.7360 O   0  0  0  0  0  0  0  0  0  0  0  0
  197.4570  175.4890  141.8580 C   0  0  1  0  0  3  0  0  0  0  0  0
  197.0060  174.9870  140.4890 C   0  0  2  0  0  0  0  0  0  0  0  0
  195.5580  174.6130  140.2170 C   0  0  0  0  0  2  0  0  0  0  0  0
  196.2950  176.2210  142.5350 C   0  0  0  0  0  2  0  0  0  0  0  0
  194.9630  175.4420  142.5540 C   0  0  2  0  0  3  0  0  0  0  0  0
  197.6350  175.6670  139.3910 N   0  0  0  0  0  2  0  0  0  0  0  0
  194.8750  174.2840  141.5390 C   0  0  0  0  0  2  0  0  0  0  0  0
  197.9370  174.3390  142.7280 C   0  0  0  0  0  1  0  0  0  0  0  0
  187.9520  174.6140  142.2630 S   0  0  0  0  0  0  0  0  0  0  0  0
  188.4840  178.3550  141.6260 N   0  0  0  0  0  1  0  0  0  0  0  0
  189.4050  176.4690  142.9540 C   0  0  0  0  0  0  0  0  0  0  0  0
  189.2480  175.1100  143.2110 C   0  0  0  0  0  3  0  0  0  0  0  0
  188.4830  176.9900  142.0330 C   0  0  0  0  0  0  0  0  0  0  0  0
  187.5720  176.0740  141.5270 C   0  0  0  0  0  3  0  0  0  0  0  0
  1  4  1  0  0  0  0
  3  5  2  0  0  0  0
  3 10  1  0  0  0  0
  4  5  1  0  0  0  0
  5 11  1  0  0  0  0
  6 23  1  6  0  0  0
  6  3  1  0  0  0  0
  7  2  1  0  0  0  0
  8  1  1  0  0  0  0
  9  1  2  0  0  0  0
  9  6  1  0  0  0  0
 10  7  2  0  0  0  0
 11  2  2  0  0  0  0
 12 14  1  0  0  0  0
 13 16  1  0  0  0  0
 13 20  1  1  0  0  0
 14 15  1  6  0  0  0
 14 13  1  0  0  0  0
 15 19  1  0  0  0  0
 16 17  1  0  0  0  0
 17  8  1  6  0  0  0
 18 12  1  0  0  0  0
 18 14  1  0  0  0  0
 19 17  1  0  0  0  0
 21 24  1  0  0  0  0
 22 25  1  0  0  0  0
 23 24  2  0  0  0  0
 25 23  1  0  0  0  0
 26 25  2  0  0  0  0
 26 21  1  0  0  0  0
M  END
>  <MODEL>
8

>  <REMARK>
 VINA RESULT:      -6.4      2.286      3.004
  Name = 
  2 active torsions:
  status: ('A' for Active; 'I' for Inactive)
    1  A    between atoms: C_6  and  C_17
    2  A    between atoms: C_14  and  N_21
                            x       y       z     vdW  Elec       q    Type
                         _______ _______ _______ _____ _____    ______ ____

>  <TORSDO>
F 2

$$$$
=
 OpenBabel11072408343D

 26 30  0  0  1  0  0  0  0  0999 V2000
  189.8550  174.4520  143.0120 C   0  0  0  0  0  0  0  0  0  0  0  0
  187.0580  177.9470  144.9060 C   0  0  0  0  0  3  0  0  0  0  0  0
  189.0350  176.0280  145.2120 C   0  0  0  0  0  0  0  0  0  0  0  0
  189.3150  175.8330  142.7230 C   0  0  0  0  0  2  0  0  0  0  0  0
  188.6390  176.4190  143.9250 C   0  0  0  0  0  0  0  0  0  0  0  0
  190.1240  175.0060  145.3800 C   0  0  1  0  0  3  0  0  0  0  0  0
  187.4530  177.5520  146.1480 N   0  0  0  0  0  0  0  0  0  0  0  0
  190.0170  173.5030  141.9530 N   0  0  0  0  0  2  0  0  0  0  0  0
  190.1990  174.1090  144.2200 N   0  0  0  0  0  0  0  0  0  0  0  0
  188.4230  176.6140  146.3230 C   0  0  0  0  0  3  0  0  0  0  0  0
  187.6490  177.3900  143.7700 C   0  0  0  0  0  3  0  0  0  0  0  0
  189.9260  171.1250  137.2780 O   0  0  0  0  0  0  0  0  0  0  0  0
  188.4880  172.5270  138.6890 C   0  0  1  0  0  3  0  0  0  0  0  0
  189.7690  171.7220  138.4850 C   0  0  2  0  0  0  0  0  0  0  0  0
  191.0450  172.0530  139.2410 C   0  0  0  0  0  2  0  0  0  0  0  0
  188.4590  173.0750  140.1180 C   0  0  0  0  0  2  0  0  0  0  0  0
  189.7450  173.8080  140.5560 C   0  0  2  0  0  3  0  0  0  0  0  0
  189.5430  170.3100  138.3380 N   0  0  0  0  0  2  0  0  0  0  0  0
  190.9880  173.5070  139.6940 C   0  0  0  0  0  2  0  0  0  0  0  0
  188.3950  173.6630  137.6840 C   0  0  0  0  0  1  0  0  0  0  0  0
  193.6190  176.7890  145.3780 S   0  0  0  0  0  0  0  0  0  0  0  0
  191.3240  175.3590  148.0930 N   0  0  0  0  0  1  0  0  0  0  0  0
  191.4530  175.6590  145.6310 C   0  0  0  0  0  0  0  0  0  0  0  0
  192.2590  176.1630  144.6140 C   0  0  0  0  0  3  0  0  0  0  0  0
  191.9880  175.8180  146.9200 C   0  0  0  0  0  0  0  0  0  0  0  0
  193.2240  176.4440  146.9730 C   0  0  0  0  0  3  0  0  0  0  0  0
  1  9  2  0  0  0  0
  2  7  1  0  0  0  0
  3  6  1  0  0  0  0
  3 10  1  0  0  0  0
  4  1  1  0  0  0  0
  4  5  1  0  0  0  0
  5  3  2  0  0  0  0
  6 23  1  6  0  0  0
  7 10  2  0  0  0  0
  8  1  1  0  0  0  0
  9  6  1  0  0  0  0
 11  5  1  0  0  0  0
 11  2  2  0  0  0  0
 12 18  1  0  0  0  0
 12 14  1  0  0  0  0
 13 20  1  6  0  0  0
 13 16  1  0  0  0  0
 14 13  1  0  0  0  0
 14 15  1  1  0  0  0
 15 19  1  0  0  0  0
 16 17  1  0  0  0  0
 17  8  1  1  0  0  0
 18 14  1  0  0  0  0
 19 17  1  0  0  0  0
 21 26  1  0  0  0  0
 23 25  1  0  0  0  0
 24 21  1  0  0  0  0
 24 23  2  0  0  0  0
 25 26  2  0  0  0  0
 25 22  1  0  0  0  0
M  END
>  <MODEL>
9

>  <REMARK>
 VINA RESULT:      -6.3      4.441      6.596
  Name = 
  2 active torsions:
  status: ('A' for Active; 'I' for Inactive)
    1  A    between atoms: C_6  and  C_17
    2  A    between atoms: C_14  and  N_21
                            x       y       z     vdW  Elec       q    Type
                         _______ _______ _______ _____ _____    ______ ____

>  <TORSDO>
F 2

$$$$
