=
 OpenBabel11062421113D

 33 36  0  0  1  0  0  0  0  0999 V2000
  193.1430  174.9790  142.8560 C   0  0  0  0  0  2  0  0  0  0  0  0
  190.9180  175.4850  147.7840 C   0  0  0  0  0  3  0  0  0  0  0  0
  191.4550  176.6790  144.9920 C   0  0  0  0  0  0  0  0  0  0  0  0
  189.2690  176.4260  146.1950 C   0  0  0  0  0  0  0  0  0  0  0  0
  190.0510  177.0250  145.2880 C   0  0  0  0  0  3  0  0  0  0  0  0
  194.0070  176.0810  145.2340 S   0  0  0  0  0  0  0  0  0  0  0  0
  192.3430  176.1960  145.8640 C   0  0  0  0  0  0  0  0  0  0  0  0
  193.3590  176.3190  143.5430 C   0  0  2  0  0  3  0  0  0  0  0  0
  192.0860  175.8900  147.2850 C   0  0  0  0  0  3  0  0  0  0  0  0
  192.0230  177.0350  143.6660 C   0  0  0  0  0  2  0  0  0  0  0  0
  189.7260  175.2050  146.9320 C   0  0  0  0  0  2  0  0  0  0  0  0
  187.3820  178.0020  145.7880 N   0  0  0  0  0  0  0  0  0  0  0  0
  185.9090  176.9950  147.0820 O   0  0  0  0  0  0  0  0  0  0  0  0
  186.9920  176.2850  147.1860 N   0  0  0  0  0  0  0  0  0  0  0  0
  187.8910  176.9040  146.3900 C   0  0  0  0  0  0  0  0  0  0  0  0
  185.1430  178.9650  145.9210 N   0  0  0  0  0  1  0  0  0  0  0  0
  186.1270  177.9960  146.2690 C   0  0  0  0  0  0  0  0  0  0  0  0
  191.1250  173.8310  142.0930 C   0  0  0  0  0  3  0  0  0  0  0  0
  191.8360  174.9570  142.1370 C   0  0  0  0  0  3  0  0  0  0  0  0
  189.8090  173.7350  141.3700 C   0  0  1  0  0  3  0  0  0  0  0  0
  189.8850  172.8200  140.1480 C   0  0  0  0  0  2  0  0  0  0  0  0
  189.8560  173.5840  138.9070 N   0  0  0  0  0  2  0  0  0  0  0  0
  188.5040  173.4930  138.3820 C   0  0  0  0  0  2  0  0  0  0  0  0
  187.8550  174.7200  138.5310 O   0  0  0  0  0  1  0  0  0  0  0  0
  188.6590  173.3580  142.3000 C   0  0  0  0  0  2  0  0  0  0  0  0
  187.5160  174.2200  142.0540 N   0  0  0  0  0  2  0  0  0  0  0  0
  187.9610  175.5840  142.2870 C   0  0  0  0  0  2  0  0  0  0  0  0
  186.8670  177.2160  140.7320 C   0  0  0  0  0  3  0  0  0  0  0  0
  186.8660  176.5360  141.9510 C   0  0  0  0  0  0  0  0  0  0  0  0
  184.8550  178.3380  141.3140 C   0  0  0  0  0  3  0  0  0  0  0  0
  184.8240  177.6850  142.5480 C   0  0  0  0  0  3  0  0  0  0  0  0
  185.8390  176.7810  142.8650 C   0  0  0  0  0  3  0  0  0  0  0  0
  185.8690  178.0940  140.4400 N   0  0  0  0  0  0  0  0  0  0  0  0
  3  5  1  0  0  0  0
  3  7  2  0  0  0  0
  4 15  1  0  0  0  0
  4 11  1  0  0  0  0
  5  4  2  0  0  0  0
  6  7  1  0  0  0  0
  7  9  1  0  0  0  0
  8  1  1  1  0  0  0
  8 10  1  0  0  0  0
  8  6  1  0  0  0  0
  9  2  2  0  0  0  0
 10  3  1  0  0  0  0
 11  2  1  0  0  0  0
 12 17  2  0  0  0  0
 12 15  1  0  0  0  0
 13 14  1  0  0  0  0
 15 14  2  0  0  0  0
 16 17  1  0  0  0  0
 17 13  1  0  0  0  0
 18 19  2  0  0  0  0
 19  1  1  0  0  0  0
 20 21  1  6  0  0  0
 20 18  1  0  0  0  0
 20 25  1  0  0  0  0
 22 21  1  0  0  0  0
 23 24  1  0  0  0  0
 23 22  1  0  0  0  0
 26 27  1  0  0  0  0
 26 25  1  0  0  0  0
 28 29  1  0  0  0  0
 29 27  1  0  0  0  0
 29 32  2  0  0  0  0
 30 31  2  0  0  0  0
 31 32  1  0  0  0  0
 33 28  2  0  0  0  0
 33 30  1  0  0  0  0
M  END
>  <MODEL>
1

>  <REMARK>
 VINA RESULT:      -6.6      0.000      0.000
  Name = 
  11 active torsions:
  status: ('A' for Active; 'I' for Inactive)
    1  A    between atoms: C_2  and  N_29
    2  A    between atoms: C_4  and  C_22
    3  A    between atoms: C_5  and  N_29
    4  A    between atoms: C_5  and  C_31
    5  A    between atoms: C_8  and  C_31
    6  A    between atoms: C_9  and  C_17
    7  A    between atoms: C_9  and  C_18
    8  A    between atoms: C_11  and  C_31
    9  A    between atoms: C_11  and  N_33
   10  A    between atoms: C_14  and  C_26
   11  A    between atoms: C_26  and  N_33
                            x       y       z     vdW  Elec       q    Type
                         _______ _______ _______ _____ _____    ______ ____

>  <TORSDO>
F 11

$$$$
=
 OpenBabel11062421113D

 33 36  0  0  1  0  0  0  0  0999 V2000
  189.9700  175.1010  146.4860 C   0  0  0  0  0  2  0  0  0  0  0  0
  185.4600  178.1120  146.2130 C   0  0  0  0  0  3  0  0  0  0  0  0
  188.2620  177.4450  145.1120 C   0  0  0  0  0  0  0  0  0  0  0  0
  186.0900  177.6210  143.8700 C   0  0  0  0  0  0  0  0  0  0  0  0
  187.4270  177.6660  143.9140 C   0  0  0  0  0  3  0  0  0  0  0  0
  189.2360  177.5380  147.5550 S   0  0  0  0  0  0  0  0  0  0  0  0
  187.9210  177.7380  146.3690 C   0  0  0  0  0  0  0  0  0  0  0  0
  190.1850  176.5970  146.3090 C   0  0  2  0  0  3  0  0  0  0  0  0
  186.6360  178.3160  146.8080 C   0  0  0  0  0  3  0  0  0  0  0  0
  189.6730  177.0130  144.9400 C   0  0  0  0  0  2  0  0  0  0  0  0
  185.2860  177.1870  145.0570 C   0  0  0  0  0  2  0  0  0  0  0  0
  184.0540  177.9240  142.4650 N   0  0  0  0  0  0  0  0  0  0  0  0
  185.0980  178.3300  140.5660 O   0  0  0  0  0  0  0  0  0  0  0  0
  186.0420  178.1340  141.4360 N   0  0  0  0  0  0  0  0  0  0  0  0
  185.3990  177.8880  142.5980 C   0  0  0  0  0  0  0  0  0  0  0  0
  182.6880  178.3790  140.4950 N   0  0  0  0  0  1  0  0  0  0  0  0
  183.9370  178.2110  141.1570 C   0  0  0  0  0  0  0  0  0  0  0  0
  189.8100  173.1120  145.0750 C   0  0  0  0  0  3  0  0  0  0  0  0
  190.2100  174.3770  145.2040 C   0  0  0  0  0  3  0  0  0  0  0  0
  190.0370  172.3190  143.8180 C   0  0  1  0  0  3  0  0  0  0  0  0
  189.8200  173.1560  142.5570 C   0  0  0  0  0  2  0  0  0  0  0  0
  188.4280  173.1190  142.1260 N   0  0  0  0  0  2  0  0  0  0  0  0
  187.9420  174.4890  142.1390 C   0  0  0  0  0  2  0  0  0  0  0  0
  188.1920  175.0930  140.9050 O   0  0  0  0  0  1  0  0  0  0  0  0
  191.3880  171.6090  143.8110 C   0  0  0  0  0  2  0  0  0  0  0  0
  192.3270  172.3330  142.9710 N   0  0  0  0  0  2  0  0  0  0  0  0
  193.5370  172.5150  143.7540 C   0  0  0  0  0  2  0  0  0  0  0  0
  193.3890  174.9980  143.4530 C   0  0  0  0  0  3  0  0  0  0  0  0
  193.5850  173.9020  144.2950 C   0  0  0  0  0  0  0  0  0  0  0  0
  193.6980  176.4960  145.2710 C   0  0  0  0  0  3  0  0  0  0  0  0
  193.9090  175.4270  146.1430 C   0  0  0  0  0  3  0  0  0  0  0  0
  193.8530  174.1230  145.6470 C   0  0  0  0  0  3  0  0  0  0  0  0
  193.4470  176.2620  143.9540 N   0  0  0  0  0  0  0  0  0  0  0  0
  2  9  2  0  0  0  0
  3  7  2  0  0  0  0
  4  5  2  0  0  0  0
  4 11  1  0  0  0  0
  5  3  1  0  0  0  0
  7  9  1  0  0  0  0
  7  6  1  0  0  0  0
  8  1  1  1  0  0  0
  8  6  1  0  0  0  0
 10  3  1  0  0  0  0
 10  8  1  0  0  0  0
 11  2  1  0  0  0  0
 12 15  1  0  0  0  0
 13 17  1  0  0  0  0
 13 14  1  0  0  0  0
 14 15  2  0  0  0  0
 15  4  1  0  0  0  0
 16 17  1  0  0  0  0
 17 12  2  0  0  0  0
 18 19  2  0  0  0  0
 19  1  1  0  0  0  0
 20 21  1  6  0  0  0
 20 18  1  0  0  0  0
 22 23  1  0  0  0  0
 22 21  1  0  0  0  0
 24 23  1  0  0  0  0
 25 20  1  0  0  0  0
 26 27  1  0  0  0  0
 26 25  1  0  0  0  0
 27 29  1  0  0  0  0
 28 33  2  0  0  0  0
 28 29  1  0  0  0  0
 29 32  2  0  0  0  0
 30 31  2  0  0  0  0
 32 31  1  0  0  0  0
 33 30  1  0  0  0  0
M  END
>  <MODEL>
2

>  <REMARK>
 VINA RESULT:      -6.6      2.665      5.639
  Name = 
  11 active torsions:
  status: ('A' for Active; 'I' for Inactive)
    1  A    between atoms: C_2  and  N_29
    2  A    between atoms: C_4  and  C_22
    3  A    between atoms: C_5  and  N_29
    4  A    between atoms: C_5  and  C_31
    5  A    between atoms: C_8  and  C_31
    6  A    between atoms: C_9  and  C_17
    7  A    between atoms: C_9  and  C_18
    8  A    between atoms: C_11  and  C_31
    9  A    between atoms: C_11  and  N_33
   10  A    between atoms: C_14  and  C_26
   11  A    between atoms: C_26  and  N_33
                            x       y       z     vdW  Elec       q    Type
                         _______ _______ _______ _____ _____    ______ ____

>  <TORSDO>
F 11

$$$$
=
 OpenBabel11062421113D

 33 36  0  0  1  0  0  0  0  0999 V2000
  189.3830  177.4740  146.0090 C   0  0  0  0  0  2  0  0  0  0  0  0
  194.6830  176.3220  145.7370 C   0  0  0  0  0  3  0  0  0  0  0  0
  191.7590  175.3500  145.6270 C   0  0  0  0  0  0  0  0  0  0  0  0
  193.6020  174.9650  143.9710 C   0  0  0  0  0  0  0  0  0  0  0  0
  192.4420  174.6190  144.5410 C   0  0  0  0  0  3  0  0  0  0  0  0
  191.2520  176.6430  147.8620 S   0  0  0  0  0  0  0  0  0  0  0  0
  192.3540  176.0580  146.5900 C   0  0  0  0  0  0  0  0  0  0  0  0
  189.8320  176.2450  146.7840 C   0  0  2  0  0  3  0  0  0  0  0  0
  193.8070  176.2680  146.7410 C   0  0  0  0  0  3  0  0  0  0  0  0
  190.2930  175.1800  145.8020 C   0  0  0  0  0  2  0  0  0  0  0  0
  194.2770  176.2600  144.3030 C   0  0  0  0  0  2  0  0  0  0  0  0
  194.8680  172.9830  143.1470 N   0  0  0  0  0  0  0  0  0  0  0  0
  194.6560  173.4060  140.9940 O   0  0  0  0  0  0  0  0  0  0  0  0
  194.0390  174.3800  141.5930 N   0  0  0  0  0  0  0  0  0  0  0  0
  194.1690  174.1160  142.9110 C   0  0  0  0  0  0  0  0  0  0  0  0
  195.8650  171.4020  141.5770 N   0  0  0  0  0  1  0  0  0  0  0  0
  195.1400  172.5880  141.8910 C   0  0  0  0  0  0  0  0  0  0  0  0
  188.3170  178.0230  143.8800 C   0  0  0  0  0  3  0  0  0  0  0  0
  188.7090  177.0810  144.7370 C   0  0  0  0  0  3  0  0  0  0  0  0
  187.6160  177.6970  142.5890 C   0  0  1  0  0  3  0  0  0  0  0  0
  187.5320  176.1910  142.3400 C   0  0  0  0  0  2  0  0  0  0  0  0
  187.8790  175.8590  140.9630 N   0  0  0  0  0  2  0  0  0  0  0  0
  188.6470  174.6260  141.0030 C   0  0  0  0  0  2  0  0  0  0  0  0
  189.6990  174.7520  141.9130 O   0  0  0  0  0  1  0  0  0  0  0  0
  186.2530  178.3740  142.4780 C   0  0  0  0  0  2  0  0  0  0  0  0
  185.2110  177.4780  142.9500 N   0  0  0  0  0  2  0  0  0  0  0  0
  184.4190  178.2260  143.9130 C   0  0  0  0  0  2  0  0  0  0  0  0
  185.2790  176.8580  145.8290 C   0  0  0  0  0  3  0  0  0  0  0  0
  185.0310  178.1110  145.2660 C   0  0  0  0  0  0  0  0  0  0  0  0
  186.1420  177.8720  147.7970 C   0  0  0  0  0  3  0  0  0  0  0  0
  185.9010  179.1430  147.2720 C   0  0  0  0  0  3  0  0  0  0  0  0
  185.3400  179.2590  145.9990 C   0  0  0  0  0  3  0  0  0  0  0  0
  185.8260  176.7650  147.0710 N   0  0  0  0  0  0  0  0  0  0  0  0
  2  9  2  0  0  0  0
  3 10  1  0  0  0  0
  3  7  2  0  0  0  0
  4 11  1  0  0  0  0
  4  5  2  0  0  0  0
  5  3  1  0  0  0  0
  7  9  1  0  0  0  0
  7  6  1  0  0  0  0
  8  1  1  6  0  0  0
  8  6  1  0  0  0  0
 10  8  1  0  0  0  0
 11  2  1  0  0  0  0
 13 14  1  0  0  0  0
 13 17  1  0  0  0  0
 14 15  2  0  0  0  0
 15 12  1  0  0  0  0
 15  4  1  0  0  0  0
 16 17  1  0  0  0  0
 17 12  2  0  0  0  0
 18 19  2  0  0  0  0
 19  1  1  0  0  0  0
 20 21  1  1  0  0  0
 20 18  1  0  0  0  0
 22 23  1  0  0  0  0
 22 21  1  0  0  0  0
 23 24  1  0  0  0  0
 25 20  1  0  0  0  0
 25 26  1  0  0  0  0
 26 27  1  0  0  0  0
 27 29  1  0  0  0  0
 28 33  1  0  0  0  0
 29 28  2  0  0  0  0
 29 32  1  0  0  0  0
 31 30  1  0  0  0  0
 32 31  2  0  0  0  0
 33 30  2  0  0  0  0
M  END
>  <MODEL>
3

>  <REMARK>
 VINA RESULT:      -6.6      2.887      6.097
  Name = 
  11 active torsions:
  status: ('A' for Active; 'I' for Inactive)
    1  A    between atoms: C_2  and  N_29
    2  A    between atoms: C_4  and  C_22
    3  A    between atoms: C_5  and  N_29
    4  A    between atoms: C_5  and  C_31
    5  A    between atoms: C_8  and  C_31
    6  A    between atoms: C_9  and  C_17
    7  A    between atoms: C_9  and  C_18
    8  A    between atoms: C_11  and  C_31
    9  A    between atoms: C_11  and  N_33
   10  A    between atoms: C_14  and  C_26
   11  A    between atoms: C_26  and  N_33
                            x       y       z     vdW  Elec       q    Type
                         _______ _______ _______ _____ _____    ______ ____

>  <TORSDO>
F 11

$$$$
=
 OpenBabel11062421113D

 33 36  0  0  1  0  0  0  0  0999 V2000
  191.3230  174.5720  142.1090 C   0  0  0  0  0  2  0  0  0  0  0  0
  186.9820  177.5120  140.6950 C   0  0  0  0  0  3  0  0  0  0  0  0
  188.2430  175.3760  142.5260 C   0  0  0  0  0  0  0  0  0  0  0  0
  186.9780  177.4430  143.1690 C   0  0  0  0  0  0  0  0  0  0  0  0
  187.4160  176.2050  143.4250 C   0  0  0  0  0  3  0  0  0  0  0  0
  189.1920  174.1320  140.4100 S   0  0  0  0  0  0  0  0  0  0  0  0
  188.2190  175.4040  141.1920 C   0  0  0  0  0  0  0  0  0  0  0  0
  190.0110  173.8070  142.0110 C   0  0  2  0  0  3  0  0  0  0  0  0
  187.3780  176.2840  140.3580 C   0  0  0  0  0  3  0  0  0  0  0  0
  189.0720  174.2880  143.1060 C   0  0  0  0  0  2  0  0  0  0  0  0
  187.4210  178.1890  141.9490 C   0  0  0  0  0  2  0  0  0  0  0  0
  185.6400  177.5390  145.2700 N   0  0  0  0  0  0  0  0  0  0  0  0
  185.0670  179.6630  145.1250 O   0  0  0  0  0  0  0  0  0  0  0  0
  185.7860  179.4340  144.0680 N   0  0  0  0  0  0  0  0  0  0  0  0
  186.1380  178.1330  144.1620 C   0  0  0  0  0  0  0  0  0  0  0  0
  184.2700  178.4690  147.0630 N   0  0  0  0  0  1  0  0  0  0  0  0
  184.9780  178.5660  145.8310 C   0  0  0  0  0  0  0  0  0  0  0  0
  193.2180  174.7510  143.6410 C   0  0  0  0  0  3  0  0  0  0  0  0
  192.1480  174.0630  143.2430 C   0  0  0  0  0  3  0  0  0  0  0  0
  194.1030  174.2860  144.7650 C   0  0  1  0  0  3  0  0  0  0  0  0
  195.5040  173.9100  144.2810 C   0  0  0  0  0  2  0  0  0  0  0  0
  196.5100  174.8340  144.7910 N   0  0  0  0  0  2  0  0  0  0  0  0
  197.0950  175.5030  143.6420 C   0  0  0  0  0  2  0  0  0  0  0  0
  196.4070  176.6920  143.3850 O   0  0  0  0  0  1  0  0  0  0  0  0
  194.1430  175.2770  145.9250 C   0  0  0  0  0  2  0  0  0  0  0  0
  193.1370  176.3080  145.7340 N   0  0  0  0  0  2  0  0  0  0  0  0
  192.5060  176.5230  147.0250 C   0  0  0  0  0  2  0  0  0  0  0  0
  190.1120  177.2590  146.9330 C   0  0  0  0  0  3  0  0  0  0  0  0
  191.0500  176.2240  146.9300 C   0  0  0  0  0  0  0  0  0  0  0  0
  188.3310  175.6930  146.7850 C   0  0  0  0  0  3  0  0  0  0  0  0
  189.2360  174.6310  146.7880 C   0  0  0  0  0  3  0  0  0  0  0  0
  190.6040  174.9030  146.8640 C   0  0  0  0  0  3  0  0  0  0  0  0
  188.7830  176.9750  146.8590 N   0  0  0  0  0  0  0  0  0  0  0  0
  1 19  1  0  0  0  0
  2 11  1  0  0  0  0
  3 10  1  0  0  0  0
  3  5  1  0  0  0  0
  4  5  2  0  0  0  0
  4 15  1  0  0  0  0
  6  7  1  0  0  0  0
  6  8  1  0  0  0  0
  7  3  2  0  0  0  0
  8  1  1  6  0  0  0
  8 10  1  0  0  0  0
  9  2  2  0  0  0  0
  9  7  1  0  0  0  0
 11  4  1  0  0  0  0
 12 17  2  0  0  0  0
 13 17  1  0  0  0  0
 14 15  2  0  0  0  0
 14 13  1  0  0  0  0
 15 12  1  0  0  0  0
 17 16  1  0  0  0  0
 19 18  2  0  0  0  0
 20 18  1  6  0  0  0
 20 25  1  0  0  0  0
 21 20  1  0  0  0  0
 21 22  1  0  0  0  0
 23 22  1  0  0  0  0
 24 23  1  0  0  0  0
 26 25  1  0  0  0  0
 26 27  1  0  0  0  0
 29 28  1  0  0  0  0
 29 27  1  0  0  0  0
 30 31  2  0  0  0  0
 30 33  1  0  0  0  0
 31 32  1  0  0  0  0
 32 29  2  0  0  0  0
 33 28  2  0  0  0  0
M  END
>  <MODEL>
4

>  <REMARK>
 VINA RESULT:      -6.5      3.264      6.033
  Name = 
  11 active torsions:
  status: ('A' for Active; 'I' for Inactive)
    1  A    between atoms: C_2  and  N_29
    2  A    between atoms: C_4  and  C_22
    3  A    between atoms: C_5  and  N_29
    4  A    between atoms: C_5  and  C_31
    5  A    between atoms: C_8  and  C_31
    6  A    between atoms: C_9  and  C_17
    7  A    between atoms: C_9  and  C_18
    8  A    between atoms: C_11  and  C_31
    9  A    between atoms: C_11  and  N_33
   10  A    between atoms: C_14  and  C_26
   11  A    between atoms: C_26  and  N_33
                            x       y       z     vdW  Elec       q    Type
                         _______ _______ _______ _____ _____    ______ ____

>  <TORSDO>
F 11

$$$$
=
 OpenBabel11062421113D

 33 36  0  0  1  0  0  0  0  0999 V2000
  189.2090  177.4450  146.0150 C   0  0  0  0  0  2  0  0  0  0  0  0
  193.3790  174.1100  145.0300 C   0  0  0  0  0  3  0  0  0  0  0  0
  190.4010  174.4780  145.7350 C   0  0  0  0  0  0  0  0  0  0  0  0
  191.4200  173.0960  143.9070 C   0  0  0  0  0  0  0  0  0  0  0  0
  190.4250  173.3700  144.7590 C   0  0  0  0  0  3  0  0  0  0  0  0
  191.0650  176.1860  147.6230 S   0  0  0  0  0  0  0  0  0  0  0  0
  191.4620  175.0000  146.3530 C   0  0  0  0  0  0  0  0  0  0  0  0
  189.3590  176.2750  146.9750 C   0  0  2  0  0  3  0  0  0  0  0  0
  192.8660  174.5880  146.1640 C   0  0  0  0  0  3  0  0  0  0  0  0
  189.0910  174.9790  146.2260 C   0  0  0  0  0  2  0  0  0  0  0  0
  192.5970  174.0110  143.7640 C   0  0  0  0  0  2  0  0  0  0  0  0
  192.3010  171.5050  142.2020 N   0  0  0  0  0  0  0  0  0  0  0  0
  190.4880  170.2630  142.0350 O   0  0  0  0  0  0  0  0  0  0  0  0
  190.1910  171.1780  142.9070 N   0  0  0  0  0  0  0  0  0  0  0  0
  191.3050  171.9360  143.0090 C   0  0  0  0  0  0  0  0  0  0  0  0
  192.3650  169.6080  140.6690 N   0  0  0  0  0  1  0  0  0  0  0  0
  191.7150  170.4450  141.6200 C   0  0  0  0  0  0  0  0  0  0  0  0
  188.9280  177.8360  143.6190 C   0  0  0  0  0  3  0  0  0  0  0  0
  189.1560  176.9670  144.6030 C   0  0  0  0  0  3  0  0  0  0  0  0
  188.8450  177.4190  142.1760 C   0  0  1  0  0  3  0  0  0  0  0  0
  189.2130  175.9490  141.9760 C   0  0  0  0  0  2  0  0  0  0  0  0
  188.1820  175.2380  141.2300 N   0  0  0  0  0  2  0  0  0  0  0  0
  188.0790  173.9080  141.8070 C   0  0  0  0  0  2  0  0  0  0  0  0
  188.1270  172.9470  140.7940 O   0  0  0  0  0  1  0  0  0  0  0  0
  187.4990  177.7650  141.5460 C   0  0  0  0  0  2  0  0  0  0  0  0
  186.7570  178.6630  142.4150 N   0  0  0  0  0  2  0  0  0  0  0  0
  185.4200  178.1090  142.5460 C   0  0  0  0  0  2  0  0  0  0  0  0
  184.1840  178.9380  144.5630 C   0  0  0  0  0  3  0  0  0  0  0  0
  185.0540  178.0110  143.9870 C   0  0  0  0  0  0  0  0  0  0  0  0
  184.3820  177.8670  146.6750 C   0  0  0  0  0  3  0  0  0  0  0  0
  185.2630  176.9270  146.1380 C   0  0  0  0  0  3  0  0  0  0  0  0
  185.6000  177.0050  144.7860 C   0  0  0  0  0  3  0  0  0  0  0  0
  183.8660  178.8470  145.8830 N   0  0  0  0  0  0  0  0  0  0  0  0
  2  9  2  0  0  0  0
  3 10  1  0  0  0  0
  3  7  2  0  0  0  0
  4  5  2  0  0  0  0
  5  3  1  0  0  0  0
  7  6  1  0  0  0  0
  8  1  1  6  0  0  0
  8  6  1  0  0  0  0
  9  7  1  0  0  0  0
 10  8  1  0  0  0  0
 11  4  1  0  0  0  0
 11  2  1  0  0  0  0
 12 15  1  0  0  0  0
 13 14  1  0  0  0  0
 14 15  2  0  0  0  0
 15  4  1  0  0  0  0
 16 17  1  0  0  0  0
 17 13  1  0  0  0  0
 17 12  2  0  0  0  0
 18 19  2  0  0  0  0
 19  1  1  0  0  0  0
 20 25  1  1  0  0  0
 20 18  1  0  0  0  0
 21 20  1  0  0  0  0
 22 23  1  0  0  0  0
 22 21  1  0  0  0  0
 24 23  1  0  0  0  0
 25 26  1  0  0  0  0
 26 27  1  0  0  0  0
 27 29  1  0  0  0  0
 28 33  1  0  0  0  0
 29 28  2  0  0  0  0
 29 32  1  0  0  0  0
 31 30  1  0  0  0  0
 32 31  2  0  0  0  0
 33 30  2  0  0  0  0
M  END
>  <MODEL>
5

>  <REMARK>
 VINA RESULT:      -6.5      2.527      5.496
  Name = 
  11 active torsions:
  status: ('A' for Active; 'I' for Inactive)
    1  A    between atoms: C_2  and  N_29
    2  A    between atoms: C_4  and  C_22
    3  A    between atoms: C_5  and  N_29
    4  A    between atoms: C_5  and  C_31
    5  A    between atoms: C_8  and  C_31
    6  A    between atoms: C_9  and  C_17
    7  A    between atoms: C_9  and  C_18
    8  A    between atoms: C_11  and  C_31
    9  A    between atoms: C_11  and  N_33
   10  A    between atoms: C_14  and  C_26
   11  A    between atoms: C_26  and  N_33
                            x       y       z     vdW  Elec       q    Type
                         _______ _______ _______ _____ _____    ______ ____

>  <TORSDO>
F 11

$$$$
=
 OpenBabel11062421113D

 33 36  0  0  1  0  0  0  0  0999 V2000
  192.8230  175.8790  143.0920 C   0  0  0  0  0  2  0  0  0  0  0  0
  189.9070  175.3150  147.6370 C   0  0  0  0  0  3  0  0  0  0  0  0
  190.8170  177.0890  145.2860 C   0  0  0  0  0  0  0  0  0  0  0  0
  188.4860  176.6080  146.0760 C   0  0  0  0  0  0  0  0  0  0  0  0
  189.3790  177.3810  145.4460 C   0  0  0  0  0  3  0  0  0  0  0  0
  193.3180  176.4150  145.7540 S   0  0  0  0  0  0  0  0  0  0  0  0
  191.5790  176.4120  146.1470 C   0  0  0  0  0  0  0  0  0  0  0  0
  192.9150  177.0310  144.0820 C   0  0  2  0  0  3  0  0  0  0  0  0
  191.1270  175.8030  147.4140 C   0  0  0  0  0  3  0  0  0  0  0  0
  191.5630  177.7210  144.1670 C   0  0  0  0  0  2  0  0  0  0  0  0
  188.8550  175.2480  146.5830 C   0  0  0  0  0  2  0  0  0  0  0  0
  186.4780  177.8310  145.2500 N   0  0  0  0  0  0  0  0  0  0  0  0
  185.1310  177.2810  146.9060 O   0  0  0  0  0  0  0  0  0  0  0  0
  186.2640  176.7140  147.1900 N   0  0  0  0  0  0  0  0  0  0  0  0
  187.0860  177.0510  146.1720 C   0  0  0  0  0  0  0  0  0  0  0  0
  184.1830  178.6580  145.1670 N   0  0  0  0  0  1  0  0  0  0  0  0
  185.2450  177.9320  145.7780 C   0  0  0  0  0  0  0  0  0  0  0  0
  192.7150  173.4410  143.2050 C   0  0  0  0  0  3  0  0  0  0  0  0
  193.1240  174.5810  143.7610 C   0  0  0  0  0  3  0  0  0  0  0  0
  192.9680  172.0990  143.8350 C   0  0  1  0  0  3  0  0  0  0  0  0
  193.9050  172.1920  145.0390 C   0  0  0  0  0  2  0  0  0  0  0  0
  195.2550  171.7590  144.6990 N   0  0  0  0  0  2  0  0  0  0  0  0
  196.1520  172.8490  145.0470 C   0  0  0  0  0  2  0  0  0  0  0  0
  196.9520  172.4770  146.1300 O   0  0  0  0  0  1  0  0  0  0  0  0
  191.6760  171.3580  144.1690 C   0  0  0  0  0  2  0  0  0  0  0  0
  190.6330  172.3070  144.5180 N   0  0  0  0  0  2  0  0  0  0  0  0
  189.4450  171.9150  143.7800 C   0  0  0  0  0  2  0  0  0  0  0  0
  188.5950  172.6600  141.5430 C   0  0  0  0  0  3  0  0  0  0  0  0
  189.0750  172.9860  142.8130 C   0  0  0  0  0  0  0  0  0  0  0  0
  188.4080  174.9610  140.9840 C   0  0  0  0  0  3  0  0  0  0  0  0
  188.8940  175.3280  142.2400 C   0  0  0  0  0  3  0  0  0  0  0  0
  189.2300  174.3300  143.1570 C   0  0  0  0  0  3  0  0  0  0  0  0
  188.2720  173.6460  140.6630 N   0  0  0  0  0  0  0  0  0  0  0  0
  1 19  1  0  0  0  0
  3  5  1  0  0  0  0
  3  7  2  0  0  0  0
  4 15  1  0  0  0  0
  4 11  1  0  0  0  0
  5  4  2  0  0  0  0
  6  7  1  0  0  0  0
  7  9  1  0  0  0  0
  8  1  1  6  0  0  0
  8 10  1  0  0  0  0
  8  6  1  0  0  0  0
  9  2  2  0  0  0  0
 10  3  1  0  0  0  0
 11  2  1  0  0  0  0
 12 17  2  0  0  0  0
 12 15  1  0  0  0  0
 13 14  1  0  0  0  0
 15 14  2  0  0  0  0
 16 17  1  0  0  0  0
 17 13  1  0  0  0  0
 18 19  2  0  0  0  0
 20 18  1  1  0  0  0
 20 25  1  0  0  0  0
 20 21  1  0  0  0  0
 22 21  1  0  0  0  0
 22 23  1  0  0  0  0
 23 24  1  0  0  0  0
 25 26  1  0  0  0  0
 27 26  1  0  0  0  0
 28 29  1  0  0  0  0
 29 32  2  0  0  0  0
 29 27  1  0  0  0  0
 30 31  2  0  0  0  0
 31 32  1  0  0  0  0
 33 30  1  0  0  0  0
 33 28  2  0  0  0  0
M  END
>  <MODEL>
6

>  <REMARK>
 VINA RESULT:      -6.4      3.075      4.206
  Name = 
  11 active torsions:
  status: ('A' for Active; 'I' for Inactive)
    1  A    between atoms: C_2  and  N_29
    2  A    between atoms: C_4  and  C_22
    3  A    between atoms: C_5  and  N_29
    4  A    between atoms: C_5  and  C_31
    5  A    between atoms: C_8  and  C_31
    6  A    between atoms: C_9  and  C_17
    7  A    between atoms: C_9  and  C_18
    8  A    between atoms: C_11  and  C_31
    9  A    between atoms: C_11  and  N_33
   10  A    between atoms: C_14  and  C_26
   11  A    between atoms: C_26  and  N_33
                            x       y       z     vdW  Elec       q    Type
                         _______ _______ _______ _____ _____    ______ ____

>  <TORSDO>
F 11

$$$$
=
 OpenBabel11062421113D

 33 36  0  0  1  0  0  0  0  0999 V2000
  190.9100  175.4550  145.8400 C   0  0  0  0  0  2  0  0  0  0  0  0
  185.7990  177.2820  145.9810 C   0  0  0  0  0  3  0  0  0  0  0  0
  188.6650  177.5360  144.8750 C   0  0  0  0  0  0  0  0  0  0  0  0
  186.5020  177.4170  143.6110 C   0  0  0  0  0  0  0  0  0  0  0  0
  187.7880  177.7750  143.7110 C   0  0  0  0  0  3  0  0  0  0  0  0
  189.6170  177.3900  147.3240 S   0  0  0  0  0  0  0  0  0  0  0  0
  188.2780  177.4910  146.1510 C   0  0  0  0  0  0  0  0  0  0  0  0
  190.7520  176.9640  145.9580 C   0  0  2  0  0  3  0  0  0  0  0  0
  186.8960  177.6460  146.6450 C   0  0  0  0  0  3  0  0  0  0  0  0
  190.1370  177.4990  144.6740 C   0  0  0  0  0  2  0  0  0  0  0  0
  185.8420  176.5820  144.6650 C   0  0  0  0  0  2  0  0  0  0  0  0
  184.4060  177.8700  142.3420 N   0  0  0  0  0  0  0  0  0  0  0  0
  185.3540  178.2440  140.3860 O   0  0  0  0  0  0  0  0  0  0  0  0
  186.3360  177.9740  141.1920 N   0  0  0  0  0  0  0  0  0  0  0  0
  185.7520  177.7490  142.3890 C   0  0  0  0  0  0  0  0  0  0  0  0
  182.9510  178.4430  140.4680 N   0  0  0  0  0  1  0  0  0  0  0  0
  184.2270  178.1870  141.0470 C   0  0  0  0  0  0  0  0  0  0  0  0
  192.7160  173.9720  145.1250 C   0  0  0  0  0  3  0  0  0  0  0  0
  192.0490  175.1110  144.9410 C   0  0  0  0  0  3  0  0  0  0  0  0
  193.8850  173.5720  144.2670 C   0  0  1  0  0  3  0  0  0  0  0  0
  195.1540  173.3460  145.0870 C   0  0  0  0  0  2  0  0  0  0  0  0
  195.9040  174.5840  145.2620 N   0  0  0  0  0  2  0  0  0  0  0  0
  195.9720  175.2290  143.9620 C   0  0  0  0  0  2  0  0  0  0  0  0
  195.7150  176.5950  144.0960 O   0  0  0  0  0  1  0  0  0  0  0  0
  193.5650  172.3850  143.3620 C   0  0  0  0  0  2  0  0  0  0  0  0
  192.7800  172.8250  142.2210 N   0  0  0  0  0  2  0  0  0  0  0  0
  191.5930  171.9870  142.1820 C   0  0  0  0  0  2  0  0  0  0  0  0
  189.1030  172.2700  142.1570 C   0  0  0  0  0  3  0  0  0  0  0  0
  190.3750  172.8420  142.1060 C   0  0  0  0  0  0  0  0  0  0  0  0
  188.0920  174.4080  141.9350 C   0  0  0  0  0  3  0  0  0  0  0  0
  189.3470  175.0180  141.8710 C   0  0  0  0  0  3  0  0  0  0  0  0
  190.4930  174.2250  141.9550 C   0  0  0  0  0  3  0  0  0  0  0  0
  187.9970  173.0580  142.0730 N   0  0  0  0  0  0  0  0  0  0  0  0
  2  9  2  0  0  0  0
  3  7  2  0  0  0  0
  4  5  2  0  0  0  0
  4 11  1  0  0  0  0
  5  3  1  0  0  0  0
  7  9  1  0  0  0  0
  7  6  1  0  0  0  0
  8  1  1  6  0  0  0
  8  6  1  0  0  0  0
 10  3  1  0  0  0  0
 10  8  1  0  0  0  0
 11  2  1  0  0  0  0
 12 15  1  0  0  0  0
 13 17  1  0  0  0  0
 13 14  1  0  0  0  0
 14 15  2  0  0  0  0
 15  4  1  0  0  0  0
 16 17  1  0  0  0  0
 17 12  2  0  0  0  0
 19 18  2  0  0  0  0
 19  1  1  0  0  0  0
 20 25  1  1  0  0  0
 20 21  1  0  0  0  0
 20 18  1  0  0  0  0
 21 22  1  0  0  0  0
 23 24  1  0  0  0  0
 23 22  1  0  0  0  0
 26 25  1  0  0  0  0
 27 26  1  0  0  0  0
 29 28  1  0  0  0  0
 29 27  1  0  0  0  0
 30 33  1  0  0  0  0
 31 30  2  0  0  0  0
 31 32  1  0  0  0  0
 32 29  2  0  0  0  0
 33 28  2  0  0  0  0
M  END
>  <MODEL>
7

>  <REMARK>
 VINA RESULT:      -6.4      3.156      5.513
  Name = 
  11 active torsions:
  status: ('A' for Active; 'I' for Inactive)
    1  A    between atoms: C_2  and  N_29
    2  A    between atoms: C_4  and  C_22
    3  A    between atoms: C_5  and  N_29
    4  A    between atoms: C_5  and  C_31
    5  A    between atoms: C_8  and  C_31
    6  A    between atoms: C_9  and  C_17
    7  A    between atoms: C_9  and  C_18
    8  A    between atoms: C_11  and  C_31
    9  A    between atoms: C_11  and  N_33
   10  A    between atoms: C_14  and  C_26
   11  A    between atoms: C_26  and  N_33
                            x       y       z     vdW  Elec       q    Type
                         _______ _______ _______ _____ _____    ______ ____

>  <TORSDO>
F 11

$$$$
=
 OpenBabel11062421113D

 33 36  0  0  1  0  0  0  0  0999 V2000
  188.8730  176.7940  146.1900 C   0  0  0  0  0  2  0  0  0  0  0  0
  194.2930  176.4610  146.2030 C   0  0  0  0  0  3  0  0  0  0  0  0
  191.5850  175.4210  145.1590 C   0  0  0  0  0  0  0  0  0  0  0  0
  193.5990  176.1380  143.8490 C   0  0  0  0  0  0  0  0  0  0  0  0
  192.4670  175.4360  143.9750 C   0  0  0  0  0  3  0  0  0  0  0  0
  190.6880  175.2950  147.6300 S   0  0  0  0  0  0  0  0  0  0  0  0
  191.9740  175.5710  146.4270 C   0  0  0  0  0  0  0  0  0  0  0  0
  189.4480  175.3890  146.2930 C   0  0  2  0  0  3  0  0  0  0  0  0
  193.3560  175.8060  146.8890 C   0  0  0  0  0  3  0  0  0  0  0  0
  190.1570  175.0470  144.9920 C   0  0  0  0  0  2  0  0  0  0  0  0
  194.0260  177.1230  144.8930 C   0  0  0  0  0  2  0  0  0  0  0  0
  193.8940  175.5330  141.4490 N   0  0  0  0  0  0  0  0  0  0  0  0
  195.9950  176.1760  141.2680 O   0  0  0  0  0  0  0  0  0  0  0  0
  195.6720  176.4210  142.5020 N   0  0  0  0  0  0  0  0  0  0  0  0
  194.3840  176.0290  142.6080 C   0  0  0  0  0  0  0  0  0  0  0  0
  194.9720  175.2870  139.2730 N   0  0  0  0  0  1  0  0  0  0  0  0
  194.9660  175.6610  140.6470 C   0  0  0  0  0  0  0  0  0  0  0  0
  187.6460  177.5400  144.2120 C   0  0  0  0  0  3  0  0  0  0  0  0
  187.6580  176.8060  145.3250 C   0  0  0  0  0  3  0  0  0  0  0  0
  186.4480  177.6120  143.3060 C   0  0  1  0  0  3  0  0  0  0  0  0
  185.9380  179.0420  143.1330 C   0  0  0  0  0  2  0  0  0  0  0  0
  185.5040  179.6110  144.4030 N   0  0  0  0  0  2  0  0  0  0  0  0
  184.2020  179.0380  144.7030 C   0  0  0  0  0  2  0  0  0  0  0  0
  184.1770  178.5840  146.0240 O   0  0  0  0  0  1  0  0  0  0  0  0
  186.6880  176.9210  141.9660 C   0  0  0  0  0  2  0  0  0  0  0  0
  188.0910  176.5700  141.8300 N   0  0  0  0  0  2  0  0  0  0  0  0
  188.1620  175.4990  140.8500 C   0  0  0  0  0  2  0  0  0  0  0  0
  187.9910  173.3810  142.1790 C   0  0  0  0  0  3  0  0  0  0  0  0
  188.7760  174.2900  141.4670 C   0  0  0  0  0  0  0  0  0  0  0  0
  189.9000  172.0480  142.6510 C   0  0  0  0  0  3  0  0  0  0  0  0
  190.7200  172.9380  141.9560 C   0  0  0  0  0  3  0  0  0  0  0  0
  190.1500  174.0670  141.3640 C   0  0  0  0  0  3  0  0  0  0  0  0
  188.5640  172.2870  142.7500 N   0  0  0  0  0  0  0  0  0  0  0  0
  2  9  2  0  0  0  0
  3  7  2  0  0  0  0
  4  5  2  0  0  0  0
  4 11  1  0  0  0  0
  5  3  1  0  0  0  0
  7  9  1  0  0  0  0
  7  6  1  0  0  0  0
  8  1  1  6  0  0  0
  8  6  1  0  0  0  0
 10  3  1  0  0  0  0
 10  8  1  0  0  0  0
 11  2  1  0  0  0  0
 12 15  1  0  0  0  0
 13 14  1  0  0  0  0
 14 15  2  0  0  0  0
 15  4  1  0  0  0  0
 16 17  1  0  0  0  0
 17 13  1  0  0  0  0
 17 12  2  0  0  0  0
 18 19  2  0  0  0  0
 19  1  1  0  0  0  0
 20 25  1  6  0  0  0
 20 18  1  0  0  0  0
 21 20  1  0  0  0  0
 21 22  1  0  0  0  0
 22 23  1  0  0  0  0
 23 24  1  0  0  0  0
 26 25  1  0  0  0  0
 27 29  1  0  0  0  0
 27 26  1  0  0  0  0
 28 33  1  0  0  0  0
 29 28  2  0  0  0  0
 30 33  2  0  0  0  0
 31 30  1  0  0  0  0
 32 29  1  0  0  0  0
 32 31  2  0  0  0  0
M  END
>  <MODEL>
8

>  <REMARK>
 VINA RESULT:      -6.3      2.912      6.640
  Name = 
  11 active torsions:
  status: ('A' for Active; 'I' for Inactive)
    1  A    between atoms: C_2  and  N_29
    2  A    between atoms: C_4  and  C_22
    3  A    between atoms: C_5  and  N_29
    4  A    between atoms: C_5  and  C_31
    5  A    between atoms: C_8  and  C_31
    6  A    between atoms: C_9  and  C_17
    7  A    between atoms: C_9  and  C_18
    8  A    between atoms: C_11  and  C_31
    9  A    between atoms: C_11  and  N_33
   10  A    between atoms: C_14  and  C_26
   11  A    between atoms: C_26  and  N_33
                            x       y       z     vdW  Elec       q    Type
                         _______ _______ _______ _____ _____    ______ ____

>  <TORSDO>
F 11

$$$$
=
 OpenBabel11062421113D

 33 36  0  0  1  0  0  0  0  0999 V2000
  184.7210  178.9250  145.1300 C   0  0  0  0  0  2  0  0  0  0  0  0
  189.6200  178.0190  147.2920 C   0  0  0  0  0  3  0  0  0  0  0  0
  186.8860  176.9170  146.3900 C   0  0  0  0  0  0  0  0  0  0  0  0
  189.1800  176.1070  145.7830 C   0  0  0  0  0  0  0  0  0  0  0  0
  187.8670  175.9070  145.9440 C   0  0  0  0  0  3  0  0  0  0  0  0
  185.6780  178.8410  147.7180 S   0  0  0  0  0  0  0  0  0  0  0  0
  187.1280  177.9300  147.2240 C   0  0  0  0  0  0  0  0  0  0  0  0
  184.7430  178.0410  146.3680 C   0  0  2  0  0  3  0  0  0  0  0  0
  188.4280  178.2510  147.8440 C   0  0  0  0  0  3  0  0  0  0  0  0
  185.4540  176.7380  146.0350 C   0  0  0  0  0  2  0  0  0  0  0  0
  189.7820  177.4720  145.9140 C   0  0  0  0  0  2  0  0  0  0  0  0
  191.2560  175.1440  144.7960 N   0  0  0  0  0  0  0  0  0  0  0  0
  190.6940  173.0230  145.0070 O   0  0  0  0  0  0  0  0  0  0  0  0
  189.6850  173.6900  145.4820 N   0  0  0  0  0  0  0  0  0  0  0  0
  190.0340  174.9880  145.3540 C   0  0  0  0  0  0  0  0  0  0  0  0
  192.8610  173.4650  144.0450 N   0  0  0  0  0  1  0  0  0  0  0  0
  191.6140  173.8620  144.6070 C   0  0  0  0  0  0  0  0  0  0  0  0
  185.5230  178.3840  142.8860 C   0  0  0  0  0  3  0  0  0  0  0  0
  184.6940  178.0980  143.8890 C   0  0  0  0  0  3  0  0  0  0  0  0
  185.5350  177.6030  141.6010 C   0  0  1  0  0  3  0  0  0  0  0  0
  184.8430  178.3510  140.4620 C   0  0  0  0  0  2  0  0  0  0  0  0
  183.5210  177.8000  140.1880 N   0  0  0  0  0  2  0  0  0  0  0  0
  182.5550  178.6670  140.8440 C   0  0  0  0  0  2  0  0  0  0  0  0
  181.4450  177.9200  141.2440 O   0  0  0  0  0  1  0  0  0  0  0  0
  186.9360  177.1370  141.2140 C   0  0  0  0  0  2  0  0  0  0  0  0
  187.4010  176.1260  142.1480 N   0  0  0  0  0  2  0  0  0  0  0  0
  188.8320  175.9870  141.9390 C   0  0  0  0  0  2  0  0  0  0  0  0
  188.3640  173.5650  142.3800 C   0  0  0  0  0  3  0  0  0  0  0  0
  189.1880  174.5450  141.8240 C   0  0  0  0  0  0  0  0  0  0  0  0
  189.8430  171.8550  141.6510 C   0  0  0  0  0  3  0  0  0  0  0  0
  190.6980  172.8060  141.0900 C   0  0  0  0  0  3  0  0  0  0  0  0
  190.3650  174.1580  141.1820 C   0  0  0  0  0  3  0  0  0  0  0  0
  188.7040  172.2510  142.2810 N   0  0  0  0  0  0  0  0  0  0  0  0
  2  9  2  0  0  0  0
  3  7  2  0  0  0  0
  4 11  1  0  0  0  0
  4  5  2  0  0  0  0
  5  3  1  0  0  0  0
  7  6  1  0  0  0  0
  7  9  1  0  0  0  0
  8  1  1  6  0  0  0
  8  6  1  0  0  0  0
 10  8  1  0  0  0  0
 10  3  1  0  0  0  0
 11  2  1  0  0  0  0
 12 15  1  0  0  0  0
 13 14  1  0  0  0  0
 15 14  2  0  0  0  0
 15  4  1  0  0  0  0
 16 17  1  0  0  0  0
 17 12  2  0  0  0  0
 17 13  1  0  0  0  0
 18 19  2  0  0  0  0
 19  1  1  0  0  0  0
 20 21  1  6  0  0  0
 20 18  1  0  0  0  0
 22 21  1  0  0  0  0
 22 23  1  0  0  0  0
 23 24  1  0  0  0  0
 25 20  1  0  0  0  0
 25 26  1  0  0  0  0
 27 26  1  0  0  0  0
 29 27  1  0  0  0  0
 29 28  2  0  0  0  0
 30 33  2  0  0  0  0
 31 32  2  0  0  0  0
 31 30  1  0  0  0  0
 32 29  1  0  0  0  0
 33 28  1  0  0  0  0
M  END
>  <MODEL>
9

>  <REMARK>
 VINA RESULT:      -6.3      3.255      6.246
  Name = 
  11 active torsions:
  status: ('A' for Active; 'I' for Inactive)
    1  A    between atoms: C_2  and  N_29
    2  A    between atoms: C_4  and  C_22
    3  A    between atoms: C_5  and  N_29
    4  A    between atoms: C_5  and  C_31
    5  A    between atoms: C_8  and  C_31
    6  A    between atoms: C_9  and  C_17
    7  A    between atoms: C_9  and  C_18
    8  A    between atoms: C_11  and  C_31
    9  A    between atoms: C_11  and  N_33
   10  A    between atoms: C_14  and  C_26
   11  A    between atoms: C_26  and  N_33
                            x       y       z     vdW  Elec       q    Type
                         _______ _______ _______ _____ _____    ______ ____

>  <TORSDO>
F 11

$$$$
