=
 OpenBabel11062422233D

 41 44  0  0  1  0  0  0  0  0999 V2000
  194.5310  175.6730  146.2490 C   0  0  0  0  0  2  0  0  0  0  0  0
  195.7030  174.7410  146.0190 C   0  0  0  0  0  2  0  0  0  0  0  0
  195.3500  173.6880  144.9800 C   0  0  0  0  0  2  0  0  0  0  0  0
  196.5500  172.8750  142.9390 C   0  0  0  0  0  1  0  0  0  0  0  0
  195.8830  174.0680  143.6020 C   0  0  1  0  0  3  0  0  0  0  0  0
  194.8100  174.7250  142.7060 C   0  0  2  0  0  3  0  0  0  0  0  0
  193.2130  174.7620  140.7050 C   0  0  0  0  0  2  0  0  0  0  0  0
  193.0410  173.3500  141.2330 C   0  0  1  0  0  3  0  0  0  0  0  0
  194.4020  174.0740  141.3520 C   0  0  2  0  0  3  0  0  0  0  0  0
  192.2090  173.2960  142.5250 C   0  0  1  0  0  3  0  0  0  0  0  0
  188.6810  174.2450  143.2350 F   0  0  0  0  0  0  0  0  0  0  0  0
  190.8340  173.9180  142.3690 C   0  0  0  0  0  0  0  0  0  0  0  0
  191.0450  171.6730  144.1740 C   0  0  0  0  0  2  0  0  0  0  0  0
  192.0340  171.8330  142.9920 C   0  0  2  0  0  3  0  0  0  0  0  0
  190.4650  174.5620  141.2270 F   0  0  0  0  0  0  0  0  0  0  0  0
  189.9450  173.7640  143.3600 C   0  0  0  0  0  0  0  0  0  0  0  0
  190.3330  172.9730  144.5760 C   0  0  0  0  0  2  0  0  0  0  0  0
  193.3640  171.1750  143.3350 C   0  0  0  0  0  2  0  0  0  0  0  0
  193.3250  170.6560  144.6300 O   0  0  0  0  0  1  0  0  0  0  0  0
  194.9290  176.1170  142.6630 O   0  0  0  0  0  0  0  0  0  0  0  0
  196.2900  176.3570  142.4560 C   0  0  0  0  0  1  0  0  0  0  0  0
  193.2410  174.9730  145.8650 C   0  0  0  0  0  2  0  0  0  0  0  0
  192.1800  175.9940  145.4760 C   0  0  0  0  0  2  0  0  0  0  0  0
  191.4400  176.4440  146.6480 N   0  0  0  0  0  2  0  0  0  0  0  0
  188.0700  177.0480  145.5660 C   0  0  0  0  0  0  0  0  0  0  0  0
  184.1050  178.5850  142.7820 O   0  0  0  0  0  1  0  0  0  0  0  0
  190.3400  177.2810  146.1850 C   0  0  2  0  0  3  0  0  0  0  0  0
  186.0440  177.2450  144.2870 C   0  0  0  0  0  3  0  0  0  0  0  0
  188.7920  177.2700  144.4220 C   0  0  0  0  0  0  0  0  0  0  0  0
  188.9130  175.0790  147.2230 S   0  0  0  0  0  1  0  0  0  0  0  0
  188.9600  176.8440  146.7400 C   0  0  2  0  0  3  0  0  0  0  0  0
  186.1920  177.6720  141.8430 N   0  0  0  0  0  0  0  0  0  0  0  0
  186.6720  177.0400  145.5240 C   0  0  0  0  0  0  0  0  0  0  0  0
  186.8170  177.4740  143.1280 C   0  0  0  0  0  0  0  0  0  0  0  0
  190.2490  177.2790  144.6540 C   0  0  0  0  0  2  0  0  0  0  0  0
  184.2830  178.1070  140.5570 O   0  0  0  0  0  0  0  0  0  0  0  0
  186.9820  177.4360  140.6410 C   0  0  0  0  0  1  0  0  0  0  0  0
  184.8300  178.1160  141.6920 C   0  0  0  0  0  0  0  0  0  0  0  0
  188.1820  177.4730  143.2250 N   0  0  0  0  0  0  0  0  0  0  0  0
  185.8520  176.7880  146.7420 C   0  0  0  0  0  2  0  0  0  0  0  0
  184.5100  176.7730  146.4050 F   0  0  0  0  0  0  0  0  0  0  0  0
  2  1  1  0  0  0  0
  3  2  1  0  0  0  0
  5  4  1  6  0  0  0
  5  3  1  0  0  0  0
  6 20  1  6  0  0  0
  6  5  1  0  0  0  0
  7  9  1  0  0  0  0
  8  7  1  6  0  0  0
  8  9  1  0  0  0  0
  8 10  1  0  0  0  0
  9  6  1  1  0  0  0
 10 12  1  6  0  0  0
 10 14  1  0  0  0  0
 11 16  1  0  0  0  0
 12 16  2  0  0  0  0
 13 17  1  0  0  0  0
 14 18  1  1  0  0  0
 14 13  1  0  0  0  0
 15 12  1  0  0  0  0
 16 17  1  0  0  0  0
 18 19  1  0  0  0  0
 21 20  1  0  0  0  0
 22  1  1  0  0  0  0
 23 22  1  0  0  0  0
 23 24  1  0  0  0  0
 25 31  1  0  0  0  0
 27 24  1  6  0  0  0
 27 31  1  0  0  0  0
 28 33  2  0  0  0  0
 29 35  1  0  0  0  0
 29 25  2  0  0  0  0
 31 30  1  6  0  0  0
 32 34  1  0  0  0  0
 33 25  1  0  0  0  0
 33 40  1  0  0  0  0
 34 39  2  0  0  0  0
 34 28  1  0  0  0  0
 35 27  1  0  0  0  0
 36 38  2  0  0  0  0
 37 32  1  0  0  0  0
 38 32  1  0  0  0  0
 38 26  1  0  0  0  0
 39 29  1  0  0  0  0
 41 40  1  0  0  0  0
M  END
>  <MODEL>
1

>  <REMARK>
 VINA RESULT:      -6.8      0.000      0.000
  Name = 
  13 active torsions:
  status: ('A' for Active; 'I' for Inactive)
    1  A    between atoms: C_3  and  C_26
    2  A    between atoms: C_4  and  C_25
    3  A    between atoms: C_5  and  N_33
    4  A    between atoms: C_5  and  C_41
    5  A    between atoms: C_6  and  C_17
    6  A    between atoms: C_10  and  N_33
    7  A    between atoms: O_16  and  C_22
    8  A    between atoms: C_21  and  C_38
    9  A    between atoms: C_21  and  C_40
   10  A    between atoms: C_22  and  C_32
   11  A    between atoms: C_22  and  C_36
   12  A    between atoms: C_32  and  C_40
   13  A    between atoms: C_38  and  C_41
                            x       y       z     vdW  Elec       q    Type
                         _______ _______ _______ _____ _____    ______ ____

>  <TORSDO>
F 13

$$$$
=
 OpenBabel11062422233D

 41 44  0  0  1  0  0  0  0  0999 V2000
  194.7250  175.2590  145.7490 C   0  0  0  0  0  2  0  0  0  0  0  0
  193.8700  174.0280  145.5260 C   0  0  0  0  0  2  0  0  0  0  0  0
  193.7100  173.7540  144.0390 C   0  0  0  0  0  2  0  0  0  0  0  0
  193.5260  171.4140  144.9080 C   0  0  0  0  0  1  0  0  0  0  0  0
  193.9190  172.2770  143.7210 C   0  0  1  0  0  3  0  0  0  0  0  0
  193.2240  171.8420  142.4130 C   0  0  2  0  0  3  0  0  0  0  0  0
  191.7560  170.2910  140.9990 C   0  0  0  0  0  2  0  0  0  0  0  0
  190.7860  170.7830  142.0580 C   0  0  1  0  0  3  0  0  0  0  0  0
  192.2860  170.6000  142.3890 C   0  0  2  0  0  3  0  0  0  0  0  0
  190.3360  172.2340  141.8240 C   0  0  1  0  0  3  0  0  0  0  0  0
  188.2920  173.7850  139.1280 F   0  0  0  0  0  0  0  0  0  0  0  0
  189.6150  172.4240  140.5030 C   0  0  0  0  0  0  0  0  0  0  0  0
  188.7460  174.0790  142.7040 C   0  0  0  0  0  2  0  0  0  0  0  0
  189.4010  172.6990  142.9630 C   0  0  2  0  0  3  0  0  0  0  0  0
  189.5140  171.4170  139.5920 F   0  0  0  0  0  0  0  0  0  0  0  0
  189.0080  173.5950  140.2670 C   0  0  0  0  0  0  0  0  0  0  0  0
  189.0480  174.6670  141.3180 C   0  0  0  0  0  2  0  0  0  0  0  0
  190.0990  172.7010  144.3170 C   0  0  0  0  0  2  0  0  0  0  0  0
  189.4380  171.8440  145.2000 O   0  0  0  0  0  1  0  0  0  0  0  0
  194.0640  171.9500  141.3000 O   0  0  0  0  0  0  0  0  0  0  0  0
  195.2770  171.3870  141.7070 C   0  0  0  0  0  1  0  0  0  0  0  0
  193.9230  176.3060  146.4980 C   0  0  0  0  0  2  0  0  0  0  0  0
  192.6370  176.6270  145.7470 C   0  0  0  0  0  2  0  0  0  0  0  0
  191.4700  176.3020  146.5570 N   0  0  0  0  0  2  0  0  0  0  0  0
  188.0920  177.0550  145.6010 C   0  0  0  0  0  0  0  0  0  0  0  0
  184.0990  178.8060  142.9880 O   0  0  0  0  0  1  0  0  0  0  0  0
  190.3880  177.1900  146.1510 C   0  0  2  0  0  3  0  0  0  0  0  0
  186.0350  177.3580  144.3940 C   0  0  0  0  0  3  0  0  0  0  0  0
  188.7840  177.2810  144.4400 C   0  0  0  0  0  0  0  0  0  0  0  0
  188.9140  175.0130  147.1790 S   0  0  0  0  0  1  0  0  0  0  0  0
  189.0100  176.7870  146.7390 C   0  0  2  0  0  3  0  0  0  0  0  0
  186.1210  177.8440  141.9590 N   0  0  0  0  0  0  0  0  0  0  0  0
  186.6940  177.0980  145.6040 C   0  0  0  0  0  0  0  0  0  0  0  0
  186.7780  177.5900  143.2170 C   0  0  0  0  0  0  0  0  0  0  0  0
  190.2480  177.2310  144.6250 C   0  0  0  0  0  2  0  0  0  0  0  0
  184.1890  178.3820  140.7470 O   0  0  0  0  0  0  0  0  0  0  0  0
  186.8630  177.6130  140.7260 C   0  0  0  0  0  1  0  0  0  0  0  0
  184.7710  178.3400  141.8630 C   0  0  0  0  0  0  0  0  0  0  0  0
  188.1450  177.5370  143.2690 N   0  0  0  0  0  0  0  0  0  0  0  0
  185.9040  176.8430  146.8420 C   0  0  0  0  0  2  0  0  0  0  0  0
  184.6230  176.4460  146.5030 F   0  0  0  0  0  0  0  0  0  0  0  0
  1 22  1  0  0  0  0
  2  1  1  0  0  0  0
  3  2  1  0  0  0  0
  5  3  1  0  0  0  0
  5  4  1  1  0  0  0
  6 20  1  6  0  0  0
  6  5  1  0  0  0  0
  7  9  1  0  0  0  0
  8  7  1  6  0  0  0
  8  9  1  0  0  0  0
  9  6  1  6  0  0  0
 10 12  1  6  0  0  0
 10  8  1  0  0  0  0
 10 14  1  0  0  0  0
 11 16  1  0  0  0  0
 13 14  1  0  0  0  0
 14 18  1  1  0  0  0
 15 12  1  0  0  0  0
 16 12  2  0  0  0  0
 16 17  1  0  0  0  0
 17 13  1  0  0  0  0
 18 19  1  0  0  0  0
 20 21  1  0  0  0  0
 23 22  1  0  0  0  0
 23 24  1  0  0  0  0
 25 33  1  0  0  0  0
 25 31  1  0  0  0  0
 27 24  1  6  0  0  0
 27 31  1  0  0  0  0
 28 33  2  0  0  0  0
 29 35  1  0  0  0  0
 29 25  2  0  0  0  0
 31 30  1  6  0  0  0
 32 34  1  0  0  0  0
 33 40  1  0  0  0  0
 34 39  2  0  0  0  0
 34 28  1  0  0  0  0
 35 27  1  0  0  0  0
 36 38  2  0  0  0  0
 37 32  1  0  0  0  0
 38 32  1  0  0  0  0
 38 26  1  0  0  0  0
 39 29  1  0  0  0  0
 41 40  1  0  0  0  0
M  END
>  <MODEL>
2

>  <REMARK>
 VINA RESULT:      -6.6      1.795      2.538
  Name = 
  13 active torsions:
  status: ('A' for Active; 'I' for Inactive)
    1  A    between atoms: C_3  and  C_26
    2  A    between atoms: C_4  and  C_25
    3  A    between atoms: C_5  and  N_33
    4  A    between atoms: C_5  and  C_41
    5  A    between atoms: C_6  and  C_17
    6  A    between atoms: C_10  and  N_33
    7  A    between atoms: O_16  and  C_22
    8  A    between atoms: C_21  and  C_38
    9  A    between atoms: C_21  and  C_40
   10  A    between atoms: C_22  and  C_32
   11  A    between atoms: C_22  and  C_36
   12  A    between atoms: C_32  and  C_40
   13  A    between atoms: C_38  and  C_41
                            x       y       z     vdW  Elec       q    Type
                         _______ _______ _______ _____ _____    ______ ____

>  <TORSDO>
F 13

$$$$
=
 OpenBabel11062422233D

 41 44  0  0  1  0  0  0  0  0999 V2000
  194.2270  174.8660  145.8770 C   0  0  0  0  0  2  0  0  0  0  0  0
  195.0860  173.7130  145.4020 C   0  0  0  0  0  2  0  0  0  0  0  0
  194.5780  173.1850  144.0690 C   0  0  0  0  0  2  0  0  0  0  0  0
  194.2200  171.2430  145.6070 C   0  0  0  0  0  1  0  0  0  0  0  0
  193.9440  171.8060  144.2230 C   0  0  1  0  0  3  0  0  0  0  0  0
  192.4430  171.7930  143.8640 C   0  0  2  0  0  3  0  0  0  0  0  0
  190.0350  172.4520  144.4330 C   0  0  0  0  0  2  0  0  0  0  0  0
  190.4510  173.5440  143.4650 C   0  0  1  0  0  3  0  0  0  0  0  0
  191.4880  172.8940  144.4110 C   0  0  2  0  0  3  0  0  0  0  0  0
  190.4970  173.0600  142.0070 C   0  0  1  0  0  3  0  0  0  0  0  0
  187.7890  172.2330  139.5910 F   0  0  0  0  0  0  0  0  0  0  0  0
  189.1260  172.7220  141.4530 C   0  0  0  0  0  0  0  0  0  0  0  0
  191.0430  173.8120  139.5890 C   0  0  0  0  0  2  0  0  0  0  0  0
  191.1380  174.1360  141.1010 C   0  0  2  0  0  3  0  0  0  0  0  0
  188.0130  172.7330  142.2390 F   0  0  0  0  0  0  0  0  0  0  0  0
  189.0070  172.4730  140.1420 C   0  0  0  0  0  0  0  0  0  0  0  0
  190.2260  172.5520  139.2680 C   0  0  0  0  0  2  0  0  0  0  0  0
  192.5850  174.4220  141.4820 C   0  0  0  0  0  2  0  0  0  0  0  0
  193.4390  173.5350  140.8260 O   0  0  0  0  0  1  0  0  0  0  0  0
  191.9020  170.5040  143.8750 O   0  0  0  0  0  0  0  0  0  0  0  0
  192.3390  169.9180  142.6840 C   0  0  0  0  0  1  0  0  0  0  0  0
  193.8300  175.7270  144.6940 C   0  0  0  0  0  2  0  0  0  0  0  0
  192.9190  176.8620  145.1460 C   0  0  0  0  0  2  0  0  0  0  0  0
  191.7670  176.3420  145.8720 N   0  0  0  0  0  2  0  0  0  0  0  0
  188.2880  177.0690  145.3580 C   0  0  0  0  0  0  0  0  0  0  0  0
  183.9770  178.7600  143.2620 O   0  0  0  0  0  1  0  0  0  0  0  0
  190.6360  177.2190  145.5970 C   0  0  2  0  0  3  0  0  0  0  0  0
  186.0880  177.3440  144.4270 C   0  0  0  0  0  3  0  0  0  0  0  0
  188.8200  177.2740  144.1110 C   0  0  0  0  0  0  0  0  0  0  0  0
  189.3210  175.0600  146.8510 S   0  0  0  0  0  1  0  0  0  0  0  0
  189.3500  176.8250  146.3690 C   0  0  2  0  0  3  0  0  0  0  0  0
  185.8500  177.7840  141.9930 N   0  0  0  0  0  0  0  0  0  0  0  0
  186.9030  177.1090  145.5440 C   0  0  0  0  0  0  0  0  0  0  0  0
  186.6690  177.5550  143.1580 C   0  0  0  0  0  0  0  0  0  0  0  0
  190.2960  177.2310  144.1020 C   0  0  0  0  0  2  0  0  0  0  0  0
  183.7720  178.2930  141.0370 O   0  0  0  0  0  0  0  0  0  0  0  0
  186.4240  177.5300  140.6770 C   0  0  0  0  0  1  0  0  0  0  0  0
  184.4970  178.2750  142.0670 C   0  0  0  0  0  0  0  0  0  0  0  0
  188.0310  177.5060  143.0300 N   0  0  0  0  0  0  0  0  0  0  0  0
  186.2850  176.8760  146.8800 C   0  0  0  0  0  2  0  0  0  0  0  0
  184.9800  176.4430  146.7210 F   0  0  0  0  0  0  0  0  0  0  0  0
  2  1  1  0  0  0  0
  3  5  1  0  0  0  0
  3  2  1  0  0  0  0
  5  4  1  1  0  0  0
  6 20  1  1  0  0  0
  6  5  1  0  0  0  0
  8  9  1  0  0  0  0
  8  7  1  1  0  0  0
  9  6  1  6  0  0  0
  9  7  1  0  0  0  0
 10 12  1  6  0  0  0
 10  8  1  0  0  0  0
 11 16  1  0  0  0  0
 12 15  1  0  0  0  0
 13 14  1  0  0  0  0
 14 18  1  1  0  0  0
 14 10  1  0  0  0  0
 16 12  2  0  0  0  0
 17 13  1  0  0  0  0
 17 16  1  0  0  0  0
 19 18  1  0  0  0  0
 21 20  1  0  0  0  0
 22 23  1  0  0  0  0
 22  1  1  0  0  0  0
 23 24  1  0  0  0  0
 25 33  1  0  0  0  0
 25 31  1  0  0  0  0
 27 24  1  6  0  0  0
 27 31  1  0  0  0  0
 28 33  2  0  0  0  0
 29 25  2  0  0  0  0
 31 30  1  6  0  0  0
 32 38  1  0  0  0  0
 32 34  1  0  0  0  0
 33 40  1  0  0  0  0
 34 28  1  0  0  0  0
 35 29  1  0  0  0  0
 35 27  1  0  0  0  0
 36 38  2  0  0  0  0
 37 32  1  0  0  0  0
 38 26  1  0  0  0  0
 39 34  2  0  0  0  0
 39 29  1  0  0  0  0
 41 40  1  0  0  0  0
M  END
>  <MODEL>
3

>  <REMARK>
 VINA RESULT:      -6.5      1.535      2.976
  Name = 
  13 active torsions:
  status: ('A' for Active; 'I' for Inactive)
    1  A    between atoms: C_3  and  C_26
    2  A    between atoms: C_4  and  C_25
    3  A    between atoms: C_5  and  N_33
    4  A    between atoms: C_5  and  C_41
    5  A    between atoms: C_6  and  C_17
    6  A    between atoms: C_10  and  N_33
    7  A    between atoms: O_16  and  C_22
    8  A    between atoms: C_21  and  C_38
    9  A    between atoms: C_21  and  C_40
   10  A    between atoms: C_22  and  C_32
   11  A    between atoms: C_22  and  C_36
   12  A    between atoms: C_32  and  C_40
   13  A    between atoms: C_38  and  C_41
                            x       y       z     vdW  Elec       q    Type
                         _______ _______ _______ _____ _____    ______ ____

>  <TORSDO>
F 13

$$$$
=
 OpenBabel11062422233D

 41 44  0  0  1  0  0  0  0  0999 V2000
  192.8150  174.1370  144.3650 C   0  0  0  0  0  2  0  0  0  0  0  0
  193.6840  174.4200  143.1570 C   0  0  0  0  0  2  0  0  0  0  0  0
  194.5310  173.2040  142.8140 C   0  0  0  0  0  2  0  0  0  0  0  0
  194.9720  171.5770  140.9630 C   0  0  0  0  0  1  0  0  0  0  0  0
  194.6570  173.0240  141.3040 C   0  0  1  0  0  3  0  0  0  0  0  0
  193.4340  173.5650  140.5330 C   0  0  2  0  0  3  0  0  0  0  0  0
  191.4340  173.3380  138.9490 C   0  0  0  0  0  2  0  0  0  0  0  0
  191.1760  172.2370  139.9600 C   0  0  1  0  0  3  0  0  0  0  0  0
  192.6220  172.6350  139.5840 C   0  0  2  0  0  3  0  0  0  0  0  0
  190.6750  172.7750  141.3110 C   0  0  1  0  0  3  0  0  0  0  0  0
  187.5980  174.6530  142.2360 F   0  0  0  0  0  0  0  0  0  0  0  0
  189.4120  173.6040  141.1850 C   0  0  0  0  0  0  0  0  0  0  0  0
  189.7060  172.0500  143.6000 C   0  0  0  0  0  2  0  0  0  0  0  0
  190.3990  171.6090  142.2870 C   0  0  2  0  0  3  0  0  0  0  0  0
  188.8830  173.9240  139.9710 F   0  0  0  0  0  0  0  0  0  0  0  0
  188.7700  173.9690  142.3030 C   0  0  0  0  0  0  0  0  0  0  0  0
  189.3120  173.5340  143.6340 C   0  0  0  0  0  2  0  0  0  0  0  0
  191.6590  170.8140  142.6060 C   0  0  0  0  0  2  0  0  0  0  0  0
  191.9590  170.9120  143.9650 O   0  0  0  0  0  1  0  0  0  0  0  0
  193.6430  174.8540  140.0350 O   0  0  0  0  0  0  0  0  0  0  0  0
  194.8710  174.7900  139.3700 C   0  0  0  0  0  1  0  0  0  0  0  0
  193.3170  174.9360  145.5520 C   0  0  0  0  0  2  0  0  0  0  0  0
  192.5980  176.2760  145.6310 C   0  0  0  0  0  2  0  0  0  0  0  0
  191.6000  176.2670  146.6930 N   0  0  0  0  0  2  0  0  0  0  0  0
  188.2330  176.9750  145.6650 C   0  0  0  0  0  0  0  0  0  0  0  0
  184.2770  178.7220  142.9940 O   0  0  0  0  0  1  0  0  0  0  0  0
  190.5090  177.1430  146.2850 C   0  0  2  0  0  3  0  0  0  0  0  0
  186.2050  177.2720  144.4080 C   0  0  0  0  0  3  0  0  0  0  0  0
  188.9530  177.2550  144.5320 C   0  0  0  0  0  0  0  0  0  0  0  0
  189.0580  174.9010  147.1980 S   0  0  0  0  0  1  0  0  0  0  0  0
  189.1250  176.6900  146.8200 C   0  0  2  0  0  3  0  0  0  0  0  0
  186.3490  177.8410  141.9940 N   0  0  0  0  0  0  0  0  0  0  0  0
  186.8360  176.9870  145.6280 C   0  0  0  0  0  0  0  0  0  0  0  0
  186.9760  177.5590  143.2610 C   0  0  0  0  0  0  0  0  0  0  0  0
  190.4120  177.2320  144.7580 C   0  0  0  0  0  2  0  0  0  0  0  0
  184.4400  178.3750  140.7440 O   0  0  0  0  0  0  0  0  0  0  0  0
  187.1320  177.6670  140.7760 C   0  0  0  0  0  1  0  0  0  0  0  0
  184.9920  178.3100  141.8750 C   0  0  0  0  0  0  0  0  0  0  0  0
  188.3420  177.5360  143.3520 N   0  0  0  0  0  0  0  0  0  0  0  0
  186.0170  176.6730  146.8330 C   0  0  0  0  0  2  0  0  0  0  0  0
  184.6880  176.5380  146.4720 F   0  0  0  0  0  0  0  0  0  0  0  0
  1 22  1  0  0  0  0
  2  1  1  0  0  0  0
  3  2  1  0  0  0  0
  5  4  1  1  0  0  0
  5  3  1  0  0  0  0
  6 20  1  6  0  0  0
  6  5  1  0  0  0  0
  7  9  1  0  0  0  0
  8  7  1  6  0  0  0
  8 10  1  0  0  0  0
  9  8  1  0  0  0  0
  9  6  1  1  0  0  0
 10 12  1  6  0  0  0
 10 14  1  0  0  0  0
 11 16  1  0  0  0  0
 12 16  2  0  0  0  0
 13 17  1  0  0  0  0
 14 18  1  1  0  0  0
 14 13  1  0  0  0  0
 15 12  1  0  0  0  0
 16 17  1  0  0  0  0
 18 19  1  0  0  0  0
 21 20  1  0  0  0  0
 22 23  1  0  0  0  0
 23 24  1  0  0  0  0
 25 31  1  0  0  0  0
 27 24  1  6  0  0  0
 27 31  1  0  0  0  0
 28 33  2  0  0  0  0
 29 35  1  0  0  0  0
 29 25  2  0  0  0  0
 31 30  1  6  0  0  0
 32 34  1  0  0  0  0
 33 25  1  0  0  0  0
 33 40  1  0  0  0  0
 34 39  2  0  0  0  0
 34 28  1  0  0  0  0
 35 27  1  0  0  0  0
 36 38  2  0  0  0  0
 37 32  1  0  0  0  0
 38 32  1  0  0  0  0
 38 26  1  0  0  0  0
 39 29  1  0  0  0  0
 41 40  1  0  0  0  0
M  END
>  <MODEL>
4

>  <REMARK>
 VINA RESULT:      -6.4      1.348      1.781
  Name = 
  13 active torsions:
  status: ('A' for Active; 'I' for Inactive)
    1  A    between atoms: C_3  and  C_26
    2  A    between atoms: C_4  and  C_25
    3  A    between atoms: C_5  and  N_33
    4  A    between atoms: C_5  and  C_41
    5  A    between atoms: C_6  and  C_17
    6  A    between atoms: C_10  and  N_33
    7  A    between atoms: O_16  and  C_22
    8  A    between atoms: C_21  and  C_38
    9  A    between atoms: C_21  and  C_40
   10  A    between atoms: C_22  and  C_32
   11  A    between atoms: C_22  and  C_36
   12  A    between atoms: C_32  and  C_40
   13  A    between atoms: C_38  and  C_41
                            x       y       z     vdW  Elec       q    Type
                         _______ _______ _______ _____ _____    ______ ____

>  <TORSDO>
F 13

$$$$
=
 OpenBabel11062422233D

 41 44  0  0  1  0  0  0  0  0999 V2000
  193.7120  174.1580  139.8800 C   0  0  0  0  0  2  0  0  0  0  0  0
  194.4370  174.2660  141.2060 C   0  0  0  0  0  2  0  0  0  0  0  0
  195.8140  173.6250  141.1130 C   0  0  0  0  0  2  0  0  0  0  0  0
  197.2280  171.8170  142.1110 C   0  0  0  0  0  1  0  0  0  0  0  0
  195.8170  172.2280  141.7230 C   0  0  1  0  0  3  0  0  0  0  0  0
  194.8130  172.0790  142.8860 C   0  0  2  0  0  3  0  0  0  0  0  0
  194.1900  171.7990  145.3540 C   0  0  0  0  0  2  0  0  0  0  0  0
  195.2490  172.8840  145.4070 C   0  0  1  0  0  3  0  0  0  0  0  0
  195.3120  171.7770  144.3300 C   0  0  2  0  0  3  0  0  0  0  0  0
  194.7270  174.2470  144.9200 C   0  0  1  0  0  3  0  0  0  0  0  0
  192.1170  176.5240  146.2800 F   0  0  0  0  0  0  0  0  0  0  0  0
  193.5480  174.7510  145.7290 C   0  0  0  0  0  0  0  0  0  0  0  0
  195.3600  176.7480  144.6950 C   0  0  0  0  0  2  0  0  0  0  0  0
  195.8510  175.3070  144.9790 C   0  0  2  0  0  3  0  0  0  0  0  0
  192.9610  173.9880  146.6920 F   0  0  0  0  0  0  0  0  0  0  0  0
  193.1250  176.0070  145.5300 C   0  0  0  0  0  0  0  0  0  0  0  0
  193.8380  176.8720  144.5310 C   0  0  0  0  0  2  0  0  0  0  0  0
  197.0160  174.9630  144.0610 C   0  0  0  0  0  2  0  0  0  0  0  0
  197.3420  176.0630  143.2650 O   0  0  0  0  0  1  0  0  0  0  0  0
  193.6640  171.3740  142.5140 O   0  0  0  0  0  0  0  0  0  0  0  0
  194.1290  170.3090  141.7390 C   0  0  0  0  0  1  0  0  0  0  0  0
  192.2410  173.8820  140.1260 C   0  0  0  0  0  2  0  0  0  0  0  0
  191.9290  173.9550  141.6150 C   0  0  0  0  0  2  0  0  0  0  0  0
  190.4900  173.9960  141.8410 N   0  0  0  0  0  2  0  0  0  0  0  0
  189.0850  175.3770  144.8430 C   0  0  0  0  0  0  0  0  0  0  0  0
  186.4870  178.3930  148.0030 O   0  0  0  0  0  1  0  0  0  0  0  0
  190.2200  175.0670  142.7920 C   0  0  2  0  0  3  0  0  0  0  0  0
  187.6200  176.3300  146.4950 C   0  0  0  0  0  3  0  0  0  0  0  0
  188.3470  175.9890  143.8630 C   0  0  0  0  0  0  0  0  0  0  0  0
  189.8300  172.8060  144.4350 S   0  0  0  0  0  1  0  0  0  0  0  0
  190.2070  174.5890  144.2680 C   0  0  2  0  0  3  0  0  0  0  0  0
  185.7200  177.7490  145.7520 N   0  0  0  0  0  0  0  0  0  0  0  0
  188.7400  175.5430  146.1880 C   0  0  0  0  0  0  0  0  0  0  0  0
  186.8830  176.9480  145.4610 C   0  0  0  0  0  0  0  0  0  0  0  0
  188.8700  175.7350  142.5070 C   0  0  0  0  0  2  0  0  0  0  0  0
  184.3810  178.9060  147.2880 O   0  0  0  0  0  0  0  0  0  0  0  0
  184.7430  177.9700  144.6930 C   0  0  0  0  0  1  0  0  0  0  0  0
  185.4890  178.3630  147.0350 C   0  0  0  0  0  0  0  0  0  0  0  0
  187.2650  176.7540  144.1610 N   0  0  0  0  0  0  0  0  0  0  0  0
  189.5070  174.8830  147.2820 C   0  0  0  0  0  2  0  0  0  0  0  0
  188.6520  174.1170  148.0540 F   0  0  0  0  0  0  0  0  0  0  0  0
  1 22  1  0  0  0  0
  1  2  1  0  0  0  0
  3  2  1  0  0  0  0
  3  5  1  0  0  0  0
  5  4  1  1  0  0  0
  5  6  1  0  0  0  0
  6 20  1  6  0  0  0
  8  7  1  1  0  0  0
  9  6  1  6  0  0  0
  9  7  1  0  0  0  0
  9  8  1  0  0  0  0
 10 14  1  0  0  0  0
 10  8  1  0  0  0  0
 10 12  1  1  0  0  0
 12 15  1  0  0  0  0
 13 14  1  0  0  0  0
 14 18  1  6  0  0  0
 16 12  2  0  0  0  0
 16 11  1  0  0  0  0
 17 13  1  0  0  0  0
 17 16  1  0  0  0  0
 19 18  1  0  0  0  0
 21 20  1  0  0  0  0
 22 23  1  0  0  0  0
 23 24  1  0  0  0  0
 25 33  1  0  0  0  0
 27 24  1  6  0  0  0
 27 31  1  0  0  0  0
 29 39  1  0  0  0  0
 29 25  2  0  0  0  0
 31 30  1  6  0  0  0
 31 25  1  0  0  0  0
 32 38  1  0  0  0  0
 33 28  2  0  0  0  0
 33 40  1  0  0  0  0
 34 32  1  0  0  0  0
 34 28  1  0  0  0  0
 35 27  1  0  0  0  0
 35 29  1  0  0  0  0
 37 32  1  0  0  0  0
 38 36  2  0  0  0  0
 38 26  1  0  0  0  0
 39 34  2  0  0  0  0
 40 41  1  0  0  0  0
M  END
>  <MODEL>
5

>  <REMARK>
 VINA RESULT:      -6.0      2.701      4.640
  Name = 
  13 active torsions:
  status: ('A' for Active; 'I' for Inactive)
    1  A    between atoms: C_3  and  C_26
    2  A    between atoms: C_4  and  C_25
    3  A    between atoms: C_5  and  N_33
    4  A    between atoms: C_5  and  C_41
    5  A    between atoms: C_6  and  C_17
    6  A    between atoms: C_10  and  N_33
    7  A    between atoms: O_16  and  C_22
    8  A    between atoms: C_21  and  C_38
    9  A    between atoms: C_21  and  C_40
   10  A    between atoms: C_22  and  C_32
   11  A    between atoms: C_22  and  C_36
   12  A    between atoms: C_32  and  C_40
   13  A    between atoms: C_38  and  C_41
                            x       y       z     vdW  Elec       q    Type
                         _______ _______ _______ _____ _____    ______ ____

>  <TORSDO>
F 13

$$$$
=
 OpenBabel11062422233D

 41 44  0  0  1  0  0  0  0  0999 V2000
  192.8150  174.0840  145.4360 C   0  0  0  0  0  2  0  0  0  0  0  0
  194.0010  173.1980  145.7590 C   0  0  0  0  0  2  0  0  0  0  0  0
  194.9960  173.2010  144.6090 C   0  0  0  0  0  2  0  0  0  0  0  0
  196.9560  173.5100  146.1340 C   0  0  0  0  0  1  0  0  0  0  0  0
  196.2130  174.0620  144.9290 C   0  0  1  0  0  3  0  0  0  0  0  0
  197.1330  174.2760  143.7080 C   0  0  2  0  0  3  0  0  0  0  0  0
  196.3350  176.7070  143.6150 C   0  0  0  0  0  2  0  0  0  0  0  0
  196.3400  176.3100  142.1510 C   0  0  1  0  0  3  0  0  0  0  0  0
  197.3680  175.7040  143.1340 C   0  0  2  0  0  3  0  0  0  0  0  0
  195.1630  175.3920  141.7810 C   0  0  1  0  0  3  0  0  0  0  0  0
  191.5040  175.6920  142.3920 F   0  0  0  0  0  0  0  0  0  0  0  0
  193.8420  175.8610  142.3580 C   0  0  0  0  0  0  0  0  0  0  0  0
  193.7400  174.5490  139.7880 C   0  0  0  0  0  2  0  0  0  0  0  0
  195.0190  175.2940  140.2440 C   0  0  2  0  0  3  0  0  0  0  0  0
  193.7710  176.9160  143.2180 F   0  0  0  0  0  0  0  0  0  0  0  0
  192.7150  175.2600  141.9540 C   0  0  0  0  0  0  0  0  0  0  0  0
  192.7970  174.1580  140.9360 C   0  0  0  0  0  2  0  0  0  0  0  0
  196.2450  174.6730  139.5880 C   0  0  0  0  0  2  0  0  0  0  0  0
  196.3160  175.0510  138.2460 O   0  0  0  0  0  1  0  0  0  0  0  0
  196.9710  173.2840  142.7360 O   0  0  0  0  0  0  0  0  0  0  0  0
  197.9410  172.3240  143.0340 C   0  0  0  0  0  1  0  0  0  0  0  0
  193.0060  175.4450  146.0750 C   0  0  0  0  0  2  0  0  0  0  0  0
  191.8840  176.3880  145.6610 C   0  0  0  0  0  2  0  0  0  0  0  0
  191.0540  176.7400  146.8060 N   0  0  0  0  0  2  0  0  0  0  0  0
  187.7010  177.2040  145.6080 C   0  0  0  0  0  0  0  0  0  0  0  0
  183.7730  178.6020  142.7010 O   0  0  0  0  0  1  0  0  0  0  0  0
  189.9330  177.5320  146.3150 C   0  0  2  0  0  3  0  0  0  0  0  0
  185.7160  177.3290  144.2560 C   0  0  0  0  0  3  0  0  0  0  0  0
  188.4530  177.4800  144.4950 C   0  0  0  0  0  0  0  0  0  0  0  0
  188.5750  175.2470  147.2630 S   0  0  0  0  0  1  0  0  0  0  0  0
  188.5550  177.0210  146.8100 C   0  0  2  0  0  3  0  0  0  0  0  0
  185.9340  177.8060  141.8270 N   0  0  0  0  0  0  0  0  0  0  0  0
  186.3080  177.1310  145.5120 C   0  0  0  0  0  0  0  0  0  0  0  0
  186.5200  177.6140  143.1310 C   0  0  0  0  0  0  0  0  0  0  0  0
  189.8990  177.5530  144.7820 C   0  0  0  0  0  2  0  0  0  0  0  0
  184.0550  178.1740  140.4760 O   0  0  0  0  0  0  0  0  0  0  0  0
  186.7780  177.6290  140.6520 C   0  0  0  0  0  1  0  0  0  0  0  0
  184.5580  178.1870  141.6310 C   0  0  0  0  0  0  0  0  0  0  0  0
  187.8790  177.6750  143.2790 N   0  0  0  0  0  0  0  0  0  0  0  0
  185.4560  176.8190  146.6950 C   0  0  0  0  0  2  0  0  0  0  0  0
  185.7910  177.6570  147.7440 F   0  0  0  0  0  0  0  0  0  0  0  0
  1  2  1  0  0  0  0
  1 22  1  0  0  0  0
  3  5  1  0  0  0  0
  3  2  1  0  0  0  0
  5  4  1  1  0  0  0
  6 20  1  6  0  0  0
  6  5  1  0  0  0  0
  8  9  1  0  0  0  0
  8  7  1  1  0  0  0
  9  7  1  0  0  0  0
  9  6  1  1  0  0  0
 10  8  1  0  0  0  0
 10 12  1  1  0  0  0
 12 15  1  0  0  0  0
 13 14  1  0  0  0  0
 13 17  1  0  0  0  0
 14 18  1  1  0  0  0
 14 10  1  0  0  0  0
 16 12  2  0  0  0  0
 16 11  1  0  0  0  0
 17 16  1  0  0  0  0
 19 18  1  0  0  0  0
 20 21  1  0  0  0  0
 23 22  1  0  0  0  0
 23 24  1  0  0  0  0
 25 31  1  0  0  0  0
 27 24  1  6  0  0  0
 27 31  1  0  0  0  0
 28 33  2  0  0  0  0
 29 35  1  0  0  0  0
 29 25  2  0  0  0  0
 31 30  1  6  0  0  0
 32 34  1  0  0  0  0
 33 25  1  0  0  0  0
 33 40  1  0  0  0  0
 34 39  2  0  0  0  0
 34 28  1  0  0  0  0
 35 27  1  0  0  0  0
 36 38  2  0  0  0  0
 37 32  1  0  0  0  0
 38 32  1  0  0  0  0
 38 26  1  0  0  0  0
 39 29  1  0  0  0  0
 40 41  1  0  0  0  0
M  END
>  <MODEL>
6

>  <REMARK>
 VINA RESULT:      -5.9      1.782      3.062
  Name = 
  13 active torsions:
  status: ('A' for Active; 'I' for Inactive)
    1  A    between atoms: C_3  and  C_26
    2  A    between atoms: C_4  and  C_25
    3  A    between atoms: C_5  and  N_33
    4  A    between atoms: C_5  and  C_41
    5  A    between atoms: C_6  and  C_17
    6  A    between atoms: C_10  and  N_33
    7  A    between atoms: O_16  and  C_22
    8  A    between atoms: C_21  and  C_38
    9  A    between atoms: C_21  and  C_40
   10  A    between atoms: C_22  and  C_32
   11  A    between atoms: C_22  and  C_36
   12  A    between atoms: C_32  and  C_40
   13  A    between atoms: C_38  and  C_41
                            x       y       z     vdW  Elec       q    Type
                         _______ _______ _______ _____ _____    ______ ____

>  <TORSDO>
F 13

$$$$
=
 OpenBabel11062422233D

 41 44  0  0  1  0  0  0  0  0999 V2000
  192.8820  173.8890  145.5580 C   0  0  0  0  0  2  0  0  0  0  0  0
  194.1190  173.0280  145.4050 C   0  0  0  0  0  2  0  0  0  0  0  0
  194.1810  172.4300  144.0080 C   0  0  0  0  0  2  0  0  0  0  0  0
  196.3130  173.6220  143.4610 C   0  0  0  0  0  1  0  0  0  0  0  0
  194.8770  173.3720  143.0310 C   0  0  1  0  0  3  0  0  0  0  0  0
  194.7690  172.9010  141.5650 C   0  0  2  0  0  3  0  0  0  0  0  0
  193.5250  175.0820  141.0640 C   0  0  0  0  0  2  0  0  0  0  0  0
  192.6230  174.0400  140.4310 C   0  0  1  0  0  3  0  0  0  0  0  0
  194.1540  173.8300  140.4780 C   0  0  2  0  0  3  0  0  0  0  0  0
  191.8170  173.2420  141.4700 C   0  0  1  0  0  3  0  0  0  0  0  0
  189.3750  174.3190  144.0640 F   0  0  0  0  0  0  0  0  0  0  0  0
  191.0350  174.1290  142.4190 C   0  0  0  0  0  0  0  0  0  0  0  0
  189.8400  171.5900  141.7360 C   0  0  0  0  0  2  0  0  0  0  0  0
  190.8270  172.2860  140.7660 C   0  0  2  0  0  3  0  0  0  0  0  0
  191.1630  175.4850  142.4030 F   0  0  0  0  0  0  0  0  0  0  0  0
  190.1470  173.5580  143.2450 C   0  0  0  0  0  0  0  0  0  0  0  0
  189.9460  172.0710  143.1910 C   0  0  0  0  0  2  0  0  0  0  0  0
  191.5400  171.2440  139.9130 C   0  0  0  0  0  2  0  0  0  0  0  0
  191.0320  169.9720  140.1830 O   0  0  0  0  0  1  0  0  0  0  0  0
  194.3850  171.5600  141.4610 O   0  0  0  0  0  0  0  0  0  0  0  0
  195.2850  170.9960  140.5530 C   0  0  0  0  0  1  0  0  0  0  0  0
  193.2910  175.3230  145.8370 C   0  0  0  0  0  2  0  0  0  0  0  0
  192.1630  176.2770  145.4670 C   0  0  0  0  0  2  0  0  0  0  0  0
  191.4190  176.6830  146.6530 N   0  0  0  0  0  2  0  0  0  0  0  0
  188.0230  177.1780  145.5970 C   0  0  0  0  0  0  0  0  0  0  0  0
  183.9880  178.6190  142.8620 O   0  0  0  0  0  1  0  0  0  0  0  0
  190.2850  177.4860  146.2120 C   0  0  2  0  0  3  0  0  0  0  0  0
  185.9850  177.3230  144.3290 C   0  0  0  0  0  3  0  0  0  0  0  0
  188.7300  177.4520  144.4550 C   0  0  0  0  0  0  0  0  0  0  0  0
  188.9490  175.2070  147.2070 S   0  0  0  0  0  1  0  0  0  0  0  0
  188.9250  176.9830  146.7620 C   0  0  2  0  0  3  0  0  0  0  0  0
  186.1050  177.8090  141.8960 N   0  0  0  0  0  0  0  0  0  0  0  0
  186.6260  177.1160  145.5590 C   0  0  0  0  0  0  0  0  0  0  0  0
  186.7430  177.6070  143.1730 C   0  0  0  0  0  0  0  0  0  0  0  0
  190.1870  177.5130  144.6820 C   0  0  0  0  0  2  0  0  0  0  0  0
  184.1740  178.1970  140.6260 O   0  0  0  0  0  0  0  0  0  0  0  0
  186.8990  177.6310  140.6850 C   0  0  0  0  0  1  0  0  0  0  0  0
  184.7260  178.2020  141.7590 C   0  0  0  0  0  0  0  0  0  0  0  0
  188.1080  177.6570  143.2650 N   0  0  0  0  0  0  0  0  0  0  0  0
  185.8220  176.8060  146.7750 C   0  0  0  0  0  2  0  0  0  0  0  0
  184.5050  177.1740  146.5680 F   0  0  0  0  0  0  0  0  0  0  0  0
  1 22  1  0  0  0  0
  2  1  1  0  0  0  0
  3  2  1  0  0  0  0
  5  4  1  1  0  0  0
  5  3  1  0  0  0  0
  6 20  1  1  0  0  0
  6  5  1  0  0  0  0
  8  9  1  0  0  0  0
  8  7  1  1  0  0  0
  8 10  1  0  0  0  0
  9  7  1  0  0  0  0
  9  6  1  1  0  0  0
 10 12  1  1  0  0  0
 12 16  2  0  0  0  0
 13 17  1  0  0  0  0
 14 18  1  1  0  0  0
 14 10  1  0  0  0  0
 14 13  1  0  0  0  0
 15 12  1  0  0  0  0
 16 11  1  0  0  0  0
 17 16  1  0  0  0  0
 18 19  1  0  0  0  0
 21 20  1  0  0  0  0
 23 22  1  0  0  0  0
 23 24  1  0  0  0  0
 25 31  1  0  0  0  0
 27 24  1  6  0  0  0
 27 31  1  0  0  0  0
 28 33  2  0  0  0  0
 29 35  1  0  0  0  0
 29 25  2  0  0  0  0
 31 30  1  6  0  0  0
 32 34  1  0  0  0  0
 33 25  1  0  0  0  0
 33 40  1  0  0  0  0
 34 39  2  0  0  0  0
 34 28  1  0  0  0  0
 35 27  1  0  0  0  0
 36 38  2  0  0  0  0
 37 32  1  0  0  0  0
 38 32  1  0  0  0  0
 38 26  1  0  0  0  0
 39 29  1  0  0  0  0
 41 40  1  0  0  0  0
M  END
>  <MODEL>
7

>  <REMARK>
 VINA RESULT:      -5.9      1.475      1.884
  Name = 
  13 active torsions:
  status: ('A' for Active; 'I' for Inactive)
    1  A    between atoms: C_3  and  C_26
    2  A    between atoms: C_4  and  C_25
    3  A    between atoms: C_5  and  N_33
    4  A    between atoms: C_5  and  C_41
    5  A    between atoms: C_6  and  C_17
    6  A    between atoms: C_10  and  N_33
    7  A    between atoms: O_16  and  C_22
    8  A    between atoms: C_21  and  C_38
    9  A    between atoms: C_21  and  C_40
   10  A    between atoms: C_22  and  C_32
   11  A    between atoms: C_22  and  C_36
   12  A    between atoms: C_32  and  C_40
   13  A    between atoms: C_38  and  C_41
                            x       y       z     vdW  Elec       q    Type
                         _______ _______ _______ _____ _____    ______ ____

>  <TORSDO>
F 13

$$$$
=
 OpenBabel11062422233D

 41 44  0  0  1  0  0  0  0  0999 V2000
  194.2920  172.8470  145.5890 C   0  0  0  0  0  2  0  0  0  0  0  0
  195.4310  172.7730  144.5920 C   0  0  0  0  0  2  0  0  0  0  0  0
  195.6310  174.1180  143.9120 C   0  0  0  0  0  2  0  0  0  0  0  0
  196.2390  172.5640  142.0450 C   0  0  0  0  0  1  0  0  0  0  0  0
  195.7580  173.9610  142.4000 C   0  0  1  0  0  3  0  0  0  0  0  0
  194.4690  174.3560  141.6470 C   0  0  2  0  0  3  0  0  0  0  0  0
  192.8050  174.1810  139.7080 C   0  0  0  0  0  2  0  0  0  0  0  0
  192.6340  172.8450  140.4050 C   0  0  1  0  0  3  0  0  0  0  0  0
  194.0070  173.5560  140.3940 C   0  0  2  0  0  3  0  0  0  0  0  0
  191.8460  172.9570  141.7210 C   0  0  1  0  0  3  0  0  0  0  0  0
  188.3460  174.0090  142.4250 F   0  0  0  0  0  0  0  0  0  0  0  0
  190.4690  173.5630  141.5350 C   0  0  0  0  0  0  0  0  0  0  0  0
  190.7350  171.5590  143.5970 C   0  0  0  0  0  2  0  0  0  0  0  0
  191.6840  171.5640  142.3730 C   0  0  2  0  0  3  0  0  0  0  0  0
  190.0620  174.0640  140.3360 F   0  0  0  0  0  0  0  0  0  0  0  0
  189.6130  173.5390  142.5670 C   0  0  0  0  0  0  0  0  0  0  0  0
  190.0400  172.9030  143.8580 C   0  0  0  0  0  2  0  0  0  0  0  0
  193.0230  170.9450  142.7490 C   0  0  0  0  0  2  0  0  0  0  0  0
  193.3240  169.8870  141.8890 O   0  0  0  0  0  1  0  0  0  0  0  0
  194.3190  175.7410  141.5330 O   0  0  0  0  0  0  0  0  0  0  0  0
  195.5190  176.1900  140.9760 C   0  0  0  0  0  1  0  0  0  0  0  0
  193.3880  174.0140  145.2420 C   0  0  0  0  0  2  0  0  0  0  0  0
  193.0680  174.8270  146.4910 C   0  0  0  0  0  2  0  0  0  0  0  0
  192.4830  176.1130  146.1350 N   0  0  0  0  0  2  0  0  0  0  0  0
  189.3620  176.9780  144.5840 C   0  0  0  0  0  0  0  0  0  0  0  0
  184.4060  177.8750  143.9020 O   0  0  0  0  0  0  0  0  0  0  0  0
  191.0930  175.8810  145.7650 C   0  0  2  0  0  3  0  0  0  0  0  0
  187.1960  177.8930  144.0800 C   0  0  0  0  0  3  0  0  0  0  0  0
  189.0540  177.0340  145.9190 C   0  0  0  0  0  0  0  0  0  0  0  0
  191.8300  177.7960  143.8280 S   0  0  0  0  0  1  0  0  0  0  0  0
  190.7290  176.4360  144.3630 C   0  0  2  0  0  3  0  0  0  0  0  0
  185.6540  178.4490  145.9470 N   0  0  0  0  0  0  0  0  0  0  0  0
  188.4300  177.4010  143.6310 C   0  0  0  0  0  0  0  0  0  0  0  0
  186.9100  177.9340  145.4620 C   0  0  0  0  0  0  0  0  0  0  0  0
  190.1360  176.5180  146.7800 C   0  0  0  0  0  2  0  0  0  0  0  0
  183.4450  179.1260  145.5520 O   0  0  0  0  0  1  0  0  0  0  0  0
  185.5760  178.9080  147.3290 C   0  0  0  0  0  1  0  0  0  0  0  0
  184.4640  178.5110  145.1370 C   0  0  0  0  0  0  0  0  0  0  0  0
  187.8570  177.5060  146.3530 N   0  0  0  0  0  0  0  0  0  0  0  0
  188.7320  177.3700  142.1720 C   0  0  0  0  0  2  0  0  0  0  0  0
  188.9070  178.6600  141.7050 F   0  0  0  0  0  0  0  0  0  0  0  0
  2  1  1  0  0  0  0
  3  2  1  0  0  0  0
  5  4  1  1  0  0  0
  5  3  1  0  0  0  0
  6 20  1  6  0  0  0
  6  5  1  0  0  0  0
  7  9  1  0  0  0  0
  8  7  1  6  0  0  0
  8 10  1  0  0  0  0
  9  8  1  0  0  0  0
  9  6  1  1  0  0  0
 10 12  1  6  0  0  0
 10 14  1  0  0  0  0
 11 16  1  0  0  0  0
 12 16  2  0  0  0  0
 13 17  1  0  0  0  0
 14 18  1  1  0  0  0
 14 13  1  0  0  0  0
 15 12  1  0  0  0  0
 16 17  1  0  0  0  0
 19 18  1  0  0  0  0
 21 20  1  0  0  0  0
 22  1  1  0  0  0  0
 22 23  1  0  0  0  0
 24 23  1  0  0  0  0
 25 29  1  0  0  0  0
 26 38  2  0  0  0  0
 27 24  1  1  0  0  0
 27 35  1  0  0  0  0
 28 34  2  0  0  0  0
 29 39  2  0  0  0  0
 29 35  1  0  0  0  0
 31 30  1  1  0  0  0
 31 25  1  0  0  0  0
 31 27  1  0  0  0  0
 32 37  1  0  0  0  0
 33 28  1  0  0  0  0
 33 25  2  0  0  0  0
 34 32  1  0  0  0  0
 34 39  1  0  0  0  0
 38 36  1  0  0  0  0
 38 32  1  0  0  0  0
 40 33  1  0  0  0  0
 41 40  1  0  0  0  0
M  END
>  <MODEL>
8

>  <REMARK>
 VINA RESULT:      -5.8      2.048      2.724
  Name = 
  13 active torsions:
  status: ('A' for Active; 'I' for Inactive)
    1  A    between atoms: C_3  and  C_26
    2  A    between atoms: C_4  and  C_25
    3  A    between atoms: C_5  and  N_33
    4  A    between atoms: C_5  and  C_41
    5  A    between atoms: C_6  and  C_17
    6  A    between atoms: C_10  and  N_33
    7  A    between atoms: O_16  and  C_22
    8  A    between atoms: C_21  and  C_38
    9  A    between atoms: C_21  and  C_40
   10  A    between atoms: C_22  and  C_32
   11  A    between atoms: C_22  and  C_36
   12  A    between atoms: C_32  and  C_40
   13  A    between atoms: C_38  and  C_41
                            x       y       z     vdW  Elec       q    Type
                         _______ _______ _______ _____ _____    ______ ____

>  <TORSDO>
F 13

$$$$
=
 OpenBabel11062422233D

 41 44  0  0  1  0  0  0  0  0999 V2000
  194.7770  175.4330  143.4500 C   0  0  0  0  0  2  0  0  0  0  0  0
  193.7040  175.8260  142.4560 C   0  0  0  0  0  2  0  0  0  0  0  0
  193.5870  174.7810  141.3570 C   0  0  0  0  0  2  0  0  0  0  0  0
  192.0830  173.1160  140.2480 C   0  0  0  0  0  1  0  0  0  0  0  0
  192.2730  174.0130  141.4590 C   0  0  1  0  0  3  0  0  0  0  0  0
  192.1280  173.2500  142.7940 C   0  0  2  0  0  3  0  0  0  0  0  0
  192.2380  171.1240  144.2170 C   0  0  0  0  0  2  0  0  0  0  0  0
  193.3640  170.9090  143.2240 C   0  0  1  0  0  3  0  0  0  0  0  0
  192.0950  171.6930  142.8170 C   0  0  2  0  0  3  0  0  0  0  0  0
  194.6000  171.7710  143.5310 C   0  0  1  0  0  3  0  0  0  0  0  0
  196.8050  171.9550  146.5230 F   0  0  0  0  0  0  0  0  0  0  0  0
  195.1050  171.5970  144.9500 C   0  0  0  0  0  0  0  0  0  0  0  0
  197.0950  172.1080  142.9210 C   0  0  0  0  0  2  0  0  0  0  0  0
  195.7510  171.4280  142.5570 C   0  0  2  0  0  3  0  0  0  0  0  0
  194.4270  170.8470  145.8640 F   0  0  0  0  0  0  0  0  0  0  0  0
  196.2820  172.1430  145.2840 C   0  0  0  0  0  0  0  0  0  0  0  0
  197.0650  172.8900  144.2420 C   0  0  0  0  0  2  0  0  0  0  0  0
  195.3910  171.7320  141.1090 C   0  0  0  0  0  2  0  0  0  0  0  0
  195.4410  170.5640  140.3450 O   0  0  0  0  0  1  0  0  0  0  0  0
  191.2160  173.8580  143.6610 O   0  0  0  0  0  0  0  0  0  0  0  0
  189.9570  173.4840  143.1810 C   0  0  0  0  0  1  0  0  0  0  0  0
  194.3260  175.7860  144.8540 C   0  0  0  0  0  2  0  0  0  0  0  0
  193.1510  176.7540  144.8050 C   0  0  0  0  0  2  0  0  0  0  0  0
  192.0680  176.2970  145.6670 N   0  0  0  0  0  2  0  0  0  0  0  0
  188.5710  177.0320  145.3190 C   0  0  0  0  0  0  0  0  0  0  0  0
  184.1710  178.7490  143.4400 O   0  0  0  0  0  1  0  0  0  0  0  0
  190.9270  177.1780  145.4510 C   0  0  2  0  0  3  0  0  0  0  0  0
  186.3300  177.3190  144.4940 C   0  0  0  0  0  3  0  0  0  0  0  0
  189.0450  177.2480  144.0510 C   0  0  0  0  0  0  0  0  0  0  0  0
  189.6680  175.0090  146.7450 S   0  0  0  0  0  1  0  0  0  0  0  0
  189.6780  176.7780  146.2790 C   0  0  2  0  0  3  0  0  0  0  0  0
  185.9810  177.7810  142.0770 N   0  0  0  0  0  0  0  0  0  0  0  0
  187.1960  177.0720  145.5700 C   0  0  0  0  0  0  0  0  0  0  0  0
  186.8530  177.5400  143.2010 C   0  0  0  0  0  0  0  0  0  0  0  0
  190.5180  177.2040  143.9740 C   0  0  0  0  0  2  0  0  0  0  0  0
  183.8620  178.3020  141.2230 O   0  0  0  0  0  0  0  0  0  0  0  0
  186.4940  177.5390  140.7340 C   0  0  0  0  0  1  0  0  0  0  0  0
  184.6340  178.2730  142.2180 C   0  0  0  0  0  0  0  0  0  0  0  0
  188.2070  177.4920  143.0100 N   0  0  0  0  0  0  0  0  0  0  0  0
  186.6390  176.8280  146.9310 C   0  0  0  0  0  2  0  0  0  0  0  0
  185.3900  177.4140  147.0350 F   0  0  0  0  0  0  0  0  0  0  0  0
  1 22  1  0  0  0  0
  2  1  1  0  0  0  0
  3  5  1  0  0  0  0
  3  2  1  0  0  0  0
  5  4  1  6  0  0  0
  5  6  1  0  0  0  0
  6 20  1  6  0  0  0
  8 10  1  0  0  0  0
  8  7  1  1  0  0  0
  9  6  1  1  0  0  0
  9  8  1  0  0  0  0
  9  7  1  0  0  0  0
 10 12  1  1  0  0  0
 12 16  2  0  0  0  0
 12 15  1  0  0  0  0
 13 17  1  0  0  0  0
 14 18  1  6  0  0  0
 14 13  1  0  0  0  0
 14 10  1  0  0  0  0
 16 11  1  0  0  0  0
 17 16  1  0  0  0  0
 19 18  1  0  0  0  0
 21 20  1  0  0  0  0
 23 22  1  0  0  0  0
 23 24  1  0  0  0  0
 25 33  1  0  0  0  0
 25 31  1  0  0  0  0
 27 24  1  6  0  0  0
 27 31  1  0  0  0  0
 28 33  2  0  0  0  0
 29 25  2  0  0  0  0
 31 30  1  6  0  0  0
 32 38  1  0  0  0  0
 32 34  1  0  0  0  0
 33 40  1  0  0  0  0
 34 28  1  0  0  0  0
 35 29  1  0  0  0  0
 35 27  1  0  0  0  0
 36 38  2  0  0  0  0
 37 32  1  0  0  0  0
 38 26  1  0  0  0  0
 39 34  2  0  0  0  0
 39 29  1  0  0  0  0
 40 41  1  0  0  0  0
M  END
>  <MODEL>
9

>  <REMARK>
 VINA RESULT:      -5.7      2.255      3.759
  Name = 
  13 active torsions:
  status: ('A' for Active; 'I' for Inactive)
    1  A    between atoms: C_3  and  C_26
    2  A    between atoms: C_4  and  C_25
    3  A    between atoms: C_5  and  N_33
    4  A    between atoms: C_5  and  C_41
    5  A    between atoms: C_6  and  C_17
    6  A    between atoms: C_10  and  N_33
    7  A    between atoms: O_16  and  C_22
    8  A    between atoms: C_21  and  C_38
    9  A    between atoms: C_21  and  C_40
   10  A    between atoms: C_22  and  C_32
   11  A    between atoms: C_22  and  C_36
   12  A    between atoms: C_32  and  C_40
   13  A    between atoms: C_38  and  C_41
                            x       y       z     vdW  Elec       q    Type
                         _______ _______ _______ _____ _____    ______ ____

>  <TORSDO>
F 13

$$$$
