=
 OpenBabel11072409203D

 64 66  0  0  1  0  0  0  0  0999 V2000
  193.6260  173.5640  138.0910 C   0  0  1  0  0  3  0  0  0  0  0  0
  193.2290  172.8850  136.7420 C   0  0  2  0  0  0  0  0  0  0  0  0
  190.7810  173.5600  139.7920 O   0  0  0  0  0  0  0  0  0  0  0  0
  191.6390  172.7760  136.6880 C   0  0  2  0  0  0  0  0  0  0  0  0
  191.1050  174.0720  136.7580 O   0  0  0  0  0  1  0  0  0  0  0  0
  189.6760  171.9530  137.8660 O   0  0  0  0  0  1  0  0  0  0  0  0
  190.7830  172.3050  140.4470 C   0  0  1  0  0  3  0  0  0  0  0  0
  193.2940  174.9220  138.1090 O   0  0  0  0  0  1  0  0  0  0  0  0
  193.0870  172.8810  139.3460 C   0  0  0  0  0  2  0  0  0  0  0  0
  191.0790  171.9960  137.8980 C   0  0  2  0  0  3  0  0  0  0  0  0
  191.5980  172.5650  139.2280 C   0  0  2  0  0  0  0  0  0  0  0  0
  191.0570  172.1370  135.3980 C   0  0  1  0  0  3  0  0  0  0  0  0
  190.7590  170.6490  135.4950 C   0  0  0  0  0  1  0  0  0  0  0  0
  189.9640  172.8230  134.8780 O   0  0  0  0  0  1  0  0  0  0  0  0
  194.0090  171.5020  136.6950 C   0  0  1  0  0  3  0  0  0  0  0  0
  194.3960  171.0660  135.2750 C   0  0  0  0  0  1  0  0  0  0  0  0
  194.6830  170.2180  138.7570 C   0  0  0  0  0  1  0  0  0  0  0  0
  195.1400  171.2380  137.7270 C   0  0  1  0  0  3  0  0  0  0  0  0
  196.6530  169.4880  136.7450 O   0  0  0  0  0  0  0  0  0  0  0  0
  197.4010  171.6330  136.9960 O   0  0  0  0  0  1  0  0  0  0  0  0
  196.4600  170.8040  137.1390 C   0  0  0  0  0  0  0  0  0  0  0  0
  193.6240  173.8340  135.7370 O   0  0  0  0  0  0  0  0  0  0  0  0
  195.2620  174.3680  135.7040 P   0  0  1  0  0  0  0  0  0  0  0  0
  196.1180  173.5740  134.7460 O   0  0  0  0  0  0  0  0  0  0  0  0
  195.2810  175.9840  135.2040 O   0  0  0  0  0  1  0  0  0  0  0  0
  195.9260  174.2860  137.2650 O   0  0  0  0  0  0  0  0  0  0  0  0
  196.9690  175.2160  137.2730 C   0  0  0  0  0  2  0  0  0  0  0  0
  197.5120  175.3660  138.6800 C   0  0  0  0  0  2  0  0  0  0  0  0
  197.0980  174.1600  139.5130 C   0  0  0  0  0  2  0  0  0  0  0  0
  196.6420  174.5410  140.9230 C   0  0  2  0  0  3  0  0  0  0  0  0
  195.7110  173.6320  141.4290 O   0  0  0  0  0  1  0  0  0  0  0  0
  194.6350  176.0700  141.1410 C   0  0  0  0  0  1  0  0  0  0  0  0
  196.1490  175.9820  141.0310 C   0  0  0  0  0  2  0  0  0  0  0  0
  191.5760  172.4080  141.7470 C   0  0  0  0  0  2  0  0  0  0  0  0
  191.0210  173.3840  142.5820 O   0  0  0  0  0  0  0  0  0  0  0  0
  191.9800  174.2750  142.7600 O   0  0  0  0  0  0  0  0  0  0  0  0
  192.8660  174.8730  144.9290 C   0  0  0  0  0  0  0  0  0  0  0  0
  192.6860  175.3780  146.0710 O   0  0  0  0  0  0  0  0  0  0  0  0
  191.7710  174.7800  144.0020 N   0  0  0  0  0  0  0  0  0  0  0  0
  194.2250  174.3550  144.5430 C   0  0  2  0  0  3  0  0  0  0  0  0
  194.0950  172.1020  143.7090 F   0  0  0  0  0  0  0  0  0  0  0  0
  194.3720  172.8550  144.8400 C   0  0  0  0  0  0  0  0  0  0  0  0
  193.4990  172.4930  145.8490 F   0  0  0  0  0  0  0  0  0  0  0  0
  195.6680  172.5830  145.2530 F   0  0  0  0  0  0  0  0  0  0  0  0
  196.0150  175.8830  144.4310 O   0  0  0  0  0  0  0  0  0  0  0  0
  195.3120  175.1920  145.1520 C   0  0  0  0  0  0  0  0  0  0  0  0
  195.4980  175.2210  146.5000 F   0  0  0  0  0  0  0  0  0  0  0  0
  190.5100  175.4580  144.3080 C   0  0  0  0  0  2  0  0  0  0  0  0
  191.7130  177.2910  143.0830 C   0  0  0  0  0  1  0  0  0  0  0  0
  190.3720  176.8230  143.6230 C   0  0  0  0  0  0  0  0  0  0  0  0
  189.8400  177.8700  144.5950 C   0  0  0  0  0  1  0  0  0  0  0  0
  189.4190  176.6930  142.4400 C   0  0  0  0  0  2  0  0  0  0  0  0
  188.5130  177.8320  142.3590 N   0  0  0  0  0  2  0  0  0  0  0  0
  186.8110  177.9680  140.7740 O   0  0  0  0  0  1  0  0  0  0  0  0
  187.2190  177.3180  141.9410 C   0  0  2  0  0  3  0  0  0  0  0  0
  186.2110  177.5230  143.0290 C   0  0  0  0  0  0  0  0  0  0  0  0
  185.2620  178.4560  142.8990 C   0  0  0  0  0  3  0  0  0  0  0  0
  184.3220  178.6330  145.2310 C   0  0  0  0  0  0  0  0  0  0  0  0
  185.8190  178.7780  147.2990 C   0  0  0  0  0  1  0  0  0  0  0  0
  185.5520  178.2110  145.9480 C   0  0  0  0  0  0  0  0  0  0  0  0
  184.2270  178.7740  143.9020 C   0  0  0  0  0  3  0  0  0  0  0  0
  183.2570  179.0260  145.9740 F   0  0  0  0  0  0  0  0  0  0  0  0
  186.2240  176.5800  144.1850 C   0  0  0  0  0  2  0  0  0  0  0  0
  186.4100  177.3020  145.4800 C   0  0  0  0  0  3  0  0  0  0  0  0
  1  8  1  6  0  0  0
  1  9  1  0  0  0  0
  2 22  1  6  0  0  0
  2  1  1  0  0  0  0
  3  7  1  0  0  0  0
  4  2  1  0  0  0  0
  4  5  1  1  0  0  0
  4 10  1  0  0  0  0
  7 34  1  1  0  0  0
 10  6  1  1  0  0  0
 10 11  1  0  0  0  0
 11  9  1  1  0  0  0
 11  3  1  0  0  0  0
 11  7  1  0  0  0  0
 12 13  1  1  0  0  0
 12  4  1  0  0  0  0
 14 12  1  0  0  0  0
 15 16  1  6  0  0  0
 15  2  1  0  0  0  0
 15 18  1  0  0  0  0
 18 17  1  1  0  0  0
 19 21  2  0  0  0  0
 20 21  1  0  0  0  0
 21 18  1  0  0  0  0
 23 24  2  6  0  0  0
 23 22  1  0  0  0  0
 23 26  1  0  0  0  0
 25 23  1  0  0  0  0
 26 27  1  0  0  0  0
 27 28  1  0  0  0  0
 28 29  1  0  0  0  0
 29 30  1  0  0  0  0
 30 33  1  0  0  0  0
 30 31  1  6  0  0  0
 33 32  1  0  0  0  0
 34 35  1  0  0  0  0
 35 36  1  0  0  0  0
 36 39  1  0  0  0  0
 37 38  2  0  0  0  0
 39 48  1  0  0  0  0
 39 37  1  0  0  0  0
 40 42  1  0  0  0  0
 40 37  1  1  0  0  0
 40 46  1  0  0  0  0
 41 42  1  0  0  0  0
 42 44  1  0  0  0  0
 42 43  1  0  0  0  0
 45 46  2  0  0  0  0
 46 47  1  0  0  0  0
 49 50  1  0  0  0  0
 50 48  1  0  0  0  0
 50 51  1  0  0  0  0
 52 50  1  0  0  0  0
 53 52  1  0  0  0  0
 55 54  1  6  0  0  0
 55 53  1  0  0  0  0
 55 56  1  0  0  0  0
 56 63  1  0  0  0  0
 57 56  2  0  0  0  0
 57 61  1  0  0  0  0
 58 60  1  0  0  0  0
 58 62  1  0  0  0  0
 60 59  1  0  0  0  0
 61 58  2  0  0  0  0
 63 64  1  0  0  0  0
 64 60  2  0  0  0  0
M  END
>  <MODEL>
1

>  <REMARK>
 VINA RESULT:      -5.8      0.000      0.000
  Name = 
  25 active torsions:
  status: ('A' for Active; 'I' for Inactive)
    1  A    between atoms: C_2  and  C_7
    2  A    between atoms: C_2  and  C_19
    3  A    between atoms: C_3  and  C_10
    4  A    between atoms: C_6  and  O_9
    5  A    between atoms: C_6  and  C_46
    6  A    between atoms: C_7  and  O_33
    7  A    between atoms: O_9  and  P_16
    8  A    between atoms: C_10  and  N_28
    9  A    between atoms: C_15  and  C_46
   10  A    between atoms: C_15  and  C_55
   11  A    between atoms: P_16  and  O_33
   12  A    between atoms: C_17  and  C_26
   13  A    between atoms: C_19  and  C_56
   14  A    between atoms: C_21  and  C_54
   15  A    between atoms: N_28  and  C_31
   16  A    between atoms: C_30  and  C_31
   17  A    between atoms: C_30  and  C_61
   18  A    between atoms: C_32  and  C_55
   19  A    between atoms: O_35  and  C_47
   20  A    between atoms: O_35  and  O_48
   21  A    between atoms: C_41  and  C_47
   22  A    between atoms: C_43  and  C_54
   23  A    between atoms: C_44  and  C_54
   24  A    between atoms: O_48  and  N_60
   25  A    between atoms: N_60  and  C_61
                            x       y       z     vdW  Elec       q    Type
                         _______ _______ _______ _____ _____    ______ ____

>  <TORSDO>
F 25

$$$$
=
 OpenBabel11072409203D

 64 66  0  0  1  0  0  0  0  0999 V2000
  191.7580  176.1150  142.9450 C   0  0  1  0  0  3  0  0  0  0  0  0
  192.1600  175.7220  144.4010 C   0  0  2  0  0  0  0  0  0  0  0  0
  194.6800  176.7400  141.5090 O   0  0  0  0  0  0  0  0  0  0  0  0
  193.7020  176.0750  144.6060 C   0  0  2  0  0  0  0  0  0  0  0  0
  193.8690  177.4550  144.4080 O   0  0  0  0  0  1  0  0  0  0  0  0
  195.9410  175.7240  143.7210 O   0  0  0  0  0  1  0  0  0  0  0  0
  195.0960  175.4750  141.0310 C   0  0  1  0  0  3  0  0  0  0  0  0
  191.7090  177.5020  142.7730 O   0  0  0  0  0  1  0  0  0  0  0  0
  192.6080  175.4860  141.8440 C   0  0  0  0  0  2  0  0  0  0  0  0
  194.5930  175.3640  143.5640 C   0  0  2  0  0  3  0  0  0  0  0  0
  194.1010  175.6190  142.1300 C   0  0  2  0  0  0  0  0  0  0  0  0
  194.2760  175.7650  146.0140 C   0  0  1  0  0  3  0  0  0  0  0  0
  195.5570  174.9480  146.0220 C   0  0  0  0  0  1  0  0  0  0  0  0
  194.4080  176.8900  146.8240 O   0  0  0  0  0  1  0  0  0  0  0  0
  191.7840  174.1870  144.5660 C   0  0  1  0  0  3  0  0  0  0  0  0
  190.4070  173.8290  143.9910 C   0  0  0  0  0  1  0  0  0  0  0  0
  193.2850  172.4070  145.5310 C   0  0  0  0  0  1  0  0  0  0  0  0
  192.8570  173.1100  144.2520 C   0  0  1  0  0  3  0  0  0  0  0  0
  191.7410  170.9550  143.5980 O   0  0  0  0  0  1  0  0  0  0  0  0
  192.7660  172.2390  142.0090 O   0  0  0  0  0  0  0  0  0  0  0  0
  192.4570  172.0820  143.2220 C   0  0  0  0  0  0  0  0  0  0  0  0
  191.4050  176.6200  145.2320 O   0  0  0  0  0  0  0  0  0  0  0  0
  190.7660  176.0280  146.7190 P   0  0  1  0  0  0  0  0  0  0  0  0
  191.3870  174.7190  147.1450 O   0  0  0  0  0  0  0  0  0  0  0  0
  191.0840  177.1730  147.9240 O   0  0  0  0  0  1  0  0  0  0  0  0
  189.0820  175.8450  146.5900 O   0  0  0  0  0  0  0  0  0  0  0  0
  188.5560  177.1280  146.7580 C   0  0  0  0  0  2  0  0  0  0  0  0
  187.0760  177.0380  147.0710 C   0  0  0  0  0  2  0  0  0  0  0  0
  186.3200  176.6060  145.8210 C   0  0  0  0  0  2  0  0  0  0  0  0
  186.1660  177.7370  144.8020 C   0  0  2  0  0  3  0  0  0  0  0  0
  184.8260  178.0830  144.6130 O   0  0  0  0  0  1  0  0  0  0  0  0
  186.4400  176.1460  142.8510 C   0  0  0  0  0  1  0  0  0  0  0  0
  186.8750  177.4610  143.4790 C   0  0  0  0  0  2  0  0  0  0  0  0
  194.4660  175.2120  139.6650 C   0  0  0  0  0  2  0  0  0  0  0  0
  195.1710  174.2130  138.9860 O   0  0  0  0  0  0  0  0  0  0  0  0
  194.9870  173.1140  139.6980 O   0  0  0  0  0  0  0  0  0  0  0  0
  196.5650  171.4080  140.3640 C   0  0  0  0  0  0  0  0  0  0  0  0
  197.5070  170.6250  140.0610 O   0  0  0  0  0  0  0  0  0  0  0  0
  196.0290  172.3050  139.3780 N   0  0  0  0  0  0  0  0  0  0  0  0
  196.0140  171.4120  141.7650 C   0  0  2  0  0  3  0  0  0  0  0  0
  197.6390  173.1350  142.1850 F   0  0  0  0  0  0  0  0  0  0  0  0
  196.9880  172.0560  142.7620 C   0  0  0  0  0  0  0  0  0  0  0  0
  197.9270  171.1240  143.1640 F   0  0  0  0  0  0  0  0  0  0  0  0
  196.2940  172.4980  143.8790 F   0  0  0  0  0  0  0  0  0  0  0  0
  195.1930  169.8410  143.3170 O   0  0  0  0  0  0  0  0  0  0  0  0
  195.5680  170.0380  142.1710 C   0  0  0  0  0  0  0  0  0  0  0  0
  195.5370  169.0200  141.2690 F   0  0  0  0  0  0  0  0  0  0  0  0
  196.4320  172.1600  137.9780 C   0  0  0  0  0  2  0  0  0  0  0  0
  196.2320  170.0850  136.5760 C   0  0  0  0  0  1  0  0  0  0  0  0
  195.4850  171.2730  137.1600 C   0  0  0  0  0  0  0  0  0  0  0  0
  194.8460  172.0600  136.0220 C   0  0  0  0  0  1  0  0  0  0  0  0
  194.3970  170.7280  138.0780 C   0  0  0  0  0  2  0  0  0  0  0  0
  193.0670  170.9930  137.5440 N   0  0  0  0  0  2  0  0  0  0  0  0
  191.3090  169.5040  137.8850 O   0  0  0  0  0  1  0  0  0  0  0  0
  192.1100  170.4660  138.5030 C   0  0  2  0  0  3  0  0  0  0  0  0
  191.2630  171.5770  139.0440 C   0  0  0  0  0  0  0  0  0  0  0  0
  190.3750  171.3330  140.0130 C   0  0  0  0  0  3  0  0  0  0  0  0
  188.9710  173.4260  140.0290 C   0  0  0  0  0  0  0  0  0  0  0  0
  188.0820  174.4910  137.8810 C   0  0  0  0  0  1  0  0  0  0  0  0
  189.1780  173.7870  138.6040 C   0  0  0  0  0  0  0  0  0  0  0  0
  189.4680  172.3290  140.6160 C   0  0  0  0  0  3  0  0  0  0  0  0
  188.1170  174.1870  140.7600 F   0  0  0  0  0  0  0  0  0  0  0  0
  191.5310  172.9630  138.5610 C   0  0  0  0  0  2  0  0  0  0  0  0
  190.3160  173.5730  137.9410 C   0  0  0  0  0  3  0  0  0  0  0  0
  1  8  1  1  0  0  0
  1  2  1  0  0  0  0
  2 15  1  0  0  0  0
  2  4  1  0  0  0  0
  2 22  1  1  0  0  0
  3 11  1  0  0  0  0
  4  5  1  6  0  0  0
  4 12  1  0  0  0  0
  7 34  1  6  0  0  0
  7  3  1  0  0  0  0
  7 11  1  0  0  0  0
  9  1  1  0  0  0  0
 10  6  1  6  0  0  0
 10  4  1  0  0  0  0
 11  9  1  6  0  0  0
 11 10  1  0  0  0  0
 12 13  1  6  0  0  0
 12 14  1  0  0  0  0
 15 16  1  6  0  0  0
 18 15  1  0  0  0  0
 18 17  1  1  0  0  0
 20 21  2  0  0  0  0
 21 19  1  0  0  0  0
 21 18  1  0  0  0  0
 22 23  1  0  0  0  0
 23 24  2  1  0  0  0
 23 25  1  0  0  0  0
 26 23  1  0  0  0  0
 26 27  1  0  0  0  0
 27 28  1  0  0  0  0
 29 28  1  0  0  0  0
 30 31  1  6  0  0  0
 30 29  1  0  0  0  0
 32 33  1  0  0  0  0
 33 30  1  0  0  0  0
 35 34  1  0  0  0  0
 35 36  1  0  0  0  0
 38 37  2  0  0  0  0
 39 36  1  0  0  0  0
 39 37  1  0  0  0  0
 40 37  1  6  0  0  0
 40 46  1  0  0  0  0
 40 42  1  0  0  0  0
 41 42  1  0  0  0  0
 42 43  1  0  0  0  0
 42 44  1  0  0  0  0
 46 45  2  0  0  0  0
 47 46  1  0  0  0  0
 48 39  1  0  0  0  0
 49 50  1  0  0  0  0
 50 48  1  0  0  0  0
 50 52  1  0  0  0  0
 51 50  1  0  0  0  0
 53 52  1  0  0  0  0
 53 55  1  0  0  0  0
 55 54  1  6  0  0  0
 55 56  1  0  0  0  0
 56 57  2  0  0  0  0
 57 61  1  0  0  0  0
 58 61  2  0  0  0  0
 58 62  1  0  0  0  0
 59 60  1  0  0  0  0
 60 58  1  0  0  0  0
 63 56  1  0  0  0  0
 64 63  1  0  0  0  0
 64 60  2  0  0  0  0
M  END
>  <MODEL>
2

>  <REMARK>
 VINA RESULT:      -5.4      3.310      8.963
  Name = 
  25 active torsions:
  status: ('A' for Active; 'I' for Inactive)
    1  A    between atoms: C_2  and  C_7
    2  A    between atoms: C_2  and  C_19
    3  A    between atoms: C_3  and  C_10
    4  A    between atoms: C_6  and  O_9
    5  A    between atoms: C_6  and  C_46
    6  A    between atoms: C_7  and  O_33
    7  A    between atoms: O_9  and  P_16
    8  A    between atoms: C_10  and  N_28
    9  A    between atoms: C_15  and  C_46
   10  A    between atoms: C_15  and  C_55
   11  A    between atoms: P_16  and  O_33
   12  A    between atoms: C_17  and  C_26
   13  A    between atoms: C_19  and  C_56
   14  A    between atoms: C_21  and  C_54
   15  A    between atoms: N_28  and  C_31
   16  A    between atoms: C_30  and  C_31
   17  A    between atoms: C_30  and  C_61
   18  A    between atoms: C_32  and  C_55
   19  A    between atoms: O_35  and  C_47
   20  A    between atoms: O_35  and  O_48
   21  A    between atoms: C_41  and  C_47
   22  A    between atoms: C_43  and  C_54
   23  A    between atoms: C_44  and  C_54
   24  A    between atoms: O_48  and  N_60
   25  A    between atoms: N_60  and  C_61
                            x       y       z     vdW  Elec       q    Type
                         _______ _______ _______ _____ _____    ______ ____

>  <TORSDO>
F 25

$$$$
=
 OpenBabel11072409203D

 64 66  0  0  1  0  0  0  0  0999 V2000
  190.7210  173.7600  145.2020 C   0  0  1  0  0  3  0  0  0  0  0  0
  191.5350  175.0740  144.9790 C   0  0  2  0  0  0  0  0  0  0  0  0
  190.6490  172.4070  142.1770 O   0  0  0  0  0  0  0  0  0  0  0  0
  191.6960  175.3000  143.4080 C   0  0  2  0  0  0  0  0  0  0  0  0
  190.4150  175.4180  142.8460 O   0  0  0  0  0  1  0  0  0  0  0  0
  192.4620  174.2830  141.3350 O   0  0  0  0  0  1  0  0  0  0  0  0
  191.8350  171.6380  142.1250 C   0  0  1  0  0  3  0  0  0  0  0  0
  189.3780  173.9130  144.8450 O   0  0  0  0  0  1  0  0  0  0  0  0
  191.2980  172.5160  144.5320 C   0  0  0  0  0  2  0  0  0  0  0  0
  192.3740  174.0930  142.7240 C   0  0  2  0  0  3  0  0  0  0  0  0
  191.6680  172.7740  143.0730 C   0  0  2  0  0  0  0  0  0  0  0  0
  192.4710  176.5800  142.9940 C   0  0  1  0  0  3  0  0  0  0  0  0
  193.5970  176.3570  141.9980 C   0  0  0  0  0  1  0  0  0  0  0  0
  191.6480  177.6220  142.5780 O   0  0  0  0  0  1  0  0  0  0  0  0
  192.8940  174.8960  145.7840 C   0  0  1  0  0  3  0  0  0  0  0  0
  193.4150  173.4520  145.7940 C   0  0  0  0  0  1  0  0  0  0  0  0
  194.1020  176.8680  146.7870 C   0  0  0  0  0  1  0  0  0  0  0  0
  194.0290  175.9360  145.5870 C   0  0  1  0  0  3  0  0  0  0  0  0
  195.9470  174.4260  146.1870 O   0  0  0  0  0  1  0  0  0  0  0  0
  196.0500  175.7070  144.2970 O   0  0  0  0  0  0  0  0  0  0  0  0
  195.3960  175.3560  145.3170 C   0  0  0  0  0  0  0  0  0  0  0  0
  190.6750  176.1130  145.4720 O   0  0  0  0  0  0  0  0  0  0  0  0
  190.2290  176.0960  147.1360 P   0  0  1  0  0  0  0  0  0  0  0  0
  190.9290  175.0110  147.9200 O   0  0  0  0  0  1  0  0  0  0  0  0
  190.6550  177.5870  147.8130 O   0  0  0  0  0  0  0  0  0  0  0  0
  188.5470  175.9080  147.2800 O   0  0  0  0  0  0  0  0  0  0  0  0
  187.9950  176.7560  146.3160 C   0  0  0  0  0  2  0  0  0  0  0  0
  186.4840  176.7550  146.4360 C   0  0  0  0  0  2  0  0  0  0  0  0
  185.8700  177.1090  145.0880 C   0  0  0  0  0  2  0  0  0  0  0  0
  186.4340  178.4060  144.5030 C   0  0  2  0  0  3  0  0  0  0  0  0
  185.7360  179.5260  144.9580 O   0  0  0  0  0  1  0  0  0  0  0  0
  185.9260  177.1380  142.3700 C   0  0  0  0  0  1  0  0  0  0  0  0
  186.5480  178.3840  142.9810 C   0  0  0  0  0  2  0  0  0  0  0  0
  191.5870  170.2700  142.7580 C   0  0  0  0  0  2  0  0  0  0  0  0
  192.7020  169.4430  142.5880 O   0  0  0  0  0  0  0  0  0  0  0  0
  193.7040  170.0920  143.1560 O   0  0  0  0  0  0  0  0  0  0  0  0
  195.7800  169.2050  144.0250 C   0  0  0  0  0  0  0  0  0  0  0  0
  196.7670  168.4320  143.8910 O   0  0  0  0  0  0  0  0  0  0  0  0
  194.7870  169.2900  142.9890 N   0  0  0  0  0  0  0  0  0  0  0  0
  195.6490  170.0500  145.2640 C   0  0  2  0  0  3  0  0  0  0  0  0
  196.7210  171.7660  146.5650 F   0  0  0  0  0  0  0  0  0  0  0  0
  196.9330  170.8410  145.5550 C   0  0  0  0  0  0  0  0  0  0  0  0
  197.3400  171.5040  144.4120 F   0  0  0  0  0  0  0  0  0  0  0  0
  197.9410  169.9720  145.9480 F   0  0  0  0  0  0  0  0  0  0  0  0
  194.1370  168.5970  146.3370 O   0  0  0  0  0  0  0  0  0  0  0  0
  195.1790  169.2280  146.4270 C   0  0  0  0  0  0  0  0  0  0  0  0
  195.9190  169.1430  147.5670 F   0  0  0  0  0  0  0  0  0  0  0  0
  194.8150  168.3300  141.8830 C   0  0  0  0  0  2  0  0  0  0  0  0
  196.8760  168.2430  140.4490 C   0  0  0  0  0  1  0  0  0  0  0  0
  195.5030  168.8720  140.6250 C   0  0  0  0  0  0  0  0  0  0  0  0
  195.6620  170.3870  140.6980 C   0  0  0  0  0  1  0  0  0  0  0  0
  194.6680  168.5050  139.4030 C   0  0  0  0  0  2  0  0  0  0  0  0
  194.0180  169.6770  138.8300 N   0  0  0  0  0  2  0  0  0  0  0  0
  192.1300  168.3350  138.5850 O   0  0  0  0  0  1  0  0  0  0  0  0
  192.5950  169.5480  139.0980 C   0  0  2  0  0  3  0  0  0  0  0  0
  191.8520  170.6910  138.4790 C   0  0  0  0  0  0  0  0  0  0  0  0
  192.5180  171.7530  138.0150 C   0  0  0  0  0  3  0  0  0  0  0  0
  190.6930  173.4540  137.6600 C   0  0  0  0  0  0  0  0  0  0  0  0
  188.8790  173.8950  139.4080 C   0  0  0  0  0  1  0  0  0  0  0  0
  189.7640  172.9330  138.6950 C   0  0  0  0  0  0  0  0  0  0  0  0
  191.9090  172.9510  137.4070 C   0  0  0  0  0  3  0  0  0  0  0  0
  190.3460  174.5950  137.0120 F   0  0  0  0  0  0  0  0  0  0  0  0
  190.3780  170.5500  138.2880 C   0  0  0  0  0  2  0  0  0  0  0  0
  189.6270  171.6370  138.9860 C   0  0  0  0  0  3  0  0  0  0  0  0
  1  8  1  6  0  0  0
  2  1  1  0  0  0  0
  2 22  1  1  0  0  0
  2 15  1  0  0  0  0
  3 11  1  0  0  0  0
  4  5  1  6  0  0  0
  4  2  1  0  0  0  0
  7  3  1  0  0  0  0
  7 34  1  1  0  0  0
  7 11  1  0  0  0  0
  9  1  1  0  0  0  0
 10  6  1  6  0  0  0
 10 11  1  0  0  0  0
 10  4  1  0  0  0  0
 11  9  1  1  0  0  0
 12 13  1  6  0  0  0
 12  4  1  0  0  0  0
 14 12  1  0  0  0  0
 15 16  1  6  0  0  0
 18 15  1  0  0  0  0
 18 17  1  1  0  0  0
 20 21  2  0  0  0  0
 21 18  1  0  0  0  0
 21 19  1  0  0  0  0
 22 23  1  0  0  0  0
 23 26  1  0  0  0  0
 23 25  2  1  0  0  0
 23 24  1  0  0  0  0
 27 28  1  0  0  0  0
 27 26  1  0  0  0  0
 29 28  1  0  0  0  0
 30 31  1  6  0  0  0
 30 29  1  0  0  0  0
 32 33  1  0  0  0  0
 33 30  1  0  0  0  0
 35 34  1  0  0  0  0
 35 36  1  0  0  0  0
 38 37  2  0  0  0  0
 39 36  1  0  0  0  0
 39 37  1  0  0  0  0
 40 37  1  6  0  0  0
 40 42  1  0  0  0  0
 40 46  1  0  0  0  0
 42 44  1  0  0  0  0
 42 41  1  0  0  0  0
 43 42  1  0  0  0  0
 45 46  2  0  0  0  0
 46 47  1  0  0  0  0
 48 39  1  0  0  0  0
 49 50  1  0  0  0  0
 50 51  1  0  0  0  0
 50 48  1  0  0  0  0
 52 50  1  0  0  0  0
 53 55  1  0  0  0  0
 53 52  1  0  0  0  0
 55 54  1  6  0  0  0
 56 55  1  0  0  0  0
 57 56  2  0  0  0  0
 58 60  1  0  0  0  0
 60 64  2  0  0  0  0
 60 59  1  0  0  0  0
 61 58  2  0  0  0  0
 61 57  1  0  0  0  0
 62 58  1  0  0  0  0
 63 56  1  0  0  0  0
 63 64  1  0  0  0  0
M  END
>  <MODEL>
3

>  <REMARK>
 VINA RESULT:      -5.4      4.135      9.141
  Name = 
  25 active torsions:
  status: ('A' for Active; 'I' for Inactive)
    1  A    between atoms: C_2  and  C_7
    2  A    between atoms: C_2  and  C_19
    3  A    between atoms: C_3  and  C_10
    4  A    between atoms: C_6  and  O_9
    5  A    between atoms: C_6  and  C_46
    6  A    between atoms: C_7  and  O_33
    7  A    between atoms: O_9  and  P_16
    8  A    between atoms: C_10  and  N_28
    9  A    between atoms: C_15  and  C_46
   10  A    between atoms: C_15  and  C_55
   11  A    between atoms: P_16  and  O_33
   12  A    between atoms: C_17  and  C_26
   13  A    between atoms: C_19  and  C_56
   14  A    between atoms: C_21  and  C_54
   15  A    between atoms: N_28  and  C_31
   16  A    between atoms: C_30  and  C_31
   17  A    between atoms: C_30  and  C_61
   18  A    between atoms: C_32  and  C_55
   19  A    between atoms: O_35  and  C_47
   20  A    between atoms: O_35  and  O_48
   21  A    between atoms: C_41  and  C_47
   22  A    between atoms: C_43  and  C_54
   23  A    between atoms: C_44  and  C_54
   24  A    between atoms: O_48  and  N_60
   25  A    between atoms: N_60  and  C_61
                            x       y       z     vdW  Elec       q    Type
                         _______ _______ _______ _____ _____    ______ ____

>  <TORSDO>
F 25

$$$$
=
 OpenBabel11072409203D

 64 66  0  0  1  0  0  0  0  0999 V2000
  190.9520  173.7730  143.7740 C   0  0  1  0  0  3  0  0  0  0  0  0
  190.6030  175.2610  143.4530 C   0  0  2  0  0  0  0  0  0  0  0  0
  189.0600  172.0880  141.6360 O   0  0  0  0  0  0  0  0  0  0  0  0
  189.3320  175.2790  142.4900 C   0  0  2  0  0  0  0  0  0  0  0  0
  188.2640  174.6610  143.1580 O   0  0  0  0  0  1  0  0  0  0  0  0
  188.4380  174.4470  140.3860 O   0  0  0  0  0  1  0  0  0  0  0  0
  189.8630  172.0030  140.4730 C   0  0  1  0  0  3  0  0  0  0  0  0
  190.0050  173.1870  144.6200 O   0  0  0  0  0  1  0  0  0  0  0  0
  191.1820  172.8820  142.5560 C   0  0  0  0  0  2  0  0  0  0  0  0
  189.5820  174.4670  141.2000 C   0  0  2  0  0  3  0  0  0  0  0  0
  190.0810  173.0470  141.5120 C   0  0  2  0  0  0  0  0  0  0  0  0
  188.8280  176.6880  142.0760 C   0  0  1  0  0  3  0  0  0  0  0  0
  187.3170  176.8370  142.0090 C   0  0  0  0  0  1  0  0  0  0  0  0
  189.3900  177.7230  142.8180 O   0  0  0  0  0  1  0  0  0  0  0  0
  191.9250  175.9050  142.8500 C   0  0  1  0  0  3  0  0  0  0  0  0
  192.1880  177.3350  143.3410 C   0  0  0  0  0  1  0  0  0  0  0  0
  193.5820  174.7510  141.3410 C   0  0  0  0  0  1  0  0  0  0  0  0
  193.2200  175.0510  142.7870 C   0  0  1  0  0  3  0  0  0  0  0  0
  195.3480  176.3880  142.7900 O   0  0  0  0  0  0  0  0  0  0  0  0
  194.5780  175.4620  144.7330 O   0  0  0  0  0  1  0  0  0  0  0  0
  194.4160  175.6400  143.4940 C   0  0  0  0  0  0  0  0  0  0  0  0
  190.1880  175.8090  144.7150 O   0  0  0  0  0  0  0  0  0  0  0  0
  191.1360  175.4720  146.1140 P   0  0  1  0  0  0  0  0  0  0  0  0
  192.0950  174.3230  145.9090 O   0  0  0  0  0  0  0  0  0  0  0  0
  192.0440  176.8510  146.4820 O   0  0  0  0  0  1  0  0  0  0  0  0
  190.1180  175.1360  147.4320 O   0  0  0  0  0  0  0  0  0  0  0  0
  188.8330  175.0400  146.8930 C   0  0  0  0  0  2  0  0  0  0  0  0
  187.9730  176.1760  147.4100 C   0  0  0  0  0  2  0  0  0  0  0  0
  187.0020  176.6120  146.3210 C   0  0  0  0  0  2  0  0  0  0  0  0
  185.7910  177.3660  146.8740 C   0  0  2  0  0  3  0  0  0  0  0  0
  184.5890  176.8280  146.4080 O   0  0  0  0  0  1  0  0  0  0  0  0
  186.2270  179.6290  147.9230 C   0  0  0  0  0  1  0  0  0  0  0  0
  185.8640  178.8740  146.6540 C   0  0  0  0  0  2  0  0  0  0  0  0
  190.8120  170.8130  140.5930 C   0  0  0  0  0  2  0  0  0  0  0  0
  191.6890  170.7760  139.5040 O   0  0  0  0  0  0  0  0  0  0  0  0
  192.0860  172.0260  139.3360 O   0  0  0  0  0  0  0  0  0  0  0  0
  192.0890  172.1440  136.9210 C   0  0  0  0  0  0  0  0  0  0  0  0
  192.7360  172.1820  135.8390 O   0  0  0  0  0  0  0  0  0  0  0  0
  192.7850  172.0230  138.1730 N   0  0  0  0  0  0  0  0  0  0  0  0
  190.5850  172.2080  136.8980 C   0  0  2  0  0  3  0  0  0  0  0  0
  188.9610  171.1120  135.5030 F   0  0  0  0  0  0  0  0  0  0  0  0
  189.9620  170.8840  136.4340 C   0  0  0  0  0  0  0  0  0  0  0  0
  189.4260  170.2160  137.5190 F   0  0  0  0  0  0  0  0  0  0  0  0
  190.9360  170.0830  135.8550 F   0  0  0  0  0  0  0  0  0  0  0  0
  189.5640  174.3220  136.6990 O   0  0  0  0  0  0  0  0  0  0  0  0
  190.1100  173.3970  136.1170 C   0  0  0  0  0  0  0  0  0  0  0  0
  190.3160  173.4770  134.7740 F   0  0  0  0  0  0  0  0  0  0  0  0
  194.2430  172.1570  138.2010 C   0  0  0  0  0  2  0  0  0  0  0  0
  195.9320  170.7520  136.9840 C   0  0  0  0  0  1  0  0  0  0  0  0
  194.9780  170.8120  138.1660 C   0  0  0  0  0  0  0  0  0  0  0  0
  193.9920  169.6540  138.0620 C   0  0  0  0  0  1  0  0  0  0  0  0
  195.8080  170.6640  139.4360 C   0  0  0  0  0  2  0  0  0  0  0  0
  195.3560  171.5770  140.4780 N   0  0  0  0  0  2  0  0  0  0  0  0
  197.6810  171.5850  140.6250 O   0  0  0  0  0  1  0  0  0  0  0  0
  196.5270  172.3010  140.9470 C   0  0  2  0  0  3  0  0  0  0  0  0
  196.4410  172.5070  142.4280 C   0  0  0  0  0  0  0  0  0  0  0  0
  197.3540  173.2540  143.0560 C   0  0  0  0  0  3  0  0  0  0  0  0
  196.9460  172.7200  145.4850 C   0  0  0  0  0  0  0  0  0  0  0  0
  196.6300  170.3250  146.3230 C   0  0  0  0  0  1  0  0  0  0  0  0
  196.3960  171.3580  145.2750 C   0  0  0  0  0  0  0  0  0  0  0  0
  197.3980  173.5170  144.5080 C   0  0  0  0  0  3  0  0  0  0  0  0
  197.1240  173.1430  146.7620 F   0  0  0  0  0  0  0  0  0  0  0  0
  195.2500  171.9650  143.1450 C   0  0  0  0  0  2  0  0  0  0  0  0
  195.6460  171.0120  144.2260 C   0  0  0  0  0  3  0  0  0  0  0  0
  1  8  1  6  0  0  0
  2  1  1  0  0  0  0
  2 22  1  1  0  0  0
  4  5  1  1  0  0  0
  4  2  1  0  0  0  0
  7 34  1  1  0  0  0
  7 11  1  0  0  0  0
  7  3  1  0  0  0  0
  9  1  1  0  0  0  0
 10  6  1  1  0  0  0
 10 11  1  0  0  0  0
 10  4  1  0  0  0  0
 11  3  1  0  0  0  0
 11  9  1  1  0  0  0
 12 13  1  1  0  0  0
 12  4  1  0  0  0  0
 12 14  1  0  0  0  0
 15 16  1  1  0  0  0
 15  2  1  0  0  0  0
 18 17  1  6  0  0  0
 18 15  1  0  0  0  0
 18 21  1  0  0  0  0
 19 21  2  0  0  0  0
 21 20  1  0  0  0  0
 22 23  1  0  0  0  0
 23 24  2  6  0  0  0
 23 25  1  0  0  0  0
 23 26  1  0  0  0  0
 27 28  1  0  0  0  0
 27 26  1  0  0  0  0
 29 30  1  0  0  0  0
 29 28  1  0  0  0  0
 30 31  1  6  0  0  0
 33 30  1  0  0  0  0
 33 32  1  0  0  0  0
 35 34  1  0  0  0  0
 36 35  1  0  0  0  0
 37 39  1  0  0  0  0
 38 37  2  0  0  0  0
 39 48  1  0  0  0  0
 39 36  1  0  0  0  0
 40 46  1  6  0  0  0
 40 37  1  0  0  0  0
 41 42  1  0  0  0  0
 42 40  1  0  0  0  0
 42 43  1  0  0  0  0
 44 42  1  0  0  0  0
 46 45  2  0  0  0  0
 47 46  1  0  0  0  0
 49 50  1  0  0  0  0
 50 48  1  0  0  0  0
 50 52  1  0  0  0  0
 51 50  1  0  0  0  0
 52 53  1  0  0  0  0
 53 55  1  0  0  0  0
 55 54  1  1  0  0  0
 55 56  1  0  0  0  0
 56 57  2  0  0  0  0
 56 63  1  0  0  0  0
 57 61  1  0  0  0  0
 58 62  1  0  0  0  0
 60 58  1  0  0  0  0
 60 59  1  0  0  0  0
 61 58  2  0  0  0  0
 63 64  1  0  0  0  0
 64 60  2  0  0  0  0
M  END
>  <MODEL>
4

>  <REMARK>
 VINA RESULT:      -5.1      3.535      9.855
  Name = 
  25 active torsions:
  status: ('A' for Active; 'I' for Inactive)
    1  A    between atoms: C_2  and  C_7
    2  A    between atoms: C_2  and  C_19
    3  A    between atoms: C_3  and  C_10
    4  A    between atoms: C_6  and  O_9
    5  A    between atoms: C_6  and  C_46
    6  A    between atoms: C_7  and  O_33
    7  A    between atoms: O_9  and  P_16
    8  A    between atoms: C_10  and  N_28
    9  A    between atoms: C_15  and  C_46
   10  A    between atoms: C_15  and  C_55
   11  A    between atoms: P_16  and  O_33
   12  A    between atoms: C_17  and  C_26
   13  A    between atoms: C_19  and  C_56
   14  A    between atoms: C_21  and  C_54
   15  A    between atoms: N_28  and  C_31
   16  A    between atoms: C_30  and  C_31
   17  A    between atoms: C_30  and  C_61
   18  A    between atoms: C_32  and  C_55
   19  A    between atoms: O_35  and  C_47
   20  A    between atoms: O_35  and  O_48
   21  A    between atoms: C_41  and  C_47
   22  A    between atoms: C_43  and  C_54
   23  A    between atoms: C_44  and  C_54
   24  A    between atoms: O_48  and  N_60
   25  A    between atoms: N_60  and  C_61
                            x       y       z     vdW  Elec       q    Type
                         _______ _______ _______ _____ _____    ______ ____

>  <TORSDO>
F 25

$$$$
=
 OpenBabel11072409203D

 64 66  0  0  1  0  0  0  0  0999 V2000
  187.4770  175.9910  142.9230 C   0  0  1  0  0  3  0  0  0  0  0  0
  188.2880  176.9050  143.8940 C   0  0  2  0  0  0  0  0  0  0  0  0
  189.8320  174.6860  140.9900 O   0  0  0  0  0  0  0  0  0  0  0  0
  189.7800  177.0180  143.3440 C   0  0  2  0  0  0  0  0  0  0  0  0
  189.7350  177.5870  142.0610 O   0  0  0  0  0  1  0  0  0  0  0  0
  191.7330  175.7390  142.6600 O   0  0  0  0  0  1  0  0  0  0  0  0
  190.2460  173.5320  141.6970 C   0  0  1  0  0  3  0  0  0  0  0  0
  187.2310  176.6190  141.6980 O   0  0  0  0  0  1  0  0  0  0  0  0
  188.0720  174.6050  142.6850 C   0  0  0  0  0  2  0  0  0  0  0  0
  190.4390  175.6300  143.1950 C   0  0  2  0  0  3  0  0  0  0  0  0
  189.5640  174.6730  142.3700 C   0  0  2  0  0  0  0  0  0  0  0  0
  190.7340  177.9120  144.1810 C   0  0  1  0  0  3  0  0  0  0  0  0
  191.9390  177.1940  144.7670 C   0  0  0  0  0  1  0  0  0  0  0  0
  191.1280  179.0760  143.5280 O   0  0  0  0  0  1  0  0  0  0  0  0
  188.1410  176.2590  145.3380 C   0  0  1  0  0  3  0  0  0  0  0  0
  189.0350  175.0310  145.5530 C   0  0  0  0  0  1  0  0  0  0  0  0
  186.9530  176.7950  147.4960 C   0  0  0  0  0  1  0  0  0  0  0  0
  188.1010  177.1890  146.5810 C   0  0  1  0  0  3  0  0  0  0  0  0
  189.7060  178.4040  148.0860 O   0  0  0  0  0  1  0  0  0  0  0  0
  190.1640  176.2680  147.4130 O   0  0  0  0  0  0  0  0  0  0  0  0
  189.3800  177.2560  147.3780 C   0  0  0  0  0  0  0  0  0  0  0  0
  187.6820  178.2010  143.7500 O   0  0  0  0  0  0  0  0  0  0  0  0
  185.9910  178.3590  144.0340 P   0  0  1  0  0  0  0  0  0  0  0  0
  185.3560  177.0790  144.5240 O   0  0  0  0  0  0  0  0  0  0  0  0
  185.7620  179.5420  145.2230 O   0  0  0  0  0  1  0  0  0  0  0  0
  185.2140  178.8740  142.6150 O   0  0  0  0  0  0  0  0  0  0  0  0
  184.2800  177.8770  142.3210 C   0  0  0  0  0  2  0  0  0  0  0  0
  183.3180  178.3720  141.2600 C   0  0  0  0  0  2  0  0  0  0  0  0
  181.9350  178.5470  141.8730 C   0  0  0  0  0  2  0  0  0  0  0  0
  180.8320  178.6780  140.8210 C   0  0  2  0  0  3  0  0  0  0  0  0
  180.5870  180.0130  140.4920 O   0  0  0  0  0  1  0  0  0  0  0  0
  178.3210  178.8280  141.1090 C   0  0  0  0  0  1  0  0  0  0  0  0
  179.5500  177.9370  141.1910 C   0  0  0  0  0  2  0  0  0  0  0  0
  189.3120  172.3690  141.3690 C   0  0  0  0  0  2  0  0  0  0  0  0
  189.7340  171.7180  140.2050 O   0  0  0  0  0  0  0  0  0  0  0  0
  190.7960  172.3910  139.7970 O   0  0  0  0  0  0  0  0  0  0  0  0
  191.5440  172.0330  137.5250 C   0  0  0  0  0  0  0  0  0  0  0  0
  192.1370  171.3060  136.6820 O   0  0  0  0  0  0  0  0  0  0  0  0
  191.3970  171.5860  138.8840 N   0  0  0  0  0  0  0  0  0  0  0  0
  190.9760  173.3610  137.1030 C   0  0  2  0  0  3  0  0  0  0  0  0
  189.3230  172.0690  135.9270 F   0  0  0  0  0  0  0  0  0  0  0  0
  190.0740  173.2330  135.8680 C   0  0  0  0  0  0  0  0  0  0  0  0
  190.8510  173.2110  134.7240 F   0  0  0  0  0  0  0  0  0  0  0  0
  189.2130  174.3180  135.8000 F   0  0  0  0  0  0  0  0  0  0  0  0
  193.1560  174.1840  137.4500 O   0  0  0  0  0  0  0  0  0  0  0  0
  192.0630  174.3840  136.9440 C   0  0  0  0  0  0  0  0  0  0  0  0
  191.8580  175.5100  136.2080 F   0  0  0  0  0  0  0  0  0  0  0  0
  192.1160  170.3910  139.3300 C   0  0  0  0  0  2  0  0  0  0  0  0
  193.6120  172.1330  140.3490 C   0  0  0  0  0  1  0  0  0  0  0  0
  193.1650  170.6810  140.4100 C   0  0  0  0  0  0  0  0  0  0  0  0
  194.3860  169.7840  140.2410 C   0  0  0  0  0  1  0  0  0  0  0  0
  192.5450  170.4470  141.7840 C   0  0  0  0  0  2  0  0  0  0  0  0
  193.5600  170.4220  142.8290 N   0  0  0  0  0  2  0  0  0  0  0  0
  191.5500  171.0280  143.8370 O   0  0  0  0  0  1  0  0  0  0  0  0
  192.8870  170.7100  144.0840 C   0  0  2  0  0  3  0  0  0  0  0  0
  193.5700  171.8440  144.7840 C   0  0  0  0  0  0  0  0  0  0  0  0
  192.9010  172.9720  145.0460 C   0  0  0  0  0  3  0  0  0  0  0  0
  194.7360  174.5780  145.6840 C   0  0  0  0  0  0  0  0  0  0  0  0
  196.8940  174.7950  144.3290 C   0  0  0  0  0  1  0  0  0  0  0  0
  195.8140  173.9360  144.8920 C   0  0  0  0  0  0  0  0  0  0  0  0
  193.4600  174.1680  145.7050 C   0  0  0  0  0  3  0  0  0  0  0  0
  195.0250  175.7360  146.3300 F   0  0  0  0  0  0  0  0  0  0  0  0
  194.9590  171.6270  145.2830 C   0  0  0  0  0  2  0  0  0  0  0  0
  195.9130  172.6180  144.7010 C   0  0  0  0  0  3  0  0  0  0  0  0
  1  8  1  6  0  0  0
  1  2  1  0  0  0  0
  2 22  1  1  0  0  0
  2 15  1  0  0  0  0
  3  7  1  0  0  0  0
  3 11  1  0  0  0  0
  4  5  1  6  0  0  0
  4  2  1  0  0  0  0
  4 12  1  0  0  0  0
  7 34  1  6  0  0  0
  7 11  1  0  0  0  0
  9  1  1  0  0  0  0
 10  6  1  6  0  0  0
 10  4  1  0  0  0  0
 11  9  1  1  0  0  0
 11 10  1  0  0  0  0
 12 13  1  6  0  0  0
 14 12  1  0  0  0  0
 15 16  1  1  0  0  0
 15 18  1  0  0  0  0
 18 21  1  0  0  0  0
 18 17  1  1  0  0  0
 21 20  2  0  0  0  0
 21 19  1  0  0  0  0
 22 23  1  0  0  0  0
 23 24  2  1  0  0  0
 23 25  1  0  0  0  0
 26 23  1  0  0  0  0
 27 26  1  0  0  0  0
 28 29  1  0  0  0  0
 28 27  1  0  0  0  0
 30 31  1  1  0  0  0
 30 33  1  0  0  0  0
 30 29  1  0  0  0  0
 32 33  1  0  0  0  0
 35 34  1  0  0  0  0
 36 35  1  0  0  0  0
 37 39  1  0  0  0  0
 38 37  2  0  0  0  0
 39 48  1  0  0  0  0
 39 36  1  0  0  0  0
 40 46  1  6  0  0  0
 40 37  1  0  0  0  0
 42 41  1  0  0  0  0
 42 40  1  0  0  0  0
 43 42  1  0  0  0  0
 44 42  1  0  0  0  0
 46 45  2  0  0  0  0
 47 46  1  0  0  0  0
 48 50  1  0  0  0  0
 49 50  1  0  0  0  0
 50 52  1  0  0  0  0
 51 50  1  0  0  0  0
 52 53  1  0  0  0  0
 53 55  1  0  0  0  0
 55 54  1  6  0  0  0
 55 56  1  0  0  0  0
 56 57  2  0  0  0  0
 56 63  1  0  0  0  0
 57 61  1  0  0  0  0
 58 61  2  0  0  0  0
 58 62  1  0  0  0  0
 59 60  1  0  0  0  0
 60 58  1  0  0  0  0
 64 60  2  0  0  0  0
 64 63  1  0  0  0  0
M  END
>  <MODEL>
5

>  <REMARK>
 VINA RESULT:      -5.1      3.914     10.698
  Name = 
  25 active torsions:
  status: ('A' for Active; 'I' for Inactive)
    1  A    between atoms: C_2  and  C_7
    2  A    between atoms: C_2  and  C_19
    3  A    between atoms: C_3  and  C_10
    4  A    between atoms: C_6  and  O_9
    5  A    between atoms: C_6  and  C_46
    6  A    between atoms: C_7  and  O_33
    7  A    between atoms: O_9  and  P_16
    8  A    between atoms: C_10  and  N_28
    9  A    between atoms: C_15  and  C_46
   10  A    between atoms: C_15  and  C_55
   11  A    between atoms: P_16  and  O_33
   12  A    between atoms: C_17  and  C_26
   13  A    between atoms: C_19  and  C_56
   14  A    between atoms: C_21  and  C_54
   15  A    between atoms: N_28  and  C_31
   16  A    between atoms: C_30  and  C_31
   17  A    between atoms: C_30  and  C_61
   18  A    between atoms: C_32  and  C_55
   19  A    between atoms: O_35  and  C_47
   20  A    between atoms: O_35  and  O_48
   21  A    between atoms: C_41  and  C_47
   22  A    between atoms: C_43  and  C_54
   23  A    between atoms: C_44  and  C_54
   24  A    between atoms: O_48  and  N_60
   25  A    between atoms: N_60  and  C_61
                            x       y       z     vdW  Elec       q    Type
                         _______ _______ _______ _____ _____    ______ ____

>  <TORSDO>
F 25

$$$$
=
 OpenBabel11072409203D

 64 66  0  0  1  0  0  0  0  0999 V2000
  189.2870  174.2810  142.2000 C   0  0  1  0  0  3  0  0  0  0  0  0
  189.9300  175.1680  143.3120 C   0  0  2  0  0  0  0  0  0  0  0  0
  191.8400  172.4490  141.1420 O   0  0  0  0  0  0  0  0  0  0  0  0
  191.5140  175.0040  143.2290 C   0  0  2  0  0  0  0  0  0  0  0  0
  191.9350  175.4320  141.9590 O   0  0  0  0  0  1  0  0  0  0  0  0
  193.3350  173.3910  143.2380 O   0  0  0  0  0  1  0  0  0  0  0  0
  191.8320  171.3310  142.0090 C   0  0  1  0  0  3  0  0  0  0  0  0
  189.5130  174.8020  140.9220 O   0  0  0  0  0  1  0  0  0  0  0  0
  189.6820  172.8060  142.2350 C   0  0  0  0  0  2  0  0  0  0  0  0
  191.9430  173.5270  143.3670 C   0  0  2  0  0  3  0  0  0  0  0  0
  191.1910  172.6230  142.3770 C   0  0  2  0  0  0  0  0  0  0  0  0
  192.3270  175.8350  144.2580 C   0  0  1  0  0  3  0  0  0  0  0  0
  193.1410  175.0170  145.2460 C   0  0  0  0  0  1  0  0  0  0  0  0
  193.1110  176.8290  143.6800 O   0  0  0  0  0  1  0  0  0  0  0  0
  189.2690  174.7090  144.6830 C   0  0  1  0  0  3  0  0  0  0  0  0
  189.6420  173.2770  145.0930 C   0  0  0  0  0  1  0  0  0  0  0  0
  187.8870  176.2990  146.0660 C   0  0  0  0  0  1  0  0  0  0  0  0
  189.2680  175.6900  145.8860 C   0  0  1  0  0  3  0  0  0  0  0  0
  188.8720  174.3410  147.9700 O   0  0  0  0  0  1  0  0  0  0  0  0
  190.9140  175.2980  147.6000 O   0  0  0  0  0  0  0  0  0  0  0  0
  189.7350  175.1040  147.1960 C   0  0  0  0  0  0  0  0  0  0  0  0
  189.6200  176.5140  142.9160 O   0  0  0  0  0  0  0  0  0  0  0  0
  188.0040  176.8870  142.4490 P   0  0  1  0  0  0  0  0  0  0  0  0
  187.8880  177.2710  140.9930 O   0  0  0  0  0  0  0  0  0  0  0  0
  187.0500  175.5130  142.7040 O   0  0  0  0  0  1  0  0  0  0  0  0
  187.3990  178.1430  143.4190 O   0  0  0  0  0  0  0  0  0  0  0  0
  186.3130  178.6670  142.7130 C   0  0  0  0  0  2  0  0  0  0  0  0
  185.3840  179.3930  143.6650 C   0  0  0  0  0  2  0  0  0  0  0  0
  185.8820  179.2110  145.0930 C   0  0  0  0  0  2  0  0  0  0  0  0
  184.8730  178.4820  145.9840 C   0  0  2  0  0  3  0  0  0  0  0  0
  183.5970  179.0410  145.8840 O   0  0  0  0  0  1  0  0  0  0  0  0
  186.0740  179.5860  147.9200 C   0  0  0  0  0  1  0  0  0  0  0  0
  185.3280  178.3530  147.4350 C   0  0  0  0  0  2  0  0  0  0  0  0
  190.8480  170.2860  141.4880 C   0  0  0  0  0  2  0  0  0  0  0  0
  191.5060  169.3620  140.6680 O   0  0  0  0  0  0  0  0  0  0  0  0
  192.5950  169.9840  140.2500 O   0  0  0  0  0  0  0  0  0  0  0  0
  192.2870  170.0340  137.8510 C   0  0  0  0  0  0  0  0  0  0  0  0
  192.5650  169.5650  136.7140 O   0  0  0  0  0  0  0  0  0  0  0  0
  192.8630  169.4490  139.0310 N   0  0  0  0  0  0  0  0  0  0  0  0
  191.3400  171.1970  137.9740 C   0  0  2  0  0  3  0  0  0  0  0  0
  189.0020  171.5670  138.4060 F   0  0  0  0  0  0  0  0  0  0  0  0
  189.8890  170.7880  137.6790 C   0  0  0  0  0  0  0  0  0  0  0  0
  189.7040  169.4590  138.0150 F   0  0  0  0  0  0  0  0  0  0  0  0
  189.6210  170.9460  136.3280 F   0  0  0  0  0  0  0  0  0  0  0  0
  191.5820  173.4990  137.5340 O   0  0  0  0  0  0  0  0  0  0  0  0
  191.8090  172.3610  137.1510 C   0  0  0  0  0  0  0  0  0  0  0  0
  192.5190  172.1650  136.0070 F   0  0  0  0  0  0  0  0  0  0  0  0
  193.9270  168.4520  138.8950 C   0  0  0  0  0  2  0  0  0  0  0  0
  196.4000  168.2280  138.5100 C   0  0  0  0  0  1  0  0  0  0  0  0
  195.3160  168.9920  139.2550 C   0  0  0  0  0  0  0  0  0  0  0  0
  195.5760  168.8770  140.7530 C   0  0  0  0  0  1  0  0  0  0  0  0
  195.4080  170.4540  138.8310 C   0  0  0  0  0  2  0  0  0  0  0  0
  196.6520  171.0630  139.2840 N   0  0  0  0  0  2  0  0  0  0  0  0
  197.1410  173.1000  138.2670 O   0  0  0  0  0  1  0  0  0  0  0  0
  196.4370  172.5000  139.3130 C   0  0  2  0  0  3  0  0  0  0  0  0
  196.8850  173.0590  140.6280 C   0  0  0  0  0  0  0  0  0  0  0  0
  196.4260  172.5390  141.7700 C   0  0  0  0  0  3  0  0  0  0  0  0
  197.1110  174.2540  143.4860 C   0  0  0  0  0  0  0  0  0  0  0  0
  196.7590  176.7610  143.1270 C   0  0  0  0  0  1  0  0  0  0  0  0
  197.1130  175.4240  142.5730 C   0  0  0  0  0  0  0  0  0  0  0  0
  196.7680  173.0090  143.1270 C   0  0  0  0  0  3  0  0  0  0  0  0
  197.3480  174.4750  144.8030 F   0  0  0  0  0  0  0  0  0  0  0  0
  197.9410  174.1140  140.6200 C   0  0  0  0  0  2  0  0  0  0  0  0
  197.4730  175.3650  141.2890 C   0  0  0  0  0  3  0  0  0  0  0  0
  1  8  1  6  0  0  0
  1  9  1  0  0  0  0
  1  2  1  0  0  0  0
  2 22  1  6  0  0  0
  2 15  1  0  0  0  0
  3  7  1  0  0  0  0
  3 11  1  0  0  0  0
  4  5  1  6  0  0  0
  4  2  1  0  0  0  0
  4 10  1  0  0  0  0
  4 12  1  0  0  0  0
  7 34  1  6  0  0  0
  7 11  1  0  0  0  0
 10  6  1  6  0  0  0
 11  9  1  6  0  0  0
 11 10  1  0  0  0  0
 12 13  1  6  0  0  0
 14 12  1  0  0  0  0
 15 16  1  1  0  0  0
 15 18  1  0  0  0  0
 18 17  1  1  0  0  0
 18 21  1  0  0  0  0
 21 20  2  0  0  0  0
 21 19  1  0  0  0  0
 23 24  2  6  0  0  0
 23 25  1  0  0  0  0
 23 22  1  0  0  0  0
 23 26  1  0  0  0  0
 27 26  1  0  0  0  0
 27 28  1  0  0  0  0
 28 29  1  0  0  0  0
 29 30  1  0  0  0  0
 30 31  1  1  0  0  0
 30 33  1  0  0  0  0
 33 32  1  0  0  0  0
 35 34  1  0  0  0  0
 36 35  1  0  0  0  0
 37 40  1  0  0  0  0
 37 39  1  0  0  0  0
 38 37  2  0  0  0  0
 39 36  1  0  0  0  0
 40 46  1  6  0  0  0
 42 40  1  0  0  0  0
 42 43  1  0  0  0  0
 42 41  1  0  0  0  0
 44 42  1  0  0  0  0
 46 45  2  0  0  0  0
 47 46  1  0  0  0  0
 48 39  1  0  0  0  0
 48 50  1  0  0  0  0
 49 50  1  0  0  0  0
 50 51  1  0  0  0  0
 52 50  1  0  0  0  0
 52 53  1  0  0  0  0
 53 55  1  0  0  0  0
 55 54  1  6  0  0  0
 55 56  1  0  0  0  0
 56 57  2  0  0  0  0
 57 61  1  0  0  0  0
 58 62  1  0  0  0  0
 60 59  1  0  0  0  0
 60 58  1  0  0  0  0
 61 58  2  0  0  0  0
 63 56  1  0  0  0  0
 63 64  1  0  0  0  0
 64 60  2  0  0  0  0
M  END
>  <MODEL>
6

>  <REMARK>
 VINA RESULT:      -5.0      3.463     10.290
  Name = 
  25 active torsions:
  status: ('A' for Active; 'I' for Inactive)
    1  A    between atoms: C_2  and  C_7
    2  A    between atoms: C_2  and  C_19
    3  A    between atoms: C_3  and  C_10
    4  A    between atoms: C_6  and  O_9
    5  A    between atoms: C_6  and  C_46
    6  A    between atoms: C_7  and  O_33
    7  A    between atoms: O_9  and  P_16
    8  A    between atoms: C_10  and  N_28
    9  A    between atoms: C_15  and  C_46
   10  A    between atoms: C_15  and  C_55
   11  A    between atoms: P_16  and  O_33
   12  A    between atoms: C_17  and  C_26
   13  A    between atoms: C_19  and  C_56
   14  A    between atoms: C_21  and  C_54
   15  A    between atoms: N_28  and  C_31
   16  A    between atoms: C_30  and  C_31
   17  A    between atoms: C_30  and  C_61
   18  A    between atoms: C_32  and  C_55
   19  A    between atoms: O_35  and  C_47
   20  A    between atoms: O_35  and  O_48
   21  A    between atoms: C_41  and  C_47
   22  A    between atoms: C_43  and  C_54
   23  A    between atoms: C_44  and  C_54
   24  A    between atoms: O_48  and  N_60
   25  A    between atoms: N_60  and  C_61
                            x       y       z     vdW  Elec       q    Type
                         _______ _______ _______ _____ _____    ______ ____

>  <TORSDO>
F 25

$$$$
=
 OpenBabel11072409203D

 64 66  0  0  1  0  0  0  0  0999 V2000
  187.1580  175.9710  142.7020 C   0  0  1  0  0  3  0  0  0  0  0  0
  188.1400  176.6850  143.6830 C   0  0  2  0  0  0  0  0  0  0  0  0
  189.1710  174.8530  140.3170 O   0  0  0  0  0  0  0  0  0  0  0  0
  189.5620  176.8020  142.9700 C   0  0  2  0  0  0  0  0  0  0  0  0
  189.4060  177.5590  141.7990 O   0  0  0  0  0  1  0  0  0  0  0  0
  191.3260  175.5420  141.8660 O   0  0  0  0  0  1  0  0  0  0  0  0
  189.5830  173.5860  140.7930 C   0  0  1  0  0  3  0  0  0  0  0  0
  186.8150  176.7900  141.6210 O   0  0  0  0  0  1  0  0  0  0  0  0
  187.6220  174.6090  142.1940 C   0  0  0  0  0  2  0  0  0  0  0  0
  190.0990  175.4200  142.5400 C   0  0  2  0  0  3  0  0  0  0  0  0
  189.0680  174.6450  141.7040 C   0  0  2  0  0  0  0  0  0  0  0  0
  190.6680  177.5070  143.7990 C   0  0  1  0  0  3  0  0  0  0  0  0
  191.9310  177.8500  143.0260 C   0  0  0  0  0  1  0  0  0  0  0  0
  190.2140  178.6130  144.5120 O   0  0  0  0  0  1  0  0  0  0  0  0
  188.1190  175.8360  145.0270 C   0  0  1  0  0  3  0  0  0  0  0  0
  188.9210  174.5300  144.9380 C   0  0  0  0  0  1  0  0  0  0  0  0
  187.1010  176.3670  147.2700 C   0  0  0  0  0  1  0  0  0  0  0  0
  188.3200  176.5640  146.3830 C   0  0  1  0  0  3  0  0  0  0  0  0
  189.6440  174.9500  147.7830 O   0  0  0  0  0  1  0  0  0  0  0  0
  190.5480  176.9680  147.2040 O   0  0  0  0  0  0  0  0  0  0  0  0
  189.5650  176.1790  147.1440 C   0  0  0  0  0  0  0  0  0  0  0  0
  187.6150  178.0170  143.8060 O   0  0  0  0  0  0  0  0  0  0  0  0
  185.9560  178.2160  144.2240 P   0  0  1  0  0  0  0  0  0  0  0  0
  185.3040  176.9270  144.6680 O   0  0  0  0  0  0  0  0  0  0  0  0
  185.8620  179.3160  145.5060 O   0  0  0  0  0  1  0  0  0  0  0  0
  185.1020  178.8610  142.9050 O   0  0  0  0  0  0  0  0  0  0  0  0
  184.0790  177.9470  142.6410 C   0  0  0  0  0  2  0  0  0  0  0  0
  182.7770  178.6860  142.4110 C   0  0  0  0  0  2  0  0  0  0  0  0
  182.0220  178.0330  141.2600 C   0  0  0  0  0  2  0  0  0  0  0  0
  180.6270  178.6270  141.0550 C   0  0  2  0  0  3  0  0  0  0  0  0
  180.6870  179.9130  140.5110 O   0  0  0  0  0  1  0  0  0  0  0  0
  178.6880  177.5000  142.2300 C   0  0  0  0  0  1  0  0  0  0  0  0
  179.7570  178.5790  142.3080 C   0  0  0  0  0  2  0  0  0  0  0  0
  188.5380  172.5360  140.4220 C   0  0  0  0  0  2  0  0  0  0  0  0
  189.1440  171.2900  140.2310 O   0  0  0  0  0  0  0  0  0  0  0  0
  190.3990  171.5600  139.9120 O   0  0  0  0  0  0  0  0  0  0  0  0
  191.7490  169.7160  139.1220 C   0  0  0  0  0  0  0  0  0  0  0  0
  192.4240  168.6810  139.3760 O   0  0  0  0  0  0  0  0  0  0  0  0
  191.0870  170.4230  140.1850 N   0  0  0  0  0  0  0  0  0  0  0  0
  191.6250  170.2010  137.7030 C   0  0  2  0  0  3  0  0  0  0  0  0
  190.8410  169.5330  135.5300 F   0  0  0  0  0  0  0  0  0  0  0  0
  191.3470  169.0500  136.7260 C   0  0  0  0  0  0  0  0  0  0  0  0
  190.4320  168.1760  137.2840 F   0  0  0  0  0  0  0  0  0  0  0  0
  192.5220  168.3590  136.4680 F   0  0  0  0  0  0  0  0  0  0  0  0
  192.6430  172.0290  136.6210 O   0  0  0  0  0  0  0  0  0  0  0  0
  192.8080  171.0390  137.3170 C   0  0  0  0  0  0  0  0  0  0  0  0
  194.0560  170.7330  137.7650 F   0  0  0  0  0  0  0  0  0  0  0  0
  191.3700  170.0610  141.5760 C   0  0  0  0  0  2  0  0  0  0  0  0
  191.1290  171.9440  143.2210 C   0  0  0  0  0  1  0  0  0  0  0  0
  192.1020  171.1620  142.3530 C   0  0  0  0  0  0  0  0  0  0  0  0
  192.8000  172.1300  141.4040 C   0  0  0  0  0  1  0  0  0  0  0  0
  193.1310  170.5210  143.2770 C   0  0  0  0  0  2  0  0  0  0  0  0
  193.4010  171.3600  144.4370 N   0  0  0  0  0  2  0  0  0  0  0  0
  195.5360  171.3220  145.3680 O   0  0  0  0  0  1  0  0  0  0  0  0
  194.7730  171.8280  144.3150 C   0  0  2  0  0  3  0  0  0  0  0  0
  194.8060  173.3250  144.3210 C   0  0  0  0  0  0  0  0  0  0  0  0
  195.9740  173.9710  144.2470 C   0  0  0  0  0  3  0  0  0  0  0  0
  195.3500  176.3340  144.8620 C   0  0  0  0  0  0  0  0  0  0  0  0
  193.8500  176.8740  146.8610 C   0  0  0  0  0  1  0  0  0  0  0  0
  194.1790  175.9920  145.7070 C   0  0  0  0  0  0  0  0  0  0  0  0
  196.1470  175.4360  144.2670 C   0  0  0  0  0  3  0  0  0  0  0  0
  195.7210  177.6370  144.7880 F   0  0  0  0  0  0  0  0  0  0  0  0
  193.5060  174.0560  144.2860 C   0  0  0  0  0  2  0  0  0  0  0  0
  193.3570  174.9690  145.4600 C   0  0  0  0  0  3  0  0  0  0  0  0
  1  8  1  6  0  0  0
  1  2  1  0  0  0  0
  2 22  1  1  0  0  0
  2 15  1  0  0  0  0
  3  7  1  0  0  0  0
  3 11  1  0  0  0  0
  4  5  1  6  0  0  0
  4  2  1  0  0  0  0
  4 12  1  0  0  0  0
  7 34  1  6  0  0  0
  7 11  1  0  0  0  0
  9  1  1  0  0  0  0
 10  6  1  6  0  0  0
 10  4  1  0  0  0  0
 11  9  1  1  0  0  0
 11 10  1  0  0  0  0
 12 13  1  6  0  0  0
 12 14  1  0  0  0  0
 15 16  1  6  0  0  0
 15 18  1  0  0  0  0
 18 21  1  0  0  0  0
 18 17  1  1  0  0  0
 21 20  2  0  0  0  0
 21 19  1  0  0  0  0
 22 23  1  0  0  0  0
 23 24  2  1  0  0  0
 23 25  1  0  0  0  0
 26 23  1  0  0  0  0
 27 26  1  0  0  0  0
 28 27  1  0  0  0  0
 29 28  1  0  0  0  0
 30 31  1  1  0  0  0
 30 29  1  0  0  0  0
 30 33  1  0  0  0  0
 32 33  1  0  0  0  0
 35 34  1  0  0  0  0
 36 39  1  0  0  0  0
 36 35  1  0  0  0  0
 37 38  2  0  0  0  0
 37 39  1  0  0  0  0
 39 48  1  0  0  0  0
 40 46  1  6  0  0  0
 40 37  1  0  0  0  0
 41 42  1  0  0  0  0
 42 43  1  0  0  0  0
 42 40  1  0  0  0  0
 44 42  1  0  0  0  0
 45 46  2  0  0  0  0
 46 47  1  0  0  0  0
 48 50  1  0  0  0  0
 50 49  1  0  0  0  0
 50 52  1  0  0  0  0
 51 50  1  0  0  0  0
 52 53  1  0  0  0  0
 55 56  1  0  0  0  0
 55 53  1  0  0  0  0
 55 54  1  1  0  0  0
 57 61  1  0  0  0  0
 57 56  2  0  0  0  0
 58 60  1  0  0  0  0
 60 59  1  0  0  0  0
 61 58  2  0  0  0  0
 62 58  1  0  0  0  0
 63 56  1  0  0  0  0
 63 64  1  0  0  0  0
 64 60  2  0  0  0  0
M  END
>  <MODEL>
7

>  <REMARK>
 VINA RESULT:      -4.7      3.916     10.432
  Name = 
  25 active torsions:
  status: ('A' for Active; 'I' for Inactive)
    1  A    between atoms: C_2  and  C_7
    2  A    between atoms: C_2  and  C_19
    3  A    between atoms: C_3  and  C_10
    4  A    between atoms: C_6  and  O_9
    5  A    between atoms: C_6  and  C_46
    6  A    between atoms: C_7  and  O_33
    7  A    between atoms: O_9  and  P_16
    8  A    between atoms: C_10  and  N_28
    9  A    between atoms: C_15  and  C_46
   10  A    between atoms: C_15  and  C_55
   11  A    between atoms: P_16  and  O_33
   12  A    between atoms: C_17  and  C_26
   13  A    between atoms: C_19  and  C_56
   14  A    between atoms: C_21  and  C_54
   15  A    between atoms: N_28  and  C_31
   16  A    between atoms: C_30  and  C_31
   17  A    between atoms: C_30  and  C_61
   18  A    between atoms: C_32  and  C_55
   19  A    between atoms: O_35  and  C_47
   20  A    between atoms: O_35  and  O_48
   21  A    between atoms: C_41  and  C_47
   22  A    between atoms: C_43  and  C_54
   23  A    between atoms: C_44  and  C_54
   24  A    between atoms: O_48  and  N_60
   25  A    between atoms: N_60  and  C_61
                            x       y       z     vdW  Elec       q    Type
                         _______ _______ _______ _____ _____    ______ ____

>  <TORSDO>
F 25

$$$$
=
 OpenBabel11072409203D

 64 66  0  0  1  0  0  0  0  0999 V2000
  189.4380  174.5680  144.0250 C   0  0  1  0  0  3  0  0  0  0  0  0
  189.3360  176.0180  143.4560 C   0  0  2  0  0  0  0  0  0  0  0  0
  188.1990  172.7160  141.5710 O   0  0  0  0  0  0  0  0  0  0  0  0
  188.4470  175.9730  142.1320 C   0  0  2  0  0  0  0  0  0  0  0  0
  187.1730  175.4920  142.4730 O   0  0  0  0  0  1  0  0  0  0  0  0
  188.2090  174.9260  139.9490 O   0  0  0  0  0  1  0  0  0  0  0  0
  189.3220  172.4500  140.7510 C   0  0  1  0  0  3  0  0  0  0  0  0
  188.2240  174.1350  144.5690 O   0  0  0  0  0  1  0  0  0  0  0  0
  189.9710  173.5220  143.0500 C   0  0  0  0  0  2  0  0  0  0  0  0
  189.0290  174.9960  141.0870 C   0  0  2  0  0  3  0  0  0  0  0  0
  189.2810  173.6050  141.6910 C   0  0  2  0  0  0  0  0  0  0  0  0
  188.2220  177.3410  141.4330 C   0  0  1  0  0  3  0  0  0  0  0  0
  187.0190  177.3990  140.5050 C   0  0  0  0  0  1  0  0  0  0  0  0
  188.2180  178.4220  142.3090 O   0  0  0  0  0  1  0  0  0  0  0  0
  190.8300  176.5220  143.2570 C   0  0  1  0  0  3  0  0  0  0  0  0
  191.0210  178.0110  143.5750 C   0  0  0  0  0  1  0  0  0  0  0  0
  192.9140  175.2450  142.6420 C   0  0  0  0  0  1  0  0  0  0  0  0
  191.9980  175.6470  143.7870 C   0  0  1  0  0  3  0  0  0  0  0  0
  192.5940  175.9060  146.2150 O   0  0  0  0  0  1  0  0  0  0  0  0
  193.7140  177.1120  144.6290 O   0  0  0  0  0  0  0  0  0  0  0  0
  192.8170  176.2650  144.8940 C   0  0  0  0  0  0  0  0  0  0  0  0
  188.5850  176.7380  144.4480 O   0  0  0  0  0  0  0  0  0  0  0  0
  189.0060  176.5390  146.1070 P   0  0  1  0  0  0  0  0  0  0  0  0
  189.7480  175.2510  146.3740 O   0  0  0  0  0  0  0  0  0  0  0  0
  190.0140  177.8240  146.5530 O   0  0  0  0  0  1  0  0  0  0  0  0
  187.6070  176.6020  147.0670 O   0  0  0  0  0  0  0  0  0  0  0  0
  187.6020  177.8790  147.6330 C   0  0  0  0  0  2  0  0  0  0  0  0
  186.1850  178.2720  148.0000 C   0  0  0  0  0  2  0  0  0  0  0  0
  185.6630  179.2840  146.9890 C   0  0  0  0  0  2  0  0  0  0  0  0
  184.6560  178.6770  146.0090 C   0  0  2  0  0  3  0  0  0  0  0  0
  184.1010  177.4950  146.5040 O   0  0  0  0  0  1  0  0  0  0  0  0
  185.4260  179.8250  143.8870 C   0  0  0  0  0  1  0  0  0  0  0  0
  185.2150  178.4980  144.6000 C   0  0  0  0  0  2  0  0  0  0  0  0
  190.0800  171.2430  141.2980 C   0  0  0  0  0  2  0  0  0  0  0  0
  191.1750  170.9430  140.4820 O   0  0  0  0  0  0  0  0  0  0  0  0
  192.2390  171.2770  141.1920 O   0  0  0  0  0  0  0  0  0  0  0  0
  194.0700  170.0000  140.2620 C   0  0  0  0  0  0  0  0  0  0  0  0
  194.8160  168.9850  140.3100 O   0  0  0  0  0  0  0  0  0  0  0  0
  193.0120  170.1620  141.2220 N   0  0  0  0  0  0  0  0  0  0  0  0
  194.2780  171.0350  139.1900 C   0  0  2  0  0  3  0  0  0  0  0  0
  194.1440  171.4230  136.8190 F   0  0  0  0  0  0  0  0  0  0  0  0
  194.1930  170.4270  137.7820 C   0  0  0  0  0  0  0  0  0  0  0  0
  193.0580  169.6440  137.6810 F   0  0  0  0  0  0  0  0  0  0  0  0
  195.3050  169.6310  137.5460 F   0  0  0  0  0  0  0  0  0  0  0  0
  195.5860  172.9940  139.1290 O   0  0  0  0  0  0  0  0  0  0  0  0
  195.5400  171.8100  139.4290 C   0  0  0  0  0  0  0  0  0  0  0  0
  196.6200  171.2220  140.0130 F   0  0  0  0  0  0  0  0  0  0  0  0
  192.9380  169.2580  142.3720 C   0  0  0  0  0  2  0  0  0  0  0  0
  193.5800  168.8820  144.7710 C   0  0  0  0  0  1  0  0  0  0  0  0
  193.3250  169.9270  143.6960 C   0  0  0  0  0  0  0  0  0  0  0  0
  192.2260  170.8670  144.1750 C   0  0  0  0  0  1  0  0  0  0  0  0
  194.6180  170.7110  143.5000 C   0  0  0  0  0  2  0  0  0  0  0  0
  195.1700  171.1560  144.7730 N   0  0  0  0  0  2  0  0  0  0  0  0
  197.2900  171.0000  145.7240 O   0  0  0  0  0  1  0  0  0  0  0  0
  196.5940  171.3650  144.5700 C   0  0  2  0  0  3  0  0  0  0  0  0
  196.8590  172.8010  144.2370 C   0  0  0  0  0  0  0  0  0  0  0  0
  196.2150  173.7720  144.8920 C   0  0  0  0  0  3  0  0  0  0  0  0
  196.6940  175.8110  143.4900 C   0  0  0  0  0  0  0  0  0  0  0  0
  196.4880  175.7950  140.9420 C   0  0  0  0  0  1  0  0  0  0  0  0
  196.8740  175.0980  142.2010 C   0  0  0  0  0  0  0  0  0  0  0  0
  196.3660  175.2200  144.6470 C   0  0  0  0  0  3  0  0  0  0  0  0
  196.7390  177.1670  143.4790 F   0  0  0  0  0  0  0  0  0  0  0  0
  197.9400  173.1060  143.2550 C   0  0  0  0  0  2  0  0  0  0  0  0
  197.4210  173.8860  142.0910 C   0  0  0  0  0  3  0  0  0  0  0  0
  1  8  1  6  0  0  0
  2  1  1  0  0  0  0
  2 22  1  1  0  0  0
  3 11  1  0  0  0  0
  4  5  1  1  0  0  0
  4  2  1  0  0  0  0
  7 34  1  1  0  0  0
  7  3  1  0  0  0  0
  7 11  1  0  0  0  0
  9  1  1  0  0  0  0
 10  6  1  6  0  0  0
 10 11  1  0  0  0  0
 10  4  1  0  0  0  0
 11  9  1  1  0  0  0
 12 13  1  1  0  0  0
 12  4  1  0  0  0  0
 12 14  1  0  0  0  0
 15  2  1  0  0  0  0
 15 16  1  1  0  0  0
 15 18  1  0  0  0  0
 18 17  1  6  0  0  0
 18 21  1  0  0  0  0
 20 21  2  0  0  0  0
 21 19  1  0  0  0  0
 22 23  1  0  0  0  0
 23 24  2  1  0  0  0
 23 25  1  0  0  0  0
 23 26  1  0  0  0  0
 26 27  1  0  0  0  0
 27 28  1  0  0  0  0
 29 28  1  0  0  0  0
 30 31  1  1  0  0  0
 30 29  1  0  0  0  0
 32 33  1  0  0  0  0
 33 30  1  0  0  0  0
 35 36  1  0  0  0  0
 35 34  1  0  0  0  0
 36 39  1  0  0  0  0
 37 38  2  0  0  0  0
 37 39  1  0  0  0  0
 39 48  1  0  0  0  0
 40 46  1  1  0  0  0
 40 37  1  0  0  0  0
 41 42  1  0  0  0  0
 42 40  1  0  0  0  0
 43 42  1  0  0  0  0
 44 42  1  0  0  0  0
 45 46  2  0  0  0  0
 46 47  1  0  0  0  0
 48 50  1  0  0  0  0
 50 51  1  0  0  0  0
 50 49  1  0  0  0  0
 52 50  1  0  0  0  0
 52 53  1  0  0  0  0
 55 53  1  0  0  0  0
 55 54  1  1  0  0  0
 56 55  1  0  0  0  0
 56 57  2  0  0  0  0
 58 61  2  0  0  0  0
 59 60  1  0  0  0  0
 60 58  1  0  0  0  0
 61 57  1  0  0  0  0
 62 58  1  0  0  0  0
 63 56  1  0  0  0  0
 64 60  2  0  0  0  0
 64 63  1  0  0  0  0
M  END
>  <MODEL>
8

>  <REMARK>
 VINA RESULT:      -4.7      3.831      9.712
  Name = 
  25 active torsions:
  status: ('A' for Active; 'I' for Inactive)
    1  A    between atoms: C_2  and  C_7
    2  A    between atoms: C_2  and  C_19
    3  A    between atoms: C_3  and  C_10
    4  A    between atoms: C_6  and  O_9
    5  A    between atoms: C_6  and  C_46
    6  A    between atoms: C_7  and  O_33
    7  A    between atoms: O_9  and  P_16
    8  A    between atoms: C_10  and  N_28
    9  A    between atoms: C_15  and  C_46
   10  A    between atoms: C_15  and  C_55
   11  A    between atoms: P_16  and  O_33
   12  A    between atoms: C_17  and  C_26
   13  A    between atoms: C_19  and  C_56
   14  A    between atoms: C_21  and  C_54
   15  A    between atoms: N_28  and  C_31
   16  A    between atoms: C_30  and  C_31
   17  A    between atoms: C_30  and  C_61
   18  A    between atoms: C_32  and  C_55
   19  A    between atoms: O_35  and  C_47
   20  A    between atoms: O_35  and  O_48
   21  A    between atoms: C_41  and  C_47
   22  A    between atoms: C_43  and  C_54
   23  A    between atoms: C_44  and  C_54
   24  A    between atoms: O_48  and  N_60
   25  A    between atoms: N_60  and  C_61
                            x       y       z     vdW  Elec       q    Type
                         _______ _______ _______ _____ _____    ______ ____

>  <TORSDO>
F 25

$$$$
=
 OpenBabel11072409203D

 64 66  0  0  1  0  0  0  0  0999 V2000
  191.7630  175.0550  143.4910 C   0  0  1  0  0  3  0  0  0  0  0  0
  190.2320  174.7570  143.4290 C   0  0  2  0  0  0  0  0  0  0  0  0
  192.9760  173.2400  140.9960 O   0  0  0  0  0  0  0  0  0  0  0  0
  190.0010  173.5380  142.4270 C   0  0  2  0  0  0  0  0  0  0  0  0
  190.6960  172.4230  142.9210 O   0  0  0  0  0  1  0  0  0  0  0  0
  190.4120  172.7360  140.1670 O   0  0  0  0  0  1  0  0  0  0  0  0
  192.8750  174.0990  139.8760 C   0  0  1  0  0  3  0  0  0  0  0  0
  192.4630  174.0520  144.1700 O   0  0  0  0  0  1  0  0  0  0  0  0
  192.4280  175.3280  142.1440 C   0  0  0  0  0  2  0  0  0  0  0  0
  190.5750  173.8360  141.0240 C   0  0  2  0  0  3  0  0  0  0  0  0
  192.0430  174.2860  141.0960 C   0  0  2  0  0  0  0  0  0  0  0  0
  188.5260  173.0880  142.2520 C   0  0  1  0  0  3  0  0  0  0  0  0
  188.0510  172.9800  140.8120 C   0  0  0  0  0  1  0  0  0  0  0  0
  188.2060  171.9340  142.9610 O   0  0  0  0  0  1  0  0  0  0  0  0
  189.5320  176.1220  143.0150 C   0  0  1  0  0  3  0  0  0  0  0  0
  190.5230  177.2170  142.5990 C   0  0  0  0  0  1  0  0  0  0  0  0
  187.0500  175.6920  142.9140 C   0  0  0  0  0  1  0  0  0  0  0  0
  188.2760  176.0790  142.1020 C   0  0  1  0  0  3  0  0  0  0  0  0
  188.3420  178.5800  141.8660 O   0  0  0  0  0  1  0  0  0  0  0  0
  187.4410  177.2990  140.2020 O   0  0  0  0  0  0  0  0  0  0  0  0
  187.9930  177.3470  141.3350 C   0  0  0  0  0  0  0  0  0  0  0  0
  189.9080  174.2890  144.7490 O   0  0  0  0  0  0  0  0  0  0  0  0
  189.6910  175.4470  146.0050 P   0  0  1  0  0  0  0  0  0  0  0  0
  189.4650  174.8110  147.3570 O   0  0  0  0  0  1  0  0  0  0  0  0
  191.0930  176.3910  146.1010 O   0  0  0  0  0  0  0  0  0  0  0  0
  188.3870  176.4680  145.6300 O   0  0  0  0  0  0  0  0  0  0  0  0
  188.0800  177.1310  146.8210 C   0  0  0  0  0  2  0  0  0  0  0  0
  186.6770  176.7670  147.2640 C   0  0  0  0  0  2  0  0  0  0  0  0
  185.7110  176.9750  146.1050 C   0  0  0  0  0  2  0  0  0  0  0  0
  185.4380  178.4530  145.8210 C   0  0  2  0  0  3  0  0  0  0  0  0
  184.0810  178.7620  145.9480 O   0  0  0  0  0  1  0  0  0  0  0  0
  185.0030  178.8190  143.3530 C   0  0  0  0  0  1  0  0  0  0  0  0
  186.0090  178.9300  144.4880 C   0  0  0  0  0  2  0  0  0  0  0  0
  194.0970  175.0140  139.8220 C   0  0  0  0  0  2  0  0  0  0  0  0
  195.1720  174.3580  139.2140 O   0  0  0  0  0  0  0  0  0  0  0  0
  194.8180  174.2100  137.9500 O   0  0  0  0  0  0  0  0  0  0  0  0
  196.1480  173.7760  135.9770 C   0  0  0  0  0  0  0  0  0  0  0  0
  197.1320  173.1980  135.4400 O   0  0  0  0  0  0  0  0  0  0  0  0
  195.8520  173.5520  137.3660 N   0  0  0  0  0  0  0  0  0  0  0  0
  195.2750  174.6890  135.1590 C   0  0  2  0  0  3  0  0  0  0  0  0
  194.3200  176.4080  136.5460 F   0  0  0  0  0  0  0  0  0  0  0  0
  195.3460  176.1420  135.6520 C   0  0  0  0  0  0  0  0  0  0  0  0
  195.2410  177.0040  134.5750 F   0  0  0  0  0  0  0  0  0  0  0  0
  196.5600  176.3660  136.2840 F   0  0  0  0  0  0  0  0  0  0  0  0
  193.6830  172.9530  135.1420 O   0  0  0  0  0  0  0  0  0  0  0  0
  193.8750  174.1580  135.0710 C   0  0  0  0  0  0  0  0  0  0  0  0
  192.8140  175.0020  134.9540 F   0  0  0  0  0  0  0  0  0  0  0  0
  196.8110  172.8230  138.1980 C   0  0  0  0  0  2  0  0  0  0  0  0
  197.4670  170.5600  137.3250 C   0  0  0  0  0  1  0  0  0  0  0  0
  196.5370  171.3150  138.2620 C   0  0  0  0  0  0  0  0  0  0  0  0
  195.0950  171.0050  137.8790 C   0  0  0  0  0  1  0  0  0  0  0  0
  196.8080  170.8190  139.6780 C   0  0  0  0  0  2  0  0  0  0  0  0
  195.6060  170.8730  140.5000 N   0  0  0  0  0  2  0  0  0  0  0  0
  195.3010  169.5490  142.3920 O   0  0  0  0  0  1  0  0  0  0  0  0
  196.0160  170.6290  141.8730 C   0  0  2  0  0  3  0  0  0  0  0  0
  195.7820  171.8530  142.7030 C   0  0  0  0  0  0  0  0  0  0  0  0
  196.1230  173.0580  142.2340 C   0  0  0  0  0  3  0  0  0  0  0  0
  195.9870  174.5190  144.2840 C   0  0  0  0  0  0  0  0  0  0  0  0
  196.9920  173.8200  146.5290 C   0  0  0  0  0  1  0  0  0  0  0  0
  196.2710  173.4540  145.2770 C   0  0  0  0  0  0  0  0  0  0  0  0
  195.9680  174.3360  142.9560 C   0  0  0  0  0  3  0  0  0  0  0  0
  195.8640  175.7930  144.7350 F   0  0  0  0  0  0  0  0  0  0  0  0
  195.0510  171.6970  143.9950 C   0  0  0  0  0  2  0  0  0  0  0  0
  195.8640  172.1890  145.1480 C   0  0  0  0  0  3  0  0  0  0  0  0
  1  8  1  6  0  0  0
  2  1  1  0  0  0  0
  2 22  1  1  0  0  0
  3 11  1  0  0  0  0
  4  5  1  1  0  0  0
  4  2  1  0  0  0  0
  7 34  1  1  0  0  0
  7  3  1  0  0  0  0
  7 11  1  0  0  0  0
  9  1  1  0  0  0  0
 10  6  1  6  0  0  0
 10 11  1  0  0  0  0
 10  4  1  0  0  0  0
 11  9  1  1  0  0  0
 12 13  1  6  0  0  0
 12  4  1  0  0  0  0
 12 14  1  0  0  0  0
 15 16  1  6  0  0  0
 15  2  1  0  0  0  0
 18 17  1  1  0  0  0
 18 15  1  0  0  0  0
 20 21  2  0  0  0  0
 21 19  1  0  0  0  0
 21 18  1  0  0  0  0
 22 23  1  0  0  0  0
 23 25  2  1  0  0  0
 23 24  1  0  0  0  0
 26 23  1  0  0  0  0
 26 27  1  0  0  0  0
 27 28  1  0  0  0  0
 29 28  1  0  0  0  0
 30 31  1  6  0  0  0
 30 29  1  0  0  0  0
 32 33  1  0  0  0  0
 33 30  1  0  0  0  0
 35 34  1  0  0  0  0
 36 35  1  0  0  0  0
 37 39  1  0  0  0  0
 38 37  2  0  0  0  0
 39 36  1  0  0  0  0
 39 48  1  0  0  0  0
 40 46  1  1  0  0  0
 40 42  1  0  0  0  0
 40 37  1  0  0  0  0
 42 44  1  0  0  0  0
 42 41  1  0  0  0  0
 43 42  1  0  0  0  0
 46 45  2  0  0  0  0
 47 46  1  0  0  0  0
 48 50  1  0  0  0  0
 49 50  1  0  0  0  0
 50 52  1  0  0  0  0
 51 50  1  0  0  0  0
 52 53  1  0  0  0  0
 53 55  1  0  0  0  0
 55 54  1  1  0  0  0
 55 56  1  0  0  0  0
 56 63  1  0  0  0  0
 57 56  2  0  0  0  0
 57 61  1  0  0  0  0
 58 62  1  0  0  0  0
 58 60  1  0  0  0  0
 60 59  1  0  0  0  0
 61 58  2  0  0  0  0
 63 64  1  0  0  0  0
 64 60  2  0  0  0  0
M  END
>  <MODEL>
9

>  <REMARK>
 VINA RESULT:      -4.6      3.672     10.037
  Name = 
  25 active torsions:
  status: ('A' for Active; 'I' for Inactive)
    1  A    between atoms: C_2  and  C_7
    2  A    between atoms: C_2  and  C_19
    3  A    between atoms: C_3  and  C_10
    4  A    between atoms: C_6  and  O_9
    5  A    between atoms: C_6  and  C_46
    6  A    between atoms: C_7  and  O_33
    7  A    between atoms: O_9  and  P_16
    8  A    between atoms: C_10  and  N_28
    9  A    between atoms: C_15  and  C_46
   10  A    between atoms: C_15  and  C_55
   11  A    between atoms: P_16  and  O_33
   12  A    between atoms: C_17  and  C_26
   13  A    between atoms: C_19  and  C_56
   14  A    between atoms: C_21  and  C_54
   15  A    between atoms: N_28  and  C_31
   16  A    between atoms: C_30  and  C_31
   17  A    between atoms: C_30  and  C_61
   18  A    between atoms: C_32  and  C_55
   19  A    between atoms: O_35  and  C_47
   20  A    between atoms: O_35  and  O_48
   21  A    between atoms: C_41  and  C_47
   22  A    between atoms: C_43  and  C_54
   23  A    between atoms: C_44  and  C_54
   24  A    between atoms: O_48  and  N_60
   25  A    between atoms: N_60  and  C_61
                            x       y       z     vdW  Elec       q    Type
                         _______ _______ _______ _____ _____    ______ ____

>  <TORSDO>
F 25

$$$$
