=
 OpenBabel11072408573D

 45 48  0  0  1  0  0  0  0  0999 V2000
  189.3750  173.5410  144.0560 O   0  0  0  0  0  0  0  0  0  0  0  0
  189.8950  174.7820  142.0900 C   0  0  0  0  0  1  0  0  0  0  0  0
  189.6770  174.8450  143.6060 C   0  0  2  0  0  0  0  0  0  0  0  0
  190.5340  172.9980  144.6540 C   0  0  2  0  0  3  0  0  0  0  0  0
  190.9250  175.3060  144.3600 C   0  0  1  0  0  3  0  0  0  0  0  0
  191.6350  174.0350  144.6840 C   0  0  0  0  0  2  0  0  0  0  0  0
  188.6120  176.4110  145.3290 C   0  0  0  0  0  2  0  0  0  0  0  0
  187.2980  176.4030  145.9540 N   0  0  0  0  0  2  0  0  0  0  0  0
  186.0860  177.5410  144.1300 C   0  0  2  0  0  3  0  0  0  0  0  0
  187.2360  177.9320  143.1750 C   0  0  1  0  0  3  0  0  0  0  0  0
  184.9990  178.4030  143.9390 O   0  0  0  0  0  1  0  0  0  0  0  0
  186.5830  177.6210  145.5880 C   0  0  1  0  0  3  0  0  0  0  0  0
  188.4950  175.7760  143.9480 C   0  0  1  0  0  3  0  0  0  0  0  0
  188.2580  176.8240  142.8510 C   0  0  0  0  0  2  0  0  0  0  0  0
  185.9720  177.7870  147.9950 C   0  0  0  0  0  2  0  0  0  0  0  0
  185.6480  179.1130  147.3430 C   0  0  0  0  0  2  0  0  0  0  0  0
  185.4360  177.8210  146.5740 C   0  0  0  0  0  3  0  0  0  0  0  0
  186.7680  178.5870  141.9470 N   0  0  0  0  0  2  0  0  0  0  0  0
  186.5640  177.5950  140.8920 C   0  0  0  0  0  2  0  0  0  0  0  0
  185.2620  177.8800  140.1720 C   0  0  0  0  0  1  0  0  0  0  0  0
  191.8330  176.2720  143.6030 C   0  0  0  0  0  2  0  0  0  0  0  0
  191.2380  178.5260  143.6550 C   0  0  0  0  0  1  0  0  0  0  0  0
  191.9900  177.5020  144.3590 N   0  0  0  0  0  2  0  0  0  0  0  0
  190.9790  171.7660  143.8780 C   0  0  0  0  0  2  0  0  0  0  0  0
  190.0100  171.4280  142.7490 C   0  0  0  0  0  2  0  0  0  0  0  0
  190.7290  171.1480  141.4320 C   0  0  0  0  0  2  0  0  0  0  0  0
  192.2080  170.8220  141.6360 C   0  0  0  0  0  2  0  0  0  0  0  0
  193.1670  171.6710  140.7900 C   0  0  2  0  0  3  0  0  0  0  0  0
  195.3370  171.8890  142.0890 C   0  0  0  0  0  0  0  0  0  0  0  0
  195.6920  170.7320  141.7420 O   0  0  0  0  0  0  0  0  0  0  0  0
  194.1030  172.4320  141.6080 N   0  0  0  0  0  2  0  0  0  0  0  0
  196.1930  172.6500  142.9500 N   0  0  0  0  0  2  0  0  0  0  0  0
  195.3760  174.0070  144.8030 C   0  0  0  0  0  3  0  0  0  0  0  0
  196.2040  175.1310  142.8280 C   0  0  0  0  0  3  0  0  0  0  0  0
  195.1020  175.2450  145.3940 C   0  0  0  0  0  0  0  0  0  0  0  0
  195.9310  176.3690  143.4160 C   0  0  0  0  0  3  0  0  0  0  0  0
  195.1170  177.6300  145.2640 F   0  0  0  0  0  0  0  0  0  0  0  0
  194.5790  175.2920  146.6440 F   0  0  0  0  0  0  0  0  0  0  0  0
  195.3790  176.4270  144.6980 C   0  0  0  0  0  0  0  0  0  0  0  0
  195.9250  173.9400  143.5170 C   0  0  0  0  0  0  0  0  0  0  0  0
  192.4550  172.5570  139.7580 C   0  0  1  0  0  3  0  0  0  0  0  0
  192.7900  174.0370  139.9420 C   0  0  0  0  0  1  0  0  0  0  0  0
  192.7590  172.1140  138.3960 N   0  0  0  0  0  0  0  0  0  0  0  0
  194.0490  171.7910  138.0410 O   0  0  0  0  0  0  0  0  0  0  0  0
  191.9140  172.2800  137.4920 O   0  0  0  0  0  0  0  0  0  0  0  0
  1  4  1  0  0  0  0
  3  2  1  6  0  0  0
  3 13  1  0  0  0  0
  3  1  1  0  0  0  0
  3  5  1  0  0  0  0
  4 24  1  6  0  0  0
  4  6  1  0  0  0  0
  5 21  1  6  0  0  0
  5  6  1  0  0  0  0
  7  8  1  0  0  0  0
  9 11  1  1  0  0  0
  9 12  1  0  0  0  0
 10 18  1  6  0  0  0
 10  9  1  0  0  0  0
 12  8  1  0  0  0  0
 12 17  1  1  0  0  0
 13 14  1  6  0  0  0
 13  7  1  0  0  0  0
 14 10  1  0  0  0  0
 16 15  1  0  0  0  0
 17 16  1  0  0  0  0
 17 15  1  0  0  0  0
 19 18  1  0  0  0  0
 20 19  1  0  0  0  0
 21 23  1  0  0  0  0
 22 23  1  0  0  0  0
 25 24  1  0  0  0  0
 26 27  1  0  0  0  0
 26 25  1  0  0  0  0
 28 31  1  0  0  0  0
 28 27  1  1  0  0  0
 29 32  1  0  0  0  0
 30 29  2  0  0  0  0
 31 29  1  0  0  0  0
 32 40  1  0  0  0  0
 33 35  1  0  0  0  0
 34 36  2  0  0  0  0
 34 40  1  0  0  0  0
 35 38  1  0  0  0  0
 36 39  1  0  0  0  0
 39 37  1  0  0  0  0
 39 35  2  0  0  0  0
 40 33  2  0  0  0  0
 41 42  1  6  0  0  0
 41 28  1  0  0  0  0
 43 41  1  0  0  0  0
 44 43  2  0  0  0  0
 45 43  2  0  0  0  0
M  END
>  <MODEL>
1

>  <REMARK>
 VINA RESULT:      -6.2      0.000      0.000
  Name = 
  15 active torsions:
  status: ('A' for Active; 'I' for Inactive)
    1  A    between atoms: C_5  and  N_20
    2  A    between atoms: C_5  and  C_41
    3  A    between atoms: C_8  and  N_17
    4  A    between atoms: C_11  and  N_17
    5  A    between atoms: C_21  and  C_37
    6  A    between atoms: C_22  and  C_24
    7  A    between atoms: C_25  and  C_41
    8  A    between atoms: C_25  and  C_43
    9  A    between atoms: N_28  and  C_38
   10  A    between atoms: C_29  and  C_39
   11  A    between atoms: C_30  and  C_39
   12  A    between atoms: C_30  and  C_43
   13  A    between atoms: N_34  and  C_41
   14  A    between atoms: C_35  and  N_42
   15  A    between atoms: C_38  and  C_40
                            x       y       z     vdW  Elec       q    Type
                         _______ _______ _______ _____ _____    ______ ____

>  <TORSDO>
F 15

$$$$
=
 OpenBabel11072408573D

 45 48  0  0  1  0  0  0  0  0999 V2000
  190.1100  174.5220  142.2240 O   0  0  0  0  0  0  0  0  0  0  0  0
  190.7050  173.2830  140.2770 C   0  0  0  0  0  1  0  0  0  0  0  0
  190.9350  173.4640  141.7830 C   0  0  2  0  0  0  0  0  0  0  0  0
  188.9860  173.9670  142.8740 C   0  0  2  0  0  3  0  0  0  0  0  0
  190.5500  172.2230  142.5890 C   0  0  1  0  0  3  0  0  0  0  0  0
  189.1220  172.4620  142.9480 C   0  0  0  0  0  2  0  0  0  0  0  0
  192.8780  173.3810  143.4480 C   0  0  0  0  0  2  0  0  0  0  0  0
  193.7010  174.4360  144.0190 N   0  0  0  0  0  2  0  0  0  0  0  0
  195.2870  174.6360  142.1380 C   0  0  2  0  0  3  0  0  0  0  0  0
  194.8550  173.4640  141.2280 C   0  0  1  0  0  3  0  0  0  0  0  0
  196.6290  174.9530  141.8960 O   0  0  0  0  0  1  0  0  0  0  0  0
  195.0890  174.2370  143.6140 C   0  0  1  0  0  3  0  0  0  0  0  0
  192.4070  173.8270  142.0680 C   0  0  1  0  0  3  0  0  0  0  0  0
  193.3430  173.3360  140.9550 C   0  0  0  0  0  2  0  0  0  0  0  0
  195.6090  174.7490  145.9930 C   0  0  0  0  0  2  0  0  0  0  0  0
  196.8290  174.0940  145.3830 C   0  0  0  0  0  2  0  0  0  0  0  0
  195.9840  175.0420  144.5510 C   0  0  0  0  0  3  0  0  0  0  0  0
  195.6200  173.3940  139.9770 N   0  0  0  0  0  2  0  0  0  0  0  0
  196.1760  172.0540  139.7990 C   0  0  0  0  0  2  0  0  0  0  0  0
  195.5600  171.4060  138.5770 C   0  0  0  0  0  1  0  0  0  0  0  0
  190.7250  170.8890  141.8690 C   0  0  0  0  0  2  0  0  0  0  0  0
  191.6010  168.7320  141.9980 C   0  0  0  0  0  1  0  0  0  0  0  0
  191.6740  170.0560  142.5880 N   0  0  0  0  0  2  0  0  0  0  0  0
  187.7190  174.3540  142.1240 C   0  0  0  0  0  2  0  0  0  0  0  0
  187.9300  175.5940  141.2600 C   0  0  0  0  0  2  0  0  0  0  0  0
  186.8200  176.6250  141.4440 C   0  0  0  0  0  2  0  0  0  0  0  0
  186.4450  176.8180  142.9130 C   0  0  0  0  0  2  0  0  0  0  0  0
  187.1270  178.0150  143.5900 C   0  0  2  0  0  3  0  0  0  0  0  0
  189.6500  177.7650  143.4660 C   0  0  0  0  0  0  0  0  0  0  0  0
  189.6680  178.2540  142.3070 O   0  0  0  0  0  0  0  0  0  0  0  0
  188.4130  177.6600  144.1780 N   0  0  0  0  0  2  0  0  0  0  0  0
  190.8820  177.3390  144.0610 N   0  0  0  0  0  2  0  0  0  0  0  0
  189.9850  175.9430  145.8470 C   0  0  0  0  0  3  0  0  0  0  0  0
  192.2520  176.7600  146.0490 C   0  0  0  0  0  3  0  0  0  0  0  0
  190.1110  175.2870  147.0770 C   0  0  0  0  0  0  0  0  0  0  0  0
  192.3800  176.1070  147.2780 C   0  0  0  0  0  3  0  0  0  0  0  0
  191.4380  174.7390  148.9850 F   0  0  0  0  0  0  0  0  0  0  0  0
  189.0710  174.5650  147.5620 F   0  0  0  0  0  0  0  0  0  0  0  0
  191.3100  175.3710  147.7930 C   0  0  0  0  0  0  0  0  0  0  0  0
  191.0520  176.6850  145.3260 C   0  0  0  0  0  0  0  0  0  0  0  0
  186.2230  178.7530  144.5880 C   0  0  1  0  0  3  0  0  0  0  0  0
  184.8790  179.1380  143.9690 C   0  0  0  0  0  1  0  0  0  0  0  0
  186.0360  177.9580  145.8030 N   0  0  0  0  0  0  0  0  0  0  0  0
  184.9720  177.0920  145.9120 O   0  0  0  0  0  0  0  0  0  0  0  0
  186.6730  178.2550  146.8350 O   0  0  0  0  0  0  0  0  0  0  0  0
  1  4  1  0  0  0  0
  3  2  1  6  0  0  0
  3 13  1  0  0  0  0
  3  1  1  0  0  0  0
  3  5  1  0  0  0  0
  4 24  1  6  0  0  0
  4  6  1  0  0  0  0
  5 21  1  6  0  0  0
  5  6  1  0  0  0  0
  7  8  1  0  0  0  0
  9 11  1  1  0  0  0
  9 12  1  0  0  0  0
 10 18  1  6  0  0  0
 10  9  1  0  0  0  0
 12  8  1  0  0  0  0
 12 17  1  1  0  0  0
 13 14  1  6  0  0  0
 13  7  1  0  0  0  0
 14 10  1  0  0  0  0
 16 15  1  0  0  0  0
 17 16  1  0  0  0  0
 17 15  1  0  0  0  0
 19 18  1  0  0  0  0
 20 19  1  0  0  0  0
 21 23  1  0  0  0  0
 22 23  1  0  0  0  0
 25 26  1  0  0  0  0
 25 24  1  0  0  0  0
 26 27  1  0  0  0  0
 28 27  1  1  0  0  0
 28 31  1  0  0  0  0
 28 41  1  0  0  0  0
 29 32  1  0  0  0  0
 29 31  1  0  0  0  0
 30 29  2  0  0  0  0
 32 40  1  0  0  0  0
 33 35  1  0  0  0  0
 34 36  2  0  0  0  0
 35 38  1  0  0  0  0
 35 39  2  0  0  0  0
 36 39  1  0  0  0  0
 39 37  1  0  0  0  0
 40 33  2  0  0  0  0
 40 34  1  0  0  0  0
 41 42  1  6  0  0  0
 41 43  1  0  0  0  0
 43 44  2  0  0  0  0
 43 45  2  0  0  0  0
M  END
>  <MODEL>
2

>  <REMARK>
 VINA RESULT:      -6.1      2.497      8.169
  Name = 
  15 active torsions:
  status: ('A' for Active; 'I' for Inactive)
    1  A    between atoms: C_5  and  N_20
    2  A    between atoms: C_5  and  C_41
    3  A    between atoms: C_8  and  N_17
    4  A    between atoms: C_11  and  N_17
    5  A    between atoms: C_21  and  C_37
    6  A    between atoms: C_22  and  C_24
    7  A    between atoms: C_25  and  C_41
    8  A    between atoms: C_25  and  C_43
    9  A    between atoms: N_28  and  C_38
   10  A    between atoms: C_29  and  C_39
   11  A    between atoms: C_30  and  C_39
   12  A    between atoms: C_30  and  C_43
   13  A    between atoms: N_34  and  C_41
   14  A    between atoms: C_35  and  N_42
   15  A    between atoms: C_38  and  C_40
                            x       y       z     vdW  Elec       q    Type
                         _______ _______ _______ _____ _____    ______ ____

>  <TORSDO>
F 15

$$$$
=
 OpenBabel11072408573D

 45 48  0  0  1  0  0  0  0  0999 V2000
  190.9690  172.9060  142.3850 O   0  0  0  0  0  0  0  0  0  0  0  0
  191.5860  175.1260  141.7770 C   0  0  0  0  0  1  0  0  0  0  0  0
  192.0690  173.6820  141.9600 C   0  0  2  0  0  0  0  0  0  0  0  0
  190.4870  172.1750  141.2780 C   0  0  2  0  0  3  0  0  0  0  0  0
  192.5820  173.0650  140.6590 C   0  0  1  0  0  3  0  0  0  0  0  0
  191.3760  172.4090  140.0760 C   0  0  0  0  0  2  0  0  0  0  0  0
  194.0780  172.3920  142.8860 C   0  0  0  0  0  2  0  0  0  0  0  0
  194.3470  171.8520  144.2100 N   0  0  0  0  0  2  0  0  0  0  0  0
  195.1850  173.9390  145.2260 C   0  0  2  0  0  3  0  0  0  0  0  0
  195.2340  174.8910  144.0110 C   0  0  1  0  0  3  0  0  0  0  0  0
  196.0970  174.3670  146.1990 O   0  0  0  0  0  1  0  0  0  0  0  0
  195.5260  172.5070  144.7680 C   0  0  1  0  0  3  0  0  0  0  0  0
  193.1740  173.6110  143.0350 C   0  0  1  0  0  3  0  0  0  0  0  0
  193.9780  174.9160  143.1160 C   0  0  0  0  0  2  0  0  0  0  0  0
  195.9630  170.1800  145.5370 C   0  0  0  0  0  2  0  0  0  0  0  0
  197.2930  170.8970  145.4500 C   0  0  0  0  0  2  0  0  0  0  0  0
  196.0570  171.6490  145.9120 C   0  0  0  0  0  3  0  0  0  0  0  0
  195.6520  176.2540  144.3620 N   0  0  0  0  0  2  0  0  0  0  0  0
  196.5800  176.7720  143.3580 C   0  0  0  0  0  2  0  0  0  0  0  0
  197.6680  175.7510  143.0970 C   0  0  0  0  0  1  0  0  0  0  0  0
  193.2150  174.0410  139.6710 C   0  0  0  0  0  2  0  0  0  0  0  0
  195.2340  175.2080  139.7110 C   0  0  0  0  0  1  0  0  0  0  0  0
  194.6580  173.8760  139.6630 N   0  0  0  0  0  2  0  0  0  0  0  0
  189.0550  172.5920  140.9740 C   0  0  0  0  0  2  0  0  0  0  0  0
  188.4400  173.3830  142.1250 C   0  0  0  0  0  2  0  0  0  0  0  0
  188.0800  174.8100  141.7210 C   0  0  0  0  0  2  0  0  0  0  0  0
  186.8180  175.3110  142.4210 C   0  0  0  0  0  2  0  0  0  0  0  0
  186.9620  176.6910  143.0780 C   0  0  2  0  0  3  0  0  0  0  0  0
  189.3220  177.5780  143.3640 C   0  0  0  0  0  0  0  0  0  0  0  0
  189.2320  178.2380  142.2960 O   0  0  0  0  0  0  0  0  0  0  0  0
  188.2040  176.8190  143.8320 N   0  0  0  0  0  2  0  0  0  0  0  0
  190.5490  177.6190  144.1050 N   0  0  0  0  0  2  0  0  0  0  0  0
  189.8330  176.2480  145.9890 C   0  0  0  0  0  3  0  0  0  0  0  0
  192.1870  176.7500  145.7570 C   0  0  0  0  0  3  0  0  0  0  0  0
  190.1030  175.5090  147.1460 C   0  0  0  0  0  0  0  0  0  0  0  0
  192.4600  176.0140  146.9130 C   0  0  0  0  0  3  0  0  0  0  0  0
  191.6880  174.6800  148.7290 F   0  0  0  0  0  0  0  0  0  0  0  0
  189.0880  174.9000  147.8070 F   0  0  0  0  0  0  0  0  0  0  0  0
  191.4190  175.3940  147.6090 C   0  0  0  0  0  0  0  0  0  0  0  0
  190.8700  176.8750  145.2880 C   0  0  0  0  0  0  0  0  0  0  0  0
  185.7400  177.1050  143.9110 C   0  0  1  0  0  3  0  0  0  0  0  0
  186.0760  177.2470  145.3950 C   0  0  0  0  0  1  0  0  0  0  0  0
  185.1480  178.3360  143.3840 N   0  0  0  0  0  0  0  0  0  0  0  0
  185.7280  179.5560  143.6480 O   0  0  0  0  0  0  0  0  0  0  0  0
  183.9860  178.3130  142.9280 O   0  0  0  0  0  0  0  0  0  0  0  0
  3  2  1  6  0  0  0
  3  1  1  0  0  0  0
  3 13  1  0  0  0  0
  4 24  1  6  0  0  0
  4  1  1  0  0  0  0
  5 21  1  6  0  0  0
  5  3  1  0  0  0  0
  6  5  1  0  0  0  0
  6  4  1  0  0  0  0
  7  8  1  0  0  0  0
  8 12  1  0  0  0  0
  9 11  1  1  0  0  0
 10 18  1  1  0  0  0
 10  9  1  0  0  0  0
 12  9  1  0  0  0  0
 12 17  1  1  0  0  0
 13  7  1  6  0  0  0
 13 14  1  0  0  0  0
 14 10  1  0  0  0  0
 15 17  1  0  0  0  0
 16 15  1  0  0  0  0
 16 17  1  0  0  0  0
 19 18  1  0  0  0  0
 20 19  1  0  0  0  0
 23 21  1  0  0  0  0
 23 22  1  0  0  0  0
 24 25  1  0  0  0  0
 26 25  1  0  0  0  0
 26 27  1  0  0  0  0
 28 27  1  1  0  0  0
 28 31  1  0  0  0  0
 28 41  1  0  0  0  0
 29 31  1  0  0  0  0
 29 32  1  0  0  0  0
 30 29  2  0  0  0  0
 32 40  1  0  0  0  0
 33 35  1  0  0  0  0
 34 36  2  0  0  0  0
 35 39  2  0  0  0  0
 35 38  1  0  0  0  0
 36 39  1  0  0  0  0
 39 37  1  0  0  0  0
 40 34  1  0  0  0  0
 40 33  2  0  0  0  0
 41 42  1  1  0  0  0
 43 44  2  0  0  0  0
 43 41  1  0  0  0  0
 45 43  2  0  0  0  0
M  END
>  <MODEL>
3

>  <REMARK>
 VINA RESULT:      -6.1      2.500      8.094
  Name = 
  15 active torsions:
  status: ('A' for Active; 'I' for Inactive)
    1  A    between atoms: C_5  and  N_20
    2  A    between atoms: C_5  and  C_41
    3  A    between atoms: C_8  and  N_17
    4  A    between atoms: C_11  and  N_17
    5  A    between atoms: C_21  and  C_37
    6  A    between atoms: C_22  and  C_24
    7  A    between atoms: C_25  and  C_41
    8  A    between atoms: C_25  and  C_43
    9  A    between atoms: N_28  and  C_38
   10  A    between atoms: C_29  and  C_39
   11  A    between atoms: C_30  and  C_39
   12  A    between atoms: C_30  and  C_43
   13  A    between atoms: N_34  and  C_41
   14  A    between atoms: C_35  and  N_42
   15  A    between atoms: C_38  and  C_40
                            x       y       z     vdW  Elec       q    Type
                         _______ _______ _______ _____ _____    ______ ____

>  <TORSDO>
F 15

$$$$
=
 OpenBabel11072408573D

 45 48  0  0  1  0  0  0  0  0999 V2000
  191.8720  173.8680  142.8210 O   0  0  0  0  0  0  0  0  0  0  0  0
  193.0280  172.6380  141.1400 C   0  0  0  0  0  1  0  0  0  0  0  0
  192.5200  172.6360  142.5870 C   0  0  2  0  0  0  0  0  0  0  0  0
  190.4770  173.6540  142.7620 C   0  0  2  0  0  3  0  0  0  0  0  0
  191.4980  171.5290  142.8500 C   0  0  1  0  0  3  0  0  0  0  0  0
  190.1870  172.1820  142.5680 C   0  0  0  0  0  2  0  0  0  0  0  0
  194.4800  171.1990  143.3940 C   0  0  0  0  0  2  0  0  0  0  0  0
  194.8070  170.6690  144.7100 N   0  0  0  0  0  2  0  0  0  0  0  0
  195.8960  172.7000  145.5930 C   0  0  2  0  0  3  0  0  0  0  0  0
  195.9280  173.6150  144.3490 C   0  0  1  0  0  3  0  0  0  0  0  0
  196.9150  173.0710  146.4800 O   0  0  0  0  0  1  0  0  0  0  0  0
  196.0770  171.2330  145.1540 C   0  0  1  0  0  3  0  0  0  0  0  0
  193.6970  172.4950  143.5750 C   0  0  1  0  0  3  0  0  0  0  0  0
  194.6120  173.7270  143.5530 C   0  0  0  0  0  2  0  0  0  0  0  0
  196.3700  168.8970  145.9610 C   0  0  0  0  0  2  0  0  0  0  0  0
  197.7460  169.4890  145.7460 C   0  0  0  0  0  2  0  0  0  0  0  0
  196.6230  170.3600  146.2800 C   0  0  0  0  0  3  0  0  0  0  0  0
  196.4870  174.9450  144.6250 N   0  0  0  0  0  2  0  0  0  0  0  0
  195.8400  175.9490  143.7840 C   0  0  0  0  0  2  0  0  0  0  0  0
  196.8930  176.7280  143.0230 C   0  0  0  0  0  1  0  0  0  0  0  0
  191.6750  170.2590  142.0220 C   0  0  0  0  0  2  0  0  0  0  0  0
  190.9180  169.0030  140.2100 C   0  0  0  0  0  1  0  0  0  0  0  0
  190.6080  170.1500  141.0430 N   0  0  0  0  0  2  0  0  0  0  0  0
  189.8850  174.4710  141.6210 C   0  0  0  0  0  2  0  0  0  0  0  0
  188.4470  174.0600  141.3180 C   0  0  0  0  0  2  0  0  0  0  0  0
  187.4480  174.6880  142.2860 C   0  0  0  0  0  2  0  0  0  0  0  0
  187.0010  176.0790  141.8370 C   0  0  0  0  0  2  0  0  0  0  0  0
  186.9810  177.1310  142.9550 C   0  0  2  0  0  3  0  0  0  0  0  0
  189.4340  177.7270  143.2200 C   0  0  0  0  0  0  0  0  0  0  0  0
  189.4380  178.3170  142.1080 O   0  0  0  0  0  0  0  0  0  0  0  0
  188.2230  177.1510  143.7190 N   0  0  0  0  0  2  0  0  0  0  0  0
  190.6490  177.6610  143.9770 N   0  0  0  0  0  2  0  0  0  0  0  0
  191.8900  176.0170  145.2820 C   0  0  0  0  0  3  0  0  0  0  0  0
  190.0810  177.2120  146.3530 C   0  0  0  0  0  3  0  0  0  0  0  0
  192.1340  175.3200  146.4700 C   0  0  0  0  0  0  0  0  0  0  0  0
  190.3220  176.5160  147.5400 C   0  0  0  0  0  3  0  0  0  0  0  0
  191.5770  174.8960  148.7530 F   0  0  0  0  0  0  0  0  0  0  0  0
  193.1390  174.4110  146.5210 F   0  0  0  0  0  0  0  0  0  0  0  0
  191.3470  175.5690  147.6000 C   0  0  0  0  0  0  0  0  0  0  0  0
  190.8620  176.9660  145.2130 C   0  0  0  0  0  0  0  0  0  0  0  0
  185.7480  177.0360  143.8650 C   0  0  1  0  0  3  0  0  0  0  0  0
  186.1270  177.0140  145.3460 C   0  0  0  0  0  1  0  0  0  0  0  0
  184.8080  178.1210  143.5780 N   0  0  0  0  0  0  0  0  0  0  0  0
  184.6600  179.1670  144.4600 O   0  0  0  0  0  0  0  0  0  0  0  0
  183.9540  177.9710  142.6790 O   0  0  0  0  0  0  0  0  0  0  0  0
  3  2  1  6  0  0  0
  3  1  1  0  0  0  0
  3  5  1  0  0  0  0
  3 13  1  0  0  0  0
  4 24  1  6  0  0  0
  4  1  1  0  0  0  0
  5 21  1  6  0  0  0
  6  4  1  0  0  0  0
  6  5  1  0  0  0  0
  7  8  1  0  0  0  0
  8 12  1  0  0  0  0
  9 11  1  1  0  0  0
 10 18  1  1  0  0  0
 10  9  1  0  0  0  0
 12  9  1  0  0  0  0
 12 17  1  1  0  0  0
 13  7  1  6  0  0  0
 14 13  1  0  0  0  0
 14 10  1  0  0  0  0
 15 17  1  0  0  0  0
 16 15  1  0  0  0  0
 16 17  1  0  0  0  0
 19 18  1  0  0  0  0
 20 19  1  0  0  0  0
 22 23  1  0  0  0  0
 23 21  1  0  0  0  0
 25 24  1  0  0  0  0
 25 26  1  0  0  0  0
 27 26  1  0  0  0  0
 28 27  1  6  0  0  0
 28 31  1  0  0  0  0
 28 41  1  0  0  0  0
 29 31  1  0  0  0  0
 29 32  1  0  0  0  0
 30 29  2  0  0  0  0
 32 40  1  0  0  0  0
 33 35  1  0  0  0  0
 34 36  2  0  0  0  0
 35 38  1  0  0  0  0
 35 39  2  0  0  0  0
 36 39  1  0  0  0  0
 39 37  1  0  0  0  0
 40 33  2  0  0  0  0
 40 34  1  0  0  0  0
 41 42  1  1  0  0  0
 43 41  1  0  0  0  0
 43 44  2  0  0  0  0
 45 43  2  0  0  0  0
M  END
>  <MODEL>
4

>  <REMARK>
 VINA RESULT:      -6.1      2.512      8.567
  Name = 
  15 active torsions:
  status: ('A' for Active; 'I' for Inactive)
    1  A    between atoms: C_5  and  N_20
    2  A    between atoms: C_5  and  C_41
    3  A    between atoms: C_8  and  N_17
    4  A    between atoms: C_11  and  N_17
    5  A    between atoms: C_21  and  C_37
    6  A    between atoms: C_22  and  C_24
    7  A    between atoms: C_25  and  C_41
    8  A    between atoms: C_25  and  C_43
    9  A    between atoms: N_28  and  C_38
   10  A    between atoms: C_29  and  C_39
   11  A    between atoms: C_30  and  C_39
   12  A    between atoms: C_30  and  C_43
   13  A    between atoms: N_34  and  C_41
   14  A    between atoms: C_35  and  N_42
   15  A    between atoms: C_38  and  C_40
                            x       y       z     vdW  Elec       q    Type
                         _______ _______ _______ _____ _____    ______ ____

>  <TORSDO>
F 15

$$$$
=
 OpenBabel11072408573D

 45 48  0  0  1  0  0  0  0  0999 V2000
  187.4260  177.9960  143.5240 O   0  0  0  0  0  0  0  0  0  0  0  0
  186.0700  179.3990  144.8920 C   0  0  0  0  0  1  0  0  0  0  0  0
  186.1530  178.0700  144.1310 C   0  0  2  0  0  0  0  0  0  0  0  0
  188.2370  177.1370  144.2970 C   0  0  2  0  0  3  0  0  0  0  0  0
  186.0200  176.8570  145.0520 C   0  0  1  0  0  3  0  0  0  0  0  0
  187.4280  176.5370  145.4260 C   0  0  0  0  0  2  0  0  0  0  0  0
  184.0320  179.1140  143.1490 C   0  0  0  0  0  2  0  0  0  0  0  0
  182.7190  178.5480  142.8740 N   0  0  0  0  0  2  0  0  0  0  0  0
  183.2720  177.5470  140.6870 C   0  0  2  0  0  3  0  0  0  0  0  0
  184.7050  178.0710  140.4460 C   0  0  1  0  0  3  0  0  0  0  0  0
  182.6650  177.2480  139.4610 O   0  0  0  0  0  1  0  0  0  0  0  0
  182.4560  178.6160  141.4410 C   0  0  1  0  0  3  0  0  0  0  0  0
  185.0710  178.0040  143.0330 C   0  0  1  0  0  3  0  0  0  0  0  0
  185.6860  177.9370  141.6280 C   0  0  0  0  0  2  0  0  0  0  0  0
  180.1960  179.3280  142.2030 C   0  0  0  0  0  2  0  0  0  0  0  0
  180.3640  179.7790  140.7680 C   0  0  0  0  0  2  0  0  0  0  0  0
  180.9550  178.4550  141.2190 C   0  0  0  0  0  3  0  0  0  0  0  0
  185.3060  177.5590  139.2080 N   0  0  0  0  0  2  0  0  0  0  0  0
  186.6830  177.1350  139.4520 C   0  0  0  0  0  2  0  0  0  0  0  0
  187.0820  176.0920  138.4290 C   0  0  0  0  0  1  0  0  0  0  0  0
  185.1500  177.0610  146.2900 C   0  0  0  0  0  2  0  0  0  0  0  0
  185.9360  178.2480  148.1360 C   0  0  0  0  0  1  0  0  0  0  0  0
  185.9580  176.9470  147.4910 N   0  0  0  0  0  2  0  0  0  0  0  0
  189.4260  177.9140  144.8440 C   0  0  0  0  0  2  0  0  0  0  0  0
  190.3860  177.0120  145.6140 C   0  0  0  0  0  2  0  0  0  0  0  0
  191.8150  177.1010  145.0860 C   0  0  0  0  0  2  0  0  0  0  0  0
  192.7370  176.0650  145.7290 C   0  0  0  0  0  2  0  0  0  0  0  0
  193.4470  175.1410  144.7290 C   0  0  2  0  0  3  0  0  0  0  0  0
  192.7920  174.9570  142.2840 C   0  0  0  0  0  0  0  0  0  0  0  0
  193.8450  175.5500  141.9300 O   0  0  0  0  0  0  0  0  0  0  0  0
  192.5570  174.6830  143.6690 N   0  0  0  0  0  2  0  0  0  0  0  0
  191.8530  174.5490  141.2810 N   0  0  0  0  0  2  0  0  0  0  0  0
  189.4610  174.7720  141.6910 C   0  0  0  0  0  3  0  0  0  0  0  0
  190.3940  172.5500  141.4970 C   0  0  0  0  0  3  0  0  0  0  0  0
  188.1910  174.2220  141.8960 C   0  0  0  0  0  0  0  0  0  0  0  0
  189.1280  171.9980  141.7030 C   0  0  0  0  0  3  0  0  0  0  0  0
  186.7980  172.2920  142.1020 F   0  0  0  0  0  0  0  0  0  0  0  0
  187.1250  175.0400  142.0780 F   0  0  0  0  0  0  0  0  0  0  0  0
  188.0250  172.8330  141.9040 C   0  0  0  0  0  0  0  0  0  0  0  0
  190.5710  173.9430  141.4920 C   0  0  0  0  0  0  0  0  0  0  0  0
  194.1940  173.9760  145.3940 C   0  0  1  0  0  3  0  0  0  0  0  0
  193.4560  172.6480  145.2250 C   0  0  0  0  0  1  0  0  0  0  0  0
  195.5650  173.8850  144.8890 N   0  0  0  0  0  0  0  0  0  0  0  0
  196.5940  174.5190  145.5480 O   0  0  0  0  0  0  0  0  0  0  0  0
  195.7660  173.4650  143.7310 O   0  0  0  0  0  0  0  0  0  0  0  0
  1  3  1  0  0  0  0
  1  4  1  0  0  0  0
  3  2  1  1  0  0  0
  3  5  1  0  0  0  0
  4 24  1  1  0  0  0
  4  6  1  0  0  0  0
  5  6  1  0  0  0  0
  5 21  1  1  0  0  0
  8  7  1  0  0  0  0
  9 11  1  6  0  0  0
  9 12  1  0  0  0  0
 10 18  1  6  0  0  0
 10  9  1  0  0  0  0
 10 14  1  0  0  0  0
 12 17  1  1  0  0  0
 12  8  1  0  0  0  0
 13 14  1  6  0  0  0
 13  7  1  0  0  0  0
 13  3  1  0  0  0  0
 16 17  1  0  0  0  0
 16 15  1  0  0  0  0
 17 15  1  0  0  0  0
 18 19  1  0  0  0  0
 20 19  1  0  0  0  0
 21 23  1  0  0  0  0
 23 22  1  0  0  0  0
 24 25  1  0  0  0  0
 26 25  1  0  0  0  0
 26 27  1  0  0  0  0
 28 41  1  0  0  0  0
 28 27  1  1  0  0  0
 29 31  1  0  0  0  0
 30 29  2  0  0  0  0
 31 28  1  0  0  0  0
 32 40  1  0  0  0  0
 32 29  1  0  0  0  0
 33 35  1  0  0  0  0
 34 36  2  0  0  0  0
 35 39  2  0  0  0  0
 35 38  1  0  0  0  0
 36 39  1  0  0  0  0
 39 37  1  0  0  0  0
 40 34  1  0  0  0  0
 40 33  2  0  0  0  0
 41 42  1  6  0  0  0
 43 41  1  0  0  0  0
 43 44  2  0  0  0  0
 45 43  2  0  0  0  0
M  END
>  <MODEL>
5

>  <REMARK>
 VINA RESULT:      -6.1      3.321      6.239
  Name = 
  15 active torsions:
  status: ('A' for Active; 'I' for Inactive)
    1  A    between atoms: C_5  and  N_20
    2  A    between atoms: C_5  and  C_41
    3  A    between atoms: C_8  and  N_17
    4  A    between atoms: C_11  and  N_17
    5  A    between atoms: C_21  and  C_37
    6  A    between atoms: C_22  and  C_24
    7  A    between atoms: C_25  and  C_41
    8  A    between atoms: C_25  and  C_43
    9  A    between atoms: N_28  and  C_38
   10  A    between atoms: C_29  and  C_39
   11  A    between atoms: C_30  and  C_39
   12  A    between atoms: C_30  and  C_43
   13  A    between atoms: N_34  and  C_41
   14  A    between atoms: C_35  and  N_42
   15  A    between atoms: C_38  and  C_40
                            x       y       z     vdW  Elec       q    Type
                         _______ _______ _______ _____ _____    ______ ____

>  <TORSDO>
F 15

$$$$
=
 OpenBabel11072408573D

 45 48  0  0  1  0  0  0  0  0999 V2000
  190.8440  174.1190  141.3500 O   0  0  0  0  0  0  0  0  0  0  0  0
  191.9200  173.7760  139.2520 C   0  0  0  0  0  1  0  0  0  0  0  0
  191.9660  173.4980  140.7590 C   0  0  2  0  0  0  0  0  0  0  0  0
  189.8720  173.1270  141.6080 C   0  0  2  0  0  3  0  0  0  0  0  0
  191.8810  172.0060  141.0830 C   0  0  1  0  0  3  0  0  0  0  0  0
  190.4190  171.7620  141.2530 C   0  0  0  0  0  2  0  0  0  0  0  0
  193.8520  173.2010  142.4650 C   0  0  0  0  0  2  0  0  0  0  0  0
  194.3020  174.0480  143.5590 N   0  0  0  0  0  2  0  0  0  0  0  0
  195.7200  175.5540  142.2130 C   0  0  2  0  0  3  0  0  0  0  0  0
  195.6750  174.8810  140.8230 C   0  0  1  0  0  3  0  0  0  0  0  0
  196.8890  176.3170  142.3320 O   0  0  0  0  0  1  0  0  0  0  0  0
  195.6760  174.4690  143.3080 C   0  0  1  0  0  3  0  0  0  0  0  0
  193.2490  174.0880  141.3820 C   0  0  1  0  0  3  0  0  0  0  0  0
  194.2800  174.4700  140.3120 C   0  0  0  0  0  2  0  0  0  0  0  0
  196.0390  173.9220  145.7090 C   0  0  0  0  0  2  0  0  0  0  0  0
  197.3960  174.0200  145.0460 C   0  0  0  0  0  2  0  0  0  0  0  0
  196.2780  174.9560  144.6230 C   0  0  0  0  0  3  0  0  0  0  0  0
  196.4090  175.6310  139.7950 N   0  0  0  0  0  2  0  0  0  0  0  0
  196.5540  174.8210  138.5870 C   0  0  0  0  0  2  0  0  0  0  0  0
  197.6520  175.3990  137.7180 C   0  0  0  0  0  1  0  0  0  0  0  0
  192.4820  171.0690  140.0390 C   0  0  0  0  0  2  0  0  0  0  0  0
  191.7880  169.9160  138.1350 C   0  0  0  0  0  1  0  0  0  0  0  0
  191.4600  170.1740  139.5260 N   0  0  0  0  0  2  0  0  0  0  0  0
  188.6130  173.4250  140.8060 C   0  0  0  0  0  2  0  0  0  0  0  0
  188.1440  174.8630  141.0030 C   0  0  0  0  0  2  0  0  0  0  0  0
  187.3950  175.0540  142.3190 C   0  0  0  0  0  2  0  0  0  0  0  0
  186.5690  176.3400  142.3360 C   0  0  0  0  0  2  0  0  0  0  0  0
  187.0770  177.4060  143.3170 C   0  0  2  0  0  3  0  0  0  0  0  0
  189.5340  177.7480  142.7810 C   0  0  0  0  0  0  0  0  0  0  0  0
  189.2450  178.4270  141.7610 O   0  0  0  0  0  0  0  0  0  0  0  0
  188.4930  177.2470  143.6250 N   0  0  0  0  0  2  0  0  0  0  0  0
  190.9130  177.5070  143.0880 N   0  0  0  0  0  2  0  0  0  0  0  0
  192.5280  177.1670  144.8820 C   0  0  0  0  0  3  0  0  0  0  0  0
  190.8780  175.4470  144.4750 C   0  0  0  0  0  3  0  0  0  0  0  0
  193.0650  176.4070  145.9270 C   0  0  0  0  0  0  0  0  0  0  0  0
  191.4130  174.6850  145.5180 C   0  0  0  0  0  3  0  0  0  0  0  0
  193.0220  174.4220  147.2540 F   0  0  0  0  0  0  0  0  0  0  0  0
  194.1190  176.8850  146.6340 F   0  0  0  0  0  0  0  0  0  0  0  0
  192.5070  175.1640  146.2440 C   0  0  0  0  0  0  0  0  0  0  0  0
  191.4340  176.6940  144.1480 C   0  0  0  0  0  0  0  0  0  0  0  0
  186.2220  177.5280  144.5870 C   0  0  1  0  0  3  0  0  0  0  0  0
  186.9260  176.9430  145.8110 C   0  0  0  0  0  1  0  0  0  0  0  0
  185.8340  178.9210  144.8180 N   0  0  0  0  0  0  0  0  0  0  0  0
  185.3250  179.3090  146.0360 O   0  0  0  0  0  0  0  0  0  0  0  0
  185.7110  179.6930  143.8450 O   0  0  0  0  0  0  0  0  0  0  0  0
  1  4  1  0  0  0  0
  3  2  1  6  0  0  0
  3  5  1  0  0  0  0
  3  1  1  0  0  0  0
  3 13  1  0  0  0  0
  4 24  1  6  0  0  0
  5 21  1  6  0  0  0
  5  6  1  0  0  0  0
  6  4  1  0  0  0  0
  7  8  1  0  0  0  0
  9 11  1  6  0  0  0
  9 12  1  0  0  0  0
 10 18  1  6  0  0  0
 10  9  1  0  0  0  0
 12  8  1  0  0  0  0
 12 17  1  1  0  0  0
 13 14  1  6  0  0  0
 13  7  1  0  0  0  0
 14 10  1  0  0  0  0
 16 15  1  0  0  0  0
 17 16  1  0  0  0  0
 17 15  1  0  0  0  0
 19 18  1  0  0  0  0
 20 19  1  0  0  0  0
 22 23  1  0  0  0  0
 23 21  1  0  0  0  0
 24 25  1  0  0  0  0
 25 26  1  0  0  0  0
 26 27  1  0  0  0  0
 28 27  1  1  0  0  0
 28 31  1  0  0  0  0
 28 41  1  0  0  0  0
 29 32  1  0  0  0  0
 29 31  1  0  0  0  0
 30 29  2  0  0  0  0
 32 40  1  0  0  0  0
 33 35  1  0  0  0  0
 34 36  2  0  0  0  0
 35 39  2  0  0  0  0
 35 38  1  0  0  0  0
 36 39  1  0  0  0  0
 39 37  1  0  0  0  0
 40 34  1  0  0  0  0
 40 33  2  0  0  0  0
 41 43  1  0  0  0  0
 41 42  1  1  0  0  0
 43 44  2  0  0  0  0
 45 43  2  0  0  0  0
M  END
>  <MODEL>
6

>  <REMARK>
 VINA RESULT:      -6.0      2.367      8.154
  Name = 
  15 active torsions:
  status: ('A' for Active; 'I' for Inactive)
    1  A    between atoms: C_5  and  N_20
    2  A    between atoms: C_5  and  C_41
    3  A    between atoms: C_8  and  N_17
    4  A    between atoms: C_11  and  N_17
    5  A    between atoms: C_21  and  C_37
    6  A    between atoms: C_22  and  C_24
    7  A    between atoms: C_25  and  C_41
    8  A    between atoms: C_25  and  C_43
    9  A    between atoms: N_28  and  C_38
   10  A    between atoms: C_29  and  C_39
   11  A    between atoms: C_30  and  C_39
   12  A    between atoms: C_30  and  C_43
   13  A    between atoms: N_34  and  C_41
   14  A    between atoms: C_35  and  N_42
   15  A    between atoms: C_38  and  C_40
                            x       y       z     vdW  Elec       q    Type
                         _______ _______ _______ _____ _____    ______ ____

>  <TORSDO>
F 15

$$$$
=
 OpenBabel11072408573D

 45 48  0  0  1  0  0  0  0  0999 V2000
  188.8880  174.0770  144.0660 O   0  0  0  0  0  0  0  0  0  0  0  0
  190.2580  175.1460  142.4350 C   0  0  0  0  0  1  0  0  0  0  0  0
  189.4770  175.3190  143.7440 C   0  0  2  0  0  0  0  0  0  0  0  0
  189.6600  173.4700  145.0820 C   0  0  2  0  0  3  0  0  0  0  0  0
  190.3760  175.7120  144.9170 C   0  0  1  0  0  3  0  0  0  0  0  0
  190.7660  174.4050  145.5190 C   0  0  0  0  0  2  0  0  0  0  0  0
  187.2380  175.9100  142.6520 C   0  0  0  0  0  2  0  0  0  0  0  0
  186.8440  177.0280  141.8080 N   0  0  0  0  0  2  0  0  0  0  0  0
  186.4160  178.6440  143.6250 C   0  0  2  0  0  3  0  0  0  0  0  0
  186.5770  177.7630  144.8830 C   0  0  1  0  0  3  0  0  0  0  0  0
  185.5890  179.7370  143.9150 O   0  0  0  0  0  1  0  0  0  0  0  0
  185.8070  177.8010  142.4850 C   0  0  1  0  0  3  0  0  0  0  0  0
  188.3610  176.3710  143.5740 C   0  0  1  0  0  3  0  0  0  0  0  0
  187.8290  176.8630  144.9270 C   0  0  0  0  0  2  0  0  0  0  0  0
  184.9950  177.9090  140.1350 C   0  0  0  0  0  2  0  0  0  0  0  0
  183.7910  178.0050  141.0470 C   0  0  0  0  0  2  0  0  0  0  0  0
  185.0980  178.6660  141.4480 C   0  0  0  0  0  3  0  0  0  0  0  0
  186.4300  178.5150  146.1360 N   0  0  0  0  0  2  0  0  0  0  0  0
  185.4520  177.8620  147.0040 C   0  0  0  0  0  2  0  0  0  0  0  0
  184.0520  178.2120  146.5440 C   0  0  0  0  0  1  0  0  0  0  0  0
  191.6030  176.5460  144.5560 C   0  0  0  0  0  2  0  0  0  0  0  0
  191.1850  178.6150  143.5660 C   0  0  0  0  0  1  0  0  0  0  0  0
  191.3540  177.9470  144.8440 N   0  0  0  0  0  2  0  0  0  0  0  0
  190.2380  172.1590  144.5680 C   0  0  0  0  0  2  0  0  0  0  0  0
  189.5490  171.7000  143.2870 C   0  0  0  0  0  2  0  0  0  0  0  0
  190.5470  171.2810  142.2100 C   0  0  0  0  0  2  0  0  0  0  0  0
  190.1540  171.7910  140.8240 C   0  0  0  0  0  2  0  0  0  0  0  0
  191.3180  172.3710  140.0080 C   0  0  2  0  0  3  0  0  0  0  0  0
  193.7750  172.1450  140.6030 C   0  0  0  0  0  0  0  0  0  0  0  0
  193.9790  171.4180  139.5960 O   0  0  0  0  0  0  0  0  0  0  0  0
  192.4730  172.6890  140.8390 N   0  0  0  0  0  2  0  0  0  0  0  0
  194.8660  172.4300  141.4880 N   0  0  0  0  0  2  0  0  0  0  0  0
  195.4380  174.4120  142.7870 C   0  0  0  0  0  3  0  0  0  0  0  0
  194.1470  172.6680  143.8530 C   0  0  0  0  0  3  0  0  0  0  0  0
  195.4060  175.1600  143.9690 C   0  0  0  0  0  0  0  0  0  0  0  0
  194.1140  173.4120  145.0350 C   0  0  0  0  0  3  0  0  0  0  0  0
  194.7090  175.3760  146.2430 F   0  0  0  0  0  0  0  0  0  0  0  0
  196.0100  176.3730  144.0140 F   0  0  0  0  0  0  0  0  0  0  0  0
  194.7440  174.6580  145.0950 C   0  0  0  0  0  0  0  0  0  0  0  0
  194.8120  173.1620  142.7200 C   0  0  0  0  0  0  0  0  0  0  0  0
  190.9120  173.5500  139.1120 C   0  0  1  0  0  3  0  0  0  0  0  0
  191.9660  173.8510  138.0470 C   0  0  0  0  0  1  0  0  0  0  0  0
  189.6010  173.3120  138.5060 N   0  0  0  0  0  0  0  0  0  0  0  0
  189.4620  172.4000  137.4840 O   0  0  0  0  0  0  0  0  0  0  0  0
  188.6690  174.1140  138.7220 O   0  0  0  0  0  0  0  0  0  0  0  0
  1  4  1  0  0  0  0
  3  2  1  6  0  0  0
  3  1  1  0  0  0  0
  3  5  1  0  0  0  0
  4 24  1  6  0  0  0
  4  6  1  0  0  0  0
  5 21  1  6  0  0  0
  5  6  1  0  0  0  0
  8 12  1  0  0  0  0
  8  7  1  0  0  0  0
  9 11  1  1  0  0  0
  9 10  1  0  0  0  0
 10 14  1  0  0  0  0
 10 18  1  1  0  0  0
 12 17  1  6  0  0  0
 12  9  1  0  0  0  0
 13  7  1  6  0  0  0
 13  3  1  0  0  0  0
 13 14  1  0  0  0  0
 15 16  1  0  0  0  0
 15 17  1  0  0  0  0
 16 17  1  0  0  0  0
 18 19  1  0  0  0  0
 20 19  1  0  0  0  0
 21 23  1  0  0  0  0
 22 23  1  0  0  0  0
 25 24  1  0  0  0  0
 26 25  1  0  0  0  0
 27 26  1  0  0  0  0
 28 27  1  1  0  0  0
 28 31  1  0  0  0  0
 29 31  1  0  0  0  0
 29 32  1  0  0  0  0
 30 29  2  0  0  0  0
 32 40  1  0  0  0  0
 33 35  1  0  0  0  0
 34 36  2  0  0  0  0
 35 38  1  0  0  0  0
 35 39  2  0  0  0  0
 36 39  1  0  0  0  0
 39 37  1  0  0  0  0
 40 33  2  0  0  0  0
 40 34  1  0  0  0  0
 41 42  1  6  0  0  0
 41 28  1  0  0  0  0
 43 45  2  0  0  0  0
 43 41  1  0  0  0  0
 44 43  2  0  0  0  0
M  END
>  <MODEL>
7

>  <REMARK>
 VINA RESULT:      -5.9      1.494      3.102
  Name = 
  15 active torsions:
  status: ('A' for Active; 'I' for Inactive)
    1  A    between atoms: C_5  and  N_20
    2  A    between atoms: C_5  and  C_41
    3  A    between atoms: C_8  and  N_17
    4  A    between atoms: C_11  and  N_17
    5  A    between atoms: C_21  and  C_37
    6  A    between atoms: C_22  and  C_24
    7  A    between atoms: C_25  and  C_41
    8  A    between atoms: C_25  and  C_43
    9  A    between atoms: N_28  and  C_38
   10  A    between atoms: C_29  and  C_39
   11  A    between atoms: C_30  and  C_39
   12  A    between atoms: C_30  and  C_43
   13  A    between atoms: N_34  and  C_41
   14  A    between atoms: C_35  and  N_42
   15  A    between atoms: C_38  and  C_40
                            x       y       z     vdW  Elec       q    Type
                         _______ _______ _______ _____ _____    ______ ____

>  <TORSDO>
F 15

$$$$
=
 OpenBabel11072408573D

 45 48  0  0  1  0  0  0  0  0999 V2000
  188.1980  175.6070  145.3820 O   0  0  0  0  0  0  0  0  0  0  0  0
  188.7270  175.4540  143.0640 C   0  0  0  0  0  1  0  0  0  0  0  0
  188.3800  176.3950  144.2240 C   0  0  2  0  0  0  0  0  0  0  0  0
  189.3590  175.7140  146.1780 C   0  0  2  0  0  3  0  0  0  0  0  0
  189.4990  177.3920  144.5270 C   0  0  1  0  0  3  0  0  0  0  0  0
  190.3250  176.6980  145.5570 C   0  0  0  0  0  2  0  0  0  0  0  0
  186.2100  176.4880  142.8690 C   0  0  0  0  0  2  0  0  0  0  0  0
  185.6630  177.5170  141.9980 N   0  0  0  0  0  2  0  0  0  0  0  0
  184.6500  178.9070  143.7670 C   0  0  2  0  0  3  0  0  0  0  0  0
  184.8670  178.0360  145.0240 C   0  0  1  0  0  3  0  0  0  0  0  0
  183.5570  179.7610  143.9660 O   0  0  0  0  0  1  0  0  0  0  0  0
  184.3990  177.9940  142.5500 C   0  0  1  0  0  3  0  0  0  0  0  0
  187.0730  177.1610  143.9310 C   0  0  1  0  0  3  0  0  0  0  0  0
  186.2830  177.4550  145.2130 C   0  0  0  0  0  2  0  0  0  0  0  0
  183.5680  177.8270  140.2100 C   0  0  0  0  0  2  0  0  0  0  0  0
  182.3650  177.9360  141.1220 C   0  0  0  0  0  2  0  0  0  0  0  0
  183.6310  178.7110  141.4430 C   0  0  0  0  0  3  0  0  0  0  0  0
  184.3960  178.6780  146.2590 N   0  0  0  0  0  2  0  0  0  0  0  0
  185.5330  179.0540  147.0970 C   0  0  0  0  0  2  0  0  0  0  0  0
  185.8640  177.9180  148.0420 C   0  0  0  0  0  1  0  0  0  0  0  0
  190.3460  177.8150  143.3290 C   0  0  0  0  0  2  0  0  0  0  0  0
  192.3150  176.6940  142.7800 C   0  0  0  0  0  1  0  0  0  0  0  0
  191.7570  177.7090  143.6550 N   0  0  0  0  0  2  0  0  0  0  0  0
  190.0080  174.3430  146.3190 C   0  0  0  0  0  2  0  0  0  0  0  0
  190.7170  173.9190  145.0370 C   0  0  0  0  0  2  0  0  0  0  0  0
  190.3930  172.4800  144.6430 C   0  0  0  0  0  2  0  0  0  0  0  0
  190.5040  172.2500  143.1370 C   0  0  0  0  0  2  0  0  0  0  0  0
  191.9070  171.8510  142.6580 C   0  0  2  0  0  3  0  0  0  0  0  0
  194.0650  172.0200  143.9840 C   0  0  0  0  0  0  0  0  0  0  0  0
  194.2070  170.7690  143.9630 O   0  0  0  0  0  0  0  0  0  0  0  0
  192.9570  172.6250  143.3110 N   0  0  0  0  0  2  0  0  0  0  0  0
  195.0360  172.8180  144.6730 N   0  0  0  0  0  2  0  0  0  0  0  0
  194.2410  174.7430  145.9400 C   0  0  0  0  0  3  0  0  0  0  0  0
  195.7080  175.1280  144.0570 C   0  0  0  0  0  3  0  0  0  0  0  0
  194.1830  176.1200  146.1780 C   0  0  0  0  0  0  0  0  0  0  0  0
  195.6510  176.5040  144.2910 C   0  0  0  0  0  3  0  0  0  0  0  0
  194.8360  178.3370  145.5740 F   0  0  0  0  0  0  0  0  0  0  0  0
  193.4490  176.5930  147.2150 F   0  0  0  0  0  0  0  0  0  0  0  0
  194.8870  177.0020  145.3510 C   0  0  0  0  0  0  0  0  0  0  0  0
  195.0000  174.2370  144.8780 C   0  0  0  0  0  0  0  0  0  0  0  0
  192.0580  171.8530  141.1300 C   0  0  1  0  0  3  0  0  0  0  0  0
  190.7050  171.8360  140.4190 C   0  0  0  0  0  1  0  0  0  0  0  0
  192.8690  172.9900  140.6920 N   0  0  0  0  0  0  0  0  0  0  0  0
  192.2750  174.1930  140.3820 O   0  0  0  0  0  0  0  0  0  0  0  0
  194.0530  172.8020  140.3420 O   0  0  0  0  0  0  0  0  0  0  0  0
  1  4  1  0  0  0  0
  3  2  1  6  0  0  0
  3  5  1  0  0  0  0
  3  1  1  0  0  0  0
  4 24  1  6  0  0  0
  5 21  1  6  0  0  0
  5  6  1  0  0  0  0
  6  4  1  0  0  0  0
  8 12  1  0  0  0  0
  8  7  1  0  0  0  0
  9 11  1  1  0  0  0
  9 10  1  0  0  0  0
 10 14  1  0  0  0  0
 10 18  1  1  0  0  0
 12 17  1  6  0  0  0
 12  9  1  0  0  0  0
 13  7  1  6  0  0  0
 13  3  1  0  0  0  0
 13 14  1  0  0  0  0
 15 16  1  0  0  0  0
 15 17  1  0  0  0  0
 16 17  1  0  0  0  0
 18 19  1  0  0  0  0
 19 20  1  0  0  0  0
 21 23  1  0  0  0  0
 22 23  1  0  0  0  0
 25 24  1  0  0  0  0
 26 25  1  0  0  0  0
 27 26  1  0  0  0  0
 28 27  1  6  0  0  0
 28 31  1  0  0  0  0
 29 32  1  0  0  0  0
 30 29  2  0  0  0  0
 31 29  1  0  0  0  0
 32 40  1  0  0  0  0
 33 35  1  0  0  0  0
 34 36  2  0  0  0  0
 34 40  1  0  0  0  0
 35 38  1  0  0  0  0
 36 39  1  0  0  0  0
 39 37  1  0  0  0  0
 39 35  2  0  0  0  0
 40 33  2  0  0  0  0
 41 42  1  6  0  0  0
 41 28  1  0  0  0  0
 43 41  1  0  0  0  0
 44 43  2  0  0  0  0
 45 43  2  0  0  0  0
M  END
>  <MODEL>
8

>  <REMARK>
 VINA RESULT:      -5.9      1.748      3.453
  Name = 
  15 active torsions:
  status: ('A' for Active; 'I' for Inactive)
    1  A    between atoms: C_5  and  N_20
    2  A    between atoms: C_5  and  C_41
    3  A    between atoms: C_8  and  N_17
    4  A    between atoms: C_11  and  N_17
    5  A    between atoms: C_21  and  C_37
    6  A    between atoms: C_22  and  C_24
    7  A    between atoms: C_25  and  C_41
    8  A    between atoms: C_25  and  C_43
    9  A    between atoms: N_28  and  C_38
   10  A    between atoms: C_29  and  C_39
   11  A    between atoms: C_30  and  C_39
   12  A    between atoms: C_30  and  C_43
   13  A    between atoms: N_34  and  C_41
   14  A    between atoms: C_35  and  N_42
   15  A    between atoms: C_38  and  C_40
                            x       y       z     vdW  Elec       q    Type
                         _______ _______ _______ _____ _____    ______ ____

>  <TORSDO>
F 15

$$$$
=
 OpenBabel11072408573D

 45 48  0  0  1  0  0  0  0  0999 V2000
  189.4980  173.5690  143.6210 O   0  0  0  0  0  0  0  0  0  0  0  0
  190.5880  175.3370  142.4540 C   0  0  0  0  0  1  0  0  0  0  0  0
  189.9220  174.9080  143.7670 C   0  0  2  0  0  0  0  0  0  0  0  0
  190.4210  172.7360  144.2910 C   0  0  2  0  0  3  0  0  0  0  0  0
  190.8820  174.9520  144.9550 C   0  0  1  0  0  3  0  0  0  0  0  0
  191.4610  173.5780  144.9960 C   0  0  0  0  0  2  0  0  0  0  0  0
  188.7300  176.4230  145.4520 C   0  0  0  0  0  2  0  0  0  0  0  0
  187.3950  176.3600  146.0260 N   0  0  0  0  0  2  0  0  0  0  0  0
  186.2100  177.4580  144.1600 C   0  0  2  0  0  3  0  0  0  0  0  0
  187.3780  177.8990  143.2520 C   0  0  1  0  0  3  0  0  0  0  0  0
  185.0970  178.2780  143.9300 O   0  0  0  0  0  1  0  0  0  0  0  0
  186.6460  177.5510  145.6360 C   0  0  1  0  0  3  0  0  0  0  0  0
  188.6910  175.7910  144.0650 C   0  0  1  0  0  3  0  0  0  0  0  0
  188.4550  176.8330  142.9640 C   0  0  0  0  0  2  0  0  0  0  0  0
  185.9470  177.7970  148.0120 C   0  0  0  0  0  2  0  0  0  0  0  0
  185.5260  179.0490  147.2730 C   0  0  0  0  0  2  0  0  0  0  0  0
  185.4550  177.7000  146.5780 C   0  0  0  0  0  3  0  0  0  0  0  0
  186.9320  178.5400  142.0080 N   0  0  0  0  0  2  0  0  0  0  0  0
  186.8130  177.5470  140.9420 C   0  0  0  0  0  2  0  0  0  0  0  0
  185.6450  177.9020  140.0460 C   0  0  0  0  0  1  0  0  0  0  0  0
  191.9760  176.0140  144.8800 C   0  0  0  0  0  2  0  0  0  0  0  0
  192.5540  176.4950  147.0870 C   0  0  0  0  0  1  0  0  0  0  0  0
  192.9780  175.7700  145.9020 N   0  0  0  0  0  2  0  0  0  0  0  0
  191.0810  171.7970  143.2900 C   0  0  0  0  0  2  0  0  0  0  0  0
  190.0620  171.1810  142.3360 C   0  0  0  0  0  2  0  0  0  0  0  0
  190.5790  171.1110  140.9010 C   0  0  0  0  0  2  0  0  0  0  0  0
  190.0900  172.2820  140.0500 C   0  0  0  0  0  2  0  0  0  0  0  0
  191.0790  172.7340  138.9660 C   0  0  2  0  0  3  0  0  0  0  0  0
  193.5970  172.4910  139.1810 C   0  0  0  0  0  0  0  0  0  0  0  0
  193.6100  171.5850  138.3070 O   0  0  0  0  0  0  0  0  0  0  0  0
  192.3660  173.1360  139.5220 N   0  0  0  0  0  2  0  0  0  0  0  0
  194.8290  172.8740  139.8060 N   0  0  0  0  0  2  0  0  0  0  0  0
  195.4870  175.0930  140.5690 C   0  0  0  0  0  3  0  0  0  0  0  0
  194.6920  173.5000  142.2050 C   0  0  0  0  0  3  0  0  0  0  0  0
  195.6660  176.0440  141.5800 C   0  0  0  0  0  0  0  0  0  0  0  0
  194.8710  174.4470  143.2170 C   0  0  0  0  0  3  0  0  0  0  0  0
  195.5310  176.6340  143.8900 F   0  0  0  0  0  0  0  0  0  0  0  0
  196.1290  177.2790  141.2660 F   0  0  0  0  0  0  0  0  0  0  0  0
  195.3590  175.7190  142.9060 C   0  0  0  0  0  0  0  0  0  0  0  0
  195.0010  173.8160  140.8730 C   0  0  0  0  0  0  0  0  0  0  0  0
  190.5070  173.7970  138.0170 C   0  0  1  0  0  3  0  0  0  0  0  0
  191.4330  174.0690  136.8330 C   0  0  0  0  0  1  0  0  0  0  0  0
  189.1680  173.4170  137.5620 N   0  0  0  0  0  0  0  0  0  0  0  0
  189.0030  172.3880  136.6630 O   0  0  0  0  0  0  0  0  0  0  0  0
  188.2060  174.1840  137.7750 O   0  0  0  0  0  0  0  0  0  0  0  0
  1  3  1  0  0  0  0
  1  4  1  0  0  0  0
  3  2  1  6  0  0  0
  3 13  1  0  0  0  0
  3  5  1  0  0  0  0
  4 24  1  6  0  0  0
  4  6  1  0  0  0  0
  5 21  1  6  0  0  0
  5  6  1  0  0  0  0
  7  8  1  0  0  0  0
  9 11  1  1  0  0  0
  9 12  1  0  0  0  0
 10 18  1  6  0  0  0
 10  9  1  0  0  0  0
 12  8  1  0  0  0  0
 12 17  1  1  0  0  0
 13 14  1  6  0  0  0
 13  7  1  0  0  0  0
 14 10  1  0  0  0  0
 16 15  1  0  0  0  0
 17 16  1  0  0  0  0
 17 15  1  0  0  0  0
 19 18  1  0  0  0  0
 20 19  1  0  0  0  0
 21 23  1  0  0  0  0
 23 22  1  0  0  0  0
 25 24  1  0  0  0  0
 26 25  1  0  0  0  0
 27 26  1  0  0  0  0
 28 31  1  0  0  0  0
 28 27  1  1  0  0  0
 29 31  1  0  0  0  0
 29 32  1  0  0  0  0
 30 29  2  0  0  0  0
 32 40  1  0  0  0  0
 33 40  2  0  0  0  0
 33 35  1  0  0  0  0
 34 36  2  0  0  0  0
 35 39  2  0  0  0  0
 38 35  1  0  0  0  0
 39 36  1  0  0  0  0
 39 37  1  0  0  0  0
 40 34  1  0  0  0  0
 41 42  1  6  0  0  0
 41 28  1  0  0  0  0
 43 45  2  0  0  0  0
 43 41  1  0  0  0  0
 44 43  2  0  0  0  0
M  END
>  <MODEL>
9

>  <REMARK>
 VINA RESULT:      -5.9      1.753      2.453
  Name = 
  15 active torsions:
  status: ('A' for Active; 'I' for Inactive)
    1  A    between atoms: C_5  and  N_20
    2  A    between atoms: C_5  and  C_41
    3  A    between atoms: C_8  and  N_17
    4  A    between atoms: C_11  and  N_17
    5  A    between atoms: C_21  and  C_37
    6  A    between atoms: C_22  and  C_24
    7  A    between atoms: C_25  and  C_41
    8  A    between atoms: C_25  and  C_43
    9  A    between atoms: N_28  and  C_38
   10  A    between atoms: C_29  and  C_39
   11  A    between atoms: C_30  and  C_39
   12  A    between atoms: C_30  and  C_43
   13  A    between atoms: N_34  and  C_41
   14  A    between atoms: C_35  and  N_42
   15  A    between atoms: C_38  and  C_40
                            x       y       z     vdW  Elec       q    Type
                         _______ _______ _______ _____ _____    ______ ____

>  <TORSDO>
F 15

$$$$
