=
 OpenBabel11072409443D

 59 64  0  0  1  0  0  0  0  0999 V2000
  191.4330  174.2700  143.0660 C   0  0  2  0  0  3  0  0  0  0  0  0
  190.7940  172.4860  141.2680 C   0  0  1  0  0  0  0  0  0  0  0  0
  189.9200  174.4820  143.1960 C   0  0  1  0  0  3  0  0  0  0  0  0
  191.8750  174.7750  141.6990 C   0  0  0  0  0  2  0  0  0  0  0  0
  189.0870  173.4090  142.5150 C   0  0  0  0  0  2  0  0  0  0  0  0
  189.5540  173.1800  141.2130 O   0  0  0  0  0  0  0  0  0  0  0  0
  191.9090  173.2830  141.9870 C   0  0  1  0  0  3  0  0  0  0  0  0
  190.6420  171.1300  141.9640 C   0  0  0  0  0  1  0  0  0  0  0  0
  191.2720  172.1590  139.8480 C   0  0  0  0  0  2  0  0  0  0  0  0
  190.7720  170.8140  139.3150 C   0  0  1  0  0  3  0  0  0  0  0  0
  189.6000  170.9610  138.3290 C   0  0  2  0  0  3  0  0  0  0  0  0
  189.5450  169.8830  137.4340 O   0  0  0  0  0  1  0  0  0  0  0  0
  189.6710  172.2740  137.5270 C   0  0  2  0  0  3  0  0  0  0  0  0
  188.4600  173.1460  137.6800 C   0  0  0  0  0  3  0  0  0  0  0  0
  188.4690  174.1270  138.5030 N   0  0  0  0  0  2  0  0  0  0  0  0
  189.9720  172.0310  136.0420 C   0  0  0  0  0  2  0  0  0  0  0  0
  189.8840  173.2890  135.1770 C   0  0  0  0  0  2  0  0  0  0  0  0
  191.1360  174.0950  135.2470 C   0  0  0  0  0  0  0  0  0  0  0  0
  191.1870  175.1260  135.9700 O   0  0  0  0  0  1  0  0  0  0  0  0
  192.2490  173.7080  134.5130 O   0  0  0  0  0  0  0  0  0  0  0  0
  192.1610  169.9900  138.4670 S   0  0  0  0  0  0  0  0  0  0  0  0
  194.1310  171.8370  139.1590 N   0  0  0  0  0  2  0  0  0  0  0  0
  193.4000  170.6760  139.5600 C   0  0  0  0  0  0  0  0  0  0  0  0
  193.6200  170.1330  140.6730 O   0  0  0  0  0  0  0  0  0  0  0  0
  195.0700  172.5160  140.0370 C   0  0  0  0  0  2  0  0  0  0  0  0
  195.0030  176.2080  140.8930 C   0  0  0  0  0  1  0  0  0  0  0  0
  196.5400  174.4950  139.8040 C   0  0  2  0  0  0  0  0  0  0  0  0
  196.7370  175.6160  139.0100 F   0  0  0  0  0  0  0  0  0  0  0  0
  195.1150  173.9970  139.7110 C   0  0  2  0  0  3  0  0  0  0  0  0
  195.5240  174.7770  140.9410 C   0  0  2  0  0  0  0  0  0  0  0  0
  197.0110  174.7380  141.2210 C   0  0  0  0  0  2  0  0  0  0  0  0
  189.4740  174.7140  144.6480 C   0  0  0  0  0  2  0  0  0  0  0  0
  189.5180  176.1650  145.1760 C   0  0  1  0  0  3  0  0  0  0  0  0
  188.3320  176.5430  146.0560 C   0  0  0  0  0  2  0  0  0  0  0  0
  185.2030  178.8090  145.6470 C   0  0  0  0  0  2  0  0  0  0  0  0
  185.5340  179.6530  144.4110 C   0  0  0  0  0  2  0  0  0  0  0  0
  186.4250  178.1480  146.2900 C   0  0  0  0  0  2  0  0  0  0  0  0
  186.5790  176.5590  144.2760 C   0  0  0  0  0  2  0  0  0  0  0  0
  185.7530  177.3700  143.2610 C   0  0  0  0  0  2  0  0  0  0  0  0
  186.1140  178.8580  143.2290 C   0  0  0  0  0  2  0  0  0  0  0  0
  187.3370  177.4130  145.3020 C   0  0  0  0  0  3  0  0  0  0  0  0
  190.8240  176.4950  145.8820 C   0  0  0  0  0  2  0  0  0  0  0  0
  191.3150  175.3140  146.7120 C   0  0  2  0  0  3  0  0  0  0  0  0
  191.1630  175.6020  148.2080 C   0  0  0  0  0  2  0  0  0  0  0  0
  191.4960  177.0450  148.5660 C   0  0  0  0  0  1  0  0  0  0  0  0
  192.7540  174.9630  146.3410 C   0  0  0  0  0  2  0  0  0  0  0  0
  193.4570  176.1450  145.6990 C   0  0  0  0  0  2  0  0  0  0  0  0
  194.2000  175.6670  144.4670 C   0  0  0  0  0  2  0  0  0  0  0  0
  195.2470  174.6740  144.8430 C   0  0  0  0  0  0  0  0  0  0  0  0
  196.1440  174.9830  145.6120 O   0  0  0  0  0  0  0  0  0  0  0  0
  195.1880  173.2930  144.2600 C   0  0  0  0  0  2  0  0  0  0  0  0
  196.5040  171.5840  145.5800 C   0  0  0  0  0  2  0  0  0  0  0  0
  192.9180  171.5250  144.7610 O   0  0  0  0  0  0  0  0  0  0  0  0
  194.3420  169.6720  145.0680 C   0  0  2  0  0  3  0  0  0  0  0  0
  196.3920  170.3040  146.2660 N   0  0  0  0  0  2  0  0  0  0  0  0
  194.0560  171.1520  145.0040 C   0  0  0  0  0  0  0  0  0  0  0  0
  195.8220  169.3670  145.3060 C   0  0  0  0  0  2  0  0  0  0  0  0
  193.9310  169.0530  143.8900 O   0  0  0  0  0  1  0  0  0  0  0  0
  195.1180  172.1870  145.3160 C   0  0  2  0  0  3  0  0  0  0  0  0
  1  4  1  6  0  0  0
  1  3  1  0  0  0  0
  2  8  1  1  0  0  0
  2  7  1  0  0  0  0
  3 32  1  1  0  0  0
  5  3  1  0  0  0  0
  6  2  1  0  0  0  0
  6  5  1  0  0  0  0
  7  4  1  6  0  0  0
  7  1  1  0  0  0  0
  9  2  1  0  0  0  0
 10  9  1  6  0  0  0
 11 12  1  6  0  0  0
 11 10  1  0  0  0  0
 13 16  1  6  0  0  0
 13 14  1  0  0  0  0
 13 11  1  0  0  0  0
 14 15  2  0  0  0  0
 17 18  1  0  0  0  0
 17 16  1  0  0  0  0
 18 19  1  0  0  0  0
 20 18  2  0  0  0  0
 21 10  1  0  0  0  0
 21 23  1  0  0  0  0
 22 23  1  0  0  0  0
 22 25  1  0  0  0  0
 23 24  2  0  0  0  0
 27 28  1  6  0  0  0
 27 30  1  0  0  0  0
 27 31  1  0  0  0  0
 29 27  1  0  0  0  0
 29 25  1  1  0  0  0
 29 30  1  0  0  0  0
 30 26  1  6  0  0  0
 30 31  1  0  0  0  0
 33 32  1  1  0  0  0
 33 42  1  0  0  0  0
 33 34  1  0  0  0  0
 35 37  1  0  0  0  0
 36 35  1  0  0  0  0
 38 41  1  0  0  0  0
 39 38  1  0  0  0  0
 40 39  1  0  0  0  0
 40 36  1  0  0  0  0
 41 34  1  0  0  0  0
 41 37  1  0  0  0  0
 43 42  1  6  0  0  0
 43 44  1  0  0  0  0
 44 45  1  0  0  0  0
 46 43  1  0  0  0  0
 47 46  1  0  0  0  0
 48 49  1  0  0  0  0
 48 47  1  0  0  0  0
 49 50  2  0  0  0  0
 51 49  1  0  0  0  0
 52 55  1  0  0  0  0
 53 56  2  0  0  0  0
 54 58  1  6  0  0  0
 54 57  1  0  0  0  0
 56 54  1  0  0  0  0
 56 59  1  0  0  0  0
 57 55  1  0  0  0  0
 59 51  1  6  0  0  0
 59 52  1  0  0  0  0
M  END
>  <MODEL>
1

>  <REMARK>
 VINA RESULT:      -5.9      0.000      0.000
  Name = 
  25 active torsions:
  status: ('A' for Active; 'I' for Inactive)
    1  A    between atoms: C_3  and  C_25
    2  A    between atoms: C_5  and  C_42
    3  A    between atoms: C_6  and  C_19
    4  A    between atoms: C_6  and  C_31
    5  A    between atoms: C_9  and  C_19
    6  A    between atoms: C_9  and  C_54
    7  A    between atoms: C_11  and  C_27
    8  A    between atoms: C_13  and  C_25
    9  A    between atoms: C_13  and  C_28
   10  A    between atoms: C_15  and  C_28
   11  A    between atoms: C_15  and  C_59
   12  A    between atoms: C_17  and  C_37
   13  A    between atoms: C_27  and  C_38
   14  A    between atoms: C_28  and  C_41
   15  A    between atoms: C_30  and  C_37
   16  A    between atoms: C_30  and  C_38
   17  A    between atoms: C_31  and  C_37
   18  A    between atoms: C_38  and  C_48
   19  A    between atoms: C_39  and  C_48
   20  A    between atoms: C_42  and  C_59
   21  A    between atoms: N_44  and  C_57
   22  A    between atoms: C_45  and  C_57
   23  A    between atoms: C_46  and  S_55
   24  A    between atoms: C_52  and  C_54
   25  A    between atoms: S_55  and  C_59
                            x       y       z     vdW  Elec       q    Type
                         _______ _______ _______ _____ _____    ______ ____

>  <TORSDO>
F 25

$$$$
=
 OpenBabel11072409443D

 59 64  0  0  1  0  0  0  0  0999 V2000
  190.6080  172.0160  143.7830 C   0  0  2  0  0  3  0  0  0  0  0  0
  189.6620  173.7510  142.0750 C   0  0  1  0  0  0  0  0  0  0  0  0
  190.6870  171.0740  142.5760 C   0  0  1  0  0  3  0  0  0  0  0  0
  189.1420  172.2660  144.1050 C   0  0  0  0  0  2  0  0  0  0  0  0
  190.5000  171.7700  141.2390 C   0  0  0  0  0  2  0  0  0  0  0  0
  189.3770  172.6090  141.2770 O   0  0  0  0  0  0  0  0  0  0  0  0
  189.9850  173.4020  143.5480 C   0  0  1  0  0  3  0  0  0  0  0  0
  190.8350  174.5510  141.4990 C   0  0  0  0  0  1  0  0  0  0  0  0
  188.4690  174.7130  142.0570 C   0  0  0  0  0  2  0  0  0  0  0  0
  188.8080  176.1370  142.5050 C   0  0  1  0  0  3  0  0  0  0  0  0
  188.2040  177.2130  141.5850 C   0  0  2  0  0  3  0  0  0  0  0  0
  188.9280  178.4100  141.6540 O   0  0  0  0  0  1  0  0  0  0  0  0
  186.7270  177.5010  141.9110 C   0  0  2  0  0  3  0  0  0  0  0  0
  185.8250  177.4840  140.7120 C   0  0  0  0  0  3  0  0  0  0  0  0
  186.3070  177.2880  139.5420 N   0  0  0  0  0  2  0  0  0  0  0  0
  186.5510  178.8080  142.6960 C   0  0  0  0  0  2  0  0  0  0  0  0
  185.1600  178.9800  143.3080 C   0  0  0  0  0  2  0  0  0  0  0  0
  185.1670  178.7180  144.7760 C   0  0  0  0  0  0  0  0  0  0  0  0
  184.5840  177.7030  145.2410 O   0  0  0  0  0  0  0  0  0  0  0  0
  185.8190  179.5960  145.6310 O   0  0  0  0  0  1  0  0  0  0  0  0
  188.1570  176.3680  144.1930 S   0  0  0  0  0  0  0  0  0  0  0  0
  190.8840  176.9250  144.0270 N   0  0  0  0  0  2  0  0  0  0  0  0
  189.7570  176.7580  144.8920 C   0  0  0  0  0  0  0  0  0  0  0  0
  189.8820  176.8820  146.1380 O   0  0  0  0  0  0  0  0  0  0  0  0
  192.1870  177.3510  144.5100 C   0  0  0  0  0  2  0  0  0  0  0  0
  195.5340  175.6160  144.9030 C   0  0  0  0  0  1  0  0  0  0  0  0
  193.3650  175.9640  146.1910 C   0  0  2  0  0  0  0  0  0  0  0  0
  193.6750  174.6450  146.4860 F   0  0  0  0  0  0  0  0  0  0  0  0
  193.0890  176.1490  144.7140 C   0  0  2  0  0  3  0  0  0  0  0  0
  194.4270  176.6010  145.2570 C   0  0  2  0  0  0  0  0  0  0  0  0
  194.4110  176.9100  146.7380 C   0  0  0  0  0  2  0  0  0  0  0  0
  191.9470  170.1940  142.5880 C   0  0  0  0  0  2  0  0  0  0  0  0
  193.2580  170.8460  143.0820 C   0  0  1  0  0  3  0  0  0  0  0  0
  193.3650  170.9550  144.5990 C   0  0  0  0  0  2  0  0  0  0  0  0
  196.1110  169.4330  146.8850 C   0  0  0  0  0  2  0  0  0  0  0  0
  197.3500  169.4010  145.9810 C   0  0  0  0  0  2  0  0  0  0  0  0
  194.7920  169.5740  146.1230 C   0  0  0  0  0  2  0  0  0  0  0  0
  195.4170  172.0040  145.5640 C   0  0  0  0  0  2  0  0  0  0  0  0
  196.9350  171.9270  145.8030 C   0  0  0  0  0  2  0  0  0  0  0  0
  197.5910  170.6910  145.1790 C   0  0  0  0  0  2  0  0  0  0  0  0
  194.7850  170.6930  145.0750 C   0  0  0  0  0  3  0  0  0  0  0  0
  194.5000  170.1760  142.5140 C   0  0  0  0  0  2  0  0  0  0  0  0
  195.1320  171.0270  141.4180 C   0  0  2  0  0  3  0  0  0  0  0  0
  196.4480  171.6420  141.9020 C   0  0  0  0  0  2  0  0  0  0  0  0
  196.3270  173.1330  142.1920 C   0  0  0  0  0  1  0  0  0  0  0  0
  194.1480  172.0890  140.9320 C   0  0  0  0  0  2  0  0  0  0  0  0
  193.9000  171.9620  139.4410 C   0  0  0  0  0  2  0  0  0  0  0  0
  193.4960  170.5360  139.1270 C   0  0  0  0  0  2  0  0  0  0  0  0
  192.2650  170.5150  138.2870 C   0  0  0  0  0  0  0  0  0  0  0  0
  191.3880  169.6900  138.4950 O   0  0  0  0  0  0  0  0  0  0  0  0
  192.1180  171.5170  137.1800 C   0  0  0  0  0  2  0  0  0  0  0  0
  189.7140  172.3020  137.2220 C   0  0  0  0  0  2  0  0  0  0  0  0
  192.7570  174.3650  137.0630 O   0  0  0  0  0  0  0  0  0  0  0  0
  190.6410  174.8710  136.1570 C   0  0  2  0  0  3  0  0  0  0  0  0
  188.8770  173.4930  137.1690 N   0  0  0  0  0  2  0  0  0  0  0  0
  191.6070  173.9830  136.9000 C   0  0  0  0  0  0  0  0  0  0  0  0
  189.2680  174.2230  135.9710 C   0  0  0  0  0  2  0  0  0  0  0  0
  191.1610  175.2080  134.9090 O   0  0  0  0  0  1  0  0  0  0  0  0
  191.1730  172.6720  137.5230 C   0  0  2  0  0  3  0  0  0  0  0  0
  1  4  1  1  0  0  0
  2  8  1  6  0  0  0
  2  7  1  0  0  0  0
  3 32  1  6  0  0  0
  3  1  1  0  0  0  0
  5  6  1  0  0  0  0
  5  3  1  0  0  0  0
  6  2  1  0  0  0  0
  7  1  1  0  0  0  0
  7  4  1  1  0  0  0
  9  2  1  0  0  0  0
 10  9  1  6  0  0  0
 10 21  1  0  0  0  0
 11 12  1  1  0  0  0
 11 13  1  0  0  0  0
 11 10  1  0  0  0  0
 13 14  1  6  0  0  0
 13 16  1  0  0  0  0
 15 14  2  0  0  0  0
 16 17  1  0  0  0  0
 17 18  1  0  0  0  0
 18 19  2  0  0  0  0
 18 20  1  0  0  0  0
 21 23  1  0  0  0  0
 22 25  1  0  0  0  0
 22 23  1  0  0  0  0
 23 24  2  0  0  0  0
 27 28  1  1  0  0  0
 27 31  1  0  0  0  0
 29 25  1  1  0  0  0
 29 30  1  0  0  0  0
 29 27  1  0  0  0  0
 30 26  1  6  0  0  0
 30 27  1  0  0  0  0
 30 31  1  0  0  0  0
 32 33  1  0  0  0  0
 33 42  1  1  0  0  0
 33 34  1  0  0  0  0
 34 41  1  0  0  0  0
 36 35  1  0  0  0  0
 37 35  1  0  0  0  0
 38 39  1  0  0  0  0
 40 39  1  0  0  0  0
 40 36  1  0  0  0  0
 41 38  1  0  0  0  0
 41 37  1  0  0  0  0
 43 46  1  1  0  0  0
 43 44  1  0  0  0  0
 43 42  1  0  0  0  0
 44 45  1  0  0  0  0
 47 46  1  0  0  0  0
 48 47  1  0  0  0  0
 49 50  2  0  0  0  0
 49 48  1  0  0  0  0
 51 49  1  0  0  0  0
 52 59  1  0  0  0  0
 54 58  1  6  0  0  0
 54 56  1  0  0  0  0
 55 52  1  0  0  0  0
 56 53  2  0  0  0  0
 56 59  1  0  0  0  0
 57 54  1  0  0  0  0
 57 55  1  0  0  0  0
 59 51  1  6  0  0  0
M  END
>  <MODEL>
2

>  <REMARK>
 VINA RESULT:      -5.6      3.031      8.781
  Name = 
  25 active torsions:
  status: ('A' for Active; 'I' for Inactive)
    1  A    between atoms: C_3  and  C_25
    2  A    between atoms: C_5  and  C_42
    3  A    between atoms: C_6  and  C_19
    4  A    between atoms: C_6  and  C_31
    5  A    between atoms: C_9  and  C_19
    6  A    between atoms: C_9  and  C_54
    7  A    between atoms: C_11  and  C_27
    8  A    between atoms: C_13  and  C_25
    9  A    between atoms: C_13  and  C_28
   10  A    between atoms: C_15  and  C_28
   11  A    between atoms: C_15  and  C_59
   12  A    between atoms: C_17  and  C_37
   13  A    between atoms: C_27  and  C_38
   14  A    between atoms: C_28  and  C_41
   15  A    between atoms: C_30  and  C_37
   16  A    between atoms: C_30  and  C_38
   17  A    between atoms: C_31  and  C_37
   18  A    between atoms: C_38  and  C_48
   19  A    between atoms: C_39  and  C_48
   20  A    between atoms: C_42  and  C_59
   21  A    between atoms: N_44  and  C_57
   22  A    between atoms: C_45  and  C_57
   23  A    between atoms: C_46  and  S_55
   24  A    between atoms: C_52  and  C_54
   25  A    between atoms: S_55  and  C_59
                            x       y       z     vdW  Elec       q    Type
                         _______ _______ _______ _____ _____    ______ ____

>  <TORSDO>
F 25

$$$$
=
 OpenBabel11072409443D

 59 64  0  0  1  0  0  0  0  0999 V2000
  194.7140  170.5280  142.0880 C   0  0  2  0  0  3  0  0  0  0  0  0
  193.1160  169.9270  140.1120 C   0  0  1  0  0  0  0  0  0  0  0  0
  193.5080  171.2860  142.6540 C   0  0  1  0  0  3  0  0  0  0  0  0
  195.1940  171.2500  140.8370 C   0  0  0  0  0  2  0  0  0  0  0  0
  192.1980  170.9700  141.9540 C   0  0  0  0  0  2  0  0  0  0  0  0
  192.3570  171.0420  140.5620 O   0  0  0  0  0  0  0  0  0  0  0  0
  194.5450  169.8820  140.7030 C   0  0  1  0  0  3  0  0  0  0  0  0
  192.4130  168.6070  140.4420 C   0  0  0  0  0  1  0  0  0  0  0  0
  193.2260  169.9540  138.5830 C   0  0  0  0  0  2  0  0  0  0  0  0
  192.2680  170.9370  137.9050 C   0  0  1  0  0  3  0  0  0  0  0  0
  192.9990  172.0080  137.0770 C   0  0  2  0  0  3  0  0  0  0  0  0
  194.2390  171.5430  136.6200 O   0  0  0  0  0  1  0  0  0  0  0  0
  193.2140  173.3130  137.8660 C   0  0  2  0  0  3  0  0  0  0  0  0
  192.6870  174.5350  137.1740 C   0  0  0  0  0  3  0  0  0  0  0  0
  191.5120  174.5360  136.6660 N   0  0  0  0  0  2  0  0  0  0  0  0
  194.6810  173.5140  138.2670 C   0  0  0  0  0  2  0  0  0  0  0  0
  195.2060  174.9270  138.0100 C   0  0  0  0  0  2  0  0  0  0  0  0
  196.2830  174.9370  136.9800 C   0  0  0  0  0  0  0  0  0  0  0  0
  196.9110  176.0000  136.7290 O   0  0  0  0  0  1  0  0  0  0  0  0
  196.5950  173.7700  136.2950 O   0  0  0  0  0  0  0  0  0  0  0  0
  191.1680  169.9850  136.8040 S   0  0  0  0  0  0  0  0  0  0  0  0
  189.4230  171.6060  138.2530 N   0  0  0  0  0  2  0  0  0  0  0  0
  189.8090  171.1380  136.9580 C   0  0  0  0  0  0  0  0  0  0  0  0
  189.2010  171.5290  135.9280 O   0  0  0  0  0  0  0  0  0  0  0  0
  188.4050  172.6260  138.4480 C   0  0  0  0  0  2  0  0  0  0  0  0
  188.3430  175.2780  141.1560 C   0  0  0  0  0  1  0  0  0  0  0  0
  189.7330  173.2690  140.4380 C   0  0  2  0  0  0  0  0  0  0  0  0
  190.7050  174.1680  140.8510 F   0  0  0  0  0  0  0  0  0  0  0  0
  188.9750  173.7900  139.2360 C   0  0  2  0  0  3  0  0  0  0  0  0
  188.3090  173.8620  140.5920 C   0  0  2  0  0  0  0  0  0  0  0  0
  188.8420  172.8560  141.5890 C   0  0  0  0  0  2  0  0  0  0  0  0
  193.3840  171.1550  144.1810 C   0  0  0  0  0  2  0  0  0  0  0  0
  193.2990  172.4640  144.9960 C   0  0  1  0  0  3  0  0  0  0  0  0
  194.6540  173.0390  145.3940 C   0  0  0  0  0  2  0  0  0  0  0  0
  197.2840  174.2100  142.7870 C   0  0  0  0  0  2  0  0  0  0  0  0
  196.4470  174.9810  141.7590 C   0  0  0  0  0  2  0  0  0  0  0  0
  196.4620  173.2780  143.6790 C   0  0  0  0  0  2  0  0  0  0  0  0
  195.4740  175.3370  144.8590 C   0  0  0  0  0  2  0  0  0  0  0  0
  195.7770  176.4010  143.7880 C   0  0  0  0  0  2  0  0  0  0  0  0
  195.4230  175.9550  142.3660 C   0  0  0  0  0  2  0  0  0  0  0  0
  195.2210  173.9290  144.3000 C   0  0  0  0  0  3  0  0  0  0  0  0
  192.4560  173.5300  144.3120 C   0  0  0  0  0  2  0  0  0  0  0  0
  191.6190  174.3040  145.3230 C   0  0  2  0  0  3  0  0  0  0  0  0
  190.1730  173.8010  145.3300 C   0  0  0  0  0  2  0  0  0  0  0  0
  189.3960  174.2610  146.5560 C   0  0  0  0  0  1  0  0  0  0  0  0
  191.7010  175.8040  145.0460 C   0  0  0  0  0  2  0  0  0  0  0  0
  191.9720  176.0750  143.5780 C   0  0  0  0  0  2  0  0  0  0  0  0
  190.7400  176.7030  142.9570 C   0  0  0  0  0  2  0  0  0  0  0  0
  189.9270  177.3960  143.9980 C   0  0  0  0  0  0  0  0  0  0  0  0
  190.3970  178.3310  144.6270 O   0  0  0  0  0  0  0  0  0  0  0  0
  188.5280  176.9260  144.2650 C   0  0  0  0  0  2  0  0  0  0  0  0
  186.7560  177.8280  145.8280 C   0  0  0  0  0  2  0  0  0  0  0  0
  187.1820  178.5520  142.2460 O   0  0  0  0  0  0  0  0  0  0  0  0
  185.1650  178.5160  143.4650 C   0  0  2  0  0  3  0  0  0  0  0  0
  185.5740  178.6760  145.8820 N   0  0  0  0  0  2  0  0  0  0  0  0
  186.6600  178.3630  143.3350 C   0  0  0  0  0  0  0  0  0  0  0  0
  184.6570  178.1750  144.8660 C   0  0  0  0  0  2  0  0  0  0  0  0
  184.5180  177.7080  142.5330 O   0  0  0  0  0  1  0  0  0  0  0  0
  187.5410  178.0660  144.5310 C   0  0  2  0  0  3  0  0  0  0  0  0
  1  4  1  6  0  0  0
  1  3  1  0  0  0  0
  2  8  1  1  0  0  0
  2  6  1  0  0  0  0
  2  7  1  0  0  0  0
  3 32  1  1  0  0  0
  5  3  1  0  0  0  0
  6  5  1  0  0  0  0
  7  4  1  6  0  0  0
  7  1  1  0  0  0  0
  9  2  1  0  0  0  0
 10  9  1  6  0  0  0
 11 12  1  1  0  0  0
 11 13  1  0  0  0  0
 11 10  1  0  0  0  0
 13 14  1  6  0  0  0
 13 16  1  0  0  0  0
 15 14  2  0  0  0  0
 17 16  1  0  0  0  0
 18 17  1  0  0  0  0
 19 18  1  0  0  0  0
 20 18  2  0  0  0  0
 21 23  1  0  0  0  0
 21 10  1  0  0  0  0
 22 25  1  0  0  0  0
 23 22  1  0  0  0  0
 24 23  2  0  0  0  0
 27 30  1  0  0  0  0
 27 28  1  1  0  0  0
 27 31  1  0  0  0  0
 29 25  1  6  0  0  0
 29 27  1  0  0  0  0
 29 30  1  0  0  0  0
 30 26  1  1  0  0  0
 30 31  1  0  0  0  0
 33 32  1  6  0  0  0
 33 34  1  0  0  0  0
 35 37  1  0  0  0  0
 36 40  1  0  0  0  0
 36 35  1  0  0  0  0
 37 41  1  0  0  0  0
 39 38  1  0  0  0  0
 40 39  1  0  0  0  0
 41 38  1  0  0  0  0
 41 34  1  0  0  0  0
 42 33  1  0  0  0  0
 43 42  1  6  0  0  0
 43 44  1  0  0  0  0
 44 45  1  0  0  0  0
 46 43  1  0  0  0  0
 47 46  1  0  0  0  0
 48 47  1  0  0  0  0
 48 49  1  0  0  0  0
 49 51  1  0  0  0  0
 49 50  2  0  0  0  0
 52 55  1  0  0  0  0
 53 56  2  0  0  0  0
 54 58  1  6  0  0  0
 54 57  1  0  0  0  0
 56 54  1  0  0  0  0
 56 59  1  0  0  0  0
 57 55  1  0  0  0  0
 59 51  1  6  0  0  0
 59 52  1  0  0  0  0
M  END
>  <MODEL>
3

>  <REMARK>
 VINA RESULT:      -5.6      2.870      7.260
  Name = 
  25 active torsions:
  status: ('A' for Active; 'I' for Inactive)
    1  A    between atoms: C_3  and  C_25
    2  A    between atoms: C_5  and  C_42
    3  A    between atoms: C_6  and  C_19
    4  A    between atoms: C_6  and  C_31
    5  A    between atoms: C_9  and  C_19
    6  A    between atoms: C_9  and  C_54
    7  A    between atoms: C_11  and  C_27
    8  A    between atoms: C_13  and  C_25
    9  A    between atoms: C_13  and  C_28
   10  A    between atoms: C_15  and  C_28
   11  A    between atoms: C_15  and  C_59
   12  A    between atoms: C_17  and  C_37
   13  A    between atoms: C_27  and  C_38
   14  A    between atoms: C_28  and  C_41
   15  A    between atoms: C_30  and  C_37
   16  A    between atoms: C_30  and  C_38
   17  A    between atoms: C_31  and  C_37
   18  A    between atoms: C_38  and  C_48
   19  A    between atoms: C_39  and  C_48
   20  A    between atoms: C_42  and  C_59
   21  A    between atoms: N_44  and  C_57
   22  A    between atoms: C_45  and  C_57
   23  A    between atoms: C_46  and  S_55
   24  A    between atoms: C_52  and  C_54
   25  A    between atoms: S_55  and  C_59
                            x       y       z     vdW  Elec       q    Type
                         _______ _______ _______ _____ _____    ______ ____

>  <TORSDO>
F 25

$$$$
=
 OpenBabel11072409443D

 59 64  0  0  1  0  0  0  0  0999 V2000
  190.8630  174.3580  142.2690 C   0  0  2  0  0  3  0  0  0  0  0  0
  190.3920  172.0880  141.0650 C   0  0  1  0  0  0  0  0  0  0  0  0
  189.3560  174.5970  142.1120 C   0  0  1  0  0  3  0  0  0  0  0  0
  191.5030  174.3970  140.8890 C   0  0  0  0  0  2  0  0  0  0  0  0
  188.5750  173.3610  141.7010 C   0  0  0  0  0  2  0  0  0  0  0  0
  189.2010  172.7250  140.6190 O   0  0  0  0  0  0  0  0  0  0  0  0
  191.4350  173.0770  141.6400 C   0  0  1  0  0  3  0  0  0  0  0  0
  190.0900  171.0290  142.1290 C   0  0  0  0  0  1  0  0  0  0  0  0
  191.0400  171.3220  139.9060 C   0  0  0  0  0  2  0  0  0  0  0  0
  190.0450  170.5580  139.0280 C   0  0  1  0  0  3  0  0  0  0  0  0
  189.8250  171.2210  137.6580 C   0  0  2  0  0  3  0  0  0  0  0  0
  189.9980  170.3040  136.6120 O   0  0  0  0  0  1  0  0  0  0  0  0
  190.7610  172.4220  137.4310 C   0  0  2  0  0  3  0  0  0  0  0  0
  190.0720  173.7530  137.5050 C   0  0  0  0  0  3  0  0  0  0  0  0
  188.7940  173.8200  137.5190 N   0  0  0  0  0  2  0  0  0  0  0  0
  191.5540  172.3010  136.1220 C   0  0  0  0  0  2  0  0  0  0  0  0
  193.0000  172.7850  136.2260 C   0  0  0  0  0  2  0  0  0  0  0  0
  193.9510  171.8220  135.6010 C   0  0  0  0  0  0  0  0  0  0  0  0
  193.5360  170.7170  135.1620 O   0  0  0  0  0  0  0  0  0  0  0  0
  195.2970  172.1460  135.5020 O   0  0  0  0  0  1  0  0  0  0  0  0
  190.6940  168.8720  138.7740 S   0  0  0  0  0  0  0  0  0  0  0  0
  193.2690  169.9180  138.5540 N   0  0  0  0  0  2  0  0  0  0  0  0
  192.3210  169.2690  139.4050 C   0  0  0  0  0  0  0  0  0  0  0  0
  192.6200  168.9740  140.5900 O   0  0  0  0  0  0  0  0  0  0  0  0
  194.5670  170.3710  139.0270 C   0  0  0  0  0  2  0  0  0  0  0  0
  195.2010  173.4050  141.2090 C   0  0  0  0  0  1  0  0  0  0  0  0
  195.7830  172.5250  138.8920 C   0  0  2  0  0  0  0  0  0  0  0  0
  195.5770  173.8750  138.6520 F   0  0  0  0  0  0  0  0  0  0  0  0
  194.5140  171.8490  139.3640 C   0  0  2  0  0  3  0  0  0  0  0  0
  195.5770  172.1780  140.3890 C   0  0  2  0  0  0  0  0  0  0  0  0
  196.9680  172.3050  139.8060 C   0  0  0  0  0  2  0  0  0  0  0  0
  188.7310  175.2840  143.3370 C   0  0  0  0  0  2  0  0  0  0  0  0
  188.8360  176.8240  143.4120 C   0  0  1  0  0  3  0  0  0  0  0  0
  187.4960  177.5440  143.3120 C   0  0  0  0  0  2  0  0  0  0  0  0
  185.1750  176.6580  146.2980 C   0  0  0  0  0  2  0  0  0  0  0  0
  185.8550  177.3390  147.4920 C   0  0  0  0  0  2  0  0  0  0  0  0
  186.0920  176.4730  145.0860 C   0  0  0  0  0  2  0  0  0  0  0  0
  186.0140  179.0110  144.6880 C   0  0  0  0  0  2  0  0  0  0  0  0
  185.5570  179.4640  146.0860 C   0  0  0  0  0  2  0  0  0  0  0  0
  186.3160  178.7820  147.2290 C   0  0  0  0  0  2  0  0  0  0  0  0
  186.8660  177.7330  144.6830 C   0  0  0  0  0  3  0  0  0  0  0  0
  189.6020  177.3030  144.6360 C   0  0  0  0  0  2  0  0  0  0  0  0
  190.0320  176.1300  145.5110 C   0  0  2  0  0  3  0  0  0  0  0  0
  189.5220  176.3070  146.9430 C   0  0  0  0  0  2  0  0  0  0  0  0
  189.6080  177.7500  147.4240 C   0  0  0  0  0  1  0  0  0  0  0  0
  191.5480  175.9550  145.4600 C   0  0  0  0  0  2  0  0  0  0  0  0
  192.2070  177.1090  144.7270 C   0  0  0  0  0  2  0  0  0  0  0  0
  193.3170  176.5660  143.8500 C   0  0  0  0  0  2  0  0  0  0  0  0
  194.5790  176.4270  144.6320 C   0  0  0  0  0  0  0  0  0  0  0  0
  194.8420  177.2180  145.5250 O   0  0  0  0  0  0  0  0  0  0  0  0
  195.5240  175.3090  144.3040 C   0  0  0  0  0  2  0  0  0  0  0  0
  196.9380  173.7860  145.7450 C   0  0  0  0  0  2  0  0  0  0  0  0
  193.5120  173.2040  144.5360 O   0  0  0  0  0  0  0  0  0  0  0  0
  195.1640  171.5820  144.9810 C   0  0  2  0  0  3  0  0  0  0  0  0
  196.9510  172.4870  146.4020 N   0  0  0  0  0  2  0  0  0  0  0  0
  194.6620  173.0020  144.9000 C   0  0  0  0  0  0  0  0  0  0  0  0
  196.6390  171.5000  145.3770 C   0  0  0  0  0  2  0  0  0  0  0  0
  194.9810  170.9390  143.7590 O   0  0  0  0  0  1  0  0  0  0  0  0
  195.5120  174.1780  145.3360 C   0  0  2  0  0  3  0  0  0  0  0  0
  1  4  1  6  0  0  0
  2  7  1  0  0  0  0
  2  8  1  1  0  0  0
  3  1  1  0  0  0  0
  3 32  1  1  0  0  0
  5  3  1  0  0  0  0
  6  2  1  0  0  0  0
  6  5  1  0  0  0  0
  7  4  1  6  0  0  0
  7  1  1  0  0  0  0
  9  2  1  0  0  0  0
 10  9  1  1  0  0  0
 11 12  1  6  0  0  0
 11 10  1  0  0  0  0
 13 16  1  6  0  0  0
 13 14  1  0  0  0  0
 13 11  1  0  0  0  0
 14 15  2  0  0  0  0
 16 17  1  0  0  0  0
 18 17  1  0  0  0  0
 19 18  2  0  0  0  0
 20 18  1  0  0  0  0
 21 10  1  0  0  0  0
 21 23  1  0  0  0  0
 22 25  1  0  0  0  0
 22 23  1  0  0  0  0
 23 24  2  0  0  0  0
 27 28  1  6  0  0  0
 27 29  1  0  0  0  0
 27 31  1  0  0  0  0
 27 30  1  0  0  0  0
 29 25  1  6  0  0  0
 29 30  1  0  0  0  0
 30 26  1  1  0  0  0
 31 30  1  0  0  0  0
 32 33  1  0  0  0  0
 33 34  1  1  0  0  0
 33 42  1  0  0  0  0
 34 41  1  0  0  0  0
 35 36  1  0  0  0  0
 37 35  1  0  0  0  0
 38 39  1  0  0  0  0
 39 40  1  0  0  0  0
 40 36  1  0  0  0  0
 41 38  1  0  0  0  0
 41 37  1  0  0  0  0
 43 42  1  6  0  0  0
 43 44  1  0  0  0  0
 44 45  1  0  0  0  0
 46 43  1  0  0  0  0
 47 46  1  0  0  0  0
 48 49  1  0  0  0  0
 48 47  1  0  0  0  0
 49 50  2  0  0  0  0
 51 49  1  0  0  0  0
 52 55  1  0  0  0  0
 53 56  2  0  0  0  0
 54 58  1  6  0  0  0
 54 57  1  0  0  0  0
 56 54  1  0  0  0  0
 56 59  1  0  0  0  0
 57 55  1  0  0  0  0
 59 51  1  6  0  0  0
 59 52  1  0  0  0  0
M  END
>  <MODEL>
4

>  <REMARK>
 VINA RESULT:      -5.6      1.692      2.215
  Name = 
  25 active torsions:
  status: ('A' for Active; 'I' for Inactive)
    1  A    between atoms: C_3  and  C_25
    2  A    between atoms: C_5  and  C_42
    3  A    between atoms: C_6  and  C_19
    4  A    between atoms: C_6  and  C_31
    5  A    between atoms: C_9  and  C_19
    6  A    between atoms: C_9  and  C_54
    7  A    between atoms: C_11  and  C_27
    8  A    between atoms: C_13  and  C_25
    9  A    between atoms: C_13  and  C_28
   10  A    between atoms: C_15  and  C_28
   11  A    between atoms: C_15  and  C_59
   12  A    between atoms: C_17  and  C_37
   13  A    between atoms: C_27  and  C_38
   14  A    between atoms: C_28  and  C_41
   15  A    between atoms: C_30  and  C_37
   16  A    between atoms: C_30  and  C_38
   17  A    between atoms: C_31  and  C_37
   18  A    between atoms: C_38  and  C_48
   19  A    between atoms: C_39  and  C_48
   20  A    between atoms: C_42  and  C_59
   21  A    between atoms: N_44  and  C_57
   22  A    between atoms: C_45  and  C_57
   23  A    between atoms: C_46  and  S_55
   24  A    between atoms: C_52  and  C_54
   25  A    between atoms: S_55  and  C_59
                            x       y       z     vdW  Elec       q    Type
                         _______ _______ _______ _____ _____    ______ ____

>  <TORSDO>
F 25

$$$$
=
 OpenBabel11072409443D

 59 64  0  0  1  0  0  0  0  0999 V2000
  189.3860  174.6740  144.7130 C   0  0  2  0  0  3  0  0  0  0  0  0
  191.9390  174.1810  144.4590 C   0  0  1  0  0  0  0  0  0  0  0  0
  189.8390  176.0690  145.1600 C   0  0  1  0  0  3  0  0  0  0  0  0
  189.7970  173.6690  145.7800 C   0  0  0  0  0  2  0  0  0  0  0  0
  191.3050  176.3580  144.8860 C   0  0  0  0  0  2  0  0  0  0  0  0
  192.1040  175.2940  145.3280 O   0  0  0  0  0  0  0  0  0  0  0  0
  190.4890  173.6410  144.4270 C   0  0  1  0  0  3  0  0  0  0  0  0
  192.3580  174.5280  143.0270 C   0  0  0  0  0  1  0  0  0  0  0  0
  192.8700  173.0410  144.8870 C   0  0  0  0  0  2  0  0  0  0  0  0
  193.9860  172.7360  143.8840 C   0  0  1  0  0  3  0  0  0  0  0  0
  195.2280  172.1120  144.5440 C   0  0  2  0  0  3  0  0  0  0  0  0
  195.0520  171.9630  145.9260 O   0  0  0  0  0  1  0  0  0  0  0  0
  196.5040  172.9360  144.2870 C   0  0  2  0  0  3  0  0  0  0  0  0
  197.7680  172.2440  144.7040 C   0  0  0  0  0  3  0  0  0  0  0  0
  197.9410  171.0020  144.4470 N   0  0  0  0  0  2  0  0  0  0  0  0
  196.4270  174.3350  144.9130 C   0  0  0  0  0  2  0  0  0  0  0  0
  196.8190  175.4630  143.9590 C   0  0  0  0  0  2  0  0  0  0  0  0
  195.6360  176.2690  143.5410 C   0  0  0  0  0  0  0  0  0  0  0  0
  194.8860  176.7900  144.4090 O   0  0  0  0  0  1  0  0  0  0  0  0
  195.3620  176.4460  142.1920 O   0  0  0  0  0  0  0  0  0  0  0  0
  193.3270  171.5730  142.6430 S   0  0  0  0  0  0  0  0  0  0  0  0
  194.9990  173.1730  141.0880 N   0  0  0  0  0  2  0  0  0  0  0  0
  194.6710  171.8410  141.4930 C   0  0  0  0  0  0  0  0  0  0  0  0
  195.3190  170.8580  141.0490 O   0  0  0  0  0  0  0  0  0  0  0  0
  196.1460  173.4780  140.2480 C   0  0  0  0  0  2  0  0  0  0  0  0
  196.1280  175.2140  136.8790 C   0  0  0  0  0  1  0  0  0  0  0  0
  194.4890  174.3210  138.6110 C   0  0  2  0  0  0  0  0  0  0  0  0
  193.8720  175.4910  138.1950 F   0  0  0  0  0  0  0  0  0  0  0  0
  195.8090  174.6070  139.2930 C   0  0  2  0  0  3  0  0  0  0  0  0
  195.8320  174.0950  137.8700 C   0  0  2  0  0  0  0  0  0  0  0  0
  194.5910  173.3220  137.4800 C   0  0  0  0  0  2  0  0  0  0  0  0
  188.9290  177.1890  144.6300 C   0  0  0  0  0  2  0  0  0  0  0  0
  187.8560  176.7930  143.5910 C   0  0  1  0  0  3  0  0  0  0  0  0
  186.4830  176.5120  144.1900 C   0  0  0  0  0  2  0  0  0  0  0  0
  186.1240  177.1350  148.0070 C   0  0  0  0  0  2  0  0  0  0  0  0
  186.4710  178.6210  148.1600 C   0  0  0  0  0  2  0  0  0  0  0  0
  186.6030  176.5200  146.6900 C   0  0  0  0  0  2  0  0  0  0  0  0
  184.8080  177.8750  145.4460 C   0  0  0  0  0  2  0  0  0  0  0  0
  184.5330  178.9520  146.5110 C   0  0  0  0  0  2  0  0  0  0  0  0
  185.8050  179.5440  147.1250 C   0  0  0  0  0  2  0  0  0  0  0  0
  186.2470  177.3380  145.4440 C   0  0  0  0  0  3  0  0  0  0  0  0
  187.7400  177.7970  142.4540 C   0  0  0  0  0  2  0  0  0  0  0  0
  187.8000  177.1040  141.0980 C   0  0  2  0  0  3  0  0  0  0  0  0
  186.6560  177.5750  140.1960 C   0  0  0  0  0  2  0  0  0  0  0  0
  185.5120  178.2070  140.9800 C   0  0  0  0  0  1  0  0  0  0  0  0
  187.8020  175.5870  141.2740 C   0  0  0  0  0  2  0  0  0  0  0  0
  189.1970  175.0170  141.0930 C   0  0  0  0  0  2  0  0  0  0  0  0
  189.0970  173.5150  140.9190 C   0  0  0  0  0  2  0  0  0  0  0  0
  188.8230  173.1710  139.4950 C   0  0  0  0  0  0  0  0  0  0  0  0
  187.8850  172.4460  139.2030 O   0  0  0  0  0  0  0  0  0  0  0  0
  189.7180  173.7230  138.4240 C   0  0  0  0  0  2  0  0  0  0  0  0
  189.5220  172.0040  136.5800 C   0  0  0  0  0  2  0  0  0  0  0  0
  191.8990  172.0370  139.3880 O   0  0  0  0  0  0  0  0  0  0  0  0
  191.0150  170.1490  138.2890 C   0  0  2  0  0  3  0  0  0  0  0  0
  190.0720  170.7430  136.1000 N   0  0  0  0  0  2  0  0  0  0  0  0
  191.1490  171.6350  138.5100 C   0  0  0  0  0  0  0  0  0  0  0  0
  189.9870  169.8040  137.2110 C   0  0  0  0  0  2  0  0  0  0  0  0
  190.6600  169.5170  139.4790 O   0  0  0  0  0  1  0  0  0  0  0  0
  190.4490  172.6430  137.6230 C   0  0  2  0  0  3  0  0  0  0  0  0
  1  3  1  0  0  0  0
  1  4  1  1  0  0  0
  2  8  1  6  0  0  0
  2  9  1  0  0  0  0
  2  6  1  0  0  0  0
  3 32  1  6  0  0  0
  5  3  1  0  0  0  0
  5  6  1  0  0  0  0
  7  2  1  0  0  0  0
  7  1  1  0  0  0  0
  7  4  1  1  0  0  0
 10 11  1  0  0  0  0
 10  9  1  1  0  0  0
 11 12  1  1  0  0  0
 13 11  1  0  0  0  0
 13 14  1  1  0  0  0
 13 16  1  0  0  0  0
 15 14  2  0  0  0  0
 17 16  1  0  0  0  0
 18 17  1  0  0  0  0
 18 19  1  0  0  0  0
 20 18  2  0  0  0  0
 21 10  1  0  0  0  0
 22 23  1  0  0  0  0
 23 21  1  0  0  0  0
 24 23  2  0  0  0  0
 25 22  1  0  0  0  0
 27 28  1  6  0  0  0
 27 29  1  0  0  0  0
 29 25  1  1  0  0  0
 30 26  1  6  0  0  0
 30 27  1  0  0  0  0
 30 29  1  0  0  0  0
 31 30  1  0  0  0  0
 31 27  1  0  0  0  0
 33 42  1  6  0  0  0
 33 34  1  0  0  0  0
 33 32  1  0  0  0  0
 34 41  1  0  0  0  0
 35 36  1  0  0  0  0
 37 35  1  0  0  0  0
 38 39  1  0  0  0  0
 39 40  1  0  0  0  0
 40 36  1  0  0  0  0
 41 38  1  0  0  0  0
 41 37  1  0  0  0  0
 43 44  1  6  0  0  0
 43 46  1  0  0  0  0
 43 42  1  0  0  0  0
 44 45  1  0  0  0  0
 47 46  1  0  0  0  0
 48 47  1  0  0  0  0
 49 48  1  0  0  0  0
 50 49  2  0  0  0  0
 51 49  1  0  0  0  0
 52 59  1  0  0  0  0
 54 56  1  0  0  0  0
 54 58  1  1  0  0  0
 55 52  1  0  0  0  0
 55 57  1  0  0  0  0
 56 53  2  0  0  0  0
 57 54  1  0  0  0  0
 59 51  1  1  0  0  0
 59 56  1  0  0  0  0
M  END
>  <MODEL>
5

>  <REMARK>
 VINA RESULT:      -5.6      2.285      6.757
  Name = 
  25 active torsions:
  status: ('A' for Active; 'I' for Inactive)
    1  A    between atoms: C_3  and  C_25
    2  A    between atoms: C_5  and  C_42
    3  A    between atoms: C_6  and  C_19
    4  A    between atoms: C_6  and  C_31
    5  A    between atoms: C_9  and  C_19
    6  A    between atoms: C_9  and  C_54
    7  A    between atoms: C_11  and  C_27
    8  A    between atoms: C_13  and  C_25
    9  A    between atoms: C_13  and  C_28
   10  A    between atoms: C_15  and  C_28
   11  A    between atoms: C_15  and  C_59
   12  A    between atoms: C_17  and  C_37
   13  A    between atoms: C_27  and  C_38
   14  A    between atoms: C_28  and  C_41
   15  A    between atoms: C_30  and  C_37
   16  A    between atoms: C_30  and  C_38
   17  A    between atoms: C_31  and  C_37
   18  A    between atoms: C_38  and  C_48
   19  A    between atoms: C_39  and  C_48
   20  A    between atoms: C_42  and  C_59
   21  A    between atoms: N_44  and  C_57
   22  A    between atoms: C_45  and  C_57
   23  A    between atoms: C_46  and  S_55
   24  A    between atoms: C_52  and  C_54
   25  A    between atoms: S_55  and  C_59
                            x       y       z     vdW  Elec       q    Type
                         _______ _______ _______ _____ _____    ______ ____

>  <TORSDO>
F 25

$$$$
=
 OpenBabel11072409443D

 59 64  0  0  1  0  0  0  0  0999 V2000
  192.4940  172.1820  143.1810 C   0  0  2  0  0  3  0  0  0  0  0  0
  190.1490  173.1880  143.7380 C   0  0  1  0  0  0  0  0  0  0  0  0
  191.7010  170.9920  142.6290 C   0  0  1  0  0  3  0  0  0  0  0  0
  192.3250  172.2140  144.6930 C   0  0  0  0  0  2  0  0  0  0  0  0
  190.2150  171.2620  142.4690 C   0  0  0  0  0  2  0  0  0  0  0  0
  189.6960  171.8440  143.6340 O   0  0  0  0  0  0  0  0  0  0  0  0
  191.6880  173.3070  143.8500 C   0  0  1  0  0  3  0  0  0  0  0  0
  189.6850  174.0240  142.5410 C   0  0  0  0  0  1  0  0  0  0  0  0
  189.5210  173.8580  144.9660 C   0  0  0  0  0  2  0  0  0  0  0  0
  190.1180  175.2260  145.3040 C   0  0  1  0  0  3  0  0  0  0  0  0
  189.0540  176.3330  145.4080 C   0  0  2  0  0  3  0  0  0  0  0  0
  188.1530  176.0800  146.4510 O   0  0  0  0  0  1  0  0  0  0  0  0
  188.2660  176.5130  144.0970 C   0  0  2  0  0  3  0  0  0  0  0  0
  188.8750  177.5060  143.1530 C   0  0  0  0  0  3  0  0  0  0  0  0
  189.9630  178.1070  143.4590 N   0  0  0  0  0  2  0  0  0  0  0  0
  186.7900  176.8470  144.3500 C   0  0  0  0  0  2  0  0  0  0  0  0
  186.5110  178.3430  144.5040 C   0  0  0  0  0  2  0  0  0  0  0  0
  185.0900  178.6040  144.8730 C   0  0  0  0  0  0  0  0  0  0  0  0
  184.4520  179.5360  144.3170 O   0  0  0  0  0  0  0  0  0  0  0  0
  184.4700  177.8150  145.8320 O   0  0  0  0  0  1  0  0  0  0  0  0
  190.9840  175.0850  146.9040 S   0  0  0  0  0  0  0  0  0  0  0  0
  192.6960  176.0950  144.9490 N   0  0  0  0  0  2  0  0  0  0  0  0
  192.4220  175.9940  146.3490 C   0  0  0  0  0  0  0  0  0  0  0  0
  193.1820  176.5360  147.1920 O   0  0  0  0  0  0  0  0  0  0  0  0
  193.7780  176.9090  144.4190 C   0  0  0  0  0  2  0  0  0  0  0  0
  197.1320  175.6550  143.1740 C   0  0  0  0  0  1  0  0  0  0  0  0
  194.9970  174.7600  144.2350 C   0  0  2  0  0  0  0  0  0  0  0  0
  195.3130  173.7650  143.3220 F   0  0  0  0  0  0  0  0  0  0  0  0
  194.6830  176.0670  143.5390 C   0  0  2  0  0  3  0  0  0  0  0  0
  196.0350  175.9110  144.2000 C   0  0  2  0  0  0  0  0  0  0  0  0
  196.0580  174.8780  145.3060 C   0  0  0  0  0  2  0  0  0  0  0  0
  192.3160  170.4110  141.3450 C   0  0  0  0  0  2  0  0  0  0  0  0
  193.8500  170.5120  141.1890 C   0  0  1  0  0  3  0  0  0  0  0  0
  194.6190  169.3820  141.8620 C   0  0  0  0  0  2  0  0  0  0  0  0
  196.8860  171.0170  144.5600 C   0  0  0  0  0  2  0  0  0  0  0  0
  195.9270  171.2580  145.7320 C   0  0  0  0  0  2  0  0  0  0  0  0
  196.1810  170.7900  143.2210 C   0  0  0  0  0  2  0  0  0  0  0  0
  195.3890  168.4960  144.0680 C   0  0  0  0  0  2  0  0  0  0  0  0
  195.5570  168.7230  145.5810 C   0  0  0  0  0  2  0  0  0  0  0  0
  195.0080  170.0700  146.0620 C   0  0  0  0  0  2  0  0  0  0  0  0
  195.0440  169.7630  143.2720 C   0  0  0  0  0  3  0  0  0  0  0  0
  194.2850  170.6550  139.7380 C   0  0  0  0  0  2  0  0  0  0  0  0
  194.9450  172.0070  139.4910 C   0  0  2  0  0  3  0  0  0  0  0  0
  196.4600  171.9160  139.6940 C   0  0  0  0  0  2  0  0  0  0  0  0
  197.0400  173.1620  140.3510 C   0  0  0  0  0  1  0  0  0  0  0  0
  194.3120  173.0790  140.3760 C   0  0  0  0  0  2  0  0  0  0  0  0
  193.4660  174.0350  139.5560 C   0  0  0  0  0  2  0  0  0  0  0  0
  192.0040  173.6770  139.7350 C   0  0  0  0  0  2  0  0  0  0  0  0
  191.4000  173.2810  138.4310 C   0  0  0  0  0  0  0  0  0  0  0  0
  190.7550  174.0870  137.7790 O   0  0  0  0  0  0  0  0  0  0  0  0
  191.5900  171.8790  137.9330 C   0  0  0  0  0  2  0  0  0  0  0  0
  190.3820  171.0150  135.8860 C   0  0  0  0  0  2  0  0  0  0  0  0
  193.9700  171.7460  136.2450 O   0  0  0  0  0  0  0  0  0  0  0  0
  192.9760  170.1210  134.8560 C   0  0  2  0  0  3  0  0  0  0  0  0
  190.5860  170.5730  134.5130 N   0  0  0  0  0  2  0  0  0  0  0  0
  192.9240  171.2270  135.8800 C   0  0  0  0  0  0  0  0  0  0  0  0
  191.5980  169.5270  134.5600 C   0  0  0  0  0  2  0  0  0  0  0  0
  193.8290  169.1080  135.2880 O   0  0  0  0  0  1  0  0  0  0  0  0
  191.6120  171.7710  136.4060 C   0  0  2  0  0  3  0  0  0  0  0  0
  1  7  1  0  0  0  0
  1  4  1  1  0  0  0
  2  8  1  6  0  0  0
  2  7  1  0  0  0  0
  2  9  1  0  0  0  0
  3 32  1  6  0  0  0
  3  1  1  0  0  0  0
  5  3  1  0  0  0  0
  5  6  1  0  0  0  0
  6  2  1  0  0  0  0
  7  4  1  1  0  0  0
 10  9  1  1  0  0  0
 10 11  1  0  0  0  0
 10 21  1  0  0  0  0
 11 12  1  1  0  0  0
 13 14  1  1  0  0  0
 13 16  1  0  0  0  0
 13 11  1  0  0  0  0
 14 15  2  0  0  0  0
 16 17  1  0  0  0  0
 17 18  1  0  0  0  0
 18 20  1  0  0  0  0
 19 18  2  0  0  0  0
 22 23  1  0  0  0  0
 23 21  1  0  0  0  0
 23 24  2  0  0  0  0
 25 22  1  0  0  0  0
 27 28  1  6  0  0  0
 27 31  1  0  0  0  0
 29 30  1  0  0  0  0
 29 27  1  0  0  0  0
 29 25  1  1  0  0  0
 30 26  1  6  0  0  0
 30 27  1  0  0  0  0
 30 31  1  0  0  0  0
 33 42  1  6  0  0  0
 33 32  1  0  0  0  0
 33 34  1  0  0  0  0
 34 41  1  0  0  0  0
 35 36  1  0  0  0  0
 36 40  1  0  0  0  0
 37 41  1  0  0  0  0
 37 35  1  0  0  0  0
 38 39  1  0  0  0  0
 39 40  1  0  0  0  0
 41 38  1  0  0  0  0
 43 44  1  1  0  0  0
 43 42  1  0  0  0  0
 43 46  1  0  0  0  0
 44 45  1  0  0  0  0
 47 48  1  0  0  0  0
 47 46  1  0  0  0  0
 49 48  1  0  0  0  0
 50 49  2  0  0  0  0
 51 49  1  0  0  0  0
 52 59  1  0  0  0  0
 54 58  1  1  0  0  0
 54 56  1  0  0  0  0
 55 57  1  0  0  0  0
 55 52  1  0  0  0  0
 56 53  2  0  0  0  0
 56 59  1  0  0  0  0
 57 54  1  0  0  0  0
 59 51  1  1  0  0  0
M  END
>  <MODEL>
6

>  <REMARK>
 VINA RESULT:      -5.4      3.241      8.845
  Name = 
  25 active torsions:
  status: ('A' for Active; 'I' for Inactive)
    1  A    between atoms: C_3  and  C_25
    2  A    between atoms: C_5  and  C_42
    3  A    between atoms: C_6  and  C_19
    4  A    between atoms: C_6  and  C_31
    5  A    between atoms: C_9  and  C_19
    6  A    between atoms: C_9  and  C_54
    7  A    between atoms: C_11  and  C_27
    8  A    between atoms: C_13  and  C_25
    9  A    between atoms: C_13  and  C_28
   10  A    between atoms: C_15  and  C_28
   11  A    between atoms: C_15  and  C_59
   12  A    between atoms: C_17  and  C_37
   13  A    between atoms: C_27  and  C_38
   14  A    between atoms: C_28  and  C_41
   15  A    between atoms: C_30  and  C_37
   16  A    between atoms: C_30  and  C_38
   17  A    between atoms: C_31  and  C_37
   18  A    between atoms: C_38  and  C_48
   19  A    between atoms: C_39  and  C_48
   20  A    between atoms: C_42  and  C_59
   21  A    between atoms: N_44  and  C_57
   22  A    between atoms: C_45  and  C_57
   23  A    between atoms: C_46  and  S_55
   24  A    between atoms: C_52  and  C_54
   25  A    between atoms: S_55  and  C_59
                            x       y       z     vdW  Elec       q    Type
                         _______ _______ _______ _____ _____    ______ ____

>  <TORSDO>
F 25

$$$$
=
 OpenBabel11072409443D

 59 64  0  0  1  0  0  0  0  0999 V2000
  192.3860  171.1710  141.4190 C   0  0  2  0  0  3  0  0  0  0  0  0
  194.8340  171.0600  140.5120 C   0  0  1  0  0  0  0  0  0  0  0  0
  192.9550  170.4540  142.6490 C   0  0  1  0  0  3  0  0  0  0  0  0
  192.4260  170.2090  140.2400 C   0  0  0  0  0  2  0  0  0  0  0  0
  194.4730  170.4320  142.7020 C   0  0  0  0  0  2  0  0  0  0  0  0
  195.0000  170.0220  141.4690 O   0  0  0  0  0  0  0  0  0  0  0  0
  193.3500  171.4150  140.2460 C   0  0  1  0  0  3  0  0  0  0  0  0
  195.5670  172.3350  140.9420 C   0  0  0  0  0  1  0  0  0  0  0  0
  195.4790  170.6540  139.1820 C   0  0  0  0  0  2  0  0  0  0  0  0
  195.3290  171.6960  138.0700 C   0  0  1  0  0  3  0  0  0  0  0  0
  196.6740  172.3050  137.6380 C   0  0  2  0  0  3  0  0  0  0  0  0
  197.7380  171.7740  138.3790 O   0  0  0  0  0  1  0  0  0  0  0  0
  196.6900  173.8400  137.7670 C   0  0  2  0  0  3  0  0  0  0  0  0
  196.7660  174.5600  136.4540 C   0  0  0  0  0  3  0  0  0  0  0  0
  196.4520  175.7990  136.3760 N   0  0  0  0  0  2  0  0  0  0  0  0
  197.7950  174.3300  138.7120 C   0  0  0  0  0  2  0  0  0  0  0  0
  197.6070  175.7690  139.1920 C   0  0  0  0  0  2  0  0  0  0  0  0
  197.1660  175.8230  140.6150 C   0  0  0  0  0  0  0  0  0  0  0  0
  196.0960  176.4100  140.9260 O   0  0  0  0  0  0  0  0  0  0  0  0
  197.9390  175.2240  141.6010 O   0  0  0  0  0  1  0  0  0  0  0  0
  194.5580  170.8800  136.6320 S   0  0  0  0  0  0  0  0  0  0  0  0
  192.8900  172.9070  137.5700 N   0  0  0  0  0  2  0  0  0  0  0  0
  193.2970  172.1340  136.4380 C   0  0  0  0  0  0  0  0  0  0  0  0
  192.7770  172.3280  135.3090 O   0  0  0  0  0  0  0  0  0  0  0  0
  191.9560  174.0160  137.4670 C   0  0  0  0  0  2  0  0  0  0  0  0
  188.2080  173.9270  138.0320 C   0  0  0  0  0  1  0  0  0  0  0  0
  190.1920  172.3350  137.9130 C   0  0  2  0  0  0  0  0  0  0  0  0
  189.4410  171.7960  138.9470 F   0  0  0  0  0  0  0  0  0  0  0  0
  190.6990  173.7170  138.2620 C   0  0  2  0  0  3  0  0  0  0  0  0
  189.5180  173.6010  137.3240 C   0  0  2  0  0  0  0  0  0  0  0  0
  189.4410  172.2740  136.6010 C   0  0  0  0  0  2  0  0  0  0  0  0
  192.3470  170.9600  143.9670 C   0  0  0  0  0  2  0  0  0  0  0  0
  192.2890  172.4900  144.1750 C   0  0  1  0  0  3  0  0  0  0  0  0
  190.9660  172.9900  144.7430 C   0  0  0  0  0  2  0  0  0  0  0  0
  188.6110  171.9830  141.8230 C   0  0  0  0  0  2  0  0  0  0  0  0
  187.5360  173.0770  141.8390 C   0  0  0  0  0  2  0  0  0  0  0  0
  189.4110  171.8830  143.1230 C   0  0  0  0  0  2  0  0  0  0  0  0
  190.5540  174.1130  142.5500 C   0  0  0  0  0  2  0  0  0  0  0  0
  189.5370  174.6530  141.5280 C   0  0  0  0  0  2  0  0  0  0  0  0
  188.0800  174.5080  141.9800 C   0  0  0  0  0  2  0  0  0  0  0  0
  189.9430  173.2230  143.6430 C   0  0  0  0  0  3  0  0  0  0  0  0
  193.4500  173.0150  145.0050 C   0  0  0  0  0  2  0  0  0  0  0  0
  193.6450  174.5120  144.7950 C   0  0  2  0  0  3  0  0  0  0  0  0
  194.7530  174.7780  143.7730 C   0  0  0  0  0  2  0  0  0  0  0  0
  195.8840  175.6270  144.3390 C   0  0  0  0  0  1  0  0  0  0  0  0
  193.9180  175.2060  146.1280 C   0  0  0  0  0  2  0  0  0  0  0  0
  192.9120  176.3140  146.3840 C   0  0  0  0  0  2  0  0  0  0  0  0
  191.6660  176.0470  145.5640 C   0  0  0  0  0  2  0  0  0  0  0  0
  190.5250  176.8620  146.0700 C   0  0  0  0  0  0  0  0  0  0  0  0
  190.0730  176.6650  147.1880 O   0  0  0  0  0  0  0  0  0  0  0  0
  189.9350  177.9220  145.1880 C   0  0  0  0  0  2  0  0  0  0  0  0
  188.8870  177.8970  142.8870 C   0  0  0  0  0  2  0  0  0  0  0  0
  187.2140  177.4360  146.1310 O   0  0  0  0  0  0  0  0  0  0  0  0
  186.2960  178.3720  144.1720 C   0  0  2  0  0  3  0  0  0  0  0  0
  187.6150  177.7750  142.1880 N   0  0  0  0  0  2  0  0  0  0  0  0
  187.4170  177.7510  144.9670 C   0  0  0  0  0  0  0  0  0  0  0  0
  186.7270  178.7780  142.7620 C   0  0  0  0  0  2  0  0  0  0  0  0
  185.7990  179.4910  144.8380 O   0  0  0  0  0  1  0  0  0  0  0  0
  188.7590  177.4280  144.3420 C   0  0  2  0  0  3  0  0  0  0  0  0
  1  4  1  6  0  0  0
  1  3  1  0  0  0  0
  2  8  1  1  0  0  0
  2  6  1  0  0  0  0
  3  5  1  0  0  0  0
  3 32  1  1  0  0  0
  6  5  1  0  0  0  0
  7  4  1  6  0  0  0
  7  2  1  0  0  0  0
  7  1  1  0  0  0  0
  9  2  1  0  0  0  0
 10  9  1  1  0  0  0
 11 13  1  0  0  0  0
 11 10  1  0  0  0  0
 11 12  1  1  0  0  0
 13 14  1  6  0  0  0
 13 16  1  0  0  0  0
 15 14  2  0  0  0  0
 16 17  1  0  0  0  0
 17 18  1  0  0  0  0
 18 19  2  0  0  0  0
 18 20  1  0  0  0  0
 21 10  1  0  0  0  0
 23 21  1  0  0  0  0
 23 22  1  0  0  0  0
 24 23  2  0  0  0  0
 25 22  1  0  0  0  0
 27 29  1  0  0  0  0
 27 28  1  1  0  0  0
 29 25  1  6  0  0  0
 30 27  1  0  0  0  0
 30 26  1  1  0  0  0
 30 29  1  0  0  0  0
 31 30  1  0  0  0  0
 31 27  1  0  0  0  0
 33 32  1  1  0  0  0
 33 34  1  0  0  0  0
 33 42  1  0  0  0  0
 35 36  1  0  0  0  0
 35 37  1  0  0  0  0
 36 40  1  0  0  0  0
 37 41  1  0  0  0  0
 38 41  1  0  0  0  0
 39 40  1  0  0  0  0
 39 38  1  0  0  0  0
 41 34  1  0  0  0  0
 43 44  1  6  0  0  0
 43 42  1  0  0  0  0
 43 46  1  0  0  0  0
 44 45  1  0  0  0  0
 46 47  1  0  0  0  0
 48 49  1  0  0  0  0
 48 47  1  0  0  0  0
 49 50  2  0  0  0  0
 51 49  1  0  0  0  0
 52 59  1  0  0  0  0
 54 58  1  1  0  0  0
 54 56  1  0  0  0  0
 55 57  1  0  0  0  0
 55 52  1  0  0  0  0
 56 53  2  0  0  0  0
 57 54  1  0  0  0  0
 59 56  1  0  0  0  0
 59 51  1  1  0  0  0
M  END
>  <MODEL>
7

>  <REMARK>
 VINA RESULT:      -5.1      2.945      6.997
  Name = 
  25 active torsions:
  status: ('A' for Active; 'I' for Inactive)
    1  A    between atoms: C_3  and  C_25
    2  A    between atoms: C_5  and  C_42
    3  A    between atoms: C_6  and  C_19
    4  A    between atoms: C_6  and  C_31
    5  A    between atoms: C_9  and  C_19
    6  A    between atoms: C_9  and  C_54
    7  A    between atoms: C_11  and  C_27
    8  A    between atoms: C_13  and  C_25
    9  A    between atoms: C_13  and  C_28
   10  A    between atoms: C_15  and  C_28
   11  A    between atoms: C_15  and  C_59
   12  A    between atoms: C_17  and  C_37
   13  A    between atoms: C_27  and  C_38
   14  A    between atoms: C_28  and  C_41
   15  A    between atoms: C_30  and  C_37
   16  A    between atoms: C_30  and  C_38
   17  A    between atoms: C_31  and  C_37
   18  A    between atoms: C_38  and  C_48
   19  A    between atoms: C_39  and  C_48
   20  A    between atoms: C_42  and  C_59
   21  A    between atoms: N_44  and  C_57
   22  A    between atoms: C_45  and  C_57
   23  A    between atoms: C_46  and  S_55
   24  A    between atoms: C_52  and  C_54
   25  A    between atoms: S_55  and  C_59
                            x       y       z     vdW  Elec       q    Type
                         _______ _______ _______ _____ _____    ______ ____

>  <TORSDO>
F 25

$$$$
=
 OpenBabel11072409443D

 59 64  0  0  1  0  0  0  0  0999 V2000
  194.1860  174.0620  143.5510 C   0  0  2  0  0  3  0  0  0  0  0  0
  193.5520  176.1720  144.9550 C   0  0  1  0  0  0  0  0  0  0  0  0
  195.6210  174.5890  143.6600 C   0  0  1  0  0  3  0  0  0  0  0  0
  193.3890  175.0140  142.6690 C   0  0  0  0  0  2  0  0  0  0  0  0
  195.7940  175.7010  144.6810 C   0  0  0  0  0  2  0  0  0  0  0  0
  194.8040  176.6790  144.5100 O   0  0  0  0  0  0  0  0  0  0  0  0
  193.0740  174.9370  144.1530 C   0  0  1  0  0  3  0  0  0  0  0  0
  193.6000  175.7970  146.4390 C   0  0  0  0  0  1  0  0  0  0  0  0
  192.4800  177.2620  144.8480 C   0  0  0  0  0  2  0  0  0  0  0  0
  191.1710  176.7910  144.2070 C   0  0  1  0  0  3  0  0  0  0  0  0
  189.9840  176.8180  145.1850 C   0  0  2  0  0  3  0  0  0  0  0  0
  190.3130  177.4870  146.3710 O   0  0  0  0  0  1  0  0  0  0  0  0
  189.4770  175.4050  145.5310 C   0  0  2  0  0  3  0  0  0  0  0  0
  189.6780  175.0220  146.9670 C   0  0  0  0  0  3  0  0  0  0  0  0
  188.9090  174.1620  147.5210 N   0  0  0  0  0  2  0  0  0  0  0  0
  190.0660  174.3340  144.6020 C   0  0  0  0  0  2  0  0  0  0  0  0
  189.6790  172.9050  144.9820 C   0  0  0  0  0  2  0  0  0  0  0  0
  190.3830  171.8990  144.1360 C   0  0  0  0  0  0  0  0  0  0  0  0
  191.6020  171.6470  144.3330 O   0  0  0  0  0  1  0  0  0  0  0  0
  189.6930  171.2400  143.1280 O   0  0  0  0  0  0  0  0  0  0  0  0
  190.8040  177.8900  142.7980 S   0  0  0  0  0  0  0  0  0  0  0  0
  188.1470  178.2240  143.5690 N   0  0  0  0  0  2  0  0  0  0  0  0
  189.0640  177.4770  142.7670 C   0  0  0  0  0  0  0  0  0  0  0  0
  188.6590  176.5320  142.0410 O   0  0  0  0  0  0  0  0  0  0  0  0
  186.7080  178.0220  143.5110 C   0  0  0  0  0  2  0  0  0  0  0  0
  183.9780  178.5600  146.0850 C   0  0  0  0  0  1  0  0  0  0  0  0
  186.4940  178.1820  145.9740 C   0  0  2  0  0  0  0  0  0  0  0  0
  186.3800  179.1110  146.9960 F   0  0  0  0  0  0  0  0  0  0  0  0
  186.0290  178.7550  144.6520 C   0  0  2  0  0  3  0  0  0  0  0  0
  185.1070  177.8090  145.3890 C   0  0  2  0  0  0  0  0  0  0  0  0
  185.8230  176.8770  146.3420 C   0  0  0  0  0  2  0  0  0  0  0  0
  196.6540  173.4680  143.8600 C   0  0  0  0  0  2  0  0  0  0  0  0
  196.5760  172.2590  142.9000 C   0  0  1  0  0  3  0  0  0  0  0  0
  197.6680  172.2390  141.8360 C   0  0  0  0  0  2  0  0  0  0  0  0
  197.4010  175.6560  140.0090 C   0  0  0  0  0  2  0  0  0  0  0  0
  197.4410  175.2710  138.5260 C   0  0  0  0  0  2  0  0  0  0  0  0
  197.9230  174.5650  140.9460 C   0  0  0  0  0  2  0  0  0  0  0  0
  195.8190  173.1770  140.4410 C   0  0  0  0  0  2  0  0  0  0  0  0
  195.3870  173.8570  139.1300 C   0  0  0  0  0  2  0  0  0  0  0  0
  196.5420  174.0820  138.1480 C   0  0  0  0  0  2  0  0  0  0  0  0
  197.3360  173.1740  140.6830 C   0  0  0  0  0  3  0  0  0  0  0  0
  196.5310  170.9270  143.6330 C   0  0  0  0  0  2  0  0  0  0  0  0
  195.2430  170.1720  143.3240 C   0  0  2  0  0  3  0  0  0  0  0  0
  195.5470  168.8540  142.6080 C   0  0  0  0  0  2  0  0  0  0  0  0
  197.0410  168.5830  142.4820 C   0  0  0  0  0  1  0  0  0  0  0  0
  194.2870  171.0520  142.5220 C   0  0  0  0  0  2  0  0  0  0  0  0
  193.6920  170.2900  141.3530 C   0  0  0  0  0  2  0  0  0  0  0  0
  192.4670  171.0290  140.8550 C   0  0  0  0  0  2  0  0  0  0  0  0
  191.7140  170.1910  139.8780 C   0  0  0  0  0  0  0  0  0  0  0  0
  192.1780  169.1320  139.4860 O   0  0  0  0  0  0  0  0  0  0  0  0
  190.3820  170.6690  139.3790 C   0  0  0  0  0  2  0  0  0  0  0  0
  188.8210  172.5810  139.9280 C   0  0  0  0  0  2  0  0  0  0  0  0
  191.7010  172.6090  137.6390 O   0  0  0  0  0  0  0  0  0  0  0  0
  189.7360  173.9000  137.4760 C   0  0  2  0  0  3  0  0  0  0  0  0
  188.5290  173.9730  139.6140 N   0  0  0  0  0  2  0  0  0  0  0  0
  190.6120  172.8630  138.1330 C   0  0  0  0  0  0  0  0  0  0  0  0
  188.3800  174.0490  138.1670 C   0  0  0  0  0  2  0  0  0  0  0  0
  189.5340  173.5760  136.1360 O   0  0  0  0  0  1  0  0  0  0  0  0
  190.2200  172.1900  139.4330 C   0  0  2  0  0  3  0  0  0  0  0  0
  1  4  1  6  0  0  0
  1  3  1  0  0  0  0
  1  7  1  0  0  0  0
  2  8  1  1  0  0  0
  3 32  1  1  0  0  0
  3  5  1  0  0  0  0
  6  5  1  0  0  0  0
  6  2  1  0  0  0  0
  7  4  1  6  0  0  0
  7  2  1  0  0  0  0
  9  2  1  0  0  0  0
 10  9  1  1  0  0  0
 10 11  1  0  0  0  0
 11 13  1  0  0  0  0
 11 12  1  1  0  0  0
 13 16  1  6  0  0  0
 13 14  1  0  0  0  0
 14 15  2  0  0  0  0
 16 17  1  0  0  0  0
 18 19  1  0  0  0  0
 18 17  1  0  0  0  0
 20 18  2  0  0  0  0
 21 10  1  0  0  0  0
 23 21  1  0  0  0  0
 23 22  1  0  0  0  0
 24 23  2  0  0  0  0
 25 22  1  0  0  0  0
 27 31  1  0  0  0  0
 27 28  1  1  0  0  0
 29 25  1  6  0  0  0
 29 30  1  0  0  0  0
 29 27  1  0  0  0  0
 30 27  1  0  0  0  0
 30 26  1  1  0  0  0
 30 31  1  0  0  0  0
 33 34  1  6  0  0  0
 33 42  1  0  0  0  0
 33 32  1  0  0  0  0
 35 37  1  0  0  0  0
 36 35  1  0  0  0  0
 38 41  1  0  0  0  0
 39 38  1  0  0  0  0
 40 36  1  0  0  0  0
 40 39  1  0  0  0  0
 41 37  1  0  0  0  0
 41 34  1  0  0  0  0
 43 46  1  6  0  0  0
 43 42  1  0  0  0  0
 44 43  1  0  0  0  0
 45 44  1  0  0  0  0
 47 46  1  0  0  0  0
 48 47  1  0  0  0  0
 49 48  1  0  0  0  0
 50 49  2  0  0  0  0
 51 49  1  0  0  0  0
 53 56  2  0  0  0  0
 54 58  1  6  0  0  0
 54 56  1  0  0  0  0
 54 57  1  0  0  0  0
 55 52  1  0  0  0  0
 56 59  1  0  0  0  0
 57 55  1  0  0  0  0
 59 51  1  6  0  0  0
 59 52  1  0  0  0  0
M  END
>  <MODEL>
8

>  <REMARK>
 VINA RESULT:      -5.1      3.178      9.500
  Name = 
  25 active torsions:
  status: ('A' for Active; 'I' for Inactive)
    1  A    between atoms: C_3  and  C_25
    2  A    between atoms: C_5  and  C_42
    3  A    between atoms: C_6  and  C_19
    4  A    between atoms: C_6  and  C_31
    5  A    between atoms: C_9  and  C_19
    6  A    between atoms: C_9  and  C_54
    7  A    between atoms: C_11  and  C_27
    8  A    between atoms: C_13  and  C_25
    9  A    between atoms: C_13  and  C_28
   10  A    between atoms: C_15  and  C_28
   11  A    between atoms: C_15  and  C_59
   12  A    between atoms: C_17  and  C_37
   13  A    between atoms: C_27  and  C_38
   14  A    between atoms: C_28  and  C_41
   15  A    between atoms: C_30  and  C_37
   16  A    between atoms: C_30  and  C_38
   17  A    between atoms: C_31  and  C_37
   18  A    between atoms: C_38  and  C_48
   19  A    between atoms: C_39  and  C_48
   20  A    between atoms: C_42  and  C_59
   21  A    between atoms: N_44  and  C_57
   22  A    between atoms: C_45  and  C_57
   23  A    between atoms: C_46  and  S_55
   24  A    between atoms: C_52  and  C_54
   25  A    between atoms: S_55  and  C_59
                            x       y       z     vdW  Elec       q    Type
                         _______ _______ _______ _____ _____    ______ ____

>  <TORSDO>
F 25

$$$$
=
 OpenBabel11072409443D

 59 64  0  0  1  0  0  0  0  0999 V2000
  193.6290  171.9680  141.8060 C   0  0  2  0  0  3  0  0  0  0  0  0
  193.2730  170.3290  139.8040 C   0  0  1  0  0  0  0  0  0  0  0  0
  192.3100  171.3910  142.3350 C   0  0  1  0  0  3  0  0  0  0  0  0
  193.3310  172.7840  140.5560 C   0  0  0  0  0  2  0  0  0  0  0  0
  191.8520  170.1370  141.6110 C   0  0  0  0  0  2  0  0  0  0  0  0
  191.9140  170.3240  140.2220 O   0  0  0  0  0  0  0  0  0  0  0  0
  194.1000  171.4800  140.4270 C   0  0  1  0  0  3  0  0  0  0  0  0
  193.9620  169.0020  140.1360 C   0  0  0  0  0  1  0  0  0  0  0  0
  193.3490  170.4520  138.2770 C   0  0  0  0  0  2  0  0  0  0  0  0
  193.1020  171.8680  137.7510 C   0  0  1  0  0  3  0  0  0  0  0  0
  194.2630  172.3960  136.8910 C   0  0  2  0  0  3  0  0  0  0  0  0
  195.4010  171.5870  137.0140 O   0  0  0  0  0  1  0  0  0  0  0  0
  194.6410  173.8470  137.2420 C   0  0  2  0  0  3  0  0  0  0  0  0
  194.6880  174.7670  136.0590 C   0  0  0  0  0  3  0  0  0  0  0  0
  195.4620  174.5130  135.0720 N   0  0  0  0  0  2  0  0  0  0  0  0
  195.9500  173.9290  138.0380 C   0  0  0  0  0  2  0  0  0  0  0  0
  196.0890  175.2020  138.8740 C   0  0  0  0  0  2  0  0  0  0  0  0
  196.3520  174.8950  140.3080 C   0  0  0  0  0  0  0  0  0  0  0  0
  196.9200  173.8180  140.6320 O   0  0  0  0  0  0  0  0  0  0  0  0
  195.9700  175.7990  141.2900 O   0  0  0  0  0  1  0  0  0  0  0  0
  191.5820  171.8390  136.7430 S   0  0  0  0  0  0  0  0  0  0  0  0
  190.0400  172.7940  138.8600 N   0  0  0  0  0  2  0  0  0  0  0  0
  190.7820  173.1320  137.6850 C   0  0  0  0  0  0  0  0  0  0  0  0
  190.8760  174.3290  137.3090 O   0  0  0  0  0  0  0  0  0  0  0  0
  189.4590  173.7970  139.7370 C   0  0  0  0  0  2  0  0  0  0  0  0
  189.2800  173.9600  143.5200 C   0  0  0  0  0  1  0  0  0  0  0  0
  187.7960  173.3990  141.5290 C   0  0  2  0  0  0  0  0  0  0  0  0
  187.4110  172.4480  142.4620 F   0  0  0  0  0  0  0  0  0  0  0  0
  189.2420  173.2190  141.1220 C   0  0  2  0  0  3  0  0  0  0  0  0
  188.9010  174.3290  142.0910 C   0  0  2  0  0  0  0  0  0  0  0  0
  187.4640  174.7970  142.0020 C   0  0  0  0  0  2  0  0  0  0  0  0
  192.3140  171.1980  143.8610 C   0  0  0  0  0  2  0  0  0  0  0  0
  192.9450  172.3230  144.7120 C   0  0  1  0  0  3  0  0  0  0  0  0
  194.4670  172.2740  144.7780 C   0  0  0  0  0  2  0  0  0  0  0  0
  197.0830  169.7960  146.2290 C   0  0  0  0  0  2  0  0  0  0  0  0
  196.4180  169.2890  147.5150 C   0  0  0  0  0  2  0  0  0  0  0  0
  196.4770  171.0940  145.6900 C   0  0  0  0  0  2  0  0  0  0  0  0
  194.3680  169.7890  145.0180 C   0  0  0  0  0  2  0  0  0  0  0  0
  194.5470  168.5540  145.9200 C   0  0  0  0  0  2  0  0  0  0  0  0
  194.9370  168.9010  147.3600 C   0  0  0  0  0  2  0  0  0  0  0  0
  194.9470  171.0870  145.5980 C   0  0  0  0  0  3  0  0  0  0  0  0
  192.4800  173.7090  144.2910 C   0  0  0  0  0  2  0  0  0  0  0  0
  192.8090  174.7480  145.3580 C   0  0  2  0  0  3  0  0  0  0  0  0
  191.6750  174.8540  146.3800 C   0  0  0  0  0  2  0  0  0  0  0  0
  191.7400  176.1360  147.2000 C   0  0  0  0  0  1  0  0  0  0  0  0
  193.1240  176.0950  144.7110 C   0  0  0  0  0  2  0  0  0  0  0  0
  192.1700  176.3890  143.5680 C   0  0  0  0  0  2  0  0  0  0  0  0
  191.6250  177.7940  143.7310 C   0  0  0  0  0  2  0  0  0  0  0  0
  190.1420  177.7990  143.5780 C   0  0  0  0  0  0  0  0  0  0  0  0
  189.6350  177.7470  142.4680 O   0  0  0  0  0  0  0  0  0  0  0  0
  189.2810  177.8740  144.8040 C   0  0  0  0  0  2  0  0  0  0  0  0
  186.8990  178.2770  144.0540 C   0  0  0  0  0  2  0  0  0  0  0  0
  188.1220  175.7210  146.4010 O   0  0  0  0  0  0  0  0  0  0  0  0
  186.0110  176.7690  146.4050 C   0  0  2  0  0  3  0  0  0  0  0  0
  185.5280  177.8240  144.2400 N   0  0  0  0  0  2  0  0  0  0  0  0
  187.4000  176.5470  145.8610 C   0  0  0  0  0  0  0  0  0  0  0  0
  185.2610  177.8820  145.6710 C   0  0  0  0  0  2  0  0  0  0  0  0
  186.0720  177.0770  147.7630 O   0  0  0  0  0  1  0  0  0  0  0  0
  187.8950  177.2520  144.6150 C   0  0  2  0  0  3  0  0  0  0  0  0
  1  4  1  6  0  0  0
  1  3  1  0  0  0  0
  2  8  1  1  0  0  0
  2  6  1  0  0  0  0
  2  7  1  0  0  0  0
  3 32  1  1  0  0  0
  5  3  1  0  0  0  0
  6  5  1  0  0  0  0
  7  4  1  6  0  0  0
  7  1  1  0  0  0  0
  9  2  1  0  0  0  0
 10  9  1  6  0  0  0
 11 12  1  1  0  0  0
 11 13  1  0  0  0  0
 11 10  1  0  0  0  0
 13 14  1  6  0  0  0
 13 16  1  0  0  0  0
 15 14  2  0  0  0  0
 16 17  1  0  0  0  0
 17 18  1  0  0  0  0
 18 19  2  0  0  0  0
 18 20  1  0  0  0  0
 21 23  1  0  0  0  0
 21 10  1  0  0  0  0
 22 25  1  0  0  0  0
 23 22  1  0  0  0  0
 24 23  2  0  0  0  0
 27 31  1  0  0  0  0
 27 30  1  0  0  0  0
 27 28  1  1  0  0  0
 29 25  1  6  0  0  0
 29 27  1  0  0  0  0
 29 30  1  0  0  0  0
 30 26  1  1  0  0  0
 31 30  1  0  0  0  0
 33 32  1  6  0  0  0
 33 34  1  0  0  0  0
 34 41  1  0  0  0  0
 35 36  1  0  0  0  0
 37 35  1  0  0  0  0
 38 41  1  0  0  0  0
 38 39  1  0  0  0  0
 39 40  1  0  0  0  0
 40 36  1  0  0  0  0
 41 37  1  0  0  0  0
 42 33  1  0  0  0  0
 43 42  1  6  0  0  0
 43 44  1  0  0  0  0
 44 45  1  0  0  0  0
 46 43  1  0  0  0  0
 47 48  1  0  0  0  0
 47 46  1  0  0  0  0
 49 48  1  0  0  0  0
 49 51  1  0  0  0  0
 50 49  2  0  0  0  0
 52 55  1  0  0  0  0
 52 59  1  0  0  0  0
 54 58  1  1  0  0  0
 55 57  1  0  0  0  0
 56 53  2  0  0  0  0
 56 54  1  0  0  0  0
 57 54  1  0  0  0  0
 59 51  1  1  0  0  0
 59 56  1  0  0  0  0
M  END
>  <MODEL>
9

>  <REMARK>
 VINA RESULT:      -5.1      3.014      7.761
  Name = 
  25 active torsions:
  status: ('A' for Active; 'I' for Inactive)
    1  A    between atoms: C_3  and  C_25
    2  A    between atoms: C_5  and  C_42
    3  A    between atoms: C_6  and  C_19
    4  A    between atoms: C_6  and  C_31
    5  A    between atoms: C_9  and  C_19
    6  A    between atoms: C_9  and  C_54
    7  A    between atoms: C_11  and  C_27
    8  A    between atoms: C_13  and  C_25
    9  A    between atoms: C_13  and  C_28
   10  A    between atoms: C_15  and  C_28
   11  A    between atoms: C_15  and  C_59
   12  A    between atoms: C_17  and  C_37
   13  A    between atoms: C_27  and  C_38
   14  A    between atoms: C_28  and  C_41
   15  A    between atoms: C_30  and  C_37
   16  A    between atoms: C_30  and  C_38
   17  A    between atoms: C_31  and  C_37
   18  A    between atoms: C_38  and  C_48
   19  A    between atoms: C_39  and  C_48
   20  A    between atoms: C_42  and  C_59
   21  A    between atoms: N_44  and  C_57
   22  A    between atoms: C_45  and  C_57
   23  A    between atoms: C_46  and  S_55
   24  A    between atoms: C_52  and  C_54
   25  A    between atoms: S_55  and  C_59
                            x       y       z     vdW  Elec       q    Type
                         _______ _______ _______ _____ _____    ______ ____

>  <TORSDO>
F 25

$$$$
