=
 OpenBabel11062419423D

 30 31  0  0  1  0  0  0  0  0999 V2000
  189.9270  174.1370  144.6240 C   0  0  2  0  0  3  0  0  0  0  0  0
  189.2760  173.9170  139.9570 C   0  0  0  0  0  0  0  0  0  0  0  0
  188.5870  175.4420  141.8070 C   0  0  0  0  0  0  0  0  0  0  0  0
  190.4850  174.0690  142.1510 C   0  0  0  0  0  2  0  0  0  0  0  0
  190.1790  174.9720  143.3600 C   0  0  1  0  0  3  0  0  0  0  0  0
  189.4220  174.4380  141.1790 C   0  0  0  0  0  0  0  0  0  0  0  0
  188.9850  175.7350  142.9950 N   0  0  0  0  0  0  0  0  0  0  0  0
  189.9230  171.4970  139.3870 C   0  0  0  0  0  1  0  0  0  0  0  0
  190.2090  172.9160  139.5200 N   0  0  0  0  0  2  0  0  0  0  0  0
  187.4730  176.0330  141.2080 O   0  0  0  0  0  0  0  0  0  0  0  0
  187.1270  177.3900  141.4430 C   0  0  0  0  0  1  0  0  0  0  0  0
  188.2220  174.3720  139.1480 O   0  0  0  0  0  0  0  0  0  0  0  0
  188.2050  174.2890  137.7300 C   0  0  0  0  0  1  0  0  0  0  0  0
  192.2920  175.3410  147.2870 N   0  0  0  0  0  0  0  0  0  0  0  0
  191.1550  175.5170  147.8280 N   0  0  0  0  0  2  0  0  0  0  0  0
  192.1590  174.7870  145.9430 C   0  0  0  0  0  3  0  0  0  0  0  0
  190.1400  175.1130  146.9280 C   0  0  0  0  0  0  0  0  0  0  0  0
  190.6760  174.6890  145.7990 C   0  0  0  0  0  0  0  0  0  0  0  0
  188.6820  175.1580  147.2480 C   0  0  0  0  0  2  0  0  0  0  0  0
  188.8810  177.4920  146.5790 N   0  0  0  0  0  1  0  0  0  0  0  0
  188.0150  176.3250  146.5350 C   0  0  2  0  0  3  0  0  0  0  0  0
  186.6440  176.6550  147.1260 C   0  0  0  0  0  2  0  0  0  0  0  0
  185.6160  177.0100  146.0480 C   0  0  2  0  0  3  0  0  0  0  0  0
  186.0650  176.5650  144.8010 O   0  0  0  0  0  1  0  0  0  0  0  0
  183.8580  178.6990  145.8660 N   0  0  0  0  0  1  0  0  0  0  0  0
  185.7540  179.2080  147.2830 C   0  0  0  0  0  1  0  0  0  0  0  0
  185.9830  179.1540  144.8260 C   0  0  0  0  0  1  0  0  0  0  0  0
  185.2910  178.5110  146.0140 C   0  0  0  0  0  0  0  0  0  0  0  0
  189.3700  171.8330  144.9590 O   0  0  0  0  0  1  0  0  0  0  0  0
  190.3340  172.6830  144.4170 C   0  0  0  0  0  2  0  0  0  0  0  0
  1 30  1  6  0  0  0
  1 18  1  0  0  0  0
  2  6  2  0  0  0  0
  3  7  2  0  0  0  0
  4  5  1  0  0  0  0
  5  1  1  1  0  0  0
  6  3  1  0  0  0  0
  6  4  1  0  0  0  0
  7  5  1  0  0  0  0
  8  9  1  0  0  0  0
  9  2  1  0  0  0  0
 10 11  1  0  0  0  0
 10  3  1  0  0  0  0
 12  2  1  0  0  0  0
 13 12  1  0  0  0  0
 14 15  1  0  0  0  0
 16 14  2  0  0  0  0
 17 19  1  0  0  0  0
 17 15  1  0  0  0  0
 18 16  1  0  0  0  0
 18 17  2  0  0  0  0
 21 20  1  1  0  0  0
 21 22  1  0  0  0  0
 21 19  1  0  0  0  0
 23 24  1  6  0  0  0
 23 22  1  0  0  0  0
 25 28  1  0  0  0  0
 27 28  1  0  0  0  0
 28 23  1  0  0  0  0
 28 26  1  0  0  0  0
 30 29  1  0  0  0  0
M  END
>  <MODEL>
1

>  <REMARK>
 VINA RESULT:      -6.3      0.000      0.000
  Name = 
  11 active torsions:
  status: ('A' for Active; 'I' for Inactive)
    1  A    between atoms: C_1  and  C_8
    2  A    between atoms: C_1  and  C_27
    3  A    between atoms: C_3  and  N_7
    4  A    between atoms: C_3  and  O_18
    5  A    between atoms: C_6  and  C_14
    6  A    between atoms: C_6  and  C_26
    7  A    between atoms: C_6  and  C_30
    8  A    between atoms: C_8  and  C_24
    9  A    between atoms: C_10  and  O_17
   10  A    between atoms: C_27  and  C_29
   11  A    between atoms: C_28  and  C_29
                            x       y       z     vdW  Elec       q    Type
                         _______ _______ _______ _____ _____    ______ ____

>  <TORSDO>
F 11

$$$$
=
 OpenBabel11062419423D

 30 31  0  0  1  0  0  0  0  0999 V2000
  190.6450  174.8690  143.9450 C   0  0  2  0  0  3  0  0  0  0  0  0
  195.0940  175.6020  142.5590 C   0  0  0  0  0  0  0  0  0  0  0  0
  193.7740  175.9390  144.6490 C   0  0  0  0  0  0  0  0  0  0  0  0
  192.9720  174.3640  143.0740 C   0  0  0  0  0  2  0  0  0  0  0  0
  192.0760  174.4630  144.3220 C   0  0  1  0  0  3  0  0  0  0  0  0
  194.0580  175.3370  143.3620 C   0  0  0  0  0  0  0  0  0  0  0  0
  192.6960  175.4760  145.1770 N   0  0  0  0  0  0  0  0  0  0  0  0
  195.1000  175.5110  139.9920 C   0  0  0  0  0  1  0  0  0  0  0  0
  195.1900  174.9010  141.3080 N   0  0  0  0  0  2  0  0  0  0  0  0
  194.5660  176.9120  145.2610 O   0  0  0  0  0  0  0  0  0  0  0  0
  194.4160  177.2480  146.6320 C   0  0  0  0  0  1  0  0  0  0  0  0
  196.0470  176.5470  142.9720 O   0  0  0  0  0  0  0  0  0  0  0  0
  197.4470  176.3120  143.0070 C   0  0  0  0  0  1  0  0  0  0  0  0
  188.6680  175.1690  147.1290 N   0  0  0  0  0  0  0  0  0  0  0  0
  188.5370  176.3230  146.6130 N   0  0  0  0  0  2  0  0  0  0  0  0
  189.4930  174.3040  146.2900 C   0  0  0  0  0  3  0  0  0  0  0  0
  189.2470  176.3750  145.3900 C   0  0  0  0  0  0  0  0  0  0  0  0
  189.8390  175.2180  145.1600 C   0  0  0  0  0  0  0  0  0  0  0  0
  189.2880  177.5760  144.5040 C   0  0  0  0  0  2  0  0  0  0  0  0
  188.5420  178.0180  142.2270 N   0  0  0  0  0  1  0  0  0  0  0  0
  188.1110  177.5670  143.5400 C   0  0  2  0  0  3  0  0  0  0  0  0
  186.9460  178.4220  144.0420 C   0  0  0  0  0  2  0  0  0  0  0  0
  185.7330  177.5770  144.4410 C   0  0  2  0  0  3  0  0  0  0  0  0
  184.7460  177.6740  143.4550 O   0  0  0  0  0  1  0  0  0  0  0  0
  184.8920  176.7550  146.5840 N   0  0  0  0  0  1  0  0  0  0  0  0
  186.1570  178.8190  146.5970 C   0  0  0  0  0  1  0  0  0  0  0  0
  183.8810  178.7320  145.6490 C   0  0  0  0  0  1  0  0  0  0  0  0
  185.1750  177.9580  145.8190 C   0  0  0  0  0  0  0  0  0  0  0  0
  188.6750  174.1850  142.7690 O   0  0  0  0  0  1  0  0  0  0  0  0
  189.9350  173.7550  143.1840 C   0  0  0  0  0  2  0  0  0  0  0  0
  1 30  1  1  0  0  0
  1 18  1  0  0  0  0
  2 12  1  0  0  0  0
  2  6  2  0  0  0  0
  3  7  2  0  0  0  0
  3 10  1  0  0  0  0
  4  6  1  0  0  0  0
  4  5  1  0  0  0  0
  5  1  1  6  0  0  0
  5  7  1  0  0  0  0
  6  3  1  0  0  0  0
  8  9  1  0  0  0  0
  9  2  1  0  0  0  0
 10 11  1  0  0  0  0
 12 13  1  0  0  0  0
 15 14  1  0  0  0  0
 16 14  2  0  0  0  0
 17 15  1  0  0  0  0
 18 17  2  0  0  0  0
 18 16  1  0  0  0  0
 19 17  1  0  0  0  0
 21 20  1  6  0  0  0
 21 22  1  0  0  0  0
 21 19  1  0  0  0  0
 22 23  1  0  0  0  0
 23 24  1  6  0  0  0
 23 28  1  0  0  0  0
 27 28  1  0  0  0  0
 28 25  1  0  0  0  0
 28 26  1  0  0  0  0
 29 30  1  0  0  0  0
M  END
>  <MODEL>
2

>  <REMARK>
 VINA RESULT:      -5.9      3.390      4.774
  Name = 
  11 active torsions:
  status: ('A' for Active; 'I' for Inactive)
    1  A    between atoms: C_1  and  C_8
    2  A    between atoms: C_1  and  C_27
    3  A    between atoms: C_3  and  N_7
    4  A    between atoms: C_3  and  O_18
    5  A    between atoms: C_6  and  C_14
    6  A    between atoms: C_6  and  C_26
    7  A    between atoms: C_6  and  C_30
    8  A    between atoms: C_8  and  C_24
    9  A    between atoms: C_10  and  O_17
   10  A    between atoms: C_27  and  C_29
   11  A    between atoms: C_28  and  C_29
                            x       y       z     vdW  Elec       q    Type
                         _______ _______ _______ _____ _____    ______ ____

>  <TORSDO>
F 11

$$$$
=
 OpenBabel11062419423D

 30 31  0  0  1  0  0  0  0  0999 V2000
  188.1680  176.2760  146.2800 C   0  0  2  0  0  3  0  0  0  0  0  0
  192.4910  176.0920  144.4020 C   0  0  0  0  0  0  0  0  0  0  0  0
  190.2050  175.3350  143.7500 C   0  0  0  0  0  0  0  0  0  0  0  0
  190.3830  177.0770  145.3440 C   0  0  0  0  0  2  0  0  0  0  0  0
  188.9220  176.7190  145.0190 C   0  0  1  0  0  3  0  0  0  0  0  0
  191.1570  176.1510  144.4760 C   0  0  0  0  0  0  0  0  0  0  0  0
  188.9870  175.6310  144.0420 N   0  0  0  0  0  0  0  0  0  0  0  0
  193.9000  176.6390  146.4790 C   0  0  0  0  0  1  0  0  0  0  0  0
  193.2650  176.9850  145.2190 N   0  0  0  0  0  2  0  0  0  0  0  0
  190.5500  174.3380  142.8370 O   0  0  0  0  0  0  0  0  0  0  0  0
  190.2790  172.9660  143.0860 C   0  0  0  0  0  1  0  0  0  0  0  0
  193.0810  175.1640  143.5270 O   0  0  0  0  0  0  0  0  0  0  0  0
  193.8580  174.0510  143.9430 C   0  0  0  0  0  1  0  0  0  0  0  0
  186.7340  179.1690  148.2050 N   0  0  0  0  0  0  0  0  0  0  0  0
  185.7870  178.8700  147.4130 N   0  0  0  0  0  0  0  0  0  0  0  0
  187.8880  178.2970  148.0060 C   0  0  0  0  0  2  0  0  0  0  0  0
  186.1840  177.7830  146.5960 C   0  0  0  0  0  0  0  0  0  0  0  0
  187.4160  177.4180  146.8950 C   0  0  0  0  0  0  0  0  0  0  0  0
  185.3040  177.1560  145.5660 C   0  0  0  0  0  2  0  0  0  0  0  0
  184.0570  178.7730  144.2370 N   0  0  0  0  0  1  0  0  0  0  0  0
  185.2840  177.9960  144.2980 C   0  0  2  0  0  3  0  0  0  0  0  0
  185.4390  177.1430  143.0380 C   0  0  0  0  0  2  0  0  0  0  0  0
  185.8240  177.9770  141.8130 C   0  0  2  0  0  3  0  0  0  0  0  0
  184.7460  178.0340  140.9240 O   0  0  0  0  0  1  0  0  0  0  0  0
  186.9580  177.6190  139.6770 N   0  0  0  0  0  1  0  0  0  0  0  0
  188.3290  178.1930  141.5880 C   0  0  0  0  0  1  0  0  0  0  0  0
  187.2590  175.9760  141.4140 C   0  0  0  0  0  1  0  0  0  0  0  0
  187.0880  177.4540  141.1150 C   0  0  0  0  0  0  0  0  0  0  0  0
  189.0790  174.2990  147.2770 O   0  0  0  0  0  1  0  0  0  0  0  0
  189.1180  175.6930  147.3180 C   0  0  0  0  0  2  0  0  0  0  0  0
  1 18  1  0  0  0  0
  1 30  1  1  0  0  0
  2  6  2  0  0  0  0
  2  9  1  0  0  0  0
  3  7  2  0  0  0  0
  3  6  1  0  0  0  0
  5  4  1  0  0  0  0
  5  1  1  1  0  0  0
  6  4  1  0  0  0  0
  7  5  1  0  0  0  0
  9  8  1  0  0  0  0
 10 11  1  0  0  0  0
 10  3  1  0  0  0  0
 12 13  1  0  0  0  0
 12  2  1  0  0  0  0
 15 14  2  0  0  0  0
 16 14  1  0  0  0  0
 17 18  2  0  0  0  0
 17 15  1  0  0  0  0
 18 16  1  0  0  0  0
 19 17  1  0  0  0  0
 21 20  1  6  0  0  0
 21 19  1  0  0  0  0
 22 21  1  0  0  0  0
 23 24  1  6  0  0  0
 23 22  1  0  0  0  0
 25 28  1  0  0  0  0
 28 27  1  0  0  0  0
 28 26  1  0  0  0  0
 28 23  1  0  0  0  0
 29 30  1  0  0  0  0
M  END
>  <MODEL>
3

>  <REMARK>
 VINA RESULT:      -5.8      2.601      5.365
  Name = 
  11 active torsions:
  status: ('A' for Active; 'I' for Inactive)
    1  A    between atoms: C_1  and  C_8
    2  A    between atoms: C_1  and  C_27
    3  A    between atoms: C_3  and  N_7
    4  A    between atoms: C_3  and  O_18
    5  A    between atoms: C_6  and  C_14
    6  A    between atoms: C_6  and  C_26
    7  A    between atoms: C_6  and  C_30
    8  A    between atoms: C_8  and  C_24
    9  A    between atoms: C_10  and  O_17
   10  A    between atoms: C_27  and  C_29
   11  A    between atoms: C_28  and  C_29
                            x       y       z     vdW  Elec       q    Type
                         _______ _______ _______ _____ _____    ______ ____

>  <TORSDO>
F 11

$$$$
=
 OpenBabel11062419423D

 30 31  0  0  1  0  0  0  0  0999 V2000
  190.4310  176.3740  146.2570 C   0  0  2  0  0  3  0  0  0  0  0  0
  186.9300  177.4800  143.2960 C   0  0  0  0  0  0  0  0  0  0  0  0
  187.1410  176.9410  145.7220 C   0  0  0  0  0  0  0  0  0  0  0  0
  189.0710  177.7090  144.5860 C   0  0  0  0  0  2  0  0  0  0  0  0
  189.3330  177.4310  146.0770 C   0  0  1  0  0  3  0  0  0  0  0  0
  187.6280  177.3840  144.4320 C   0  0  0  0  0  0  0  0  0  0  0  0
  188.0600  176.9560  146.6230 N   0  0  0  0  0  0  0  0  0  0  0  0
  187.4420  177.3670  140.7810 C   0  0  0  0  0  1  0  0  0  0  0  0
  187.6050  177.9320  142.1100 N   0  0  0  0  0  2  0  0  0  0  0  0
  185.8290  176.5390  145.9790 O   0  0  0  0  0  0  0  0  0  0  0  0
  184.9000  177.3850  146.6400 C   0  0  0  0  0  1  0  0  0  0  0  0
  185.5670  177.1410  143.3070 O   0  0  0  0  0  0  0  0  0  0  0  0
  184.5150  178.0320  142.9690 C   0  0  0  0  0  1  0  0  0  0  0  0
  190.4570  174.0980  143.2650 N   0  0  0  0  0  0  0  0  0  0  0  0
  191.5670  174.7080  143.1560 N   0  0  0  0  0  0  0  0  0  0  0  0
  189.7180  174.5470  144.4410 C   0  0  0  0  0  2  0  0  0  0  0  0
  191.7030  175.6270  144.2240 C   0  0  0  0  0  0  0  0  0  0  0  0
  190.6370  175.5820  145.0010 C   0  0  0  0  0  0  0  0  0  0  0  0
  192.9020  176.4960  144.4220 C   0  0  0  0  0  2  0  0  0  0  0  0
  194.0030  176.6420  146.5910 N   0  0  0  0  0  1  0  0  0  0  0  0
  193.8820  175.8410  145.3840 C   0  0  2  0  0  3  0  0  0  0  0  0
  195.2550  175.6220  144.7480 C   0  0  0  0  0  2  0  0  0  0  0  0
  195.1560  175.1480  143.2950 C   0  0  2  0  0  3  0  0  0  0  0  0
  195.3110  173.7590  143.2410 O   0  0  0  0  0  1  0  0  0  0  0  0
  197.0920  174.8750  141.8270 N   0  0  0  0  0  1  0  0  0  0  0  0
  195.4650  176.5660  141.2300 C   0  0  0  0  0  1  0  0  0  0  0  0
  196.9570  176.8700  143.1720 C   0  0  0  0  0  1  0  0  0  0  0  0
  196.1640  175.8510  142.3740 C   0  0  0  0  0  0  0  0  0  0  0  0
  191.2100  175.2460  148.2200 O   0  0  0  0  0  1  0  0  0  0  0  0
  190.0980  175.4170  147.3950 C   0  0  0  0  0  2  0  0  0  0  0  0
  1 30  1  1  0  0  0
  2 12  1  0  0  0  0
  2  6  2  0  0  0  0
  3 10  1  0  0  0  0
  3  7  2  0  0  0  0
  4  5  1  0  0  0  0
  5  1  1  6  0  0  0
  5  7  1  0  0  0  0
  6  4  1  0  0  0  0
  6  3  1  0  0  0  0
  8  9  1  0  0  0  0
  9  2  1  0  0  0  0
 10 11  1  0  0  0  0
 13 12  1  0  0  0  0
 14 16  1  0  0  0  0
 15 14  2  0  0  0  0
 15 17  1  0  0  0  0
 16 18  1  0  0  0  0
 17 19  1  0  0  0  0
 17 18  2  0  0  0  0
 18  1  1  0  0  0  0
 19 21  1  0  0  0  0
 21 20  1  1  0  0  0
 22 21  1  0  0  0  0
 23 24  1  1  0  0  0
 23 22  1  0  0  0  0
 25 28  1  0  0  0  0
 26 28  1  0  0  0  0
 28 27  1  0  0  0  0
 28 23  1  0  0  0  0
 30 29  1  0  0  0  0
M  END
>  <MODEL>
4

>  <REMARK>
 VINA RESULT:      -5.7      3.281      6.933
  Name = 
  11 active torsions:
  status: ('A' for Active; 'I' for Inactive)
    1  A    between atoms: C_1  and  C_8
    2  A    between atoms: C_1  and  C_27
    3  A    between atoms: C_3  and  N_7
    4  A    between atoms: C_3  and  O_18
    5  A    between atoms: C_6  and  C_14
    6  A    between atoms: C_6  and  C_26
    7  A    between atoms: C_6  and  C_30
    8  A    between atoms: C_8  and  C_24
    9  A    between atoms: C_10  and  O_17
   10  A    between atoms: C_27  and  C_29
   11  A    between atoms: C_28  and  C_29
                            x       y       z     vdW  Elec       q    Type
                         _______ _______ _______ _____ _____    ______ ____

>  <TORSDO>
F 11

$$$$
=
 OpenBabel11062419423D

 30 31  0  0  1  0  0  0  0  0999 V2000
  190.1010  176.3810  144.3150 C   0  0  2  0  0  3  0  0  0  0  0  0
  185.6500  177.4900  145.4170 C   0  0  0  0  0  0  0  0  0  0  0  0
  186.8380  176.5410  143.4410 C   0  0  0  0  0  0  0  0  0  0  0  0
  187.8890  176.3640  145.5540 C   0  0  0  0  0  2  0  0  0  0  0  0
  188.7180  175.7240  144.4260 C   0  0  1  0  0  3  0  0  0  0  0  0
  186.6800  176.8590  144.8450 C   0  0  0  0  0  0  0  0  0  0  0  0
  187.9450  175.9300  143.2000 N   0  0  0  0  0  0  0  0  0  0  0  0
  185.9430  179.0050  147.4720 C   0  0  0  0  0  1  0  0  0  0  0  0
  185.6890  177.7240  146.8350 N   0  0  0  0  0  2  0  0  0  0  0  0
  185.9090  176.8540  142.4470 O   0  0  0  0  0  0  0  0  0  0  0  0
  186.2400  177.6860  141.3450 C   0  0  0  0  0  1  0  0  0  0  0  0
  184.5720  177.8960  144.6140 O   0  0  0  0  0  0  0  0  0  0  0  0
  184.2890  179.2440  144.2710 C   0  0  0  0  0  1  0  0  0  0  0  0
  192.5540  175.0590  146.8380 N   0  0  0  0  0  0  0  0  0  0  0  0
  192.7130  174.2660  145.8580 N   0  0  0  0  0  0  0  0  0  0  0  0
  191.5360  176.0640  146.5470 C   0  0  0  0  0  2  0  0  0  0  0  0
  191.8340  174.6320  144.8100 C   0  0  0  0  0  0  0  0  0  0  0  0
  191.1090  175.6750  145.1700 C   0  0  0  0  0  0  0  0  0  0  0  0
  191.7720  173.9280  143.4950 C   0  0  0  0  0  2  0  0  0  0  0  0
  192.0970  174.2740  141.1050 N   0  0  0  0  0  1  0  0  0  0  0  0
  192.4970  174.7320  142.4260 C   0  0  2  0  0  3  0  0  0  0  0  0
  194.0170  174.6570  142.5790 C   0  0  0  0  0  2  0  0  0  0  0  0
  194.6670  176.0430  142.6260 C   0  0  2  0  0  3  0  0  0  0  0  0
  195.3200  176.3000  141.4170 O   0  0  0  0  0  1  0  0  0  0  0  0
  196.7970  176.9580  143.4020 N   0  0  0  0  0  1  0  0  0  0  0  0
  194.9540  176.9310  144.9720 C   0  0  0  0  0  1  0  0  0  0  0  0
  196.0760  174.8390  144.2960 C   0  0  0  0  0  1  0  0  0  0  0  0
  195.6240  176.2060  143.8160 C   0  0  0  0  0  0  0  0  0  0  0  0
  190.9140  178.5980  143.9190 O   0  0  0  0  0  1  0  0  0  0  0  0
  190.0510  177.8490  144.7190 C   0  0  0  0  0  2  0  0  0  0  0  0
  1 30  1  1  0  0  0
  1 18  1  0  0  0  0
  2  9  1  0  0  0  0
  3  6  1  0  0  0  0
  5  1  1  6  0  0  0
  5  4  1  0  0  0  0
  6  2  2  0  0  0  0
  6  4  1  0  0  0  0
  7  3  2  0  0  0  0
  7  5  1  0  0  0  0
  9  8  1  0  0  0  0
 10  3  1  0  0  0  0
 11 10  1  0  0  0  0
 12  2  1  0  0  0  0
 13 12  1  0  0  0  0
 15 14  2  0  0  0  0
 16 14  1  0  0  0  0
 17 18  2  0  0  0  0
 17 15  1  0  0  0  0
 18 16  1  0  0  0  0
 19 17  1  0  0  0  0
 21 20  1  6  0  0  0
 21 22  1  0  0  0  0
 21 19  1  0  0  0  0
 22 23  1  0  0  0  0
 23 24  1  6  0  0  0
 23 28  1  0  0  0  0
 25 28  1  0  0  0  0
 28 27  1  0  0  0  0
 28 26  1  0  0  0  0
 29 30  1  0  0  0  0
M  END
>  <MODEL>
5

>  <REMARK>
 VINA RESULT:      -5.7      3.026      7.055
  Name = 
  11 active torsions:
  status: ('A' for Active; 'I' for Inactive)
    1  A    between atoms: C_1  and  C_8
    2  A    between atoms: C_1  and  C_27
    3  A    between atoms: C_3  and  N_7
    4  A    between atoms: C_3  and  O_18
    5  A    between atoms: C_6  and  C_14
    6  A    between atoms: C_6  and  C_26
    7  A    between atoms: C_6  and  C_30
    8  A    between atoms: C_8  and  C_24
    9  A    between atoms: C_10  and  O_17
   10  A    between atoms: C_27  and  C_29
   11  A    between atoms: C_28  and  C_29
                            x       y       z     vdW  Elec       q    Type
                         _______ _______ _______ _____ _____    ______ ____

>  <TORSDO>
F 11

$$$$
=
 OpenBabel11062419423D

 30 31  0  0  1  0  0  0  0  0999 V2000
  190.0980  176.4410  144.6100 C   0  0  2  0  0  3  0  0  0  0  0  0
  185.8380  178.3480  143.9240 C   0  0  0  0  0  0  0  0  0  0  0  0
  187.2360  176.6050  142.8160 C   0  0  0  0  0  0  0  0  0  0  0  0
  187.7020  177.1250  145.0780 C   0  0  0  0  0  2  0  0  0  0  0  0
  188.6230  176.0240  144.5210 C   0  0  1  0  0  3  0  0  0  0  0  0
  186.8210  177.4420  143.9230 C   0  0  0  0  0  0  0  0  0  0  0  0
  188.2190  175.8350  143.1280 N   0  0  0  0  0  0  0  0  0  0  0  0
  184.6340  178.7300  146.1620 C   0  0  0  0  0  1  0  0  0  0  0  0
  185.5900  179.0920  145.1290 N   0  0  0  0  0  2  0  0  0  0  0  0
  186.6510  176.6190  141.5490 O   0  0  0  0  0  0  0  0  0  0  0  0
  187.0780  177.5160  140.5340 C   0  0  0  0  0  1  0  0  0  0  0  0
  185.0860  178.5340  142.7530 O   0  0  0  0  0  0  0  0  0  0  0  0
  183.6900  178.2940  142.6500 C   0  0  0  0  0  1  0  0  0  0  0  0
  191.1590  175.2930  148.0290 N   0  0  0  0  0  0  0  0  0  0  0  0
  192.2510  175.2690  147.3790 N   0  0  0  0  0  2  0  0  0  0  0  0
  190.0490  175.7270  147.1850 C   0  0  0  0  0  3  0  0  0  0  0  0
  192.0120  175.6730  146.0440 C   0  0  0  0  0  0  0  0  0  0  0  0
  190.7300  175.9400  145.8730 C   0  0  0  0  0  0  0  0  0  0  0  0
  193.0810  175.7850  145.0070 C   0  0  0  0  0  2  0  0  0  0  0  0
  194.6140  177.5440  145.7070 N   0  0  0  0  0  1  0  0  0  0  0  0
  194.4200  176.1050  145.6540 C   0  0  2  0  0  3  0  0  0  0  0  0
  195.5860  175.4340  144.9280 C   0  0  0  0  0  2  0  0  0  0  0  0
  195.2280  175.0330  143.4940 C   0  0  2  0  0  3  0  0  0  0  0  0
  195.3080  173.6430  143.3590 O   0  0  0  0  0  1  0  0  0  0  0  0
  196.9610  174.7730  141.7910 N   0  0  0  0  0  1  0  0  0  0  0  0
  195.2500  176.4390  141.3970 C   0  0  0  0  0  1  0  0  0  0  0  0
  196.9750  176.7760  143.1300 C   0  0  0  0  0  1  0  0  0  0  0  0
  196.0990  175.7410  142.4470 C   0  0  0  0  0  0  0  0  0  0  0  0
  191.1270  178.3070  143.5200 O   0  0  0  0  0  1  0  0  0  0  0  0
  190.2510  177.9550  144.5470 C   0  0  0  0  0  2  0  0  0  0  0  0
  1 30  1  1  0  0  0
  1 18  1  0  0  0  0
  2  9  1  0  0  0  0
  3  7  2  0  0  0  0
  3  6  1  0  0  0  0
  5  1  1  6  0  0  0
  5  4  1  0  0  0  0
  6  2  2  0  0  0  0
  6  4  1  0  0  0  0
  7  5  1  0  0  0  0
  9  8  1  0  0  0  0
 10  3  1  0  0  0  0
 11 10  1  0  0  0  0
 12  2  1  0  0  0  0
 13 12  1  0  0  0  0
 15 14  1  0  0  0  0
 16 14  2  0  0  0  0
 17 15  1  0  0  0  0
 18 17  2  0  0  0  0
 18 16  1  0  0  0  0
 19 21  1  0  0  0  0
 19 17  1  0  0  0  0
 21 20  1  6  0  0  0
 22 21  1  0  0  0  0
 23 24  1  1  0  0  0
 23 22  1  0  0  0  0
 25 28  1  0  0  0  0
 26 28  1  0  0  0  0
 28 27  1  0  0  0  0
 28 23  1  0  0  0  0
 29 30  1  0  0  0  0
M  END
>  <MODEL>
6

>  <REMARK>
 VINA RESULT:      -5.6      3.268      7.096
  Name = 
  11 active torsions:
  status: ('A' for Active; 'I' for Inactive)
    1  A    between atoms: C_1  and  C_8
    2  A    between atoms: C_1  and  C_27
    3  A    between atoms: C_3  and  N_7
    4  A    between atoms: C_3  and  O_18
    5  A    between atoms: C_6  and  C_14
    6  A    between atoms: C_6  and  C_26
    7  A    between atoms: C_6  and  C_30
    8  A    between atoms: C_8  and  C_24
    9  A    between atoms: C_10  and  O_17
   10  A    between atoms: C_27  and  C_29
   11  A    between atoms: C_28  and  C_29
                            x       y       z     vdW  Elec       q    Type
                         _______ _______ _______ _____ _____    ______ ____

>  <TORSDO>
F 11

$$$$
=
 OpenBabel11062419423D

 30 31  0  0  1  0  0  0  0  0999 V2000
  190.0040  176.6300  144.4870 C   0  0  2  0  0  3  0  0  0  0  0  0
  185.7270  178.5310  143.8950 C   0  0  0  0  0  0  0  0  0  0  0  0
  187.0900  176.7670  142.7760 C   0  0  0  0  0  0  0  0  0  0  0  0
  187.6230  177.3250  145.0140 C   0  0  0  0  0  2  0  0  0  0  0  0
  188.5260  176.2140  144.4500 C   0  0  1  0  0  3  0  0  0  0  0  0
  186.7090  177.6240  143.8800 C   0  0  0  0  0  0  0  0  0  0  0  0
  188.0810  176.0010  143.0720 N   0  0  0  0  0  0  0  0  0  0  0  0
  184.6000  178.9450  146.1660 C   0  0  0  0  0  1  0  0  0  0  0  0
  185.5150  179.2950  145.0940 N   0  0  0  0  0  2  0  0  0  0  0  0
  186.4680  176.7600  141.5270 O   0  0  0  0  0  0  0  0  0  0  0  0
  187.0640  177.3620  140.3880 C   0  0  0  0  0  1  0  0  0  0  0  0
  184.9400  178.6970  142.7440 O   0  0  0  0  0  0  0  0  0  0  0  0
  183.5780  178.3100  142.6400 C   0  0  0  0  0  1  0  0  0  0  0  0
  191.3280  176.0470  147.9570 N   0  0  0  0  0  0  0  0  0  0  0  0
  192.0190  175.2400  147.2590 N   0  0  0  0  0  2  0  0  0  0  0  0
  190.3800  176.7860  147.1290 C   0  0  0  0  0  3  0  0  0  0  0  0
  191.6240  175.3340  145.9030 C   0  0  0  0  0  0  0  0  0  0  0  0
  190.6530  176.2190  145.7750 C   0  0  0  0  0  0  0  0  0  0  0  0
  192.2470  174.5430  144.8010 C   0  0  0  0  0  2  0  0  0  0  0  0
  192.7780  175.4560  142.6050 N   0  0  0  0  0  1  0  0  0  0  0  0
  193.2010  175.4120  143.9950 C   0  0  2  0  0  3  0  0  0  0  0  0
  194.6480  174.9280  144.0980 C   0  0  0  0  0  2  0  0  0  0  0  0
  194.8990  174.1030  145.3630 C   0  0  2  0  0  3  0  0  0  0  0  0
  195.6870  174.8350  146.2570 O   0  0  0  0  0  1  0  0  0  0  0  0
  195.8250  172.6350  143.6420 N   0  0  0  0  0  1  0  0  0  0  0  0
  196.8160  172.5340  145.8480 C   0  0  0  0  0  1  0  0  0  0  0  0
  194.5580  171.6320  145.4290 C   0  0  0  0  0  1  0  0  0  0  0  0
  195.5320  172.7370  145.0620 C   0  0  0  0  0  0  0  0  0  0  0  0
  191.2500  178.4130  143.4890 O   0  0  0  0  0  1  0  0  0  0  0  0
  190.1600  178.1350  144.3130 C   0  0  0  0  0  2  0  0  0  0  0  0
  1 30  1  1  0  0  0
  1 18  1  0  0  0  0
  2  9  1  0  0  0  0
  3  7  2  0  0  0  0
  3  6  1  0  0  0  0
  5  1  1  6  0  0  0
  5  4  1  0  0  0  0
  6  2  2  0  0  0  0
  6  4  1  0  0  0  0
  7  5  1  0  0  0  0
  9  8  1  0  0  0  0
 10  3  1  0  0  0  0
 11 10  1  0  0  0  0
 12  2  1  0  0  0  0
 13 12  1  0  0  0  0
 15 14  1  0  0  0  0
 16 14  2  0  0  0  0
 17 15  1  0  0  0  0
 18 17  2  0  0  0  0
 18 16  1  0  0  0  0
 19 17  1  0  0  0  0
 21 20  1  6  0  0  0
 21 22  1  0  0  0  0
 21 19  1  0  0  0  0
 22 23  1  0  0  0  0
 23 24  1  1  0  0  0
 25 28  1  0  0  0  0
 28 23  1  0  0  0  0
 28 27  1  0  0  0  0
 28 26  1  0  0  0  0
 29 30  1  0  0  0  0
M  END
>  <MODEL>
7

>  <REMARK>
 VINA RESULT:      -5.6      3.017      7.132
  Name = 
  11 active torsions:
  status: ('A' for Active; 'I' for Inactive)
    1  A    between atoms: C_1  and  C_8
    2  A    between atoms: C_1  and  C_27
    3  A    between atoms: C_3  and  N_7
    4  A    between atoms: C_3  and  O_18
    5  A    between atoms: C_6  and  C_14
    6  A    between atoms: C_6  and  C_26
    7  A    between atoms: C_6  and  C_30
    8  A    between atoms: C_8  and  C_24
    9  A    between atoms: C_10  and  O_17
   10  A    between atoms: C_27  and  C_29
   11  A    between atoms: C_28  and  C_29
                            x       y       z     vdW  Elec       q    Type
                         _______ _______ _______ _____ _____    ______ ____

>  <TORSDO>
F 11

$$$$
=
 OpenBabel11062419423D

 30 31  0  0  1  0  0  0  0  0999 V2000
  192.1580  175.3900  145.0170 C   0  0  2  0  0  3  0  0  0  0  0  0
  196.1350  172.9810  144.2170 C   0  0  0  0  0  0  0  0  0  0  0  0
  195.3500  175.3280  143.9020 C   0  0  0  0  0  0  0  0  0  0  0  0
  194.2150  173.9840  145.4860 C   0  0  0  0  0  2  0  0  0  0  0  0
  193.6440  175.4110  145.4020 C   0  0  1  0  0  3  0  0  0  0  0  0
  195.3250  174.0080  144.4970 C   0  0  0  0  0  0  0  0  0  0  0  0
  194.4370  176.0970  144.3820 N   0  0  0  0  0  0  0  0  0  0  0  0
  196.9360  171.0560  145.7180 C   0  0  0  0  0  1  0  0  0  0  0  0
  195.9370  171.7390  144.9130 N   0  0  0  0  0  2  0  0  0  0  0  0
  196.2530  175.7370  142.9180 O   0  0  0  0  0  0  0  0  0  0  0  0
  197.1770  176.7910  143.1400 C   0  0  0  0  0  1  0  0  0  0  0  0
  197.1460  173.1570  143.2580 O   0  0  0  0  0  0  0  0  0  0  0  0
  197.2750  172.3820  142.0760 C   0  0  0  0  0  1  0  0  0  0  0  0
  190.4050  177.1640  147.8290 N   0  0  0  0  0  0  0  0  0  0  0  0
  189.7410  177.5380  146.8120 N   0  0  0  0  0  0  0  0  0  0  0  0
  191.4930  176.2670  147.4520 C   0  0  0  0  0  2  0  0  0  0  0  0
  190.2960  176.9530  145.6490 C   0  0  0  0  0  0  0  0  0  0  0  0
  191.3370  176.2070  145.9680 C   0  0  0  0  0  0  0  0  0  0  0  0
  189.7480  177.1570  144.2750 C   0  0  0  0  0  2  0  0  0  0  0  0
  188.2030  175.6360  143.1620 N   0  0  0  0  0  1  0  0  0  0  0  0
  188.3140  176.6550  144.1930 C   0  0  2  0  0  3  0  0  0  0  0  0
  187.3200  177.7880  143.9340 C   0  0  0  0  0  2  0  0  0  0  0  0
  186.4040  178.0460  145.1330 C   0  0  2  0  0  3  0  0  0  0  0  0
  186.2170  176.8590  145.8490 O   0  0  0  0  0  1  0  0  0  0  0  0
  184.4850  177.9070  143.6240 N   0  0  0  0  0  1  0  0  0  0  0  0
  184.0750  178.6660  145.8860 C   0  0  0  0  0  1  0  0  0  0  0  0
  185.2710  180.0920  144.2660 C   0  0  0  0  0  1  0  0  0  0  0  0
  185.0580  178.6620  144.7260 C   0  0  0  0  0  0  0  0  0  0  0  0
  191.0210  173.7050  143.7530 O   0  0  0  0  0  1  0  0  0  0  0  0
  191.6130  173.9680  144.9880 C   0  0  0  0  0  2  0  0  0  0  0  0
  1 30  1  1  0  0  0
  1 18  1  0  0  0  0
  2  6  2  0  0  0  0
  2  9  1  0  0  0  0
  3  7  2  0  0  0  0
  3  6  1  0  0  0  0
  5  1  1  6  0  0  0
  5  4  1  0  0  0  0
  6  4  1  0  0  0  0
  7  5  1  0  0  0  0
  9  8  1  0  0  0  0
 10 11  1  0  0  0  0
 10  3  1  0  0  0  0
 12  2  1  0  0  0  0
 13 12  1  0  0  0  0
 15 14  2  0  0  0  0
 16 14  1  0  0  0  0
 17 18  2  0  0  0  0
 17 15  1  0  0  0  0
 18 16  1  0  0  0  0
 19 17  1  0  0  0  0
 21 20  1  6  0  0  0
 21 19  1  0  0  0  0
 22 21  1  0  0  0  0
 22 23  1  0  0  0  0
 23 24  1  6  0  0  0
 25 28  1  0  0  0  0
 27 28  1  0  0  0  0
 28 23  1  0  0  0  0
 28 26  1  0  0  0  0
 29 30  1  0  0  0  0
M  END
>  <MODEL>
8

>  <REMARK>
 VINA RESULT:      -5.5      3.702      5.434
  Name = 
  11 active torsions:
  status: ('A' for Active; 'I' for Inactive)
    1  A    between atoms: C_1  and  C_8
    2  A    between atoms: C_1  and  C_27
    3  A    between atoms: C_3  and  N_7
    4  A    between atoms: C_3  and  O_18
    5  A    between atoms: C_6  and  C_14
    6  A    between atoms: C_6  and  C_26
    7  A    between atoms: C_6  and  C_30
    8  A    between atoms: C_8  and  C_24
    9  A    between atoms: C_10  and  O_17
   10  A    between atoms: C_27  and  C_29
   11  A    between atoms: C_28  and  C_29
                            x       y       z     vdW  Elec       q    Type
                         _______ _______ _______ _____ _____    ______ ____

>  <TORSDO>
F 11

$$$$
=
 OpenBabel11062419423D

 30 31  0  0  1  0  0  0  0  0999 V2000
  190.1580  176.4090  144.4870 C   0  0  2  0  0  3  0  0  0  0  0  0
  185.5960  177.4420  145.1040 C   0  0  0  0  0  0  0  0  0  0  0  0
  187.0030  176.5010  143.2720 C   0  0  0  0  0  0  0  0  0  0  0  0
  187.8280  176.3580  145.4860 C   0  0  0  0  0  2  0  0  0  0  0  0
  188.7820  175.7270  144.4570 C   0  0  1  0  0  3  0  0  0  0  0  0
  186.6920  176.8260  144.6490 C   0  0  0  0  0  0  0  0  0  0  0  0
  188.1400  175.9090  143.1550 N   0  0  0  0  0  0  0  0  0  0  0  0
  185.7440  178.9530  147.1770 C   0  0  0  0  0  1  0  0  0  0  0  0
  185.4810  177.6860  146.5160 N   0  0  0  0  0  2  0  0  0  0  0  0
  186.1790  176.7900  142.1830 O   0  0  0  0  0  0  0  0  0  0  0  0
  186.6710  177.4400  141.0210 C   0  0  0  0  0  1  0  0  0  0  0  0
  184.6020  177.8210  144.1880 O   0  0  0  0  0  0  0  0  0  0  0  0
  184.2520  179.1660  143.8940 C   0  0  0  0  0  1  0  0  0  0  0  0
  191.9200  175.6380  147.7170 N   0  0  0  0  0  0  0  0  0  0  0  0
  192.5470  174.9140  146.8820 N   0  0  0  0  0  0  0  0  0  0  0  0
  190.8510  176.3920  147.0680 C   0  0  0  0  0  2  0  0  0  0  0  0
  191.9840  175.0870  145.5950 C   0  0  0  0  0  0  0  0  0  0  0  0
  190.9750  175.9360  145.6520 C   0  0  0  0  0  0  0  0  0  0  0  0
  192.4940  174.4050  144.3680 C   0  0  0  0  0  2  0  0  0  0  0  0
  194.2430  172.7230  144.1540 N   0  0  0  0  0  1  0  0  0  0  0  0
  192.9150  172.9790  144.6880 C   0  0  2  0  0  3  0  0  0  0  0  0
  191.9170  171.9490  144.1550 C   0  0  0  0  0  2  0  0  0  0  0  0
  190.5450  172.5630  143.8650 C   0  0  2  0  0  3  0  0  0  0  0  0
  189.6360  172.1750  144.8540 O   0  0  0  0  0  1  0  0  0  0  0  0
  190.4290  170.8550  142.1200 N   0  0  0  0  0  1  0  0  0  0  0  0
  188.5070  172.3000  142.3980 C   0  0  0  0  0  1  0  0  0  0  0  0
  190.6140  173.1610  141.4440 C   0  0  0  0  0  1  0  0  0  0  0  0
  190.0230  172.2070  142.4650 C   0  0  0  0  0  0  0  0  0  0  0  0
  191.0820  178.5330  143.8860 O   0  0  0  0  0  1  0  0  0  0  0  0
  190.0230  177.9240  144.5600 C   0  0  0  0  0  2  0  0  0  0  0  0
  1 30  1  1  0  0  0
  1 18  1  0  0  0  0
  2  9  1  0  0  0  0
  3  6  1  0  0  0  0
  5  1  1  6  0  0  0
  5  4  1  0  0  0  0
  6  2  2  0  0  0  0
  6  4  1  0  0  0  0
  7  3  2  0  0  0  0
  7  5  1  0  0  0  0
  9  8  1  0  0  0  0
 10  3  1  0  0  0  0
 11 10  1  0  0  0  0
 12  2  1  0  0  0  0
 13 12  1  0  0  0  0
 15 14  2  0  0  0  0
 16 14  1  0  0  0  0
 17 18  2  0  0  0  0
 17 15  1  0  0  0  0
 18 16  1  0  0  0  0
 19 21  1  0  0  0  0
 19 17  1  0  0  0  0
 21 20  1  6  0  0  0
 22 21  1  0  0  0  0
 23 22  1  0  0  0  0
 23 24  1  1  0  0  0
 25 28  1  0  0  0  0
 26 28  1  0  0  0  0
 27 28  1  0  0  0  0
 28 23  1  0  0  0  0
 29 30  1  0  0  0  0
M  END
>  <MODEL>
9

>  <REMARK>
 VINA RESULT:      -5.5      2.081      6.242
  Name = 
  11 active torsions:
  status: ('A' for Active; 'I' for Inactive)
    1  A    between atoms: C_1  and  C_8
    2  A    between atoms: C_1  and  C_27
    3  A    between atoms: C_3  and  N_7
    4  A    between atoms: C_3  and  O_18
    5  A    between atoms: C_6  and  C_14
    6  A    between atoms: C_6  and  C_26
    7  A    between atoms: C_6  and  C_30
    8  A    between atoms: C_8  and  C_24
    9  A    between atoms: C_10  and  O_17
   10  A    between atoms: C_27  and  C_29
   11  A    between atoms: C_28  and  C_29
                            x       y       z     vdW  Elec       q    Type
                         _______ _______ _______ _____ _____    ______ ____

>  <TORSDO>
F 11

$$$$
