=
 OpenBabel11072409403D

 25 27  0  0  1  0  0  0  0  0999 V2000
  187.8820  176.5500  146.5320 C   0  0  0  0  0  0  0  0  0  0  0  0
  185.2620  178.7690  145.9680 C   0  0  0  0  0  0  0  0  0  0  0  0
  185.7110  177.1330  144.2600 C   0  0  0  0  0  0  0  0  0  0  0  0
  185.9330  177.6640  145.5310 C   0  0  0  0  0  0  0  0  0  0  0  0
  186.5930  178.3320  147.6440 C   0  0  0  0  0  3  0  0  0  0  0  0
  184.3530  179.4100  145.1900 N   0  0  0  0  0  0  0  0  0  0  0  0
  185.6760  179.1750  147.2680 N   0  0  0  0  0  0  0  0  0  0  0  0
  188.9980  174.5200  147.1920 C   0  0  0  0  0  1  0  0  0  0  0  0
  186.8180  177.2980  146.6220 C   0  0  0  0  0  0  0  0  0  0  0  0
  184.7650  177.7930  143.4510 C   0  0  0  0  0  3  0  0  0  0  0  0
  188.9480  175.8020  146.4330 C   0  0  0  0  0  0  0  0  0  0  0  0
  184.0930  178.9330  143.9370 C   0  0  0  0  0  3  0  0  0  0  0  0
  190.8560  178.0010  144.0690 O   0  0  0  0  0  0  0  0  0  0  0  0
  192.6060  177.3750  142.7070 O   0  0  0  0  0  0  0  0  0  0  0  0
  190.1160  176.2780  145.6210 C   0  0  1  0  0  3  0  0  0  0  0  0
  191.7610  175.6770  144.1750 C   0  0  0  0  0  2  0  0  0  0  0  0
  190.4730  175.3360  144.6340 O   0  0  0  0  0  0  0  0  0  0  0  0
  191.7580  177.0540  143.5770 C   0  0  0  0  0  0  0  0  0  0  0  0
  189.7930  177.6170  144.9440 C   0  0  0  0  0  2  0  0  0  0  0  0
  188.0520  174.8130  142.6230 O   0  0  0  0  0  0  0  0  0  0  0  0
  187.4530  175.9040  142.8070 C   0  0  0  0  0  0  0  0  0  0  0  0
  186.4420  175.9780  143.8220 N   0  0  0  0  0  2  0  0  0  0  0  0
  187.7880  177.0610  141.9250 C   0  0  0  0  0  2  0  0  0  0  0  0
  187.1380  176.8770  140.5680 C   0  0  0  0  0  2  0  0  0  0  0  0
  186.2930  177.9560  140.3090 O   0  0  0  0  0  1  0  0  0  0  0  0
  1  9  2  0  0  0  0
  2  7  1  0  0  0  0
  3  4  2  0  0  0  0
  4  2  1  0  0  0  0
  4  9  1  0  0  0  0
  6  2  2  0  0  0  0
  7  5  2  0  0  0  0
  9  5  1  0  0  0  0
 10 12  2  0  0  0  0
 10  3  1  0  0  0  0
 11  1  2  0  0  0  0
 11  8  1  0  0  0  0
 12  6  1  0  0  0  0
 13 19  1  0  0  0  0
 14 18  2  0  0  0  0
 15 11  1  6  0  0  0
 16 17  1  0  0  0  0
 17 15  1  0  0  0  0
 18 13  1  0  0  0  0
 18 16  1  0  0  0  0
 19 15  1  0  0  0  0
 20 21  2  0  0  0  0
 21 22  1  0  0  0  0
 22  3  1  0  0  0  0
 23 21  1  0  0  0  0
 24 23  1  0  0  0  0
 25 24  1  0  0  0  0
M  END
>  <MODEL>
1

>  <REMARK>
 VINA RESULT:      -7.2      0.000      0.000
  Name = 
  4 active torsions:
  status: ('A' for Active; 'I' for Inactive)
    1  A    between atoms: C_6  and  C_24
    2  A    between atoms: C_7  and  C_10
    3  A    between atoms: C_7  and  C_17
    4  A    between atoms: C_8  and  N_16
                            x       y       z     vdW  Elec       q    Type
                         _______ _______ _______ _____ _____    ______ ____

>  <TORSDO>
F 4

$$$$
=
 OpenBabel11072409403D

 25 27  0  0  1  0  0  0  0  0999 V2000
  188.1350  176.3710  146.7540 C   0  0  0  0  0  0  0  0  0  0  0  0
  185.9510  178.8450  145.6500 C   0  0  0  0  0  0  0  0  0  0  0  0
  186.9600  177.4350  143.9780 C   0  0  0  0  0  0  0  0  0  0  0  0
  186.7120  177.7630  145.3120 C   0  0  0  0  0  0  0  0  0  0  0  0
  186.5660  178.0730  147.5990 C   0  0  0  0  0  3  0  0  0  0  0  0
  185.4040  179.6580  144.7110 N   0  0  0  0  0  0  0  0  0  0  0  0
  185.8680  179.0300  147.0580 N   0  0  0  0  0  0  0  0  0  0  0  0
  188.8880  174.1870  147.4380 C   0  0  0  0  0  1  0  0  0  0  0  0
  187.1280  177.1790  146.5740 C   0  0  0  0  0  0  0  0  0  0  0  0
  186.3920  178.2740  143.0000 C   0  0  0  0  0  3  0  0  0  0  0  0
  189.1460  175.5630  146.9260 C   0  0  0  0  0  0  0  0  0  0  0  0
  185.6120  179.3840  143.3880 C   0  0  0  0  0  3  0  0  0  0  0  0
  192.7150  175.4240  145.7820 O   0  0  0  0  0  0  0  0  0  0  0  0
  194.4850  176.6330  146.6270 O   0  0  0  0  0  0  0  0  0  0  0  0
  190.5410  176.0560  146.6750 C   0  0  1  0  0  3  0  0  0  0  0  0
  192.3320  177.1350  147.5580 C   0  0  0  0  0  2  0  0  0  0  0  0
  191.2030  176.3570  147.8820 O   0  0  0  0  0  0  0  0  0  0  0  0
  193.2560  176.3700  146.6560 C   0  0  0  0  0  0  0  0  0  0  0  0
  191.3540  175.0070  145.9030 C   0  0  0  0  0  2  0  0  0  0  0  0
  189.7050  175.1910  142.9900 O   0  0  0  0  0  0  0  0  0  0  0  0
  189.1110  176.2920  143.1270 C   0  0  0  0  0  0  0  0  0  0  0  0
  187.7770  176.3010  143.6530 N   0  0  0  0  0  2  0  0  0  0  0  0
  189.8040  177.5380  142.6850 C   0  0  0  0  0  2  0  0  0  0  0  0
  190.6010  178.1180  143.8370 C   0  0  0  0  0  2  0  0  0  0  0  0
  191.9540  177.8340  143.6540 O   0  0  0  0  0  1  0  0  0  0  0  0
  1 11  2  0  0  0  0
  2  7  1  0  0  0  0
  3  4  2  0  0  0  0
  4  2  1  0  0  0  0
  4  9  1  0  0  0  0
  6  2  2  0  0  0  0
  7  5  2  0  0  0  0
  9  1  2  0  0  0  0
  9  5  1  0  0  0  0
 10 12  2  0  0  0  0
 10  3  1  0  0  0  0
 11  8  1  0  0  0  0
 12  6  1  0  0  0  0
 13 19  1  0  0  0  0
 13 18  1  0  0  0  0
 14 18  2  0  0  0  0
 15 11  1  1  0  0  0
 15 17  1  0  0  0  0
 16 17  1  0  0  0  0
 18 16  1  0  0  0  0
 19 15  1  0  0  0  0
 20 21  2  0  0  0  0
 21 22  1  0  0  0  0
 22  3  1  0  0  0  0
 23 21  1  0  0  0  0
 23 24  1  0  0  0  0
 25 24  1  0  0  0  0
M  END
>  <MODEL>
2

>  <REMARK>
 VINA RESULT:      -6.9      1.879      2.636
  Name = 
  4 active torsions:
  status: ('A' for Active; 'I' for Inactive)
    1  A    between atoms: C_6  and  C_24
    2  A    between atoms: C_7  and  C_10
    3  A    between atoms: C_7  and  C_17
    4  A    between atoms: C_8  and  N_16
                            x       y       z     vdW  Elec       q    Type
                         _______ _______ _______ _____ _____    ______ ____

>  <TORSDO>
F 4

$$$$
=
 OpenBabel11072409403D

 25 27  0  0  1  0  0  0  0  0999 V2000
  188.5440  175.9420  146.0850 C   0  0  0  0  0  0  0  0  0  0  0  0
  185.9270  178.2300  146.2450 C   0  0  0  0  0  0  0  0  0  0  0  0
  187.0820  178.0190  144.1430 C   0  0  0  0  0  0  0  0  0  0  0  0
  186.8430  177.6000  145.4530 C   0  0  0  0  0  0  0  0  0  0  0  0
  186.7510  176.7160  147.5880 C   0  0  0  0  0  3  0  0  0  0  0  0
  185.2090  179.2940  145.8050 N   0  0  0  0  0  0  0  0  0  0  0  0
  185.8790  177.6820  147.5580 N   0  0  0  0  0  0  0  0  0  0  0  0
  189.6840  173.8680  145.6380 C   0  0  0  0  0  1  0  0  0  0  0  0
  187.4080  176.5510  146.2810 C   0  0  0  0  0  0  0  0  0  0  0  0
  186.3360  179.1200  143.6800 C   0  0  0  0  0  3  0  0  0  0  0  0
  189.6840  175.3390  145.8810 C   0  0  0  0  0  0  0  0  0  0  0  0
  185.4000  179.7460  144.5290 C   0  0  0  0  0  3  0  0  0  0  0  0
  192.6410  177.2870  144.6460 O   0  0  0  0  0  0  0  0  0  0  0  0
  194.7090  177.4430  145.6480 O   0  0  0  0  0  0  0  0  0  0  0  0
  190.9630  176.1180  145.9660 C   0  0  1  0  0  3  0  0  0  0  0  0
  193.0500  176.2000  146.8550 C   0  0  0  0  0  2  0  0  0  0  0  0
  192.0140  175.3260  146.4700 O   0  0  0  0  0  0  0  0  0  0  0  0
  193.5380  176.9880  145.6740 C   0  0  0  0  0  0  0  0  0  0  0  0
  191.3580  176.6590  144.5850 C   0  0  0  0  0  2  0  0  0  0  0  0
  188.8910  176.2790  141.4510 O   0  0  0  0  0  0  0  0  0  0  0  0
  187.8860  176.7460  142.0480 C   0  0  0  0  0  0  0  0  0  0  0  0
  188.0620  177.3470  143.3380 N   0  0  0  0  0  2  0  0  0  0  0  0
  186.5450  176.6060  141.4060 C   0  0  0  0  0  2  0  0  0  0  0  0
  186.4570  177.5160  140.1970 C   0  0  0  0  0  2  0  0  0  0  0  0
  185.3820  178.3900  140.3520 O   0  0  0  0  0  1  0  0  0  0  0  0
  1  9  2  0  0  0  0
  2  7  1  0  0  0  0
  3  4  2  0  0  0  0
  4  2  1  0  0  0  0
  4  9  1  0  0  0  0
  6  2  2  0  0  0  0
  7  5  2  0  0  0  0
  8 11  1  0  0  0  0
  9  5  1  0  0  0  0
 10  3  1  0  0  0  0
 10 12  2  0  0  0  0
 11  1  2  0  0  0  0
 12  6  1  0  0  0  0
 13 18  1  0  0  0  0
 14 18  2  0  0  0  0
 15 11  1  6  0  0  0
 15 17  1  0  0  0  0
 17 16  1  0  0  0  0
 18 16  1  0  0  0  0
 19 13  1  0  0  0  0
 19 15  1  0  0  0  0
 20 21  2  0  0  0  0
 21 22  1  0  0  0  0
 22  3  1  0  0  0  0
 23 21  1  0  0  0  0
 24 25  1  0  0  0  0
 24 23  1  0  0  0  0
M  END
>  <MODEL>
3

>  <REMARK>
 VINA RESULT:      -6.7      1.724      1.814
  Name = 
  4 active torsions:
  status: ('A' for Active; 'I' for Inactive)
    1  A    between atoms: C_6  and  C_24
    2  A    between atoms: C_7  and  C_10
    3  A    between atoms: C_7  and  C_17
    4  A    between atoms: C_8  and  N_16
                            x       y       z     vdW  Elec       q    Type
                         _______ _______ _______ _____ _____    ______ ____

>  <TORSDO>
F 4

$$$$
=
 OpenBabel11072409403D

 25 27  0  0  1  0  0  0  0  0999 V2000
  188.8660  175.8090  145.5880 C   0  0  0  0  0  0  0  0  0  0  0  0
  186.1880  177.9600  145.0340 C   0  0  0  0  0  0  0  0  0  0  0  0
  187.6280  177.4850  143.1630 C   0  0  0  0  0  0  0  0  0  0  0  0
  187.2220  177.2630  144.4800 C   0  0  0  0  0  0  0  0  0  0  0  0
  186.8610  176.7150  146.6970 C   0  0  0  0  0  3  0  0  0  0  0  0
  185.5070  178.9070  144.3380 N   0  0  0  0  0  0  0  0  0  0  0  0
  185.9740  177.6200  146.3990 N   0  0  0  0  0  0  0  0  0  0  0  0
  190.1160  173.7510  145.6320 C   0  0  0  0  0  1  0  0  0  0  0  0
  187.6970  176.3840  145.5330 C   0  0  0  0  0  0  0  0  0  0  0  0
  186.9220  178.4630  142.4360 C   0  0  0  0  0  3  0  0  0  0  0  0
  190.0400  175.2390  145.6350 C   0  0  0  0  0  0  0  0  0  0  0  0
  185.8590  179.1650  143.0430 C   0  0  0  0  0  3  0  0  0  0  0  0
  193.0500  177.1680  144.5010 O   0  0  0  0  0  0  0  0  0  0  0  0
  194.9810  177.5460  145.6990 O   0  0  0  0  0  0  0  0  0  0  0  0
  191.2720  176.0860  145.7630 C   0  0  1  0  0  3  0  0  0  0  0  0
  193.2380  176.3780  146.8610 C   0  0  0  0  0  2  0  0  0  0  0  0
  192.2850  175.4140  146.4770 O   0  0  0  0  0  0  0  0  0  0  0  0
  193.8310  177.0410  145.6520 C   0  0  0  0  0  0  0  0  0  0  0  0
  191.8060  176.4740  144.3770 C   0  0  0  0  0  2  0  0  0  0  0  0
  189.7780  174.9550  141.5760 O   0  0  0  0  0  0  0  0  0  0  0  0
  188.7290  175.4050  142.1070 C   0  0  0  0  0  0  0  0  0  0  0  0
  188.7290  176.7470  142.6130 N   0  0  0  0  0  2  0  0  0  0  0  0
  187.5470  174.5020  142.2330 C   0  0  0  0  0  2  0  0  0  0  0  0
  187.8720  173.1440  141.6430 C   0  0  0  0  0  2  0  0  0  0  0  0
  188.3000  172.2890  142.6570 O   0  0  0  0  0  1  0  0  0  0  0  0
  1 11  2  0  0  0  0
  2  7  1  0  0  0  0
  3  4  2  0  0  0  0
  4  2  1  0  0  0  0
  4  9  1  0  0  0  0
  6  2  2  0  0  0  0
  7  5  2  0  0  0  0
  8 11  1  0  0  0  0
  9  1  2  0  0  0  0
  9  5  1  0  0  0  0
 10 12  2  0  0  0  0
 10  3  1  0  0  0  0
 12  6  1  0  0  0  0
 13 18  1  0  0  0  0
 15 11  1  6  0  0  0
 15 17  1  0  0  0  0
 17 16  1  0  0  0  0
 18 14  2  0  0  0  0
 18 16  1  0  0  0  0
 19 13  1  0  0  0  0
 19 15  1  0  0  0  0
 20 21  2  0  0  0  0
 21 23  1  0  0  0  0
 21 22  1  0  0  0  0
 22  3  1  0  0  0  0
 24 23  1  0  0  0  0
 24 25  1  0  0  0  0
M  END
>  <MODEL>
4

>  <REMARK>
 VINA RESULT:      -6.6      2.004      2.619
  Name = 
  4 active torsions:
  status: ('A' for Active; 'I' for Inactive)
    1  A    between atoms: C_6  and  C_24
    2  A    between atoms: C_7  and  C_10
    3  A    between atoms: C_7  and  C_17
    4  A    between atoms: C_8  and  N_16
                            x       y       z     vdW  Elec       q    Type
                         _______ _______ _______ _____ _____    ______ ____

>  <TORSDO>
F 4

$$$$
=
 OpenBabel11072409403D

 25 27  0  0  1  0  0  0  0  0999 V2000
  189.2690  175.5270  145.2460 C   0  0  0  0  0  0  0  0  0  0  0  0
  189.7510  172.6540  143.3420 C   0  0  0  0  0  0  0  0  0  0  0  0
  189.6240  174.7520  142.1650 C   0  0  0  0  0  0  0  0  0  0  0  0
  189.6860  174.0180  143.3510 C   0  0  0  0  0  0  0  0  0  0  0  0
  189.6910  173.1100  145.4770 C   0  0  0  0  0  3  0  0  0  0  0  0
  189.7530  171.9440  142.1850 N   0  0  0  0  0  0  0  0  0  0  0  0
  189.7510  172.1040  144.6540 N   0  0  0  0  0  0  0  0  0  0  0  0
  189.8260  177.5290  146.4640 C   0  0  0  0  0  1  0  0  0  0  0  0
  189.6770  174.3910  144.7530 C   0  0  0  0  0  0  0  0  0  0  0  0
  189.6300  174.0190  140.9620 C   0  0  0  0  0  3  0  0  0  0  0  0
  188.8560  176.6670  145.7310 C   0  0  0  0  0  0  0  0  0  0  0  0
  189.6970  172.6110  140.9930 C   0  0  0  0  0  3  0  0  0  0  0  0
  185.8930  178.9330  145.3410 O   0  0  0  0  0  0  0  0  0  0  0  0
  183.7520  178.5520  146.1020 O   0  0  0  0  0  0  0  0  0  0  0  0
  187.4100  177.0470  145.6030 C   0  0  1  0  0  3  0  0  0  0  0  0
  185.3190  176.7680  146.4430 C   0  0  0  0  0  2  0  0  0  0  0  0
  186.6890  176.7210  146.7700 O   0  0  0  0  0  0  0  0  0  0  0  0
  184.9360  178.1450  145.9840 C   0  0  0  0  0  0  0  0  0  0  0  0
  187.2710  178.5520  145.3300 C   0  0  0  0  0  2  0  0  0  0  0  0
  188.4840  178.2500  142.2300 O   0  0  0  0  0  0  0  0  0  0  0  0
  188.3730  177.0060  142.0750 C   0  0  0  0  0  0  0  0  0  0  0  0
  189.5410  176.1840  142.2060 N   0  0  0  0  0  2  0  0  0  0  0  0
  187.0380  176.4480  141.7120 C   0  0  0  0  0  2  0  0  0  0  0  0
  186.0080  177.5590  141.6780 C   0  0  0  0  0  2  0  0  0  0  0  0
  185.0000  177.2850  142.6030 O   0  0  0  0  0  1  0  0  0  0  0  0
  1 11  2  0  0  0  0
  2  4  1  0  0  0  0
  2  7  1  0  0  0  0
  3 22  1  0  0  0  0
  3  4  2  0  0  0  0
  4  9  1  0  0  0  0
  6  2  2  0  0  0  0
  7  5  2  0  0  0  0
  9  1  2  0  0  0  0
  9  5  1  0  0  0  0
 10 12  2  0  0  0  0
 10  3  1  0  0  0  0
 11  8  1  0  0  0  0
 12  6  1  0  0  0  0
 13 18  1  0  0  0  0
 15 11  1  1  0  0  0
 15 17  1  0  0  0  0
 16 17  1  0  0  0  0
 18 14  2  0  0  0  0
 18 16  1  0  0  0  0
 19 13  1  0  0  0  0
 19 15  1  0  0  0  0
 21 22  1  0  0  0  0
 21 20  2  0  0  0  0
 23 21  1  0  0  0  0
 24 23  1  0  0  0  0
 24 25  1  0  0  0  0
M  END
>  <MODEL>
5

>  <REMARK>
 VINA RESULT:      -6.3      3.206      5.605
  Name = 
  4 active torsions:
  status: ('A' for Active; 'I' for Inactive)
    1  A    between atoms: C_6  and  C_24
    2  A    between atoms: C_7  and  C_10
    3  A    between atoms: C_7  and  C_17
    4  A    between atoms: C_8  and  N_16
                            x       y       z     vdW  Elec       q    Type
                         _______ _______ _______ _____ _____    ______ ____

>  <TORSDO>
F 4

$$$$
=
 OpenBabel11072409403D

 25 27  0  0  1  0  0  0  0  0999 V2000
  188.5650  176.1230  145.7000 C   0  0  0  0  0  0  0  0  0  0  0  0
  186.8980  177.7390  143.1070 C   0  0  0  0  0  0  0  0  0  0  0  0
  188.0720  175.7060  142.5690 C   0  0  0  0  0  0  0  0  0  0  0  0
  187.5990  176.6350  143.4970 C   0  0  0  0  0  0  0  0  0  0  0  0
  187.0370  178.0090  145.2700 C   0  0  0  0  0  3  0  0  0  0  0  0
  186.6310  177.9930  141.8000 N   0  0  0  0  0  0  0  0  0  0  0  0
  186.5590  178.5800  144.2030 N   0  0  0  0  0  0  0  0  0  0  0  0
  188.9480  174.5470  147.4800 C   0  0  0  0  0  1  0  0  0  0  0  0
  187.6980  176.7360  144.9420 C   0  0  0  0  0  0  0  0  0  0  0  0
  187.7930  175.9640  141.2120 C   0  0  0  0  0  3  0  0  0  0  0  0
  189.4380  175.5070  146.4500 C   0  0  0  0  0  0  0  0  0  0  0  0
  187.0670  177.1170  140.8470 C   0  0  0  0  0  3  0  0  0  0  0  0
  192.5100  177.0900  144.9950 O   0  0  0  0  0  0  0  0  0  0  0  0
  194.6560  176.2540  145.0570 O   0  0  0  0  0  0  0  0  0  0  0  0
  190.8960  175.8300  146.3110 C   0  0  1  0  0  3  0  0  0  0  0  0
  193.0020  174.9840  146.2410 C   0  0  0  0  0  2  0  0  0  0  0  0
  191.6470  174.6780  145.9990 O   0  0  0  0  0  0  0  0  0  0  0  0
  193.4470  176.1240  145.3720 C   0  0  0  0  0  0  0  0  0  0  0  0
  191.1130  176.8830  145.2160 C   0  0  0  0  0  2  0  0  0  0  0  0
  190.7210  173.2890  143.3970 O   0  0  0  0  0  0  0  0  0  0  0  0
  190.2250  174.3160  142.8630 C   0  0  0  0  0  0  0  0  0  0  0  0
  188.8190  174.5630  143.0070 N   0  0  0  0  0  2  0  0  0  0  0  0
  191.1150  175.2050  142.0600 C   0  0  0  0  0  2  0  0  0  0  0  0
  192.5260  174.6500  142.0540 C   0  0  0  0  0  2  0  0  0  0  0  0
  193.4310  175.6890  141.8410 O   0  0  0  0  0  1  0  0  0  0  0  0
  1 11  2  0  0  0  0
  2  4  1  0  0  0  0
  2  7  1  0  0  0  0
  3 22  1  0  0  0  0
  3  4  2  0  0  0  0
  4  9  1  0  0  0  0
  6  2  2  0  0  0  0
  7  5  2  0  0  0  0
  9  5  1  0  0  0  0
  9  1  2  0  0  0  0
 10  3  1  0  0  0  0
 11  8  1  0  0  0  0
 12 10  2  0  0  0  0
 12  6  1  0  0  0  0
 13 19  1  0  0  0  0
 13 18  1  0  0  0  0
 14 18  2  0  0  0  0
 15 11  1  6  0  0  0
 17 16  1  0  0  0  0
 17 15  1  0  0  0  0
 18 16  1  0  0  0  0
 19 15  1  0  0  0  0
 21 22  1  0  0  0  0
 21 20  2  0  0  0  0
 23 21  1  0  0  0  0
 24 23  1  0  0  0  0
 25 24  1  0  0  0  0
M  END
>  <MODEL>
6

>  <REMARK>
 VINA RESULT:      -6.3      2.390      3.371
  Name = 
  4 active torsions:
  status: ('A' for Active; 'I' for Inactive)
    1  A    between atoms: C_6  and  C_24
    2  A    between atoms: C_7  and  C_10
    3  A    between atoms: C_7  and  C_17
    4  A    between atoms: C_8  and  N_16
                            x       y       z     vdW  Elec       q    Type
                         _______ _______ _______ _____ _____    ______ ____

>  <TORSDO>
F 4

$$$$
=
 OpenBabel11072409403D

 25 27  0  0  1  0  0  0  0  0999 V2000
  189.3470  175.1100  145.6940 C   0  0  0  0  0  0  0  0  0  0  0  0
  189.6340  172.6940  143.2060 C   0  0  0  0  0  0  0  0  0  0  0  0
  189.5230  174.9950  142.5040 C   0  0  0  0  0  0  0  0  0  0  0  0
  189.6170  174.0260  143.5040 C   0  0  0  0  0  0  0  0  0  0  0  0
  189.6960  172.6900  145.3890 C   0  0  0  0  0  3  0  0  0  0  0  0
  189.5540  172.2450  141.9270 N   0  0  0  0  0  0  0  0  0  0  0  0
  189.6790  171.8790  144.3710 N   0  0  0  0  0  0  0  0  0  0  0  0
  190.0330  176.7960  147.2720 C   0  0  0  0  0  1  0  0  0  0  0  0
  189.6910  174.0950  144.9520 C   0  0  0  0  0  0  0  0  0  0  0  0
  189.4440  174.5340  141.1760 C   0  0  0  0  0  3  0  0  0  0  0  0
  188.9980  176.1320  146.4290 C   0  0  0  0  0  0  0  0  0  0  0  0
  189.4630  173.1490  140.9070 C   0  0  0  0  0  3  0  0  0  0  0  0
  185.7150  177.3520  145.0890 O   0  0  0  0  0  0  0  0  0  0  0  0
  184.1240  178.5690  146.2270 O   0  0  0  0  0  0  0  0  0  0  0  0
  187.5620  176.5650  146.4650 C   0  0  1  0  0  3  0  0  0  0  0  0
  186.0260  177.8680  147.5110 C   0  0  0  0  0  2  0  0  0  0  0  0
  187.4000  177.7390  147.2280 O   0  0  0  0  0  0  0  0  0  0  0  0
  185.2370  177.9840  146.2390 C   0  0  0  0  0  0  0  0  0  0  0  0
  187.0380  176.8140  145.0430 C   0  0  0  0  0  2  0  0  0  0  0  0
  190.3790  178.4880  143.2870 O   0  0  0  0  0  0  0  0  0  0  0  0
  190.6010  177.2660  143.0840 C   0  0  0  0  0  0  0  0  0  0  0  0
  189.4920  176.3880  142.8490 N   0  0  0  0  0  2  0  0  0  0  0  0
  192.0100  176.7760  143.1480 C   0  0  0  0  0  2  0  0  0  0  0  0
  192.5250  176.8750  144.5700 C   0  0  0  0  0  2  0  0  0  0  0  0
  192.8170  175.5980  145.0460 O   0  0  0  0  0  1  0  0  0  0  0  0
  1 11  2  0  0  0  0
  2  4  1  0  0  0  0
  2  7  1  0  0  0  0
  3 22  1  0  0  0  0
  3  4  2  0  0  0  0
  4  9  1  0  0  0  0
  6  2  2  0  0  0  0
  7  5  2  0  0  0  0
  9  5  1  0  0  0  0
  9  1  2  0  0  0  0
 10  3  1  0  0  0  0
 11  8  1  0  0  0  0
 12 10  2  0  0  0  0
 12  6  1  0  0  0  0
 13 18  1  0  0  0  0
 14 18  2  0  0  0  0
 15 11  1  6  0  0  0
 15 17  1  0  0  0  0
 17 16  1  0  0  0  0
 18 16  1  0  0  0  0
 19 13  1  0  0  0  0
 19 15  1  0  0  0  0
 21 23  1  0  0  0  0
 21 20  2  0  0  0  0
 22 21  1  0  0  0  0
 23 24  1  0  0  0  0
 24 25  1  0  0  0  0
M  END
>  <MODEL>
7

>  <REMARK>
 VINA RESULT:      -6.2      3.012      5.996
  Name = 
  4 active torsions:
  status: ('A' for Active; 'I' for Inactive)
    1  A    between atoms: C_6  and  C_24
    2  A    between atoms: C_7  and  C_10
    3  A    between atoms: C_7  and  C_17
    4  A    between atoms: C_8  and  N_16
                            x       y       z     vdW  Elec       q    Type
                         _______ _______ _______ _____ _____    ______ ____

>  <TORSDO>
F 4

$$$$
=
 OpenBabel11072409403D

 25 27  0  0  1  0  0  0  0  0999 V2000
  189.3940  177.7120  143.8190 C   0  0  0  0  0  0  0  0  0  0  0  0
  186.0100  177.6060  144.6260 C   0  0  0  0  0  0  0  0  0  0  0  0
  187.5840  177.2720  146.4180 C   0  0  0  0  0  0  0  0  0  0  0  0
  187.2930  177.5960  145.0910 C   0  0  0  0  0  0  0  0  0  0  0  0
  187.1650  178.0890  142.8360 C   0  0  0  0  0  3  0  0  0  0  0  0
  184.9560  177.2980  145.4230 N   0  0  0  0  0  0  0  0  0  0  0  0
  185.9410  177.9070  143.2370 N   0  0  0  0  0  0  0  0  0  0  0  0
  191.6070  178.6240  143.5500 C   0  0  0  0  0  1  0  0  0  0  0  0
  188.1170  177.9450  143.9490 C   0  0  0  0  0  0  0  0  0  0  0  0
  186.4920  176.9560  147.2500 C   0  0  0  0  0  3  0  0  0  0  0  0
  190.6720  177.4730  143.6970 C   0  0  0  0  0  0  0  0  0  0  0  0
  185.1810  176.9760  146.7320 C   0  0  0  0  0  3  0  0  0  0  0  0
  193.0710  174.6160  144.0850 O   0  0  0  0  0  0  0  0  0  0  0  0
  193.1160  172.6730  142.8490 O   0  0  0  0  0  0  0  0  0  0  0  0
  191.1590  176.0550  143.6370 C   0  0  1  0  0  3  0  0  0  0  0  0
  191.3160  174.1820  142.3640 C   0  0  0  0  0  2  0  0  0  0  0  0
  191.2080  175.5860  142.3090 O   0  0  0  0  0  0  0  0  0  0  0  0
  192.5700  173.7800  143.0840 C   0  0  0  0  0  0  0  0  0  0  0  0
  192.5560  175.9380  144.2630 C   0  0  0  0  0  2  0  0  0  0  0  0
  190.9950  176.3050  147.4030 O   0  0  0  0  0  0  0  0  0  0  0  0
  189.7930  176.1170  147.0840 C   0  0  0  0  0  0  0  0  0  0  0  0
  188.9440  177.2550  146.8750 N   0  0  0  0  0  2  0  0  0  0  0  0
  189.2900  174.7150  146.9860 C   0  0  0  0  0  2  0  0  0  0  0  0
  189.3830  174.2350  145.5510 C   0  0  0  0  0  2  0  0  0  0  0  0
  189.7490  172.8890  145.5370 O   0  0  0  0  0  1  0  0  0  0  0  0
  1  9  2  0  0  0  0
  2  4  1  0  0  0  0
  2  6  2  0  0  0  0
  3 22  1  0  0  0  0
  3 10  1  0  0  0  0
  4  3  2  0  0  0  0
  5  7  2  0  0  0  0
  5  9  1  0  0  0  0
  6 12  1  0  0  0  0
  7  2  1  0  0  0  0
  8 11  1  0  0  0  0
  9  4  1  0  0  0  0
 11  1  2  0  0  0  0
 12 10  2  0  0  0  0
 13 19  1  0  0  0  0
 14 18  2  0  0  0  0
 15 11  1  6  0  0  0
 15 19  1  0  0  0  0
 16 18  1  0  0  0  0
 17 16  1  0  0  0  0
 17 15  1  0  0  0  0
 18 13  1  0  0  0  0
 21 20  2  0  0  0  0
 22 21  1  0  0  0  0
 23 21  1  0  0  0  0
 24 23  1  0  0  0  0
 25 24  1  0  0  0  0
M  END
>  <MODEL>
8

>  <REMARK>
 VINA RESULT:      -6.2      2.186      4.241
  Name = 
  4 active torsions:
  status: ('A' for Active; 'I' for Inactive)
    1  A    between atoms: C_6  and  C_24
    2  A    between atoms: C_7  and  C_10
    3  A    between atoms: C_7  and  C_17
    4  A    between atoms: C_8  and  N_16
                            x       y       z     vdW  Elec       q    Type
                         _______ _______ _______ _____ _____    ______ ____

>  <TORSDO>
F 4

$$$$
=
 OpenBabel11072409403D

 25 27  0  0  1  0  0  0  0  0999 V2000
  189.8760  176.8880  144.8190 C   0  0  0  0  0  0  0  0  0  0  0  0
  187.8100  178.0820  142.2860 C   0  0  0  0  0  0  0  0  0  0  0  0
  186.7580  176.9190  144.1130 C   0  0  0  0  0  0  0  0  0  0  0  0
  187.8820  177.4900  143.5140 C   0  0  0  0  0  0  0  0  0  0  0  0
  189.9320  178.2600  142.7730 C   0  0  0  0  0  3  0  0  0  0  0  0
  186.6500  178.1390  141.5840 N   0  0  0  0  0  0  0  0  0  0  0  0
  189.0760  178.5500  141.8360 N   0  0  0  0  0  0  0  0  0  0  0  0
  191.0350  176.8380  146.9300 C   0  0  0  0  0  1  0  0  0  0  0  0
  189.2720  177.6060  143.9140 C   0  0  0  0  0  0  0  0  0  0  0  0
  185.5510  176.9800  143.3900 C   0  0  0  0  0  3  0  0  0  0  0  0
  190.4720  176.1620  145.7260 C   0  0  0  0  0  0  0  0  0  0  0  0
  185.5170  177.5980  142.1230 C   0  0  0  0  0  3  0  0  0  0  0  0
  192.1780  172.9910  144.6800 O   0  0  0  0  0  0  0  0  0  0  0  0
  191.1660  171.0470  143.9700 O   0  0  0  0  0  0  0  0  0  0  0  0
  190.6410  174.6880  145.5050 C   0  0  1  0  0  3  0  0  0  0  0  0
  189.6900  172.7970  144.6840 C   0  0  0  0  0  2  0  0  0  0  0  0
  189.7110  174.2010  144.5640 O   0  0  0  0  0  0  0  0  0  0  0  0
  191.0470  172.2250  144.3910 C   0  0  0  0  0  0  0  0  0  0  0  0
  192.0620  174.3750  145.0150 C   0  0  0  0  0  2  0  0  0  0  0  0
  186.6620  176.1220  147.7040 O   0  0  0  0  0  0  0  0  0  0  0  0
  186.5990  176.8600  146.6870 C   0  0  0  0  0  0  0  0  0  0  0  0
  186.8660  176.2900  145.3980 N   0  0  0  0  0  2  0  0  0  0  0  0
  186.2970  178.3100  146.8740 C   0  0  0  0  0  2  0  0  0  0  0  0
  184.8010  178.5110  147.0070 C   0  0  0  0  0  2  0  0  0  0  0  0
  184.2970  179.0410  145.8190 O   0  0  0  0  0  1  0  0  0  0  0  0
  1 11  2  0  0  0  0
  2  4  1  0  0  0  0
  3 22  1  0  0  0  0
  4  9  1  0  0  0  0
  4  3  2  0  0  0  0
  5  9  1  0  0  0  0
  6 12  1  0  0  0  0
  6  2  2  0  0  0  0
  7  2  1  0  0  0  0
  7  5  2  0  0  0  0
  9  1  2  0  0  0  0
 10  3  1  0  0  0  0
 11  8  1  0  0  0  0
 12 10  2  0  0  0  0
 13 19  1  0  0  0  0
 14 18  2  0  0  0  0
 15 11  1  6  0  0  0
 17 16  1  0  0  0  0
 17 15  1  0  0  0  0
 18 13  1  0  0  0  0
 18 16  1  0  0  0  0
 19 15  1  0  0  0  0
 21 23  1  0  0  0  0
 21 20  2  0  0  0  0
 22 21  1  0  0  0  0
 23 24  1  0  0  0  0
 25 24  1  0  0  0  0
M  END
>  <MODEL>
9

>  <REMARK>
 VINA RESULT:      -6.2      2.590      4.281
  Name = 
  4 active torsions:
  status: ('A' for Active; 'I' for Inactive)
    1  A    between atoms: C_6  and  C_24
    2  A    between atoms: C_7  and  C_10
    3  A    between atoms: C_7  and  C_17
    4  A    between atoms: C_8  and  N_16
                            x       y       z     vdW  Elec       q    Type
                         _______ _______ _______ _____ _____    ______ ____

>  <TORSDO>
F 4

$$$$
