=
 OpenBabel11062420403D

 60 68  0  0  1  0  0  0  0  0999 V2000
  187.5090  176.1860  147.0420 C   0  0  0  0  0  2  0  0  0  0  0  0
  186.8740  177.4790  146.5220 C   0  0  2  0  0  3  0  0  0  0  0  0
  186.1740  179.3890  147.8170 F   0  0  0  0  0  0  0  0  0  0  0  0
  185.8330  177.3240  148.6600 F   0  0  0  0  0  0  0  0  0  0  0  0
  184.5710  178.0500  146.9490 F   0  0  0  0  0  0  0  0  0  0  0  0
  185.8450  178.0780  147.4960 C   0  0  0  0  0  0  0  0  0  0  0  0
  186.2570  177.2100  145.2220 N   0  0  0  0  0  2  0  0  0  0  0  0
  186.8010  178.0770  144.1670 C   0  0  2  0  0  0  0  0  0  0  0  0
  188.1230  178.4240  144.4670 O   0  0  0  0  0  1  0  0  0  0  0  0
  185.9930  179.2860  144.0640 N   0  0  0  0  0  1  0  0  0  0  0  0
  186.7870  177.2980  142.8320 C   0  0  2  0  0  3  0  0  0  0  0  0
  184.3660  177.7340  142.5270 N   0  0  0  0  0  0  0  0  0  0  0  0
  182.1070  178.3700  142.4110 F   0  0  0  0  0  0  0  0  0  0  0  0
  185.5850  177.5360  141.9460 C   0  0  0  0  0  0  0  0  0  0  0  0
  183.2960  178.1590  141.8030 C   0  0  0  0  0  0  0  0  0  0  0  0
  185.7470  177.7950  140.5770 C   0  0  0  0  0  3  0  0  0  0  0  0
  184.6580  178.2140  139.8190 C   0  0  0  0  0  3  0  0  0  0  0  0
  183.4250  178.4080  140.4340 C   0  0  0  0  0  3  0  0  0  0  0  0
  186.9370  175.8700  143.0630 N   0  0  0  0  0  2  0  0  0  0  0  0
  188.2770  175.5570  142.7960 N   0  0  0  0  0  2  0  0  0  0  0  0
  190.7420  171.9730  141.1340 O   0  0  0  0  0  0  0  0  0  0  0  0
  189.5600  173.4000  138.8200 C   0  0  0  0  0  2  0  0  0  0  0  0
  187.8320  174.8940  139.5510 C   0  0  0  0  0  2  0  0  0  0  0  0
  188.3770  174.1950  138.3100 C   0  0  0  0  0  2  0  0  0  0  0  0
  188.8860  174.9020  140.5620 N   0  0  2  0  0  0  0  0  0  0  0  0
  189.7570  173.8750  140.1680 N   0  0  0  0  0  0  0  0  0  0  0  0
  188.3120  174.4520  141.8470 C   0  0  1  0  0  3  0  0  0  0  0  0
  189.9900  172.9790  141.2260 C   0  0  0  0  0  0  0  0  0  0  0  0
  189.2260  173.3580  142.4170 C   0  0  2  0  0  3  0  0  0  0  0  0
  188.3950  172.2010  142.9490 C   0  0  0  0  0  2  0  0  0  0  0  0
  187.1510  172.2090  142.3070 O   0  0  0  0  0  1  0  0  0  0  0  0
  188.9870  176.1480  146.7070 C   0  0  0  0  0  2  0  0  0  0  0  0
  191.3090  175.2770  147.7730 S   0  0  0  0  0  0  0  0  0  0  0  0
  189.6420  174.8800  147.2240 C   0  0  2  0  0  3  0  0  0  0  0  0
  189.7990  173.8780  146.1060 C   0  0  0  0  0  2  0  0  0  0  0  0
  190.9250  174.2800  145.2800 N   0  0  0  0  0  2  0  0  0  0  0  0
  191.9930  174.7180  146.1810 C   0  0  1  0  0  3  0  0  0  0  0  0
  191.9510  176.8660  144.9680 N   0  0  0  0  0  0  0  0  0  0  0  0
  193.6720  175.4150  144.4290 C   0  0  0  0  0  0  0  0  0  0  0  0
  192.8160  175.8580  145.5680 C   0  0  2  0  0  3  0  0  0  0  0  0
  193.3480  176.1790  143.2030 C   0  0  2  0  0  3  0  0  0  0  0  0
  195.1750  174.6830  139.8160 C   0  0  2  0  0  0  0  0  0  0  0  0
  194.3180  173.1280  140.2950 S   0  0  0  0  0  0  0  0  0  0  0  0
  195.9690  174.8410  138.5830 C   0  0  0  0  0  2  0  0  0  0  0  0
  192.2640  177.0610  143.7240 C   0  0  0  0  0  0  0  0  0  0  0  0
  194.6180  174.4790  144.4290 C   0  0  0  0  0  0  0  0  0  0  0  0
  193.4920  175.2670  140.8830 C   0  0  1  0  0  3  0  0  0  0  0  0
  193.8750  174.0490  141.7950 C   0  0  1  0  0  0  0  0  0  0  0  0
  192.8340  175.1580  142.1860 C   0  0  1  0  0  3  0  0  0  0  0  0
  196.5800  174.5710  139.8320 O   0  0  0  0  0  0  0  0  0  0  0  0
  194.7320  175.7960  140.5370 O   0  0  0  0  0  0  0  0  0  0  0  0
  195.4250  174.1590  142.8440 S   0  0  0  0  0  0  0  0  0  0  0  0
  191.7070  178.1100  142.9920 O   0  0  0  0  0  0  0  0  0  0  0  0
  190.3440  178.0280  142.5920 C   0  0  0  0  0  1  0  0  0  0  0  0
  196.2190  174.0490  146.1550 O   0  0  0  0  0  1  0  0  0  0  0  0
  194.9450  173.7100  145.6870 C   0  0  2  0  0  3  0  0  0  0  0  0
  194.7680  172.1880  145.6020 C   0  0  2  0  0  3  0  0  0  0  0  0
  195.9160  171.6130  145.0510 O   0  0  0  0  0  1  0  0  0  0  0  0
  193.5290  171.7350  144.8230 C   0  0  0  0  0  2  0  0  0  0  0  0
  193.8870  170.9920  143.6940 O   0  0  0  0  0  1  0  0  0  0  0  0
  2  1  1  1  0  0  0
  2  6  1  0  0  0  0
  5  6  1  0  0  0  0
  6  3  1  0  0  0  0
  6  4  1  0  0  0  0
  7  2  1  0  0  0  0
  8 10  1  6  0  0  0
  8  9  1  0  0  0  0
  8  7  1  0  0  0  0
 11 19  1  1  0  0  0
 11  8  1  0  0  0  0
 14 12  1  0  0  0  0
 14 11  1  0  0  0  0
 15 13  1  0  0  0  0
 15 12  2  0  0  0  0
 16 14  2  0  0  0  0
 17 18  2  0  0  0  0
 17 16  1  0  0  0  0
 18 15  1  0  0  0  0
 20 19  1  0  0  0  0
 21 28  2  0  0  0  0
 22 26  1  0  0  0  0
 24 22  1  0  0  0  0
 24 23  1  0  0  0  0
 25 23  1  6  0  0  0
 25 27  1  0  0  0  0
 26 25  1  0  0  0  0
 26 28  1  0  0  0  0
 27 29  1  0  0  0  0
 27 20  1  1  0  0  0
 28 29  1  0  0  0  0
 29 30  1  6  0  0  0
 31 30  1  0  0  0  0
 32  1  1  0  0  0  0
 34 32  1  6  0  0  0
 34 33  1  0  0  0  0
 35 34  1  0  0  0  0
 36 35  1  0  0  0  0
 37 36  1  6  0  0  0
 37 33  1  0  0  0  0
 38 40  1  0  0  0  0
 39 46  2  0  0  0  0
 40 39  1  6  0  0  0
 40 37  1  0  0  0  0
 41 45  1  1  0  0  0
 41 39  1  0  0  0  0
 42 44  1  6  0  0  0
 42 50  1  0  0  0  0
 42 43  1  0  0  0  0
 42 51  1  0  0  0  0
 44 50  1  0  0  0  0
 45 38  2  0  0  0  0
 46 56  1  0  0  0  0
 47 51  1  1  0  0  0
 47 48  1  0  0  0  0
 47 49  1  0  0  0  0
 48 43  1  6  0  0  0
 48 49  1  0  0  0  0
 48 52  1  0  0  0  0
 49 41  1  0  0  0  0
 52 46  1  0  0  0  0
 53 45  1  0  0  0  0
 54 53  1  0  0  0  0
 56 55  1  0  0  0  0
 57 56  1  0  0  0  0
 58 57  1  0  0  0  0
 59 57  1  0  0  0  0
 60 59  1  0  0  0  0
M  END
>  <MODEL>
1

>  <REMARK>
 VINA RESULT:      -7.3      0.000      0.000
  Name = 
  17 active torsions:
  status: ('A' for Active; 'I' for Inactive)
    1  A    between atoms: N_2  and  N_36
    2  A    between atoms: N_2  and  C_43
    3  A    between atoms: C_5  and  C_45
    4  A    between atoms: C_5  and  C_59
    5  A    between atoms: C_8  and  C_28
    6  A    between atoms: C_8  and  N_55
    7  A    between atoms: O_14  and  C_32
    8  A    between atoms: C_15  and  C_28
    9  A    between atoms: C_16  and  C_50
   10  A    between atoms: C_22  and  C_45
   11  A    between atoms: C_25  and  C_27
   12  A    between atoms: C_25  and  C_31
   13  A    between atoms: C_28  and  N_36
   14  A    between atoms: C_31  and  C_34
   15  A    between atoms: C_38  and  C_51
   16  A    between atoms: C_44  and  C_59
   17  A    between atoms: N_55  and  C_59
                            x       y       z     vdW  Elec       q    Type
                         _______ _______ _______ _____ _____    ______ ____

>  <TORSDO>
F 17

$$$$
=
 OpenBabel11062420403D

 60 68  0  0  1  0  0  0  0  0999 V2000
  189.0480  172.8700  141.6060 C   0  0  0  0  0  2  0  0  0  0  0  0
  189.8550  173.4050  142.7920 C   0  0  2  0  0  3  0  0  0  0  0  0
  191.1050  171.8090  144.0990 F   0  0  0  0  0  0  0  0  0  0  0  0
  188.8920  171.4770  143.8100 F   0  0  0  0  0  0  0  0  0  0  0  0
  189.6030  173.1140  145.1730 F   0  0  0  0  0  0  0  0  0  0  0  0
  189.8720  172.4410  143.9910 C   0  0  0  0  0  0  0  0  0  0  0  0
  189.3090  174.7040  143.1850 N   0  0  0  0  0  2  0  0  0  0  0  0
  190.2400  175.8030  142.8880 C   0  0  2  0  0  0  0  0  0  0  0  0
  189.7010  176.6330  141.8990 O   0  0  0  0  0  1  0  0  0  0  0  0
  191.5090  175.2540  142.4240 N   0  0  0  0  0  1  0  0  0  0  0  0
  190.4450  176.6370  144.1730 C   0  0  2  0  0  3  0  0  0  0  0  0
  192.7920  177.1130  144.8110 N   0  0  0  0  0  0  0  0  0  0  0  0
  194.9290  177.8260  145.4780 F   0  0  0  0  0  0  0  0  0  0  0  0
  191.6910  176.3210  144.9690 C   0  0  0  0  0  0  0  0  0  0  0  0
  193.8630  177.0130  145.6440 C   0  0  0  0  0  0  0  0  0  0  0  0
  191.6510  175.3970  146.0220 C   0  0  0  0  0  3  0  0  0  0  0  0
  192.7460  175.2700  146.8730 C   0  0  0  0  0  3  0  0  0  0  0  0
  193.8570  176.0880  146.6920 C   0  0  0  0  0  3  0  0  0  0  0  0
  189.2830  176.5420  145.0440 N   0  0  0  0  0  2  0  0  0  0  0  0
  188.6710  177.8040  145.0360 N   0  0  0  0  0  2  0  0  0  0  0  0
  184.7520  179.4420  143.1290 O   0  0  0  0  0  0  0  0  0  0  0  0
  184.1410  178.6920  145.9310 C   0  0  0  0  0  2  0  0  0  0  0  0
  185.8950  177.3260  146.8340 C   0  0  0  0  0  2  0  0  0  0  0  0
  184.4450  177.7380  147.0660 C   0  0  0  0  0  2  0  0  0  0  0  0
  186.5090  178.3200  145.9580 N   0  0  2  0  0  0  0  0  0  0  0  0
  185.4250  178.9480  145.3240 N   0  0  0  0  0  0  0  0  0  0  0  0
  187.2350  177.6180  144.8790 C   0  0  1  0  0  3  0  0  0  0  0  0
  185.5830  178.9370  143.9280 C   0  0  0  0  0  0  0  0  0  0  0  0
  186.8120  178.2390  143.5410 C   0  0  2  0  0  3  0  0  0  0  0  0
  186.5480  177.1500  142.5140 C   0  0  0  0  0  2  0  0  0  0  0  0
  186.1230  175.9960  143.1820 O   0  0  0  0  0  1  0  0  0  0  0  0
  189.8980  171.9450  140.7590 C   0  0  0  0  0  2  0  0  0  0  0  0
  190.6080  170.9990  138.3310 S   0  0  0  0  0  0  0  0  0  0  0  0
  189.8050  172.2960  139.2850 C   0  0  2  0  0  3  0  0  0  0  0  0
  190.5760  173.5630  138.9990 C   0  0  0  0  0  2  0  0  0  0  0  0
  191.9930  173.2420  138.9660 N   0  0  0  0  0  2  0  0  0  0  0  0
  192.1390  171.9790  138.2420 C   0  0  1  0  0  3  0  0  0  0  0  0
  192.8200  170.1650  139.7680 N   0  0  0  0  0  0  0  0  0  0  0  0
  194.2840  171.9460  139.5730 C   0  0  0  0  0  0  0  0  0  0  0  0
  193.2970  171.1410  138.7970 C   0  0  2  0  0  3  0  0  0  0  0  0
  194.4160  171.4260  140.9530 C   0  0  2  0  0  3  0  0  0  0  0  0
  196.6310  173.8840  143.4220 C   0  0  2  0  0  0  0  0  0  0  0  0
  195.3870  175.1470  142.9320 S   0  0  0  0  0  0  0  0  0  0  0  0
  197.7030  174.1220  144.4060 C   0  0  0  0  0  2  0  0  0  0  0  0
  193.4450  170.2950  140.8990 C   0  0  0  0  0  0  0  0  0  0  0  0
  194.9920  172.9950  139.1620 C   0  0  0  0  0  0  0  0  0  0  0  0
  194.9030  172.8300  142.9600 C   0  0  1  0  0  3  0  0  0  0  0  0
  194.8070  173.8650  141.7850 C   0  0  1  0  0  0  0  0  0  0  0  0
  193.9540  172.5510  141.8810 C   0  0  1  0  0  3  0  0  0  0  0  0
  197.9410  174.2070  143.0120 O   0  0  0  0  0  0  0  0  0  0  0  0
  196.2700  172.5870  143.0460 O   0  0  0  0  0  0  0  0  0  0  0  0
  196.0610  173.7730  140.3950 S   0  0  0  0  0  0  0  0  0  0  0  0
  193.2990  169.3560  141.9200 O   0  0  0  0  0  0  0  0  0  0  0  0
  192.0000  168.8660  142.2300 C   0  0  0  0  0  1  0  0  0  0  0  0
  195.6830  172.8000  136.8780 O   0  0  0  0  0  1  0  0  0  0  0  0
  194.8550  173.5150  137.7500 C   0  0  2  0  0  3  0  0  0  0  0  0
  195.0360  175.0290  137.5770 C   0  0  2  0  0  3  0  0  0  0  0  0
  193.7920  175.6270  137.3600 O   0  0  0  0  0  1  0  0  0  0  0  0
  196.0110  175.4290  136.4660 C   0  0  0  0  0  2  0  0  0  0  0  0
  195.3940  176.2660  135.5310 O   0  0  0  0  0  1  0  0  0  0  0  0
  2  1  1  6  0  0  0
  2  7  1  0  0  0  0
  2  6  1  0  0  0  0
  4  6  1  0  0  0  0
  6  3  1  0  0  0  0
  6  5  1  0  0  0  0
  8  9  1  6  0  0  0
  8  7  1  0  0  0  0
  8 11  1  0  0  0  0
 10  8  1  0  0  0  0
 11 14  1  0  0  0  0
 11 19  1  1  0  0  0
 12 14  2  0  0  0  0
 12 15  1  0  0  0  0
 13 15  1  0  0  0  0
 14 16  1  0  0  0  0
 15 18  2  0  0  0  0
 16 17  2  0  0  0  0
 18 17  1  0  0  0  0
 20 19  1  0  0  0  0
 21 28  2  0  0  0  0
 22 24  1  0  0  0  0
 23 24  1  0  0  0  0
 25 23  1  1  0  0  0
 26 22  1  0  0  0  0
 26 25  1  0  0  0  0
 27 20  1  1  0  0  0
 27 25  1  0  0  0  0
 28 26  1  0  0  0  0
 29 30  1  6  0  0  0
 29 28  1  0  0  0  0
 29 27  1  0  0  0  0
 30 31  1  0  0  0  0
 32  1  1  0  0  0  0
 33 34  1  0  0  0  0
 34 32  1  1  0  0  0
 35 34  1  0  0  0  0
 36 35  1  0  0  0  0
 37 33  1  1  0  0  0
 37 40  1  0  0  0  0
 37 36  1  0  0  0  0
 38 45  2  0  0  0  0
 40 39  1  1  0  0  0
 40 38  1  0  0  0  0
 41 39  1  6  0  0  0
 41 49  1  0  0  0  0
 42 44  1  1  0  0  0
 43 42  1  0  0  0  0
 45 41  1  0  0  0  0
 45 53  1  0  0  0  0
 46 39  2  0  0  0  0
 46 52  1  0  0  0  0
 47 51  1  6  0  0  0
 48 52  1  6  0  0  0
 48 49  1  0  0  0  0
 48 43  1  0  0  0  0
 48 47  1  0  0  0  0
 49 47  1  0  0  0  0
 50 42  1  0  0  0  0
 50 44  1  0  0  0  0
 51 42  1  0  0  0  0
 53 54  1  0  0  0  0
 55 56  1  0  0  0  0
 56 46  1  0  0  0  0
 57 56  1  0  0  0  0
 58 57  1  0  0  0  0
 59 57  1  0  0  0  0
 60 59  1  0  0  0  0
M  END
>  <MODEL>
2

>  <REMARK>
 VINA RESULT:      -7.1      3.196      7.507
  Name = 
  17 active torsions:
  status: ('A' for Active; 'I' for Inactive)
    1  A    between atoms: N_2  and  N_36
    2  A    between atoms: N_2  and  C_43
    3  A    between atoms: C_5  and  C_45
    4  A    between atoms: C_5  and  C_59
    5  A    between atoms: C_8  and  C_28
    6  A    between atoms: C_8  and  N_55
    7  A    between atoms: O_14  and  C_32
    8  A    between atoms: C_15  and  C_28
    9  A    between atoms: C_16  and  C_50
   10  A    between atoms: C_22  and  C_45
   11  A    between atoms: C_25  and  C_27
   12  A    between atoms: C_25  and  C_31
   13  A    between atoms: C_28  and  N_36
   14  A    between atoms: C_31  and  C_34
   15  A    between atoms: C_38  and  C_51
   16  A    between atoms: C_44  and  C_59
   17  A    between atoms: N_55  and  C_59
                            x       y       z     vdW  Elec       q    Type
                         _______ _______ _______ _____ _____    ______ ____

>  <TORSDO>
F 17

$$$$
=
 OpenBabel11062420403D

 60 68  0  0  1  0  0  0  0  0999 V2000
  189.4410  173.6690  139.6720 C   0  0  0  0  0  2  0  0  0  0  0  0
  189.3680  173.6640  141.2020 C   0  0  2  0  0  3  0  0  0  0  0  0
  188.2760  172.1250  142.7020 F   0  0  0  0  0  0  0  0  0  0  0  0
  187.3370  172.5270  140.6900 F   0  0  0  0  0  0  0  0  0  0  0  0
  187.2600  174.1030  142.2890 F   0  0  0  0  0  0  0  0  0  0  0  0
  188.0420  173.0980  141.7390 C   0  0  0  0  0  0  0  0  0  0  0  0
  189.5780  175.0300  141.6860 N   0  0  0  0  0  2  0  0  0  0  0  0
  190.6960  175.1080  142.6370 C   0  0  2  0  0  0  0  0  0  0  0  0
  191.8810  175.4140  141.9580 O   0  0  0  0  0  1  0  0  0  0  0  0
  190.8460  173.8290  143.3210 N   0  0  0  0  0  1  0  0  0  0  0  0
  190.4040  176.2370  143.6520 C   0  0  2  0  0  3  0  0  0  0  0  0
  191.0000  175.7120  145.9990 N   0  0  0  0  0  0  0  0  0  0  0  0
  191.5230  174.9420  148.1570 F   0  0  0  0  0  0  0  0  0  0  0  0
  191.3480  176.3220  144.8290 C   0  0  0  0  0  0  0  0  0  0  0  0
  191.8890  175.5720  147.0190 C   0  0  0  0  0  0  0  0  0  0  0  0
  192.6560  176.7990  144.6630 C   0  0  0  0  0  3  0  0  0  0  0  0
  193.5740  176.6800  145.7020 C   0  0  0  0  0  3  0  0  0  0  0  0
  193.1950  176.0550  146.8860 C   0  0  0  0  0  3  0  0  0  0  0  0
  189.0360  176.1550  144.1390 N   0  0  0  0  0  2  0  0  0  0  0  0
  188.3930  177.3330  143.7340 N   0  0  0  0  0  2  0  0  0  0  0  0
  184.5270  179.8370  144.4140 O   0  0  0  0  0  0  0  0  0  0  0  0
  185.2670  178.6060  147.0070 C   0  0  0  0  0  2  0  0  0  0  0  0
  186.8810  176.8630  146.6760 C   0  0  0  0  0  2  0  0  0  0  0  0
  185.8820  177.4050  147.6930 C   0  0  0  0  0  2  0  0  0  0  0  0
  187.1720  177.9280  145.7200 N   0  0  2  0  0  0  0  0  0  0  0  0
  186.0880  178.8110  145.8380 N   0  0  0  0  0  0  0  0  0  0  0  0
  187.0750  177.3760  144.3530 C   0  0  1  0  0  3  0  0  0  0  0  0
  185.5110  179.0710  144.5830 C   0  0  0  0  0  0  0  0  0  0  0  0
  186.1850  178.3130  143.5260 C   0  0  2  0  0  3  0  0  0  0  0  0
  185.2020  177.5070  142.6910 C   0  0  0  0  0  2  0  0  0  0  0  0
  184.6220  178.3540  141.7390 O   0  0  0  0  0  1  0  0  0  0  0  0
  190.3170  172.5340  139.1790 C   0  0  0  0  0  2  0  0  0  0  0  0
  192.2570  171.5990  137.5500 S   0  0  0  0  0  0  0  0  0  0  0  0
  191.1720  172.9620  138.0000 C   0  0  2  0  0  3  0  0  0  0  0  0
  192.0780  174.1030  138.3970 C   0  0  0  0  0  2  0  0  0  0  0  0
  193.1840  173.5660  139.1710 N   0  0  0  0  0  2  0  0  0  0  0  0
  193.6150  172.3290  138.5180 C   0  0  1  0  0  3  0  0  0  0  0  0
  193.0040  170.7630  140.3230 N   0  0  0  0  0  0  0  0  0  0  0  0
  195.0190  171.8750  140.5660 C   0  0  0  0  0  0  0  0  0  0  0  0
  194.1100  171.2950  139.5360 C   0  0  2  0  0  3  0  0  0  0  0  0
  194.4810  171.6490  141.9270 C   0  0  2  0  0  3  0  0  0  0  0  0
  196.5370  173.7050  144.8590 C   0  0  2  0  0  0  0  0  0  0  0  0
  196.1100  175.1720  143.8350 S   0  0  0  0  0  0  0  0  0  0  0  0
  197.2330  173.7790  146.1570 C   0  0  0  0  0  2  0  0  0  0  0  0
  193.2250  170.9180  141.5920 C   0  0  0  0  0  0  0  0  0  0  0  0
  196.1690  172.5170  140.3780 C   0  0  0  0  0  0  0  0  0  0  0  0
  194.7890  173.2070  143.8540 C   0  0  1  0  0  3  0  0  0  0  0  0
  195.4900  173.9400  142.6550 C   0  0  1  0  0  0  0  0  0  0  0  0
  194.2140  173.0340  142.5190 C   0  0  1  0  0  3  0  0  0  0  0  0
  197.9250  173.4800  144.9580 O   0  0  0  0  0  0  0  0  0  0  0  0
  195.8470  172.5510  144.4750 O   0  0  0  0  0  0  0  0  0  0  0  0
  196.9900  173.1420  141.8620 S   0  0  0  0  0  0  0  0  0  0  0  0
  192.4040  170.3220  142.5490 O   0  0  0  0  0  0  0  0  0  0  0  0
  191.0100  170.2050  142.2900 C   0  0  0  0  0  1  0  0  0  0  0  0
  197.6960  171.7910  138.6840 O   0  0  0  0  0  1  0  0  0  0  0  0
  196.7120  172.7380  138.9860 C   0  0  2  0  0  3  0  0  0  0  0  0
  197.1940  174.1620  138.6770 C   0  0  2  0  0  3  0  0  0  0  0  0
  196.2210  175.0820  139.0750 O   0  0  0  0  0  1  0  0  0  0  0  0
  197.5720  174.4010  137.2120 C   0  0  0  0  0  2  0  0  0  0  0  0
  197.2310  175.6950  136.8070 O   0  0  0  0  0  1  0  0  0  0  0  0
  2  1  1  6  0  0  0
  2  7  1  0  0  0  0
  2  6  1  0  0  0  0
  4  6  1  0  0  0  0
  6  5  1  0  0  0  0
  6  3  1  0  0  0  0
  7  8  1  0  0  0  0
  8  9  1  6  0  0  0
  8 10  1  0  0  0  0
  8 11  1  0  0  0  0
 11 19  1  1  0  0  0
 11 14  1  0  0  0  0
 12 15  1  0  0  0  0
 14 12  2  0  0  0  0
 15 13  1  0  0  0  0
 16 14  1  0  0  0  0
 16 17  2  0  0  0  0
 17 18  1  0  0  0  0
 18 15  2  0  0  0  0
 20 19  1  0  0  0  0
 21 28  2  0  0  0  0
 22 24  1  0  0  0  0
 23 24  1  0  0  0  0
 25 26  1  0  0  0  0
 25 23  1  1  0  0  0
 26 22  1  0  0  0  0
 27 20  1  6  0  0  0
 27 25  1  0  0  0  0
 28 26  1  0  0  0  0
 29 30  1  1  0  0  0
 29 27  1  0  0  0  0
 29 28  1  0  0  0  0
 31 30  1  0  0  0  0
 32  1  1  0  0  0  0
 33 34  1  0  0  0  0
 34 35  1  0  0  0  0
 34 32  1  1  0  0  0
 35 36  1  0  0  0  0
 37 33  1  1  0  0  0
 37 36  1  0  0  0  0
 37 40  1  0  0  0  0
 38 45  2  0  0  0  0
 40 38  1  1  0  0  0
 40 39  1  0  0  0  0
 41 39  1  6  0  0  0
 41 49  1  0  0  0  0
 42 50  1  0  0  0  0
 42 44  1  1  0  0  0
 43 42  1  0  0  0  0
 45 41  1  0  0  0  0
 45 53  1  0  0  0  0
 46 39  2  0  0  0  0
 46 52  1  0  0  0  0
 47 51  1  6  0  0  0
 48 52  1  6  0  0  0
 48 43  1  0  0  0  0
 48 47  1  0  0  0  0
 49 48  1  0  0  0  0
 49 47  1  0  0  0  0
 50 44  1  0  0  0  0
 51 42  1  0  0  0  0
 54 53  1  0  0  0  0
 55 56  1  0  0  0  0
 56 46  1  0  0  0  0
 57 56  1  0  0  0  0
 57 58  1  0  0  0  0
 59 57  1  0  0  0  0
 60 59  1  0  0  0  0
M  END
>  <MODEL>
3

>  <REMARK>
 VINA RESULT:      -6.9      2.864      7.427
  Name = 
  17 active torsions:
  status: ('A' for Active; 'I' for Inactive)
    1  A    between atoms: N_2  and  N_36
    2  A    between atoms: N_2  and  C_43
    3  A    between atoms: C_5  and  C_45
    4  A    between atoms: C_5  and  C_59
    5  A    between atoms: C_8  and  C_28
    6  A    between atoms: C_8  and  N_55
    7  A    between atoms: O_14  and  C_32
    8  A    between atoms: C_15  and  C_28
    9  A    between atoms: C_16  and  C_50
   10  A    between atoms: C_22  and  C_45
   11  A    between atoms: C_25  and  C_27
   12  A    between atoms: C_25  and  C_31
   13  A    between atoms: C_28  and  N_36
   14  A    between atoms: C_31  and  C_34
   15  A    between atoms: C_38  and  C_51
   16  A    between atoms: C_44  and  C_59
   17  A    between atoms: N_55  and  C_59
                            x       y       z     vdW  Elec       q    Type
                         _______ _______ _______ _____ _____    ______ ____

>  <TORSDO>
F 17

$$$$
=
 OpenBabel11062420403D

 60 68  0  0  1  0  0  0  0  0999 V2000
  190.3410  170.6160  140.3330 C   0  0  0  0  0  2  0  0  0  0  0  0
  189.8320  171.9330  140.9260 C   0  0  2  0  0  3  0  0  0  0  0  0
  190.4540  173.9530  139.7650 F   0  0  0  0  0  0  0  0  0  0  0  0
  188.2720  173.5810  140.1960 F   0  0  0  0  0  0  0  0  0  0  0  0
  189.3140  172.3760  138.6120 F   0  0  0  0  0  0  0  0  0  0  0  0
  189.4710  172.9750  139.8530 C   0  0  0  0  0  0  0  0  0  0  0  0
  190.8490  172.4630  141.8350 N   0  0  0  0  0  2  0  0  0  0  0  0
  190.3530  172.5540  143.2170 C   0  0  2  0  0  0  0  0  0  0  0  0
  191.2450  171.9170  144.0870 O   0  0  0  0  0  1  0  0  0  0  0  0
  189.0450  171.9170  143.3090 N   0  0  0  0  0  1  0  0  0  0  0  0
  190.2620  174.0460  143.6100 C   0  0  2  0  0  3  0  0  0  0  0  0
  191.6250  175.0330  145.4300 N   0  0  0  0  0  0  0  0  0  0  0  0
  192.9080  176.2100  147.0080 F   0  0  0  0  0  0  0  0  0  0  0  0
  190.4960  174.3550  145.0720 C   0  0  0  0  0  0  0  0  0  0  0  0
  191.7900  175.5220  146.6890 C   0  0  0  0  0  0  0  0  0  0  0  0
  189.4720  174.1730  146.0130 C   0  0  0  0  0  3  0  0  0  0  0  0
  189.6320  174.6520  147.3100 C   0  0  0  0  0  3  0  0  0  0  0  0
  190.7930  175.3390  147.6510 C   0  0  0  0  0  3  0  0  0  0  0  0
  188.9880  174.6140  143.1980 N   0  0  0  0  0  2  0  0  0  0  0  0
  189.2820  175.6700  142.3230 N   0  0  0  0  0  2  0  0  0  0  0  0
  185.5780  177.0760  144.7690 O   0  0  0  0  0  0  0  0  0  0  0  0
  185.0320  177.6390  141.9100 C   0  0  0  0  0  2  0  0  0  0  0  0
  187.0540  177.4930  140.6270 C   0  0  0  0  0  2  0  0  0  0  0  0
  185.6280  178.0320  140.5750 C   0  0  0  0  0  2  0  0  0  0  0  0
  187.1100  176.4680  141.6650 N   0  0  2  0  0  0  0  0  0  0  0  0
  186.0010  176.7360  142.4840 N   0  0  0  0  0  0  0  0  0  0  0  0
  188.2910  176.7190  142.5170 C   0  0  1  0  0  3  0  0  0  0  0  0
  186.3850  176.8450  143.8310 C   0  0  0  0  0  0  0  0  0  0  0  0
  187.8340  176.6850  143.9820 C   0  0  2  0  0  3  0  0  0  0  0  0
  188.4550  177.8380  144.7550 C   0  0  0  0  0  2  0  0  0  0  0  0
  188.4900  177.5000  146.1130 O   0  0  0  0  0  1  0  0  0  0  0  0
  191.8490  170.6510  140.1790 C   0  0  0  0  0  2  0  0  0  0  0  0
  193.8070  169.5560  138.6770 S   0  0  0  0  0  0  0  0  0  0  0  0
  192.2650  170.4810  138.7290 C   0  0  2  0  0  3  0  0  0  0  0  0
  192.5640  171.8260  138.1100 C   0  0  0  0  0  2  0  0  0  0  0  0
  193.8710  172.2650  138.5700 N   0  0  0  0  0  2  0  0  0  0  0  0
  194.7590  171.1010  138.5400 C   0  0  1  0  0  3  0  0  0  0  0  0
  195.4530  170.2080  140.7320 N   0  0  0  0  0  0  0  0  0  0  0  0
  195.8260  172.4640  140.3780 C   0  0  0  0  0  0  0  0  0  0  0  0
  195.7910  171.1500  139.6730 C   0  0  2  0  0  3  0  0  0  0  0  0
  195.5600  172.2900  141.8240 C   0  0  2  0  0  3  0  0  0  0  0  0
  195.0130  175.8600  143.8250 C   0  0  2  0  0  0  0  0  0  0  0  0
  193.6870  176.1150  142.5770 S   0  0  0  0  0  0  0  0  0  0  0  0
  195.2870  176.7880  144.9380 C   0  0  0  0  0  2  0  0  0  0  0  0
  195.3700  170.8120  141.8780 C   0  0  0  0  0  0  0  0  0  0  0  0
  196.0590  173.6670  139.8600 C   0  0  0  0  0  0  0  0  0  0  0  0
  194.3890  173.9610  143.2630 C   0  0  1  0  0  3  0  0  0  0  0  0
  194.3500  174.5990  141.8300 C   0  0  1  0  0  0  0  0  0  0  0  0
  194.2700  173.0580  142.1170 C   0  0  1  0  0  3  0  0  0  0  0  0
  196.0450  176.8160  143.7430 O   0  0  0  0  0  0  0  0  0  0  0  0
  195.5100  174.5530  143.8350 O   0  0  0  0  0  0  0  0  0  0  0  0
  195.9680  175.0630  141.0050 S   0  0  0  0  0  0  0  0  0  0  0  0
  195.2460  170.0950  143.0680 O   0  0  0  0  0  0  0  0  0  0  0  0
  193.9560  169.6640  143.4860 C   0  0  0  0  0  1  0  0  0  0  0  0
  197.6920  173.6290  138.1100 O   0  0  0  0  0  1  0  0  0  0  0  0
  196.3360  173.8340  138.3840 C   0  0  2  0  0  3  0  0  0  0  0  0
  195.8290  175.1380  137.7540 C   0  0  2  0  0  3  0  0  0  0  0  0
  194.4810  175.3190  138.0730 O   0  0  0  0  0  1  0  0  0  0  0  0
  196.0250  175.2290  136.2380 C   0  0  0  0  0  2  0  0  0  0  0  0
  195.5980  174.0580  135.6030 O   0  0  0  0  0  1  0  0  0  0  0  0
  2  1  1  6  0  0  0
  2  7  1  0  0  0  0
  3  6  1  0  0  0  0
  5  6  1  0  0  0  0
  6  4  1  0  0  0  0
  6  2  1  0  0  0  0
  7  8  1  0  0  0  0
  8 10  1  1  0  0  0
  8 11  1  0  0  0  0
  8  9  1  0  0  0  0
 11 19  1  1  0  0  0
 11 14  1  0  0  0  0
 12 15  1  0  0  0  0
 14 12  2  0  0  0  0
 14 16  1  0  0  0  0
 15 13  1  0  0  0  0
 15 18  2  0  0  0  0
 16 17  2  0  0  0  0
 17 18  1  0  0  0  0
 20 19  1  0  0  0  0
 22 26  1  0  0  0  0
 24 23  1  0  0  0  0
 24 22  1  0  0  0  0
 25 23  1  6  0  0  0
 25 26  1  0  0  0  0
 25 27  1  0  0  0  0
 26 28  1  0  0  0  0
 27 20  1  1  0  0  0
 27 29  1  0  0  0  0
 28 29  1  0  0  0  0
 28 21  2  0  0  0  0
 29 30  1  1  0  0  0
 30 31  1  0  0  0  0
 32  1  1  0  0  0  0
 33 34  1  0  0  0  0
 34 32  1  1  0  0  0
 35 36  1  0  0  0  0
 35 34  1  0  0  0  0
 37 36  1  1  0  0  0
 37 33  1  0  0  0  0
 37 40  1  0  0  0  0
 38 45  2  0  0  0  0
 40 39  1  1  0  0  0
 40 38  1  0  0  0  0
 41 39  1  6  0  0  0
 41 45  1  0  0  0  0
 41 49  1  0  0  0  0
 42 51  1  0  0  0  0
 42 44  1  1  0  0  0
 43 42  1  0  0  0  0
 45 53  1  0  0  0  0
 46 39  2  0  0  0  0
 46 52  1  0  0  0  0
 47 51  1  6  0  0  0
 48 52  1  6  0  0  0
 48 49  1  0  0  0  0
 48 43  1  0  0  0  0
 48 47  1  0  0  0  0
 49 47  1  0  0  0  0
 50 42  1  0  0  0  0
 50 44  1  0  0  0  0
 53 54  1  0  0  0  0
 55 56  1  0  0  0  0
 56 46  1  0  0  0  0
 57 58  1  0  0  0  0
 57 56  1  0  0  0  0
 59 57  1  0  0  0  0
 60 59  1  0  0  0  0
M  END
>  <MODEL>
4

>  <REMARK>
 VINA RESULT:      -6.8      3.319      7.383
  Name = 
  17 active torsions:
  status: ('A' for Active; 'I' for Inactive)
    1  A    between atoms: N_2  and  N_36
    2  A    between atoms: N_2  and  C_43
    3  A    between atoms: C_5  and  C_45
    4  A    between atoms: C_5  and  C_59
    5  A    between atoms: C_8  and  C_28
    6  A    between atoms: C_8  and  N_55
    7  A    between atoms: O_14  and  C_32
    8  A    between atoms: C_15  and  C_28
    9  A    between atoms: C_16  and  C_50
   10  A    between atoms: C_22  and  C_45
   11  A    between atoms: C_25  and  C_27
   12  A    between atoms: C_25  and  C_31
   13  A    between atoms: C_28  and  N_36
   14  A    between atoms: C_31  and  C_34
   15  A    between atoms: C_38  and  C_51
   16  A    between atoms: C_44  and  C_59
   17  A    between atoms: N_55  and  C_59
                            x       y       z     vdW  Elec       q    Type
                         _______ _______ _______ _____ _____    ______ ____

>  <TORSDO>
F 17

$$$$
=
 OpenBabel11062420403D

 60 68  0  0  1  0  0  0  0  0999 V2000
  193.2120  170.9600  143.3240 C   0  0  0  0  0  2  0  0  0  0  0  0
  194.6740  170.8260  143.7580 C   0  0  2  0  0  3  0  0  0  0  0  0
  194.4900  171.5910  146.0370 F   0  0  0  0  0  0  0  0  0  0  0  0
  196.1520  170.1620  145.5060 F   0  0  0  0  0  0  0  0  0  0  0  0
  194.0350  169.4180  145.6090 F   0  0  0  0  0  0  0  0  0  0  0  0
  194.8300  170.4960  145.2530 C   0  0  0  0  0  0  0  0  0  0  0  0
  195.3780  172.0670  143.4290 N   0  0  0  0  0  2  0  0  0  0  0  0
  196.6840  171.8070  142.8050 C   0  0  2  0  0  0  0  0  0  0  0  0
  196.6940  170.5300  142.2330 O   0  0  0  0  0  1  0  0  0  0  0  0
  197.7320  171.8960  143.8140 N   0  0  0  0  0  1  0  0  0  0  0  0
  196.9130  172.8500  141.6880 C   0  0  2  0  0  3  0  0  0  0  0  0
  195.5660  174.8360  142.3060 N   0  0  0  0  0  0  0  0  0  0  0  0
  194.1680  176.5550  143.0880 F   0  0  0  0  0  0  0  0  0  0  0  0
  196.8050  174.2970  142.1090 C   0  0  0  0  0  0  0  0  0  0  0  0
  195.4070  176.0570  142.8840 C   0  0  0  0  0  0  0  0  0  0  0  0
  197.9400  175.0060  142.5280 C   0  0  0  0  0  3  0  0  0  0  0  0
  197.7960  176.2640  143.1060 C   0  0  0  0  0  3  0  0  0  0  0  0
  196.5230  176.7930  143.2950 C   0  0  0  0  0  3  0  0  0  0  0  0
  196.0210  172.6100  140.5630 N   0  0  0  0  0  2  0  0  0  0  0  0
  196.8130  172.6500  139.4070 N   0  0  0  0  0  2  0  0  0  0  0  0
  195.4000  175.9060  136.3930 O   0  0  0  0  0  0  0  0  0  0  0  0
  192.9990  174.4280  137.3090 C   0  0  0  0  0  2  0  0  0  0  0  0
  193.6360  172.3910  138.4020 C   0  0  0  0  0  2  0  0  0  0  0  0
  192.4460  173.0920  137.7560 C   0  0  0  0  0  2  0  0  0  0  0  0
  194.6290  173.4080  138.7400 N   0  0  2  0  0  0  0  0  0  0  0  0
  194.3040  174.5010  137.9220 N   0  0  0  0  0  0  0  0  0  0  0  0
  195.9530  172.9520  138.2700 C   0  0  1  0  0  3  0  0  0  0  0  0
  195.4240  174.9360  137.1950 C   0  0  0  0  0  0  0  0  0  0  0  0
  196.5930  174.0970  137.4740 C   0  0  2  0  0  3  0  0  0  0  0  0
  197.2260  173.5640  136.1980 C   0  0  0  0  0  2  0  0  0  0  0  0
  196.7000  172.2940  135.9330 O   0  0  0  0  0  1  0  0  0  0  0  0
  192.8490  172.4190  143.1270 C   0  0  0  0  0  2  0  0  0  0  0  0
  191.9350  174.2970  141.4150 S   0  0  0  0  0  0  0  0  0  0  0  0
  191.8500  172.5960  141.9980 C   0  0  2  0  0  3  0  0  0  0  0  0
  190.4430  172.4010  142.5080 C   0  0  0  0  0  2  0  0  0  0  0  0
  190.0410  173.5980  143.2260 N   0  0  0  0  0  2  0  0  0  0  0  0
  190.5100  174.7500  142.4520 C   0  0  1  0  0  3  0  0  0  0  0  0
  191.6390  175.4430  144.5330 N   0  0  0  0  0  0  0  0  0  0  0  0
  189.7400  176.6300  143.9510 C   0  0  0  0  0  0  0  0  0  0  0  0
  190.9100  175.9160  143.3640 C   0  0  2  0  0  3  0  0  0  0  0  0
  189.8050  176.6140  145.4300 C   0  0  2  0  0  3  0  0  0  0  0  0
  186.3580  177.9980  147.2330 C   0  0  2  0  0  0  0  0  0  0  0  0
  185.5570  176.6710  146.2430 S   0  0  0  0  0  0  0  0  0  0  0  0
  185.6430  178.8470  148.2040 C   0  0  0  0  0  2  0  0  0  0  0  0
  191.0700  175.8490  145.6270 C   0  0  0  0  0  0  0  0  0  0  0  0
  188.7370  177.2260  143.3120 C   0  0  0  0  0  0  0  0  0  0  0  0
  187.8160  176.5490  146.9390 C   0  0  1  0  0  3  0  0  0  0  0  0
  187.2020  176.4880  145.4970 C   0  0  1  0  0  0  0  0  0  0  0  0
  188.5730  175.8410  145.9050 C   0  0  1  0  0  3  0  0  0  0  0  0
  185.9190  179.2920  146.8880 O   0  0  0  0  0  0  0  0  0  0  0  0
  187.7530  177.9050  147.2440 O   0  0  0  0  0  0  0  0  0  0  0  0
  187.4450  177.9500  144.3490 S   0  0  0  0  0  0  0  0  0  0  0  0
  191.6850  175.6840  146.8680 O   0  0  0  0  0  0  0  0  0  0  0  0
  191.1990  176.4200  147.9840 C   0  0  0  0  0  1  0  0  0  0  0  0
  188.8850  178.5380  141.3150 O   0  0  0  0  0  1  0  0  0  0  0  0
  188.6820  177.2430  141.8030 C   0  0  2  0  0  3  0  0  0  0  0  0
  187.4390  176.5980  141.1740 C   0  0  2  0  0  3  0  0  0  0  0  0
  187.8150  175.4570  140.4600 O   0  0  0  0  0  1  0  0  0  0  0  0
  186.6240  177.5330  140.2760 C   0  0  0  0  0  2  0  0  0  0  0  0
  185.5390  178.0770  140.9690 O   0  0  0  0  0  1  0  0  0  0  0  0
  2  1  1  1  0  0  0
  2  6  1  0  0  0  0
  6  4  1  0  0  0  0
  6  5  1  0  0  0  0
  6  3  1  0  0  0  0
  7  2  1  0  0  0  0
  8  9  1  6  0  0  0
  8  7  1  0  0  0  0
  8 10  1  0  0  0  0
 11 19  1  6  0  0  0
 11 14  1  0  0  0  0
 11  8  1  0  0  0  0
 12 15  1  0  0  0  0
 14 12  2  0  0  0  0
 14 16  1  0  0  0  0
 15 13  1  0  0  0  0
 15 18  2  0  0  0  0
 16 17  2  0  0  0  0
 17 18  1  0  0  0  0
 20 19  1  0  0  0  0
 21 28  2  0  0  0  0
 22 24  1  0  0  0  0
 22 26  1  0  0  0  0
 24 23  1  0  0  0  0
 25 23  1  6  0  0  0
 26 25  1  0  0  0  0
 27 25  1  0  0  0  0
 27 20  1  1  0  0  0
 28 29  1  0  0  0  0
 28 26  1  0  0  0  0
 29 30  1  6  0  0  0
 29 27  1  0  0  0  0
 31 30  1  0  0  0  0
 32  1  1  0  0  0  0
 33 34  1  0  0  0  0
 34 35  1  0  0  0  0
 34 32  1  1  0  0  0
 35 36  1  0  0  0  0
 37 33  1  1  0  0  0
 37 36  1  0  0  0  0
 37 40  1  0  0  0  0
 38 45  2  0  0  0  0
 40 39  1  1  0  0  0
 40 38  1  0  0  0  0
 41 39  1  6  0  0  0
 41 45  1  0  0  0  0
 41 49  1  0  0  0  0
 42 51  1  0  0  0  0
 42 44  1  1  0  0  0
 43 42  1  0  0  0  0
 45 53  1  0  0  0  0
 46 39  2  0  0  0  0
 46 52  1  0  0  0  0
 47 51  1  6  0  0  0
 48 52  1  6  0  0  0
 48 49  1  0  0  0  0
 48 43  1  0  0  0  0
 48 47  1  0  0  0  0
 49 47  1  0  0  0  0
 50 42  1  0  0  0  0
 50 44  1  0  0  0  0
 53 54  1  0  0  0  0
 55 56  1  0  0  0  0
 56 46  1  0  0  0  0
 57 56  1  0  0  0  0
 58 57  1  0  0  0  0
 59 60  1  0  0  0  0
 59 57  1  0  0  0  0
M  END
>  <MODEL>
5

>  <REMARK>
 VINA RESULT:      -6.2      4.403      9.458
  Name = 
  17 active torsions:
  status: ('A' for Active; 'I' for Inactive)
    1  A    between atoms: N_2  and  N_36
    2  A    between atoms: N_2  and  C_43
    3  A    between atoms: C_5  and  C_45
    4  A    between atoms: C_5  and  C_59
    5  A    between atoms: C_8  and  C_28
    6  A    between atoms: C_8  and  N_55
    7  A    between atoms: O_14  and  C_32
    8  A    between atoms: C_15  and  C_28
    9  A    between atoms: C_16  and  C_50
   10  A    between atoms: C_22  and  C_45
   11  A    between atoms: C_25  and  C_27
   12  A    between atoms: C_25  and  C_31
   13  A    between atoms: C_28  and  N_36
   14  A    between atoms: C_31  and  C_34
   15  A    between atoms: C_38  and  C_51
   16  A    between atoms: C_44  and  C_59
   17  A    between atoms: N_55  and  C_59
                            x       y       z     vdW  Elec       q    Type
                         _______ _______ _______ _____ _____    ______ ____

>  <TORSDO>
F 17

$$$$
=
 OpenBabel11062420403D

 60 68  0  0  1  0  0  0  0  0999 V2000
  189.4760  171.5130  140.0270 C   0  0  0  0  0  2  0  0  0  0  0  0
  189.2990  172.6300  141.0600 C   0  0  2  0  0  3  0  0  0  0  0  0
  187.4420  174.0870  141.5520 F   0  0  0  0  0  0  0  0  0  0  0  0
  187.6930  173.3270  139.4430 F   0  0  0  0  0  0  0  0  0  0  0  0
  189.0980  174.8880  140.2380 F   0  0  0  0  0  0  0  0  0  0  0  0
  188.3710  173.7570  140.5740 C   0  0  0  0  0  0  0  0  0  0  0  0
  190.6180  173.1640  141.4040 N   0  0  0  0  0  2  0  0  0  0  0  0
  190.8470  173.1630  142.8570 C   0  0  2  0  0  0  0  0  0  0  0  0
  192.0480  172.5080  143.1520 O   0  0  0  0  0  1  0  0  0  0  0  0
  189.7450  172.4800  143.5240 N   0  0  0  0  0  1  0  0  0  0  0  0
  190.9520  174.6270  143.3400 C   0  0  2  0  0  3  0  0  0  0  0  0
  193.0470  175.6620  144.1660 N   0  0  0  0  0  0  0  0  0  0  0  0
  194.9280  176.8890  144.8580 F   0  0  0  0  0  0  0  0  0  0  0  0
  191.9590  174.8850  144.4380 C   0  0  0  0  0  0  0  0  0  0  0  0
  193.8710  176.1010  145.1550 C   0  0  0  0  0  0  0  0  0  0  0  0
  191.6680  174.5460  145.7670 C   0  0  0  0  0  3  0  0  0  0  0  0
  192.5100  174.9740  146.7900 C   0  0  0  0  0  3  0  0  0  0  0  0
  193.6140  175.7640  146.4870 C   0  0  0  0  0  3  0  0  0  0  0  0
  189.6520  175.1330  143.7530 N   0  0  0  0  0  2  0  0  0  0  0  0
  189.4020  176.2770  142.9820 N   0  0  0  0  0  2  0  0  0  0  0  0
  186.4850  176.6390  146.5930 O   0  0  0  0  0  0  0  0  0  0  0  0
  185.2260  178.0040  144.2820 C   0  0  0  0  0  2  0  0  0  0  0  0
  186.8420  178.3820  142.5510 C   0  0  0  0  0  2  0  0  0  0  0  0
  185.4620  178.8190  143.0290 C   0  0  0  0  0  2  0  0  0  0  0  0
  187.1470  177.0960  143.1730 N   0  0  2  0  0  0  0  0  0  0  0  0
  186.2950  177.0340  144.2850 N   0  0  0  0  0  0  0  0  0  0  0  0
  188.5130  177.1530  143.7340 C   0  0  1  0  0  3  0  0  0  0  0  0
  187.0170  176.7540  145.4580 C   0  0  0  0  0  0  0  0  0  0  0  0
  188.4520  176.6490  145.1820 C   0  0  2  0  0  3  0  0  0  0  0  0
  189.2720  177.5510  146.0900 C   0  0  0  0  0  2  0  0  0  0  0  0
  189.5820  176.8480  147.2600 O   0  0  0  0  0  1  0  0  0  0  0  0
  190.8710  171.5520  139.4370 C   0  0  0  0  0  2  0  0  0  0  0  0
  192.0300  170.5970  137.1920 S   0  0  0  0  0  0  0  0  0  0  0  0
  190.8330  171.7210  137.9290 C   0  0  2  0  0  3  0  0  0  0  0  0
  191.2780  173.1120  137.5460 C   0  0  0  0  0  2  0  0  0  0  0  0
  192.7260  173.1780  137.6480 N   0  0  0  0  0  2  0  0  0  0  0  0
  193.2610  171.9350  137.0910 C   0  0  1  0  0  3  0  0  0  0  0  0
  194.2280  170.5640  138.8980 N   0  0  0  0  0  0  0  0  0  0  0  0
  195.2320  172.6130  138.5150 C   0  0  0  0  0  0  0  0  0  0  0  0
  194.5360  171.4920  137.8190 C   0  0  2  0  0  3  0  0  0  0  0  0
  195.3690  172.3260  139.9610 C   0  0  2  0  0  3  0  0  0  0  0  0
  196.7150  175.5610  142.1460 C   0  0  2  0  0  0  0  0  0  0  0  0
  195.2490  176.3970  141.4170 S   0  0  0  0  0  0  0  0  0  0  0  0
  197.6130  176.1850  143.1350 C   0  0  0  0  0  2  0  0  0  0  0  0
  194.7070  170.9920  140.0260 C   0  0  0  0  0  0  0  0  0  0  0  0
  195.6990  173.7420  137.9890 C   0  0  0  0  0  0  0  0  0  0  0  0
  195.3360  174.0570  141.7610 C   0  0  1  0  0  3  0  0  0  0  0  0
  195.0920  174.8730  140.4430 C   0  0  1  0  0  0  0  0  0  0  0  0
  194.5750  173.4110  140.6900 C   0  0  1  0  0  3  0  0  0  0  0  0
  197.9380  176.1430  141.7580 O   0  0  0  0  0  0  0  0  0  0  0  0
  196.7090  174.1770  141.9480 O   0  0  0  0  0  0  0  0  0  0  0  0
  196.4430  174.9160  139.1440 S   0  0  0  0  0  0  0  0  0  0  0  0
  194.7070  170.1880  141.1660 O   0  0  0  0  0  0  0  0  0  0  0  0
  193.4740  169.6620  141.6430 C   0  0  0  0  0  1  0  0  0  0  0  0
  196.6760  173.5540  135.8120 O   0  0  0  0  0  1  0  0  0  0  0  0
  195.5590  174.0230  136.5110 C   0  0  2  0  0  3  0  0  0  0  0  0
  195.2330  175.4750  136.1360 C   0  0  2  0  0  3  0  0  0  0  0  0
  193.8900  175.5730  135.7660 O   0  0  0  0  0  1  0  0  0  0  0  0
  196.1240  176.0620  135.0370 C   0  0  0  0  0  2  0  0  0  0  0  0
  197.1740  176.8060  135.5820 O   0  0  0  0  0  1  0  0  0  0  0  0
  2  1  1  6  0  0  0
  2  7  1  0  0  0  0
  4  6  1  0  0  0  0
  5  6  1  0  0  0  0
  6  2  1  0  0  0  0
  6  3  1  0  0  0  0
  7  8  1  0  0  0  0
  8  9  1  1  0  0  0
  8 11  1  0  0  0  0
  8 10  1  0  0  0  0
 11 19  1  1  0  0  0
 11 14  1  0  0  0  0
 12 14  2  0  0  0  0
 12 15  1  0  0  0  0
 13 15  1  0  0  0  0
 14 16  1  0  0  0  0
 15 18  2  0  0  0  0
 16 17  2  0  0  0  0
 18 17  1  0  0  0  0
 20 19  1  0  0  0  0
 22 26  1  0  0  0  0
 23 24  1  0  0  0  0
 24 22  1  0  0  0  0
 25 23  1  1  0  0  0
 25 27  1  0  0  0  0
 25 26  1  0  0  0  0
 26 28  1  0  0  0  0
 27 20  1  6  0  0  0
 27 29  1  0  0  0  0
 28 21  2  0  0  0  0
 29 28  1  0  0  0  0
 29 30  1  1  0  0  0
 30 31  1  0  0  0  0
 32  1  1  0  0  0  0
 33 34  1  0  0  0  0
 34 32  1  1  0  0  0
 35 36  1  0  0  0  0
 35 34  1  0  0  0  0
 37 33  1  1  0  0  0
 37 36  1  0  0  0  0
 37 40  1  0  0  0  0
 38 45  2  0  0  0  0
 40 39  1  1  0  0  0
 40 38  1  0  0  0  0
 41 39  1  6  0  0  0
 41 45  1  0  0  0  0
 41 49  1  0  0  0  0
 42 44  1  1  0  0  0
 43 42  1  0  0  0  0
 45 53  1  0  0  0  0
 46 39  2  0  0  0  0
 46 52  1  0  0  0  0
 47 51  1  6  0  0  0
 48 52  1  6  0  0  0
 48 49  1  0  0  0  0
 48 43  1  0  0  0  0
 48 47  1  0  0  0  0
 49 47  1  0  0  0  0
 50 42  1  0  0  0  0
 50 44  1  0  0  0  0
 51 42  1  0  0  0  0
 53 54  1  0  0  0  0
 55 56  1  0  0  0  0
 56 46  1  0  0  0  0
 57 56  1  0  0  0  0
 58 57  1  0  0  0  0
 59 60  1  0  0  0  0
 59 57  1  0  0  0  0
M  END
>  <MODEL>
6

>  <REMARK>
 VINA RESULT:      -6.2      3.340      7.814
  Name = 
  17 active torsions:
  status: ('A' for Active; 'I' for Inactive)
    1  A    between atoms: N_2  and  N_36
    2  A    between atoms: N_2  and  C_43
    3  A    between atoms: C_5  and  C_45
    4  A    between atoms: C_5  and  C_59
    5  A    between atoms: C_8  and  C_28
    6  A    between atoms: C_8  and  N_55
    7  A    between atoms: O_14  and  C_32
    8  A    between atoms: C_15  and  C_28
    9  A    between atoms: C_16  and  C_50
   10  A    between atoms: C_22  and  C_45
   11  A    between atoms: C_25  and  C_27
   12  A    between atoms: C_25  and  C_31
   13  A    between atoms: C_28  and  N_36
   14  A    between atoms: C_31  and  C_34
   15  A    between atoms: C_38  and  C_51
   16  A    between atoms: C_44  and  C_59
   17  A    between atoms: N_55  and  C_59
                            x       y       z     vdW  Elec       q    Type
                         _______ _______ _______ _____ _____    ______ ____

>  <TORSDO>
F 17

$$$$
=
 OpenBabel11062420403D

 60 68  0  0  1  0  0  0  0  0999 V2000
  193.0580  171.2920  143.9440 C   0  0  0  0  0  2  0  0  0  0  0  0
  194.5760  171.1740  144.1060 C   0  0  2  0  0  3  0  0  0  0  0  0
  195.1660  172.9060  145.6760 F   0  0  0  0  0  0  0  0  0  0  0  0
  196.3060  170.9610  145.7310 F   0  0  0  0  0  0  0  0  0  0  0  0
  194.1910  171.0320  146.4820 F   0  0  0  0  0  0  0  0  0  0  0  0
  195.0590  171.5300  145.5230 C   0  0  0  0  0  0  0  0  0  0  0  0
  195.2220  172.0330  143.1120 N   0  0  0  0  0  2  0  0  0  0  0  0
  196.2160  171.2970  142.3160 C   0  0  2  0  0  0  0  0  0  0  0  0
  196.0660  169.9200  142.5180 O   0  0  0  0  0  1  0  0  0  0  0  0
  197.5580  171.7030  142.7150 N   0  0  0  0  0  1  0  0  0  0  0  0
  195.9760  171.6050  140.8210 C   0  0  2  0  0  3  0  0  0  0  0  0
  195.5280  174.0420  140.7980 N   0  0  0  0  0  0  0  0  0  0  0  0
  195.1100  176.3390  141.0590 F   0  0  0  0  0  0  0  0  0  0  0  0
  196.3160  173.0090  140.3770 C   0  0  0  0  0  0  0  0  0  0  0  0
  195.8980  175.3380  140.6100 C   0  0  0  0  0  0  0  0  0  0  0  0
  197.5420  173.2850  139.7550 C   0  0  0  0  0  3  0  0  0  0  0  0
  197.9270  174.6060  139.5410 C   0  0  0  0  0  3  0  0  0  0  0  0
  197.1070  175.6410  139.9780 C   0  0  0  0  0  3  0  0  0  0  0  0
  194.6050  171.3000  140.4420 N   0  0  0  0  0  2  0  0  0  0  0  0
  194.6720  170.5390  139.2660 N   0  0  0  0  0  2  0  0  0  0  0  0
  191.3110  173.6190  138.3180 O   0  0  0  0  0  0  0  0  0  0  0  0
  190.0560  170.9370  138.4610 C   0  0  0  0  0  2  0  0  0  0  0  0
  191.7320  169.2230  138.3750 C   0  0  0  0  0  2  0  0  0  0  0  0
  190.2350  169.4570  138.2050 C   0  0  0  0  0  2  0  0  0  0  0  0
  192.2770  170.3420  139.1390 N   0  0  2  0  0  0  0  0  0  0  0  0
  191.3310  171.3670  138.9840 N   0  0  0  0  0  0  0  0  0  0  0  0
  193.4940  170.8320  138.4600 C   0  0  1  0  0  3  0  0  0  0  0  0
  191.9400  172.5500  138.5310 C   0  0  0  0  0  0  0  0  0  0  0  0
  193.3760  172.3550  138.3160 C   0  0  2  0  0  3  0  0  0  0  0  0
  193.8060  172.7890  136.9230 C   0  0  0  0  0  2  0  0  0  0  0  0
  194.0560  171.6460  136.1550 O   0  0  0  0  0  1  0  0  0  0  0  0
  192.6630  172.7300  143.6700 C   0  0  0  0  0  2  0  0  0  0  0  0
  192.1020  174.5070  141.7170 S   0  0  0  0  0  0  0  0  0  0  0  0
  191.8650  172.8530  142.3860 C   0  0  2  0  0  3  0  0  0  0  0  0
  190.3880  172.7280  142.6730 C   0  0  0  0  0  2  0  0  0  0  0  0
  189.9200  173.9820  143.2390 N   0  0  0  0  0  2  0  0  0  0  0  0
  190.5460  175.0650  142.4790 C   0  0  1  0  0  3  0  0  0  0  0  0
  191.5910  175.8980  144.5520 N   0  0  0  0  0  0  0  0  0  0  0  0
  189.6050  176.9070  143.9260 C   0  0  0  0  0  0  0  0  0  0  0  0
  190.8370  176.2820  143.3660 C   0  0  2  0  0  3  0  0  0  0  0  0
  189.6560  176.9300  145.4060 C   0  0  2  0  0  3  0  0  0  0  0  0
  186.0860  178.0580  147.1470 C   0  0  2  0  0  0  0  0  0  0  0  0
  185.4100  176.6460  146.1800 S   0  0  0  0  0  0  0  0  0  0  0  0
  185.2920  178.8660  148.0910 C   0  0  0  0  0  2  0  0  0  0  0  0
  190.9790  176.2790  145.6310 C   0  0  0  0  0  0  0  0  0  0  0  0
  188.5620  177.4020  143.2650 C   0  0  0  0  0  0  0  0  0  0  0  0
  187.6640  176.7320  146.8990 C   0  0  1  0  0  3  0  0  0  0  0  0
  187.0720  176.5860  145.4530 C   0  0  1  0  0  0  0  0  0  0  0  0
  188.4890  176.0670  145.8880 C   0  0  1  0  0  3  0  0  0  0  0  0
  185.5420  179.3020  146.7670 O   0  0  0  0  0  0  0  0  0  0  0  0
  187.4830  178.0830  147.1720 O   0  0  0  0  0  0  0  0  0  0  0  0
  187.2030  178.0370  144.2730 S   0  0  0  0  0  0  0  0  0  0  0  0
  191.5920  176.1960  146.8810 O   0  0  0  0  0  0  0  0  0  0  0  0
  191.0550  175.3130  147.8580 C   0  0  0  0  0  1  0  0  0  0  0  0
  188.7450  178.6590  141.2360 O   0  0  0  0  0  1  0  0  0  0  0  0
  188.5210  177.3790  141.7550 C   0  0  2  0  0  3  0  0  0  0  0  0
  187.2770  176.7330  141.1310 C   0  0  2  0  0  3  0  0  0  0  0  0
  187.5980  175.4560  140.6640 O   0  0  0  0  0  1  0  0  0  0  0  0
  186.6290  177.5530  140.0110 C   0  0  0  0  0  2  0  0  0  0  0  0
  186.6980  176.8790  138.7880 O   0  0  0  0  0  1  0  0  0  0  0  0
  2  1  1  1  0  0  0
  2  6  1  0  0  0  0
  6  3  1  0  0  0  0
  6  4  1  0  0  0  0
  6  5  1  0  0  0  0
  7  2  1  0  0  0  0
  8  9  1  1  0  0  0
  8 10  1  0  0  0  0
  8  7  1  0  0  0  0
 11 19  1  1  0  0  0
 11  8  1  0  0  0  0
 14 12  2  0  0  0  0
 14 11  1  0  0  0  0
 15 12  1  0  0  0  0
 15 13  1  0  0  0  0
 16 14  1  0  0  0  0
 17 16  2  0  0  0  0
 17 18  1  0  0  0  0
 18 15  2  0  0  0  0
 20 19  1  0  0  0  0
 21 28  2  0  0  0  0
 22 26  1  0  0  0  0
 24 23  1  0  0  0  0
 24 22  1  0  0  0  0
 25 23  1  6  0  0  0
 26 25  1  0  0  0  0
 27 25  1  0  0  0  0
 27 20  1  1  0  0  0
 28 26  1  0  0  0  0
 29 30  1  6  0  0  0
 29 27  1  0  0  0  0
 29 28  1  0  0  0  0
 31 30  1  0  0  0  0
 32  1  1  0  0  0  0
 33 34  1  0  0  0  0
 34 35  1  0  0  0  0
 34 32  1  1  0  0  0
 35 36  1  0  0  0  0
 37 33  1  1  0  0  0
 37 36  1  0  0  0  0
 37 40  1  0  0  0  0
 38 45  2  0  0  0  0
 40 39  1  1  0  0  0
 40 38  1  0  0  0  0
 41 39  1  6  0  0  0
 41 45  1  0  0  0  0
 41 49  1  0  0  0  0
 42 51  1  0  0  0  0
 42 44  1  1  0  0  0
 43 42  1  0  0  0  0
 45 53  1  0  0  0  0
 46 39  2  0  0  0  0
 46 52  1  0  0  0  0
 47 51  1  6  0  0  0
 48 52  1  6  0  0  0
 48 49  1  0  0  0  0
 48 43  1  0  0  0  0
 48 47  1  0  0  0  0
 49 47  1  0  0  0  0
 50 42  1  0  0  0  0
 50 44  1  0  0  0  0
 53 54  1  0  0  0  0
 55 56  1  0  0  0  0
 56 46  1  0  0  0  0
 57 56  1  0  0  0  0
 58 57  1  0  0  0  0
 59 57  1  0  0  0  0
 60 59  1  0  0  0  0
M  END
>  <MODEL>
7

>  <REMARK>
 VINA RESULT:      -6.2      4.405      9.198
  Name = 
  17 active torsions:
  status: ('A' for Active; 'I' for Inactive)
    1  A    between atoms: N_2  and  N_36
    2  A    between atoms: N_2  and  C_43
    3  A    between atoms: C_5  and  C_45
    4  A    between atoms: C_5  and  C_59
    5  A    between atoms: C_8  and  C_28
    6  A    between atoms: C_8  and  N_55
    7  A    between atoms: O_14  and  C_32
    8  A    between atoms: C_15  and  C_28
    9  A    between atoms: C_16  and  C_50
   10  A    between atoms: C_22  and  C_45
   11  A    between atoms: C_25  and  C_27
   12  A    between atoms: C_25  and  C_31
   13  A    between atoms: C_28  and  N_36
   14  A    between atoms: C_31  and  C_34
   15  A    between atoms: C_38  and  C_51
   16  A    between atoms: C_44  and  C_59
   17  A    between atoms: N_55  and  C_59
                            x       y       z     vdW  Elec       q    Type
                         _______ _______ _______ _____ _____    ______ ____

>  <TORSDO>
F 17

$$$$
=
 OpenBabel11062420403D

 60 68  0  0  1  0  0  0  0  0999 V2000
  190.8030  172.1390  139.7750 C   0  0  0  0  0  2  0  0  0  0  0  0
  189.4860  172.9130  139.8870 C   0  0  2  0  0  3  0  0  0  0  0  0
  188.1100  174.5060  138.7110 F   0  0  0  0  0  0  0  0  0  0  0  0
  188.3010  172.4180  137.8790 F   0  0  0  0  0  0  0  0  0  0  0  0
  190.0350  173.8380  137.7290 F   0  0  0  0  0  0  0  0  0  0  0  0
  188.9790  173.4360  138.5320 C   0  0  0  0  0  0  0  0  0  0  0  0
  189.6690  174.0180  140.8290 N   0  0  0  0  0  2  0  0  0  0  0  0
  188.8760  173.8300  142.0540 C   0  0  2  0  0  0  0  0  0  0  0  0
  189.5680  173.0080  142.9500 O   0  0  0  0  0  1  0  0  0  0  0  0
  187.5970  173.2160  141.7180 N   0  0  0  0  0  1  0  0  0  0  0  0
  188.6610  175.2100  142.7170 C   0  0  2  0  0  3  0  0  0  0  0  0
  186.5140  176.3950  143.0760 N   0  0  0  0  0  0  0  0  0  0  0  0
  184.6140  177.6670  143.6170 F   0  0  0  0  0  0  0  0  0  0  0  0
  187.4870  176.0100  142.2000 C   0  0  0  0  0  0  0  0  0  0  0  0
  185.5500  177.2870  142.7200 C   0  0  0  0  0  0  0  0  0  0  0  0
  187.5090  176.5590  140.9100 C   0  0  0  0  0  3  0  0  0  0  0  0
  186.5210  177.4600  140.5230 C   0  0  0  0  0  3  0  0  0  0  0  0
  185.5390  177.8360  141.4350 C   0  0  0  0  0  3  0  0  0  0  0  0
  189.8670  176.0190  142.6350 N   0  0  0  0  0  2  0  0  0  0  0  0
  189.7980  176.9500  143.6820 N   0  0  0  0  0  2  0  0  0  0  0  0
  190.7670  177.4470  148.2090 O   0  0  0  0  0  0  0  0  0  0  0  0
  192.7390  175.5480  147.0730 C   0  0  0  0  0  2  0  0  0  0  0  0
  192.0150  174.7770  144.9210 C   0  0  0  0  0  2  0  0  0  0  0  0
  192.9820  174.4550  146.0550 C   0  0  0  0  0  2  0  0  0  0  0  0
  191.6240  176.1780  145.0470 N   0  0  2  0  0  0  0  0  0  0  0  0
  191.9020  176.5010  146.3840 N   0  0  0  0  0  0  0  0  0  0  0  0
  190.1550  176.2730  144.9220 C   0  0  1  0  0  3  0  0  0  0  0  0
  190.7770  177.0650  147.0100 C   0  0  0  0  0  0  0  0  0  0  0  0
  189.6340  177.1140  146.0960 C   0  0  2  0  0  3  0  0  0  0  0  0
  188.3960  176.4690  146.6990 C   0  0  0  0  0  2  0  0  0  0  0  0
  187.3180  177.3510  146.5630 O   0  0  0  0  0  1  0  0  0  0  0  0
  190.5340  170.6650  139.5430 C   0  0  0  0  0  2  0  0  0  0  0  0
  192.4070  168.8830  138.7660 S   0  0  0  0  0  0  0  0  0  0  0  0
  191.2330  170.1610  138.2940 C   0  0  2  0  0  3  0  0  0  0  0  0
  192.0500  171.2670  137.6690 C   0  0  0  0  0  2  0  0  0  0  0  0
  193.2690  171.4330  138.4420 N   0  0  0  0  0  2  0  0  0  0  0  0
  193.7650  170.0950  138.7700 C   0  0  1  0  0  3  0  0  0  0  0  0
  193.4760  169.8960  141.2110 N   0  0  0  0  0  0  0  0  0  0  0  0
  195.1200  171.3550  140.4880 C   0  0  0  0  0  0  0  0  0  0  0  0
  194.4500  170.0690  140.1410 C   0  0  2  0  0  3  0  0  0  0  0  0
  194.5820  171.9010  141.7550 C   0  0  2  0  0  3  0  0  0  0  0  0
  195.8690  175.7420  142.5560 C   0  0  2  0  0  0  0  0  0  0  0  0
  195.1380  176.1060  140.9080 S   0  0  0  0  0  0  0  0  0  0  0  0
  196.4470  176.7660  143.4450 C   0  0  0  0  0  2  0  0  0  0  0  0
  193.5770  170.8500  142.0850 C   0  0  0  0  0  0  0  0  0  0  0  0
  196.0740  171.9920  139.8130 C   0  0  0  0  0  0  0  0  0  0  0  0
  194.3680  174.3340  142.2760 C   0  0  1  0  0  3  0  0  0  0  0  0
  194.9230  174.3060  140.8090 C   0  0  1  0  0  0  0  0  0  0  0  0
  193.9340  173.2420  141.4040 C   0  0  1  0  0  3  0  0  0  0  0  0
  197.2600  175.9630  142.6080 O   0  0  0  0  0  0  0  0  0  0  0  0
  195.5220  174.4770  143.0400 O   0  0  0  0  0  0  0  0  0  0  0  0
  196.6200  173.5730  140.4990 S   0  0  0  0  0  0  0  0  0  0  0  0
  192.8840  170.8010  143.2950 O   0  0  0  0  0  0  0  0  0  0  0  0
  192.6720  169.5420  143.9220 C   0  0  0  0  0  1  0  0  0  0  0  0
  197.7670  170.6610  138.7680 O   0  0  0  0  0  1  0  0  0  0  0  0
  196.6200  171.4240  138.5240 C   0  0  2  0  0  3  0  0  0  0  0  0
  196.8520  172.4370  137.3950 C   0  0  2  0  0  3  0  0  0  0  0  0
  195.6410  173.0440  137.0550 O   0  0  0  0  0  1  0  0  0  0  0  0
  197.5160  171.8530  136.1450 C   0  0  0  0  0  2  0  0  0  0  0  0
  196.7590  172.1220  135.0000 O   0  0  0  0  0  1  0  0  0  0  0  0
  2  1  1  6  0  0  0
  2  7  1  0  0  0  0
  4  6  1  0  0  0  0
  5  6  1  0  0  0  0
  6  3  1  0  0  0  0
  6  2  1  0  0  0  0
  7  8  1  0  0  0  0
  8 10  1  6  0  0  0
  8 11  1  0  0  0  0
  8  9  1  0  0  0  0
 11 19  1  6  0  0  0
 14 11  1  0  0  0  0
 14 12  2  0  0  0  0
 15 12  1  0  0  0  0
 15 13  1  0  0  0  0
 16 14  1  0  0  0  0
 17 16  2  0  0  0  0
 17 18  1  0  0  0  0
 18 15  2  0  0  0  0
 19 20  1  0  0  0  0
 23 24  1  0  0  0  0
 24 22  1  0  0  0  0
 25 23  1  1  0  0  0
 25 26  1  0  0  0  0
 26 28  1  0  0  0  0
 26 22  1  0  0  0  0
 27 20  1  6  0  0  0
 27 25  1  0  0  0  0
 27 29  1  0  0  0  0
 28 21  2  0  0  0  0
 29 30  1  1  0  0  0
 29 28  1  0  0  0  0
 31 30  1  0  0  0  0
 32  1  1  0  0  0  0
 33 37  1  0  0  0  0
 34 33  1  0  0  0  0
 34 32  1  1  0  0  0
 35 34  1  0  0  0  0
 35 36  1  0  0  0  0
 37 36  1  1  0  0  0
 37 40  1  0  0  0  0
 38 45  2  0  0  0  0
 40 39  1  1  0  0  0
 40 38  1  0  0  0  0
 41 39  1  6  0  0  0
 41 45  1  0  0  0  0
 42 50  1  0  0  0  0
 42 51  1  0  0  0  0
 42 44  1  1  0  0  0
 43 42  1  0  0  0  0
 45 53  1  0  0  0  0
 46 39  2  0  0  0  0
 46 52  1  0  0  0  0
 47 51  1  1  0  0  0
 48 52  1  1  0  0  0
 48 43  1  0  0  0  0
 48 49  1  0  0  0  0
 48 47  1  0  0  0  0
 49 41  1  0  0  0  0
 49 47  1  0  0  0  0
 50 44  1  0  0  0  0
 53 54  1  0  0  0  0
 56 55  1  0  0  0  0
 56 46  1  0  0  0  0
 57 56  1  0  0  0  0
 58 57  1  0  0  0  0
 59 57  1  0  0  0  0
 60 59  1  0  0  0  0
M  END
>  <MODEL>
8

>  <REMARK>
 VINA RESULT:      -6.0      3.402      6.903
  Name = 
  17 active torsions:
  status: ('A' for Active; 'I' for Inactive)
    1  A    between atoms: N_2  and  N_36
    2  A    between atoms: N_2  and  C_43
    3  A    between atoms: C_5  and  C_45
    4  A    between atoms: C_5  and  C_59
    5  A    between atoms: C_8  and  C_28
    6  A    between atoms: C_8  and  N_55
    7  A    between atoms: O_14  and  C_32
    8  A    between atoms: C_15  and  C_28
    9  A    between atoms: C_16  and  C_50
   10  A    between atoms: C_22  and  C_45
   11  A    between atoms: C_25  and  C_27
   12  A    between atoms: C_25  and  C_31
   13  A    between atoms: C_28  and  N_36
   14  A    between atoms: C_31  and  C_34
   15  A    between atoms: C_38  and  C_51
   16  A    between atoms: C_44  and  C_59
   17  A    between atoms: N_55  and  C_59
                            x       y       z     vdW  Elec       q    Type
                         _______ _______ _______ _____ _____    ______ ____

>  <TORSDO>
F 17

$$$$
=
 OpenBabel11062420403D

 60 68  0  0  1  0  0  0  0  0999 V2000
  190.9760  170.8820  141.7540 C   0  0  0  0  0  2  0  0  0  0  0  0
  191.1260  170.5110  140.2760 C   0  0  2  0  0  3  0  0  0  0  0  0
  190.1940  168.4360  141.0750 F   0  0  0  0  0  0  0  0  0  0  0  0
  192.0460  168.3670  139.7900 F   0  0  0  0  0  0  0  0  0  0  0  0
  190.0650  168.8720  138.8600 F   0  0  0  0  0  0  0  0  0  0  0  0
  190.8430  169.0250  139.9970 C   0  0  0  0  0  0  0  0  0  0  0  0
  192.4750  170.8690  139.8360 N   0  0  0  0  0  2  0  0  0  0  0  0
  192.4540  171.6890  138.6150 C   0  0  2  0  0  0  0  0  0  0  0  0
  191.1940  171.6140  138.0110 O   0  0  0  0  0  1  0  0  0  0  0  0
  193.4680  171.2060  137.6850 N   0  0  0  0  0  1  0  0  0  0  0  0
  192.7280  173.1590  139.0040 C   0  0  2  0  0  3  0  0  0  0  0  0
  191.8530  174.4530  137.0800 N   0  0  0  0  0  0  0  0  0  0  0  0
  190.8340  175.7890  135.4360 F   0  0  0  0  0  0  0  0  0  0  0  0
  192.9280  174.1160  137.8510 C   0  0  0  0  0  0  0  0  0  0  0  0
  191.9220  175.4610  136.1680 C   0  0  0  0  0  0  0  0  0  0  0  0
  194.1240  174.8350  137.7180 C   0  0  0  0  0  3  0  0  0  0  0  0
  194.2170  175.8580  136.7780 C   0  0  0  0  0  3  0  0  0  0  0  0
  193.1080  176.1820  136.0030 C   0  0  0  0  0  3  0  0  0  0  0  0
  193.8630  173.2550  139.9080 N   0  0  0  0  0  2  0  0  0  0  0  0
  193.4130  173.9380  141.0480 N   0  0  0  0  0  2  0  0  0  0  0  0
  194.8200  174.5120  145.4490 O   0  0  0  0  0  0  0  0  0  0  0  0
  196.2540  176.4990  143.7820 C   0  0  0  0  0  2  0  0  0  0  0  0
  196.0560  175.9420  141.4580 C   0  0  0  0  0  2  0  0  0  0  0  0
  196.8710  176.7880  142.4300 C   0  0  0  0  0  2  0  0  0  0  0  0
  194.7940  175.5990  142.1080 N   0  0  2  0  0  0  0  0  0  0  0  0
  195.0480  175.7680  143.4780 N   0  0  0  0  0  0  0  0  0  0  0  0
  194.5490  174.1520  141.9340 C   0  0  1  0  0  3  0  0  0  0  0  0
  194.6960  174.6150  144.2010 C   0  0  0  0  0  0  0  0  0  0  0  0
  194.2050  173.5620  143.3080 C   0  0  2  0  0  3  0  0  0  0  0  0
  194.9440  172.2500  143.5190 C   0  0  0  0  0  2  0  0  0  0  0  0
  194.2250  171.2250  142.8920 O   0  0  0  0  0  1  0  0  0  0  0  0
  190.5000  172.3150  141.8960 C   0  0  0  0  0  2  0  0  0  0  0  0
  189.3890  174.1900  140.3030 S   0  0  0  0  0  0  0  0  0  0  0  0
  189.2500  172.5700  141.0730 C   0  0  2  0  0  3  0  0  0  0  0  0
  188.0380  172.6370  141.9700 C   0  0  0  0  0  2  0  0  0  0  0  0
  188.0250  173.9310  142.6320 N   0  0  0  0  0  2  0  0  0  0  0  0
  188.3980  174.9360  141.6350 C   0  0  1  0  0  3  0  0  0  0  0  0
  190.3270  175.5790  143.0320 N   0  0  0  0  0  0  0  0  0  0  0  0
  188.4150  176.8600  143.2700 C   0  0  0  0  0  0  0  0  0  0  0  0
  189.1960  176.0840  142.2640 C   0  0  2  0  0  3  0  0  0  0  0  0
  189.0950  176.8470  144.5850 C   0  0  2  0  0  3  0  0  0  0  0  0
  186.7910  178.4160  147.6320 C   0  0  2  0  0  0  0  0  0  0  0  0
  185.5890  177.1280  147.1030 S   0  0  0  0  0  0  0  0  0  0  0  0
  186.5900  179.3050  148.7900 C   0  0  0  0  0  2  0  0  0  0  0  0
  190.2890  176.0180  144.2520 C   0  0  0  0  0  0  0  0  0  0  0  0
  187.2640  177.5050  143.0960 C   0  0  0  0  0  0  0  0  0  0  0  0
  187.9240  176.8920  146.7900 C   0  0  1  0  0  3  0  0  0  0  0  0
  186.7580  176.8560  145.7410 C   0  0  1  0  0  0  0  0  0  0  0  0
  188.1430  176.1410  145.5530 C   0  0  1  0  0  3  0  0  0  0  0  0
  186.3060  179.7290  147.4690 O   0  0  0  0  0  0  0  0  0  0  0  0
  188.0560  178.2500  147.0590 O   0  0  0  0  0  0  0  0  0  0  0  0
  186.5620  178.2990  144.5600 S   0  0  0  0  0  0  0  0  0  0  0  0
  191.3610  175.8280  145.1250 O   0  0  0  0  0  0  0  0  0  0  0  0
  191.3650  174.6910  145.9800 C   0  0  0  0  0  1  0  0  0  0  0  0
  187.4480  177.9930  140.7590 O   0  0  0  0  0  1  0  0  0  0  0  0
  186.5800  177.5170  141.7490 C   0  0  2  0  0  3  0  0  0  0  0  0
  185.2250  178.2340  141.6950 C   0  0  2  0  0  3  0  0  0  0  0  0
  184.2980  177.5420  142.4790 O   0  0  0  0  0  1  0  0  0  0  0  0
  184.6690  178.4380  140.2830 C   0  0  0  0  0  2  0  0  0  0  0  0
  183.5620  177.6140  140.0530 O   0  0  0  0  0  1  0  0  0  0  0  0
  1 32  1  0  0  0  0
  2  1  1  1  0  0  0
  4  6  1  0  0  0  0
  5  6  1  0  0  0  0
  6  2  1  0  0  0  0
  6  3  1  0  0  0  0
  7  2  1  0  0  0  0
  8 10  1  6  0  0  0
  8 11  1  0  0  0  0
  8  7  1  0  0  0  0
  9  8  1  0  0  0  0
 11 19  1  1  0  0  0
 12 14  1  0  0  0  0
 13 15  1  0  0  0  0
 14 11  1  0  0  0  0
 15 12  2  0  0  0  0
 16 14  2  0  0  0  0
 17 16  1  0  0  0  0
 18 15  1  0  0  0  0
 18 17  2  0  0  0  0
 19 20  1  0  0  0  0
 23 24  1  0  0  0  0
 24 22  1  0  0  0  0
 25 23  1  6  0  0  0
 25 26  1  0  0  0  0
 26 22  1  0  0  0  0
 26 28  1  0  0  0  0
 27 20  1  6  0  0  0
 27 25  1  0  0  0  0
 27 29  1  0  0  0  0
 28 21  2  0  0  0  0
 29 30  1  1  0  0  0
 29 28  1  0  0  0  0
 31 30  1  0  0  0  0
 33 34  1  0  0  0  0
 34 32  1  1  0  0  0
 34 35  1  0  0  0  0
 35 36  1  0  0  0  0
 37 33  1  6  0  0  0
 37 40  1  0  0  0  0
 37 36  1  0  0  0  0
 38 45  2  0  0  0  0
 40 38  1  1  0  0  0
 40 39  1  0  0  0  0
 41 39  1  6  0  0  0
 41 49  1  0  0  0  0
 42 44  1  1  0  0  0
 43 42  1  0  0  0  0
 45 41  1  0  0  0  0
 45 53  1  0  0  0  0
 46 39  2  0  0  0  0
 46 52  1  0  0  0  0
 47 51  1  6  0  0  0
 48 52  1  6  0  0  0
 48 47  1  0  0  0  0
 48 43  1  0  0  0  0
 49 48  1  0  0  0  0
 49 47  1  0  0  0  0
 50 42  1  0  0  0  0
 50 44  1  0  0  0  0
 51 42  1  0  0  0  0
 53 54  1  0  0  0  0
 55 56  1  0  0  0  0
 56 46  1  0  0  0  0
 57 56  1  0  0  0  0
 57 58  1  0  0  0  0
 59 57  1  0  0  0  0
 60 59  1  0  0  0  0
M  END
>  <MODEL>
9

>  <REMARK>
 VINA RESULT:      -6.0      4.417      9.251
  Name = 
  17 active torsions:
  status: ('A' for Active; 'I' for Inactive)
    1  A    between atoms: N_2  and  N_36
    2  A    between atoms: N_2  and  C_43
    3  A    between atoms: C_5  and  C_45
    4  A    between atoms: C_5  and  C_59
    5  A    between atoms: C_8  and  C_28
    6  A    between atoms: C_8  and  N_55
    7  A    between atoms: O_14  and  C_32
    8  A    between atoms: C_15  and  C_28
    9  A    between atoms: C_16  and  C_50
   10  A    between atoms: C_22  and  C_45
   11  A    between atoms: C_25  and  C_27
   12  A    between atoms: C_25  and  C_31
   13  A    between atoms: C_28  and  N_36
   14  A    between atoms: C_31  and  C_34
   15  A    between atoms: C_38  and  C_51
   16  A    between atoms: C_44  and  C_59
   17  A    between atoms: N_55  and  C_59
                            x       y       z     vdW  Elec       q    Type
                         _______ _______ _______ _____ _____    ______ ____

>  <TORSDO>
F 17

$$$$
