=
 OpenBabel11062422163D

 44 47  0  0  1  0  0  0  0  0999 V2000
  193.3590  176.6440  146.9960 N   0  0  0  0  0  0  0  0  0  0  0  0
  188.0610  176.9100  144.4430 C   0  0  2  0  0  3  0  0  0  0  0  0
  192.5200  172.4080  144.4160 O   0  0  0  0  0  0  0  0  0  0  0  0
  192.5140  171.5070  143.3390 C   0  0  2  0  0  3  0  0  0  0  0  0
  190.9960  176.6500  147.0480 N   0  0  0  0  0  0  0  0  0  0  0  0
  193.3550  174.4450  145.2880 C   0  0  2  0  0  3  0  0  0  0  0  0
  193.3300  173.5260  144.0930 C   0  0  2  0  0  3  0  0  0  0  0  0
  191.2360  171.7090  142.5220 C   0  0  0  0  0  2  0  0  0  0  0  0
  192.1710  176.0690  146.6690 C   0  0  0  0  0  0  0  0  0  0  0  0
  187.7160  175.7540  143.5130 C   0  0  0  0  0  2  0  0  0  0  0  0
  192.7730  174.4140  142.9410 C   0  0  0  0  0  2  0  0  0  0  0  0
  189.7920  176.1020  146.7180 C   0  0  0  0  0  0  0  0  0  0  0  0
  188.9400  175.3730  142.6930 C   0  0  0  0  0  2  0  0  0  0  0  0
  188.7150  174.0420  141.9880 C   0  0  0  0  0  2  0  0  0  0  0  0
  191.0980  173.1930  142.1890 C   0  0  1  0  0  3  0  0  0  0  0  0
  192.1520  174.9110  145.8660 C   0  0  1  0  0  3  0  0  0  0  0  0
  194.5390  176.1580  146.5200 C   0  0  0  0  0  3  0  0  0  0  0  0
  188.5230  176.8650  146.9720 C   0  0  0  0  0  2  0  0  0  0  0  0
  192.3390  173.7120  141.8100 O   0  0  0  0  0  0  0  0  0  0  0  0
  190.9240  174.2970  145.6090 C   0  0  0  0  0  3  0  0  0  0  0  0
  189.7460  174.8750  146.0510 C   0  0  0  0  0  3  0  0  0  0  0  0
  187.4850  176.6620  145.8530 C   0  0  1  0  0  3  0  0  0  0  0  0
  194.5540  175.0750  145.6340 C   0  0  0  0  0  3  0  0  0  0  0  0
  189.9720  173.6170  141.2290 C   0  0  1  0  0  3  0  0  0  0  0  0
  186.2420  178.6310  146.7780 O   0  0  0  0  0  1  0  0  0  0  0  0
  186.2150  177.3970  146.1390 C   0  0  0  0  0  0  0  0  0  0  0  0
  185.1150  176.9050  145.7800 O   0  0  0  0  0  0  0  0  0  0  0  0
  193.6110  169.9470  144.7670 O   0  0  0  0  0  1  0  0  0  0  0  0
  192.5620  170.0830  143.8580 C   0  0  0  0  0  2  0  0  0  0  0  0
  189.6510  172.6550  140.0740 C   0  0  2  0  0  3  0  0  0  0  0  0
  191.0590  170.1740  139.1350 C   0  0  0  0  0  1  0  0  0  0  0  0
  190.6870  172.6910  139.0480 N   0  0  0  0  0  2  0  0  0  0  0  0
  191.3470  171.5200  138.5610 C   0  0  0  0  0  0  0  0  0  0  0  0
  192.1930  171.6260  137.6360 O   0  0  0  0  0  0  0  0  0  0  0  0
  188.2860  172.9360  139.4590 C   0  0  0  0  0  2  0  0  0  0  0  0
  188.4330  173.3860  138.0160 C   0  0  0  0  0  2  0  0  0  0  0  0
  187.7820  174.7420  137.8270 C   0  0  0  0  0  2  0  0  0  0  0  0
  188.0690  175.2400  136.5270 O   0  0  0  0  0  0  0  0  0  0  0  0
  186.0400  176.1340  135.9480 O   0  0  0  0  0  0  0  0  0  0  0  0
  187.9180  177.4020  135.2380 C   0  0  0  0  0  1  0  0  0  0  0  0
  187.2950  176.2290  135.9190 C   0  0  0  0  0  0  0  0  0  0  0  0
  187.6550  178.1320  143.8950 O   0  0  0  0  0  0  0  0  0  0  0  0
  186.8520  177.7850  142.8070 C   0  0  0  0  0  2  0  0  0  0  0  0
  185.6830  178.7450  142.7160 C   0  0  0  0  0  1  0  0  0  0  0  0
  2 42  1  6  0  0  0
  2 22  1  0  0  0  0
  4 29  1  1  0  0  0
  4  3  1  0  0  0  0
  6 23  1  6  0  0  0
  6 16  1  0  0  0  0
  7 11  1  6  0  0  0
  7  3  1  0  0  0  0
  7  6  1  0  0  0  0
  8  4  1  0  0  0  0
  9  1  2  0  0  0  0
  9  5  1  0  0  0  0
 10  2  1  0  0  0  0
 12 18  1  0  0  0  0
 12  5  2  0  0  0  0
 13 10  1  0  0  0  0
 14 13  1  0  0  0  0
 15  8  1  6  0  0  0
 16 20  1  6  0  0  0
 16  9  1  0  0  0  0
 17  1  1  0  0  0  0
 19 15  1  0  0  0  0
 19 11  1  0  0  0  0
 20 21  2  0  0  0  0
 21 12  1  0  0  0  0
 22 26  1  1  0  0  0
 22 18  1  0  0  0  0
 23 17  2  0  0  0  0
 24 30  1  6  0  0  0
 24 14  1  0  0  0  0
 24 15  1  0  0  0  0
 26 25  1  0  0  0  0
 27 26  2  0  0  0  0
 29 28  1  0  0  0  0
 30 35  1  6  0  0  0
 32 30  1  0  0  0  0
 33 32  1  0  0  0  0
 33 31  1  0  0  0  0
 34 33  2  0  0  0  0
 36 35  1  0  0  0  0
 37 36  1  0  0  0  0
 38 37  1  0  0  0  0
 40 41  1  0  0  0  0
 41 39  2  0  0  0  0
 41 38  1  0  0  0  0
 43 42  1  0  0  0  0
 44 43  1  0  0  0  0
M  END
>  <MODEL>
1

>  <REMARK>
 VINA RESULT:      -7.3      0.000      0.000
  Name = 
  11 active torsions:
  status: ('A' for Active; 'I' for Inactive)
    1  A    between atoms: C_3  and  O_9
    2  A    between atoms: C_5  and  C_26
    3  A    between atoms: C_6  and  C_22
    4  A    between atoms: C_6  and  N_36
    5  A    between atoms: C_6  and  C_41
    6  A    between atoms: O_9  and  C_40
    7  A    between atoms: C_10  and  C_22
    8  A    between atoms: C_10  and  C_34
    9  A    between atoms: O_27  and  C_31
   10  A    between atoms: O_27  and  C_34
   11  A    between atoms: C_28  and  C_38
                            x       y       z     vdW  Elec       q    Type
                         _______ _______ _______ _____ _____    ______ ____

>  <TORSDO>
F 11

$$$$
=
 OpenBabel11062422163D

 44 47  0  0  1  0  0  0  0  0999 V2000
  193.7930  176.2630  146.7490 N   0  0  0  0  0  0  0  0  0  0  0  0
  188.4210  176.6190  144.3670 C   0  0  2  0  0  3  0  0  0  0  0  0
  192.7390  171.9810  144.3290 O   0  0  0  0  0  0  0  0  0  0  0  0
  192.6680  171.0490  143.2820 C   0  0  2  0  0  3  0  0  0  0  0  0
  191.4350  176.3440  146.8790 N   0  0  0  0  0  0  0  0  0  0  0  0
  193.6640  174.0170  145.1100 C   0  0  2  0  0  3  0  0  0  0  0  0
  193.5710  173.0640  143.9460 C   0  0  2  0  0  3  0  0  0  0  0  0
  191.3700  171.2660  142.5030 C   0  0  0  0  0  2  0  0  0  0  0  0
  192.5780  175.7170  146.4790 C   0  0  0  0  0  0  0  0  0  0  0  0
  188.0090  175.4460  143.4850 C   0  0  0  0  0  2  0  0  0  0  0  0
  193.0020  173.9330  142.7860 C   0  0  0  0  0  2  0  0  0  0  0  0
  190.2040  175.8250  146.6070 C   0  0  0  0  0  0  0  0  0  0  0  0
  189.1920  175.0040  142.6370 C   0  0  0  0  0  2  0  0  0  0  0  0
  188.9040  173.6590  141.9810 C   0  0  0  0  0  2  0  0  0  0  0  0
  191.2660  172.7430  142.1280 C   0  0  1  0  0  3  0  0  0  0  0  0
  192.4970  174.5360  145.7140 C   0  0  1  0  0  3  0  0  0  0  0  0
  194.9400  175.7280  146.2490 C   0  0  0  0  0  3  0  0  0  0  0  0
  188.9680  176.6340  146.8800 C   0  0  0  0  0  2  0  0  0  0  0  0
  192.5080  173.2120  141.6930 O   0  0  0  0  0  0  0  0  0  0  0  0
  191.2420  173.9530  145.5170 C   0  0  0  0  0  3  0  0  0  0  0  0
  190.0990  174.5810  145.9800 C   0  0  0  0  0  3  0  0  0  0  0  0
  187.8870  176.4300  145.8030 C   0  0  1  0  0  3  0  0  0  0  0  0
  194.8930  174.6190  145.3970 C   0  0  0  0  0  3  0  0  0  0  0  0
  190.1210  173.1740  141.1940 C   0  0  1  0  0  3  0  0  0  0  0  0
  185.4190  176.8140  145.5990 O   0  0  0  0  0  0  0  0  0  0  0  0
  186.6490  177.2130  146.1080 C   0  0  0  0  0  0  0  0  0  0  0  0
  186.7200  178.2290  146.8460 O   0  0  0  0  0  1  0  0  0  0  0  0
  193.5670  169.5780  144.9260 O   0  0  0  0  0  1  0  0  0  0  0  0
  192.6910  169.6400  143.8420 C   0  0  0  0  0  2  0  0  0  0  0  0
  189.7310  172.1880  140.0800 C   0  0  2  0  0  3  0  0  0  0  0  0
  190.4420  169.4200  139.1570 C   0  0  0  0  0  1  0  0  0  0  0  0
  190.8500  171.9330  139.1810 N   0  0  0  0  0  2  0  0  0  0  0  0
  191.1860  170.6290  138.7010 C   0  0  0  0  0  0  0  0  0  0  0  0
  192.1340  170.4960  137.8840 O   0  0  0  0  0  0  0  0  0  0  0  0
  188.5170  172.6650  139.2940 C   0  0  0  0  0  2  0  0  0  0  0  0
  188.8010  174.0020  138.6340 C   0  0  0  0  0  2  0  0  0  0  0  0
  188.4590  173.9340  137.1580 C   0  0  0  0  0  2  0  0  0  0  0  0
  189.6520  173.9240  136.3840 O   0  0  0  0  0  0  0  0  0  0  0  0
  191.3630  172.7290  135.4390 O   0  0  0  0  0  0  0  0  0  0  0  0
  189.3170  171.5400  135.6360 C   0  0  0  0  0  1  0  0  0  0  0  0
  190.1610  172.7580  135.8120 C   0  0  0  0  0  0  0  0  0  0  0  0
  188.0330  177.8350  143.7960 O   0  0  0  0  0  0  0  0  0  0  0  0
  189.1070  178.2060  142.9840 C   0  0  0  0  0  2  0  0  0  0  0  0
  190.3690  178.2810  143.8170 C   0  0  0  0  0  1  0  0  0  0  0  0
  2 42  1  6  0  0  0
  2 22  1  0  0  0  0
  4 29  1  1  0  0  0
  4  3  1  0  0  0  0
  6 23  1  6  0  0  0
  6 16  1  0  0  0  0
  7 11  1  6  0  0  0
  7  3  1  0  0  0  0
  7  6  1  0  0  0  0
  8  4  1  0  0  0  0
  9  1  2  0  0  0  0
  9  5  1  0  0  0  0
 10  2  1  0  0  0  0
 12  5  2  0  0  0  0
 12 18  1  0  0  0  0
 13 10  1  0  0  0  0
 14 13  1  0  0  0  0
 15  8  1  6  0  0  0
 16 20  1  6  0  0  0
 16  9  1  0  0  0  0
 17  1  1  0  0  0  0
 19 15  1  0  0  0  0
 19 11  1  0  0  0  0
 20 21  2  0  0  0  0
 21 12  1  0  0  0  0
 22 26  1  1  0  0  0
 22 18  1  0  0  0  0
 23 17  2  0  0  0  0
 24 30  1  1  0  0  0
 24 14  1  0  0  0  0
 24 15  1  0  0  0  0
 25 26  2  0  0  0  0
 26 27  1  0  0  0  0
 29 28  1  0  0  0  0
 30 35  1  6  0  0  0
 32 30  1  0  0  0  0
 33 31  1  0  0  0  0
 33 32  1  0  0  0  0
 34 33  2  0  0  0  0
 36 35  1  0  0  0  0
 37 36  1  0  0  0  0
 38 37  1  0  0  0  0
 39 41  2  0  0  0  0
 40 41  1  0  0  0  0
 41 38  1  0  0  0  0
 43 42  1  0  0  0  0
 43 44  1  0  0  0  0
M  END
>  <MODEL>
2

>  <REMARK>
 VINA RESULT:      -6.9      1.329      1.874
  Name = 
  11 active torsions:
  status: ('A' for Active; 'I' for Inactive)
    1  A    between atoms: C_3  and  O_9
    2  A    between atoms: C_5  and  C_26
    3  A    between atoms: C_6  and  C_22
    4  A    between atoms: C_6  and  N_36
    5  A    between atoms: C_6  and  C_41
    6  A    between atoms: O_9  and  C_40
    7  A    between atoms: C_10  and  C_22
    8  A    between atoms: C_10  and  C_34
    9  A    between atoms: O_27  and  C_31
   10  A    between atoms: O_27  and  C_34
   11  A    between atoms: C_28  and  C_38
                            x       y       z     vdW  Elec       q    Type
                         _______ _______ _______ _____ _____    ______ ____

>  <TORSDO>
F 11

$$$$
=
 OpenBabel11062422163D

 44 47  0  0  1  0  0  0  0  0999 V2000
  187.5450  176.8280  140.8440 N   0  0  0  0  0  0  0  0  0  0  0  0
  191.3240  172.4310  139.8180 C   0  0  2  0  0  3  0  0  0  0  0  0
  189.8470  175.5510  145.1320 O   0  0  0  0  0  0  0  0  0  0  0  0
  190.8030  175.5560  146.1580 C   0  0  2  0  0  3  0  0  0  0  0  0
  188.0710  174.5840  140.3200 N   0  0  0  0  0  0  0  0  0  0  0  0
  188.9910  176.6530  143.2170 C   0  0  2  0  0  3  0  0  0  0  0  0
  190.0650  176.6610  144.2750 C   0  0  2  0  0  3  0  0  0  0  0  0
  191.9220  174.5730  145.8080 C   0  0  0  0  0  2  0  0  0  0  0  0
  188.0970  175.6340  141.1910 C   0  0  0  0  0  0  0  0  0  0  0  0
  192.1980  172.0210  140.9970 C   0  0  0  0  0  2  0  0  0  0  0  0
  191.3960  176.5980  143.4680 C   0  0  0  0  0  2  0  0  0  0  0  0
  188.6310  173.3820  140.6370 C   0  0  0  0  0  0  0  0  0  0  0  0
  192.6560  173.2610  141.7500 C   0  0  0  0  0  2  0  0  0  0  0  0
  193.2680  172.8740  143.0910 C   0  0  0  0  0  2  0  0  0  0  0  0
  192.4160  174.8770  144.3950 C   0  0  1  0  0  3  0  0  0  0  0  0
  188.7690  175.5050  142.4230 C   0  0  1  0  0  3  0  0  0  0  0  0
  187.6730  177.9260  141.6380 C   0  0  0  0  0  3  0  0  0  0  0  0
  188.7650  172.3140  139.5890 C   0  0  0  0  0  2  0  0  0  0  0  0
  192.5280  176.2590  144.2190 O   0  0  0  0  0  0  0  0  0  0  0  0
  189.2580  174.2480  142.7880 C   0  0  0  0  0  3  0  0  0  0  0  0
  189.1720  173.1820  141.9100 C   0  0  0  0  0  3  0  0  0  0  0  0
  190.0790  171.5230  139.7260 C   0  0  1  0  0  3  0  0  0  0  0  0
  188.4240  177.8660  142.8180 C   0  0  0  0  0  3  0  0  0  0  0  0
  193.6550  174.1220  143.8840 C   0  0  1  0  0  3  0  0  0  0  0  0
  190.8240  169.2450  138.9960 O   0  0  0  0  0  1  0  0  0  0  0  0
  190.1810  170.4400  138.6990 C   0  0  0  0  0  0  0  0  0  0  0  0
  189.6640  170.6050  137.5650 O   0  0  0  0  0  0  0  0  0  0  0  0
  188.9790  174.4440  147.2110 O   0  0  0  0  0  1  0  0  0  0  0  0
  190.1590  175.1420  147.4670 C   0  0  0  0  0  2  0  0  0  0  0  0
  194.7590  173.8310  144.9130 C   0  0  2  0  0  3  0  0  0  0  0  0
  195.9950  176.4320  144.0630 C   0  0  0  0  0  1  0  0  0  0  0  0
  196.0840  173.9000  144.3060 N   0  0  0  0  0  2  0  0  0  0  0  0
  196.7060  175.1290  143.9250 C   0  0  0  0  0  0  0  0  0  0  0  0
  197.8730  175.1120  143.4550 O   0  0  0  0  0  0  0  0  0  0  0  0
  194.5600  172.4850  145.6000 C   0  0  0  0  0  2  0  0  0  0  0  0
  195.8300  171.6560  145.5260 C   0  0  0  0  0  2  0  0  0  0  0  0
  195.5200  170.2830  144.9620 C   0  0  0  0  0  2  0  0  0  0  0  0
  196.2340  169.2890  145.6860 O   0  0  0  0  0  0  0  0  0  0  0  0
  196.9560  169.0860  147.8510 O   0  0  0  0  0  0  0  0  0  0  0  0
  194.6320  168.7050  147.5430 C   0  0  0  0  0  1  0  0  0  0  0  0
  195.9970  169.0340  147.0370 C   0  0  0  0  0  0  0  0  0  0  0  0
  192.0650  172.4630  138.6330 O   0  0  0  0  0  0  0  0  0  0  0  0
  191.8620  173.7460  138.1200 C   0  0  0  0  0  2  0  0  0  0  0  0
  191.4040  173.6480  136.6790 C   0  0  0  0  0  1  0  0  0  0  0  0
  1  9  2  0  0  0  0
  1 17  1  0  0  0  0
  2 42  1  6  0  0  0
  2 10  1  0  0  0  0
  3  4  1  0  0  0  0
  4 29  1  1  0  0  0
  5 12  2  0  0  0  0
  5  9  1  0  0  0  0
  6 23  1  6  0  0  0
  6  7  1  0  0  0  0
  7 11  1  6  0  0  0
  7  3  1  0  0  0  0
  8  4  1  0  0  0  0
  9 16  1  0  0  0  0
 10 13  1  0  0  0  0
 11 19  1  0  0  0  0
 12 21  1  0  0  0  0
 13 14  1  0  0  0  0
 14 24  1  0  0  0  0
 15  8  1  1  0  0  0
 16 20  1  6  0  0  0
 16  6  1  0  0  0  0
 17 23  2  0  0  0  0
 18 22  1  0  0  0  0
 18 12  1  0  0  0  0
 19 15  1  0  0  0  0
 21 20  2  0  0  0  0
 22 26  1  6  0  0  0
 22  2  1  0  0  0  0
 24 15  1  0  0  0  0
 24 30  1  1  0  0  0
 26 25  1  0  0  0  0
 27 26  2  0  0  0  0
 28 29  1  0  0  0  0
 30 35  1  6  0  0  0
 32 30  1  0  0  0  0
 33 31  1  0  0  0  0
 33 32  1  0  0  0  0
 34 33  2  0  0  0  0
 36 35  1  0  0  0  0
 37 36  1  0  0  0  0
 37 38  1  0  0  0  0
 38 41  1  0  0  0  0
 41 40  1  0  0  0  0
 41 39  2  0  0  0  0
 43 42  1  0  0  0  0
 44 43  1  0  0  0  0
M  END
>  <MODEL>
3

>  <REMARK>
 VINA RESULT:      -6.7      3.016      8.637
  Name = 
  11 active torsions:
  status: ('A' for Active; 'I' for Inactive)
    1  A    between atoms: C_3  and  O_9
    2  A    between atoms: C_5  and  C_26
    3  A    between atoms: C_6  and  C_22
    4  A    between atoms: C_6  and  N_36
    5  A    between atoms: C_6  and  C_41
    6  A    between atoms: O_9  and  C_40
    7  A    between atoms: C_10  and  C_22
    8  A    between atoms: C_10  and  C_34
    9  A    between atoms: O_27  and  C_31
   10  A    between atoms: O_27  and  C_34
   11  A    between atoms: C_28  and  C_38
                            x       y       z     vdW  Elec       q    Type
                         _______ _______ _______ _____ _____    ______ ____

>  <TORSDO>
F 11

$$$$
=
 OpenBabel11062422163D

 44 47  0  0  1  0  0  0  0  0999 V2000
  186.9390  176.6680  139.6860 N   0  0  0  0  0  0  0  0  0  0  0  0
  191.6290  173.1700  139.0330 C   0  0  2  0  0  3  0  0  0  0  0  0
  189.0000  175.7610  144.1850 O   0  0  0  0  0  0  0  0  0  0  0  0
  189.8250  175.9300  145.3070 C   0  0  2  0  0  3  0  0  0  0  0  0
  187.9680  174.5960  139.2030 N   0  0  0  0  0  0  0  0  0  0  0  0
  188.1370  176.7210  142.1980 C   0  0  2  0  0  3  0  0  0  0  0  0
  189.0720  176.9170  143.3650 C   0  0  2  0  0  3  0  0  0  0  0  0
  191.1520  175.2070  145.0700 C   0  0  0  0  0  2  0  0  0  0  0  0
  187.6860  175.6030  140.0790 C   0  0  0  0  0  0  0  0  0  0  0  0
  192.4430  172.9130  140.2960 C   0  0  0  0  0  2  0  0  0  0  0  0
  190.4630  177.1530  142.7050 C   0  0  0  0  0  2  0  0  0  0  0  0
  188.7280  173.5250  139.5670 C   0  0  0  0  0  0  0  0  0  0  0  0
  192.5550  174.1970  141.1030 C   0  0  0  0  0  2  0  0  0  0  0  0
  193.0930  173.9030  142.4990 C   0  0  0  0  0  2  0  0  0  0  0  0
  191.7150  175.6490  143.7210 C   0  0  1  0  0  3  0  0  0  0  0  0
  188.2400  175.5770  141.3750 C   0  0  1  0  0  3  0  0  0  0  0  0
  186.7540  177.7450  140.4980 C   0  0  0  0  0  3  0  0  0  0  0  0
  189.1870  172.5390  138.5310 C   0  0  0  0  0  2  0  0  0  0  0  0
  191.5570  177.0290  143.5690 O   0  0  0  0  0  0  0  0  0  0  0  0
  188.9380  174.4360  141.7800 C   0  0  0  0  0  3  0  0  0  0  0  0
  189.1650  173.4020  140.8890 C   0  0  0  0  0  3  0  0  0  0  0  0
  190.6150  172.0310  138.8010 C   0  0  1  0  0  3  0  0  0  0  0  0
  187.3760  177.8040  141.7510 C   0  0  0  0  0  3  0  0  0  0  0  0
  193.1300  175.1800  143.3390 C   0  0  1  0  0  3  0  0  0  0  0  0
  190.5520  171.0800  136.4830 O   0  0  0  0  0  0  0  0  0  0  0  0
  191.0440  171.0230  137.7820 C   0  0  0  0  0  0  0  0  0  0  0  0
  191.8690  170.1290  138.0970 O   0  0  0  0  0  1  0  0  0  0  0  0
  189.3200  173.9690  146.5630 O   0  0  0  0  0  1  0  0  0  0  0  0
  189.1480  175.3540  146.5360 C   0  0  0  0  0  2  0  0  0  0  0  0
  194.1580  175.0890  144.4780 C   0  0  2  0  0  3  0  0  0  0  0  0
  193.6060  176.8070  146.8790 C   0  0  0  0  0  1  0  0  0  0  0  0
  194.8300  176.3660  144.6900 N   0  0  0  0  0  2  0  0  0  0  0  0
  194.6080  177.1840  145.8420 C   0  0  0  0  0  0  0  0  0  0  0  0
  195.2650  178.2480  145.9810 O   0  0  0  0  0  0  0  0  0  0  0  0
  195.1810  173.9860  144.2390 C   0  0  0  0  0  2  0  0  0  0  0  0
  196.5840  174.5630  144.1780 C   0  0  0  0  0  2  0  0  0  0  0  0
  197.3260  173.9950  142.9830 C   0  0  0  0  0  2  0  0  0  0  0  0
  197.4330  174.9820  141.9650 O   0  0  0  0  0  0  0  0  0  0  0  0
  195.9370  174.4500  140.3130 O   0  0  0  0  0  0  0  0  0  0  0  0
  195.7190  176.6530  141.1740 C   0  0  0  0  0  1  0  0  0  0  0  0
  196.3670  175.3090  141.1270 C   0  0  0  0  0  0  0  0  0  0  0  0
  192.4660  173.3900  137.9340 O   0  0  0  0  0  0  0  0  0  0  0  0
  191.9090  174.4890  137.2760 C   0  0  0  0  0  2  0  0  0  0  0  0
  193.0170  175.3890  136.7700 C   0  0  0  0  0  1  0  0  0  0  0  0
  1  9  2  0  0  0  0
  1 17  1  0  0  0  0
  2 42  1  6  0  0  0
  2 10  1  0  0  0  0
  3  4  1  0  0  0  0
  4 29  1  1  0  0  0
  5 12  2  0  0  0  0
  5  9  1  0  0  0  0
  6 23  1  6  0  0  0
  6  7  1  0  0  0  0
  7 11  1  6  0  0  0
  7  3  1  0  0  0  0
  8  4  1  0  0  0  0
  9 16  1  0  0  0  0
 10 13  1  0  0  0  0
 11 19  1  0  0  0  0
 12 21  1  0  0  0  0
 13 14  1  0  0  0  0
 14 24  1  0  0  0  0
 15  8  1  1  0  0  0
 16 20  1  6  0  0  0
 16  6  1  0  0  0  0
 17 23  2  0  0  0  0
 18 22  1  0  0  0  0
 18 12  1  0  0  0  0
 19 15  1  0  0  0  0
 21 20  2  0  0  0  0
 22 26  1  6  0  0  0
 22  2  1  0  0  0  0
 24 15  1  0  0  0  0
 24 30  1  1  0  0  0
 25 26  2  0  0  0  0
 26 27  1  0  0  0  0
 29 28  1  0  0  0  0
 30 35  1  6  0  0  0
 30 32  1  0  0  0  0
 32 33  1  0  0  0  0
 33 34  2  0  0  0  0
 33 31  1  0  0  0  0
 36 35  1  0  0  0  0
 37 36  1  0  0  0  0
 38 37  1  0  0  0  0
 39 41  2  0  0  0  0
 41 40  1  0  0  0  0
 41 38  1  0  0  0  0
 43 42  1  0  0  0  0
 44 43  1  0  0  0  0
M  END
>  <MODEL>
4

>  <REMARK>
 VINA RESULT:      -6.6      2.910      8.296
  Name = 
  11 active torsions:
  status: ('A' for Active; 'I' for Inactive)
    1  A    between atoms: C_3  and  O_9
    2  A    between atoms: C_5  and  C_26
    3  A    between atoms: C_6  and  C_22
    4  A    between atoms: C_6  and  N_36
    5  A    between atoms: C_6  and  C_41
    6  A    between atoms: O_9  and  C_40
    7  A    between atoms: C_10  and  C_22
    8  A    between atoms: C_10  and  C_34
    9  A    between atoms: O_27  and  C_31
   10  A    between atoms: O_27  and  C_34
   11  A    between atoms: C_28  and  C_38
                            x       y       z     vdW  Elec       q    Type
                         _______ _______ _______ _____ _____    ______ ____

>  <TORSDO>
F 11

$$$$
=
 OpenBabel11062422163D

 44 47  0  0  1  0  0  0  0  0999 V2000
  187.2370  176.8540  140.2700 N   0  0  0  0  0  0  0  0  0  0  0  0
  191.1260  172.5270  139.3670 C   0  0  2  0  0  3  0  0  0  0  0  0
  189.1750  175.3870  144.6750 O   0  0  0  0  0  0  0  0  0  0  0  0
  190.0410  175.3470  145.7780 C   0  0  2  0  0  3  0  0  0  0  0  0
  187.8250  174.6400  139.6890 N   0  0  0  0  0  0  0  0  0  0  0  0
  188.4770  176.5730  142.7470 C   0  0  2  0  0  3  0  0  0  0  0  0
  189.4570  176.5360  143.8920 C   0  0  2  0  0  3  0  0  0  0  0  0
  191.1930  174.3860  145.4790 C   0  0  0  0  0  2  0  0  0  0  0  0
  187.7670  175.6480  140.6060 C   0  0  0  0  0  0  0  0  0  0  0  0
  191.9000  172.0660  140.5960 C   0  0  0  0  0  2  0  0  0  0  0  0
  190.8520  176.5180  143.2000 C   0  0  0  0  0  2  0  0  0  0  0  0
  188.3650  173.4260  139.9950 C   0  0  0  0  0  0  0  0  0  0  0  0
  192.2820  173.2710  141.4420 C   0  0  0  0  0  2  0  0  0  0  0  0
  192.7810  172.8240  142.8110 C   0  0  0  0  0  2  0  0  0  0  0  0
  191.8030  174.7590  144.1300 C   0  0  1  0  0  3  0  0  0  0  0  0
  188.3330  175.4640  141.8840 C   0  0  1  0  0  3  0  0  0  0  0  0
  187.2880  177.9140  141.1220 C   0  0  0  0  0  3  0  0  0  0  0  0
  188.5970  172.4100  138.9150 C   0  0  0  0  0  2  0  0  0  0  0  0
  191.9180  176.1480  144.0280 O   0  0  0  0  0  0  0  0  0  0  0  0
  188.8000  174.1930  142.2300 C   0  0  0  0  0  3  0  0  0  0  0  0
  188.7970  173.1690  141.2990 C   0  0  0  0  0  3  0  0  0  0  0  0
  189.9010  171.6190  139.1260 C   0  0  1  0  0  3  0  0  0  0  0  0
  187.9360  177.8020  142.3580 C   0  0  0  0  0  3  0  0  0  0  0  0
  193.0880  174.0350  143.6910 C   0  0  1  0  0  3  0  0  0  0  0  0
  189.6920  170.8320  136.7560 O   0  0  0  0  0  0  0  0  0  0  0  0
  190.0990  170.5860  138.0620 C   0  0  0  0  0  0  0  0  0  0  0  0
  190.6550  169.4960  138.3470 O   0  0  0  0  0  1  0  0  0  0  0  0
  188.1470  175.6470  147.1930 O   0  0  0  0  0  1  0  0  0  0  0  0
  189.2900  174.8690  147.0060 C   0  0  0  0  0  2  0  0  0  0  0  0
  194.1030  173.6990  144.7970 C   0  0  2  0  0  3  0  0  0  0  0  0
  196.2800  171.6750  145.2230 C   0  0  0  0  0  1  0  0  0  0  0  0
  193.8410  172.3870  145.3780 N   0  0  0  0  0  2  0  0  0  0  0  0
  194.8660  171.4210  145.6210 C   0  0  0  0  0  0  0  0  0  0  0  0
  194.5700  170.3310  146.1760 O   0  0  0  0  0  0  0  0  0  0  0  0
  194.1350  174.7640  145.8860 C   0  0  0  0  0  2  0  0  0  0  0  0
  195.3810  175.6220  145.7550 C   0  0  0  0  0  2  0  0  0  0  0  0
  195.1610  176.6980  144.7100 C   0  0  0  0  0  2  0  0  0  0  0  0
  196.3140  176.8170  143.8860 O   0  0  0  0  0  0  0  0  0  0  0  0
  197.4070  175.9830  142.0530 O   0  0  0  0  0  0  0  0  0  0  0  0
  195.0970  176.4150  141.7160 C   0  0  0  0  0  1  0  0  0  0  0  0
  196.3290  176.3950  142.5570 C   0  0  0  0  0  0  0  0  0  0  0  0
  191.9650  172.6190  138.2520 O   0  0  0  0  0  0  0  0  0  0  0  0
  191.9330  173.9670  137.8910 C   0  0  0  0  0  2  0  0  0  0  0  0
  191.0970  174.1350  136.6380 C   0  0  0  0  0  1  0  0  0  0  0  0
  1  9  2  0  0  0  0
  1 17  1  0  0  0  0
  2 42  1  6  0  0  0
  2 10  1  0  0  0  0
  3  4  1  0  0  0  0
  4 29  1  1  0  0  0
  5 12  2  0  0  0  0
  5  9  1  0  0  0  0
  6 23  1  6  0  0  0
  6  7  1  0  0  0  0
  7 11  1  6  0  0  0
  7  3  1  0  0  0  0
  8  4  1  0  0  0  0
  9 16  1  0  0  0  0
 10 13  1  0  0  0  0
 11 19  1  0  0  0  0
 12 21  1  0  0  0  0
 13 14  1  0  0  0  0
 14 24  1  0  0  0  0
 15  8  1  1  0  0  0
 16 20  1  6  0  0  0
 16  6  1  0  0  0  0
 17 23  2  0  0  0  0
 18 22  1  0  0  0  0
 18 12  1  0  0  0  0
 19 15  1  0  0  0  0
 21 20  2  0  0  0  0
 22 26  1  6  0  0  0
 22  2  1  0  0  0  0
 24 15  1  0  0  0  0
 24 30  1  1  0  0  0
 25 26  2  0  0  0  0
 26 27  1  0  0  0  0
 29 28  1  0  0  0  0
 30 32  1  0  0  0  0
 30 35  1  1  0  0  0
 31 33  1  0  0  0  0
 32 33  1  0  0  0  0
 33 34  2  0  0  0  0
 36 35  1  0  0  0  0
 37 36  1  0  0  0  0
 38 37  1  0  0  0  0
 39 41  2  0  0  0  0
 40 41  1  0  0  0  0
 41 38  1  0  0  0  0
 43 42  1  0  0  0  0
 44 43  1  0  0  0  0
M  END
>  <MODEL>
5

>  <REMARK>
 VINA RESULT:      -6.5      2.692      8.024
  Name = 
  11 active torsions:
  status: ('A' for Active; 'I' for Inactive)
    1  A    between atoms: C_3  and  O_9
    2  A    between atoms: C_5  and  C_26
    3  A    between atoms: C_6  and  C_22
    4  A    between atoms: C_6  and  N_36
    5  A    between atoms: C_6  and  C_41
    6  A    between atoms: O_9  and  C_40
    7  A    between atoms: C_10  and  C_22
    8  A    between atoms: C_10  and  C_34
    9  A    between atoms: O_27  and  C_31
   10  A    between atoms: O_27  and  C_34
   11  A    between atoms: C_28  and  C_38
                            x       y       z     vdW  Elec       q    Type
                         _______ _______ _______ _____ _____    ______ ____

>  <TORSDO>
F 11

$$$$
=
 OpenBabel11062422163D

 44 47  0  0  1  0  0  0  0  0999 V2000
  196.8860  172.6020  139.3450 N   0  0  0  0  0  0  0  0  0  0  0  0
  195.5680  171.7720  145.0230 C   0  0  2  0  0  3  0  0  0  0  0  0
  191.8900  172.5780  139.9270 O   0  0  0  0  0  0  0  0  0  0  0  0
  190.5920  173.0670  140.1440 C   0  0  2  0  0  3  0  0  0  0  0  0
  196.7550  171.2870  141.3050 N   0  0  0  0  0  0  0  0  0  0  0  0
  194.1500  173.1040  139.4520 C   0  0  2  0  0  3  0  0  0  0  0  0
  192.7800  173.6660  139.7340 C   0  0  2  0  0  3  0  0  0  0  0  0
  190.3010  173.0690  141.6470 C   0  0  0  0  0  2  0  0  0  0  0  0
  196.1460  172.0010  140.3140 C   0  0  0  0  0  0  0  0  0  0  0  0
  194.0910  171.8740  145.3810 C   0  0  0  0  0  2  0  0  0  0  0  0
  192.9850  174.5600  140.9920 C   0  0  0  0  0  2  0  0  0  0  0  0
  196.0380  170.6880  142.2970 C   0  0  0  0  0  0  0  0  0  0  0  0
  193.4550  173.0210  144.6100 C   0  0  0  0  0  2  0  0  0  0  0  0
  191.9360  172.9540  144.7120 C   0  0  0  0  0  2  0  0  0  0  0  0
  191.4440  173.7840  142.3650 C   0  0  1  0  0  3  0  0  0  0  0  0
  194.7490  172.1820  140.3410 C   0  0  1  0  0  3  0  0  0  0  0  0
  196.3160  173.4270  138.4240 C   0  0  0  0  0  3  0  0  0  0  0  0
  196.7420  170.0840  143.4780 C   0  0  0  0  0  2  0  0  0  0  0  0
  191.8090  174.9300  141.6540 O   0  0  0  0  0  0  0  0  0  0  0  0
  194.0040  171.4910  141.3000 C   0  0  0  0  0  3  0  0  0  0  0  0
  194.6410  170.7270  142.2630 C   0  0  0  0  0  3  0  0  0  0  0  0
  195.9700  170.2990  144.7920 C   0  0  1  0  0  3  0  0  0  0  0  0
  194.9480  173.7170  138.4820 C   0  0  0  0  0  3  0  0  0  0  0  0
  191.2930  174.0570  143.8710 C   0  0  1  0  0  3  0  0  0  0  0  0
  195.9540  169.3020  147.0910 O   0  0  0  0  0  1  0  0  0  0  0  0
  196.6650  169.6610  145.9520 C   0  0  0  0  0  0  0  0  0  0  0  0
  197.8990  169.4290  145.8890 O   0  0  0  0  0  0  0  0  0  0  0  0
  188.2930  172.6660  139.6640 O   0  0  0  0  0  1  0  0  0  0  0  0
  189.5830  172.1850  139.4360 C   0  0  0  0  0  2  0  0  0  0  0  0
  189.8830  174.4130  144.3710 C   0  0  2  0  0  3  0  0  0  0  0  0
  187.6470  175.2910  142.5690 C   0  0  0  0  0  1  0  0  0  0  0  0
  189.5780  175.8200  144.1420 N   0  0  0  0  0  2  0  0  0  0  0  0
  188.4980  176.2620  143.3160 C   0  0  0  0  0  0  0  0  0  0  0  0
  188.2630  177.4930  143.2090 O   0  0  0  0  0  0  0  0  0  0  0  0
  189.6910  174.0610  145.8410 C   0  0  0  0  0  2  0  0  0  0  0  0
  189.8050  175.3040  146.7050 C   0  0  0  0  0  2  0  0  0  0  0  0
  191.1210  175.2910  147.4600 C   0  0  0  0  0  2  0  0  0  0  0  0
  191.8670  176.4620  147.1530 O   0  0  0  0  0  0  0  0  0  0  0  0
  192.6400  176.9100  145.0440 O   0  0  0  0  0  0  0  0  0  0  0  0
  194.2560  175.9770  146.5130 C   0  0  0  0  0  1  0  0  0  0  0  0
  192.8840  176.4710  146.1980 C   0  0  0  0  0  0  0  0  0  0  0  0
  196.3610  172.4090  145.9830 O   0  0  0  0  0  0  0  0  0  0  0  0
  197.3800  173.0250  145.2520 C   0  0  0  0  0  2  0  0  0  0  0  0
  196.7720  173.9420  144.2110 C   0  0  0  0  0  1  0  0  0  0  0  0
  1  9  2  0  0  0  0
  2 10  1  0  0  0  0
  2 42  1  1  0  0  0
  3  4  1  0  0  0  0
  4 29  1  6  0  0  0
  4  8  1  0  0  0  0
  5 12  2  0  0  0  0
  6 23  1  1  0  0  0
  6  7  1  0  0  0  0
  6 16  1  0  0  0  0
  7  3  1  0  0  0  0
  7 11  1  1  0  0  0
  9 16  1  0  0  0  0
  9  5  1  0  0  0  0
 11 19  1  0  0  0  0
 12 18  1  0  0  0  0
 13 14  1  0  0  0  0
 13 10  1  0  0  0  0
 15  8  1  6  0  0  0
 15 24  1  0  0  0  0
 16 20  1  1  0  0  0
 17 23  2  0  0  0  0
 17  1  1  0  0  0  0
 18 22  1  0  0  0  0
 19 15  1  0  0  0  0
 20 21  2  0  0  0  0
 21 12  1  0  0  0  0
 22  2  1  0  0  0  0
 22 26  1  1  0  0  0
 24 30  1  1  0  0  0
 24 14  1  0  0  0  0
 26 25  1  0  0  0  0
 27 26  2  0  0  0  0
 29 28  1  0  0  0  0
 30 35  1  1  0  0  0
 31 33  1  0  0  0  0
 32 30  1  0  0  0  0
 33 32  1  0  0  0  0
 34 33  2  0  0  0  0
 35 36  1  0  0  0  0
 36 37  1  0  0  0  0
 38 37  1  0  0  0  0
 39 41  2  0  0  0  0
 41 40  1  0  0  0  0
 41 38  1  0  0  0  0
 43 42  1  0  0  0  0
 44 43  1  0  0  0  0
M  END
>  <MODEL>
6

>  <REMARK>
 VINA RESULT:      -6.4      3.188      8.592
  Name = 
  11 active torsions:
  status: ('A' for Active; 'I' for Inactive)
    1  A    between atoms: C_3  and  O_9
    2  A    between atoms: C_5  and  C_26
    3  A    between atoms: C_6  and  C_22
    4  A    between atoms: C_6  and  N_36
    5  A    between atoms: C_6  and  C_41
    6  A    between atoms: O_9  and  C_40
    7  A    between atoms: C_10  and  C_22
    8  A    between atoms: C_10  and  C_34
    9  A    between atoms: O_27  and  C_31
   10  A    between atoms: O_27  and  C_34
   11  A    between atoms: C_28  and  C_38
                            x       y       z     vdW  Elec       q    Type
                         _______ _______ _______ _____ _____    ______ ____

>  <TORSDO>
F 11

$$$$
=
 OpenBabel11062422163D

 44 47  0  0  1  0  0  0  0  0999 V2000
  193.3080  177.0850  147.2630 N   0  0  0  0  0  0  0  0  0  0  0  0
  188.2050  176.8780  144.3350 C   0  0  2  0  0  3  0  0  0  0  0  0
  193.1500  172.9170  144.4510 O   0  0  0  0  0  0  0  0  0  0  0  0
  193.3230  172.0770  143.3400 C   0  0  2  0  0  3  0  0  0  0  0  0
  190.9630  176.8200  147.1380 N   0  0  0  0  0  0  0  0  0  0  0  0
  193.6790  174.9900  145.4680 C   0  0  2  0  0  3  0  0  0  0  0  0
  193.8440  174.1350  144.2370 C   0  0  2  0  0  3  0  0  0  0  0  0
  192.0900  172.1740  142.4390 C   0  0  0  0  0  2  0  0  0  0  0  0
  192.2210  176.3970  146.8240 C   0  0  0  0  0  0  0  0  0  0  0  0
  188.0620  175.7380  143.3340 C   0  0  0  0  0  2  0  0  0  0  0  0
  193.2690  175.0110  143.0840 C   0  0  0  0  0  2  0  0  0  0  0  0
  189.8560  176.1580  146.6970 C   0  0  0  0  0  0  0  0  0  0  0  0
  189.3760  175.5410  142.5930 C   0  0  0  0  0  2  0  0  0  0  0  0
  189.3580  174.2290  141.8160 C   0  0  0  0  0  2  0  0  0  0  0  0
  191.8040  173.6470  142.1590 C   0  0  1  0  0  3  0  0  0  0  0  0
  192.3930  175.2860  145.9740 C   0  0  1  0  0  3  0  0  0  0  0  0
  194.5660  176.7610  146.8560 C   0  0  0  0  0  3  0  0  0  0  0  0
  188.4930  176.7570  146.8880 C   0  0  0  0  0  2  0  0  0  0  0  0
  192.9990  174.3220  141.8960 O   0  0  0  0  0  0  0  0  0  0  0  0
  191.2650  174.5500  145.6000 C   0  0  0  0  0  3  0  0  0  0  0  0
  190.0010  174.9680  145.9770 C   0  0  0  0  0  3  0  0  0  0  0  0
  187.5660  176.4950  145.6870 C   0  0  1  0  0  3  0  0  0  0  0  0
  194.7690  175.7330  145.9290 C   0  0  0  0  0  3  0  0  0  0  0  0
  190.7060  173.9890  141.1370 C   0  0  1  0  0  3  0  0  0  0  0  0
  186.0370  178.2400  146.6330 O   0  0  0  0  0  1  0  0  0  0  0  0
  186.2010  177.0660  145.9070 C   0  0  0  0  0  0  0  0  0  0  0  0
  185.1970  176.4910  145.4160 O   0  0  0  0  0  0  0  0  0  0  0  0
  193.9470  170.6240  145.1220 O   0  0  0  0  0  1  0  0  0  0  0  0
  193.5010  170.6430  143.8000 C   0  0  0  0  0  2  0  0  0  0  0  0
  190.5790  173.0560  139.9210 C   0  0  2  0  0  3  0  0  0  0  0  0
  193.2140  173.2800  138.4970 C   0  0  0  0  0  1  0  0  0  0  0  0
  190.7260  173.7920  138.6700 N   0  0  0  0  0  2  0  0  0  0  0  0
  191.9610  173.8830  137.9570 C   0  0  0  0  0  0  0  0  0  0  0  0
  191.9970  174.4900  136.8560 O   0  0  0  0  0  0  0  0  0  0  0  0
  189.2680  172.2810  139.9300 C   0  0  0  0  0  2  0  0  0  0  0  0
  188.9430  171.7670  138.5390 C   0  0  0  0  0  2  0  0  0  0  0  0
  189.6920  170.4750  138.2750 C   0  0  0  0  0  2  0  0  0  0  0  0
  189.7630  170.2330  136.8760 O   0  0  0  0  0  0  0  0  0  0  0  0
  192.0150  170.5760  136.6220 O   0  0  0  0  0  0  0  0  0  0  0  0
  190.7180  171.0470  134.6890 C   0  0  0  0  0  1  0  0  0  0  0  0
  190.8660  170.6090  136.1080 C   0  0  0  0  0  0  0  0  0  0  0  0
  187.6980  178.0710  143.8100 O   0  0  0  0  0  0  0  0  0  0  0  0
  187.0310  177.6940  142.6430 C   0  0  0  0  0  2  0  0  0  0  0  0
  185.8250  178.5860  142.4390 C   0  0  0  0  0  1  0  0  0  0  0  0
  2 42  1  6  0  0  0
  2 22  1  0  0  0  0
  4 29  1  1  0  0  0
  4  3  1  0  0  0  0
  6 23  1  6  0  0  0
  6 16  1  0  0  0  0
  7 11  1  6  0  0  0
  7  3  1  0  0  0  0
  7  6  1  0  0  0  0
  8  4  1  0  0  0  0
  9  5  1  0  0  0  0
  9  1  2  0  0  0  0
 10  2  1  0  0  0  0
 12 18  1  0  0  0  0
 12  5  2  0  0  0  0
 13 10  1  0  0  0  0
 14 13  1  0  0  0  0
 15  8  1  6  0  0  0
 16 20  1  6  0  0  0
 16  9  1  0  0  0  0
 17  1  1  0  0  0  0
 19 15  1  0  0  0  0
 19 11  1  0  0  0  0
 20 21  2  0  0  0  0
 21 12  1  0  0  0  0
 22 26  1  1  0  0  0
 22 18  1  0  0  0  0
 23 17  2  0  0  0  0
 24 30  1  6  0  0  0
 24 14  1  0  0  0  0
 24 15  1  0  0  0  0
 26 25  1  0  0  0  0
 27 26  2  0  0  0  0
 29 28  1  0  0  0  0
 30 35  1  6  0  0  0
 32 30  1  0  0  0  0
 33 31  1  0  0  0  0
 33 32  1  0  0  0  0
 34 33  2  0  0  0  0
 36 35  1  0  0  0  0
 37 36  1  0  0  0  0
 38 37  1  0  0  0  0
 40 41  1  0  0  0  0
 41 39  2  0  0  0  0
 41 38  1  0  0  0  0
 43 42  1  0  0  0  0
 44 43  1  0  0  0  0
M  END
>  <MODEL>
7

>  <REMARK>
 VINA RESULT:      -6.4      1.900      2.428
  Name = 
  11 active torsions:
  status: ('A' for Active; 'I' for Inactive)
    1  A    between atoms: C_3  and  O_9
    2  A    between atoms: C_5  and  C_26
    3  A    between atoms: C_6  and  C_22
    4  A    between atoms: C_6  and  N_36
    5  A    between atoms: C_6  and  C_41
    6  A    between atoms: O_9  and  C_40
    7  A    between atoms: C_10  and  C_22
    8  A    between atoms: C_10  and  C_34
    9  A    between atoms: O_27  and  C_31
   10  A    between atoms: O_27  and  C_34
   11  A    between atoms: C_28  and  C_38
                            x       y       z     vdW  Elec       q    Type
                         _______ _______ _______ _____ _____    ______ ____

>  <TORSDO>
F 11

$$$$
=
 OpenBabel11062422163D

 44 47  0  0  1  0  0  0  0  0999 V2000
  197.8220  171.4800  143.8330 N   0  0  0  0  0  0  0  0  0  0  0  0
  194.2420  173.3920  139.5680 C   0  0  2  0  0  3  0  0  0  0  0  0
  194.9370  175.2030  145.6010 O   0  0  0  0  0  0  0  0  0  0  0  0
  193.8440  175.8390  146.2080 C   0  0  2  0  0  3  0  0  0  0  0  0
  197.3830  172.5970  141.7970 N   0  0  0  0  0  0  0  0  0  0  0  0
  196.0530  173.1560  145.1790 C   0  0  2  0  0  3  0  0  0  0  0  0
  194.8390  173.8010  145.7980 C   0  0  2  0  0  3  0  0  0  0  0  0
  192.7900  176.1530  145.1440 C   0  0  0  0  0  2  0  0  0  0  0  0
  197.2300  172.4950  143.1480 C   0  0  0  0  0  0  0  0  0  0  0  0
  193.2100  174.4320  139.9870 C   0  0  0  0  0  2  0  0  0  0  0  0
  193.6370  173.1310  145.0690 C   0  0  0  0  0  2  0  0  0  0  0  0
  196.7880  173.5960  141.0850 C   0  0  0  0  0  0  0  0  0  0  0  0
  192.6450  174.0710  141.3530 C   0  0  0  0  0  2  0  0  0  0  0  0
  191.8490  175.2370  141.9250 C   0  0  0  0  0  2  0  0  0  0  0  0
  192.5010  174.8790  144.3520 C   0  0  1  0  0  3  0  0  0  0  0  0
  196.3900  173.4000  143.8280 C   0  0  1  0  0  3  0  0  0  0  0  0
  197.5790  171.2790  145.1570 C   0  0  0  0  0  3  0  0  0  0  0  0
  196.8070  173.5670  139.5840 C   0  0  0  0  0  2  0  0  0  0  0  0
  192.4120  173.7890  145.2210 O   0  0  0  0  0  0  0  0  0  0  0  0
  195.8570  174.4790  143.1170 C   0  0  0  0  0  3  0  0  0  0  0  0
  196.0720  174.5920  141.7540 C   0  0  0  0  0  3  0  0  0  0  0  0
  195.4900  174.0770  138.9720 C   0  0  1  0  0  3  0  0  0  0  0  0
  196.6680  172.0910  145.8420 C   0  0  0  0  0  3  0  0  0  0  0  0
  191.3500  174.9070  143.3310 C   0  0  1  0  0  3  0  0  0  0  0  0
  196.3080  173.1400  136.7970 O   0  0  0  0  0  0  0  0  0  0  0  0
  195.5390  174.0760  137.4770 C   0  0  0  0  0  0  0  0  0  0  0  0
  194.8640  174.9170  136.8310 O   0  0  0  0  0  1  0  0  0  0  0  0
  194.9420  177.9340  145.9270 O   0  0  0  0  0  1  0  0  0  0  0  0
  194.2970  177.1290  146.8650 C   0  0  0  0  0  2  0  0  0  0  0  0
  190.1110  175.7350  143.7110 C   0  0  2  0  0  3  0  0  0  0  0  0
  189.4480  177.2850  146.1970 C   0  0  0  0  0  1  0  0  0  0  0  0
  189.3950  175.1370  144.8320 N   0  0  0  0  0  2  0  0  0  0  0  0
  189.0390  175.8640  146.0100 C   0  0  0  0  0  0  0  0  0  0  0  0
  188.3740  175.2920  146.9120 O   0  0  0  0  0  0  0  0  0  0  0  0
  189.1720  175.9350  142.5280 C   0  0  0  0  0  2  0  0  0  0  0  0
  188.7790  177.3960  142.4010 C   0  0  0  0  0  2  0  0  0  0  0  0
  187.3070  177.5070  142.0550 C   0  0  0  0  0  2  0  0  0  0  0  0
  186.7590  178.6830  142.6380 O   0  0  0  0  0  0  0  0  0  0  0  0
  186.1950  177.6720  144.6150 O   0  0  0  0  0  0  0  0  0  0  0  0
  185.1830  179.7920  144.2630 C   0  0  0  0  0  1  0  0  0  0  0  0
  186.0680  178.6630  143.8490 C   0  0  0  0  0  0  0  0  0  0  0  0
  193.6770  172.4440  138.7090 O   0  0  0  0  0  0  0  0  0  0  0  0
  194.2430  171.2280  139.0970 C   0  0  0  0  0  2  0  0  0  0  0  0
  193.5090  170.6920  140.3080 C   0  0  0  0  0  1  0  0  0  0  0  0
  1 17  1  0  0  0  0
  2 42  1  6  0  0  0
  2 10  1  0  0  0  0
  3  7  1  0  0  0  0
  3  4  1  0  0  0  0
  4 29  1  6  0  0  0
  5  9  1  0  0  0  0
  6  7  1  0  0  0  0
  6 23  1  6  0  0  0
  7 11  1  6  0  0  0
  8  4  1  0  0  0  0
  9 16  1  0  0  0  0
  9  1  2  0  0  0  0
 10 13  1  0  0  0  0
 11 19  1  0  0  0  0
 12 21  1  0  0  0  0
 12  5  2  0  0  0  0
 13 14  1  0  0  0  0
 14 24  1  0  0  0  0
 15  8  1  1  0  0  0
 15 19  1  0  0  0  0
 16 20  1  6  0  0  0
 16  6  1  0  0  0  0
 17 23  2  0  0  0  0
 18 12  1  0  0  0  0
 21 20  2  0  0  0  0
 22 26  1  6  0  0  0
 22  2  1  0  0  0  0
 22 18  1  0  0  0  0
 24 30  1  1  0  0  0
 24 15  1  0  0  0  0
 25 26  2  0  0  0  0
 27 26  1  0  0  0  0
 28 29  1  0  0  0  0
 30 35  1  6  0  0  0
 30 32  1  0  0  0  0
 32 33  1  0  0  0  0
 33 31  1  0  0  0  0
 33 34  2  0  0  0  0
 36 35  1  0  0  0  0
 37 36  1  0  0  0  0
 37 38  1  0  0  0  0
 38 41  1  0  0  0  0
 41 40  1  0  0  0  0
 41 39  2  0  0  0  0
 42 43  1  0  0  0  0
 43 44  1  0  0  0  0
M  END
>  <MODEL>
8

>  <REMARK>
 VINA RESULT:      -6.3      3.357      7.904
  Name = 
  11 active torsions:
  status: ('A' for Active; 'I' for Inactive)
    1  A    between atoms: C_3  and  O_9
    2  A    between atoms: C_5  and  C_26
    3  A    between atoms: C_6  and  C_22
    4  A    between atoms: C_6  and  N_36
    5  A    between atoms: C_6  and  C_41
    6  A    between atoms: O_9  and  C_40
    7  A    between atoms: C_10  and  C_22
    8  A    between atoms: C_10  and  C_34
    9  A    between atoms: O_27  and  C_31
   10  A    between atoms: O_27  and  C_34
   11  A    between atoms: C_28  and  C_38
                            x       y       z     vdW  Elec       q    Type
                         _______ _______ _______ _____ _____    ______ ____

>  <TORSDO>
F 11

$$$$
=
 OpenBabel11062422163D

 44 47  0  0  1  0  0  0  0  0999 V2000
  191.7770  175.6310  147.3050 N   0  0  0  0  0  0  0  0  0  0  0  0
  194.8620  174.4280  142.4370 C   0  0  2  0  0  3  0  0  0  0  0  0
  188.7980  176.0660  143.2740 O   0  0  0  0  0  0  0  0  0  0  0  0
  187.8910  175.6990  142.2680 C   0  0  2  0  0  3  0  0  0  0  0  0
  193.4270  176.1190  145.6850 N   0  0  0  0  0  0  0  0  0  0  0  0
  189.8250  175.4760  145.3260 C   0  0  2  0  0  3  0  0  0  0  0  0
  188.8840  175.0270  144.2370 C   0  0  2  0  0  3  0  0  0  0  0  0
  188.6670  175.1690  141.0600 C   0  0  0  0  0  2  0  0  0  0  0  0
  192.1210  175.9120  146.0200 C   0  0  0  0  0  0  0  0  0  0  0  0
  194.0630  174.3860  141.1410 C   0  0  0  0  0  2  0  0  0  0  0  0
  189.5170  173.7070  143.7050 C   0  0  0  0  0  2  0  0  0  0  0  0
  193.8000  176.3870  144.4020 C   0  0  0  0  0  0  0  0  0  0  0  0
  192.7260  173.7030  141.3850 C   0  0  0  0  0  2  0  0  0  0  0  0
  191.7930  173.9170  140.1990 C   0  0  0  0  0  2  0  0  0  0  0  0
  189.6460  174.0990  141.5390 C   0  0  1  0  0  3  0  0  0  0  0  0
  191.1320  175.9130  145.0150 C   0  0  1  0  0  3  0  0  0  0  0  0
  190.5010  175.2910  147.6410 C   0  0  0  0  0  3  0  0  0  0  0  0
  195.2550  176.4090  144.0290 C   0  0  0  0  0  2  0  0  0  0  0  0
  189.0210  173.2680  142.4720 O   0  0  0  0  0  0  0  0  0  0  0  0
  191.4990  176.2810  143.7180 C   0  0  0  0  0  3  0  0  0  0  0  0
  192.8240  176.5400  143.4130 C   0  0  0  0  0  3  0  0  0  0  0  0
  195.5090  175.8160  142.6310 C   0  0  1  0  0  3  0  0  0  0  0  0
  189.5150  175.1760  146.6550 C   0  0  0  0  0  3  0  0  0  0  0  0
  190.4220  173.3010  140.4770 C   0  0  1  0  0  3  0  0  0  0  0  0
  197.3470  175.7970  140.9280 O   0  0  0  0  0  0  0  0  0  0  0  0
  196.9560  175.8780  142.2600 C   0  0  0  0  0  0  0  0  0  0  0  0
  197.8250  176.0260  143.1570 O   0  0  0  0  0  1  0  0  0  0  0  0
  187.8070  178.0690  142.0480 O   0  0  0  0  0  1  0  0  0  0  0  0
  187.0680  176.9020  141.8510 C   0  0  0  0  0  2  0  0  0  0  0  0
  189.6690  172.9650  139.1780 C   0  0  2  0  0  3  0  0  0  0  0  0
  189.2050  174.1520  136.4590 C   0  0  0  0  0  1  0  0  0  0  0  0
  188.6000  173.9230  138.9220 N   0  0  0  0  0  2  0  0  0  0  0  0
  188.3390  174.4750  137.6290 C   0  0  0  0  0  0  0  0  0  0  0  0
  187.3640  175.2560  137.4750 O   0  0  0  0  0  0  0  0  0  0  0  0
  189.1180  171.5450  139.1890 C   0  0  0  0  0  2  0  0  0  0  0  0
  189.8810  170.6700  138.2110 C   0  0  0  0  0  2  0  0  0  0  0  0
  191.0810  170.0500  138.8990 C   0  0  0  0  0  2  0  0  0  0  0  0
  190.7590  169.7360  140.2470 O   0  0  0  0  0  0  0  0  0  0  0  0
  191.0960  170.3890  142.4180 O   0  0  0  0  0  0  0  0  0  0  0  0
  193.0860  170.0280  141.1730 C   0  0  0  0  0  1  0  0  0  0  0  0
  191.6000  170.0620  141.3120 C   0  0  0  0  0  0  0  0  0  0  0  0
  195.7890  173.3810  142.4880 O   0  0  0  0  0  0  0  0  0  0  0  0
  195.4700  172.6770  143.6500 C   0  0  0  0  0  2  0  0  0  0  0  0
  196.5440  172.9080  144.6930 C   0  0  0  0  0  1  0  0  0  0  0  0
  1 17  1  0  0  0  0
  2 42  1  6  0  0  0
  2 22  1  0  0  0  0
  3  7  1  0  0  0  0
  4 29  1  6  0  0  0
  4  3  1  0  0  0  0
  5  9  1  0  0  0  0
  6 23  1  1  0  0  0
  7 11  1  6  0  0  0
  7  6  1  0  0  0  0
  8  4  1  0  0  0  0
  9  1  2  0  0  0  0
 10 13  1  0  0  0  0
 10  2  1  0  0  0  0
 12  5  2  0  0  0  0
 14 24  1  0  0  0  0
 14 13  1  0  0  0  0
 15  8  1  6  0  0  0
 15 19  1  0  0  0  0
 16 20  1  6  0  0  0
 16  6  1  0  0  0  0
 16  9  1  0  0  0  0
 18 12  1  0  0  0  0
 19 11  1  0  0  0  0
 21 20  2  0  0  0  0
 21 12  1  0  0  0  0
 22 26  1  1  0  0  0
 22 18  1  0  0  0  0
 23 17  2  0  0  0  0
 24 30  1  6  0  0  0
 24 15  1  0  0  0  0
 25 26  2  0  0  0  0
 26 27  1  0  0  0  0
 29 28  1  0  0  0  0
 30 35  1  1  0  0  0
 31 33  1  0  0  0  0
 32 30  1  0  0  0  0
 33 32  1  0  0  0  0
 34 33  2  0  0  0  0
 36 37  1  0  0  0  0
 36 35  1  0  0  0  0
 37 38  1  0  0  0  0
 38 41  1  0  0  0  0
 40 41  1  0  0  0  0
 41 39  2  0  0  0  0
 42 43  1  0  0  0  0
 43 44  1  0  0  0  0
M  END
>  <MODEL>
9

>  <REMARK>
 VINA RESULT:      -6.1      2.401      6.771
  Name = 
  11 active torsions:
  status: ('A' for Active; 'I' for Inactive)
    1  A    between atoms: C_3  and  O_9
    2  A    between atoms: C_5  and  C_26
    3  A    between atoms: C_6  and  C_22
    4  A    between atoms: C_6  and  N_36
    5  A    between atoms: C_6  and  C_41
    6  A    between atoms: O_9  and  C_40
    7  A    between atoms: C_10  and  C_22
    8  A    between atoms: C_10  and  C_34
    9  A    between atoms: O_27  and  C_31
   10  A    between atoms: O_27  and  C_34
   11  A    between atoms: C_28  and  C_38
                            x       y       z     vdW  Elec       q    Type
                         _______ _______ _______ _____ _____    ______ ____

>  <TORSDO>
F 11

$$$$
