=
 OpenBabel11062418163D

 49 51  0  0  1  0  0  0  0  0999 V2000
  186.4600  177.9280  143.0220 C   0  0  1  0  0  3  0  0  0  0  0  0
  185.3760  179.5630  144.3710 O   0  0  0  0  0  0  0  0  0  0  0  0
  186.2280  178.6360  144.3210 C   0  0  0  0  0  0  0  0  0  0  0  0
  186.9740  178.2770  145.4530 O   0  0  0  0  0  0  0  0  0  0  0  0
  186.7350  177.1080  146.2360 C   0  0  1  0  0  3  0  0  0  0  0  0
  188.0120  176.2850  146.3840 C   0  0  0  0  0  2  0  0  0  0  0  0
  189.1680  177.1600  146.8250 C   0  0  0  0  0  2  0  0  0  0  0  0
  190.0130  177.4500  145.7180 O   0  0  0  0  0  0  0  0  0  0  0  0
  192.6980  176.5290  143.4870 C   0  0  0  0  0  3  0  0  0  0  0  0
  193.7360  174.9450  145.2100 C   0  0  0  0  0  2  0  0  0  0  0  0
  191.2570  176.8370  145.5740 C   0  0  0  0  0  0  0  0  0  0  0  0
  193.4570  175.7980  146.4680 C   0  0  0  0  0  2  0  0  0  0  0  0
  191.8460  176.7980  144.4230 C   0  0  0  0  0  0  0  0  0  0  0  0
  193.9360  175.7900  143.9250 C   0  0  0  0  0  2  0  0  0  0  0  0
  191.9570  176.1310  146.7160 C   0  0  0  0  0  2  0  0  0  0  0  0
  186.1450  177.4870  147.5930 C   0  0  0  0  0  2  0  0  0  0  0  0
  186.1090  178.9930  147.7920 C   0  0  0  0  0  2  0  0  0  0  0  0
  187.1130  179.3860  148.6830 O   0  0  0  0  0  1  0  0  0  0  0  0
  185.8090  176.5440  143.0080 C   0  0  0  0  0  2  0  0  0  0  0  0
  186.8010  175.3970  142.8700 C   0  0  0  0  0  2  0  0  0  0  0  0
  188.2210  175.9160  142.6810 C   0  0  0  0  0  2  0  0  0  0  0  0
  189.3140  173.6650  143.1490 C   0  0  2  0  0  3  0  0  0  0  0  0
  191.1760  171.6990  139.3960 C   0  0  0  0  0  2  0  0  0  0  0  0
  193.3350  170.0660  140.8060 O   0  0  0  0  0  0  0  0  0  0  0  0
  192.7210  171.9160  142.6420 C   0  0  0  0  0  2  0  0  0  0  0  0
  189.8270  171.7190  141.5640 C   0  0  0  0  0  2  0  0  0  0  0  0
  189.9890  172.3020  140.1500 C   0  0  1  0  0  3  0  0  0  0  0  0
  194.8170  171.9940  141.0030 O   0  0  0  0  0  0  0  0  0  0  0  0
  189.9150  173.8270  140.0200 C   0  0  0  0  0  2  0  0  0  0  0  0
  188.7310  174.3980  140.7750 C   0  0  0  0  0  2  0  0  0  0  0  0
  190.3200  172.5880  142.7280 C   0  0  1  0  0  3  0  0  0  0  0  0
  189.1750  174.8410  142.1640 C   0  0  1  0  0  3  0  0  0  0  0  0
  191.7560  173.0880  142.5900 C   0  0  0  0  0  2  0  0  0  0  0  0
  192.5100  172.3750  139.7100 C   0  0  0  0  0  2  0  0  0  0  0  0
  189.6530  174.1400  144.4220 O   0  0  0  0  0  1  0  0  0  0  0  0
  193.3850  171.5490  141.0320 S   0  0  0  0  0  0  0  0  0  0  0  0
  186.0280  178.7220  141.9190 O   0  0  0  0  0  0  0  0  0  0  0  0
  183.6080  178.3910  141.6720 N   0  0  0  0  0  2  0  0  0  0  0  0
  182.4620  177.5200  139.8260 O   0  0  0  0  0  0  0  0  0  0  0  0
  182.4140  177.9650  141.0070 C   0  0  0  0  0  0  0  0  0  0  0  0
  184.9350  178.3550  141.1280 C   0  0  0  0  0  0  0  0  0  0  0  0
  185.1310  177.9890  139.9410 O   0  0  0  0  0  0  0  0  0  0  0  0
  181.1990  178.0280  141.6990 O   0  0  0  0  0  0  0  0  0  0  0  0
  180.4500  180.0700  140.6370 C   0  0  0  0  0  1  0  0  0  0  0  0
  179.1700  179.0320  142.4620 C   0  0  0  0  0  1  0  0  0  0  0  0
  180.0410  178.7400  141.2530 C   0  0  0  0  0  0  0  0  0  0  0  0
  178.2540  177.0790  140.8780 N   0  0  0  0  0  1  0  0  0  0  0  0
  178.6470  178.7200  139.2680 O   0  0  0  0  0  1  0  0  0  0  0  0
  179.2590  177.9040  140.2260 C   0  0  1  0  0  3  0  0  0  0  0  0
  1 19  1  1  0  0  0
  1  3  1  0  0  0  0
  3  2  2  0  0  0  0
  3  4  1  0  0  0  0
  4  5  1  0  0  0  0
  5  6  1  1  0  0  0
  5 16  1  0  0  0  0
  6  7  1  0  0  0  0
  8  7  1  0  0  0  0
  9 14  1  0  0  0  0
  9 13  2  0  0  0  0
 10 12  1  0  0  0  0
 11  8  1  0  0  0  0
 11 15  1  0  0  0  0
 12 15  1  0  0  0  0
 13 11  2  0  0  0  0
 14 10  1  0  0  0  0
 16 17  1  0  0  0  0
 17 18  1  0  0  0  0
 20 19  1  0  0  0  0
 21 20  1  0  0  0  0
 22 35  1  1  0  0  0
 23 34  1  0  0  0  0
 24 36  2  0  0  0  0
 27 23  1  1  0  0  0
 27 26  1  0  0  0  0
 28 36  2  0  0  0  0
 29 27  1  0  0  0  0
 29 30  1  0  0  0  0
 30 32  1  0  0  0  0
 31 26  1  6  0  0  0
 31 22  1  0  0  0  0
 32 21  1  1  0  0  0
 32 22  1  0  0  0  0
 33 25  1  0  0  0  0
 33 31  1  0  0  0  0
 34 36  1  0  0  0  0
 36 25  1  0  0  0  0
 37  1  1  0  0  0  0
 39 40  2  0  0  0  0
 40 38  1  0  0  0  0
 40 43  1  0  0  0  0
 41 38  1  0  0  0  0
 41 37  1  0  0  0  0
 42 41  2  0  0  0  0
 44 46  1  0  0  0  0
 46 43  1  0  0  0  0
 46 45  1  0  0  0  0
 49 48  1  6  0  0  0
 49 47  1  0  0  0  0
 49 46  1  0  0  0  0
M  END
>  <MODEL>
1

>  <REMARK>
 VINA RESULT:      -7.0      0.000      0.000
  Name = 
  18 active torsions:
  status: ('A' for Active; 'I' for Inactive)
    1  A    between atoms: C_4  and  O_42
    2  A    between atoms: C_13  and  O_35
    3  A    between atoms: C_15  and  O_42
    4  A    between atoms: C_15  and  C_49
    5  A    between atoms: C_16  and  O_25
    6  A    between atoms: C_16  and  C_45
    7  A    between atoms: C_16  and  C_48
    8  A    between atoms: C_22  and  C_32
    9  A    between atoms: O_25  and  C_30
   10  A    between atoms: C_28  and  C_36
   11  A    between atoms: C_28  and  C_44
   12  A    between atoms: C_29  and  C_32
   13  A    between atoms: C_29  and  O_39
   14  A    between atoms: C_29  and  C_49
   15  A    between atoms: C_34  and  C_46
   16  A    between atoms: O_35  and  C_46
   17  A    between atoms: O_39  and  C_45
   18  A    between atoms: C_44  and  C_48
                            x       y       z     vdW  Elec       q    Type
                         _______ _______ _______ _____ _____    ______ ____

>  <TORSDO>
F 18

$$$$
=
 OpenBabel11062418163D

 49 51  0  0  1  0  0  0  0  0999 V2000
  193.1510  171.3390  143.8620 C   0  0  1  0  0  3  0  0  0  0  0  0
  193.4030  169.1130  144.6670 O   0  0  0  0  0  0  0  0  0  0  0  0
  193.7780  170.3120  144.7540 C   0  0  0  0  0  0  0  0  0  0  0  0
  194.7530  170.7000  145.6840 O   0  0  0  0  0  0  0  0  0  0  0  0
  196.1320  170.3400  145.6010 C   0  0  1  0  0  3  0  0  0  0  0  0
  196.9840  171.5470  145.2160 C   0  0  0  0  0  2  0  0  0  0  0  0
  196.7670  172.6910  146.1860 C   0  0  0  0  0  2  0  0  0  0  0  0
  196.9670  173.9360  145.5270 O   0  0  0  0  0  0  0  0  0  0  0  0
  194.1110  175.9320  146.4710 C   0  0  0  0  0  3  0  0  0  0  0  0
  193.1830  175.9350  144.0840 C   0  0  0  0  0  2  0  0  0  0  0  0
  195.8920  174.7140  145.1020 C   0  0  0  0  0  0  0  0  0  0  0  0
  194.5320  176.0430  143.3390 C   0  0  0  0  0  2  0  0  0  0  0  0
  195.1000  175.2730  145.9590 C   0  0  0  0  0  0  0  0  0  0  0  0
  193.1960  176.6080  145.4820 C   0  0  0  0  0  2  0  0  0  0  0  0
  195.5420  174.8980  143.6400 C   0  0  0  0  0  2  0  0  0  0  0  0
  196.6000  169.7140  146.9140 C   0  0  0  0  0  2  0  0  0  0  0  0
  195.9900  168.3390  147.1320 C   0  0  0  0  0  2  0  0  0  0  0  0
  194.9100  168.4250  148.0160 O   0  0  0  0  0  1  0  0  0  0  0  0
  192.5350  172.4860  144.6630 C   0  0  0  0  0  2  0  0  0  0  0  0
  191.1510  172.9000  144.1830 C   0  0  0  0  0  2  0  0  0  0  0  0
  190.2100  173.1430  145.3570 C   0  0  0  0  0  2  0  0  0  0  0  0
  189.6960  175.4940  146.1880 C   0  0  2  0  0  3  0  0  0  0  0  0
  187.2220  178.0130  143.1960 C   0  0  0  0  0  2  0  0  0  0  0  0
  185.8600  179.8470  145.2190 O   0  0  0  0  0  0  0  0  0  0  0  0
  186.6370  177.7860  146.7420 C   0  0  0  0  0  2  0  0  0  0  0  0
  189.1010  177.6130  144.8790 C   0  0  0  0  0  2  0  0  0  0  0  0
  188.4520  177.1750  143.5560 C   0  0  1  0  0  3  0  0  0  0  0  0
  184.1840  178.1640  145.7780 O   0  0  0  0  0  0  0  0  0  0  0  0
  188.2230  175.6720  143.3640 C   0  0  0  0  0  2  0  0  0  0  0  0
  189.4560  174.8670  143.7270 C   0  0  0  0  0  2  0  0  0  0  0  0
  188.8130  176.7440  146.1090 C   0  0  1  0  0  3  0  0  0  0  0  0
  189.3490  174.3910  145.1710 C   0  0  1  0  0  3  0  0  0  0  0  0
  187.3320  176.4860  146.3780 C   0  0  0  0  0  2  0  0  0  0  0  0
  185.9350  177.5300  143.8620 C   0  0  0  0  0  2  0  0  0  0  0  0
  189.6510  174.9790  147.4900 O   0  0  0  0  0  1  0  0  0  0  0  0
  185.6210  178.3770  145.4050 S   0  0  0  0  0  0  0  0  0  0  0  0
  194.0820  171.8160  142.8930 O   0  0  0  0  0  0  0  0  0  0  0  0
  192.6940  172.7660  141.1050 N   0  0  0  0  0  2  0  0  0  0  0  0
  192.7150  172.2150  138.8290 O   0  0  0  0  0  0  0  0  0  0  0  0
  192.2010  172.8880  139.7660 C   0  0  0  0  0  0  0  0  0  0  0  0
  193.7560  171.9040  141.5360 C   0  0  0  0  0  0  0  0  0  0  0  0
  194.4010  171.2150  140.7040 O   0  0  0  0  0  0  0  0  0  0  0  0
  191.1240  173.7480  139.5220 O   0  0  0  0  0  0  0  0  0  0  0  0
  188.8200  174.3240  139.9910 C   0  0  0  0  0  1  0  0  0  0  0  0
  189.5910  171.9890  140.0350 C   0  0  0  0  0  1  0  0  0  0  0  0
  189.7690  173.3280  139.3400 C   0  0  0  0  0  0  0  0  0  0  0  0
  189.5930  171.8190  137.3940 N   0  0  0  0  0  1  0  0  0  0  0  0
  188.1480  173.6420  137.5620 O   0  0  0  0  0  1  0  0  0  0  0  0
  189.4440  173.1940  137.8420 C   0  0  1  0  0  3  0  0  0  0  0  0
  1 19  1  1  0  0  0
  1  3  1  0  0  0  0
  2  3  2  0  0  0  0
  3  4  1  0  0  0  0
  5  6  1  1  0  0  0
  5  4  1  0  0  0  0
  5 16  1  0  0  0  0
  6  7  1  0  0  0  0
  8  7  1  0  0  0  0
 10 14  1  0  0  0  0
 11  8  1  0  0  0  0
 11 13  2  0  0  0  0
 12 15  1  0  0  0  0
 12 10  1  0  0  0  0
 13  9  2  0  0  0  0
 14  9  1  0  0  0  0
 15 11  1  0  0  0  0
 16 17  1  0  0  0  0
 17 18  1  0  0  0  0
 20 19  1  0  0  0  0
 20 21  1  0  0  0  0
 22 35  1  1  0  0  0
 23 34  1  0  0  0  0
 24 36  2  0  0  0  0
 27 23  1  1  0  0  0
 27 26  1  0  0  0  0
 29 27  1  0  0  0  0
 29 30  1  0  0  0  0
 30 32  1  0  0  0  0
 31 26  1  6  0  0  0
 31 22  1  0  0  0  0
 31 33  1  0  0  0  0
 32 21  1  6  0  0  0
 32 22  1  0  0  0  0
 33 25  1  0  0  0  0
 34 36  1  0  0  0  0
 36 28  2  0  0  0  0
 36 25  1  0  0  0  0
 37  1  1  0  0  0  0
 38 41  1  0  0  0  0
 39 40  2  0  0  0  0
 40 38  1  0  0  0  0
 41 37  1  0  0  0  0
 42 41  2  0  0  0  0
 43 40  1  0  0  0  0
 46 43  1  0  0  0  0
 46 44  1  0  0  0  0
 46 45  1  0  0  0  0
 48 49  1  0  0  0  0
 49 47  1  1  0  0  0
 49 46  1  0  0  0  0
M  END
>  <MODEL>
2

>  <REMARK>
 VINA RESULT:      -7.0      4.259      9.325
  Name = 
  18 active torsions:
  status: ('A' for Active; 'I' for Inactive)
    1  A    between atoms: C_4  and  O_42
    2  A    between atoms: C_13  and  O_35
    3  A    between atoms: C_15  and  O_42
    4  A    between atoms: C_15  and  C_49
    5  A    between atoms: C_16  and  O_25
    6  A    between atoms: C_16  and  C_45
    7  A    between atoms: C_16  and  C_48
    8  A    between atoms: C_22  and  C_32
    9  A    between atoms: O_25  and  C_30
   10  A    between atoms: C_28  and  C_36
   11  A    between atoms: C_28  and  C_44
   12  A    between atoms: C_29  and  C_32
   13  A    between atoms: C_29  and  O_39
   14  A    between atoms: C_29  and  C_49
   15  A    between atoms: C_34  and  C_46
   16  A    between atoms: O_35  and  C_46
   17  A    between atoms: O_39  and  C_45
   18  A    between atoms: C_44  and  C_48
                            x       y       z     vdW  Elec       q    Type
                         _______ _______ _______ _____ _____    ______ ____

>  <TORSDO>
F 18

$$$$
=
 OpenBabel11062418163D

 49 51  0  0  1  0  0  0  0  0999 V2000
  193.0480  175.7200  145.8320 C   0  0  1  0  0  3  0  0  0  0  0  0
  194.6630  177.4650  145.7230 O   0  0  0  0  0  0  0  0  0  0  0  0
  194.4580  176.2250  145.8030 C   0  0  0  0  0  0  0  0  0  0  0  0
  195.5240  175.3160  145.8420 O   0  0  0  0  0  0  0  0  0  0  0  0
  196.4890  175.1620  144.8020 C   0  0  1  0  0  3  0  0  0  0  0  0
  197.4750  174.0460  145.1390 C   0  0  0  0  0  2  0  0  0  0  0  0
  196.8770  173.0870  146.1490 C   0  0  0  0  0  2  0  0  0  0  0  0
  196.9820  171.7500  145.6760 O   0  0  0  0  0  0  0  0  0  0  0  0
  194.9020  171.1690  142.7830 C   0  0  0  0  0  3  0  0  0  0  0  0
  193.0840  170.0270  144.1790 C   0  0  0  0  0  2  0  0  0  0  0  0
  195.8820  171.0810  145.1400 C   0  0  0  0  0  0  0  0  0  0  0  0
  194.0170  169.2800  145.1590 C   0  0  0  0  0  2  0  0  0  0  0  0
  195.5490  171.2420  143.9000 C   0  0  0  0  0  0  0  0  0  0  0  0
  193.7120  170.2450  142.7770 C   0  0  0  0  0  2  0  0  0  0  0  0
  194.9810  170.1920  145.9720 C   0  0  0  0  0  2  0  0  0  0  0  0
  195.7950  174.9180  143.4630 C   0  0  0  0  0  2  0  0  0  0  0  0
  195.9530  176.1010  142.5220 C   0  0  0  0  0  2  0  0  0  0  0  0
  196.9200  176.9830  143.0150 O   0  0  0  0  0  1  0  0  0  0  0  0
  192.9880  174.2250  146.1460 C   0  0  0  0  0  2  0  0  0  0  0  0
  192.6680  173.3530  144.9390 C   0  0  0  0  0  2  0  0  0  0  0  0
  191.7480  174.0770  143.9650 C   0  0  0  0  0  2  0  0  0  0  0  0
  190.3600  173.1600  142.0370 C   0  0  2  0  0  3  0  0  0  0  0  0
  192.7160  172.8050  138.0690 C   0  0  0  0  0  2  0  0  0  0  0  0
  191.1160  170.5170  136.8360 O   0  0  0  0  0  0  0  0  0  0  0  0
  190.5090  170.3080  139.4360 C   0  0  0  0  0  2  0  0  0  0  0  0
  190.6910  173.3960  139.5080 C   0  0  0  0  0  2  0  0  0  0  0  0
  192.1910  173.6190  139.2550 C   0  0  1  0  0  3  0  0  0  0  0  0
  192.3100  168.8360  138.1400 O   0  0  0  0  0  0  0  0  0  0  0  0
  193.1140  173.5540  140.4760 C   0  0  0  0  0  2  0  0  0  0  0  0
  192.5710  174.3680  141.6330 C   0  0  0  0  0  2  0  0  0  0  0  0
  190.3190  172.4680  140.6700 C   0  0  1  0  0  3  0  0  0  0  0  0
  191.7750  173.4630  142.5660 C   0  0  1  0  0  3  0  0  0  0  0  0
  190.9950  171.0990  140.6380 C   0  0  0  0  0  2  0  0  0  0  0  0
  193.1000  171.3710  138.4320 C   0  0  0  0  0  2  0  0  0  0  0  0
  189.6540  172.3870  142.9670 O   0  0  0  0  0  1  0  0  0  0  0  0
  191.7520  170.2280  138.1640 S   0  0  0  0  0  0  0  0  0  0  0  0
  192.2480  176.4790  146.7360 O   0  0  0  0  0  0  0  0  0  0  0  0
  190.0070  176.9550  145.8540 N   0  0  0  0  0  2  0  0  0  0  0  0
  187.9450  176.3140  146.7600 O   0  0  0  0  0  0  0  0  0  0  0  0
  188.5750  176.9420  145.8640 C   0  0  0  0  0  0  0  0  0  0  0  0
  190.8620  176.3150  146.8120 C   0  0  0  0  0  0  0  0  0  0  0  0
  190.3770  175.6060  147.7310 O   0  0  0  0  0  0  0  0  0  0  0  0
  187.8900  177.6570  144.8740 O   0  0  0  0  0  0  0  0  0  0  0  0
  188.1220  175.7840  143.3570 C   0  0  0  0  0  1  0  0  0  0  0  0
  187.7390  178.0670  142.5260 C   0  0  0  0  0  1  0  0  0  0  0  0
  187.4100  177.0980  143.6480 C   0  0  0  0  0  0  0  0  0  0  0  0
  185.3010  177.6010  144.8280 N   0  0  0  0  0  1  0  0  0  0  0  0
  185.2640  177.2360  142.5250 O   0  0  0  0  0  1  0  0  0  0  0  0
  185.8910  176.8670  143.7200 C   0  0  1  0  0  3  0  0  0  0  0  0
  1 19  1  1  0  0  0
  1 37  1  0  0  0  0
  2  3  2  0  0  0  0
  3  1  1  0  0  0  0
  3  4  1  0  0  0  0
  5 16  1  6  0  0  0
  5  6  1  0  0  0  0
  5  4  1  0  0  0  0
  6  7  1  0  0  0  0
  8  7  1  0  0  0  0
  9 13  2  0  0  0  0
 10 12  1  0  0  0  0
 11  8  1  0  0  0  0
 11 15  1  0  0  0  0
 12 15  1  0  0  0  0
 13 11  2  0  0  0  0
 14  9  1  0  0  0  0
 14 10  1  0  0  0  0
 17 18  1  0  0  0  0
 17 16  1  0  0  0  0
 20 19  1  0  0  0  0
 21 20  1  0  0  0  0
 22 32  1  0  0  0  0
 22 35  1  1  0  0  0
 23 34  1  0  0  0  0
 24 36  2  0  0  0  0
 25 33  1  0  0  0  0
 27 23  1  6  0  0  0
 27 26  1  0  0  0  0
 27 29  1  0  0  0  0
 28 36  2  0  0  0  0
 29 30  1  0  0  0  0
 30 32  1  0  0  0  0
 31 26  1  6  0  0  0
 31 22  1  0  0  0  0
 32 21  1  1  0  0  0
 33 31  1  0  0  0  0
 36 34  1  0  0  0  0
 36 25  1  0  0  0  0
 37 41  1  0  0  0  0
 38 40  1  0  0  0  0
 38 41  1  0  0  0  0
 40 39  2  0  0  0  0
 41 42  2  0  0  0  0
 43 40  1  0  0  0  0
 44 46  1  0  0  0  0
 45 46  1  0  0  0  0
 46 49  1  0  0  0  0
 46 43  1  0  0  0  0
 49 48  1  6  0  0  0
 49 47  1  0  0  0  0
M  END
>  <MODEL>
3

>  <REMARK>
 VINA RESULT:      -6.7      3.422      7.141
  Name = 
  18 active torsions:
  status: ('A' for Active; 'I' for Inactive)
    1  A    between atoms: C_4  and  O_42
    2  A    between atoms: C_13  and  O_35
    3  A    between atoms: C_15  and  O_42
    4  A    between atoms: C_15  and  C_49
    5  A    between atoms: C_16  and  O_25
    6  A    between atoms: C_16  and  C_45
    7  A    between atoms: C_16  and  C_48
    8  A    between atoms: C_22  and  C_32
    9  A    between atoms: O_25  and  C_30
   10  A    between atoms: C_28  and  C_36
   11  A    between atoms: C_28  and  C_44
   12  A    between atoms: C_29  and  C_32
   13  A    between atoms: C_29  and  O_39
   14  A    between atoms: C_29  and  C_49
   15  A    between atoms: C_34  and  C_46
   16  A    between atoms: O_35  and  C_46
   17  A    between atoms: O_39  and  C_45
   18  A    between atoms: C_44  and  C_48
                            x       y       z     vdW  Elec       q    Type
                         _______ _______ _______ _____ _____    ______ ____

>  <TORSDO>
F 18

$$$$
=
 OpenBabel11062418163D

 49 51  0  0  1  0  0  0  0  0999 V2000
  188.0570  173.9870  138.7120 C   0  0  1  0  0  3  0  0  0  0  0  0
  188.7990  174.8120  136.6060 O   0  0  0  0  0  0  0  0  0  0  0  0
  189.0430  174.0590  137.5860 C   0  0  0  0  0  0  0  0  0  0  0  0
  190.2060  173.2780  137.6280 O   0  0  0  0  0  0  0  0  0  0  0  0
  191.4490  173.7140  138.1770 C   0  0  1  0  0  3  0  0  0  0  0  0
  192.2000  172.5460  138.8110 C   0  0  0  0  0  2  0  0  0  0  0  0
  193.6220  172.9430  139.1540 C   0  0  0  0  0  2  0  0  0  0  0  0
  193.9360  172.5370  140.4810 O   0  0  0  0  0  0  0  0  0  0  0  0
  194.9130  175.9280  141.2440 C   0  0  0  0  0  3  0  0  0  0  0  0
  196.5200  175.1690  143.0880 C   0  0  0  0  0  2  0  0  0  0  0  0
  194.5750  173.3990  141.3710 C   0  0  0  0  0  0  0  0  0  0  0  0
  195.6620  174.0110  143.6450 C   0  0  0  0  0  2  0  0  0  0  0  0
  194.6270  174.6710  141.1400 C   0  0  0  0  0  0  0  0  0  0  0  0
  195.6780  176.3230  142.4810 C   0  0  0  0  0  2  0  0  0  0  0  0
  195.2970  172.9080  142.6090 C   0  0  0  0  0  2  0  0  0  0  0  0
  192.2880  174.4130  137.1100 C   0  0  0  0  0  2  0  0  0  0  0  0
  192.2060  173.6990  135.7710 C   0  0  0  0  0  2  0  0  0  0  0  0
  191.5600  174.5080  134.8310 O   0  0  0  0  0  1  0  0  0  0  0  0
  188.0990  172.6300  139.4160 C   0  0  0  0  0  2  0  0  0  0  0  0
  188.0890  172.7240  140.9360 C   0  0  0  0  0  2  0  0  0  0  0  0
  189.4280  172.2950  141.5240 C   0  0  0  0  0  2  0  0  0  0  0  0
  190.3150  172.5540  143.8970 C   0  0  2  0  0  3  0  0  0  0  0  0
  192.3940  176.6170  144.6610 C   0  0  0  0  0  2  0  0  0  0  0  0
  191.8630  176.8000  147.6610 O   0  0  0  0  0  0  0  0  0  0  0  0
  190.0360  175.0140  146.8610 C   0  0  0  0  0  2  0  0  0  0  0  0
  192.1570  174.0790  144.8120 C   0  0  0  0  0  2  0  0  0  0  0  0
  192.2480  175.3040  143.8870 C   0  0  1  0  0  3  0  0  0  0  0  0
  189.5830  177.5970  147.3180 O   0  0  0  0  0  0  0  0  0  0  0  0
  191.2190  175.3920  142.7560 C   0  0  0  0  0  2  0  0  0  0  0  0
  191.0950  174.0800  142.0070 C   0  0  0  0  0  2  0  0  0  0  0  0
  190.7620  173.4830  145.0310 C   0  0  1  0  0  3  0  0  0  0  0  0
  189.9420  173.2680  142.5840 C   0  0  1  0  0  3  0  0  0  0  0  0
  189.7000  174.4850  145.4780 C   0  0  0  0  0  2  0  0  0  0  0  0
  191.0630  177.2040  145.1290 C   0  0  0  0  0  2  0  0  0  0  0  0
  189.2420  171.7690  144.3390 O   0  0  0  0  0  1  0  0  0  0  0  0
  190.6480  176.6840  146.7880 S   0  0  0  0  0  0  0  0  0  0  0  0
  188.2460  175.0610  139.6320 O   0  0  0  0  0  0  0  0  0  0  0  0
  187.2970  176.9530  140.8750 N   0  0  0  0  0  2  0  0  0  0  0  0
  185.5550  178.3710  140.2150 O   0  0  0  0  0  0  0  0  0  0  0  0
  186.3870  178.0350  141.1030 C   0  0  0  0  0  0  0  0  0  0  0  0
  187.3660  176.1460  139.6910 C   0  0  0  0  0  0  0  0  0  0  0  0
  186.6360  176.3990  138.6980 O   0  0  0  0  0  0  0  0  0  0  0  0
  186.4240  178.6960  142.3370 O   0  0  0  0  0  0  0  0  0  0  0  0
  184.1340  178.1690  142.9220 C   0  0  0  0  0  1  0  0  0  0  0  0
  185.5040  179.6580  144.3200 C   0  0  0  0  0  1  0  0  0  0  0  0
  185.5450  178.4260  143.4330 C   0  0  0  0  0  0  0  0  0  0  0  0
  187.4580  177.3320  144.5450 N   0  0  0  0  0  1  0  0  0  0  0  0
  185.3130  177.0530  145.4190 O   0  0  0  0  0  1  0  0  0  0  0  0
  186.0420  177.2120  144.2350 C   0  0  1  0  0  3  0  0  0  0  0  0
  1 19  1  1  0  0  0
  1 37  1  0  0  0  0
  2  3  2  0  0  0  0
  3  4  1  0  0  0  0
  3  1  1  0  0  0  0
  4  5  1  0  0  0  0
  5 16  1  6  0  0  0
  5  6  1  0  0  0  0
  6  7  1  0  0  0  0
  7  8  1  0  0  0  0
  8 11  1  0  0  0  0
  9 14  1  0  0  0  0
 10 12  1  0  0  0  0
 11 15  1  0  0  0  0
 13  9  2  0  0  0  0
 13 11  2  0  0  0  0
 14 10  1  0  0  0  0
 15 12  1  0  0  0  0
 17 16  1  0  0  0  0
 18 17  1  0  0  0  0
 19 20  1  0  0  0  0
 20 21  1  0  0  0  0
 22 35  1  1  0  0  0
 22 31  1  0  0  0  0
 23 34  1  0  0  0  0
 27 29  1  1  0  0  0
 27 23  1  0  0  0  0
 27 26  1  0  0  0  0
 30 32  1  0  0  0  0
 30 29  1  0  0  0  0
 31 26  1  6  0  0  0
 31 33  1  0  0  0  0
 32 21  1  6  0  0  0
 32 22  1  0  0  0  0
 33 25  1  0  0  0  0
 34 36  1  0  0  0  0
 36 25  1  0  0  0  0
 36 28  2  0  0  0  0
 36 24  2  0  0  0  0
 37 41  1  0  0  0  0
 38 40  1  0  0  0  0
 39 40  2  0  0  0  0
 40 43  1  0  0  0  0
 41 38  1  0  0  0  0
 42 41  2  0  0  0  0
 43 46  1  0  0  0  0
 44 46  1  0  0  0  0
 46 49  1  0  0  0  0
 46 45  1  0  0  0  0
 49 47  1  1  0  0  0
 49 48  1  0  0  0  0
M  END
>  <MODEL>
4

>  <REMARK>
 VINA RESULT:      -6.7      3.185      7.039
  Name = 
  18 active torsions:
  status: ('A' for Active; 'I' for Inactive)
    1  A    between atoms: C_4  and  O_42
    2  A    between atoms: C_13  and  O_35
    3  A    between atoms: C_15  and  O_42
    4  A    between atoms: C_15  and  C_49
    5  A    between atoms: C_16  and  O_25
    6  A    between atoms: C_16  and  C_45
    7  A    between atoms: C_16  and  C_48
    8  A    between atoms: C_22  and  C_32
    9  A    between atoms: O_25  and  C_30
   10  A    between atoms: C_28  and  C_36
   11  A    between atoms: C_28  and  C_44
   12  A    between atoms: C_29  and  C_32
   13  A    between atoms: C_29  and  O_39
   14  A    between atoms: C_29  and  C_49
   15  A    between atoms: C_34  and  C_46
   16  A    between atoms: O_35  and  C_46
   17  A    between atoms: O_39  and  C_45
   18  A    between atoms: C_44  and  C_48
                            x       y       z     vdW  Elec       q    Type
                         _______ _______ _______ _____ _____    ______ ____

>  <TORSDO>
F 18

$$$$
=
 OpenBabel11062418163D

 49 51  0  0  1  0  0  0  0  0999 V2000
  191.4900  171.3710  142.8830 C   0  0  1  0  0  3  0  0  0  0  0  0
  193.0420  170.0400  141.6640 O   0  0  0  0  0  0  0  0  0  0  0  0
  192.8260  170.7190  142.7030 C   0  0  0  0  0  0  0  0  0  0  0  0
  193.8060  170.8530  143.6960 O   0  0  0  0  0  0  0  0  0  0  0  0
  194.9810  171.6530  143.5650 C   0  0  1  0  0  3  0  0  0  0  0  0
  194.7190  172.8550  142.6620 C   0  0  0  0  0  2  0  0  0  0  0  0
  195.8890  173.8190  142.6950 C   0  0  0  0  0  2  0  0  0  0  0  0
  195.4200  175.1600  142.6390 O   0  0  0  0  0  0  0  0  0  0  0  0
  194.9160  175.7560  146.1640 C   0  0  0  0  0  3  0  0  0  0  0  0
  192.4410  176.3210  145.8280 C   0  0  0  0  0  2  0  0  0  0  0  0
  194.5910  175.6820  143.6310 C   0  0  0  0  0  0  0  0  0  0  0  0
  192.5830  177.0790  144.4900 C   0  0  0  0  0  2  0  0  0  0  0  0
  194.9430  175.6430  144.8760 C   0  0  0  0  0  0  0  0  0  0  0  0
  193.6960  176.4320  146.7350 C   0  0  0  0  0  2  0  0  0  0  0  0
  193.2210  176.2550  143.3340 C   0  0  0  0  0  2  0  0  0  0  0  0
  195.4920  172.0790  144.9400 C   0  0  0  0  0  2  0  0  0  0  0  0
  196.7470  171.3190  145.3360 C   0  0  0  0  0  2  0  0  0  0  0  0
  196.4600  170.4170  146.3650 O   0  0  0  0  0  1  0  0  0  0  0  0
  191.3100  171.9140  144.3010 C   0  0  0  0  0  2  0  0  0  0  0  0
  189.8700  172.2660  144.6480 C   0  0  0  0  0  2  0  0  0  0  0  0
  189.8090  173.4220  145.6400 C   0  0  0  0  0  2  0  0  0  0  0  0
  188.9570  175.7730  146.1150 C   0  0  2  0  0  3  0  0  0  0  0  0
  187.8040  178.1280  142.3010 C   0  0  0  0  0  2  0  0  0  0  0  0
  185.7150  179.9630  143.5580 O   0  0  0  0  0  0  0  0  0  0  0  0
  185.8760  177.9700  145.3390 C   0  0  0  0  0  2  0  0  0  0  0  0
  188.8770  177.8370  144.6000 C   0  0  0  0  0  2  0  0  0  0  0  0
  188.8110  177.3420  143.1460 C   0  0  1  0  0  3  0  0  0  0  0  0
  183.9930  178.2370  143.4770 O   0  0  0  0  0  0  0  0  0  0  0  0
  188.7100  175.8280  142.9350 C   0  0  0  0  0  2  0  0  0  0  0  0
  189.7180  175.0760  143.7820 C   0  0  0  0  0  2  0  0  0  0  0  0
  188.1480  176.9900  145.6500 C   0  0  1  0  0  3  0  0  0  0  0  0
  189.0630  174.6330  145.0840 C   0  0  1  0  0  3  0  0  0  0  0  0
  186.6870  176.6860  145.3260 C   0  0  0  0  0  2  0  0  0  0  0  0
  186.3690  177.6170  142.4260 C   0  0  0  0  0  2  0  0  0  0  0  0
  188.4150  175.2900  147.3130 O   0  0  0  0  0  1  0  0  0  0  0  0
  185.4550  178.4910  143.6900 S   0  0  0  0  0  0  0  0  0  0  0  0
  191.2760  172.3850  141.9020 O   0  0  0  0  0  0  0  0  0  0  0  0
  190.4840  171.7260  139.6740 N   0  0  0  0  0  2  0  0  0  0  0  0
  188.3720  172.1040  138.7350 O   0  0  0  0  0  0  0  0  0  0  0  0
  189.5440  171.6540  138.5960 C   0  0  0  0  0  0  0  0  0  0  0  0
  190.2410  172.3010  140.9660 C   0  0  0  0  0  0  0  0  0  0  0  0
  189.1010  172.7390  141.2690 O   0  0  0  0  0  0  0  0  0  0  0  0
  189.9570  171.0960  137.3800 O   0  0  0  0  0  0  0  0  0  0  0  0
  189.3730  171.7530  135.1250 C   0  0  0  0  0  1  0  0  0  0  0  0
  191.6950  171.2350  135.7470 C   0  0  0  0  0  1  0  0  0  0  0  0
  190.3980  171.8480  136.2460 C   0  0  0  0  0  0  0  0  0  0  0  0
  191.9370  173.7780  136.2120 N   0  0  0  0  0  1  0  0  0  0  0  0
  189.6380  174.1450  136.0720 O   0  0  0  0  0  1  0  0  0  0  0  0
  190.6210  173.3210  136.6300 C   0  0  1  0  0  3  0  0  0  0  0  0
  1 19  1  1  0  0  0
  2  3  2  0  0  0  0
  3  1  1  0  0  0  0
  3  4  1  0  0  0  0
  5  6  1  6  0  0  0
  5  4  1  0  0  0  0
  5 16  1  0  0  0  0
  6  7  1  0  0  0  0
  8  7  1  0  0  0  0
  8 11  1  0  0  0  0
  9 14  1  0  0  0  0
 10 14  1  0  0  0  0
 11 13  2  0  0  0  0
 12 10  1  0  0  0  0
 13  9  2  0  0  0  0
 15 11  1  0  0  0  0
 15 12  1  0  0  0  0
 16 17  1  0  0  0  0
 17 18  1  0  0  0  0
 19 20  1  0  0  0  0
 20 21  1  0  0  0  0
 22 35  1  1  0  0  0
 23 34  1  0  0  0  0
 24 36  2  0  0  0  0
 27 23  1  1  0  0  0
 27 26  1  0  0  0  0
 28 36  2  0  0  0  0
 29 27  1  0  0  0  0
 29 30  1  0  0  0  0
 30 32  1  0  0  0  0
 31 26  1  6  0  0  0
 31 22  1  0  0  0  0
 32 21  1  1  0  0  0
 32 22  1  0  0  0  0
 33 25  1  0  0  0  0
 33 31  1  0  0  0  0
 34 36  1  0  0  0  0
 36 25  1  0  0  0  0
 37  1  1  0  0  0  0
 38 41  1  0  0  0  0
 40 39  2  0  0  0  0
 40 38  1  0  0  0  0
 41 42  2  0  0  0  0
 41 37  1  0  0  0  0
 43 40  1  0  0  0  0
 44 46  1  0  0  0  0
 45 46  1  0  0  0  0
 46 49  1  0  0  0  0
 46 43  1  0  0  0  0
 47 49  1  0  0  0  0
 49 48  1  6  0  0  0
M  END
>  <MODEL>
5

>  <REMARK>
 VINA RESULT:      -6.6      4.110      9.029
  Name = 
  18 active torsions:
  status: ('A' for Active; 'I' for Inactive)
    1  A    between atoms: C_4  and  O_42
    2  A    between atoms: C_13  and  O_35
    3  A    between atoms: C_15  and  O_42
    4  A    between atoms: C_15  and  C_49
    5  A    between atoms: C_16  and  O_25
    6  A    between atoms: C_16  and  C_45
    7  A    between atoms: C_16  and  C_48
    8  A    between atoms: C_22  and  C_32
    9  A    between atoms: O_25  and  C_30
   10  A    between atoms: C_28  and  C_36
   11  A    between atoms: C_28  and  C_44
   12  A    between atoms: C_29  and  C_32
   13  A    between atoms: C_29  and  O_39
   14  A    between atoms: C_29  and  C_49
   15  A    between atoms: C_34  and  C_46
   16  A    between atoms: O_35  and  C_46
   17  A    between atoms: O_39  and  C_45
   18  A    between atoms: C_44  and  C_48
                            x       y       z     vdW  Elec       q    Type
                         _______ _______ _______ _____ _____    ______ ____

>  <TORSDO>
F 18

$$$$
=
 OpenBabel11062418163D

 49 51  0  0  1  0  0  0  0  0999 V2000
  193.2420  171.7330  143.5960 C   0  0  1  0  0  3  0  0  0  0  0  0
  194.0490  170.1490  145.1770 O   0  0  0  0  0  0  0  0  0  0  0  0
  194.3370  170.9450  144.2450 C   0  0  0  0  0  0  0  0  0  0  0  0
  195.6630  171.1180  143.8250 O   0  0  0  0  0  0  0  0  0  0  0  0
  196.5800  172.0410  144.4130 C   0  0  1  0  0  3  0  0  0  0  0  0
  196.0160  172.6110  145.7120 C   0  0  0  0  0  2  0  0  0  0  0  0
  196.4270  174.0590  145.8880 C   0  0  0  0  0  2  0  0  0  0  0  0
  196.4930  174.7060  144.6220 O   0  0  0  0  0  0  0  0  0  0  0  0
  193.3300  176.3510  145.1920 C   0  0  0  0  0  3  0  0  0  0  0  0
  192.6430  176.1240  142.7350 C   0  0  0  0  0  2  0  0  0  0  0  0
  195.3730  175.3160  144.0590 C   0  0  0  0  0  0  0  0  0  0  0  0
  194.0330  176.3750  142.1090 C   0  0  0  0  0  2  0  0  0  0  0  0
  194.4380  175.8050  144.8090 C   0  0  0  0  0  0  0  0  0  0  0  0
  192.4360  176.8550  144.0880 C   0  0  0  0  0  2  0  0  0  0  0  0
  195.1460  175.3860  142.5640 C   0  0  0  0  0  2  0  0  0  0  0  0
  197.9390  171.3770  144.6300 C   0  0  0  0  0  2  0  0  0  0  0  0
  197.8160  169.8670  144.7520 C   0  0  0  0  0  2  0  0  0  0  0  0
  197.9410  169.2700  143.4940 O   0  0  0  0  0  1  0  0  0  0  0  0
  192.5530  172.6710  144.5880 C   0  0  0  0  0  2  0  0  0  0  0  0
  191.1290  173.0450  144.1970 C   0  0  0  0  0  2  0  0  0  0  0  0
  190.2640  173.2830  145.4280 C   0  0  0  0  0  2  0  0  0  0  0  0
  189.6910  175.6180  146.2650 C   0  0  2  0  0  3  0  0  0  0  0  0
  186.9740  178.0020  143.3740 C   0  0  0  0  0  2  0  0  0  0  0  0
  185.6320  179.7970  145.4450 O   0  0  0  0  0  0  0  0  0  0  0  0
  186.5660  177.7850  146.9450 C   0  0  0  0  0  2  0  0  0  0  0  0
  188.9450  177.6980  144.9690 C   0  0  0  0  0  2  0  0  0  0  0  0
  188.2540  177.2190  143.6820 C   0  0  1  0  0  3  0  0  0  0  0  0
  184.0570  178.0510  146.0960 O   0  0  0  0  0  0  0  0  0  0  0  0
  188.0800  175.7060  143.5120 C   0  0  0  0  0  2  0  0  0  0  0  0
  189.3610  174.9570  143.8220 C   0  0  0  0  0  2  0  0  0  0  0  0
  188.7520  176.8300  146.2180 C   0  0  1  0  0  3  0  0  0  0  0  0
  189.3430  174.4920  145.2730 C   0  0  1  0  0  3  0  0  0  0  0  0
  187.2980  176.5120  146.5590 C   0  0  0  0  0  2  0  0  0  0  0  0
  185.7410  177.4720  144.1040 C   0  0  0  0  0  2  0  0  0  0  0  0
  189.7290  175.1150  147.5710 O   0  0  0  0  0  1  0  0  0  0  0  0
  185.4650  178.3200  145.6530 S   0  0  0  0  0  0  0  0  0  0  0  0
  193.7230  172.4400  142.4540 O   0  0  0  0  0  0  0  0  0  0  0  0
  192.0690  172.1370  140.6650 N   0  0  0  0  0  2  0  0  0  0  0  0
  192.3930  171.1520  138.5660 O   0  0  0  0  0  0  0  0  0  0  0  0
  191.5990  171.6840  139.3910 C   0  0  0  0  0  0  0  0  0  0  0  0
  193.4150  172.0350  141.1510 C   0  0  0  0  0  0  0  0  0  0  0  0
  194.3290  171.5780  140.4180 O   0  0  0  0  0  0  0  0  0  0  0  0
  190.2390  171.8220  139.0890 O   0  0  0  0  0  0  0  0  0  0  0  0
  189.6180  171.7700  136.7490 C   0  0  0  0  0  1  0  0  0  0  0  0
  190.6880  173.7460  137.7470 C   0  0  0  0  0  1  0  0  0  0  0  0
  189.7170  172.6100  138.0150 C   0  0  0  0  0  0  0  0  0  0  0  0
  187.8440  172.5900  139.6220 N   0  0  0  0  0  1  0  0  0  0  0  0
  188.3650  174.5650  138.4980 O   0  0  0  0  0  1  0  0  0  0  0  0
  188.3330  173.1710  138.3820 C   0  0  1  0  0  3  0  0  0  0  0  0
  1  3  1  0  0  0  0
  1 19  1  1  0  0  0
  3  2  2  0  0  0  0
  4  3  1  0  0  0  0
  4  5  1  0  0  0  0
  5 16  1  1  0  0  0
  5  6  1  0  0  0  0
  6  7  1  0  0  0  0
  8  7  1  0  0  0  0
 10 14  1  0  0  0  0
 11  8  1  0  0  0  0
 11 13  2  0  0  0  0
 12 15  1  0  0  0  0
 12 10  1  0  0  0  0
 13  9  2  0  0  0  0
 14  9  1  0  0  0  0
 15 11  1  0  0  0  0
 16 17  1  0  0  0  0
 18 17  1  0  0  0  0
 20 19  1  0  0  0  0
 20 21  1  0  0  0  0
 22 35  1  1  0  0  0
 23 34  1  0  0  0  0
 24 36  2  0  0  0  0
 27 23  1  1  0  0  0
 27 26  1  0  0  0  0
 29 27  1  0  0  0  0
 29 30  1  0  0  0  0
 30 32  1  0  0  0  0
 31 26  1  6  0  0  0
 31 22  1  0  0  0  0
 31 33  1  0  0  0  0
 32 21  1  6  0  0  0
 32 22  1  0  0  0  0
 33 25  1  0  0  0  0
 34 36  1  0  0  0  0
 36 28  2  0  0  0  0
 36 25  1  0  0  0  0
 37  1  1  0  0  0  0
 38 41  1  0  0  0  0
 39 40  2  0  0  0  0
 40 38  1  0  0  0  0
 41 37  1  0  0  0  0
 42 41  2  0  0  0  0
 43 40  1  0  0  0  0
 44 46  1  0  0  0  0
 45 46  1  0  0  0  0
 46 49  1  0  0  0  0
 46 43  1  0  0  0  0
 49 48  1  1  0  0  0
 49 47  1  0  0  0  0
M  END
>  <MODEL>
6

>  <REMARK>
 VINA RESULT:      -6.4      4.075      9.392
  Name = 
  18 active torsions:
  status: ('A' for Active; 'I' for Inactive)
    1  A    between atoms: C_4  and  O_42
    2  A    between atoms: C_13  and  O_35
    3  A    between atoms: C_15  and  O_42
    4  A    between atoms: C_15  and  C_49
    5  A    between atoms: C_16  and  O_25
    6  A    between atoms: C_16  and  C_45
    7  A    between atoms: C_16  and  C_48
    8  A    between atoms: C_22  and  C_32
    9  A    between atoms: O_25  and  C_30
   10  A    between atoms: C_28  and  C_36
   11  A    between atoms: C_28  and  C_44
   12  A    between atoms: C_29  and  C_32
   13  A    between atoms: C_29  and  O_39
   14  A    between atoms: C_29  and  C_49
   15  A    between atoms: C_34  and  C_46
   16  A    between atoms: O_35  and  C_46
   17  A    between atoms: O_39  and  C_45
   18  A    between atoms: C_44  and  C_48
                            x       y       z     vdW  Elec       q    Type
                         _______ _______ _______ _____ _____    ______ ____

>  <TORSDO>
F 18

$$$$
=
 OpenBabel11062418163D

 49 51  0  0  1  0  0  0  0  0999 V2000
  189.8550  173.0780  142.2680 C   0  0  1  0  0  3  0  0  0  0  0  0
  190.2630  173.3620  144.5960 O   0  0  0  0  0  0  0  0  0  0  0  0
  190.7180  173.4730  143.4270 C   0  0  0  0  0  0  0  0  0  0  0  0
  192.0050  173.9780  143.1960 O   0  0  0  0  0  0  0  0  0  0  0  0
  192.4650  174.4610  141.9340 C   0  0  1  0  0  3  0  0  0  0  0  0
  192.8430  175.9370  142.0230 C   0  0  0  0  0  2  0  0  0  0  0  0
  193.2010  176.3160  143.4460 C   0  0  0  0  0  2  0  0  0  0  0  0
  192.2230  177.1990  143.9790 O   0  0  0  0  0  0  0  0  0  0  0  0
  192.0400  175.2880  147.0360 C   0  0  0  0  0  3  0  0  0  0  0  0
  189.5210  175.6860  147.2660 C   0  0  0  0  0  2  0  0  0  0  0  0
  191.4720  176.8590  145.1030 C   0  0  0  0  0  0  0  0  0  0  0  0
  189.4960  177.1440  146.7570 C   0  0  0  0  0  2  0  0  0  0  0  0
  191.9460  176.0500  145.9950 C   0  0  0  0  0  0  0  0  0  0  0  0
  190.8520  175.3000  147.9640 C   0  0  0  0  0  2  0  0  0  0  0  0
  190.0550  177.3470  145.3180 C   0  0  0  0  0  2  0  0  0  0  0  0
  193.6290  173.6090  141.4300 C   0  0  0  0  0  2  0  0  0  0  0  0
  194.2850  172.8270  142.5560 C   0  0  0  0  0  2  0  0  0  0  0  0
  195.4060  173.5150  143.0310 O   0  0  0  0  0  1  0  0  0  0  0  0
  189.7670  171.5590  142.1180 C   0  0  0  0  0  2  0  0  0  0  0  0
  191.0260  170.9210  141.5460 C   0  0  0  0  0  2  0  0  0  0  0  0
  190.8420  170.5580  140.0780 C   0  0  0  0  0  2  0  0  0  0  0  0
  192.2360  170.8120  137.9630 C   0  0  2  0  0  3  0  0  0  0  0  0
  192.3500  175.1420  136.3330 C   0  0  0  0  0  2  0  0  0  0  0  0
  195.0590  174.9920  134.9360 O   0  0  0  0  0  0  0  0  0  0  0  0
  195.1810  172.9390  136.6510 C   0  0  0  0  0  2  0  0  0  0  0  0
  192.1490  172.6050  136.1350 C   0  0  0  0  0  2  0  0  0  0  0  0
  191.5890  173.8880  136.7700 C   0  0  1  0  0  3  0  0  0  0  0  0
  196.2760  175.3380  137.0220 O   0  0  0  0  0  0  0  0  0  0  0  0
  191.3190  173.8520  138.2770 C   0  0  0  0  0  2  0  0  0  0  0  0
  190.5640  172.6000  138.6810 C   0  0  0  0  0  2  0  0  0  0  0  0
  193.0350  171.7260  137.0260 C   0  0  1  0  0  3  0  0  0  0  0  0
  191.5500  171.5330  139.1390 C   0  0  1  0  0  3  0  0  0  0  0  0
  194.1930  172.4580  137.6990 C   0  0  0  0  0  2  0  0  0  0  0  0
  193.6080  175.4140  137.1560 C   0  0  0  0  0  2  0  0  0  0  0  0
  193.0740  169.7980  138.4430 O   0  0  0  0  0  1  0  0  0  0  0  0
  195.0660  174.6990  136.4080 S   0  0  0  0  0  0  0  0  0  0  0  0
  188.5610  173.6710  142.3650 O   0  0  0  0  0  0  0  0  0  0  0  0
  187.9720  176.0330  142.6800 N   0  0  0  0  0  2  0  0  0  0  0  0
  187.5080  177.6270  141.0290 O   0  0  0  0  0  0  0  0  0  0  0  0
  187.5860  177.3450  142.2570 C   0  0  0  0  0  0  0  0  0  0  0  0
  188.2820  174.9280  141.8200 C   0  0  0  0  0  0  0  0  0  0  0  0
  188.3010  175.0740  140.5700 O   0  0  0  0  0  0  0  0  0  0  0  0
  187.2750  178.3020  143.2320 O   0  0  0  0  0  0  0  0  0  0  0  0
  184.9780  177.5390  143.2220 C   0  0  0  0  0  1  0  0  0  0  0  0
  185.5670  179.8230  143.9170 C   0  0  0  0  0  1  0  0  0  0  0  0
  186.0310  178.3770  143.9330 C   0  0  0  0  0  0  0  0  0  0  0  0
  185.5120  178.7700  146.3140 N   0  0  0  0  0  1  0  0  0  0  0  0
  185.7270  176.5820  145.5360 O   0  0  0  0  0  1  0  0  0  0  0  0
  186.1990  177.8900  145.3820 C   0  0  1  0  0  3  0  0  0  0  0  0
  1 19  1  1  0  0  0
  1 37  1  0  0  0  0
  1  3  1  0  0  0  0
  3  2  2  0  0  0  0
  4  3  1  0  0  0  0
  5 16  1  1  0  0  0
  5  6  1  0  0  0  0
  5  4  1  0  0  0  0
  6  7  1  0  0  0  0
  7  8  1  0  0  0  0
  8 11  1  0  0  0  0
  9 14  1  0  0  0  0
 10 14  1  0  0  0  0
 11 15  1  0  0  0  0
 11 13  2  0  0  0  0
 12 10  1  0  0  0  0
 13  9  2  0  0  0  0
 15 12  1  0  0  0  0
 16 17  1  0  0  0  0
 17 18  1  0  0  0  0
 20 19  1  0  0  0  0
 21 20  1  0  0  0  0
 22 35  1  1  0  0  0
 22 32  1  0  0  0  0
 23 27  1  0  0  0  0
 23 34  1  0  0  0  0
 24 36  2  0  0  0  0
 25 33  1  0  0  0  0
 27 26  1  1  0  0  0
 27 29  1  0  0  0  0
 29 30  1  0  0  0  0
 30 32  1  0  0  0  0
 31 26  1  1  0  0  0
 31 33  1  0  0  0  0
 31 22  1  0  0  0  0
 32 21  1  6  0  0  0
 36 25  1  0  0  0  0
 36 28  2  0  0  0  0
 36 34  1  0  0  0  0
 39 40  2  0  0  0  0
 40 38  1  0  0  0  0
 40 43  1  0  0  0  0
 41 37  1  0  0  0  0
 41 38  1  0  0  0  0
 42 41  2  0  0  0  0
 43 46  1  0  0  0  0
 44 46  1  0  0  0  0
 45 46  1  0  0  0  0
 46 49  1  0  0  0  0
 49 48  1  6  0  0  0
 49 47  1  0  0  0  0
M  END
>  <MODEL>
7

>  <REMARK>
 VINA RESULT:      -6.3      3.401      6.347
  Name = 
  18 active torsions:
  status: ('A' for Active; 'I' for Inactive)
    1  A    between atoms: C_4  and  O_42
    2  A    between atoms: C_13  and  O_35
    3  A    between atoms: C_15  and  O_42
    4  A    between atoms: C_15  and  C_49
    5  A    between atoms: C_16  and  O_25
    6  A    between atoms: C_16  and  C_45
    7  A    between atoms: C_16  and  C_48
    8  A    between atoms: C_22  and  C_32
    9  A    between atoms: O_25  and  C_30
   10  A    between atoms: C_28  and  C_36
   11  A    between atoms: C_28  and  C_44
   12  A    between atoms: C_29  and  C_32
   13  A    between atoms: C_29  and  O_39
   14  A    between atoms: C_29  and  C_49
   15  A    between atoms: C_34  and  C_46
   16  A    between atoms: O_35  and  C_46
   17  A    between atoms: O_39  and  C_45
   18  A    between atoms: C_44  and  C_48
                            x       y       z     vdW  Elec       q    Type
                         _______ _______ _______ _____ _____    ______ ____

>  <TORSDO>
F 18

$$$$
=
 OpenBabel11062418163D

 49 51  0  0  1  0  0  0  0  0999 V2000
  193.0610  176.0740  145.0820 C   0  0  1  0  0  3  0  0  0  0  0  0
  194.6990  177.7610  145.4480 O   0  0  0  0  0  0  0  0  0  0  0  0
  194.4750  176.5380  145.2440 C   0  0  0  0  0  0  0  0  0  0  0  0
  195.5270  175.6160  145.1460 O   0  0  0  0  0  0  0  0  0  0  0  0
  196.3290  175.4320  143.9800 C   0  0  1  0  0  3  0  0  0  0  0  0
  197.5330  174.5450  144.2860 C   0  0  0  0  0  2  0  0  0  0  0  0
  197.2040  173.5500  145.3820 C   0  0  0  0  0  2  0  0  0  0  0  0
  197.6280  172.2460  145.0020 O   0  0  0  0  0  0  0  0  0  0  0  0
  194.5890  170.4870  145.8400 C   0  0  0  0  0  3  0  0  0  0  0  0
  195.0360  168.6590  144.1030 C   0  0  0  0  0  2  0  0  0  0  0  0
  196.7100  171.2600  144.6440 C   0  0  0  0  0  0  0  0  0  0  0  0
  195.6370  169.5630  143.0040 C   0  0  0  0  0  2  0  0  0  0  0  0
  195.6710  171.0240  145.3790 C   0  0  0  0  0  0  0  0  0  0  0  0
  193.9970  169.3860  144.9980 C   0  0  0  0  0  2  0  0  0  0  0  0
  196.8970  170.3690  143.4340 C   0  0  0  0  0  2  0  0  0  0  0  0
  195.4870  174.8680  142.8370 C   0  0  0  0  0  2  0  0  0  0  0  0
  195.9510  175.3860  141.4860 C   0  0  0  0  0  2  0  0  0  0  0  0
  196.3340  176.7270  141.5890 O   0  0  0  0  0  1  0  0  0  0  0  0
  192.7280  174.9260  146.0360 C   0  0  0  0  0  2  0  0  0  0  0  0
  192.6570  173.5630  145.3600 C   0  0  0  0  0  2  0  0  0  0  0  0
  191.2840  173.3250  144.7430 C   0  0  0  0  0  2  0  0  0  0  0  0
  191.0150  173.9550  142.2910 C   0  0  2  0  0  3  0  0  0  0  0  0
  192.9670  170.9310  139.3820 C   0  0  0  0  0  2  0  0  0  0  0  0
  191.1530  171.4320  136.9790 O   0  0  0  0  0  0  0  0  0  0  0  0
  189.7000  172.4000  139.0090 C   0  0  0  0  0  2  0  0  0  0  0  0
  192.3990  173.2640  140.2490 C   0  0  0  0  0  2  0  0  0  0  0  0
  193.0400  171.9020  140.5620 C   0  0  1  0  0  3  0  0  0  0  0  0
  189.3870  170.0100  137.8790 O   0  0  0  0  0  0  0  0  0  0  0  0
  192.6580  171.2490  141.8940 C   0  0  0  0  0  2  0  0  0  0  0  0
  192.7400  172.2320  143.0450 C   0  0  0  0  0  2  0  0  0  0  0  0
  190.9990  173.5150  140.8230 C   0  0  1  0  0  3  0  0  0  0  0  0
  191.3660  172.8410  143.2960 C   0  0  1  0  0  3  0  0  0  0  0  0
  189.9730  172.4310  140.5030 C   0  0  0  0  0  2  0  0  0  0  0  0
  191.6460  170.1680  139.2970 C   0  0  0  0  0  2  0  0  0  0  0  0
  189.7770  174.5240  142.6160 O   0  0  0  0  0  1  0  0  0  0  0  0
  190.4640  170.9900  138.2370 S   0  0  0  0  0  0  0  0  0  0  0  0
  192.1430  177.1570  145.2260 O   0  0  0  0  0  0  0  0  0  0  0  0
  189.8210  177.7070  144.6480 N   0  0  0  0  0  2  0  0  0  0  0  0
  188.8870  177.9080  142.5100 O   0  0  0  0  0  0  0  0  0  0  0  0
  188.7180  177.9240  143.7620 C   0  0  0  0  0  0  0  0  0  0  0  0
  191.1760  177.4380  144.2570 C   0  0  0  0  0  0  0  0  0  0  0  0
  191.5060  177.4460  143.0430 O   0  0  0  0  0  0  0  0  0  0  0  0
  187.4470  178.1320  144.3100 O   0  0  0  0  0  0  0  0  0  0  0  0
  186.7380  176.0450  143.3090 C   0  0  0  0  0  1  0  0  0  0  0  0
  185.2600  178.0100  143.3560 C   0  0  0  0  0  1  0  0  0  0  0  0
  186.3290  177.2580  144.1310 C   0  0  0  0  0  0  0  0  0  0  0  0
  186.8220  176.7810  146.5020 N   0  0  0  0  0  1  0  0  0  0  0  0
  184.7330  177.6390  145.9190 O   0  0  0  0  0  1  0  0  0  0  0  0
  185.7750  176.8070  145.4940 C   0  0  1  0  0  3  0  0  0  0  0  0
  1 37  1  0  0  0  0
  1  3  1  0  0  0  0
  1 19  1  1  0  0  0
  3  2  2  0  0  0  0
  4  3  1  0  0  0  0
  5 16  1  6  0  0  0
  5  6  1  0  0  0  0
  5  4  1  0  0  0  0
  6  7  1  0  0  0  0
  8  7  1  0  0  0  0
 10 14  1  0  0  0  0
 11  8  1  0  0  0  0
 11 13  2  0  0  0  0
 12 15  1  0  0  0  0
 12 10  1  0  0  0  0
 13  9  2  0  0  0  0
 14  9  1  0  0  0  0
 15 11  1  0  0  0  0
 17 18  1  0  0  0  0
 17 16  1  0  0  0  0
 20 19  1  0  0  0  0
 21 20  1  0  0  0  0
 22 35  1  1  0  0  0
 22 32  1  0  0  0  0
 24 36  2  0  0  0  0
 25 33  1  0  0  0  0
 26 27  1  0  0  0  0
 27 23  1  6  0  0  0
 27 29  1  0  0  0  0
 28 36  2  0  0  0  0
 29 30  1  0  0  0  0
 30 32  1  0  0  0  0
 31 26  1  1  0  0  0
 31 22  1  0  0  0  0
 32 21  1  1  0  0  0
 33 31  1  0  0  0  0
 34 23  1  0  0  0  0
 36 25  1  0  0  0  0
 36 34  1  0  0  0  0
 39 40  2  0  0  0  0
 40 43  1  0  0  0  0
 40 38  1  0  0  0  0
 41 38  1  0  0  0  0
 41 37  1  0  0  0  0
 42 41  2  0  0  0  0
 44 46  1  0  0  0  0
 45 46  1  0  0  0  0
 46 43  1  0  0  0  0
 46 49  1  0  0  0  0
 49 48  1  1  0  0  0
 49 47  1  0  0  0  0
M  END
>  <MODEL>
8

>  <REMARK>
 VINA RESULT:      -6.3      3.693      7.165
  Name = 
  18 active torsions:
  status: ('A' for Active; 'I' for Inactive)
    1  A    between atoms: C_4  and  O_42
    2  A    between atoms: C_13  and  O_35
    3  A    between atoms: C_15  and  O_42
    4  A    between atoms: C_15  and  C_49
    5  A    between atoms: C_16  and  O_25
    6  A    between atoms: C_16  and  C_45
    7  A    between atoms: C_16  and  C_48
    8  A    between atoms: C_22  and  C_32
    9  A    between atoms: O_25  and  C_30
   10  A    between atoms: C_28  and  C_36
   11  A    between atoms: C_28  and  C_44
   12  A    between atoms: C_29  and  C_32
   13  A    between atoms: C_29  and  O_39
   14  A    between atoms: C_29  and  C_49
   15  A    between atoms: C_34  and  C_46
   16  A    between atoms: O_35  and  C_46
   17  A    between atoms: O_39  and  C_45
   18  A    between atoms: C_44  and  C_48
                            x       y       z     vdW  Elec       q    Type
                         _______ _______ _______ _____ _____    ______ ____

>  <TORSDO>
F 18

$$$$
=
 OpenBabel11062418163D

 49 51  0  0  1  0  0  0  0  0999 V2000
  191.8010  174.9020  144.8140 C   0  0  1  0  0  3  0  0  0  0  0  0
  191.6370  176.1540  142.7960 O   0  0  0  0  0  0  0  0  0  0  0  0
  191.4630  175.0420  143.3610 C   0  0  0  0  0  0  0  0  0  0  0  0
  190.9420  173.9460  142.6590 O   0  0  0  0  0  0  0  0  0  0  0  0
  189.6080  173.8750  142.1550 C   0  0  1  0  0  3  0  0  0  0  0  0
  189.5990  173.9730  140.6320 C   0  0  0  0  0  2  0  0  0  0  0  0
  188.6440  172.9590  140.0330 C   0  0  0  0  0  2  0  0  0  0  0  0
  189.1900  172.4200  138.8350 O   0  0  0  0  0  0  0  0  0  0  0  0
  191.4050  170.1410  140.5490 C   0  0  0  0  0  3  0  0  0  0  0  0
  191.7090  168.6910  138.4610 C   0  0  0  0  0  2  0  0  0  0  0  0
  189.8360  171.1860  138.8230 C   0  0  0  0  0  0  0  0  0  0  0  0
  190.2620  168.7890  137.9300 C   0  0  0  0  0  2  0  0  0  0  0  0
  190.5850  170.8200  139.8130 C   0  0  0  0  0  0  0  0  0  0  0  0
  191.8060  168.7940  140.0060 C   0  0  0  0  0  2  0  0  0  0  0  0
  189.7640  170.2360  137.6460 C   0  0  0  0  0  2  0  0  0  0  0  0
  188.9210  172.6010  142.6440 C   0  0  0  0  0  2  0  0  0  0  0  0
  189.8340  171.7740  143.5340 C   0  0  0  0  0  2  0  0  0  0  0  0
  189.4230  171.8680  144.8670 O   0  0  0  0  0  1  0  0  0  0  0  0
  192.4910  176.1520  145.3590 C   0  0  0  0  0  2  0  0  0  0  0  0
  193.5460  175.8620  146.4190 C   0  0  0  0  0  2  0  0  0  0  0  0
  194.9510  175.9430  145.8340 C   0  0  0  0  0  2  0  0  0  0  0  0
  195.8790  174.7750  143.7710 C   0  0  2  0  0  3  0  0  0  0  0  0
  197.6410  170.5880  144.6550 C   0  0  0  0  0  2  0  0  0  0  0  0
  197.1800  169.3510  141.9030 O   0  0  0  0  0  0  0  0  0  0  0  0
  195.4830  171.4220  141.8950 C   0  0  0  0  0  2  0  0  0  0  0  0
  197.6160  172.9020  143.5770 C   0  0  0  0  0  2  0  0  0  0  0  0
  197.5810  172.0990  144.8880 C   0  0  1  0  0  3  0  0  0  0  0  0
  194.8340  168.8870  142.3850 O   0  0  0  0  0  0  0  0  0  0  0  0
  196.5180  172.5010  145.9150 C   0  0  0  0  0  2  0  0  0  0  0  0
  196.4810  174.0010  146.1270 C   0  0  0  0  0  2  0  0  0  0  0  0
  196.2800  173.4670  143.0800 C   0  0  1  0  0  3  0  0  0  0  0  0
  195.4130  174.6180  145.2320 C   0  0  1  0  0  3  0  0  0  0  0  0
  195.1530  172.4430  142.9700 C   0  0  0  0  0  2  0  0  0  0  0  0
  196.2800  169.9580  144.3590 C   0  0  0  0  0  2  0  0  0  0  0  0
  194.8860  175.4110  143.0150 O   0  0  0  0  0  1  0  0  0  0  0  0
  195.9550  169.8590  142.6050 S   0  0  0  0  0  0  0  0  0  0  0  0
  190.6460  174.5640  145.5810 O   0  0  0  0  0  0  0  0  0  0  0  0
  188.8760  176.2620  145.4530 N   0  0  0  0  0  2  0  0  0  0  0  0
  188.1750  177.7280  147.1380 O   0  0  0  0  0  0  0  0  0  0  0  0
  188.0700  177.3390  145.9410 C   0  0  0  0  0  0  0  0  0  0  0  0
  189.8630  175.5400  146.2050 C   0  0  0  0  0  0  0  0  0  0  0  0
  190.0390  175.7800  147.4270 O   0  0  0  0  0  0  0  0  0  0  0  0
  187.1800  177.9660  145.0600 O   0  0  0  0  0  0  0  0  0  0  0  0
  185.3290  176.6930  145.9610 C   0  0  0  0  0  1  0  0  0  0  0  0
  185.8780  176.6340  143.5650 C   0  0  0  0  0  1  0  0  0  0  0  0
  185.8460  177.5240  144.7950 C   0  0  0  0  0  0  0  0  0  0  0  0
  184.0720  178.9750  145.7110 N   0  0  0  0  0  1  0  0  0  0  0  0
  185.6510  179.8800  144.2530 O   0  0  0  0  0  1  0  0  0  0  0  0
  184.9180  178.7270  144.5550 C   0  0  1  0  0  3  0  0  0  0  0  0
  1 19  1  1  0  0  0
  1 37  1  0  0  0  0
  2  3  2  0  0  0  0
  3  1  1  0  0  0  0
  4  3  1  0  0  0  0
  5  6  1  6  0  0  0
  5 16  1  0  0  0  0
  5  4  1  0  0  0  0
  7  6  1  0  0  0  0
  8  7  1  0  0  0  0
 10 14  1  0  0  0  0
 11  8  1  0  0  0  0
 11 13  2  0  0  0  0
 12 10  1  0  0  0  0
 13  9  2  0  0  0  0
 14  9  1  0  0  0  0
 15 12  1  0  0  0  0
 15 11  1  0  0  0  0
 16 17  1  0  0  0  0
 17 18  1  0  0  0  0
 19 20  1  0  0  0  0
 21 20  1  0  0  0  0
 22 35  1  6  0  0  0
 22 32  1  0  0  0  0
 23 27  1  0  0  0  0
 24 36  2  0  0  0  0
 25 36  1  0  0  0  0
 25 33  1  0  0  0  0
 27 26  1  6  0  0  0
 27 29  1  0  0  0  0
 28 36  2  0  0  0  0
 29 30  1  0  0  0  0
 31 33  1  1  0  0  0
 31 26  1  0  0  0  0
 31 22  1  0  0  0  0
 32 21  1  1  0  0  0
 32 30  1  0  0  0  0
 34 23  1  0  0  0  0
 36 34  1  0  0  0  0
 37 41  1  0  0  0  0
 38 40  1  0  0  0  0
 38 41  1  0  0  0  0
 40 39  2  0  0  0  0
 41 42  2  0  0  0  0
 43 40  1  0  0  0  0
 45 46  1  0  0  0  0
 46 43  1  0  0  0  0
 46 44  1  0  0  0  0
 49 48  1  1  0  0  0
 49 46  1  0  0  0  0
 49 47  1  0  0  0  0
M  END
>  <MODEL>
9

>  <REMARK>
 VINA RESULT:      -6.3      3.376      7.564
  Name = 
  18 active torsions:
  status: ('A' for Active; 'I' for Inactive)
    1  A    between atoms: C_4  and  O_42
    2  A    between atoms: C_13  and  O_35
    3  A    between atoms: C_15  and  O_42
    4  A    between atoms: C_15  and  C_49
    5  A    between atoms: C_16  and  O_25
    6  A    between atoms: C_16  and  C_45
    7  A    between atoms: C_16  and  C_48
    8  A    between atoms: C_22  and  C_32
    9  A    between atoms: O_25  and  C_30
   10  A    between atoms: C_28  and  C_36
   11  A    between atoms: C_28  and  C_44
   12  A    between atoms: C_29  and  C_32
   13  A    between atoms: C_29  and  O_39
   14  A    between atoms: C_29  and  C_49
   15  A    between atoms: C_34  and  C_46
   16  A    between atoms: O_35  and  C_46
   17  A    between atoms: O_39  and  C_45
   18  A    between atoms: C_44  and  C_48
                            x       y       z     vdW  Elec       q    Type
                         _______ _______ _______ _____ _____    ______ ____

>  <TORSDO>
F 18

$$$$
