=
 OpenBabel11062421533D

 37 42  0  0  1  0  0  0  0  0999 V2000
  184.3740  178.3430  145.8750 C   0  0  0  0  0  3  0  0  0  0  0  0
  188.5890  175.6010  145.7240 C   0  0  0  0  0  0  0  0  0  0  0  0
  186.3260  177.1060  146.4560 C   0  0  0  0  0  0  0  0  0  0  0  0
  183.8250  178.5870  143.3850 C   0  0  0  0  0  3  0  0  0  0  0  0
  188.2920  175.8410  147.0740 C   0  0  0  0  0  3  0  0  0  0  0  0
  186.6180  176.8770  145.0890 C   0  0  0  0  0  0  0  0  0  0  0  0
  184.5420  178.0010  142.1600 C   0  0  0  0  0  3  0  0  0  0  0  0
  184.6430  178.1290  144.5260 C   0  0  0  0  0  0  0  0  0  0  0  0
  185.2230  177.8280  146.8090 N   0  0  0  0  0  0  0  0  0  0  0  0
  187.7450  176.1260  144.7340 C   0  0  0  0  0  3  0  0  0  0  0  0
  185.8220  177.3080  142.6520 C   0  0  2  0  0  3  0  0  0  0  0  0
  185.7470  177.4190  144.1340 C   0  0  0  0  0  0  0  0  0  0  0  0
  187.1680  176.5860  147.4400 C   0  0  0  0  0  3  0  0  0  0  0  0
  189.7340  173.5300  144.9520 N   0  0  0  0  0  2  0  0  0  0  0  0
  193.3470  174.1370  144.8940 C   0  0  0  0  0  2  0  0  0  0  0  0
  191.8880  174.1920  144.9940 N   0  0  0  0  0  0  0  0  0  0  0  0
  191.6590  176.5850  145.7320 C   0  0  0  0  0  2  0  0  0  0  0  0
  193.3060  176.4590  146.5060 S   0  0  0  0  0  0  0  0  0  0  0  0
  193.9410  175.4870  145.1410 C   0  0  0  0  0  0  0  0  0  0  0  0
  191.0230  173.1950  144.7370 C   0  0  0  0  0  0  0  0  0  0  0  0
  191.1210  175.2200  145.4120 C   0  0  0  0  0  0  0  0  0  0  0  0
  189.7920  174.8130  145.3750 C   0  0  0  0  0  0  0  0  0  0  0  0
  194.7250  176.0500  144.2260 C   0  0  0  0  0  2  0  0  0  0  0  0
  191.3770  172.0550  144.3330 O   0  0  0  0  0  0  0  0  0  0  0  0
  187.2410  179.1840  142.3360 O   0  0  0  0  0  0  0  0  0  0  0  0
  187.0330  178.0020  142.1020 C   0  0  0  0  0  0  0  0  0  0  0  0
  187.9990  177.2250  141.2750 C   0  0  0  0  0  2  0  0  0  0  0  0
  187.5180  175.7990  141.0950 C   0  0  0  0  0  2  0  0  0  0  0  0
  188.5360  174.8480  141.6860 C   0  0  2  0  0  3  0  0  0  0  0  0
  188.8140  173.7330  140.6970 C   0  0  2  0  0  3  0  0  0  0  0  0
  187.8970  173.4870  141.8780 C   0  0  0  0  0  2  0  0  0  0  0  0
  190.1810  173.1310  140.9860 C   0  0  1  0  0  3  0  0  0  0  0  0
  190.1950  171.6810  140.6200 C   0  0  0  0  0  0  0  0  0  0  0  0
  189.8850  171.2960  139.3220 O   0  0  0  0  0  0  0  0  0  0  0  0
  190.5240  170.8100  141.4680 O   0  0  0  0  0  1  0  0  0  0  0  0
  191.1680  173.8190  140.2700 O   0  0  0  0  0  0  0  0  0  0  0  0
  192.1870  174.0460  141.1970 C   0  0  0  0  0  1  0  0  0  0  0  0
  1  9  1  0  0  0  0
  2  5  1  0  0  0  0
  3  9  2  0  0  0  0
  3 13  1  0  0  0  0
  4  8  1  0  0  0  0
  5 13  2  0  0  0  0
  6  3  1  0  0  0  0
  7 11  1  0  0  0  0
  7  4  2  0  0  0  0
  8  1  2  0  0  0  0
 10  6  1  0  0  0  0
 10  2  2  0  0  0  0
 11 26  1  6  0  0  0
 11 12  1  0  0  0  0
 12  8  1  0  0  0  0
 12  6  2  0  0  0  0
 14 22  1  0  0  0  0
 15 16  1  0  0  0  0
 15 19  1  0  0  0  0
 16 21  1  0  0  0  0
 17 18  1  0  0  0  0
 19 18  1  0  0  0  0
 20 14  1  0  0  0  0
 20 16  1  0  0  0  0
 21 17  1  0  0  0  0
 22 21  2  0  0  0  0
 22  2  1  0  0  0  0
 23 19  2  0  0  0  0
 24 20  2  0  0  0  0
 26 25  2  0  0  0  0
 27 26  1  0  0  0  0
 28 27  1  0  0  0  0
 29 28  1  6  0  0  0
 29 31  1  0  0  0  0
 30 32  1  1  0  0  0
 30 29  1  0  0  0  0
 30 31  1  0  0  0  0
 32 36  1  6  0  0  0
 33 32  1  0  0  0  0
 33 35  1  0  0  0  0
 34 33  2  0  0  0  0
 36 37  1  0  0  0  0
M  END
>  <MODEL>
1

>  <REMARK>
 VINA RESULT:      -7.5      0.000      0.000
  Name = 
  8 active torsions:
  status: ('A' for Active; 'I' for Inactive)
    1  A    between atoms: C_1  and  C_8
    2  A    between atoms: C_2  and  C_31
    3  A    between atoms: C_4  and  C_30
    4  A    between atoms: C_8  and  O_10
    5  A    between atoms: C_8  and  C_12
    6  A    between atoms: C_21  and  C_31
    7  A    between atoms: C_21  and  C_36
    8  A    between atoms: C_26  and  C_36
                            x       y       z     vdW  Elec       q    Type
                         _______ _______ _______ _____ _____    ______ ____

>  <TORSDO>
F 8

$$$$
=
 OpenBabel11062421533D

 37 42  0  0  1  0  0  0  0  0999 V2000
  183.6660  178.6670  142.9600 C   0  0  0  0  0  3  0  0  0  0  0  0
  188.2820  176.7460  142.4090 C   0  0  0  0  0  0  0  0  0  0  0  0
  185.6600  177.7110  142.0730 C   0  0  0  0  0  0  0  0  0  0  0  0
  183.6070  179.1610  145.4740 C   0  0  0  0  0  3  0  0  0  0  0  0
  187.6780  176.7580  141.1420 C   0  0  0  0  0  3  0  0  0  0  0  0
  186.2560  177.6990  143.3580 C   0  0  0  0  0  0  0  0  0  0  0  0
  184.7050  178.9890  146.5330 C   0  0  0  0  0  3  0  0  0  0  0  0
  184.2330  178.6630  144.2320 C   0  0  0  0  0  0  0  0  0  0  0  0
  184.3920  178.1890  141.9110 N   0  0  0  0  0  0  0  0  0  0  0  0
  187.5610  177.2180  143.5150 C   0  0  0  0  0  3  0  0  0  0  0  0
  185.8970  178.2880  145.8640 C   0  0  2  0  0  3  0  0  0  0  0  0
  185.4990  178.1800  144.4340 C   0  0  0  0  0  0  0  0  0  0  0  0
  186.3770  177.2380  140.9730 C   0  0  0  0  0  3  0  0  0  0  0  0
  190.7420  177.0230  142.6750 N   0  0  0  0  0  2  0  0  0  0  0  0
  192.2920  173.7060  142.8020 C   0  0  0  0  0  2  0  0  0  0  0  0
  191.4090  174.8720  142.7440 N   0  0  0  0  0  0  0  0  0  0  0  0
  189.2120  173.6630  142.5660 C   0  0  0  0  0  2  0  0  0  0  0  0
  190.0860  172.2830  141.7540 S   0  0  0  0  0  0  0  0  0  0  0  0
  191.4910  172.4440  142.8540 C   0  0  0  0  0  0  0  0  0  0  0  0
  191.7760  176.1640  142.7860 C   0  0  0  0  0  0  0  0  0  0  0  0
  190.0710  174.8950  142.5810 C   0  0  0  0  0  0  0  0  0  0  0  0
  189.6590  176.2220  142.5500 C   0  0  0  0  0  0  0  0  0  0  0  0
  191.6570  171.5870  143.8580 C   0  0  0  0  0  2  0  0  0  0  0  0
  192.9710  176.5440  142.9180 O   0  0  0  0  0  0  0  0  0  0  0  0
  185.2440  176.0900  146.4730 O   0  0  0  0  0  0  0  0  0  0  0  0
  186.1230  176.9400  146.4830 C   0  0  0  0  0  0  0  0  0  0  0  0
  187.4450  176.6380  147.1000 C   0  0  0  0  0  2  0  0  0  0  0  0
  188.2220  175.6620  146.2380 C   0  0  0  0  0  2  0  0  0  0  0  0
  189.4640  175.2170  146.9790 C   0  0  2  0  0  3  0  0  0  0  0  0
  190.6900  175.5700  146.1600 C   0  0  2  0  0  3  0  0  0  0  0  0
  190.1710  174.1460  146.1740 C   0  0  0  0  0  2  0  0  0  0  0  0
  191.8980  175.6750  147.0790 C   0  0  1  0  0  3  0  0  0  0  0  0
  193.1190  175.1590  146.3880 C   0  0  0  0  0  0  0  0  0  0  0  0
  194.1590  176.0290  146.0880 O   0  0  0  0  0  0  0  0  0  0  0  0
  193.2300  173.9360  146.1100 O   0  0  0  0  0  1  0  0  0  0  0  0
  192.0890  177.0060  147.4680 O   0  0  0  0  0  0  0  0  0  0  0  0
  191.6340  177.0610  148.7870 C   0  0  0  0  0  1  0  0  0  0  0  0
  1  8  1  0  0  0  0
  2 22  1  0  0  0  0
  2 10  1  0  0  0  0
  3  6  1  0  0  0  0
  4  7  2  0  0  0  0
  5  2  2  0  0  0  0
  6 10  2  0  0  0  0
  6 12  1  0  0  0  0
  8 12  2  0  0  0  0
  8  4  1  0  0  0  0
  9  3  1  0  0  0  0
  9  1  2  0  0  0  0
 11 26  1  1  0  0  0
 11  7  1  0  0  0  0
 12 11  1  0  0  0  0
 13  5  1  0  0  0  0
 13  3  2  0  0  0  0
 14 20  1  0  0  0  0
 15 19  1  0  0  0  0
 16 20  1  0  0  0  0
 16 15  1  0  0  0  0
 17 21  1  0  0  0  0
 18 17  1  0  0  0  0
 18 19  1  0  0  0  0
 19 23  2  0  0  0  0
 20 24  2  0  0  0  0
 21 16  1  0  0  0  0
 22 21  2  0  0  0  0
 22 14  1  0  0  0  0
 25 26  2  0  0  0  0
 26 27  1  0  0  0  0
 28 27  1  0  0  0  0
 29 28  1  6  0  0  0
 30 31  1  0  0  0  0
 30 29  1  0  0  0  0
 30 32  1  1  0  0  0
 31 29  1  0  0  0  0
 32 33  1  6  0  0  0
 32 36  1  0  0  0  0
 34 33  2  0  0  0  0
 35 33  1  0  0  0  0
 36 37  1  0  0  0  0
M  END
>  <MODEL>
2

>  <REMARK>
 VINA RESULT:      -7.1      2.825      5.094
  Name = 
  8 active torsions:
  status: ('A' for Active; 'I' for Inactive)
    1  A    between atoms: C_1  and  C_8
    2  A    between atoms: C_2  and  C_31
    3  A    between atoms: C_4  and  C_30
    4  A    between atoms: C_8  and  O_10
    5  A    between atoms: C_8  and  C_12
    6  A    between atoms: C_21  and  C_31
    7  A    between atoms: C_21  and  C_36
    8  A    between atoms: C_26  and  C_36
                            x       y       z     vdW  Elec       q    Type
                         _______ _______ _______ _____ _____    ______ ____

>  <TORSDO>
F 8

$$$$
=
 OpenBabel11062421533D

 37 42  0  0  1  0  0  0  0  0999 V2000
  188.8020  175.2530  147.1290 C   0  0  0  0  0  3  0  0  0  0  0  0
  190.0060  173.4480  142.5910 C   0  0  0  0  0  0  0  0  0  0  0  0
  189.6780  173.9430  145.3420 C   0  0  0  0  0  0  0  0  0  0  0  0
  187.4260  177.3250  146.5130 C   0  0  0  0  0  3  0  0  0  0  0  0
  190.5640  172.5860  143.5470 C   0  0  0  0  0  3  0  0  0  0  0  0
  189.1150  174.8250  144.3860 C   0  0  0  0  0  0  0  0  0  0  0  0
  187.0100  177.8520  145.1330 C   0  0  0  0  0  3  0  0  0  0  0  0
  188.2400  176.1320  146.2060 C   0  0  0  0  0  0  0  0  0  0  0  0
  189.5090  174.1800  146.6740 N   0  0  0  0  0  0  0  0  0  0  0  0
  189.2820  174.5690  143.0200 C   0  0  0  0  0  3  0  0  0  0  0  0
  187.7030  176.9850  144.0710 C   0  0  2  0  0  3  0  0  0  0  0  0
  188.3990  175.9320  144.8600 C   0  0  0  0  0  0  0  0  0  0  0  0
  190.4010  172.8290  144.9130 C   0  0  0  0  0  3  0  0  0  0  0  0
  189.2960  172.5030  140.3990 N   0  0  0  0  0  2  0  0  0  0  0  0
  191.9240  173.1550  137.9320 C   0  0  0  0  0  2  0  0  0  0  0  0
  191.0540  173.0600  139.1050 N   0  0  0  0  0  0  0  0  0  0  0  0
  192.5020  174.3070  140.7400 C   0  0  0  0  0  2  0  0  0  0  0  0
  193.9630  173.7670  139.7910 S   0  0  0  0  0  0  0  0  0  0  0  0
  193.1170  174.0070  138.2310 C   0  0  0  0  0  0  0  0  0  0  0  0
  189.8520  172.4620  139.1710 C   0  0  0  0  0  0  0  0  0  0  0  0
  191.2970  173.4960  140.3580 C   0  0  0  0  0  0  0  0  0  0  0  0
  190.2070  173.1610  141.1530 C   0  0  0  0  0  0  0  0  0  0  0  0
  193.3780  175.0760  137.4840 C   0  0  0  0  0  2  0  0  0  0  0  0
  189.2920  171.9150  138.1830 O   0  0  0  0  0  0  0  0  0  0  0  0
  188.3870  178.1930  142.1460 O   0  0  0  0  0  0  0  0  0  0  0  0
  188.6680  177.8120  143.2730 C   0  0  0  0  0  0  0  0  0  0  0  0
  189.9770  178.1840  143.8800 C   0  0  0  0  0  2  0  0  0  0  0  0
  191.1220  177.6360  143.0500 C   0  0  0  0  0  2  0  0  0  0  0  0
  192.3530  177.5030  143.9200 C   0  0  2  0  0  3  0  0  0  0  0  0
  192.7540  176.0430  144.0010 C   0  0  2  0  0  3  0  0  0  0  0  0
  192.0100  176.6900  145.1510 C   0  0  0  0  0  2  0  0  0  0  0  0
  194.2320  175.9440  144.3480 C   0  0  1  0  0  3  0  0  0  0  0  0
  194.4310  175.0010  145.4920 C   0  0  0  0  0  0  0  0  0  0  0  0
  193.9940  173.6880  145.3850 O   0  0  0  0  0  0  0  0  0  0  0  0
  195.0270  175.3780  146.5360 O   0  0  0  0  0  1  0  0  0  0  0  0
  194.9570  175.5100  143.2330 O   0  0  0  0  0  0  0  0  0  0  0  0
  196.1640  176.2100  143.2980 C   0  0  0  0  0  1  0  0  0  0  0  0
  2 10  2  0  0  0  0
  2  5  1  0  0  0  0
  3  9  2  0  0  0  0
  5 13  2  0  0  0  0
  6 12  2  0  0  0  0
  6  3  1  0  0  0  0
  7  4  2  0  0  0  0
  8  4  1  0  0  0  0
  8  1  2  0  0  0  0
  9  1  1  0  0  0  0
 10  6  1  0  0  0  0
 11 26  1  1  0  0  0
 11 12  1  0  0  0  0
 11  7  1  0  0  0  0
 12  8  1  0  0  0  0
 13  3  1  0  0  0  0
 14 22  1  0  0  0  0
 15 19  1  0  0  0  0
 15 16  1  0  0  0  0
 16 20  1  0  0  0  0
 16 21  1  0  0  0  0
 18 17  1  0  0  0  0
 19 18  1  0  0  0  0
 20 14  1  0  0  0  0
 21 17  1  0  0  0  0
 21 22  2  0  0  0  0
 22  2  1  0  0  0  0
 23 19  2  0  0  0  0
 24 20  2  0  0  0  0
 25 26  2  0  0  0  0
 26 27  1  0  0  0  0
 28 27  1  0  0  0  0
 29 28  1  6  0  0  0
 29 30  1  0  0  0  0
 29 31  1  0  0  0  0
 30 32  1  1  0  0  0
 30 31  1  0  0  0  0
 32 36  1  6  0  0  0
 32 33  1  0  0  0  0
 33 35  1  0  0  0  0
 34 33  2  0  0  0  0
 36 37  1  0  0  0  0
M  END
>  <MODEL>
3

>  <REMARK>
 VINA RESULT:      -7.1      2.729      5.379
  Name = 
  8 active torsions:
  status: ('A' for Active; 'I' for Inactive)
    1  A    between atoms: C_1  and  C_8
    2  A    between atoms: C_2  and  C_31
    3  A    between atoms: C_4  and  C_30
    4  A    between atoms: C_8  and  O_10
    5  A    between atoms: C_8  and  C_12
    6  A    between atoms: C_21  and  C_31
    7  A    between atoms: C_21  and  C_36
    8  A    between atoms: C_26  and  C_36
                            x       y       z     vdW  Elec       q    Type
                         _______ _______ _______ _____ _____    ______ ____

>  <TORSDO>
F 8

$$$$
=
 OpenBabel11062421533D

 37 42  0  0  1  0  0  0  0  0999 V2000
  193.8090  175.0400  142.4010 C   0  0  0  0  0  3  0  0  0  0  0  0
  189.2710  177.1710  142.8170 C   0  0  0  0  0  0  0  0  0  0  0  0
  192.0220  176.5750  142.7560 C   0  0  0  0  0  0  0  0  0  0  0  0
  193.1970  172.6450  141.7300 C   0  0  0  0  0  3  0  0  0  0  0  0
  190.2270  178.1570  143.1060 C   0  0  0  0  0  3  0  0  0  0  0  0
  191.0670  175.5680  142.4680 C   0  0  0  0  0  0  0  0  0  0  0  0
  191.8200  172.0240  141.4560 C   0  0  0  0  0  3  0  0  0  0  0  0
  192.8880  174.0370  142.1140 C   0  0  0  0  0  0  0  0  0  0  0  0
  193.3540  176.2860  142.7170 N   0  0  0  0  0  0  0  0  0  0  0  0
  189.7020  175.8740  142.4990 C   0  0  0  0  0  3  0  0  0  0  0  0
  190.7540  173.0750  141.8030 C   0  0  2  0  0  3  0  0  0  0  0  0
  191.5420  174.2870  142.1560 C   0  0  0  0  0  0  0  0  0  0  0  0
  191.5920  177.8640  143.0750 C   0  0  0  0  0  3  0  0  0  0  0  0
  187.0730  177.6660  141.7590 N   0  0  0  0  0  2  0  0  0  0  0  0
  184.6230  178.3360  144.3990 C   0  0  0  0  0  2  0  0  0  0  0  0
  185.7900  178.0070  143.5800 N   0  0  0  0  0  0  0  0  0  0  0  0
  187.4380  177.5970  145.4350 C   0  0  0  0  0  2  0  0  0  0  0  0
  186.4960  178.7650  146.4720 S   0  0  0  0  0  0  0  0  0  0  0  0
  184.9320  178.1520  145.8510 C   0  0  0  0  0  0  0  0  0  0  0  0
  185.8480  177.9640  142.2380 C   0  0  0  0  0  0  0  0  0  0  0  0
  187.0460  177.7400  143.9920 C   0  0  0  0  0  0  0  0  0  0  0  0
  187.8340  177.5180  142.8680 C   0  0  0  0  0  0  0  0  0  0  0  0
  184.1910  177.3340  146.5930 C   0  0  0  0  0  2  0  0  0  0  0  0
  184.8550  178.1800  141.4920 O   0  0  0  0  0  0  0  0  0  0  0  0
  188.7200  172.3790  142.8070 O   0  0  0  0  0  0  0  0  0  0  0  0
  189.9130  172.6020  142.9520 C   0  0  0  0  0  0  0  0  0  0  0  0
  190.5550  172.3880  144.2790 C   0  0  0  0  0  2  0  0  0  0  0  0
  189.6110  172.7880  145.3970 C   0  0  0  0  0  2  0  0  0  0  0  0
  189.6510  174.2910  145.5730 C   0  0  2  0  0  3  0  0  0  0  0  0
  190.6930  174.6460  146.6150 C   0  0  2  0  0  3  0  0  0  0  0  0
  189.2230  174.6410  146.9830 C   0  0  0  0  0  2  0  0  0  0  0  0
  191.1540  176.0800  146.4000 C   0  0  1  0  0  3  0  0  0  0  0  0
  190.8690  176.9020  147.6160 C   0  0  0  0  0  0  0  0  0  0  0  0
  189.9310  177.9240  147.5500 O   0  0  0  0  0  0  0  0  0  0  0  0
  191.4420  176.6510  148.7080 O   0  0  0  0  0  1  0  0  0  0  0  0
  192.5230  176.1040  146.1110 O   0  0  0  0  0  0  0  0  0  0  0  0
  192.9110  174.7630  146.1120 C   0  0  0  0  0  1  0  0  0  0  0  0
  1  9  1  0  0  0  0
  2 22  1  0  0  0  0
  2  5  1  0  0  0  0
  3 13  1  0  0  0  0
  4  8  1  0  0  0  0
  6 10  1  0  0  0  0
  6  3  1  0  0  0  0
  7  4  2  0  0  0  0
  7 11  1  0  0  0  0
  8 12  1  0  0  0  0
  8  1  2  0  0  0  0
  9  3  2  0  0  0  0
 10  2  2  0  0  0  0
 11 12  1  0  0  0  0
 11 26  1  1  0  0  0
 12  6  2  0  0  0  0
 13  5  2  0  0  0  0
 14 20  1  0  0  0  0
 14 22  1  0  0  0  0
 15 19  1  0  0  0  0
 16 21  1  0  0  0  0
 16 15  1  0  0  0  0
 17 18  1  0  0  0  0
 19 18  1  0  0  0  0
 19 23  2  0  0  0  0
 20 16  1  0  0  0  0
 21 17  1  0  0  0  0
 22 21  2  0  0  0  0
 24 20  2  0  0  0  0
 25 26  2  0  0  0  0
 26 27  1  0  0  0  0
 27 28  1  0  0  0  0
 29 28  1  1  0  0  0
 29 30  1  0  0  0  0
 29 31  1  0  0  0  0
 30 32  1  6  0  0  0
 30 31  1  0  0  0  0
 32 36  1  1  0  0  0
 32 33  1  0  0  0  0
 33 35  1  0  0  0  0
 34 33  2  0  0  0  0
 36 37  1  0  0  0  0
M  END
>  <MODEL>
4

>  <REMARK>
 VINA RESULT:      -7.0      2.832      7.395
  Name = 
  8 active torsions:
  status: ('A' for Active; 'I' for Inactive)
    1  A    between atoms: C_1  and  C_8
    2  A    between atoms: C_2  and  C_31
    3  A    between atoms: C_4  and  C_30
    4  A    between atoms: C_8  and  O_10
    5  A    between atoms: C_8  and  C_12
    6  A    between atoms: C_21  and  C_31
    7  A    between atoms: C_21  and  C_36
    8  A    between atoms: C_26  and  C_36
                            x       y       z     vdW  Elec       q    Type
                         _______ _______ _______ _____ _____    ______ ____

>  <TORSDO>
F 8

$$$$
=
 OpenBabel11062421533D

 37 42  0  0  1  0  0  0  0  0999 V2000
  186.7120  177.9380  146.8200 C   0  0  0  0  0  3  0  0  0  0  0  0
  189.4100  174.1950  144.8160 C   0  0  0  0  0  0  0  0  0  0  0  0
  188.1390  176.0560  146.5010 C   0  0  0  0  0  0  0  0  0  0  0  0
  185.6840  179.0100  144.7320 C   0  0  0  0  0  3  0  0  0  0  0  0
  189.5770  174.1340  146.2080 C   0  0  0  0  0  3  0  0  0  0  0  0
  187.9680  176.1320  145.0970 C   0  0  0  0  0  0  0  0  0  0  0  0
  185.7940  178.5920  143.2590 C   0  0  0  0  0  3  0  0  0  0  0  0
  186.5310  178.0300  145.4430 C   0  0  0  0  0  0  0  0  0  0  0  0
  187.5140  176.9540  147.3170 N   0  0  0  0  0  0  0  0  0  0  0  0
  188.6030  175.2010  144.2670 C   0  0  0  0  0  3  0  0  0  0  0  0
  186.8020  177.4360  143.1730 C   0  0  2  0  0  3  0  0  0  0  0  0
  187.1520  177.1540  144.5920 C   0  0  0  0  0  0  0  0  0  0  0  0
  188.9460  175.0560  147.0460 C   0  0  0  0  0  3  0  0  0  0  0  0
  190.9560  172.2770  144.4500 N   0  0  0  0  0  2  0  0  0  0  0  0
  191.0330  171.4970  140.8710 C   0  0  0  0  0  2  0  0  0  0  0  0
  190.7880  172.0140  142.2190 N   0  0  0  0  0  0  0  0  0  0  0  0
  189.1110  173.7930  141.6310 C   0  0  0  0  0  2  0  0  0  0  0  0
  189.8950  173.9290  139.9900 S   0  0  0  0  0  0  0  0  0  0  0  0
  190.1240  172.1560  139.8830 C   0  0  0  0  0  0  0  0  0  0  0  0
  191.3480  171.5840  143.3620 C   0  0  0  0  0  0  0  0  0  0  0  0
  190.0060  173.0510  142.5820 C   0  0  0  0  0  0  0  0  0  0  0  0
  190.1020  173.2050  143.9600 C   0  0  0  0  0  0  0  0  0  0  0  0
  189.3160  171.4200  139.1250 C   0  0  0  0  0  2  0  0  0  0  0  0
  192.1620  170.6230  143.4190 O   0  0  0  0  0  0  0  0  0  0  0  0
  187.9760  177.8440  141.1520 O   0  0  0  0  0  0  0  0  0  0  0  0
  188.0030  177.8500  142.3750 C   0  0  0  0  0  0  0  0  0  0  0  0
  189.2320  178.2910  143.0910 C   0  0  0  0  0  2  0  0  0  0  0  0
  190.4190  177.4410  142.6820 C   0  0  0  0  0  2  0  0  0  0  0  0
  191.6080  177.7880  143.5520 C   0  0  2  0  0  3  0  0  0  0  0  0
  192.1300  176.5280  144.2130 C   0  0  2  0  0  3  0  0  0  0  0  0
  191.2710  177.4970  144.9990 C   0  0  0  0  0  2  0  0  0  0  0  0
  193.5900  176.7250  144.5940 C   0  0  1  0  0  3  0  0  0  0  0  0
  193.7920  176.4160  146.0420 C   0  0  0  0  0  0  0  0  0  0  0  0
  194.3110  177.3880  146.8880 O   0  0  0  0  0  1  0  0  0  0  0  0
  193.4600  175.2950  146.5110 O   0  0  0  0  0  0  0  0  0  0  0  0
  194.4050  175.9040  143.8060 O   0  0  0  0  0  0  0  0  0  0  0  0
  195.6930  176.4170  143.9710 C   0  0  0  0  0  1  0  0  0  0  0  0
  1  9  1  0  0  0  0
  2  5  1  0  0  0  0
  3 13  1  0  0  0  0
  3  9  2  0  0  0  0
  4  8  1  0  0  0  0
  5 13  2  0  0  0  0
  6  3  1  0  0  0  0
  7  4  2  0  0  0  0
  8  1  2  0  0  0  0
 10  2  2  0  0  0  0
 10  6  1  0  0  0  0
 11 26  1  6  0  0  0
 11  7  1  0  0  0  0
 11 12  1  0  0  0  0
 12  6  2  0  0  0  0
 12  8  1  0  0  0  0
 15 16  1  0  0  0  0
 16 21  1  0  0  0  0
 16 20  1  0  0  0  0
 17 21  1  0  0  0  0
 18 17  1  0  0  0  0
 19 18  1  0  0  0  0
 19 15  1  0  0  0  0
 20 24  2  0  0  0  0
 20 14  1  0  0  0  0
 21 22  2  0  0  0  0
 22 14  1  0  0  0  0
 22  2  1  0  0  0  0
 23 19  2  0  0  0  0
 25 26  2  0  0  0  0
 26 27  1  0  0  0  0
 28 27  1  0  0  0  0
 29 28  1  6  0  0  0
 29 30  1  0  0  0  0
 29 31  1  0  0  0  0
 30 32  1  1  0  0  0
 30 31  1  0  0  0  0
 32 36  1  6  0  0  0
 32 33  1  0  0  0  0
 33 35  2  0  0  0  0
 33 34  1  0  0  0  0
 36 37  1  0  0  0  0
M  END
>  <MODEL>
5

>  <REMARK>
 VINA RESULT:      -6.8      2.511      4.603
  Name = 
  8 active torsions:
  status: ('A' for Active; 'I' for Inactive)
    1  A    between atoms: C_1  and  C_8
    2  A    between atoms: C_2  and  C_31
    3  A    between atoms: C_4  and  C_30
    4  A    between atoms: C_8  and  O_10
    5  A    between atoms: C_8  and  C_12
    6  A    between atoms: C_21  and  C_31
    7  A    between atoms: C_21  and  C_36
    8  A    between atoms: C_26  and  C_36
                            x       y       z     vdW  Elec       q    Type
                         _______ _______ _______ _____ _____    ______ ____

>  <TORSDO>
F 8

$$$$
=
 OpenBabel11062421533D

 37 42  0  0  1  0  0  0  0  0999 V2000
  185.0170  179.6060  144.7600 C   0  0  0  0  0  3  0  0  0  0  0  0
  188.6770  176.8320  142.7070 C   0  0  0  0  0  0  0  0  0  0  0  0
  186.4490  178.4690  143.2320 C   0  0  0  0  0  0  0  0  0  0  0  0
  185.5430  179.3900  147.2580 C   0  0  0  0  0  3  0  0  0  0  0  0
  187.8960  177.3410  141.6570 C   0  0  0  0  0  3  0  0  0  0  0  0
  187.2250  177.9570  144.3010 C   0  0  0  0  0  0  0  0  0  0  0  0
  186.7030  178.6680  147.9580 C   0  0  0  0  0  3  0  0  0  0  0  0
  185.7670  179.1130  145.8250 C   0  0  0  0  0  0  0  0  0  0  0  0
  185.3750  179.2700  143.4880 N   0  0  0  0  0  0  0  0  0  0  0  0
  188.3330  177.1460  144.0300 C   0  0  0  0  0  3  0  0  0  0  0  0
  187.4970  177.9060  146.8850 C   0  0  2  0  0  3  0  0  0  0  0  0
  186.8450  178.2960  145.6060 C   0  0  0  0  0  0  0  0  0  0  0  0
  186.7910  178.1540  141.9160 C   0  0  0  0  0  3  0  0  0  0  0  0
  191.1180  176.3560  142.5840 N   0  0  0  0  0  2  0  0  0  0  0  0
  191.5900  172.9760  141.2520 C   0  0  0  0  0  2  0  0  0  0  0  0
  191.1020  174.2540  141.7720 N   0  0  0  0  0  0  0  0  0  0  0  0
  188.6340  173.8040  141.6010 C   0  0  0  0  0  2  0  0  0  0  0  0
  188.9790  172.6760  140.2100 S   0  0  0  0  0  0  0  0  0  0  0  0
  190.4500  172.0380  141.0110 C   0  0  0  0  0  0  0  0  0  0  0  0
  191.8470  175.2910  142.1910 C   0  0  0  0  0  0  0  0  0  0  0  0
  189.8250  174.6740  141.8820 C   0  0  0  0  0  0  0  0  0  0  0  0
  189.8360  175.9670  142.3940 C   0  0  0  0  0  0  0  0  0  0  0  0
  190.4270  170.8470  141.6030 C   0  0  0  0  0  2  0  0  0  0  0  0
  193.1070  175.2770  142.2190 O   0  0  0  0  0  0  0  0  0  0  0  0
  186.4420  175.9390  147.6910 O   0  0  0  0  0  0  0  0  0  0  0  0
  187.4110  176.4270  147.1260 C   0  0  0  0  0  0  0  0  0  0  0  0
  188.5160  175.5500  146.6510 C   0  0  0  0  0  2  0  0  0  0  0  0
  189.8550  176.0750  147.1310 C   0  0  0  0  0  2  0  0  0  0  0  0
  190.8900  175.8810  146.0440 C   0  0  2  0  0  3  0  0  0  0  0  0
  192.2770  176.0060  146.6430 C   0  0  2  0  0  3  0  0  0  0  0  0
  191.6770  177.1620  145.8680 C   0  0  0  0  0  2  0  0  0  0  0  0
  193.2760  175.2720  145.7610 C   0  0  1  0  0  3  0  0  0  0  0  0
  194.6310  175.8890  145.8920 C   0  0  0  0  0  0  0  0  0  0  0  0
  195.7520  175.1840  145.4720 O   0  0  0  0  0  0  0  0  0  0  0  0
  194.7630  177.0570  146.3450 O   0  0  0  0  0  1  0  0  0  0  0  0
  193.3240  173.9200  146.1160 O   0  0  0  0  0  0  0  0  0  0  0  0
  192.7210  173.2490  145.0500 C   0  0  0  0  0  1  0  0  0  0  0  0
  1  8  1  0  0  0  0
  2 10  1  0  0  0  0
  3  9  1  0  0  0  0
  3  6  1  0  0  0  0
  4  7  2  0  0  0  0
  5 13  1  0  0  0  0
  5  2  2  0  0  0  0
  6 12  1  0  0  0  0
  8  4  1  0  0  0  0
  9  1  2  0  0  0  0
 10  6  2  0  0  0  0
 11 26  1  1  0  0  0
 11  7  1  0  0  0  0
 12  8  2  0  0  0  0
 12 11  1  0  0  0  0
 13  3  2  0  0  0  0
 15 16  1  0  0  0  0
 16 21  1  0  0  0  0
 16 20  1  0  0  0  0
 17 21  1  0  0  0  0
 18 19  1  0  0  0  0
 18 17  1  0  0  0  0
 19 15  1  0  0  0  0
 19 23  2  0  0  0  0
 20 24  2  0  0  0  0
 20 14  1  0  0  0  0
 21 22  2  0  0  0  0
 22 14  1  0  0  0  0
 22  2  1  0  0  0  0
 26 25  2  0  0  0  0
 27 26  1  0  0  0  0
 27 28  1  0  0  0  0
 29 30  1  0  0  0  0
 29 28  1  1  0  0  0
 30 32  1  6  0  0  0
 31 29  1  0  0  0  0
 31 30  1  0  0  0  0
 32 33  1  1  0  0  0
 32 36  1  0  0  0  0
 33 35  1  0  0  0  0
 34 33  2  0  0  0  0
 37 36  1  0  0  0  0
M  END
>  <MODEL>
6

>  <REMARK>
 VINA RESULT:      -6.8      2.786      5.406
  Name = 
  8 active torsions:
  status: ('A' for Active; 'I' for Inactive)
    1  A    between atoms: C_1  and  C_8
    2  A    between atoms: C_2  and  C_31
    3  A    between atoms: C_4  and  C_30
    4  A    between atoms: C_8  and  O_10
    5  A    between atoms: C_8  and  C_12
    6  A    between atoms: C_21  and  C_31
    7  A    between atoms: C_21  and  C_36
    8  A    between atoms: C_26  and  C_36
                            x       y       z     vdW  Elec       q    Type
                         _______ _______ _______ _____ _____    ______ ____

>  <TORSDO>
F 8

$$$$
=
 OpenBabel11062421533D

 37 42  0  0  1  0  0  0  0  0999 V2000
  187.1430  177.5720  146.9310 C   0  0  0  0  0  3  0  0  0  0  0  0
  189.6730  173.9590  144.5130 C   0  0  0  0  0  0  0  0  0  0  0  0
  188.5140  175.6980  146.3980 C   0  0  0  0  0  0  0  0  0  0  0  0
  186.0490  178.8290  144.9850 C   0  0  0  0  0  3  0  0  0  0  0  0
  189.8970  173.7810  145.8870 C   0  0  0  0  0  3  0  0  0  0  0  0
  188.2850  175.8920  145.0140 C   0  0  0  0  0  0  0  0  0  0  0  0
  186.0880  178.5320  143.4790 C   0  0  0  0  0  3  0  0  0  0  0  0
  186.9040  177.7800  145.5750 C   0  0  0  0  0  0  0  0  0  0  0  0
  187.9440  176.5370  147.3110 N   0  0  0  0  0  0  0  0  0  0  0  0
  188.8640  175.0210  144.0840 C   0  0  0  0  0  3  0  0  0  0  0  0
  187.0660  177.3690  143.2550 C   0  0  2  0  0  3  0  0  0  0  0  0
  187.4710  176.9660  144.6300 C   0  0  0  0  0  0  0  0  0  0  0  0
  189.3220  174.6430  146.8250 C   0  0  0  0  0  3  0  0  0  0  0  0
  189.6560  172.5280  142.4760 N   0  0  0  0  0  2  0  0  0  0  0  0
  192.9520  170.9730  142.1040 C   0  0  0  0  0  2  0  0  0  0  0  0
  191.7670  171.7390  142.4910 N   0  0  0  0  0  0  0  0  0  0  0  0
  192.7140  172.8890  144.5170 C   0  0  0  0  0  2  0  0  0  0  0  0
  193.8390  171.4700  144.7420 S   0  0  0  0  0  0  0  0  0  0  0  0
  194.1140  171.3280  142.9770 C   0  0  0  0  0  0  0  0  0  0  0  0
  190.5760  171.7510  141.8680 C   0  0  0  0  0  0  0  0  0  0  0  0
  191.6060  172.5360  143.5670 C   0  0  0  0  0  0  0  0  0  0  0  0
  190.3070  173.0300  143.5500 C   0  0  0  0  0  0  0  0  0  0  0  0
  195.2430  171.7770  142.4370 C   0  0  0  0  0  2  0  0  0  0  0  0
  190.3350  171.1010  140.8150 O   0  0  0  0  0  0  0  0  0  0  0  0
  188.1900  177.8390  141.2190 O   0  0  0  0  0  0  0  0  0  0  0  0
  188.2410  177.8260  142.4410 C   0  0  0  0  0  0  0  0  0  0  0  0
  189.4720  178.2860  143.1410 C   0  0  0  0  0  2  0  0  0  0  0  0
  190.6600  177.4290  142.7450 C   0  0  0  0  0  2  0  0  0  0  0  0
  191.8490  177.7900  143.6080 C   0  0  2  0  0  3  0  0  0  0  0  0
  192.4730  176.5230  144.1570 C   0  0  2  0  0  3  0  0  0  0  0  0
  191.5760  177.3690  145.0380 C   0  0  0  0  0  2  0  0  0  0  0  0
  193.9280  176.7900  144.5150 C   0  0  1  0  0  3  0  0  0  0  0  0
  194.1480  176.5730  145.9780 C   0  0  0  0  0  0  0  0  0  0  0  0
  193.9460  175.3130  146.5240 O   0  0  0  0  0  0  0  0  0  0  0  0
  194.5520  177.5140  146.7110 O   0  0  0  0  0  1  0  0  0  0  0  0
  194.7650  175.9510  143.7710 O   0  0  0  0  0  0  0  0  0  0  0  0
  196.0370  176.5120  143.9000 C   0  0  0  0  0  1  0  0  0  0  0  0
  1  9  1  0  0  0  0
  2  5  1  0  0  0  0
  3 13  1  0  0  0  0
  3  9  2  0  0  0  0
  4  8  1  0  0  0  0
  5 13  2  0  0  0  0
  6  3  1  0  0  0  0
  7  4  2  0  0  0  0
  8  1  2  0  0  0  0
 10  2  2  0  0  0  0
 10  6  1  0  0  0  0
 11 26  1  6  0  0  0
 11  7  1  0  0  0  0
 11 12  1  0  0  0  0
 12  6  2  0  0  0  0
 12  8  1  0  0  0  0
 14 22  1  0  0  0  0
 15 16  1  0  0  0  0
 15 19  1  0  0  0  0
 16 21  1  0  0  0  0
 17 18  1  0  0  0  0
 19 18  1  0  0  0  0
 20 14  1  0  0  0  0
 20 16  1  0  0  0  0
 21 17  1  0  0  0  0
 22 21  2  0  0  0  0
 22  2  1  0  0  0  0
 23 19  2  0  0  0  0
 24 20  2  0  0  0  0
 25 26  2  0  0  0  0
 26 27  1  0  0  0  0
 28 27  1  0  0  0  0
 29 28  1  6  0  0  0
 29 30  1  0  0  0  0
 29 31  1  0  0  0  0
 30 32  1  1  0  0  0
 30 31  1  0  0  0  0
 32 36  1  6  0  0  0
 32 33  1  0  0  0  0
 33 34  2  0  0  0  0
 33 35  1  0  0  0  0
 36 37  1  0  0  0  0
M  END
>  <MODEL>
7

>  <REMARK>
 VINA RESULT:      -6.8      2.613      4.375
  Name = 
  8 active torsions:
  status: ('A' for Active; 'I' for Inactive)
    1  A    between atoms: C_1  and  C_8
    2  A    between atoms: C_2  and  C_31
    3  A    between atoms: C_4  and  C_30
    4  A    between atoms: C_8  and  O_10
    5  A    between atoms: C_8  and  C_12
    6  A    between atoms: C_21  and  C_31
    7  A    between atoms: C_21  and  C_36
    8  A    between atoms: C_26  and  C_36
                            x       y       z     vdW  Elec       q    Type
                         _______ _______ _______ _____ _____    ______ ____

>  <TORSDO>
F 8

$$$$
=
 OpenBabel11062421533D

 37 42  0  0  1  0  0  0  0  0999 V2000
  185.3740  178.6670  141.6770 C   0  0  0  0  0  3  0  0  0  0  0  0
  188.7880  174.9980  142.1130 C   0  0  0  0  0  0  0  0  0  0  0  0
  186.8450  176.8420  141.2490 C   0  0  0  0  0  0  0  0  0  0  0  0
  185.3410  179.6280  144.0510 C   0  0  0  0  0  3  0  0  0  0  0  0
  188.3410  175.0000  140.7830 C   0  0  0  0  0  3  0  0  0  0  0  0
  187.2830  176.8460  142.5970 C   0  0  0  0  0  0  0  0  0  0  0  0
  186.1820  179.2450  145.2770 C   0  0  0  0  0  3  0  0  0  0  0  0
  185.7910  178.6880  143.0050 C   0  0  0  0  0  0  0  0  0  0  0  0
  185.9100  177.7420  140.8300 N   0  0  0  0  0  0  0  0  0  0  0  0
  188.2510  175.9260  143.0170 C   0  0  0  0  0  3  0  0  0  0  0  0
  187.0180  178.0110  144.9060 C   0  0  2  0  0  3  0  0  0  0  0  0
  186.7190  177.7910  143.4640 C   0  0  0  0  0  0  0  0  0  0  0  0
  187.3780  175.9150  140.3520 C   0  0  0  0  0  3  0  0  0  0  0  0
  189.6890  173.2690  143.6630 N   0  0  0  0  0  2  0  0  0  0  0  0
  192.8870  172.0620  142.3440 C   0  0  0  0  0  2  0  0  0  0  0  0
  191.6000  172.7080  142.6100 N   0  0  0  0  0  0  0  0  0  0  0  0
  191.4880  174.1640  140.5620 C   0  0  0  0  0  2  0  0  0  0  0  0
  193.3120  174.1940  140.5370 S   0  0  0  0  0  0  0  0  0  0  0  0
  193.4090  172.4670  141.0020 C   0  0  0  0  0  0  0  0  0  0  0  0
  190.7980  172.5020  143.6680 C   0  0  0  0  0  0  0  0  0  0  0  0
  190.9880  173.6700  141.8900 C   0  0  0  0  0  0  0  0  0  0  0  0
  189.8040  174.0080  142.5350 C   0  0  0  0  0  0  0  0  0  0  0  0
  193.6930  171.5420  140.0890 C   0  0  0  0  0  2  0  0  0  0  0  0
  191.0510  171.6710  144.5820 O   0  0  0  0  0  0  0  0  0  0  0  0
  185.4470  176.4600  145.7770 O   0  0  0  0  0  0  0  0  0  0  0  0
  186.6110  176.8350  145.7450 C   0  0  0  0  0  0  0  0  0  0  0  0
  187.6490  176.1120  146.5310 C   0  0  0  0  0  2  0  0  0  0  0  0
  188.9240  176.9290  146.6050 C   0  0  0  0  0  2  0  0  0  0  0  0
  189.9370  176.3660  145.6310 C   0  0  2  0  0  3  0  0  0  0  0  0
  191.3330  176.7530  146.0800 C   0  0  2  0  0  3  0  0  0  0  0  0
  190.6630  177.5070  144.9490 C   0  0  0  0  0  2  0  0  0  0  0  0
  192.3400  175.7690  145.5030 C   0  0  1  0  0  3  0  0  0  0  0  0
  193.4300  176.5040  144.7910 C   0  0  0  0  0  0  0  0  0  0  0  0
  193.5870  176.3430  143.4210 O   0  0  0  0  0  0  0  0  0  0  0  0
  194.1830  177.2970  145.4170 O   0  0  0  0  0  1  0  0  0  0  0  0
  192.8770  174.9800  146.5270 O   0  0  0  0  0  0  0  0  0  0  0  0
  193.4450  173.8860  145.8720 C   0  0  0  0  0  1  0  0  0  0  0  0
  1  8  1  0  0  0  0
  2 22  1  0  0  0  0
  2 10  1  0  0  0  0
  3  6  1  0  0  0  0
  4  7  2  0  0  0  0
  5  2  2  0  0  0  0
  6 10  2  0  0  0  0
  6 12  1  0  0  0  0
  8 12  2  0  0  0  0
  8  4  1  0  0  0  0
  9  3  1  0  0  0  0
  9  1  2  0  0  0  0
 11  7  1  0  0  0  0
 11 26  1  1  0  0  0
 12 11  1  0  0  0  0
 13  5  1  0  0  0  0
 13  3  2  0  0  0  0
 14 20  1  0  0  0  0
 15 16  1  0  0  0  0
 16 20  1  0  0  0  0
 17 21  1  0  0  0  0
 18 17  1  0  0  0  0
 18 19  1  0  0  0  0
 19 15  1  0  0  0  0
 20 24  2  0  0  0  0
 21 22  2  0  0  0  0
 21 16  1  0  0  0  0
 22 14  1  0  0  0  0
 23 19  2  0  0  0  0
 26 25  2  0  0  0  0
 26 27  1  0  0  0  0
 27 28  1  0  0  0  0
 29 30  1  0  0  0  0
 29 28  1  1  0  0  0
 30 32  1  6  0  0  0
 31 29  1  0  0  0  0
 31 30  1  0  0  0  0
 32 33  1  1  0  0  0
 32 36  1  0  0  0  0
 33 35  1  0  0  0  0
 34 33  2  0  0  0  0
 37 36  1  0  0  0  0
M  END
>  <MODEL>
8

>  <REMARK>
 VINA RESULT:      -6.8      2.567      4.894
  Name = 
  8 active torsions:
  status: ('A' for Active; 'I' for Inactive)
    1  A    between atoms: C_1  and  C_8
    2  A    between atoms: C_2  and  C_31
    3  A    between atoms: C_4  and  C_30
    4  A    between atoms: C_8  and  O_10
    5  A    between atoms: C_8  and  C_12
    6  A    between atoms: C_21  and  C_31
    7  A    between atoms: C_21  and  C_36
    8  A    between atoms: C_26  and  C_36
                            x       y       z     vdW  Elec       q    Type
                         _______ _______ _______ _____ _____    ______ ____

>  <TORSDO>
F 8

$$$$
=
 OpenBabel11062421533D

 37 42  0  0  1  0  0  0  0  0999 V2000
  185.7750  178.5680  147.1560 C   0  0  0  0  0  3  0  0  0  0  0  0
  190.0490  176.7490  145.2260 C   0  0  0  0  0  0  0  0  0  0  0  0
  188.0160  177.8200  146.8520 C   0  0  0  0  0  0  0  0  0  0  0  0
  184.2050  178.4570  145.1350 C   0  0  0  0  0  3  0  0  0  0  0  0
  190.2920  177.0500  146.5750 C   0  0  0  0  0  3  0  0  0  0  0  0
  187.7600  177.5260  145.4900 C   0  0  0  0  0  0  0  0  0  0  0  0
  184.4620  177.9160  143.7210 C   0  0  0  0  0  3  0  0  0  0  0  0
  185.5020  178.2860  145.8200 C   0  0  0  0  0  0  0  0  0  0  0  0
  187.0270  178.3300  147.6400 N   0  0  0  0  0  0  0  0  0  0  0  0
  188.7770  176.9920  144.6900 C   0  0  0  0  0  3  0  0  0  0  0  0
  185.9520  177.5500  143.6220 C   0  0  2  0  0  3  0  0  0  0  0  0
  186.4740  177.7850  144.9960 C   0  0  0  0  0  0  0  0  0  0  0  0
  189.2840  177.5800  147.3840 C   0  0  0  0  0  3  0  0  0  0  0  0
  191.8740  176.9490  143.5440 N   0  0  0  0  0  2  0  0  0  0  0  0
  193.4060  173.6530  143.0760 C   0  0  0  0  0  2  0  0  0  0  0  0
  192.6290  174.8260  143.4800 N   0  0  0  0  0  0  0  0  0  0  0  0
  191.1560  173.7210  145.1920 C   0  0  0  0  0  2  0  0  0  0  0  0
  191.3200  172.1600  144.2630 S   0  0  0  0  0  0  0  0  0  0  0  0
  193.0510  172.4720  143.9220 C   0  0  0  0  0  0  0  0  0  0  0  0
  192.7550  176.0790  143.0090 C   0  0  0  0  0  0  0  0  0  0  0  0
  191.6020  174.8840  144.3530 C   0  0  0  0  0  0  0  0  0  0  0  0
  191.1450  176.1950  144.3990 C   0  0  0  0  0  0  0  0  0  0  0  0
  193.9950  171.8340  144.6090 C   0  0  0  0  0  2  0  0  0  0  0  0
  193.6140  176.4160  142.1500 O   0  0  0  0  0  0  0  0  0  0  0  0
  186.6930  179.6340  142.7620 O   0  0  0  0  0  0  0  0  0  0  0  0
  186.6350  178.4220  142.6100 C   0  0  0  0  0  0  0  0  0  0  0  0
  187.2640  177.7900  141.4170 C   0  0  0  0  0  2  0  0  0  0  0  0
  187.1380  176.2810  141.4860 C   0  0  0  0  0  2  0  0  0  0  0  0
  188.5120  175.6570  141.3700 C   0  0  2  0  0  3  0  0  0  0  0  0
  188.3800  174.2560  140.8060 C   0  0  2  0  0  3  0  0  0  0  0  0
  188.5970  174.4580  142.2920 C   0  0  0  0  0  2  0  0  0  0  0  0
  189.6940  173.8480  140.1550 C   0  0  1  0  0  3  0  0  0  0  0  0
  190.1390  172.5200  140.6800 C   0  0  0  0  0  0  0  0  0  0  0  0
  191.4800  172.1660  140.6050 O   0  0  0  0  0  0  0  0  0  0  0  0
  189.3160  171.7380  141.2240 O   0  0  0  0  0  1  0  0  0  0  0  0
  189.5420  173.7920  138.7650 O   0  0  0  0  0  0  0  0  0  0  0  0
  188.1930  173.4930  138.5660 C   0  0  0  0  0  1  0  0  0  0  0  0
  1  9  1  0  0  0  0
  2  5  1  0  0  0  0
  3 13  1  0  0  0  0
  3  9  2  0  0  0  0
  4  8  1  0  0  0  0
  5 13  2  0  0  0  0
  6  3  1  0  0  0  0
  7  4  2  0  0  0  0
  8  1  2  0  0  0  0
 10  2  2  0  0  0  0
 10  6  1  0  0  0  0
 11 26  1  6  0  0  0
 11  7  1  0  0  0  0
 11 12  1  0  0  0  0
 12  6  2  0  0  0  0
 12  8  1  0  0  0  0
 14 22  1  0  0  0  0
 15 16  1  0  0  0  0
 15 19  1  0  0  0  0
 16 21  1  0  0  0  0
 18 17  1  0  0  0  0
 19 18  1  0  0  0  0
 19 23  2  0  0  0  0
 20 16  1  0  0  0  0
 20 14  1  0  0  0  0
 21 22  2  0  0  0  0
 21 17  1  0  0  0  0
 22  2  1  0  0  0  0
 24 20  2  0  0  0  0
 26 25  2  0  0  0  0
 27 28  1  0  0  0  0
 27 26  1  0  0  0  0
 29 28  1  1  0  0  0
 29 31  1  0  0  0  0
 30 32  1  6  0  0  0
 30 29  1  0  0  0  0
 30 31  1  0  0  0  0
 32 36  1  6  0  0  0
 32 33  1  0  0  0  0
 33 35  1  0  0  0  0
 34 33  2  0  0  0  0
 37 36  1  0  0  0  0
M  END
>  <MODEL>
9

>  <REMARK>
 VINA RESULT:      -6.8      1.853      2.460
  Name = 
  8 active torsions:
  status: ('A' for Active; 'I' for Inactive)
    1  A    between atoms: C_1  and  C_8
    2  A    between atoms: C_2  and  C_31
    3  A    between atoms: C_4  and  C_30
    4  A    between atoms: C_8  and  O_10
    5  A    between atoms: C_8  and  C_12
    6  A    between atoms: C_21  and  C_31
    7  A    between atoms: C_21  and  C_36
    8  A    between atoms: C_26  and  C_36
                            x       y       z     vdW  Elec       q    Type
                         _______ _______ _______ _____ _____    ______ ____

>  <TORSDO>
F 8

$$$$
