=
 OpenBabel11062418363D

 55 59  0  0  1  0  0  0  0  0999 V2000
  186.7510  177.4150  144.0750 C   0  0  2  0  0  3  0  0  0  0  0  0
  186.4090  177.6360  145.5200 C   0  0  0  0  0  0  0  0  0  0  0  0
  186.3690  176.9290  147.8250 C   0  0  0  0  0  3  0  0  0  0  0  0
  185.8990  178.8760  145.9160 C   0  0  0  0  0  3  0  0  0  0  0  0
  185.8630  178.1400  148.1830 N   0  0  0  0  0  0  0  0  0  0  0  0
  185.6250  179.1100  147.2640 C   0  0  0  0  0  3  0  0  0  0  0  0
  186.6610  176.6580  146.4880 C   0  0  0  0  0  3  0  0  0  0  0  0
  185.5620  176.8780  143.2670 C   0  0  2  0  0  3  0  0  0  0  0  0
  185.8690  175.6620  142.6480 O   0  0  0  0  0  1  0  0  0  0  0  0
  185.9030  179.1580  142.2740 C   0  0  0  0  0  1  0  0  0  0  0  0
  185.0480  177.9020  142.2560 C   0  0  2  0  0  3  0  0  0  0  0  0
  183.5300  178.1350  142.3620 C   0  0  0  0  0  2  0  0  0  0  0  0
  182.8060  178.5140  141.0730 C   0  0  1  0  0  3  0  0  0  0  0  0
  183.4120  177.6820  139.9520 C   0  0  0  0  0  1  0  0  0  0  0  0
  178.9710  179.3610  141.6290 C   0  0  1  0  0  3  0  0  0  0  0  0
  178.4760  180.3650  140.6970 N   0  0  0  0  0  0  0  0  0  0  0  0
  178.7320  176.8270  139.1030 O   0  0  0  0  0  0  0  0  0  0  0  0
  181.2970  178.2610  141.2390 C   0  0  2  0  0  3  0  0  0  0  0  0
  180.6940  177.6360  140.0650 N   0  0  0  0  0  2  0  0  0  0  0  0
  179.2800  177.4410  140.0550 C   0  0  0  0  0  0  0  0  0  0  0  0
  179.4660  181.0030  140.1770 C   0  0  0  0  0  0  0  0  0  0  0  0
  178.4590  177.9750  141.1950 C   0  0  1  0  0  3  0  0  0  0  0  0
  180.7440  180.5920  140.6280 N   0  0  0  0  0  2  0  0  0  0  0  0
  180.5200  179.5410  141.6120 C   0  0  1  0  0  3  0  0  0  0  0  0
  179.2430  182.2690  138.9350 S   0  0  0  0  0  0  0  0  0  0  0  0
  178.0300  183.1510  139.9550 C   0  0  0  0  0  1  0  0  0  0  0  0
  178.1190  177.7550  143.6640 C   0  0  0  0  0  1  0  0  0  0  0  0
  178.4820  177.0200  142.3830 C   0  0  0  0  0  2  0  0  0  0  0  0
  187.8730  176.5800  143.9720 O   0  0  0  0  0  0  0  0  0  0  0  0
  188.9740  177.4430  143.9140 C   0  0  0  0  0  2  0  0  0  0  0  0
  190.2730  176.6570  144.0090 C   0  0  0  0  0  2  0  0  0  0  0  0
  191.2250  177.3430  144.8650 N   0  0  0  0  0  0  0  0  0  0  0  0
  191.2060  176.5940  146.1170 C   0  0  0  0  0  2  0  0  0  0  0  0
  190.4910  175.4170  145.9540 F   0  0  0  0  0  0  0  0  0  0  0  0
  192.5270  177.1210  144.2530 C   0  0  0  0  0  2  0  0  0  0  0  0
  193.5580  176.7350  145.3080 C   0  0  0  0  0  2  0  0  0  0  0  0
  194.3510  175.5150  144.8580 C   0  0  1  0  0  3  0  0  0  0  0  0
  194.3550  175.4380  143.3290 C   0  0  1  0  0  3  0  0  0  0  0  0
  195.5770  175.8920  142.8280 O   0  0  0  0  0  1  0  0  0  0  0  0
  192.8260  173.9090  142.1780 C   0  0  2  0  0  3  0  0  0  0  0  0
  194.1340  174.0080  142.8620 C   0  0  2  0  0  3  0  0  0  0  0  0
  193.0030  173.4670  143.5020 O   0  0  0  0  0  0  0  0  0  0  0  0
  191.8670  172.5410  140.3390 C   0  0  0  0  0  3  0  0  0  0  0  0
  192.8130  172.7260  141.2650 C   0  0  0  0  0  3  0  0  0  0  0  0
  190.2710  173.4210  138.7550 N   0  0  0  0  0  0  0  0  0  0  0  0
  188.8850  173.3180  138.8480 C   0  0  0  0  0  0  0  0  0  0  0  0
  190.7500  173.5120  140.1220 C   0  0  1  0  0  3  0  0  0  0  0  0
  188.1070  173.2870  137.8580 O   0  0  0  0  0  0  0  0  0  0  0  0
  189.6740  173.2140  141.0040 O   0  0  0  0  0  0  0  0  0  0  0  0
  188.4730  173.2690  140.2500 C   0  0  0  0  0  2  0  0  0  0  0  0
  190.9980  173.8780  137.5820 C   0  0  0  0  0  1  0  0  0  0  0  0
  195.6620  175.6120  145.3410 O   0  0  0  0  0  0  0  0  0  0  0  0
  195.8820  174.4140  146.0290 C   0  0  0  0  0  2  0  0  0  0  0  0
  197.1490  173.7570  145.5200 C   0  0  0  0  0  2  0  0  0  0  0  0
  197.1680  172.4200  145.9210 O   0  0  0  0  0  1  0  0  0  0  0  0
  1 29  1  1  0  0  0
  1  2  1  0  0  0  0
  2  4  2  0  0  0  0
  2  7  1  0  0  0  0
  3  5  1  0  0  0  0
  4  6  1  0  0  0  0
  6  5  2  0  0  0  0
  7  3  2  0  0  0  0
  8  9  1  6  0  0  0
  8  1  1  0  0  0  0
 11 10  1  1  0  0  0
 11 12  1  0  0  0  0
 11  8  1  0  0  0  0
 13 14  1  6  0  0  0
 13 12  1  0  0  0  0
 15 16  1  6  0  0  0
 17 20  2  0  0  0  0
 18 13  1  6  0  0  0
 18 24  1  0  0  0  0
 19 18  1  0  0  0  0
 20 19  1  0  0  0  0
 20 22  1  0  0  0  0
 21 23  1  0  0  0  0
 21 16  2  0  0  0  0
 22 15  1  0  0  0  0
 22 28  1  1  0  0  0
 24 23  1  6  0  0  0
 24 15  1  0  0  0  0
 25 26  1  0  0  0  0
 25 21  1  0  0  0  0
 28 27  1  0  0  0  0
 30 29  1  0  0  0  0
 30 31  1  0  0  0  0
 31 32  1  0  0  0  0
 32 33  1  0  0  0  0
 34 33  1  0  0  0  0
 35 32  1  0  0  0  0
 35 36  1  0  0  0  0
 37 36  1  6  0  0  0
 37 52  1  0  0  0  0
 38 39  1  1  0  0  0
 38 37  1  0  0  0  0
 40 44  1  6  0  0  0
 40 41  1  0  0  0  0
 40 42  1  0  0  0  0
 41 38  1  1  0  0  0
 41 42  1  0  0  0  0
 43 44  2  0  0  0  0
 45 46  1  0  0  0  0
 45 47  1  0  0  0  0
 46 50  1  0  0  0  0
 47 43  1  6  0  0  0
 47 49  1  0  0  0  0
 48 46  2  0  0  0  0
 50 49  1  0  0  0  0
 51 45  1  0  0  0  0
 52 53  1  0  0  0  0
 54 55  1  0  0  0  0
 54 53  1  0  0  0  0
M  END
>  <MODEL>
1

>  <REMARK>
 VINA RESULT:      -6.0      0.000      0.000
  Name = 
  23 active torsions:
  status: ('A' for Active; 'I' for Inactive)
    1  A    between atoms: C_5  and  C_8
    2  A    between atoms: C_5  and  C_34
    3  A    between atoms: C_6  and  C_34
    4  A    between atoms: C_7  and  C_50
    5  A    between atoms: C_8  and  C_14
    6  A    between atoms: C_9  and  C_26
    7  A    between atoms: C_12  and  N_23
    8  A    between atoms: C_12  and  C_38
    9  A    between atoms: C_14  and  C_51
   10  A    between atoms: C_17  and  C_20
   11  A    between atoms: C_19  and  C_40
   12  A    between atoms: C_20  and  C_45
   13  A    between atoms: C_22  and  C_51
   14  A    between atoms: N_23  and  C_30
   15  A    between atoms: N_23  and  C_31
   16  A    between atoms: O_28  and  C_34
   17  A    between atoms: O_28  and  C_46
   18  A    between atoms: C_30  and  C_46
   19  A    between atoms: C_32  and  C_36
   20  A    between atoms: C_32  and  O_54
   21  A    between atoms: S_37  and  C_39
   22  A    between atoms: C_38  and  C_45
   23  A    between atoms: C_45  and  O_54
                            x       y       z     vdW  Elec       q    Type
                         _______ _______ _______ _____ _____    ______ ____

>  <TORSDO>
F 23

$$$$
=
 OpenBabel11062418363D

 55 59  0  0  1  0  0  0  0  0999 V2000
  187.9820  176.5920  144.6830 C   0  0  2  0  0  3  0  0  0  0  0  0
  186.9960  177.3040  145.5640 C   0  0  0  0  0  0  0  0  0  0  0  0
  185.8500  177.5940  147.6650 C   0  0  0  0  0  3  0  0  0  0  0  0
  186.3800  178.4670  145.0940 C   0  0  0  0  0  3  0  0  0  0  0  0
  185.2550  178.7170  147.1800 N   0  0  0  0  0  0  0  0  0  0  0  0
  185.5010  179.1640  145.9220 C   0  0  0  0  0  3  0  0  0  0  0  0
  186.7390  176.8720  146.8700 C   0  0  0  0  0  3  0  0  0  0  0  0
  189.4270  177.0490  144.9310 C   0  0  2  0  0  3  0  0  0  0  0  0
  189.9280  177.7770  143.8480 O   0  0  0  0  0  1  0  0  0  0  0  0
  189.5350  174.6810  145.7560 C   0  0  0  0  0  1  0  0  0  0  0  0
  190.3430  175.8800  145.2890 C   0  0  2  0  0  3  0  0  0  0  0  0
  191.5060  176.2920  146.2090 C   0  0  0  0  0  2  0  0  0  0  0  0
  192.8960  176.3260  145.5810 C   0  0  1  0  0  3  0  0  0  0  0  0
  193.8760  176.7320  146.6730 C   0  0  0  0  0  1  0  0  0  0  0  0
  193.8450  173.6410  142.8200 C   0  0  1  0  0  3  0  0  0  0  0  0
  195.0380  174.0050  142.0670 N   0  0  0  0  0  0  0  0  0  0  0  0
  195.8590  172.5130  145.5640 O   0  0  0  0  0  0  0  0  0  0  0  0
  193.2250  174.9460  144.9850 C   0  0  2  0  0  3  0  0  0  0  0  0
  194.4190  174.3440  145.5700 N   0  0  0  0  0  2  0  0  0  0  0  0
  194.8870  173.1080  145.0310 C   0  0  0  0  0  0  0  0  0  0  0  0
  195.2770  175.2620  142.2120 C   0  0  0  0  0  0  0  0  0  0  0  0
  194.2020  172.5300  143.8250 C   0  0  1  0  0  3  0  0  0  0  0  0
  194.3520  175.9560  143.0290 N   0  0  0  0  0  2  0  0  0  0  0  0
  193.3520  174.9810  143.4470 C   0  0  1  0  0  3  0  0  0  0  0  0
  196.7040  176.0540  141.4830 S   0  0  0  0  0  0  0  0  0  0  0  0
  197.2880  176.6390  143.0990 C   0  0  0  0  0  1  0  0  0  0  0  0
  192.1200  171.4210  142.9900 C   0  0  0  0  0  1  0  0  0  0  0  0
  192.9440  171.7670  144.2210 C   0  0  0  0  0  2  0  0  0  0  0  0
  187.6120  176.7360  143.3390 O   0  0  0  0  0  0  0  0  0  0  0  0
  187.5460  175.4340  142.8290 C   0  0  0  0  0  2  0  0  0  0  0  0
  188.5790  175.2370  141.7310 C   0  0  0  0  0  2  0  0  0  0  0  0
  189.4730  174.1410  142.0580 N   0  0  0  0  0  0  0  0  0  0  0  0
  188.5910  173.0200  142.3650 C   0  0  0  0  0  2  0  0  0  0  0  0
  189.0210  172.3800  143.5170 F   0  0  0  0  0  0  0  0  0  0  0  0
  190.1610  173.8170  140.8170 C   0  0  0  0  0  2  0  0  0  0  0  0
  189.1590  173.5690  139.6960 C   0  0  0  0  0  2  0  0  0  0  0  0
  189.8670  173.5130  138.3480 C   0  0  1  0  0  3  0  0  0  0  0  0
  189.9400  172.0620  137.8660 C   0  0  1  0  0  3  0  0  0  0  0  0
  190.1670  172.0230  136.4880 O   0  0  0  0  0  1  0  0  0  0  0  0
  192.3610  171.9350  138.2140 C   0  0  2  0  0  3  0  0  0  0  0  0
  191.0640  171.3170  138.5680 C   0  0  2  0  0  3  0  0  0  0  0  0
  191.9230  170.7410  137.6130 O   0  0  0  0  0  0  0  0  0  0  0  0
  194.6710  171.9500  139.1300 C   0  0  0  0  0  3  0  0  0  0  0  0
  193.3840  171.6120  139.2550 C   0  0  0  0  0  3  0  0  0  0  0  0
  195.4500  174.0820  138.3060 N   0  0  0  0  0  0  0  0  0  0  0  0
  196.7350  174.3610  137.8470 C   0  0  0  0  0  0  0  0  0  0  0  0
  195.1970  172.6990  137.9470 C   0  0  1  0  0  3  0  0  0  0  0  0
  197.2850  175.4920  137.9170 O   0  0  0  0  0  0  0  0  0  0  0  0
  196.4150  172.1110  137.5070 O   0  0  0  0  0  0  0  0  0  0  0  0
  197.3370  173.1630  137.2640 C   0  0  0  0  0  2  0  0  0  0  0  0
  194.4250  175.0770  138.5770 C   0  0  0  0  0  1  0  0  0  0  0  0
  189.1650  174.2950  137.4240 O   0  0  0  0  0  0  0  0  0  0  0  0
  187.8510  174.3270  137.9030 C   0  0  0  0  0  2  0  0  0  0  0  0
  187.2660  175.7100  137.7020 C   0  0  0  0  0  2  0  0  0  0  0  0
  186.6040  175.7560  136.4740 O   0  0  0  0  0  1  0  0  0  0  0  0
  1 29  1  6  0  0  0
  1  8  1  0  0  0  0
  1  2  1  0  0  0  0
  2  7  1  0  0  0  0
  4  2  2  0  0  0  0
  4  6  1  0  0  0  0
  5  3  1  0  0  0  0
  6  5  2  0  0  0  0
  7  3  2  0  0  0  0
  8  9  1  6  0  0  0
  8 11  1  0  0  0  0
 11 10  1  1  0  0  0
 11 12  1  0  0  0  0
 13 12  1  0  0  0  0
 13 14  1  1  0  0  0
 15 16  1  1  0  0  0
 15 24  1  0  0  0  0
 15 22  1  0  0  0  0
 16 21  2  0  0  0  0
 18 19  1  0  0  0  0
 18 13  1  1  0  0  0
 20 17  2  0  0  0  0
 20 19  1  0  0  0  0
 21 23  1  0  0  0  0
 22 28  1  1  0  0  0
 22 20  1  0  0  0  0
 24 23  1  1  0  0  0
 24 18  1  0  0  0  0
 25 21  1  0  0  0  0
 25 26  1  0  0  0  0
 27 28  1  0  0  0  0
 30 29  1  0  0  0  0
 31 32  1  0  0  0  0
 31 30  1  0  0  0  0
 32 33  1  0  0  0  0
 33 34  1  0  0  0  0
 35 32  1  0  0  0  0
 36 35  1  0  0  0  0
 37 36  1  1  0  0  0
 38 39  1  6  0  0  0
 38 37  1  0  0  0  0
 40 41  1  0  0  0  0
 40 44  1  1  0  0  0
 41 38  1  6  0  0  0
 42 40  1  0  0  0  0
 42 41  1  0  0  0  0
 43 44  2  0  0  0  0
 45 51  1  0  0  0  0
 46 48  2  0  0  0  0
 46 45  1  0  0  0  0
 47 45  1  0  0  0  0
 47 43  1  1  0  0  0
 49 47  1  0  0  0  0
 50 49  1  0  0  0  0
 50 46  1  0  0  0  0
 52 53  1  0  0  0  0
 52 37  1  0  0  0  0
 54 53  1  0  0  0  0
 55 54  1  0  0  0  0
M  END
>  <MODEL>
2

>  <REMARK>
 VINA RESULT:      -6.0      5.211     10.282
  Name = 
  23 active torsions:
  status: ('A' for Active; 'I' for Inactive)
    1  A    between atoms: C_5  and  C_8
    2  A    between atoms: C_5  and  C_34
    3  A    between atoms: C_6  and  C_34
    4  A    between atoms: C_7  and  C_50
    5  A    between atoms: C_8  and  C_14
    6  A    between atoms: C_9  and  C_26
    7  A    between atoms: C_12  and  N_23
    8  A    between atoms: C_12  and  C_38
    9  A    between atoms: C_14  and  C_51
   10  A    between atoms: C_17  and  C_20
   11  A    between atoms: C_19  and  C_40
   12  A    between atoms: C_20  and  C_45
   13  A    between atoms: C_22  and  C_51
   14  A    between atoms: N_23  and  C_30
   15  A    between atoms: N_23  and  C_31
   16  A    between atoms: O_28  and  C_34
   17  A    between atoms: O_28  and  C_46
   18  A    between atoms: C_30  and  C_46
   19  A    between atoms: C_32  and  C_36
   20  A    between atoms: C_32  and  O_54
   21  A    between atoms: S_37  and  C_39
   22  A    between atoms: C_38  and  C_45
   23  A    between atoms: C_45  and  O_54
                            x       y       z     vdW  Elec       q    Type
                         _______ _______ _______ _____ _____    ______ ____

>  <TORSDO>
F 23

$$$$
=
 OpenBabel11062418363D

 55 59  0  0  1  0  0  0  0  0999 V2000
  185.9540  177.8380  143.8420 C   0  0  2  0  0  3  0  0  0  0  0  0
  186.5660  177.1120  142.6790 C   0  0  0  0  0  0  0  0  0  0  0  0
  187.3380  177.0280  140.3970 C   0  0  0  0  0  3  0  0  0  0  0  0
  187.0610  175.8180  142.8700 C   0  0  0  0  0  3  0  0  0  0  0  0
  187.8020  175.7660  140.6050 N   0  0  0  0  0  0  0  0  0  0  0  0
  187.6770  175.1530  141.8100 C   0  0  0  0  0  3  0  0  0  0  0  0
  186.7210  177.7280  141.4330 C   0  0  0  0  0  3  0  0  0  0  0  0
  185.3150  179.1720  143.4300 C   0  0  2  0  0  3  0  0  0  0  0  0
  185.8350  180.2400  144.1680 O   0  0  0  0  0  1  0  0  0  0  0  0
  183.3300  179.0400  144.9610 C   0  0  0  0  0  1  0  0  0  0  0  0
  183.7900  179.1260  143.5160 C   0  0  2  0  0  3  0  0  0  0  0  0
  183.1700  178.0880  142.5630 C   0  0  0  0  0  2  0  0  0  0  0  0
  182.5740  178.6220  141.2640 C   0  0  1  0  0  3  0  0  0  0  0  0
  183.3230  177.9600  140.1170 C   0  0  0  0  0  1  0  0  0  0  0  0
  178.6730  179.3370  141.3640 C   0  0  1  0  0  3  0  0  0  0  0  0
  178.2660  180.3650  140.4160 N   0  0  0  0  0  0  0  0  0  0  0  0
  178.8360  176.9060  138.7330 O   0  0  0  0  0  0  0  0  0  0  0  0
  181.0650  178.3190  141.2280 C   0  0  2  0  0  3  0  0  0  0  0  0
  180.6340  177.7280  139.9650 N   0  0  0  0  0  2  0  0  0  0  0  0
  179.2400  177.4940  139.7700 C   0  0  0  0  0  0  0  0  0  0  0  0
  179.2910  181.0520  140.0500 C   0  0  0  0  0  0  0  0  0  0  0  0
  178.2660  177.9560  140.8160 C   0  0  1  0  0  3  0  0  0  0  0  0
  180.5160  180.6590  140.6430 N   0  0  0  0  0  2  0  0  0  0  0  0
  180.2060  179.5610  141.5500 C   0  0  1  0  0  3  0  0  0  0  0  0
  179.1830  182.3620  138.8390 S   0  0  0  0  0  0  0  0  0  0  0  0
  178.0200  181.4150  137.8190 C   0  0  0  0  0  1  0  0  0  0  0  0
  177.9570  177.6720  143.2830 C   0  0  0  0  0  1  0  0  0  0  0  0
  178.1730  176.9530  141.9600 C   0  0  0  0  0  2  0  0  0  0  0  0
  186.9080  178.0070  144.8550 O   0  0  0  0  0  0  0  0  0  0  0  0
  186.3620  177.3900  145.9870 C   0  0  0  0  0  2  0  0  0  0  0  0
  187.4410  176.6560  146.7680 C   0  0  0  0  0  2  0  0  0  0  0  0
  188.7060  176.6980  146.0580 N   0  0  0  0  0  0  0  0  0  0  0  0
  189.6040  177.4330  146.9410 C   0  0  0  0  0  2  0  0  0  0  0  0
  190.3170  176.5490  147.7350 F   0  0  0  0  0  0  0  0  0  0  0  0
  189.1760  175.3210  146.0200 C   0  0  0  0  0  2  0  0  0  0  0  0
  190.1360  175.1130  144.8540 C   0  0  0  0  0  2  0  0  0  0  0  0
  191.0970  173.9690  145.1500 C   0  0  1  0  0  3  0  0  0  0  0  0
  190.6890  172.7330  144.3450 C   0  0  1  0  0  3  0  0  0  0  0  0
  189.6450  172.0620  144.9870 O   0  0  0  0  0  1  0  0  0  0  0  0
  190.5860  172.0550  141.9930 C   0  0  2  0  0  3  0  0  0  0  0  0
  190.2320  173.1270  142.9500 C   0  0  2  0  0  3  0  0  0  0  0  0
  191.3460  173.2340  142.0950 O   0  0  0  0  0  0  0  0  0  0  0  0
  190.0790  171.6500  139.5940 C   0  0  0  0  0  3  0  0  0  0  0  0
  189.7120  172.1400  140.7830 C   0  0  0  0  0  3  0  0  0  0  0  0
  191.1630  169.6530  138.7770 N   0  0  0  0  0  0  0  0  0  0  0  0
  192.0380  169.5820  137.6950 C   0  0  0  0  0  0  0  0  0  0  0  0
  191.3860  170.9560  139.3760 C   0  0  1  0  0  3  0  0  0  0  0  0
  192.1840  168.5670  136.9640 O   0  0  0  0  0  0  0  0  0  0  0  0
  192.2020  171.7270  138.5020 O   0  0  0  0  0  0  0  0  0  0  0  0
  192.7650  170.8430  137.5480 C   0  0  0  0  0  2  0  0  0  0  0  0
  190.5820  168.5080  139.4570 C   0  0  0  0  0  1  0  0  0  0  0  0
  192.3990  174.3590  144.8120 O   0  0  0  0  0  0  0  0  0  0  0  0
  192.4900  175.6950  145.2170 C   0  0  0  0  0  2  0  0  0  0  0  0
  193.4820  176.4290  144.3370 C   0  0  0  0  0  2  0  0  0  0  0  0
  193.7400  175.6640  143.1970 O   0  0  0  0  0  1  0  0  0  0  0  0
  1 29  1  1  0  0  0
  2  4  1  0  0  0  0
  2  1  1  0  0  0  0
  3  5  2  0  0  0  0
  3  7  1  0  0  0  0
  5  6  1  0  0  0  0
  6  4  2  0  0  0  0
  7  2  2  0  0  0  0
  8 11  1  0  0  0  0
  8  1  1  0  0  0  0
  8  9  1  1  0  0  0
 11 10  1  1  0  0  0
 12 11  1  0  0  0  0
 13 14  1  6  0  0  0
 13 12  1  0  0  0  0
 15 16  1  6  0  0  0
 15 24  1  0  0  0  0
 17 20  2  0  0  0  0
 18 13  1  6  0  0  0
 18 24  1  0  0  0  0
 19 18  1  0  0  0  0
 20 19  1  0  0  0  0
 20 22  1  0  0  0  0
 21 16  2  0  0  0  0
 21 23  1  0  0  0  0
 22 15  1  0  0  0  0
 22 28  1  1  0  0  0
 24 23  1  6  0  0  0
 25 21  1  0  0  0  0
 26 25  1  0  0  0  0
 28 27  1  0  0  0  0
 29 30  1  0  0  0  0
 30 31  1  0  0  0  0
 32 31  1  0  0  0  0
 32 33  1  0  0  0  0
 33 34  1  0  0  0  0
 35 32  1  0  0  0  0
 36 35  1  0  0  0  0
 37 36  1  6  0  0  0
 38 39  1  1  0  0  0
 38 37  1  0  0  0  0
 40 44  1  6  0  0  0
 40 42  1  0  0  0  0
 40 41  1  0  0  0  0
 41 38  1  1  0  0  0
 42 41  1  0  0  0  0
 43 44  2  0  0  0  0
 45 47  1  0  0  0  0
 45 51  1  0  0  0  0
 46 45  1  0  0  0  0
 47 43  1  6  0  0  0
 48 46  2  0  0  0  0
 49 47  1  0  0  0  0
 50 46  1  0  0  0  0
 50 49  1  0  0  0  0
 52 37  1  0  0  0  0
 52 53  1  0  0  0  0
 54 53  1  0  0  0  0
 55 54  1  0  0  0  0
M  END
>  <MODEL>
3

>  <REMARK>
 VINA RESULT:      -6.0      2.319      3.673
  Name = 
  23 active torsions:
  status: ('A' for Active; 'I' for Inactive)
    1  A    between atoms: C_5  and  C_8
    2  A    between atoms: C_5  and  C_34
    3  A    between atoms: C_6  and  C_34
    4  A    between atoms: C_7  and  C_50
    5  A    between atoms: C_8  and  C_14
    6  A    between atoms: C_9  and  C_26
    7  A    between atoms: C_12  and  N_23
    8  A    between atoms: C_12  and  C_38
    9  A    between atoms: C_14  and  C_51
   10  A    between atoms: C_17  and  C_20
   11  A    between atoms: C_19  and  C_40
   12  A    between atoms: C_20  and  C_45
   13  A    between atoms: C_22  and  C_51
   14  A    between atoms: N_23  and  C_30
   15  A    between atoms: N_23  and  C_31
   16  A    between atoms: O_28  and  C_34
   17  A    between atoms: O_28  and  C_46
   18  A    between atoms: C_30  and  C_46
   19  A    between atoms: C_32  and  C_36
   20  A    between atoms: C_32  and  O_54
   21  A    between atoms: S_37  and  C_39
   22  A    between atoms: C_38  and  C_45
   23  A    between atoms: C_45  and  O_54
                            x       y       z     vdW  Elec       q    Type
                         _______ _______ _______ _____ _____    ______ ____

>  <TORSDO>
F 23

$$$$
=
 OpenBabel11062418363D

 55 59  0  0  1  0  0  0  0  0999 V2000
  192.1040  175.7570  143.2390 C   0  0  2  0  0  3  0  0  0  0  0  0
  191.5790  174.4130  142.8250 C   0  0  0  0  0  0  0  0  0  0  0  0
  190.9420  172.8090  141.1410 C   0  0  0  0  0  3  0  0  0  0  0  0
  191.3500  173.4410  143.8040 C   0  0  0  0  0  3  0  0  0  0  0  0
  190.7170  171.8850  142.1140 N   0  0  0  0  0  0  0  0  0  0  0  0
  190.9110  172.1730  143.4260 C   0  0  0  0  0  3  0  0  0  0  0  0
  191.3870  174.0870  141.4780 C   0  0  0  0  0  3  0  0  0  0  0  0
  193.2580  175.6520  144.2470 C   0  0  2  0  0  3  0  0  0  0  0  0
  193.0690  176.5100  145.3350 O   0  0  0  0  0  1  0  0  0  0  0  0
  194.5010  175.8170  142.0720 C   0  0  0  0  0  1  0  0  0  0  0  0
  194.6160  175.8800  143.5860 C   0  0  2  0  0  3  0  0  0  0  0  0
  195.7320  175.0150  144.2000 C   0  0  0  0  0  2  0  0  0  0  0  0
  196.3900  173.9930  143.2780 C   0  0  1  0  0  3  0  0  0  0  0  0
  197.8570  174.3790  143.1480 C   0  0  0  0  0  1  0  0  0  0  0  0
  194.6020  170.5430  144.0770 C   0  0  1  0  0  3  0  0  0  0  0  0
  194.1140  169.8720  142.8800 N   0  0  0  0  0  0  0  0  0  0  0  0
  197.9410  169.4220  143.4070 O   0  0  0  0  0  0  0  0  0  0  0  0
  196.2080  172.5810  143.8620 C   0  0  2  0  0  3  0  0  0  0  0  0
  197.1910  171.6260  143.3580 N   0  0  0  0  0  2  0  0  0  0  0  0
  197.0660  170.2590  143.7470 C   0  0  0  0  0  0  0  0  0  0  0  0
  194.0410  170.7130  141.9080 C   0  0  0  0  0  0  0  0  0  0  0  0
  195.8800  169.8360  144.5670 C   0  0  1  0  0  3  0  0  0  0  0  0
  194.4290  172.0360  142.2320 N   0  0  0  0  0  2  0  0  0  0  0  0
  194.7810  172.0320  143.6460 C   0  0  1  0  0  3  0  0  0  0  0  0
  193.5430  170.2310  140.2600 S   0  0  0  0  0  0  0  0  0  0  0  0
  192.6320  168.7910  140.8850 C   0  0  0  0  0  1  0  0  0  0  0  0
  195.0850  169.3870  146.8970 C   0  0  0  0  0  1  0  0  0  0  0  0
  196.1000  170.1340  146.0460 C   0  0  0  0  0  2  0  0  0  0  0  0
  191.0560  176.5500  143.7270 O   0  0  0  0  0  0  0  0  0  0  0  0
  190.4600  177.1170  142.5940 C   0  0  0  0  0  2  0  0  0  0  0  0
  188.9800  177.3700  142.8380 C   0  0  0  0  0  2  0  0  0  0  0  0
  188.2640  177.4780  141.5800 N   0  0  0  0  0  0  0  0  0  0  0  0
  187.5240  176.2270  141.4650 C   0  0  0  0  0  2  0  0  0  0  0  0
  187.9980  175.4930  140.3880 F   0  0  0  0  0  0  0  0  0  0  0  0
  187.2850  178.5370  141.7800 C   0  0  0  0  0  2  0  0  0  0  0  0
  185.9670  178.1850  141.1010 C   0  0  0  0  0  2  0  0  0  0  0  0
  184.8310  178.1650  142.1160 C   0  0  1  0  0  3  0  0  0  0  0  0
  185.3050  178.7930  143.4300 C   0  0  1  0  0  3  0  0  0  0  0  0
  184.6080  179.9780  143.6760 O   0  0  0  0  0  1  0  0  0  0  0  0
  186.3780  177.3110  145.0590 C   0  0  2  0  0  3  0  0  0  0  0  0
  185.0770  177.8410  144.5930 C   0  0  2  0  0  3  0  0  0  0  0  0
  185.5190  176.5500  144.2460 O   0  0  0  0  0  0  0  0  0  0  0  0
  187.2910  176.3080  147.1400 C   0  0  0  0  0  3  0  0  0  0  0  0
  186.2620  176.8370  146.4720 C   0  0  0  0  0  3  0  0  0  0  0  0
  189.6670  176.5210  147.5160 N   0  0  0  0  0  0  0  0  0  0  0  0
  190.5950  175.4820  147.4940 C   0  0  0  0  0  0  0  0  0  0  0  0
  188.6540  176.1630  146.5410 C   0  0  1  0  0  3  0  0  0  0  0  0
  191.6620  175.4680  148.1640 O   0  0  0  0  0  0  0  0  0  0  0  0
  188.8630  174.8140  146.1400 O   0  0  0  0  0  0  0  0  0  0  0  0
  190.1580  174.4320  146.5750 C   0  0  0  0  0  2  0  0  0  0  0  0
  189.9340  177.8700  147.9870 C   0  0  0  0  0  1  0  0  0  0  0  0
  183.7410  178.8790  141.6040 O   0  0  0  0  0  0  0  0  0  0  0  0
  182.6820  177.9650  141.5990 C   0  0  0  0  0  2  0  0  0  0  0  0
  181.5270  178.5250  140.7940 C   0  0  0  0  0  2  0  0  0  0  0  0
  180.4930  178.8850  141.6600 O   0  0  0  0  0  1  0  0  0  0  0  0
  1 29  1  1  0  0  0
  1  8  1  0  0  0  0
  2  1  1  0  0  0  0
  2  4  1  0  0  0  0
  3  7  1  0  0  0  0
  3  5  2  0  0  0  0
  5  6  1  0  0  0  0
  6  4  2  0  0  0  0
  7  2  2  0  0  0  0
  8  9  1  1  0  0  0
 11 10  1  6  0  0  0
 11 12  1  0  0  0  0
 11  8  1  0  0  0  0
 13 14  1  1  0  0  0
 13 12  1  0  0  0  0
 15 16  1  6  0  0  0
 15 22  1  0  0  0  0
 17 20  2  0  0  0  0
 18 13  1  6  0  0  0
 19 20  1  0  0  0  0
 19 18  1  0  0  0  0
 20 22  1  0  0  0  0
 21 23  1  0  0  0  0
 21 16  2  0  0  0  0
 22 28  1  1  0  0  0
 24 23  1  6  0  0  0
 24 18  1  0  0  0  0
 24 15  1  0  0  0  0
 25 26  1  0  0  0  0
 25 21  1  0  0  0  0
 28 27  1  0  0  0  0
 30 31  1  0  0  0  0
 30 29  1  0  0  0  0
 32 35  1  0  0  0  0
 32 31  1  0  0  0  0
 33 32  1  0  0  0  0
 34 33  1  0  0  0  0
 36 35  1  0  0  0  0
 37 36  1  6  0  0  0
 37 38  1  0  0  0  0
 38 39  1  1  0  0  0
 40 44  1  1  0  0  0
 41 38  1  6  0  0  0
 41 40  1  0  0  0  0
 42 41  1  0  0  0  0
 42 40  1  0  0  0  0
 44 43  2  0  0  0  0
 45 51  1  0  0  0  0
 46 45  1  0  0  0  0
 46 48  2  0  0  0  0
 47 43  1  1  0  0  0
 47 45  1  0  0  0  0
 49 47  1  0  0  0  0
 49 50  1  0  0  0  0
 50 46  1  0  0  0  0
 52 37  1  0  0  0  0
 53 52  1  0  0  0  0
 54 53  1  0  0  0  0
 54 55  1  0  0  0  0
M  END
>  <MODEL>
4

>  <REMARK>
 VINA RESULT:      -5.7      4.273     12.580
  Name = 
  23 active torsions:
  status: ('A' for Active; 'I' for Inactive)
    1  A    between atoms: C_5  and  C_8
    2  A    between atoms: C_5  and  C_34
    3  A    between atoms: C_6  and  C_34
    4  A    between atoms: C_7  and  C_50
    5  A    between atoms: C_8  and  C_14
    6  A    between atoms: C_9  and  C_26
    7  A    between atoms: C_12  and  N_23
    8  A    between atoms: C_12  and  C_38
    9  A    between atoms: C_14  and  C_51
   10  A    between atoms: C_17  and  C_20
   11  A    between atoms: C_19  and  C_40
   12  A    between atoms: C_20  and  C_45
   13  A    between atoms: C_22  and  C_51
   14  A    between atoms: N_23  and  C_30
   15  A    between atoms: N_23  and  C_31
   16  A    between atoms: O_28  and  C_34
   17  A    between atoms: O_28  and  C_46
   18  A    between atoms: C_30  and  C_46
   19  A    between atoms: C_32  and  C_36
   20  A    between atoms: C_32  and  O_54
   21  A    between atoms: S_37  and  C_39
   22  A    between atoms: C_38  and  C_45
   23  A    between atoms: C_45  and  O_54
                            x       y       z     vdW  Elec       q    Type
                         _______ _______ _______ _____ _____    ______ ____

>  <TORSDO>
F 23

$$$$
=
 OpenBabel11062418363D

 55 59  0  0  1  0  0  0  0  0999 V2000
  192.3390  174.0350  145.1860 C   0  0  2  0  0  3  0  0  0  0  0  0
  191.5330  173.3290  144.1350 C   0  0  0  0  0  0  0  0  0  0  0  0
  191.0480  172.7930  141.8350 C   0  0  0  0  0  3  0  0  0  0  0  0
  190.5500  172.4170  144.5300 C   0  0  0  0  0  3  0  0  0  0  0  0
  190.0900  171.9190  142.2450 N   0  0  0  0  0  0  0  0  0  0  0  0
  189.8290  171.7180  143.5620 C   0  0  0  0  0  3  0  0  0  0  0  0
  191.7940  173.5070  142.7720 C   0  0  0  0  0  3  0  0  0  0  0  0
  191.9550  175.5150  145.3260 C   0  0  2  0  0  3  0  0  0  0  0  0
  193.0800  176.3430  145.2770 O   0  0  0  0  0  1  0  0  0  0  0  0
  191.8940  175.3750  147.8310 C   0  0  0  0  0  1  0  0  0  0  0  0
  191.1260  175.7740  146.5830 C   0  0  2  0  0  3  0  0  0  0  0  0
  189.6960  175.2150  146.4810 C   0  0  0  0  0  2  0  0  0  0  0  0
  188.5890  176.2190  146.1720 C   0  0  1  0  0  3  0  0  0  0  0  0
  189.0570  177.5770  146.6760 C   0  0  0  0  0  1  0  0  0  0  0  0
  186.4590  176.1830  142.8260 C   0  0  1  0  0  3  0  0  0  0  0  0
  185.4410  177.2240  142.7960 N   0  0  0  0  0  0  0  0  0  0  0  0
  188.9970  178.5680  141.9730 O   0  0  0  0  0  0  0  0  0  0  0  0
  188.3060  176.2240  144.6600 C   0  0  2  0  0  3  0  0  0  0  0  0
  188.8020  177.4240  143.9920 N   0  0  0  0  0  2  0  0  0  0  0  0
  188.5130  177.5930  142.6050 C   0  0  0  0  0  0  0  0  0  0  0  0
  185.2240  177.6570  143.9890 C   0  0  0  0  0  0  0  0  0  0  0  0
  187.6290  176.5950  141.9130 C   0  0  1  0  0  3  0  0  0  0  0  0
  185.9940  177.0300  145.0010 N   0  0  0  0  0  2  0  0  0  0  0  0
  186.8100  176.0220  144.3380 C   0  0  1  0  0  3  0  0  0  0  0  0
  184.0820  178.9880  144.3330 S   0  0  0  0  0  0  0  0  0  0  0  0
  185.3760  180.2420  144.1250 C   0  0  0  0  0  1  0  0  0  0  0  0
  187.6160  174.0970  141.7700 C   0  0  0  0  0  1  0  0  0  0  0  0
  188.4180  175.3600  141.4960 C   0  0  0  0  0  2  0  0  0  0  0  0
  193.7070  173.8720  144.9280 O   0  0  0  0  0  0  0  0  0  0  0  0
  194.0390  172.6160  145.4500 C   0  0  0  0  0  2  0  0  0  0  0  0
  195.2770  172.0620  144.7640 C   0  0  0  0  0  2  0  0  0  0  0  0
  196.2300  173.1230  144.4910 N   0  0  0  0  0  0  0  0  0  0  0  0
  197.0630  173.1910  145.6870 C   0  0  0  0  0  2  0  0  0  0  0  0
  196.5970  174.1860  146.5330 F   0  0  0  0  0  0  0  0  0  0  0  0
  197.0710  172.6220  143.4130 C   0  0  0  0  0  2  0  0  0  0  0  0
  196.7230  173.3090  142.0980 C   0  0  0  0  0  2  0  0  0  0  0  0
  196.4390  172.2770  141.0140 C   0  0  1  0  0  3  0  0  0  0  0  0
  194.9710  172.3690  140.5890 C   0  0  1  0  0  3  0  0  0  0  0  0
  194.5730  173.7060  140.5180 O   0  0  0  0  0  1  0  0  0  0  0  0
  193.4160  171.1190  139.1690 C   0  0  2  0  0  3  0  0  0  0  0  0
  194.7650  171.7240  139.2280 C   0  0  2  0  0  3  0  0  0  0  0  0
  194.5670  170.3390  139.3820 O   0  0  0  0  0  0  0  0  0  0  0  0
  191.9740  171.6790  137.2240 C   0  0  0  0  0  3  0  0  0  0  0  0
  192.9820  170.9720  137.7460 C   0  0  0  0  0  3  0  0  0  0  0  0
  190.6050  173.6640  137.1180 N   0  0  0  0  0  0  0  0  0  0  0  0
  189.2710  173.7600  137.5090 C   0  0  0  0  0  0  0  0  0  0  0  0
  191.2070  172.6920  138.0110 C   0  0  1  0  0  3  0  0  0  0  0  0
  188.4380  174.5600  137.0070 O   0  0  0  0  0  0  0  0  0  0  0  0
  190.1740  172.0490  138.7490 O   0  0  0  0  0  0  0  0  0  0  0  0
  188.9910  172.8150  138.5900 C   0  0  0  0  0  2  0  0  0  0  0  0
  191.3320  174.6800  136.3750 C   0  0  0  0  0  1  0  0  0  0  0  0
  197.2760  172.5150  139.9180 O   0  0  0  0  0  0  0  0  0  0  0  0
  197.8530  173.7640  140.1700 C   0  0  0  0  0  2  0  0  0  0  0  0
  197.9410  174.5570  138.8820 C   0  0  0  0  0  2  0  0  0  0  0  0
  196.7280  175.2100  138.6590 O   0  0  0  0  0  1  0  0  0  0  0  0
  1 29  1  6  0  0  0
  1  8  1  0  0  0  0
  2  4  1  0  0  0  0
  2  1  1  0  0  0  0
  3  5  2  0  0  0  0
  3  7  1  0  0  0  0
  5  6  1  0  0  0  0
  6  4  2  0  0  0  0
  7  2  2  0  0  0  0
  8  9  1  1  0  0  0
  8 11  1  0  0  0  0
 11 10  1  1  0  0  0
 12 11  1  0  0  0  0
 13 12  1  0  0  0  0
 13 14  1  6  0  0  0
 15 16  1  1  0  0  0
 15 24  1  0  0  0  0
 16 21  2  0  0  0  0
 17 20  2  0  0  0  0
 18 13  1  1  0  0  0
 19 18  1  0  0  0  0
 20 19  1  0  0  0  0
 21 25  1  0  0  0  0
 21 23  1  0  0  0  0
 22 28  1  1  0  0  0
 22 20  1  0  0  0  0
 22 15  1  0  0  0  0
 24 18  1  0  0  0  0
 24 23  1  1  0  0  0
 26 25  1  0  0  0  0
 28 27  1  0  0  0  0
 29 30  1  0  0  0  0
 31 30  1  0  0  0  0
 32 31  1  0  0  0  0
 32 33  1  0  0  0  0
 33 34  1  0  0  0  0
 35 32  1  0  0  0  0
 36 35  1  0  0  0  0
 37 36  1  1  0  0  0
 38 39  1  6  0  0  0
 38 37  1  0  0  0  0
 40 44  1  6  0  0  0
 40 41  1  0  0  0  0
 40 42  1  0  0  0  0
 41 42  1  0  0  0  0
 41 38  1  1  0  0  0
 43 44  2  0  0  0  0
 45 46  1  0  0  0  0
 45 47  1  0  0  0  0
 46 50  1  0  0  0  0
 47 43  1  6  0  0  0
 47 49  1  0  0  0  0
 48 46  2  0  0  0  0
 50 49  1  0  0  0  0
 51 45  1  0  0  0  0
 52 53  1  0  0  0  0
 52 37  1  0  0  0  0
 54 53  1  0  0  0  0
 55 54  1  0  0  0  0
M  END
>  <MODEL>
5

>  <REMARK>
 VINA RESULT:      -5.7      4.280      7.027
  Name = 
  23 active torsions:
  status: ('A' for Active; 'I' for Inactive)
    1  A    between atoms: C_5  and  C_8
    2  A    between atoms: C_5  and  C_34
    3  A    between atoms: C_6  and  C_34
    4  A    between atoms: C_7  and  C_50
    5  A    between atoms: C_8  and  C_14
    6  A    between atoms: C_9  and  C_26
    7  A    between atoms: C_12  and  N_23
    8  A    between atoms: C_12  and  C_38
    9  A    between atoms: C_14  and  C_51
   10  A    between atoms: C_17  and  C_20
   11  A    between atoms: C_19  and  C_40
   12  A    between atoms: C_20  and  C_45
   13  A    between atoms: C_22  and  C_51
   14  A    between atoms: N_23  and  C_30
   15  A    between atoms: N_23  and  C_31
   16  A    between atoms: O_28  and  C_34
   17  A    between atoms: O_28  and  C_46
   18  A    between atoms: C_30  and  C_46
   19  A    between atoms: C_32  and  C_36
   20  A    between atoms: C_32  and  O_54
   21  A    between atoms: S_37  and  C_39
   22  A    between atoms: C_38  and  C_45
   23  A    between atoms: C_45  and  O_54
                            x       y       z     vdW  Elec       q    Type
                         _______ _______ _______ _____ _____    ______ ____

>  <TORSDO>
F 23

$$$$
=
 OpenBabel11062418363D

 55 59  0  0  1  0  0  0  0  0999 V2000
  191.6710  174.4450  141.9650 C   0  0  2  0  0  3  0  0  0  0  0  0
  191.3070  173.3210  142.8920 C   0  0  0  0  0  0  0  0  0  0  0  0
  189.9140  172.3440  144.5990 C   0  0  0  0  0  3  0  0  0  0  0  0
  192.0000  172.1100  142.7970 C   0  0  0  0  0  3  0  0  0  0  0  0
  190.6110  171.1800  144.4960 N   0  0  0  0  0  0  0  0  0  0  0  0
  191.6380  171.0430  143.6180 C   0  0  0  0  0  3  0  0  0  0  0  0
  190.2420  173.4320  143.7920 C   0  0  0  0  0  3  0  0  0  0  0  0
  192.8320  175.2950  142.5020 C   0  0  2  0  0  3  0  0  0  0  0  0
  192.4920  176.6510  142.5560 O   0  0  0  0  0  1  0  0  0  0  0  0
  194.5930  176.3700  141.0730 C   0  0  0  0  0  1  0  0  0  0  0  0
  194.1170  175.0740  141.7080 C   0  0  2  0  0  3  0  0  0  0  0  0
  194.0320  173.8660  140.7580 C   0  0  0  0  0  2  0  0  0  0  0  0
  194.6190  174.0520  139.3610 C   0  0  1  0  0  3  0  0  0  0  0  0
  195.9460  173.3070  139.3260 C   0  0  0  0  0  1  0  0  0  0  0  0
  191.7770  174.1710  136.5970 C   0  0  1  0  0  3  0  0  0  0  0  0
  192.0780  175.1040  135.5200 N   0  0  0  0  0  0  0  0  0  0  0  0
  193.9880  171.7340  135.1720 O   0  0  0  0  0  0  0  0  0  0  0  0
  193.6250  173.5240  138.3120 C   0  0  2  0  0  3  0  0  0  0  0  0
  194.2810  172.8460  137.1980 N   0  0  0  0  0  2  0  0  0  0  0  0
  193.4740  172.3990  136.1090 C   0  0  0  0  0  0  0  0  0  0  0  0
  192.9900  175.9290  135.9010 C   0  0  0  0  0  0  0  0  0  0  0  0
  192.0090  172.7320  136.0980 C   0  0  1  0  0  3  0  0  0  0  0  0
  193.4510  175.7390  137.2270 N   0  0  0  0  0  2  0  0  0  0  0  0
  192.6870  174.6280  137.7780 C   0  0  1  0  0  3  0  0  0  0  0  0
  193.6620  177.1810  134.8160 S   0  0  0  0  0  0  0  0  0  0  0  0
  195.3660  176.6810  135.1860 C   0  0  0  0  0  1  0  0  0  0  0  0
  189.7690  172.2010  137.0780 C   0  0  0  0  0  1  0  0  0  0  0  0
  191.2180  171.7530  136.9560 C   0  0  0  0  0  2  0  0  0  0  0  0
  190.5380  175.2220  141.6890 O   0  0  0  0  0  0  0  0  0  0  0  0
  189.7850  174.4710  140.7780 C   0  0  0  0  0  2  0  0  0  0  0  0
  188.3030  174.7800  140.9270 C   0  0  0  0  0  2  0  0  0  0  0  0
  188.1050  175.9470  141.7680 N   0  0  0  0  0  0  0  0  0  0  0  0
  187.4990  176.9400  140.8880 C   0  0  0  0  0  2  0  0  0  0  0  0
  188.1680  178.1480  141.0050 F   0  0  0  0  0  0  0  0  0  0  0  0
  187.0910  175.5590  142.7380 C   0  0  0  0  0  2  0  0  0  0  0  0
  186.5820  176.7780  143.4990 C   0  0  0  0  0  2  0  0  0  0  0  0
  187.0810  176.7560  144.9380 C   0  0  1  0  0  3  0  0  0  0  0  0
  188.6110  176.7780  144.9520 C   0  0  1  0  0  3  0  0  0  0  0  0
  189.0810  177.9680  144.3900 O   0  0  0  0  0  1  0  0  0  0  0  0
  189.8980  175.4060  146.5220 C   0  0  2  0  0  3  0  0  0  0  0  0
  189.1380  176.6680  146.3740 C   0  0  2  0  0  3  0  0  0  0  0  0
  188.5820  175.5360  147.0020 O   0  0  0  0  0  0  0  0  0  0  0  0
  192.1720  175.3840  147.5230 C   0  0  0  0  0  3  0  0  0  0  0  0
  190.8490  175.5140  147.6700 C   0  0  0  0  0  3  0  0  0  0  0  0
  194.1470  175.7180  146.1760 N   0  0  0  0  0  0  0  0  0  0  0  0
  194.9850  174.7170  145.6900 C   0  0  0  0  0  0  0  0  0  0  0  0
  192.8160  175.1410  146.1960 C   0  0  1  0  0  3  0  0  0  0  0  0
  196.2160  174.8660  145.4660 O   0  0  0  0  0  0  0  0  0  0  0  0
  192.9220  173.7420  145.9590 O   0  0  0  0  0  0  0  0  0  0  0  0
  194.2270  173.4870  145.4660 C   0  0  0  0  0  2  0  0  0  0  0  0
  194.4410  177.1420  146.1450 C   0  0  0  0  0  1  0  0  0  0  0  0
  186.5750  177.8700  145.6190 O   0  0  0  0  0  0  0  0  0  0  0  0
  185.2400  177.9660  145.2110 C   0  0  0  0  0  2  0  0  0  0  0  0
  184.3320  177.9570  146.4240 C   0  0  0  0  0  2  0  0  0  0  0  0
  184.9740  178.6020  147.4830 O   0  0  0  0  0  1  0  0  0  0  0  0
  1 29  1  1  0  0  0
  1  8  1  0  0  0  0
  1  2  1  0  0  0  0
  2  7  1  0  0  0  0
  4  2  2  0  0  0  0
  4  6  1  0  0  0  0
  5  3  1  0  0  0  0
  6  5  2  0  0  0  0
  7  3  2  0  0  0  0
  8  9  1  6  0  0  0
 11 10  1  6  0  0  0
 11  8  1  0  0  0  0
 12 11  1  0  0  0  0
 13 14  1  1  0  0  0
 13 12  1  0  0  0  0
 15 16  1  6  0  0  0
 15 24  1  0  0  0  0
 16 21  2  0  0  0  0
 17 20  2  0  0  0  0
 18 13  1  1  0  0  0
 19 18  1  0  0  0  0
 20 19  1  0  0  0  0
 21 23  1  0  0  0  0
 22 20  1  0  0  0  0
 22 15  1  0  0  0  0
 22 28  1  1  0  0  0
 24 23  1  6  0  0  0
 24 18  1  0  0  0  0
 25 26  1  0  0  0  0
 25 21  1  0  0  0  0
 28 27  1  0  0  0  0
 30 31  1  0  0  0  0
 30 29  1  0  0  0  0
 31 32  1  0  0  0  0
 32 35  1  0  0  0  0
 33 34  1  0  0  0  0
 33 32  1  0  0  0  0
 35 36  1  0  0  0  0
 37 36  1  6  0  0  0
 37 38  1  0  0  0  0
 37 52  1  0  0  0  0
 38 39  1  1  0  0  0
 40 42  1  0  0  0  0
 40 44  1  1  0  0  0
 41 38  1  6  0  0  0
 41 40  1  0  0  0  0
 41 42  1  0  0  0  0
 43 44  2  0  0  0  0
 45 47  1  0  0  0  0
 46 45  1  0  0  0  0
 47 43  1  1  0  0  0
 48 46  2  0  0  0  0
 49 47  1  0  0  0  0
 50 46  1  0  0  0  0
 50 49  1  0  0  0  0
 51 45  1  0  0  0  0
 53 52  1  0  0  0  0
 53 54  1  0  0  0  0
 54 55  1  0  0  0  0
M  END
>  <MODEL>
6

>  <REMARK>
 VINA RESULT:      -5.6      5.136     10.594
  Name = 
  23 active torsions:
  status: ('A' for Active; 'I' for Inactive)
    1  A    between atoms: C_5  and  C_8
    2  A    between atoms: C_5  and  C_34
    3  A    between atoms: C_6  and  C_34
    4  A    between atoms: C_7  and  C_50
    5  A    between atoms: C_8  and  C_14
    6  A    between atoms: C_9  and  C_26
    7  A    between atoms: C_12  and  N_23
    8  A    between atoms: C_12  and  C_38
    9  A    between atoms: C_14  and  C_51
   10  A    between atoms: C_17  and  C_20
   11  A    between atoms: C_19  and  C_40
   12  A    between atoms: C_20  and  C_45
   13  A    between atoms: C_22  and  C_51
   14  A    between atoms: N_23  and  C_30
   15  A    between atoms: N_23  and  C_31
   16  A    between atoms: O_28  and  C_34
   17  A    between atoms: O_28  and  C_46
   18  A    between atoms: C_30  and  C_46
   19  A    between atoms: C_32  and  C_36
   20  A    between atoms: C_32  and  O_54
   21  A    between atoms: S_37  and  C_39
   22  A    between atoms: C_38  and  C_45
   23  A    between atoms: C_45  and  O_54
                            x       y       z     vdW  Elec       q    Type
                         _______ _______ _______ _____ _____    ______ ____

>  <TORSDO>
F 23

$$$$
=
 OpenBabel11062418363D

 55 59  0  0  1  0  0  0  0  0999 V2000
  192.2830  174.1130  145.3480 C   0  0  2  0  0  3  0  0  0  0  0  0
  191.6810  173.4910  144.1210 C   0  0  0  0  0  0  0  0  0  0  0  0
  191.4820  173.2800  141.7280 C   0  0  0  0  0  3  0  0  0  0  0  0
  190.8080  172.4080  144.2660 C   0  0  0  0  0  3  0  0  0  0  0  0
  190.6260  172.2360  141.8950 N   0  0  0  0  0  0  0  0  0  0  0  0
  190.2820  171.7910  143.1310 C   0  0  0  0  0  3  0  0  0  0  0  0
  192.0320  173.9210  142.8370 C   0  0  0  0  0  3  0  0  0  0  0  0
  191.9070  175.5940  145.5000 C   0  0  2  0  0  3  0  0  0  0  0  0
  193.0430  176.4070  145.5650 O   0  0  0  0  0  1  0  0  0  0  0  0
  191.6660  175.4380  147.9940 C   0  0  0  0  0  1  0  0  0  0  0  0
  190.9840  175.8300  146.6940 C   0  0  2  0  0  3  0  0  0  0  0  0
  189.5760  175.2440  146.4850 C   0  0  0  0  0  2  0  0  0  0  0  0
  188.4690  176.2340  146.1320 C   0  0  1  0  0  3  0  0  0  0  0  0
  188.8960  177.5970  146.6570 C   0  0  0  0  0  1  0  0  0  0  0  0
  186.4800  176.1940  142.7000 C   0  0  1  0  0  3  0  0  0  0  0  0
  185.4620  177.2330  142.6280 N   0  0  0  0  0  0  0  0  0  0  0  0
  189.0460  178.5840  141.9530 O   0  0  0  0  0  0  0  0  0  0  0  0
  188.2490  176.2380  144.6090 C   0  0  2  0  0  3  0  0  0  0  0  0
  188.7700  177.4390  143.9630 N   0  0  0  0  0  2  0  0  0  0  0  0
  188.5390  177.6080  142.5650 C   0  0  0  0  0  0  0  0  0  0  0  0
  185.1950  177.6650  143.8110 C   0  0  0  0  0  0  0  0  0  0  0  0
  187.6860  176.6080  141.8370 C   0  0  1  0  0  3  0  0  0  0  0  0
  185.9230  177.0400  144.8540 N   0  0  0  0  0  2  0  0  0  0  0  0
  186.7680  176.0330  144.2250 C   0  0  1  0  0  3  0  0  0  0  0  0
  184.0360  178.9930  144.1070 S   0  0  0  0  0  0  0  0  0  0  0  0
  184.0700  178.7140  145.8990 C   0  0  0  0  0  1  0  0  0  0  0  0
  187.6600  174.1150  141.6270 C   0  0  0  0  0  1  0  0  0  0  0  0
  188.4950  175.3740  141.4530 C   0  0  0  0  0  2  0  0  0  0  0  0
  193.6710  173.9230  145.3470 O   0  0  0  0  0  0  0  0  0  0  0  0
  193.8640  172.5800  145.6910 C   0  0  0  0  0  2  0  0  0  0  0  0
  195.1590  172.0550  145.0890 C   0  0  0  0  0  2  0  0  0  0  0  0
  195.9500  173.1440  144.5450 N   0  0  0  0  0  0  0  0  0  0  0  0
  197.2330  173.0510  145.2320 C   0  0  0  0  0  2  0  0  0  0  0  0
  197.3880  171.7860  145.7780 F   0  0  0  0  0  0  0  0  0  0  0  0
  196.1840  172.7960  143.1510 C   0  0  0  0  0  2  0  0  0  0  0  0
  195.3390  173.6680  142.2300 C   0  0  0  0  0  2  0  0  0  0  0  0
  196.1830  174.2080  141.0830 C   0  0  1  0  0  3  0  0  0  0  0  0
  195.6380  173.6850  139.7520 C   0  0  1  0  0  3  0  0  0  0  0  0
  194.6550  172.7180  139.9810 O   0  0  0  0  0  1  0  0  0  0  0  0
  194.8510  174.3740  137.5370 C   0  0  2  0  0  3  0  0  0  0  0  0
  195.0300  174.8160  138.9380 C   0  0  2  0  0  3  0  0  0  0  0  0
  195.9220  175.2030  137.9200 O   0  0  0  0  0  0  0  0  0  0  0  0
  192.6200  174.7100  136.4960 C   0  0  0  0  0  3  0  0  0  0  0  0
  193.8050  175.2060  136.8670 C   0  0  0  0  0  3  0  0  0  0  0  0
  190.7870  173.1790  136.8510 N   0  0  0  0  0  0  0  0  0  0  0  0
  190.4200  172.1330  136.0060 C   0  0  0  0  0  0  0  0  0  0  0  0
  192.2300  173.2860  136.7370 C   0  0  1  0  0  3  0  0  0  0  0  0
  189.2460  171.6940  135.8870 O   0  0  0  0  0  0  0  0  0  0  0  0
  192.6640  172.4770  135.6510 O   0  0  0  0  0  0  0  0  0  0  0  0
  191.5920  171.6160  135.3000 C   0  0  0  0  0  2  0  0  0  0  0  0
  189.9980  173.6640  137.9700 C   0  0  0  0  0  1  0  0  0  0  0  0
  196.1490  175.6080  141.1030 O   0  0  0  0  0  0  0  0  0  0  0  0
  195.7740  175.9390  142.4100 C   0  0  0  0  0  2  0  0  0  0  0  0
  196.8210  176.8450  143.0270 C   0  0  0  0  0  2  0  0  0  0  0  0
  196.4040  177.2260  144.3040 O   0  0  0  0  0  1  0  0  0  0  0  0
  1 29  1  6  0  0  0
  1  8  1  0  0  0  0
  2  4  1  0  0  0  0
  2  1  1  0  0  0  0
  3  5  2  0  0  0  0
  3  7  1  0  0  0  0
  5  6  1  0  0  0  0
  6  4  2  0  0  0  0
  7  2  2  0  0  0  0
  8  9  1  1  0  0  0
  8 11  1  0  0  0  0
 11 10  1  1  0  0  0
 12 11  1  0  0  0  0
 13 12  1  0  0  0  0
 13 14  1  6  0  0  0
 15 16  1  1  0  0  0
 15 24  1  0  0  0  0
 16 21  2  0  0  0  0
 17 20  2  0  0  0  0
 18 13  1  1  0  0  0
 19 18  1  0  0  0  0
 20 19  1  0  0  0  0
 21 25  1  0  0  0  0
 21 23  1  0  0  0  0
 22 28  1  1  0  0  0
 22 20  1  0  0  0  0
 22 15  1  0  0  0  0
 24 18  1  0  0  0  0
 24 23  1  1  0  0  0
 25 26  1  0  0  0  0
 28 27  1  0  0  0  0
 29 30  1  0  0  0  0
 31 30  1  0  0  0  0
 32 31  1  0  0  0  0
 32 33  1  0  0  0  0
 33 34  1  0  0  0  0
 35 32  1  0  0  0  0
 36 35  1  0  0  0  0
 37 52  1  0  0  0  0
 37 36  1  1  0  0  0
 38 39  1  1  0  0  0
 38 37  1  0  0  0  0
 40 44  1  6  0  0  0
 40 42  1  0  0  0  0
 40 41  1  0  0  0  0
 41 38  1  1  0  0  0
 42 41  1  0  0  0  0
 43 44  2  0  0  0  0
 45 51  1  0  0  0  0
 46 45  1  0  0  0  0
 47 43  1  6  0  0  0
 47 45  1  0  0  0  0
 48 46  2  0  0  0  0
 49 47  1  0  0  0  0
 50 49  1  0  0  0  0
 50 46  1  0  0  0  0
 52 53  1  0  0  0  0
 53 54  1  0  0  0  0
 54 55  1  0  0  0  0
M  END
>  <MODEL>
7

>  <REMARK>
 VINA RESULT:      -5.6      4.337      7.073
  Name = 
  23 active torsions:
  status: ('A' for Active; 'I' for Inactive)
    1  A    between atoms: C_5  and  C_8
    2  A    between atoms: C_5  and  C_34
    3  A    between atoms: C_6  and  C_34
    4  A    between atoms: C_7  and  C_50
    5  A    between atoms: C_8  and  C_14
    6  A    between atoms: C_9  and  C_26
    7  A    between atoms: C_12  and  N_23
    8  A    between atoms: C_12  and  C_38
    9  A    between atoms: C_14  and  C_51
   10  A    between atoms: C_17  and  C_20
   11  A    between atoms: C_19  and  C_40
   12  A    between atoms: C_20  and  C_45
   13  A    between atoms: C_22  and  C_51
   14  A    between atoms: N_23  and  C_30
   15  A    between atoms: N_23  and  C_31
   16  A    between atoms: O_28  and  C_34
   17  A    between atoms: O_28  and  C_46
   18  A    between atoms: C_30  and  C_46
   19  A    between atoms: C_32  and  C_36
   20  A    between atoms: C_32  and  O_54
   21  A    between atoms: S_37  and  C_39
   22  A    between atoms: C_38  and  C_45
   23  A    between atoms: C_45  and  O_54
                            x       y       z     vdW  Elec       q    Type
                         _______ _______ _______ _____ _____    ______ ____

>  <TORSDO>
F 23

$$$$
=
 OpenBabel11062418363D

 55 59  0  0  1  0  0  0  0  0999 V2000
  188.4600  176.1990  142.1300 C   0  0  2  0  0  3  0  0  0  0  0  0
  187.2590  176.8970  141.5590 C   0  0  0  0  0  0  0  0  0  0  0  0
  185.3120  178.3000  141.7860 C   0  0  0  0  0  3  0  0  0  0  0  0
  187.0530  176.8750  140.1770 C   0  0  0  0  0  3  0  0  0  0  0  0
  185.1270  178.2540  140.4390 N   0  0  0  0  0  0  0  0  0  0  0  0
  185.9700  177.5610  139.6300 C   0  0  0  0  0  3  0  0  0  0  0  0
  186.3860  177.6310  142.3710 C   0  0  0  0  0  3  0  0  0  0  0  0
  188.1290  174.7910  142.6480 C   0  0  2  0  0  3  0  0  0  0  0  0
  188.7540  174.5360  143.8720 O   0  0  0  0  0  1  0  0  0  0  0  0
  188.9760  172.4550  142.2950 C   0  0  0  0  0  1  0  0  0  0  0  0
  188.4580  173.7120  141.6180 C   0  0  2  0  0  3  0  0  0  0  0  0
  189.3200  174.2390  140.4560 C   0  0  0  0  0  2  0  0  0  0  0  0
  189.8360  173.2010  139.4630 C   0  0  1  0  0  3  0  0  0  0  0  0
  189.1020  173.4290  138.1490 C   0  0  0  0  0  1  0  0  0  0  0  0
  193.6820  172.4270  140.0460 C   0  0  1  0  0  3  0  0  0  0  0  0
  194.0150  171.0280  139.8180 N   0  0  0  0  0  0  0  0  0  0  0  0
  193.6580  173.0500  136.5150 O   0  0  0  0  0  0  0  0  0  0  0  0
  191.3610  173.3470  139.3130 C   0  0  2  0  0  3  0  0  0  0  0  0
  191.8200  173.1330  137.9430 N   0  0  0  0  0  2  0  0  0  0  0  0
  193.2250  173.1420  137.6930 C   0  0  0  0  0  0  0  0  0  0  0  0
  192.9450  170.3140  139.8520 C   0  0  0  0  0  0  0  0  0  0  0  0
  194.1740  173.2640  138.8510 C   0  0  1  0  0  3  0  0  0  0  0  0
  191.7520  171.0370  140.1020 N   0  0  0  0  0  2  0  0  0  0  0  0
  192.1400  172.4300  140.2800 C   0  0  1  0  0  3  0  0  0  0  0  0
  192.9580  168.5530  139.5470 S   0  0  0  0  0  0  0  0  0  0  0  0
  192.0610  168.2110  141.0860 C   0  0  0  0  0  1  0  0  0  0  0  0
  195.0790  174.8090  140.6000 C   0  0  0  0  0  1  0  0  0  0  0  0
  194.3410  174.7190  139.2730 C   0  0  0  0  0  2  0  0  0  0  0  0
  189.0480  176.9960  143.1220 O   0  0  0  0  0  0  0  0  0  0  0  0
  189.7540  177.9880  142.4320 C   0  0  0  0  0  2  0  0  0  0  0  0
  191.0780  178.2800  143.1220 C   0  0  0  0  0  2  0  0  0  0  0  0
  191.5960  177.0840  143.7630 N   0  0  0  0  0  0  0  0  0  0  0  0
  192.5070  176.5020  142.7830 C   0  0  0  0  0  2  0  0  0  0  0  0
  191.8650  175.4960  142.0780 F   0  0  0  0  0  0  0  0  0  0  0  0
  192.4090  177.5590  144.8730 C   0  0  0  0  0  2  0  0  0  0  0  0
  193.5220  176.5660  145.1880 C   0  0  0  0  0  2  0  0  0  0  0  0
  193.0780  175.5920  146.2710 C   0  0  1  0  0  3  0  0  0  0  0  0
  191.7410  174.9580  145.8770 C   0  0  1  0  0  3  0  0  0  0  0  0
  191.9420  173.6510  145.4260 O   0  0  0  0  0  1  0  0  0  0  0  0
  189.5770  175.7090  146.7460 C   0  0  2  0  0  3  0  0  0  0  0  0
  190.7910  174.9250  147.0640 C   0  0  2  0  0  3  0  0  0  0  0  0
  190.6010  176.2300  147.5580 O   0  0  0  0  0  0  0  0  0  0  0  0
  187.3170  175.9800  147.7420 C   0  0  0  0  0  3  0  0  0  0  0  0
  188.4410  175.2680  147.6120 C   0  0  0  0  0  3  0  0  0  0  0  0
  185.8070  177.2360  146.3380 N   0  0  0  0  0  0  0  0  0  0  0  0
  185.1690  178.4260  146.6820 C   0  0  0  0  0  0  0  0  0  0  0  0
  187.0890  177.2680  147.0170 C   0  0  1  0  0  3  0  0  0  0  0  0
  184.0520  178.7910  146.2290 O   0  0  0  0  0  0  0  0  0  0  0  0
  187.0890  178.3490  147.9420 O   0  0  0  0  0  0  0  0  0  0  0  0
  185.9880  179.1860  147.6260 C   0  0  0  0  0  2  0  0  0  0  0  0
  185.5020  176.4340  145.1650 C   0  0  0  0  0  1  0  0  0  0  0  0
  194.0540  174.6010  146.4300 O   0  0  0  0  0  0  0  0  0  0  0  0
  195.2050  175.1310  145.8360 C   0  0  0  0  0  2  0  0  0  0  0  0
  196.2580  174.0500  145.7060 C   0  0  0  0  0  2  0  0  0  0  0  0
  196.3240  173.6300  144.3760 O   0  0  0  0  0  1  0  0  0  0  0  0
  1  8  1  0  0  0  0
  1 29  1  1  0  0  0
  2  1  1  0  0  0  0
  2  7  1  0  0  0  0
  3  7  2  0  0  0  0
  4  2  2  0  0  0  0
  5  3  1  0  0  0  0
  6  4  1  0  0  0  0
  6  5  2  0  0  0  0
  8  9  1  1  0  0  0
 11 10  1  1  0  0  0
 11  8  1  0  0  0  0
 12 11  1  0  0  0  0
 13 14  1  6  0  0  0
 13 12  1  0  0  0  0
 15 16  1  6  0  0  0
 15 24  1  0  0  0  0
 16 21  2  0  0  0  0
 17 20  2  0  0  0  0
 18 13  1  6  0  0  0
 18 24  1  0  0  0  0
 19 18  1  0  0  0  0
 20 19  1  0  0  0  0
 20 22  1  0  0  0  0
 21 23  1  0  0  0  0
 22 28  1  1  0  0  0
 22 15  1  0  0  0  0
 24 23  1  6  0  0  0
 25 21  1  0  0  0  0
 25 26  1  0  0  0  0
 28 27  1  0  0  0  0
 30 29  1  0  0  0  0
 30 31  1  0  0  0  0
 31 32  1  0  0  0  0
 32 35  1  0  0  0  0
 33 32  1  0  0  0  0
 34 33  1  0  0  0  0
 35 36  1  0  0  0  0
 37 36  1  6  0  0  0
 37 52  1  0  0  0  0
 38 39  1  1  0  0  0
 38 37  1  0  0  0  0
 40 41  1  0  0  0  0
 40 42  1  0  0  0  0
 40 44  1  1  0  0  0
 41 38  1  6  0  0  0
 41 42  1  0  0  0  0
 44 43  2  0  0  0  0
 45 46  1  0  0  0  0
 45 47  1  0  0  0  0
 46 50  1  0  0  0  0
 47 43  1  1  0  0  0
 47 49  1  0  0  0  0
 48 46  2  0  0  0  0
 50 49  1  0  0  0  0
 51 45  1  0  0  0  0
 53 52  1  0  0  0  0
 54 53  1  0  0  0  0
 55 54  1  0  0  0  0
M  END
>  <MODEL>
8

>  <REMARK>
 VINA RESULT:      -5.5      4.525      9.733
  Name = 
  23 active torsions:
  status: ('A' for Active; 'I' for Inactive)
    1  A    between atoms: C_5  and  C_8
    2  A    between atoms: C_5  and  C_34
    3  A    between atoms: C_6  and  C_34
    4  A    between atoms: C_7  and  C_50
    5  A    between atoms: C_8  and  C_14
    6  A    between atoms: C_9  and  C_26
    7  A    between atoms: C_12  and  N_23
    8  A    between atoms: C_12  and  C_38
    9  A    between atoms: C_14  and  C_51
   10  A    between atoms: C_17  and  C_20
   11  A    between atoms: C_19  and  C_40
   12  A    between atoms: C_20  and  C_45
   13  A    between atoms: C_22  and  C_51
   14  A    between atoms: N_23  and  C_30
   15  A    between atoms: N_23  and  C_31
   16  A    between atoms: O_28  and  C_34
   17  A    between atoms: O_28  and  C_46
   18  A    between atoms: C_30  and  C_46
   19  A    between atoms: C_32  and  C_36
   20  A    between atoms: C_32  and  O_54
   21  A    between atoms: S_37  and  C_39
   22  A    between atoms: C_38  and  C_45
   23  A    between atoms: C_45  and  O_54
                            x       y       z     vdW  Elec       q    Type
                         _______ _______ _______ _____ _____    ______ ____

>  <TORSDO>
F 23

$$$$
=
 OpenBabel11062418363D

 55 59  0  0  1  0  0  0  0  0999 V2000
  195.0570  173.3150  142.4690 C   0  0  2  0  0  3  0  0  0  0  0  0
  195.8290  172.8260  143.6590 C   0  0  0  0  0  0  0  0  0  0  0  0
  196.9370  173.1930  145.7690 C   0  0  0  0  0  3  0  0  0  0  0  0
  196.0520  171.4530  143.8080 C   0  0  0  0  0  3  0  0  0  0  0  0
  197.1500  171.8540  145.8850 N   0  0  0  0  0  0  0  0  0  0  0  0
  196.7240  170.9820  144.9350 C   0  0  0  0  0  3  0  0  0  0  0  0
  196.2640  173.7030  144.6590 C   0  0  0  0  0  3  0  0  0  0  0  0
  195.6340  174.6150  141.8890 C   0  0  2  0  0  3  0  0  0  0  0  0
  194.6390  175.3990  141.2970 O   0  0  0  0  0  1  0  0  0  0  0  0
  197.3830  175.6480  140.4140 C   0  0  0  0  0  1  0  0  0  0  0  0
  196.7830  174.3460  140.9180 C   0  0  2  0  0  3  0  0  0  0  0  0
  196.4170  173.3230  139.8290 C   0  0  0  0  0  2  0  0  0  0  0  0
  196.1080  173.8800  138.4420 C   0  0  1  0  0  3  0  0  0  0  0  0
  197.2150  173.4110  137.5090 C   0  0  0  0  0  1  0  0  0  0  0  0
  192.2670  174.1010  137.4800 C   0  0  1  0  0  3  0  0  0  0  0  0
  191.9970  175.1160  136.4710 N   0  0  0  0  0  0  0  0  0  0  0  0
  193.4540  171.8410  134.9620 O   0  0  0  0  0  0  0  0  0  0  0  0
  194.7200  173.3960  137.9910 C   0  0  2  0  0  3  0  0  0  0  0  0
  194.7270  172.8180  136.6500 N   0  0  0  0  0  2  0  0  0  0  0  0
  193.4810  172.4230  136.0770 C   0  0  0  0  0  0  0  0  0  0  0  0
  192.9830  175.9420  136.4080 C   0  0  0  0  0  0  0  0  0  0  0  0
  192.2090  172.7090  136.8230 C   0  0  1  0  0  3  0  0  0  0  0  0
  194.0440  175.6750  137.3080 N   0  0  0  0  0  2  0  0  0  0  0  0
  193.6480  174.5040  138.0810 C   0  0  1  0  0  3  0  0  0  0  0  0
  193.0330  177.2860  135.2310 S   0  0  0  0  0  0  0  0  0  0  0  0
  194.7690  176.9520  134.8220 C   0  0  0  0  0  1  0  0  0  0  0  0
  190.5560  171.8240  138.4800 C   0  0  0  0  0  1  0  0  0  0  0  0
  191.9440  171.6480  137.8840 C   0  0  0  0  0  2  0  0  0  0  0  0
  193.7020  173.4480  142.8010 O   0  0  0  0  0  0  0  0  0  0  0  0
  193.0910  172.2710  142.3500 C   0  0  0  0  0  2  0  0  0  0  0  0
  191.6350  172.2240  142.7880 C   0  0  0  0  0  2  0  0  0  0  0  0
  191.0310  173.5420  142.7040 N   0  0  0  0  0  0  0  0  0  0  0  0
  190.0010  173.4140  141.6790 C   0  0  0  0  0  2  0  0  0  0  0  0
  190.0930  174.4650  140.7810 F   0  0  0  0  0  0  0  0  0  0  0  0
  190.3490  173.7380  143.9750 C   0  0  0  0  0  2  0  0  0  0  0  0
  191.1610  174.6530  144.8850 C   0  0  0  0  0  2  0  0  0  0  0  0
  191.4030  175.9980  144.2120 C   0  0  1  0  0  3  0  0  0  0  0  0
  190.1450  176.8630  144.3260 C   0  0  1  0  0  3  0  0  0  0  0  0
  189.4950  176.9320  143.0900 O   0  0  0  0  0  1  0  0  0  0  0  0
  188.5090  177.3850  146.0720 C   0  0  2  0  0  3  0  0  0  0  0  0
  189.1850  176.2830  145.3510 C   0  0  2  0  0  3  0  0  0  0  0  0
  189.5780  176.6730  146.6460 O   0  0  0  0  0  0  0  0  0  0  0  0
  186.0300  177.2940  146.2120 C   0  0  0  0  0  3  0  0  0  0  0  0
  187.2240  176.8990  146.6630 C   0  0  0  0  0  3  0  0  0  0  0  0
  185.3780  177.5310  143.8990 N   0  0  0  0  0  0  0  0  0  0  0  0
  184.3090  178.2880  143.4240 C   0  0  0  0  0  0  0  0  0  0  0  0
  185.8730  178.2400  145.0640 C   0  0  1  0  0  3  0  0  0  0  0  0
  183.6610  178.0240  142.3770 O   0  0  0  0  0  0  0  0  0  0  0  0
  184.9440  179.2630  145.4050 O   0  0  0  0  0  0  0  0  0  0  0  0
  184.0650  179.4300  144.3050 C   0  0  0  0  0  2  0  0  0  0  0  0
  186.1440  176.5810  143.1100 C   0  0  0  0  0  1  0  0  0  0  0  0
  192.4860  176.6350  144.8300 O   0  0  0  0  0  0  0  0  0  0  0  0
  193.2200  175.6030  145.4240 C   0  0  0  0  0  2  0  0  0  0  0  0
  194.1250  176.1720  146.4980 C   0  0  0  0  0  2  0  0  0  0  0  0
  194.5480  177.4460  146.1160 O   0  0  0  0  0  1  0  0  0  0  0  0
  1 29  1  1  0  0  0
  1  2  1  0  0  0  0
  2  4  2  0  0  0  0
  2  7  1  0  0  0  0
  3  5  1  0  0  0  0
  4  6  1  0  0  0  0
  6  5  2  0  0  0  0
  7  3  2  0  0  0  0
  8  9  1  6  0  0  0
  8  1  1  0  0  0  0
 11 10  1  6  0  0  0
 11  8  1  0  0  0  0
 12 11  1  0  0  0  0
 13 14  1  6  0  0  0
 13 12  1  0  0  0  0
 15 16  1  6  0  0  0
 15 24  1  0  0  0  0
 17 20  2  0  0  0  0
 18 24  1  0  0  0  0
 18 13  1  6  0  0  0
 19 18  1  0  0  0  0
 20 19  1  0  0  0  0
 20 22  1  0  0  0  0
 21 16  2  0  0  0  0
 21 23  1  0  0  0  0
 22 15  1  0  0  0  0
 22 28  1  1  0  0  0
 24 23  1  6  0  0  0
 25 21  1  0  0  0  0
 26 25  1  0  0  0  0
 28 27  1  0  0  0  0
 30 31  1  0  0  0  0
 30 29  1  0  0  0  0
 32 31  1  0  0  0  0
 32 35  1  0  0  0  0
 33 32  1  0  0  0  0
 34 33  1  0  0  0  0
 35 36  1  0  0  0  0
 37 38  1  0  0  0  0
 37 52  1  0  0  0  0
 37 36  1  1  0  0  0
 38 39  1  6  0  0  0
 40 42  1  0  0  0  0
 40 44  1  1  0  0  0
 41 38  1  6  0  0  0
 41 40  1  0  0  0  0
 41 42  1  0  0  0  0
 43 44  2  0  0  0  0
 45 47  1  0  0  0  0
 46 45  1  0  0  0  0
 46 50  1  0  0  0  0
 47 49  1  0  0  0  0
 47 43  1  1  0  0  0
 48 46  2  0  0  0  0
 50 49  1  0  0  0  0
 51 45  1  0  0  0  0
 52 53  1  0  0  0  0
 53 54  1  0  0  0  0
 55 54  1  0  0  0  0
M  END
>  <MODEL>
9

>  <REMARK>
 VINA RESULT:      -5.4      4.271     10.861
  Name = 
  23 active torsions:
  status: ('A' for Active; 'I' for Inactive)
    1  A    between atoms: C_5  and  C_8
    2  A    between atoms: C_5  and  C_34
    3  A    between atoms: C_6  and  C_34
    4  A    between atoms: C_7  and  C_50
    5  A    between atoms: C_8  and  C_14
    6  A    between atoms: C_9  and  C_26
    7  A    between atoms: C_12  and  N_23
    8  A    between atoms: C_12  and  C_38
    9  A    between atoms: C_14  and  C_51
   10  A    between atoms: C_17  and  C_20
   11  A    between atoms: C_19  and  C_40
   12  A    between atoms: C_20  and  C_45
   13  A    between atoms: C_22  and  C_51
   14  A    between atoms: N_23  and  C_30
   15  A    between atoms: N_23  and  C_31
   16  A    between atoms: O_28  and  C_34
   17  A    between atoms: O_28  and  C_46
   18  A    between atoms: C_30  and  C_46
   19  A    between atoms: C_32  and  C_36
   20  A    between atoms: C_32  and  O_54
   21  A    between atoms: S_37  and  C_39
   22  A    between atoms: C_38  and  C_45
   23  A    between atoms: C_45  and  O_54
                            x       y       z     vdW  Elec       q    Type
                         _______ _______ _______ _____ _____    ______ ____

>  <TORSDO>
F 23

$$$$
