=
 OpenBabel11062422273D

 36 41  0  0  1  0  0  0  0  0999 V2000
  188.8530  175.9160  145.7460 C   0  0  0  0  0  0  0  0  0  0  0  0
  190.6850  173.4500  140.8340 C   0  0  0  0  0  3  0  0  0  0  0  0
  185.5730  177.4590  142.6170 C   0  0  0  0  0  3  0  0  0  0  0  0
  188.3230  176.9850  143.1460 C   0  0  2  0  0  3  0  0  0  0  0  0
  185.9730  177.4990  143.8610 N   0  0  0  0  0  0  0  0  0  0  0  0
  189.3220  175.9580  143.3840 N   0  0  0  0  0  0  0  0  0  0  0  0
  190.0070  173.2860  139.6900 C   0  0  0  0  0  0  0  0  0  0  0  0
  187.2730  177.0050  144.2120 C   0  0  0  0  0  0  0  0  0  0  0  0
  188.4990  175.5980  141.1870 N   0  0  0  0  0  0  0  0  0  0  0  0
  186.4230  176.8400  141.5680 C   0  0  0  0  0  2  0  0  0  0  0  0
  190.3970  174.2770  142.0090 C   0  0  0  0  0  3  0  0  0  0  0  0
  188.0670  174.9120  140.0100 C   0  0  0  0  0  3  0  0  0  0  0  0
  189.6810  175.5600  144.7250 C   0  0  0  0  0  0  0  0  0  0  0  0
  187.5520  176.5610  145.4390 C   0  0  0  0  0  3  0  0  0  0  0  0
  187.7100  176.5870  141.8470 C   0  0  1  0  0  3  0  0  0  0  0  0
  188.7160  173.9350  139.3830 C   0  0  0  0  0  3  0  0  0  0  0  0
  189.4540  175.2000  142.1710 C   0  0  0  0  0  0  0  0  0  0  0  0
  191.4770  172.4810  136.4410 C   0  0  0  0  0  2  0  0  0  0  0  0
  189.9840  171.0450  138.5130 C   0  0  0  0  0  2  0  0  0  0  0  0
  191.7430  172.7180  137.9240 C   0  0  0  0  0  2  0  0  0  0  0  0
  189.7120  170.8050  137.0310 C   0  0  0  0  0  2  0  0  0  0  0  0
  190.6910  170.8420  134.7500 C   0  0  0  0  0  1  0  0  0  0  0  0
  190.9810  171.0540  136.2190 C   0  0  1  0  0  3  0  0  0  0  0  0
  190.5490  172.3820  138.7030 N   0  0  0  0  0  0  0  0  0  0  0  0
  189.1410  175.6540  147.1270 N   0  0  0  0  0  2  0  0  0  0  0  0
  188.8940  174.4690  147.7320 O   0  0  0  0  0  1  0  0  0  0  0  0
  190.8060  173.5430  145.1690 O   0  0  0  0  0  0  0  0  0  0  0  0
  190.9160  174.7770  144.9380 C   0  0  0  0  0  0  0  0  0  0  0  0
  193.9760  176.7510  146.0580 C   0  0  0  0  0  0  0  0  0  0  0  0
  192.7150  176.1400  146.0820 C   0  0  0  0  0  0  0  0  0  0  0  0
  193.0720  175.3520  143.8180 C   0  0  0  0  0  3  0  0  0  0  0  0
  194.3260  175.9640  143.7990 C   0  0  0  0  0  3  0  0  0  0  0  0
  191.9630  176.2360  147.2070 F   0  0  0  0  0  0  0  0  0  0  0  0
  194.4230  177.4320  147.1410 F   0  0  0  0  0  0  0  0  0  0  0  0
  194.7780  176.6640  144.9180 C   0  0  0  0  0  3  0  0  0  0  0  0
  192.2510  175.4280  144.9550 C   0  0  0  0  0  0  0  0  0  0  0  0
  1 25  1  0  0  0  0
  2 11  1  0  0  0  0
  3  5  2  0  0  0  0
  4  6  1  0  0  0  0
  4  8  1  1  0  0  0
  5  8  1  0  0  0  0
  6 13  1  0  0  0  0
  7  2  2  0  0  0  0
  8 14  2  0  0  0  0
  9 15  1  0  0  0  0
  9 17  1  0  0  0  0
 10  3  1  0  0  0  0
 11 17  2  0  0  0  0
 12  9  1  0  0  0  0
 13 28  1  0  0  0  0
 13  1  2  0  0  0  0
 14  1  1  0  0  0  0
 15 10  1  1  0  0  0
 15  4  1  0  0  0  0
 16  7  1  0  0  0  0
 16 12  2  0  0  0  0
 17  6  1  0  0  0  0
 18 20  1  0  0  0  0
 19 24  1  0  0  0  0
 20 24  1  0  0  0  0
 21 19  1  0  0  0  0
 23 22  1  6  0  0  0
 23 18  1  0  0  0  0
 23 21  1  0  0  0  0
 24  7  1  0  0  0  0
 25 26  1  0  0  0  0
 28 36  1  0  0  0  0
 28 27  2  0  0  0  0
 29 30  1  0  0  0  0
 29 34  1  0  0  0  0
 30 33  1  0  0  0  0
 31 36  1  0  0  0  0
 32 31  2  0  0  0  0
 32 35  1  0  0  0  0
 35 29  2  0  0  0  0
 36 30  2  0  0  0  0
M  END
>  <MODEL>
1

>  <REMARK>
 VINA RESULT:      -8.0      0.000      0.000
  Name = 
  4 active torsions:
  status: ('A' for Active; 'I' for Inactive)
    1  A    between atoms: C_2  and  N_16
    2  A    between atoms: C_12  and  N_35
    3  A    between atoms: C_26  and  C_29
    4  A    between atoms: C_29  and  C_31
                            x       y       z     vdW  Elec       q    Type
                         _______ _______ _______ _____ _____    ______ ____

>  <TORSDO>
F 4

$$$$
=
 OpenBabel11062422273D

 36 41  0  0  1  0  0  0  0  0999 V2000
  191.7140  176.2070  146.9410 C   0  0  0  0  0  0  0  0  0  0  0  0
  189.9530  173.5190  142.1190 C   0  0  0  0  0  3  0  0  0  0  0  0
  195.8540  175.6030  144.6130 C   0  0  0  0  0  3  0  0  0  0  0  0
  193.3790  174.4590  145.4060 C   0  0  2  0  0  3  0  0  0  0  0  0
  195.2910  176.0570  145.7010 N   0  0  0  0  0  0  0  0  0  0  0  0
  191.9380  174.5210  145.2350 N   0  0  0  0  0  0  0  0  0  0  0  0
  190.6250  173.3600  140.9710 C   0  0  0  0  0  0  0  0  0  0  0  0
  193.9300  175.7180  145.9990 C   0  0  0  0  0  0  0  0  0  0  0  0
  192.8420  173.9430  143.1170 N   0  0  0  0  0  0  0  0  0  0  0  0
  195.0770  174.7930  143.6390 C   0  0  0  0  0  2  0  0  0  0  0  0
  190.4090  173.9440  143.4460 C   0  0  0  0  0  3  0  0  0  0  0  0
  193.0120  173.8880  141.6990 C   0  0  0  0  0  3  0  0  0  0  0  0
  191.1100  175.2890  146.1360 C   0  0  0  0  0  0  0  0  0  0  0  0
  193.1590  176.4930  146.7650 C   0  0  0  0  0  3  0  0  0  0  0  0
  193.8920  174.2930  144.0170 C   0  0  1  0  0  3  0  0  0  0  0  0
  192.0660  173.6380  140.8000 C   0  0  0  0  0  3  0  0  0  0  0  0
  191.6510  174.1350  143.8810 C   0  0  0  0  0  0  0  0  0  0  0  0
  190.2250  171.4980  137.8500 C   0  0  0  0  0  2  0  0  0  0  0  0
  188.9910  173.8430  139.0990 C   0  0  0  0  0  2  0  0  0  0  0  0
  189.9230  171.5380  139.3450 C   0  0  0  0  0  2  0  0  0  0  0  0
  189.2930  173.8090  137.6040 C   0  0  0  0  0  2  0  0  0  0  0  0
  189.5610  172.3490  135.6140 C   0  0  0  0  0  1  0  0  0  0  0  0
  189.2310  172.3720  137.0910 C   0  0  1  0  0  3  0  0  0  0  0  0
  189.8880  172.9290  139.8070 N   0  0  0  0  0  0  0  0  0  0  0  0
  191.0140  176.9710  147.9330 N   0  0  0  0  0  2  0  0  0  0  0  0
  191.6150  177.5290  149.0100 O   0  0  0  0  0  1  0  0  0  0  0  0
  189.2250  173.9270  146.4880 O   0  0  0  0  0  0  0  0  0  0  0  0
  189.6510  175.0620  146.1420 C   0  0  0  0  0  0  0  0  0  0  0  0
  186.6870  177.4500  145.9770 C   0  0  0  0  0  0  0  0  0  0  0  0
  187.5660  176.4650  146.4450 C   0  0  0  0  0  0  0  0  0  0  0  0
  188.9260  176.7590  144.4590 C   0  0  0  0  0  3  0  0  0  0  0  0
  188.0460  177.7390  143.9980 C   0  0  0  0  0  3  0  0  0  0  0  0
  187.3100  175.8730  147.6390 F   0  0  0  0  0  0  0  0  0  0  0  0
  185.5980  177.7930  146.7070 F   0  0  0  0  0  0  0  0  0  0  0  0
  186.9270  178.0840  144.7560 C   0  0  0  0  0  3  0  0  0  0  0  0
  188.7020  176.1110  145.6860 C   0  0  0  0  0  0  0  0  0  0  0  0
  1 25  1  0  0  0  0
  2 11  1  0  0  0  0
  3  5  2  0  0  0  0
  4  8  1  6  0  0  0
  5  8  1  0  0  0  0
  6  4  1  0  0  0  0
  6 13  1  0  0  0  0
  7  2  2  0  0  0  0
  8 14  2  0  0  0  0
  9 17  1  0  0  0  0
  9 15  1  0  0  0  0
 10  3  1  0  0  0  0
 11 17  2  0  0  0  0
 12  9  1  0  0  0  0
 13 28  1  0  0  0  0
 13  1  2  0  0  0  0
 14  1  1  0  0  0  0
 15 10  1  6  0  0  0
 15  4  1  0  0  0  0
 16  7  1  0  0  0  0
 16 12  2  0  0  0  0
 17  6  1  0  0  0  0
 18 20  1  0  0  0  0
 19 24  1  0  0  0  0
 20 24  1  0  0  0  0
 21 19  1  0  0  0  0
 23 22  1  6  0  0  0
 23 21  1  0  0  0  0
 23 18  1  0  0  0  0
 24  7  1  0  0  0  0
 25 26  1  0  0  0  0
 28 27  2  0  0  0  0
 29 30  1  0  0  0  0
 29 34  1  0  0  0  0
 30 33  1  0  0  0  0
 31 36  1  0  0  0  0
 32 31  2  0  0  0  0
 32 35  1  0  0  0  0
 35 29  2  0  0  0  0
 36 28  1  0  0  0  0
 36 30  2  0  0  0  0
M  END
>  <MODEL>
2

>  <REMARK>
 VINA RESULT:      -8.0      2.482      5.160
  Name = 
  4 active torsions:
  status: ('A' for Active; 'I' for Inactive)
    1  A    between atoms: C_2  and  N_16
    2  A    between atoms: C_12  and  N_35
    3  A    between atoms: C_26  and  C_29
    4  A    between atoms: C_29  and  C_31
                            x       y       z     vdW  Elec       q    Type
                         _______ _______ _______ _____ _____    ______ ____

>  <TORSDO>
F 4

$$$$
=
 OpenBabel11062422273D

 36 41  0  0  1  0  0  0  0  0999 V2000
  188.0200  176.9280  145.7510 C   0  0  0  0  0  0  0  0  0  0  0  0
  190.1740  172.7980  142.3040 C   0  0  0  0  0  3  0  0  0  0  0  0
  186.2910  178.2410  141.4830 C   0  0  0  0  0  3  0  0  0  0  0  0
  188.5270  177.3010  142.9600 C   0  0  2  0  0  3  0  0  0  0  0  0
  186.3540  178.5400  142.7540 N   0  0  0  0  0  0  0  0  0  0  0  0
  189.0620  176.1800  143.7120 N   0  0  0  0  0  0  0  0  0  0  0  0
  189.7920  172.4800  141.0600 C   0  0  0  0  0  0  0  0  0  0  0  0
  187.3020  177.8740  143.6000 C   0  0  0  0  0  0  0  0  0  0  0  0
  188.7520  175.4120  141.4870 N   0  0  0  0  0  0  0  0  0  0  0  0
  187.1420  177.1650  140.9150 C   0  0  0  0  0  2  0  0  0  0  0  0
  189.8700  173.9710  143.1300 C   0  0  0  0  0  3  0  0  0  0  0  0
  188.4420  174.5400  140.3980 C   0  0  0  0  0  3  0  0  0  0  0  0
  188.9260  176.1090  145.1480 C   0  0  0  0  0  0  0  0  0  0  0  0
  187.1080  177.7470  144.9150 C   0  0  0  0  0  3  0  0  0  0  0  0
  188.1710  176.7050  141.6420 C   0  0  1  0  0  3  0  0  0  0  0  0
  188.8900  173.3000  140.2260 C   0  0  0  0  0  3  0  0  0  0  0  0
  189.2530  175.0970  142.7870 C   0  0  0  0  0  0  0  0  0  0  0  0
  192.1470  169.6980  140.7720 C   0  0  0  0  0  2  0  0  0  0  0  0
  190.0900  170.9250  139.0850 C   0  0  0  0  0  2  0  0  0  0  0  0
  190.8190  170.1740  141.3540 C   0  0  0  0  0  2  0  0  0  0  0  0
  191.4160  170.4510  138.4990 C   0  0  0  0  0  2  0  0  0  0  0  0
  193.2900  168.8420  138.7420 C   0  0  0  0  0  1  0  0  0  0  0  0
  191.9620  169.2820  139.3160 C   0  0  1  0  0  3  0  0  0  0  0  0
  190.2570  171.2290  140.5070 N   0  0  0  0  0  0  0  0  0  0  0  0
  187.8520  177.0110  147.1730 N   0  0  0  0  0  2  0  0  0  0  0  0
  186.6910  177.3670  147.7710 O   0  0  0  0  0  1  0  0  0  0  0  0
  189.1830  174.1960  146.4920 O   0  0  0  0  0  0  0  0  0  0  0  0
  189.7590  175.1500  145.9040 C   0  0  0  0  0  0  0  0  0  0  0  0
  193.1650  176.5360  146.8970 C   0  0  0  0  0  0  0  0  0  0  0  0
  191.7750  176.3840  146.8050 C   0  0  0  0  0  0  0  0  0  0  0  0
  192.0980  174.4620  145.3640 C   0  0  0  0  0  3  0  0  0  0  0  0
  193.4810  174.6200  145.4580 C   0  0  0  0  0  3  0  0  0  0  0  0
  190.9770  177.2510  147.4780 F   0  0  0  0  0  0  0  0  0  0  0  0
  193.6930  177.5410  147.6390 F   0  0  0  0  0  0  0  0  0  0  0  0
  194.0150  175.6560  146.2240 C   0  0  0  0  0  3  0  0  0  0  0  0
  191.2270  175.3370  146.0350 C   0  0  0  0  0  0  0  0  0  0  0  0
  1 25  1  0  0  0  0
  2 11  1  0  0  0  0
  3  5  2  0  0  0  0
  4  8  1  1  0  0  0
  4  6  1  0  0  0  0
  5  8  1  0  0  0  0
  6 13  1  0  0  0  0
  7  2  2  0  0  0  0
  8 14  2  0  0  0  0
  9 15  1  0  0  0  0
  9 17  1  0  0  0  0
 10  3  1  0  0  0  0
 12  9  1  0  0  0  0
 13  1  2  0  0  0  0
 13 28  1  0  0  0  0
 14  1  1  0  0  0  0
 15 10  1  1  0  0  0
 15  4  1  0  0  0  0
 16 12  2  0  0  0  0
 16  7  1  0  0  0  0
 17 11  2  0  0  0  0
 17  6  1  0  0  0  0
 18 20  1  0  0  0  0
 19 24  1  0  0  0  0
 21 19  1  0  0  0  0
 21 23  1  0  0  0  0
 23 22  1  6  0  0  0
 23 18  1  0  0  0  0
 24  7  1  0  0  0  0
 24 20  1  0  0  0  0
 25 26  1  0  0  0  0
 28 36  1  0  0  0  0
 28 27  2  0  0  0  0
 29 34  1  0  0  0  0
 30 29  1  0  0  0  0
 30 33  1  0  0  0  0
 31 32  2  0  0  0  0
 31 36  1  0  0  0  0
 32 35  1  0  0  0  0
 35 29  2  0  0  0  0
 36 30  2  0  0  0  0
M  END
>  <MODEL>
3

>  <REMARK>
 VINA RESULT:      -7.9      1.674      2.127
  Name = 
  4 active torsions:
  status: ('A' for Active; 'I' for Inactive)
    1  A    between atoms: C_2  and  N_16
    2  A    between atoms: C_12  and  N_35
    3  A    between atoms: C_26  and  C_29
    4  A    between atoms: C_29  and  C_31
                            x       y       z     vdW  Elec       q    Type
                         _______ _______ _______ _____ _____    ______ ____

>  <TORSDO>
F 4

$$$$
=
 OpenBabel11062422273D

 36 41  0  0  1  0  0  0  0  0999 V2000
  187.5400  176.6780  145.4420 C   0  0  0  0  0  0  0  0  0  0  0  0
  190.0550  173.4800  141.3170 C   0  0  0  0  0  3  0  0  0  0  0  0
  185.2830  178.2300  141.5150 C   0  0  0  0  0  3  0  0  0  0  0  0
  187.7540  177.5020  142.7110 C   0  0  2  0  0  3  0  0  0  0  0  0
  185.3990  178.3640  142.8110 N   0  0  0  0  0  0  0  0  0  0  0  0
  188.5230  176.4000  143.2610 N   0  0  0  0  0  0  0  0  0  0  0  0
  189.6320  173.2690  140.0640 C   0  0  0  0  0  0  0  0  0  0  0  0
  186.5070  177.7640  143.4960 C   0  0  0  0  0  0  0  0  0  0  0  0
  188.1650  175.8930  140.9690 N   0  0  0  0  0  0  0  0  0  0  0  0
  186.2500  177.4030  140.7500 C   0  0  0  0  0  2  0  0  0  0  0  0
  189.6310  174.4610  142.3200 C   0  0  0  0  0  3  0  0  0  0  0  0
  187.9140  175.1340  139.7850 C   0  0  0  0  0  3  0  0  0  0  0  0
  188.5170  176.1160  144.6770 C   0  0  0  0  0  0  0  0  0  0  0  0
  186.4430  177.4310  144.7870 C   0  0  0  0  0  3  0  0  0  0  0  0
  187.3960  177.0350  141.3430 C   0  0  1  0  0  3  0  0  0  0  0  0
  188.5440  174.0250  139.4100 C   0  0  0  0  0  3  0  0  0  0  0  0
  188.8130  175.5000  142.1790 C   0  0  0  0  0  0  0  0  0  0  0  0
  189.5960  170.4980  137.6780 C   0  0  0  0  0  2  0  0  0  0  0  0
  191.2980  171.3700  139.8980 C   0  0  0  0  0  2  0  0  0  0  0  0
  189.9260  171.9710  137.8990 C   0  0  0  0  0  2  0  0  0  0  0  0
  190.9710  169.8960  139.6830 C   0  0  0  0  0  2  0  0  0  0  0  0
  190.3810  168.1660  138.0030 C   0  0  0  0  0  1  0  0  0  0  0  0
  190.7340  169.6240  138.1990 C   0  0  1  0  0  3  0  0  0  0  0  0
  190.2480  172.2020  139.3100 N   0  0  0  0  0  0  0  0  0  0  0  0
  187.4750  176.5400  146.8690 N   0  0  0  0  0  2  0  0  0  0  0  0
  186.3870  176.8640  147.6050 O   0  0  0  0  0  1  0  0  0  0  0  0
  189.2950  173.9920  145.3220 O   0  0  0  0  0  0  0  0  0  0  0  0
  189.5520  175.2230  145.2370 C   0  0  0  0  0  0  0  0  0  0  0  0
  193.1000  176.5990  145.4260 C   0  0  0  0  0  0  0  0  0  0  0  0
  191.8980  176.1080  144.8970 C   0  0  0  0  0  0  0  0  0  0  0  0
  191.0110  175.9090  147.1440 C   0  0  0  0  0  3  0  0  0  0  0  0
  192.2110  176.3970  147.6650 C   0  0  0  0  0  3  0  0  0  0  0  0
  191.7770  175.9880  143.5510 F   0  0  0  0  0  0  0  0  0  0  0  0
  194.1200  176.9370  144.5990 F   0  0  0  0  0  0  0  0  0  0  0  0
  193.2540  176.7410  146.8060 C   0  0  0  0  0  3  0  0  0  0  0  0
  190.8360  175.7590  145.7580 C   0  0  0  0  0  0  0  0  0  0  0  0
  1 25  1  0  0  0  0
  2 11  1  0  0  0  0
  3  5  2  0  0  0  0
  4  6  1  0  0  0  0
  4  8  1  1  0  0  0
  5  8  1  0  0  0  0
  6 13  1  0  0  0  0
  7  2  2  0  0  0  0
  8 14  2  0  0  0  0
  9 15  1  0  0  0  0
  9 17  1  0  0  0  0
 10  3  1  0  0  0  0
 12  9  1  0  0  0  0
 13 28  1  0  0  0  0
 13  1  2  0  0  0  0
 14  1  1  0  0  0  0
 15 10  1  1  0  0  0
 15  4  1  0  0  0  0
 16 12  2  0  0  0  0
 16  7  1  0  0  0  0
 17 11  2  0  0  0  0
 17  6  1  0  0  0  0
 18 20  1  0  0  0  0
 18 23  1  0  0  0  0
 20 24  1  0  0  0  0
 21 19  1  0  0  0  0
 23 22  1  1  0  0  0
 23 21  1  0  0  0  0
 24 19  1  0  0  0  0
 24  7  1  0  0  0  0
 25 26  1  0  0  0  0
 28 27  2  0  0  0  0
 28 36  1  0  0  0  0
 29 35  1  0  0  0  0
 30 29  2  0  0  0  0
 30 36  1  0  0  0  0
 31 32  1  0  0  0  0
 33 30  1  0  0  0  0
 34 29  1  0  0  0  0
 35 32  2  0  0  0  0
 36 31  2  0  0  0  0
M  END
>  <MODEL>
4

>  <REMARK>
 VINA RESULT:      -7.9      1.531      2.082
  Name = 
  4 active torsions:
  status: ('A' for Active; 'I' for Inactive)
    1  A    between atoms: C_2  and  N_16
    2  A    between atoms: C_12  and  N_35
    3  A    between atoms: C_26  and  C_29
    4  A    between atoms: C_29  and  C_31
                            x       y       z     vdW  Elec       q    Type
                         _______ _______ _______ _____ _____    ______ ____

>  <TORSDO>
F 4

$$$$
=
 OpenBabel11062422273D

 36 41  0  0  1  0  0  0  0  0999 V2000
  193.8910  174.0020  140.3050 C   0  0  0  0  0  0  0  0  0  0  0  0
  189.7180  176.6970  143.2890 C   0  0  0  0  0  3  0  0  0  0  0  0
  190.0030  171.5690  138.9290 C   0  0  0  0  0  3  0  0  0  0  0  0
  191.4370  172.7500  141.0770 C   0  0  2  0  0  3  0  0  0  0  0  0
  191.3020  171.6730  138.8140 N   0  0  0  0  0  0  0  0  0  0  0  0
  191.8910  174.0060  141.6480 N   0  0  0  0  0  0  0  0  0  0  0  0
  188.3950  176.6440  143.0880 C   0  0  0  0  0  0  0  0  0  0  0  0
  192.0380  172.4950  139.7300 C   0  0  0  0  0  0  0  0  0  0  0  0
  189.5180  174.0720  141.6800 N   0  0  0  0  0  0  0  0  0  0  0  0
  189.2690  172.3520  139.9560 C   0  0  0  0  0  2  0  0  0  0  0  0
  190.8020  175.8620  142.7630 C   0  0  0  0  0  3  0  0  0  0  0  0
  188.1870  174.5860  141.5950 C   0  0  0  0  0  3  0  0  0  0  0  0
  193.2080  174.5260  141.3610 C   0  0  0  0  0  0  0  0  0  0  0  0
  193.2140  173.0360  139.4060 C   0  0  0  0  0  3  0  0  0  0  0  0
  189.9650  172.9350  140.9420 C   0  0  1  0  0  3  0  0  0  0  0  0
  187.7220  175.6750  142.1980 C   0  0  0  0  0  3  0  0  0  0  0  0
  190.7240  174.7330  142.0640 C   0  0  0  0  0  0  0  0  0  0  0  0
  186.3160  177.8540  145.8410 C   0  0  0  0  0  2  0  0  0  0  0  0
  186.6380  178.4640  142.9940 C   0  0  0  0  0  2  0  0  0  0  0  0
  187.6930  177.8940  145.1860 C   0  0  0  0  0  2  0  0  0  0  0  0
  185.2580  178.4240  143.6440 C   0  0  0  0  0  2  0  0  0  0  0  0
  183.9950  178.7310  145.7590 C   0  0  0  0  0  1  0  0  0  0  0  0
  185.3640  178.8040  145.1190 C   0  0  1  0  0  3  0  0  0  0  0  0
  187.5670  177.6250  143.7510 N   0  0  0  0  0  0  0  0  0  0  0  0
  195.2350  174.3740  139.9700 N   0  0  0  0  0  2  0  0  0  0  0  0
  195.5460  175.2690  139.0030 O   0  0  0  0  0  1  0  0  0  0  0  0
  193.7870  176.7750  141.7340 O   0  0  0  0  0  0  0  0  0  0  0  0
  193.7550  175.6060  142.2070 C   0  0  0  0  0  0  0  0  0  0  0  0
  194.5890  175.8440  145.9160 C   0  0  0  0  0  0  0  0  0  0  0  0
  194.0240  176.1330  144.6670 C   0  0  0  0  0  0  0  0  0  0  0  0
  195.1990  174.2380  143.7160 C   0  0  0  0  0  3  0  0  0  0  0  0
  195.7590  173.9550  144.9630 C   0  0  0  0  0  3  0  0  0  0  0  0
  193.1800  177.1900  144.5600 F   0  0  0  0  0  0  0  0  0  0  0  0
  194.2980  176.6180  146.9910 F   0  0  0  0  0  0  0  0  0  0  0  0
  195.4540  174.7580  146.0620 C   0  0  0  0  0  3  0  0  0  0  0  0
  194.3240  175.3240  143.5500 C   0  0  0  0  0  0  0  0  0  0  0  0
  1 13  2  0  0  0  0
  3 10  1  0  0  0  0
  4  8  1  6  0  0  0
  4  6  1  0  0  0  0
  5  3  2  0  0  0  0
  5  8  1  0  0  0  0
  6 17  1  0  0  0  0
  7  2  2  0  0  0  0
  7 24  1  0  0  0  0
  9 17  1  0  0  0  0
 11  2  1  0  0  0  0
 12  9  1  0  0  0  0
 12 16  2  0  0  0  0
 13  6  1  0  0  0  0
 13 28  1  0  0  0  0
 14  8  2  0  0  0  0
 14  1  1  0  0  0  0
 15 10  1  6  0  0  0
 15  4  1  0  0  0  0
 15  9  1  0  0  0  0
 16  7  1  0  0  0  0
 17 11  2  0  0  0  0
 19 21  1  0  0  0  0
 19 24  1  0  0  0  0
 20 18  1  0  0  0  0
 21 23  1  0  0  0  0
 23 22  1  1  0  0  0
 23 18  1  0  0  0  0
 24 20  1  0  0  0  0
 25  1  1  0  0  0  0
 26 25  1  0  0  0  0
 27 28  2  0  0  0  0
 28 36  1  0  0  0  0
 29 35  1  0  0  0  0
 29 34  1  0  0  0  0
 30 29  2  0  0  0  0
 31 32  1  0  0  0  0
 32 35  2  0  0  0  0
 33 30  1  0  0  0  0
 36 31  2  0  0  0  0
 36 30  1  0  0  0  0
M  END
>  <MODEL>
5

>  <REMARK>
 VINA RESULT:      -7.8      2.596      6.976
  Name = 
  4 active torsions:
  status: ('A' for Active; 'I' for Inactive)
    1  A    between atoms: C_2  and  N_16
    2  A    between atoms: C_12  and  N_35
    3  A    between atoms: C_26  and  C_29
    4  A    between atoms: C_29  and  C_31
                            x       y       z     vdW  Elec       q    Type
                         _______ _______ _______ _____ _____    ______ ____

>  <TORSDO>
F 4

$$$$
=
 OpenBabel11062422273D

 36 41  0  0  1  0  0  0  0  0999 V2000
  192.4180  171.9010  144.2160 C   0  0  0  0  0  0  0  0  0  0  0  0
  188.5490  176.0640  143.0860 C   0  0  0  0  0  3  0  0  0  0  0  0
  194.6070  175.7600  146.0170 C   0  0  0  0  0  3  0  0  0  0  0  0
  193.1120  174.6540  143.8700 C   0  0  2  0  0  3  0  0  0  0  0  0
  194.7010  174.4730  145.8040 N   0  0  0  0  0  0  0  0  0  0  0  0
  191.8200  174.1150  143.4820 N   0  0  0  0  0  0  0  0  0  0  0  0
  188.4830  177.2940  143.6130 C   0  0  0  0  0  0  0  0  0  0  0  0
  193.7740  173.8230  144.9240 C   0  0  0  0  0  0  0  0  0  0  0  0
  191.4490  176.3790  144.0920 N   0  0  0  0  0  0  0  0  0  0  0  0
  193.5040  176.5480  145.4120 C   0  0  0  0  0  2  0  0  0  0  0  0
  189.6210  175.0640  143.1170 C   0  0  0  0  0  3  0  0  0  0  0  0
  190.8090  177.5370  144.6330 C   0  0  0  0  0  3  0  0  0  0  0  0
  191.5620  172.6950  143.5160 C   0  0  0  0  0  0  0  0  0  0  0  0
  193.4870  172.5240  145.0350 C   0  0  0  0  0  3  0  0  0  0  0  0
  192.7820  175.9970  144.4250 C   0  0  1  0  0  3  0  0  0  0  0  0
  189.5520  177.9160  144.4210 C   0  0  0  0  0  3  0  0  0  0  0  0
  190.8700  175.1900  143.5540 C   0  0  0  0  0  0  0  0  0  0  0  0
  184.9240  177.9650  144.1070 C   0  0  0  0  0  2  0  0  0  0  0  0
  186.9640  178.6660  142.1250 C   0  0  0  0  0  2  0  0  0  0  0  0
  186.3460  178.3260  144.5220 C   0  0  0  0  0  2  0  0  0  0  0  0
  185.5430  178.3040  141.7050 C   0  0  0  0  0  2  0  0  0  0  0  0
  183.1570  178.2900  142.3930 C   0  0  0  0  0  1  0  0  0  0  0  0
  184.5590  178.6810  142.8100 C   0  0  1  0  0  3  0  0  0  0  0  0
  187.2700  178.0520  143.4170 N   0  0  0  0  0  0  0  0  0  0  0  0
  192.3160  170.4700  144.2570 N   0  0  0  0  0  2  0  0  0  0  0  0
  192.9360  169.6500  143.3770 O   0  0  0  0  0  1  0  0  0  0  0  0
  189.4050  171.7550  143.4940 O   0  0  0  0  0  0  0  0  0  0  0  0
  190.3810  172.1610  142.8060 C   0  0  0  0  0  0  0  0  0  0  0  0
  189.2560  172.2930  139.1690 C   0  0  0  0  0  0  0  0  0  0  0  0
  189.2460  172.4410  140.5620 C   0  0  0  0  0  0  0  0  0  0  0  0
  191.4670  171.4760  140.6650 C   0  0  0  0  0  3  0  0  0  0  0  0
  191.4710  171.3300  139.2770 C   0  0  0  0  0  3  0  0  0  0  0  0
  188.1550  172.9910  141.1530 F   0  0  0  0  0  0  0  0  0  0  0  0
  188.1880  172.6870  138.4330 F   0  0  0  0  0  0  0  0  0  0  0  0
  190.3670  171.7380  138.5290 C   0  0  0  0  0  3  0  0  0  0  0  0
  190.3600  172.0330  141.3260 C   0  0  0  0  0  0  0  0  0  0  0  0
  1 25  1  0  0  0  0
  1 14  1  0  0  0  0
  2 11  1  0  0  0  0
  2  7  2  0  0  0  0
  4 15  1  0  0  0  0
  4  8  1  1  0  0  0
  5  3  2  0  0  0  0
  6 13  1  0  0  0  0
  6 17  1  0  0  0  0
  6  4  1  0  0  0  0
  7 16  1  0  0  0  0
  8 14  2  0  0  0  0
  8  5  1  0  0  0  0
  9 15  1  0  0  0  0
  9 12  1  0  0  0  0
 10  3  1  0  0  0  0
 11 17  2  0  0  0  0
 13  1  2  0  0  0  0
 15 10  1  1  0  0  0
 16 12  2  0  0  0  0
 17  9  1  0  0  0  0
 18 20  1  0  0  0  0
 19 24  1  0  0  0  0
 21 19  1  0  0  0  0
 21 23  1  0  0  0  0
 23 22  1  6  0  0  0
 23 18  1  0  0  0  0
 24  7  1  0  0  0  0
 24 20  1  0  0  0  0
 26 25  1  0  0  0  0
 28 27  2  0  0  0  0
 28 13  1  0  0  0  0
 29 30  1  0  0  0  0
 30 33  1  0  0  0  0
 30 36  2  0  0  0  0
 31 36  1  0  0  0  0
 32 31  2  0  0  0  0
 34 29  1  0  0  0  0
 35 29  2  0  0  0  0
 35 32  1  0  0  0  0
 36 28  1  0  0  0  0
M  END
>  <MODEL>
6

>  <REMARK>
 VINA RESULT:      -7.8      3.215      7.585
  Name = 
  4 active torsions:
  status: ('A' for Active; 'I' for Inactive)
    1  A    between atoms: C_2  and  N_16
    2  A    between atoms: C_12  and  N_35
    3  A    between atoms: C_26  and  C_29
    4  A    between atoms: C_29  and  C_31
                            x       y       z     vdW  Elec       q    Type
                         _______ _______ _______ _____ _____    ______ ____

>  <TORSDO>
F 4

$$$$
=
 OpenBabel11062422273D

 36 41  0  0  1  0  0  0  0  0999 V2000
  194.0790  172.6870  142.1930 C   0  0  0  0  0  0  0  0  0  0  0  0
  189.7190  175.4650  144.8100 C   0  0  0  0  0  3  0  0  0  0  0  0
  190.8180  172.8680  138.6920 C   0  0  0  0  0  3  0  0  0  0  0  0
  191.3340  172.3870  141.4430 C   0  0  2  0  0  3  0  0  0  0  0  0
  192.0120  172.4540  139.0270 N   0  0  0  0  0  0  0  0  0  0  0  0
  191.7440  172.9990  142.6950 N   0  0  0  0  0  0  0  0  0  0  0  0
  188.6590  176.0560  144.2430 C   0  0  0  0  0  0  0  0  0  0  0  0
  192.4100  172.4570  140.4050 C   0  0  0  0  0  0  0  0  0  0  0  0
  189.6990  174.0350  142.0760 N   0  0  0  0  0  0  0  0  0  0  0  0
  189.8900  173.4120  139.7160 C   0  0  0  0  0  2  0  0  0  0  0  0
  190.7080  174.5350  144.2570 C   0  0  0  0  0  3  0  0  0  0  0  0
  188.7050  175.0470  141.9000 C   0  0  0  0  0  3  0  0  0  0  0  0
  193.1240  172.9860  143.1180 C   0  0  0  0  0  0  0  0  0  0  0  0
  193.6920  172.5340  140.7690 C   0  0  0  0  0  3  0  0  0  0  0  0
  190.1690  173.2090  141.0120 C   0  0  1  0  0  3  0  0  0  0  0  0
  188.2710  175.8960  142.8260 C   0  0  0  0  0  3  0  0  0  0  0  0
  190.7090  173.9200  143.0780 C   0  0  0  0  0  0  0  0  0  0  0  0
  186.0790  176.7940  146.7250 C   0  0  0  0  0  2  0  0  0  0  0  0
  187.3900  178.2270  144.5330 C   0  0  0  0  0  2  0  0  0  0  0  0
  187.5740  176.6510  146.4620 C   0  0  0  0  0  2  0  0  0  0  0  0
  185.8940  178.3730  144.7910 C   0  0  0  0  0  2  0  0  0  0  0  0
  184.1070  178.2870  146.5120 C   0  0  0  0  0  1  0  0  0  0  0  0
  185.5970  178.1700  146.2750 C   0  0  1  0  0  3  0  0  0  0  0  0
  187.8610  176.9440  145.0550 N   0  0  0  0  0  0  0  0  0  0  0  0
  195.4730  172.5590  142.5080 N   0  0  0  0  0  2  0  0  0  0  0  0
  196.4420  173.3120  141.9360 O   0  0  0  0  0  1  0  0  0  0  0  0
  193.3350  172.3940  145.3850 O   0  0  0  0  0  0  0  0  0  0  0  0
  193.4500  173.3070  144.5230 C   0  0  0  0  0  0  0  0  0  0  0  0
  193.7330  176.5610  146.4830 C   0  0  0  0  0  0  0  0  0  0  0  0
  193.3610  175.2560  146.1340 C   0  0  0  0  0  0  0  0  0  0  0  0
  194.6690  175.4450  144.1020 C   0  0  0  0  0  3  0  0  0  0  0  0
  195.0350  176.7450  144.4550 C   0  0  0  0  0  3  0  0  0  0  0  0
  192.5560  174.5580  146.9740 F   0  0  0  0  0  0  0  0  0  0  0  0
  193.2840  177.1110  147.6380 F   0  0  0  0  0  0  0  0  0  0  0  0
  194.5670  177.3020  145.6440 C   0  0  0  0  0  3  0  0  0  0  0  0
  193.8320  174.6820  144.9340 C   0  0  0  0  0  0  0  0  0  0  0  0
  1 25  1  0  0  0  0
  1 13  2  0  0  0  0
  3  5  2  0  0  0  0
  3 10  1  0  0  0  0
  4  8  1  6  0  0  0
  4  6  1  0  0  0  0
  5  8  1  0  0  0  0
  6 17  1  0  0  0  0
  6 13  1  0  0  0  0
  7  2  2  0  0  0  0
  7 24  1  0  0  0  0
  8 14  2  0  0  0  0
  9 17  1  0  0  0  0
 11  2  1  0  0  0  0
 12  9  1  0  0  0  0
 12 16  2  0  0  0  0
 13 28  1  0  0  0  0
 14  1  1  0  0  0  0
 15 10  1  6  0  0  0
 15  4  1  0  0  0  0
 15  9  1  0  0  0  0
 16  7  1  0  0  0  0
 17 11  2  0  0  0  0
 19 21  1  0  0  0  0
 19 24  1  0  0  0  0
 20 18  1  0  0  0  0
 21 23  1  0  0  0  0
 23 22  1  6  0  0  0
 23 18  1  0  0  0  0
 24 20  1  0  0  0  0
 26 25  1  0  0  0  0
 28 36  1  0  0  0  0
 28 27  2  0  0  0  0
 29 34  1  0  0  0  0
 30 29  1  0  0  0  0
 30 33  1  0  0  0  0
 31 32  2  0  0  0  0
 31 36  1  0  0  0  0
 32 35  1  0  0  0  0
 35 29  2  0  0  0  0
 36 30  2  0  0  0  0
M  END
>  <MODEL>
7

>  <REMARK>
 VINA RESULT:      -7.6      2.386      6.877
  Name = 
  4 active torsions:
  status: ('A' for Active; 'I' for Inactive)
    1  A    between atoms: C_2  and  N_16
    2  A    between atoms: C_12  and  N_35
    3  A    between atoms: C_26  and  C_29
    4  A    between atoms: C_29  and  C_31
                            x       y       z     vdW  Elec       q    Type
                         _______ _______ _______ _____ _____    ______ ____

>  <TORSDO>
F 4

$$$$
=
 OpenBabel11062422273D

 36 41  0  0  1  0  0  0  0  0999 V2000
  189.9030  175.4450  146.2660 C   0  0  0  0  0  0  0  0  0  0  0  0
  190.9800  173.5650  140.8920 C   0  0  0  0  0  3  0  0  0  0  0  0
  185.9580  176.8570  143.9470 C   0  0  0  0  0  3  0  0  0  0  0  0
  188.7900  176.6430  143.9180 C   0  0  2  0  0  3  0  0  0  0  0  0
  186.5830  176.8470  145.0950 N   0  0  0  0  0  0  0  0  0  0  0  0
  189.9070  175.7150  143.8730 N   0  0  0  0  0  0  0  0  0  0  0  0
  190.1130  173.4160  139.8810 C   0  0  0  0  0  0  0  0  0  0  0  0
  187.9660  176.4710  145.1550 C   0  0  0  0  0  0  0  0  0  0  0  0
  188.7140  175.4340  141.8390 N   0  0  0  0  0  0  0  0  0  0  0  0
  186.6460  176.4140  142.7070 C   0  0  0  0  0  2  0  0  0  0  0  0
  190.8470  174.2660  142.1730 C   0  0  0  0  0  3  0  0  0  0  0  0
  188.1300  174.7960  140.7010 C   0  0  0  0  0  3  0  0  0  0  0  0
  190.5500  175.2580  145.0820 C   0  0  0  0  0  0  0  0  0  0  0  0
  188.5140  175.9680  146.2640 C   0  0  0  0  0  3  0  0  0  0  0  0
  187.9800  176.2800  142.7220 C   0  0  1  0  0  3  0  0  0  0  0  0
  188.7340  173.9440  139.8780 C   0  0  0  0  0  3  0  0  0  0  0  0
  189.8720  175.0680  142.5900 C   0  0  0  0  0  0  0  0  0  0  0  0
  189.6870  170.8420  137.3200 C   0  0  0  0  0  2  0  0  0  0  0  0
  191.9340  172.2510  138.5650 C   0  0  0  0  0  2  0  0  0  0  0  0
  189.6160  172.3320  137.6370 C   0  0  0  0  0  2  0  0  0  0  0  0
  192.0110  170.7600  138.2510 C   0  0  0  0  0  2  0  0  0  0  0  0
  191.1930  168.9490  136.7630 C   0  0  0  0  0  1  0  0  0  0  0  0
  191.1320  170.4340  137.0460 C   0  0  1  0  0  3  0  0  0  0  0  0
  190.5370  172.6520  138.7320 N   0  0  0  0  0  0  0  0  0  0  0  0
  190.4720  175.1130  147.5400 N   0  0  0  0  0  2  0  0  0  0  0  0
  191.1890  175.9810  148.2910 O   0  0  0  0  0  1  0  0  0  0  0  0
  191.9140  173.3420  145.0890 O   0  0  0  0  0  0  0  0  0  0  0  0
  191.8680  174.5980  144.9910 C   0  0  0  0  0  0  0  0  0  0  0  0
  195.2390  175.8810  143.7630 C   0  0  0  0  0  0  0  0  0  0  0  0
  194.0620  175.1250  143.8450 C   0  0  0  0  0  0  0  0  0  0  0  0
  193.3910  176.4100  145.7880 C   0  0  0  0  0  3  0  0  0  0  0  0
  194.5660  177.1590  145.7020 C   0  0  0  0  0  3  0  0  0  0  0  0
  193.8440  174.1520  142.9250 F   0  0  0  0  0  0  0  0  0  0  0  0
  196.1420  175.6320  142.7830 F   0  0  0  0  0  0  0  0  0  0  0  0
  195.4890  176.8950  144.6900 C   0  0  0  0  0  3  0  0  0  0  0  0
  193.1210  175.3870  144.8640 C   0  0  0  0  0  0  0  0  0  0  0  0
  1 25  1  0  0  0  0
  2 11  1  0  0  0  0
  3  5  2  0  0  0  0
  4  8  1  1  0  0  0
  5  8  1  0  0  0  0
  6  4  1  0  0  0  0
  6 13  1  0  0  0  0
  7  2  2  0  0  0  0
  8 14  2  0  0  0  0
  9 17  1  0  0  0  0
  9 15  1  0  0  0  0
 10  3  1  0  0  0  0
 11 17  2  0  0  0  0
 12  9  1  0  0  0  0
 13  1  2  0  0  0  0
 14  1  1  0  0  0  0
 15 10  1  1  0  0  0
 15  4  1  0  0  0  0
 16  7  1  0  0  0  0
 16 12  2  0  0  0  0
 17  6  1  0  0  0  0
 18 20  1  0  0  0  0
 19 24  1  0  0  0  0
 20 24  1  0  0  0  0
 21 19  1  0  0  0  0
 23 22  1  1  0  0  0
 23 18  1  0  0  0  0
 23 21  1  0  0  0  0
 24  7  1  0  0  0  0
 25 26  1  0  0  0  0
 28 13  1  0  0  0  0
 28 27  2  0  0  0  0
 29 30  2  0  0  0  0
 29 35  1  0  0  0  0
 30 36  1  0  0  0  0
 32 31  1  0  0  0  0
 33 30  1  0  0  0  0
 34 29  1  0  0  0  0
 35 32  2  0  0  0  0
 36 28  1  0  0  0  0
 36 31  2  0  0  0  0
M  END
>  <MODEL>
8

>  <REMARK>
 VINA RESULT:      -7.6      1.625      1.973
  Name = 
  4 active torsions:
  status: ('A' for Active; 'I' for Inactive)
    1  A    between atoms: C_2  and  N_16
    2  A    between atoms: C_12  and  N_35
    3  A    between atoms: C_26  and  C_29
    4  A    between atoms: C_29  and  C_31
                            x       y       z     vdW  Elec       q    Type
                         _______ _______ _______ _____ _____    ______ ____

>  <TORSDO>
F 4

$$$$
=
 OpenBabel11062422273D

 36 41  0  0  1  0  0  0  0  0999 V2000
  191.9880  176.4110  146.1240 C   0  0  0  0  0  0  0  0  0  0  0  0
  190.7180  173.7560  141.1330 C   0  0  0  0  0  3  0  0  0  0  0  0
  187.2480  177.0470  145.8770 C   0  0  0  0  0  3  0  0  0  0  0  0
  189.7320  177.0890  144.5000 C   0  0  2  0  0  3  0  0  0  0  0  0
  188.3300  177.2880  146.5720 N   0  0  0  0  0  0  0  0  0  0  0  0
  190.8310  176.2710  144.0160 N   0  0  0  0  0  0  0  0  0  0  0  0
  189.5170  173.3600  140.6910 C   0  0  0  0  0  0  0  0  0  0  0  0
  189.6200  177.0540  145.9920 C   0  0  0  0  0  0  0  0  0  0  0  0
  188.8900  175.5440  142.8580 N   0  0  0  0  0  0  0  0  0  0  0  0
  187.3390  176.4650  144.5130 C   0  0  0  0  0  2  0  0  0  0  0  0
  191.0880  174.6480  142.2350 C   0  0  0  0  0  3  0  0  0  0  0  0
  187.9530  174.6730  142.2210 C   0  0  0  0  0  3  0  0  0  0  0  0
  192.0280  176.0850  144.8020 C   0  0  0  0  0  0  0  0  0  0  0  0
  190.6950  176.7980  146.7410 C   0  0  0  0  0  3  0  0  0  0  0  0
  188.5280  176.4570  143.8930 C   0  0  1  0  0  3  0  0  0  0  0  0
  188.2300  173.7520  141.3020 C   0  0  0  0  0  3  0  0  0  0  0  0
  190.3060  175.4160  142.9870 C   0  0  0  0  0  0  0  0  0  0  0  0
  191.0230  171.1200  138.2250 C   0  0  0  0  0  2  0  0  0  0  0  0
  188.5560  172.6830  138.4490 C   0  0  0  0  0  2  0  0  0  0  0  0
  190.2590  171.2180  139.5420 C   0  0  0  0  0  2  0  0  0  0  0  0
  189.3160  172.5890  137.1300 C   0  0  0  0  0  2  0  0  0  0  0  0
  190.8340  171.1900  135.7510 C   0  0  0  0  0  1  0  0  0  0  0  0
  190.0600  171.2580  137.0490 C   0  0  1  0  0  3  0  0  0  0  0  0
  189.4710  172.4540  139.5670 N   0  0  0  0  0  0  0  0  0  0  0  0
  193.1310  176.3510  146.9880 N   0  0  0  0  0  2  0  0  0  0  0  0
  194.1920  177.1850  146.8880 O   0  0  0  0  0  1  0  0  0  0  0  0
  193.7100  176.1590  143.1590 O   0  0  0  0  0  0  0  0  0  0  0  0
  193.2390  175.5420  144.1520 C   0  0  0  0  0  0  0  0  0  0  0  0
  195.7470  172.9640  145.4070 C   0  0  0  0  0  0  0  0  0  0  0  0
  195.2010  174.1890  145.0020 C   0  0  0  0  0  0  0  0  0  0  0  0
  193.0750  173.0930  144.6100 C   0  0  0  0  0  3  0  0  0  0  0  0
  193.6250  171.8750  145.0130 C   0  0  0  0  0  3  0  0  0  0  0  0
  195.9890  175.2940  145.0170 F   0  0  0  0  0  0  0  0  0  0  0  0
  197.0440  172.8920  145.7970 F   0  0  0  0  0  0  0  0  0  0  0  0
  194.9600  171.8110  145.4110 C   0  0  0  0  0  3  0  0  0  0  0  0
  193.8500  174.2650  144.6000 C   0  0  0  0  0  0  0  0  0  0  0  0
  1 14  1  0  0  0  0
  1 25  1  0  0  0  0
  2 11  1  0  0  0  0
  3  5  2  0  0  0  0
  4  8  1  1  0  0  0
  6  4  1  0  0  0  0
  6 13  1  0  0  0  0
  7  2  2  0  0  0  0
  7 16  1  0  0  0  0
  8  5  1  0  0  0  0
  8 14  2  0  0  0  0
  9 17  1  0  0  0  0
  9 15  1  0  0  0  0
 10  3  1  0  0  0  0
 11 17  2  0  0  0  0
 12  9  1  0  0  0  0
 13  1  2  0  0  0  0
 15  4  1  0  0  0  0
 15 10  1  1  0  0  0
 16 12  2  0  0  0  0
 17  6  1  0  0  0  0
 18 20  1  0  0  0  0
 19 24  1  0  0  0  0
 20 24  1  0  0  0  0
 21 19  1  0  0  0  0
 23 22  1  6  0  0  0
 23 21  1  0  0  0  0
 23 18  1  0  0  0  0
 24  7  1  0  0  0  0
 26 25  1  0  0  0  0
 27 28  2  0  0  0  0
 28 36  1  0  0  0  0
 28 13  1  0  0  0  0
 29 35  1  0  0  0  0
 29 34  1  0  0  0  0
 30 33  1  0  0  0  0
 30 29  2  0  0  0  0
 31 32  1  0  0  0  0
 32 35  2  0  0  0  0
 36 31  2  0  0  0  0
 36 30  1  0  0  0  0
M  END
>  <MODEL>
9

>  <REMARK>
 VINA RESULT:      -7.6      2.375      3.052
  Name = 
  4 active torsions:
  status: ('A' for Active; 'I' for Inactive)
    1  A    between atoms: C_2  and  N_16
    2  A    between atoms: C_12  and  N_35
    3  A    between atoms: C_26  and  C_29
    4  A    between atoms: C_29  and  C_31
                            x       y       z     vdW  Elec       q    Type
                         _______ _______ _______ _____ _____    ______ ____

>  <TORSDO>
F 4

$$$$
