=
 OpenBabel11062421073D

 27 30  0  0  1  0  0  0  0  0999 V2000
  185.6690  179.1020  143.7930 C   0  0  0  0  0  0  0  0  0  0  0  0
  188.3810  176.7090  144.6210 C   0  0  0  0  0  0  0  0  0  0  0  0
  187.1250  177.0730  143.8960 C   0  0  0  0  0  2  0  0  0  0  0  0
  185.6710  179.0680  146.7120 C   0  0  0  0  0  2  0  0  0  0  0  0
  189.8160  176.3460  146.2730 C   0  0  0  0  0  0  0  0  0  0  0  0
  186.4900  178.2680  146.0350 C   0  0  0  0  0  0  0  0  0  0  0  0
  190.3550  176.3220  147.5900 N   0  0  0  0  0  1  0  0  0  0  0  0
  185.7110  180.3250  144.1000 O   0  0  0  0  0  0  0  0  0  0  0  0
  186.7710  176.3560  147.4150 O   0  0  0  0  0  1  0  0  0  0  0  0
  190.4480  175.8800  145.2470 N   0  0  0  0  0  0  0  0  0  0  0  0
  189.6080  176.0500  144.0570 C   0  0  1  0  0  3  0  0  0  0  0  0
  186.4030  178.1490  144.5900 N   0  0  0  0  0  0  0  0  0  0  0  0
  187.4550  177.4160  146.8180 C   0  0  1  0  0  3  0  0  0  0  0  0
  188.5210  176.8750  145.9180 C   0  0  0  0  0  0  0  0  0  0  0  0
  185.5100  178.5030  141.3740 C   0  0  0  0  0  3  0  0  0  0  0  0
  182.7500  178.1200  141.5790 C   0  0  0  0  0  3  0  0  0  0  0  0
  183.3920  177.9320  140.3510 C   0  0  0  0  0  3  0  0  0  0  0  0
  183.4900  178.4980  142.7020 C   0  0  0  0  0  3  0  0  0  0  0  0
  184.8770  178.6850  142.6120 C   0  0  0  0  0  0  0  0  0  0  0  0
  184.7720  178.1250  140.2480 C   0  0  0  0  0  3  0  0  0  0  0  0
  189.7230  173.5310  144.3250 C   0  0  0  0  0  2  0  0  0  0  0  0
  189.9410  172.9040  141.9740 C   0  0  0  0  0  2  0  0  0  0  0  0
  189.2760  174.6810  143.4470 C   0  0  2  0  0  3  0  0  0  0  0  0
  189.9210  174.4180  142.0900 C   0  0  1  0  0  3  0  0  0  0  0  0
  189.9070  172.3510  143.3910 C   0  0  0  0  0  2  0  0  0  0  0  0
  192.0040  174.1370  141.0530 C   0  0  0  0  0  1  0  0  0  0  0  0
  191.2920  174.9160  142.0510 N   0  0  0  0  0  2  0  0  0  0  0  0
  1  8  2  0  0  0  0
  1 12  1  0  0  0  0
  2 14  2  0  0  0  0
  3 12  1  0  0  0  0
  3  2  1  0  0  0  0
  5  7  1  0  0  0  0
  6  4  2  0  0  0  0
  6 13  1  0  0  0  0
 10  5  2  0  0  0  0
 11  2  1  1  0  0  0
 11 10  1  0  0  0  0
 12  6  1  0  0  0  0
 13  9  1  6  0  0  0
 14  5  1  0  0  0  0
 14 13  1  0  0  0  0
 15 19  1  0  0  0  0
 16 18  1  0  0  0  0
 17 16  2  0  0  0  0
 19 18  2  0  0  0  0
 19  1  1  0  0  0  0
 20 17  1  0  0  0  0
 20 15  2  0  0  0  0
 22 24  1  0  0  0  0
 22 25  1  0  0  0  0
 23 11  1  0  0  0  0
 23 21  1  1  0  0  0
 24 27  1  1  0  0  0
 24 23  1  0  0  0  0
 25 21  1  0  0  0  0
 26 27  1  0  0  0  0
M  END
>  <MODEL>
1

>  <REMARK>
 VINA RESULT:      -7.6      0.000      0.000
  Name = 
  3 active torsions:
  status: ('A' for Active; 'I' for Inactive)
    1  A    between atoms: C_1  and  C_20
    2  A    between atoms: N_4  and  C_18
    3  A    between atoms: C_12  and  C_22
                            x       y       z     vdW  Elec       q    Type
                         _______ _______ _______ _____ _____    ______ ____

>  <TORSDO>
F 3

$$$$
=
 OpenBabel11062421073D

 27 30  0  0  1  0  0  0  0  0999 V2000
  191.4880  175.1540  146.4660 C   0  0  0  0  0  0  0  0  0  0  0  0
  189.2750  175.0170  143.4910 C   0  0  0  0  0  0  0  0  0  0  0  0
  190.6310  175.0100  144.1230 C   0  0  0  0  0  2  0  0  0  0  0  0
  189.7760  177.4960  146.7890 C   0  0  0  0  0  2  0  0  0  0  0  0
  187.2330  175.6670  142.9190 C   0  0  0  0  0  0  0  0  0  0  0  0
  189.6660  176.7340  145.7050 C   0  0  0  0  0  0  0  0  0  0  0  0
  186.0370  176.4390  142.8960 N   0  0  0  0  0  1  0  0  0  0  0  0
  191.0610  175.0430  147.6480 O   0  0  0  0  0  0  0  0  0  0  0  0
  188.9650  178.2080  143.9790 O   0  0  0  0  0  1  0  0  0  0  0  0
  187.4190  174.6360  142.1640 N   0  0  0  0  0  0  0  0  0  0  0  0
  188.7530  174.0880  142.4310 C   0  0  1  0  0  3  0  0  0  0  0  0
  190.6060  175.6580  145.4420 N   0  0  0  0  0  0  0  0  0  0  0  0
  188.5910  177.0760  144.7050 C   0  0  1  0  0  3  0  0  0  0  0  0
  188.3730  175.9330  143.7640 C   0  0  0  0  0  0  0  0  0  0  0  0
  193.9180  175.6880  146.2510 C   0  0  0  0  0  3  0  0  0  0  0  0
  194.4950  173.0700  145.4620 C   0  0  0  0  0  3  0  0  0  0  0  0
  195.5230  174.0110  145.5610 C   0  0  0  0  0  3  0  0  0  0  0  0
  193.1800  173.4380  145.7590 C   0  0  0  0  0  3  0  0  0  0  0  0
  192.8810  174.7480  146.1640 C   0  0  0  0  0  0  0  0  0  0  0  0
  195.2350  175.3210  145.9540 C   0  0  0  0  0  3  0  0  0  0  0  0
  188.7780  174.1430  139.8960 C   0  0  0  0  0  2  0  0  0  0  0  0
  190.8750  172.9510  139.5070 C   0  0  0  0  0  2  0  0  0  0  0  0
  189.6120  174.1510  141.1600 C   0  0  2  0  0  3  0  0  0  0  0  0
  190.5910  172.9920  140.9980 C   0  0  1  0  0  3  0  0  0  0  0  0
  189.6860  173.5970  138.8110 C   0  0  0  0  0  2  0  0  0  0  0  0
  190.8090  170.6620  140.8590 C   0  0  0  0  0  1  0  0  0  0  0  0
  189.9840  171.7280  141.4020 N   0  0  0  0  0  2  0  0  0  0  0  0
  1  8  2  0  0  0  0
  2 14  2  0  0  0  0
  2  3  1  0  0  0  0
  3 12  1  0  0  0  0
  5 14  1  0  0  0  0
  6  4  2  0  0  0  0
  7  5  1  0  0  0  0
 10  5  2  0  0  0  0
 11 10  1  6  0  0  0
 11  2  1  0  0  0  0
 12  6  1  0  0  0  0
 12  1  1  0  0  0  0
 13  9  1  6  0  0  0
 13  6  1  0  0  0  0
 14 13  1  0  0  0  0
 16 17  2  0  0  0  0
 16 18  1  0  0  0  0
 17 20  1  0  0  0  0
 18 19  2  0  0  0  0
 19 15  1  0  0  0  0
 19  1  1  0  0  0  0
 20 15  2  0  0  0  0
 22 24  1  0  0  0  0
 23 21  1  6  0  0  0
 23 11  1  0  0  0  0
 24 23  1  0  0  0  0
 24 27  1  6  0  0  0
 25 22  1  0  0  0  0
 25 21  1  0  0  0  0
 26 27  1  0  0  0  0
M  END
>  <MODEL>
2

>  <REMARK>
 VINA RESULT:      -6.9      3.018      6.801
  Name = 
  3 active torsions:
  status: ('A' for Active; 'I' for Inactive)
    1  A    between atoms: C_1  and  C_20
    2  A    between atoms: N_4  and  C_18
    3  A    between atoms: C_12  and  C_22
                            x       y       z     vdW  Elec       q    Type
                         _______ _______ _______ _____ _____    ______ ____

>  <TORSDO>
F 3

$$$$
=
 OpenBabel11062421073D

 27 30  0  0  1  0  0  0  0  0999 V2000
  191.8030  174.7730  144.9850 C   0  0  0  0  0  0  0  0  0  0  0  0
  188.4430  176.3440  145.0200 C   0  0  0  0  0  0  0  0  0  0  0  0
  189.7920  176.1390  144.4090 C   0  0  0  0  0  2  0  0  0  0  0  0
  191.6130  175.8970  147.6720 C   0  0  0  0  0  2  0  0  0  0  0  0
  186.8670  176.8410  146.5010 C   0  0  0  0  0  0  0  0  0  0  0  0
  190.6310  176.0910  146.7960 C   0  0  0  0  0  0  0  0  0  0  0  0
  186.2670  177.1910  147.7430 N   0  0  0  0  0  1  0  0  0  0  0  0
  192.1200  173.8050  145.7300 O   0  0  0  0  0  0  0  0  0  0  0  0
  189.6930  178.1950  147.3720 O   0  0  0  0  0  1  0  0  0  0  0  0
  186.1870  176.6690  145.4160 N   0  0  0  0  0  0  0  0  0  0  0  0
  187.1100  176.3320  144.3270 C   0  0  1  0  0  3  0  0  0  0  0  0
  190.7660  175.6800  145.4090 N   0  0  0  0  0  0  0  0  0  0  0  0
  189.4050  176.8340  147.2610 C   0  0  1  0  0  3  0  0  0  0  0  0
  188.2810  176.6420  146.2910 C   0  0  0  0  0  0  0  0  0  0  0  0
  193.5470  175.8640  143.5680 C   0  0  0  0  0  3  0  0  0  0  0  0
  192.7630  174.3760  141.3370 C   0  0  0  0  0  3  0  0  0  0  0  0
  193.8110  175.2950  141.2300 C   0  0  0  0  0  3  0  0  0  0  0  0
  192.1090  174.2020  142.5590 C   0  0  0  0  0  3  0  0  0  0  0  0
  192.5000  174.9370  143.6880 C   0  0  0  0  0  0  0  0  0  0  0  0
  194.2020  176.0400  142.3450 C   0  0  0  0  0  3  0  0  0  0  0  0
  185.6190  177.8010  142.8950 C   0  0  0  0  0  2  0  0  0  0  0  0
  186.9940  177.8930  140.8780 C   0  0  0  0  0  2  0  0  0  0  0  0
  187.0420  177.4020  143.2280 C   0  0  2  0  0  3  0  0  0  0  0  0
  187.6600  176.9860  141.8980 C   0  0  1  0  0  3  0  0  0  0  0  0
  185.6650  178.3320  141.4750 C   0  0  0  0  0  2  0  0  0  0  0  0
  188.5700  174.9680  141.1260 C   0  0  0  0  0  1  0  0  0  0  0  0
  187.3410  175.5980  141.5790 N   0  0  0  0  0  2  0  0  0  0  0  0
  1 12  1  0  0  0  0
  1  8  2  0  0  0  0
  2 14  2  0  0  0  0
  3  2  1  0  0  0  0
  3 12  1  0  0  0  0
  5  7  1  0  0  0  0
  6 13  1  0  0  0  0
  6  4  2  0  0  0  0
 10  5  2  0  0  0  0
 11  2  1  1  0  0  0
 11 10  1  0  0  0  0
 12  6  1  0  0  0  0
 13  9  1  6  0  0  0
 14  5  1  0  0  0  0
 14 13  1  0  0  0  0
 15 19  1  0  0  0  0
 16 18  1  0  0  0  0
 17 16  2  0  0  0  0
 17 20  1  0  0  0  0
 18 19  2  0  0  0  0
 19  1  1  0  0  0  0
 20 15  2  0  0  0  0
 22 25  1  0  0  0  0
 22 24  1  0  0  0  0
 23 21  1  6  0  0  0
 23 11  1  0  0  0  0
 24 27  1  6  0  0  0
 24 23  1  0  0  0  0
 25 21  1  0  0  0  0
 26 27  1  0  0  0  0
M  END
>  <MODEL>
3

>  <REMARK>
 VINA RESULT:      -6.6      2.325      6.290
  Name = 
  3 active torsions:
  status: ('A' for Active; 'I' for Inactive)
    1  A    between atoms: C_1  and  C_20
    2  A    between atoms: N_4  and  C_18
    3  A    between atoms: C_12  and  C_22
                            x       y       z     vdW  Elec       q    Type
                         _______ _______ _______ _____ _____    ______ ____

>  <TORSDO>
F 3

$$$$
=
 OpenBabel11062421073D

 27 30  0  0  1  0  0  0  0  0999 V2000
  188.1870  174.1720  142.1410 C   0  0  0  0  0  0  0  0  0  0  0  0
  191.4860  173.3930  143.6490 C   0  0  0  0  0  0  0  0  0  0  0  0
  190.4550  174.3650  143.1700 C   0  0  0  0  0  2  0  0  0  0  0  0
  189.3730  172.3020  140.2390 C   0  0  0  0  0  2  0  0  0  0  0  0
  192.9440  171.7210  143.6600 C   0  0  0  0  0  0  0  0  0  0  0  0
  190.0670  172.7060  141.2990 C   0  0  0  0  0  0  0  0  0  0  0  0
  193.6720  170.5840  143.2090 N   0  0  0  0  0  1  0  0  0  0  0  0
  187.2820  173.3080  141.9770 O   0  0  0  0  0  0  0  0  0  0  0  0
  192.3380  172.6630  140.6060 O   0  0  0  0  0  1  0  0  0  0  0  0
  193.1510  172.2800  144.8050 N   0  0  0  0  0  0  0  0  0  0  0  0
  192.2460  173.4250  144.9450 C   0  0  1  0  0  3  0  0  0  0  0  0
  189.5660  173.7520  142.1740 N   0  0  0  0  0  0  0  0  0  0  0  0
  191.4350  172.1130  141.5170 C   0  0  1  0  0  3  0  0  0  0  0  0
  191.9060  172.3890  142.9110 C   0  0  0  0  0  0  0  0  0  0  0  0
  187.8570  176.4670  141.2120 C   0  0  0  0  0  3  0  0  0  0  0  0
  187.0610  177.4380  143.7080 C   0  0  0  0  0  3  0  0  0  0  0  0
  187.1110  178.2990  142.6090 C   0  0  0  0  0  3  0  0  0  0  0  0
  187.4070  176.0930  143.5590 C   0  0  0  0  0  3  0  0  0  0  0  0
  187.8010  175.5930  142.3080 C   0  0  0  0  0  0  0  0  0  0  0  0
  187.5110  177.8140  141.3610 C   0  0  0  0  0  3  0  0  0  0  0  0
  194.4700  174.4730  145.5650 C   0  0  0  0  0  2  0  0  0  0  0  0
  193.6570  176.5940  146.4640 C   0  0  0  0  0  2  0  0  0  0  0  0
  193.0550  174.7220  145.0860 C   0  0  2  0  0  3  0  0  0  0  0  0
  192.4730  175.7290  146.0730 C   0  0  1  0  0  3  0  0  0  0  0  0
  194.9100  175.7640  146.2270 C   0  0  0  0  0  2  0  0  0  0  0  0
  191.1510  176.0340  147.9850 C   0  0  0  0  0  1  0  0  0  0  0  0
  191.9560  175.0630  147.2640 N   0  0  0  0  0  2  0  0  0  0  0  0
  1 12  1  0  0  0  0
  1 19  1  0  0  0  0
  3  2  1  0  0  0  0
  4  6  2  0  0  0  0
  5 10  2  0  0  0  0
  6 13  1  0  0  0  0
  6 12  1  0  0  0  0
  7  5  1  0  0  0  0
  8  1  2  0  0  0  0
 10 11  1  0  0  0  0
 11  2  1  6  0  0  0
 11 23  1  0  0  0  0
 12  3  1  0  0  0  0
 13  9  1  6  0  0  0
 13 14  1  0  0  0  0
 14  2  2  0  0  0  0
 14  5  1  0  0  0  0
 15 20  2  0  0  0  0
 15 19  1  0  0  0  0
 17 16  2  0  0  0  0
 18 16  1  0  0  0  0
 19 18  2  0  0  0  0
 20 17  1  0  0  0  0
 21 25  1  0  0  0  0
 23 21  1  1  0  0  0
 23 24  1  0  0  0  0
 24 22  1  0  0  0  0
 24 27  1  1  0  0  0
 25 22  1  0  0  0  0
 27 26  1  0  0  0  0
M  END
>  <MODEL>
4

>  <REMARK>
 VINA RESULT:      -6.4      3.503      6.123
  Name = 
  3 active torsions:
  status: ('A' for Active; 'I' for Inactive)
    1  A    between atoms: C_1  and  C_20
    2  A    between atoms: N_4  and  C_18
    3  A    between atoms: C_12  and  C_22
                            x       y       z     vdW  Elec       q    Type
                         _______ _______ _______ _____ _____    ______ ____

>  <TORSDO>
F 3

$$$$
=
 OpenBabel11062421073D

 27 30  0  0  1  0  0  0  0  0999 V2000
  187.9610  174.8930  142.3200 C   0  0  0  0  0  0  0  0  0  0  0  0
  191.3880  174.0300  143.4500 C   0  0  0  0  0  0  0  0  0  0  0  0
  190.2770  175.0110  143.2510 C   0  0  0  0  0  2  0  0  0  0  0  0
  189.1240  173.5660  139.9940 C   0  0  0  0  0  2  0  0  0  0  0  0
  192.9340  172.4990  143.0170 C   0  0  0  0  0  0  0  0  0  0  0  0
  189.8610  173.7760  141.0810 C   0  0  0  0  0  0  0  0  0  0  0  0
  193.6930  171.5390  142.2900 N   0  0  0  0  0  1  0  0  0  0  0  0
  187.0960  174.0260  142.0150 O   0  0  0  0  0  0  0  0  0  0  0  0
  192.0830  174.0390  140.2820 O   0  0  0  0  0  1  0  0  0  0  0  0
  193.1830  172.8080  144.2460 N   0  0  0  0  0  0  0  0  0  0  0  0
  192.2270  173.8310  144.6800 C   0  0  1  0  0  3  0  0  0  0  0  0
  189.3610  174.5700  142.1900 N   0  0  0  0  0  0  0  0  0  0  0  0
  191.2720  173.2440  141.0930 C   0  0  1  0  0  3  0  0  0  0  0  0
  191.8150  173.2420  142.4880 C   0  0  0  0  0  0  0  0  0  0  0  0
  187.2370  176.3920  144.1810 C   0  0  0  0  0  3  0  0  0  0  0  0
  186.8730  178.5260  142.4140 C   0  0  0  0  0  3  0  0  0  0  0  0
  186.6140  178.6970  143.7770 C   0  0  0  0  0  3  0  0  0  0  0  0
  187.3150  177.2890  141.9370 C   0  0  0  0  0  3  0  0  0  0  0  0
  187.5090  176.2130  142.8170 C   0  0  0  0  0  0  0  0  0  0  0  0
  186.7940  177.6290  144.6610 C   0  0  0  0  0  3  0  0  0  0  0  0
  194.3840  174.8510  145.5380 C   0  0  0  0  0  2  0  0  0  0  0  0
  193.4510  176.7520  146.7570 C   0  0  0  0  0  2  0  0  0  0  0  0
  192.9700  175.1180  145.0640 C   0  0  2  0  0  3  0  0  0  0  0  0
  192.3180  175.9160  146.1890 C   0  0  1  0  0  3  0  0  0  0  0  0
  194.7470  176.0280  146.4230 C   0  0  0  0  0  2  0  0  0  0  0  0
  190.4190  175.4020  147.4620 C   0  0  0  0  0  1  0  0  0  0  0  0
  191.8060  175.0360  147.2330 N   0  0  0  0  0  2  0  0  0  0  0  0
  1 19  1  0  0  0  0
  3  2  1  0  0  0  0
  4  6  2  0  0  0  0
  5 10  2  0  0  0  0
  6 13  1  0  0  0  0
  6 12  1  0  0  0  0
  7  5  1  0  0  0  0
  8  1  2  0  0  0  0
 10 11  1  0  0  0  0
 11  2  1  6  0  0  0
 11 23  1  0  0  0  0
 12  1  1  0  0  0  0
 12  3  1  0  0  0  0
 13  9  1  6  0  0  0
 13 14  1  0  0  0  0
 14  5  1  0  0  0  0
 14  2  2  0  0  0  0
 15 20  1  0  0  0  0
 16 17  1  0  0  0  0
 17 20  2  0  0  0  0
 18 16  2  0  0  0  0
 18 19  1  0  0  0  0
 19 15  2  0  0  0  0
 21 25  1  0  0  0  0
 23 21  1  1  0  0  0
 23 24  1  0  0  0  0
 24 22  1  0  0  0  0
 24 27  1  1  0  0  0
 25 22  1  0  0  0  0
 27 26  1  0  0  0  0
M  END
>  <MODEL>
5

>  <REMARK>
 VINA RESULT:      -6.4      3.248      5.870
  Name = 
  3 active torsions:
  status: ('A' for Active; 'I' for Inactive)
    1  A    between atoms: C_1  and  C_20
    2  A    between atoms: N_4  and  C_18
    3  A    between atoms: C_12  and  C_22
                            x       y       z     vdW  Elec       q    Type
                         _______ _______ _______ _____ _____    ______ ____

>  <TORSDO>
F 3

$$$$
=
 OpenBabel11062421073D

 27 30  0  0  1  0  0  0  0  0999 V2000
  188.7730  176.5100  144.3770 C   0  0  0  0  0  0  0  0  0  0  0  0
  190.3330  173.7130  142.5040 C   0  0  0  0  0  0  0  0  0  0  0  0
  189.2120  174.6750  142.7390 C   0  0  0  0  0  2  0  0  0  0  0  0
  189.4820  174.6070  146.4740 C   0  0  0  0  0  2  0  0  0  0  0  0
  191.8400  172.1240  142.8590 C   0  0  0  0  0  0  0  0  0  0  0  0
  189.6910  174.3020  145.1960 C   0  0  0  0  0  0  0  0  0  0  0  0
  192.6250  171.1630  143.5560 N   0  0  0  0  0  1  0  0  0  0  0  0
  189.4020  177.2170  145.2120 O   0  0  0  0  0  0  0  0  0  0  0  0
  189.4700  171.9400  145.0790 O   0  0  0  0  0  1  0  0  0  0  0  0
  191.9400  172.3250  141.5880 N   0  0  0  0  0  0  0  0  0  0  0  0
  190.9850  173.3660  141.1950 C   0  0  1  0  0  3  0  0  0  0  0  0
  189.2070  175.1580  144.1270 N   0  0  0  0  0  0  0  0  0  0  0  0
  190.3670  172.9910  144.8840 C   0  0  1  0  0  3  0  0  0  0  0  0
  190.8460  172.9780  143.4660 C   0  0  0  0  0  0  0  0  0  0  0  0
  186.3090  176.7620  144.0540 C   0  0  0  0  0  3  0  0  0  0  0  0
  186.6990  178.5130  141.9120 C   0  0  0  0  0  3  0  0  0  0  0  0
  185.4020  178.1770  142.3110 C   0  0  0  0  0  3  0  0  0  0  0  0
  187.7990  177.9750  142.5840 C   0  0  0  0  0  3  0  0  0  0  0  0
  187.6150  177.1010  143.6660 C   0  0  0  0  0  0  0  0  0  0  0  0
  185.2070  177.2990  143.3810 C   0  0  0  0  0  3  0  0  0  0  0  0
  190.2110  171.3360  139.8890 C   0  0  0  0  0  2  0  0  0  0  0  0
  189.3530  172.4650  137.8990 C   0  0  0  0  0  2  0  0  0  0  0  0
  189.9670  172.7990  140.1960 C   0  0  2  0  0  3  0  0  0  0  0  0
  189.9550  173.4940  138.8390 C   0  0  1  0  0  3  0  0  0  0  0  0
  189.5980  171.0980  138.5220 C   0  0  0  0  0  2  0  0  0  0  0  0
  191.2370  174.1030  136.9740 C   0  0  0  0  0  1  0  0  0  0  0  0
  191.3090  173.8090  138.3950 N   0  0  0  0  0  2  0  0  0  0  0  0
  1  8  2  0  0  0  0
  2  3  1  0  0  0  0
  2 14  2  0  0  0  0
  3 12  1  0  0  0  0
  5 14  1  0  0  0  0
  5  7  1  0  0  0  0
  6  4  2  0  0  0  0
 10  5  2  0  0  0  0
 11 10  1  1  0  0  0
 11  2  1  0  0  0  0
 12  1  1  0  0  0  0
 12  6  1  0  0  0  0
 13  9  1  6  0  0  0
 13  6  1  0  0  0  0
 14 13  1  0  0  0  0
 16 17  2  0  0  0  0
 16 18  1  0  0  0  0
 17 20  1  0  0  0  0
 18 19  2  0  0  0  0
 19 15  1  0  0  0  0
 19  1  1  0  0  0  0
 20 15  2  0  0  0  0
 22 25  1  0  0  0  0
 22 24  1  0  0  0  0
 23 21  1  6  0  0  0
 23 11  1  0  0  0  0
 24 27  1  6  0  0  0
 24 23  1  0  0  0  0
 25 21  1  0  0  0  0
 26 27  1  0  0  0  0
M  END
>  <MODEL>
6

>  <REMARK>
 VINA RESULT:      -6.4      2.586      4.580
  Name = 
  3 active torsions:
  status: ('A' for Active; 'I' for Inactive)
    1  A    between atoms: C_1  and  C_20
    2  A    between atoms: N_4  and  C_18
    3  A    between atoms: C_12  and  C_22
                            x       y       z     vdW  Elec       q    Type
                         _______ _______ _______ _____ _____    ______ ____

>  <TORSDO>
F 3

$$$$
=
 OpenBabel11062421073D

 27 30  0  0  1  0  0  0  0  0999 V2000
  188.4570  174.8440  141.8770 C   0  0  0  0  0  0  0  0  0  0  0  0
  190.8860  175.0920  144.6710 C   0  0  0  0  0  0  0  0  0  0  0  0
  189.7940  175.6630  143.8230 C   0  0  0  0  0  2  0  0  0  0  0  0
  190.9940  174.1130  140.6320 C   0  0  0  0  0  2  0  0  0  0  0  0
  192.8210  174.1840  145.2630 C   0  0  0  0  0  0  0  0  0  0  0  0
  190.9600  174.4900  141.9070 C   0  0  0  0  0  0  0  0  0  0  0  0
  194.1000  173.5720  145.1390 N   0  0  0  0  0  1  0  0  0  0  0  0
  188.1920  173.7600  141.2880 O   0  0  0  0  0  0  0  0  0  0  0  0
  193.0650  175.5160  142.3060 O   0  0  0  0  0  1  0  0  0  0  0  0
  192.2930  174.4840  146.4020 N   0  0  0  0  0  0  0  0  0  0  0  0
  190.9870  175.1080  146.1700 C   0  0  1  0  0  3  0  0  0  0  0  0
  189.7430  175.0080  142.5080 N   0  0  0  0  0  0  0  0  0  0  0  0
  192.2470  174.4520  142.6900 C   0  0  1  0  0  3  0  0  0  0  0  0
  191.9670  174.5470  144.1570 C   0  0  0  0  0  0  0  0  0  0  0  0
  187.3780  176.8700  140.8920 C   0  0  0  0  0  3  0  0  0  0  0  0
  185.5630  177.0190  143.0100 C   0  0  0  0  0  3  0  0  0  0  0  0
  185.5140  177.9640  141.9820 C   0  0  0  0  0  3  0  0  0  0  0  0
  186.5180  175.9990  142.9770 C   0  0  0  0  0  3  0  0  0  0  0  0
  187.4290  175.9100  141.9140 C   0  0  0  0  0  0  0  0  0  0  0  0
  186.4230  177.8910  140.9230 C   0  0  0  0  0  3  0  0  0  0  0  0
  191.5520  176.6320  148.1160 C   0  0  0  0  0  2  0  0  0  0  0  0
  189.7670  178.2790  147.8450 C   0  0  0  0  0  2  0  0  0  0  0  0
  190.9830  176.5430  146.7150 C   0  0  2  0  0  3  0  0  0  0  0  0
  189.6030  177.1850  146.8050 C   0  0  1  0  0  3  0  0  0  0  0  0
  190.9420  177.8790  148.7260 C   0  0  0  0  0  2  0  0  0  0  0  0
  187.3540  176.5520  146.6110 C   0  0  0  0  0  1  0  0  0  0  0  0
  188.6050  176.2280  147.2740 N   0  0  0  0  0  2  0  0  0  0  0  0
  1 19  1  0  0  0  0
  1 12  1  0  0  0  0
  3  2  1  0  0  0  0
  4  6  2  0  0  0  0
  5 10  2  0  0  0  0
  6 12  1  0  0  0  0
  6 13  1  0  0  0  0
  7  5  1  0  0  0  0
  8  1  2  0  0  0  0
 11  2  1  6  0  0  0
 11 10  1  0  0  0  0
 11 23  1  0  0  0  0
 12  3  1  0  0  0  0
 13  9  1  6  0  0  0
 13 14  1  0  0  0  0
 14  2  2  0  0  0  0
 14  5  1  0  0  0  0
 15 20  2  0  0  0  0
 15 19  1  0  0  0  0
 17 16  2  0  0  0  0
 18 16  1  0  0  0  0
 19 18  2  0  0  0  0
 20 17  1  0  0  0  0
 21 25  1  0  0  0  0
 22 25  1  0  0  0  0
 23 24  1  0  0  0  0
 23 21  1  1  0  0  0
 24 27  1  1  0  0  0
 24 22  1  0  0  0  0
 26 27  1  0  0  0  0
M  END
>  <MODEL>
7

>  <REMARK>
 VINA RESULT:      -6.3      2.852      5.490
  Name = 
  3 active torsions:
  status: ('A' for Active; 'I' for Inactive)
    1  A    between atoms: C_1  and  C_20
    2  A    between atoms: N_4  and  C_18
    3  A    between atoms: C_12  and  C_22
                            x       y       z     vdW  Elec       q    Type
                         _______ _______ _______ _____ _____    ______ ____

>  <TORSDO>
F 3

$$$$
=
 OpenBabel11062421073D

 27 30  0  0  1  0  0  0  0  0999 V2000
  185.6600  177.6440  144.6240 C   0  0  0  0  0  0  0  0  0  0  0  0
  188.1700  175.5670  142.8480 C   0  0  0  0  0  0  0  0  0  0  0  0
  187.7880  176.5390  143.9180 C   0  0  0  0  0  2  0  0  0  0  0  0
  185.2910  178.3860  141.8250 C   0  0  0  0  0  2  0  0  0  0  0  0
  188.4400  174.6560  140.8430 C   0  0  0  0  0  0  0  0  0  0  0  0
  186.2520  177.5330  142.1690 C   0  0  0  0  0  0  0  0  0  0  0  0
  188.3340  174.4770  139.4360 N   0  0  0  0  0  1  0  0  0  0  0  0
  184.4160  177.5210  144.4510 O   0  0  0  0  0  0  0  0  0  0  0  0
  187.9740  177.8640  140.5660 O   0  0  0  0  0  1  0  0  0  0  0  0
  189.1020  173.8520  141.6070 N   0  0  0  0  0  0  0  0  0  0  0  0
  189.0170  174.3340  142.9890 C   0  0  1  0  0  3  0  0  0  0  0  0
  186.5610  177.2670  143.5630 N   0  0  0  0  0  0  0  0  0  0  0  0
  187.0790  176.9180  141.0680 C   0  0  1  0  0  3  0  0  0  0  0  0
  187.8400  175.7390  141.5870 C   0  0  0  0  0  0  0  0  0  0  0  0
  187.2130  177.5070  146.5760 C   0  0  0  0  0  3  0  0  0  0  0  0
  186.0320  179.7430  147.7620 C   0  0  0  0  0  3  0  0  0  0  0  0
  187.0910  179.0930  148.4000 C   0  0  0  0  0  3  0  0  0  0  0  0
  185.5660  179.2760  146.5300 C   0  0  0  0  0  3  0  0  0  0  0  0
  186.1570  178.1590  145.9220 C   0  0  0  0  0  0  0  0  0  0  0  0
  187.6810  177.9730  147.8080 C   0  0  0  0  0  3  0  0  0  0  0  0
  191.4330  173.5960  143.2060 C   0  0  0  0  0  2  0  0  0  0  0  0
  191.9590  174.6280  145.3570 C   0  0  0  0  0  2  0  0  0  0  0  0
  190.4180  174.6760  143.5150 C   0  0  2  0  0  3  0  0  0  0  0  0
  190.4980  174.8760  145.0250 C   0  0  1  0  0  3  0  0  0  0  0  0
  192.5210  173.7440  144.2520 C   0  0  0  0  0  2  0  0  0  0  0  0
  189.2880  174.4950  146.9970 C   0  0  0  0  0  1  0  0  0  0  0  0
  189.6770  173.8970  145.7310 N   0  0  0  0  0  2  0  0  0  0  0  0
  1 19  1  0  0  0  0
  2 11  1  0  0  0  0
  2  3  1  0  0  0  0
  4  6  2  0  0  0  0
  5 14  1  0  0  0  0
  5 10  2  0  0  0  0
  6 12  1  0  0  0  0
  7  5  1  0  0  0  0
  8  1  2  0  0  0  0
 11 10  1  6  0  0  0
 11 23  1  0  0  0  0
 12  3  1  0  0  0  0
 12  1  1  0  0  0  0
 13  9  1  1  0  0  0
 13 14  1  0  0  0  0
 13  6  1  0  0  0  0
 14  2  2  0  0  0  0
 15 20  1  0  0  0  0
 16 17  1  0  0  0  0
 18 16  2  0  0  0  0
 19 18  1  0  0  0  0
 19 15  2  0  0  0  0
 20 17  2  0  0  0  0
 21 25  1  0  0  0  0
 23 21  1  1  0  0  0
 23 24  1  0  0  0  0
 24 22  1  0  0  0  0
 24 27  1  1  0  0  0
 25 22  1  0  0  0  0
 27 26  1  0  0  0  0
M  END
>  <MODEL>
8

>  <REMARK>
 VINA RESULT:      -6.3      2.121      4.941
  Name = 
  3 active torsions:
  status: ('A' for Active; 'I' for Inactive)
    1  A    between atoms: C_1  and  C_20
    2  A    between atoms: N_4  and  C_18
    3  A    between atoms: C_12  and  C_22
                            x       y       z     vdW  Elec       q    Type
                         _______ _______ _______ _____ _____    ______ ____

>  <TORSDO>
F 3

$$$$
=
 OpenBabel11062421073D

 27 30  0  0  1  0  0  0  0  0999 V2000
  187.6960  176.5840  145.3960 C   0  0  0  0  0  0  0  0  0  0  0  0
  188.3210  175.4950  141.9050 C   0  0  0  0  0  0  0  0  0  0  0  0
  188.7840  175.7620  143.3010 C   0  0  0  0  0  2  0  0  0  0  0  0
  186.6290  178.7840  143.8010 C   0  0  0  0  0  2  0  0  0  0  0  0
  187.4390  175.8070  139.8930 C   0  0  0  0  0  0  0  0  0  0  0  0
  187.2300  177.7580  143.2060 C   0  0  0  0  0  0  0  0  0  0  0  0
  186.7520  176.4470  138.8240 N   0  0  0  0  0  1  0  0  0  0  0  0
  186.5380  176.7530  145.8690 O   0  0  0  0  0  0  0  0  0  0  0  0
  188.2050  178.6670  141.2400 O   0  0  0  0  0  1  0  0  0  0  0  0
  187.9650  174.6330  139.7880 N   0  0  0  0  0  0  0  0  0  0  0  0
  188.6010  174.2820  141.0620 C   0  0  1  0  0  3  0  0  0  0  0  0
  187.9070  176.7290  143.9760 N   0  0  0  0  0  0  0  0  0  0  0  0
  187.2700  177.7390  141.6990 C   0  0  1  0  0  3  0  0  0  0  0  0
  187.6400  176.3750  141.2050 C   0  0  0  0  0  0  0  0  0  0  0  0
  189.7460  177.1950  146.6850 C   0  0  0  0  0  3  0  0  0  0  0  0
  189.9970  174.5870  147.6560 C   0  0  0  0  0  3  0  0  0  0  0  0
  190.9270  175.5620  148.0260 C   0  0  0  0  0  3  0  0  0  0  0  0
  188.9420  174.9170  146.8020 C   0  0  0  0  0  3  0  0  0  0  0  0
  188.8020  176.2260  146.3150 C   0  0  0  0  0  0  0  0  0  0  0  0
  190.8030  176.8660  147.5390 C   0  0  0  0  0  3  0  0  0  0  0  0
  190.4300  173.3950  139.5470 C   0  0  0  0  0  2  0  0  0  0  0  0
  192.0380  172.7020  141.2510 C   0  0  0  0  0  2  0  0  0  0  0  0
  190.1090  174.0780  140.8600 C   0  0  2  0  0  3  0  0  0  0  0  0
  190.7830  173.2230  141.9280 C   0  0  1  0  0  3  0  0  0  0  0  0
  191.7760  172.7280  139.7520 C   0  0  0  0  0  2  0  0  0  0  0  0
  189.8360  172.1000  143.7550 C   0  0  0  0  0  1  0  0  0  0  0  0
  189.9420  172.0920  142.3060 N   0  0  0  0  0  2  0  0  0  0  0  0
  1  8  2  0  0  0  0
  1 19  1  0  0  0  0
  2  3  1  0  0  0  0
  3 12  1  0  0  0  0
  5 14  1  0  0  0  0
  6  4  2  0  0  0  0
  6 12  1  0  0  0  0
  7  5  1  0  0  0  0
 10  5  2  0  0  0  0
 11 10  1  6  0  0  0
 11  2  1  0  0  0  0
 12  1  1  0  0  0  0
 13  9  1  1  0  0  0
 13  6  1  0  0  0  0
 14 13  1  0  0  0  0
 14  2  2  0  0  0  0
 15 20  1  0  0  0  0
 16 17  1  0  0  0  0
 18 16  2  0  0  0  0
 19 15  2  0  0  0  0
 19 18  1  0  0  0  0
 20 17  2  0  0  0  0
 21 25  1  0  0  0  0
 22 24  1  0  0  0  0
 23 21  1  6  0  0  0
 23 11  1  0  0  0  0
 23 24  1  0  0  0  0
 24 27  1  6  0  0  0
 25 22  1  0  0  0  0
 27 26  1  0  0  0  0
M  END
>  <MODEL>
9

>  <REMARK>
 VINA RESULT:      -6.3      2.422      5.730
  Name = 
  3 active torsions:
  status: ('A' for Active; 'I' for Inactive)
    1  A    between atoms: C_1  and  C_20
    2  A    between atoms: N_4  and  C_18
    3  A    between atoms: C_12  and  C_22
                            x       y       z     vdW  Elec       q    Type
                         _______ _______ _______ _____ _____    ______ ____

>  <TORSDO>
F 3

$$$$
