=
 OpenBabel11062418243D

 48 51  0  0  1  0  0  0  0  0999 V2000
  189.4650  176.0670  146.0770 C   0  0  2  0  0  3  0  0  0  0  0  0
  191.6280  176.5450  147.4120 C   0  0  1  0  0  3  0  0  0  0  0  0
  190.1100  176.3440  147.4360 C   0  0  2  0  0  3  0  0  0  0  0  0
  191.0410  175.2020  147.7920 C   0  0  0  0  0  2  0  0  0  0  0  0
  194.3450  175.9690  146.7660 O   0  0  0  0  0  0  0  0  0  0  0  0
  193.5550  176.1920  145.8120 C   0  0  0  0  0  0  0  0  0  0  0  0
  192.1780  176.4840  146.0630 N   0  0  0  0  0  2  0  0  0  0  0  0
  195.5770  176.0510  144.4090 C   0  0  0  0  0  1  0  0  0  0  0  0
  194.0610  176.1320  144.4110 C   0  0  1  0  0  3  0  0  0  0  0  0
  193.5040  174.9760  143.7290 N   0  0  0  0  0  2  0  0  0  0  0  0
  194.3030  173.8260  144.1140 C   0  0  0  0  0  1  0  0  0  0  0  0
  187.3850  176.2310  147.2150 O   0  0  0  0  0  0  0  0  0  0  0  0
  187.9980  176.3450  146.1200 C   0  0  0  0  0  0  0  0  0  0  0  0
  187.3310  176.7450  144.9520 O   0  0  0  0  0  0  0  0  0  0  0  0
  187.6990  177.8590  144.1310 C   0  0  1  0  0  3  0  0  0  0  0  0
  188.7250  177.5080  143.0470 C   0  0  1  0  0  3  0  0  0  0  0  0
  188.2850  177.9680  141.8040 O   0  0  0  0  0  1  0  0  0  0  0  0
  191.1830  177.3580  142.7040 C   0  0  0  0  0  1  0  0  0  0  0  0
  190.0690  178.1360  143.3710 C   0  0  0  0  0  2  0  0  0  0  0  0
  186.4810  178.6250  143.6090 C   0  0  0  0  0  2  0  0  0  0  0  0
  185.1740  177.8600  143.7760 C   0  0  1  0  0  3  0  0  0  0  0  0
  184.1960  178.6500  144.6370 C   0  0  0  0  0  2  0  0  0  0  0  0
  184.3930  178.2950  146.8070 C   0  0  0  0  0  1  0  0  0  0  0  0
  184.8270  179.1360  145.7840 O   0  0  0  0  0  0  0  0  0  0  0  0
  184.6090  177.6010  142.5260 O   0  0  0  0  0  0  0  0  0  0  0  0
  183.4700  178.4090  142.4710 C   0  0  0  0  0  2  0  0  0  0  0  0
  183.3020  178.0690  140.1470 O   0  0  0  0  0  0  0  0  0  0  0  0
  182.7160  178.1330  141.2150 C   0  0  0  0  0  3  0  0  0  0  0  0
  189.6850  174.6420  145.7020 C   0  0  0  0  0  3  0  0  0  0  0  0
  189.9880  174.3250  144.4850 N   0  0  0  0  0  0  0  0  0  0  0  0
  191.3860  171.7450  140.2700 C   0  0  2  0  0  3  0  0  0  0  0  0
  190.4330  170.8080  141.0230 C   0  0  0  0  0  2  0  0  0  0  0  0
  190.1630  172.5950  142.7220 C   0  0  0  0  0  0  0  0  0  0  0  0
  190.3620  171.2170  142.4180 N   0  0  0  0  0  0  0  0  0  0  0  0
  191.0140  173.2370  140.4470 C   0  0  0  0  0  2  0  0  0  0  0  0
  190.1660  172.9810  144.0050 C   0  0  0  0  0  2  0  0  0  0  0  0
  190.0110  173.5440  141.5690 C   0  0  0  0  0  2  0  0  0  0  0  0
  191.3780  172.6480  136.6790 C   0  0  1  0  0  3  0  0  0  0  0  0
  190.1090  171.1110  138.1750 C   0  0  1  0  0  3  0  0  0  0  0  0
  189.2230  171.8380  136.0880 O   0  0  0  0  0  0  0  0  0  0  0  0
  192.1480  172.4820  137.9810 C   0  0  0  0  0  2  0  0  0  0  0  0
  191.4840  171.3610  138.7890 C   0  0  1  0  0  3  0  0  0  0  0  0
  190.1400  171.8610  136.8940 C   0  0  0  0  0  0  0  0  0  0  0  0
  191.7750  174.6260  135.2370 C   0  0  0  0  0  2  0  0  0  0  0  0
  191.0540  174.1210  136.4710 C   0  0  0  0  0  3  0  0  0  0  0  0
  192.3190  174.9440  136.6120 C   0  0  0  0  0  2  0  0  0  0  0  0
  190.8630  168.9420  137.2860 C   0  0  0  0  0  2  0  0  0  0  0  0
  189.9380  169.6420  137.9390 C   0  0  0  0  0  3  0  0  0  0  0  0
  1 29  1  1  0  0  0
  1 13  1  0  0  0  0
  2  7  1  6  0  0  0
  2  3  1  0  0  0  0
  2  4  1  0  0  0  0
  3  1  1  6  0  0  0
  3  4  1  0  0  0  0
  6  7  1  0  0  0  0
  6  5  2  0  0  0  0
  9  8  1  1  0  0  0
  9  6  1  0  0  0  0
 10 11  1  0  0  0  0
 10  9  1  0  0  0  0
 13 12  2  0  0  0  0
 14 13  1  0  0  0  0
 15 20  1  6  0  0  0
 15 14  1  0  0  0  0
 16 17  1  6  0  0  0
 16 19  1  0  0  0  0
 16 15  1  0  0  0  0
 18 19  1  0  0  0  0
 21 20  1  6  0  0  0
 21 22  1  0  0  0  0
 22 24  1  0  0  0  0
 24 23  1  0  0  0  0
 25 21  1  0  0  0  0
 26 25  1  0  0  0  0
 27 28  2  0  0  0  0
 28 26  1  0  0  0  0
 30 29  2  0  0  0  0
 31 35  1  6  0  0  0
 31 32  1  0  0  0  0
 32 34  1  0  0  0  0
 33 36  1  0  0  0  0
 34 33  2  0  0  0  0
 35 37  1  0  0  0  0
 36 30  1  0  0  0  0
 37 33  1  0  0  0  0
 38 45  1  1  0  0  0
 38 43  1  0  0  0  0
 38 41  1  0  0  0  0
 39 48  1  6  0  0  0
 39 42  1  0  0  0  0
 40 43  2  0  0  0  0
 42 41  1  6  0  0  0
 42 31  1  0  0  0  0
 43 39  1  0  0  0  0
 44 45  1  0  0  0  0
 44 46  1  0  0  0  0
 45 46  1  0  0  0  0
 47 48  2  0  0  0  0
M  END
>  <MODEL>
1

>  <REMARK>
 VINA RESULT:      -6.1      0.000      0.000
  Name = 
  21 active torsions:
  status: ('A' for Active; 'I' for Inactive)
    1  A    between atoms: C_1  and  C_22
    2  A    between atoms: C_3  and  N_32
    3  A    between atoms: C_4  and  N_11
    4  A    between atoms: C_4  and  C_24
    5  A    between atoms: C_5  and  C_17
    6  A    between atoms: C_6  and  C_31
    7  A    between atoms: C_8  and  C_27
    8  A    between atoms: O_10  and  C_16
    9  A    between atoms: O_10  and  C_35
   10  A    between atoms: C_13  and  C_30
   11  A    between atoms: C_13  and  C_35
   12  A    between atoms: C_16  and  C_46
   13  A    between atoms: C_17  and  C_40
   14  A    between atoms: C_17  and  C_48
   15  A    between atoms: C_19  and  C_35
   16  A    between atoms: C_19  and  O_45
   17  A    between atoms: C_20  and  C_30
   18  A    between atoms: C_20  and  C_41
   19  A    between atoms: N_29  and  C_39
   20  A    between atoms: C_30  and  O_36
   21  A    between atoms: O_36  and  C_48
                            x       y       z     vdW  Elec       q    Type
                         _______ _______ _______ _____ _____    ______ ____

>  <TORSDO>
F 21

$$$$
=
 OpenBabel11062418243D

 48 51  0  0  1  0  0  0  0  0999 V2000
  194.7270  174.5630  143.8460 C   0  0  2  0  0  3  0  0  0  0  0  0
  196.8700  173.4430  144.7650 C   0  0  1  0  0  3  0  0  0  0  0  0
  196.0560  174.7290  144.5850 C   0  0  2  0  0  3  0  0  0  0  0  0
  196.0030  173.9630  145.8920 C   0  0  0  0  0  2  0  0  0  0  0  0
  197.1230  170.7460  145.6540 O   0  0  0  0  0  0  0  0  0  0  0  0
  196.4090  170.9600  144.6380 C   0  0  0  0  0  0  0  0  0  0  0  0
  196.2360  172.2900  144.1410 N   0  0  0  0  0  2  0  0  0  0  0  0
  194.9010  169.0400  144.9740 C   0  0  0  0  0  1  0  0  0  0  0  0
  195.7280  169.8170  143.9670 C   0  0  1  0  0  3  0  0  0  0  0  0
  194.8740  170.3050  142.8970 N   0  0  0  0  0  2  0  0  0  0  0  0
  194.6220  169.1860  142.0060 C   0  0  0  0  0  1  0  0  0  0  0  0
  195.4200  176.5280  142.7030 O   0  0  0  0  0  0  0  0  0  0  0  0
  194.5990  175.5730  142.7520 C   0  0  0  0  0  0  0  0  0  0  0  0
  193.5870  175.4330  141.7920 O   0  0  0  0  0  0  0  0  0  0  0  0
  193.5490  174.4290  140.7710 C   0  0  1  0  0  3  0  0  0  0  0  0
  194.9380  173.9680  140.3140 C   0  0  1  0  0  3  0  0  0  0  0  0
  194.9240  172.5970  140.0470 O   0  0  0  0  0  1  0  0  0  0  0  0
  194.1380  175.1930  138.3030 C   0  0  0  0  0  1  0  0  0  0  0  0
  195.3580  174.7210  139.0640 C   0  0  0  0  0  2  0  0  0  0  0  0
  192.5960  173.2820  141.1170 C   0  0  0  0  0  2  0  0  0  0  0  0
  191.1860  173.4900  140.5790 C   0  0  1  0  0  3  0  0  0  0  0  0
  191.1910  173.5080  139.0550 C   0  0  0  0  0  2  0  0  0  0  0  0
  189.7980  173.9380  137.3970 C   0  0  0  0  0  1  0  0  0  0  0  0
  189.9320  173.1710  138.5530 O   0  0  0  0  0  0  0  0  0  0  0  0
  190.3450  172.4760  141.0420 O   0  0  0  0  0  0  0  0  0  0  0  0
  189.7650  172.9920  142.2040 C   0  0  0  0  0  2  0  0  0  0  0  0
  187.7590  172.7440  140.9950 O   0  0  0  0  0  0  0  0  0  0  0  0
  188.2790  172.9860  142.0710 C   0  0  0  0  0  3  0  0  0  0  0  0
  193.6000  174.7310  144.8050 C   0  0  0  0  0  3  0  0  0  0  0  0
  193.2160  175.9140  145.1630 N   0  0  0  0  0  0  0  0  0  0  0  0
  188.1210  176.4770  145.4820 C   0  0  2  0  0  3  0  0  0  0  0  0
  188.6970  177.3300  146.6200 C   0  0  0  0  0  2  0  0  0  0  0  0
  190.9600  176.6690  145.8490 C   0  0  0  0  0  0  0  0  0  0  0  0
  190.0450  176.8770  146.9230 N   0  0  0  0  0  2  0  0  0  0  0  0
  189.0430  176.4450  144.2390 C   0  0  0  0  0  2  0  0  0  0  0  0
  192.1790  176.1870  146.1220 C   0  0  0  0  0  3  0  0  0  0  0  0
  190.4740  176.9610  144.4590 C   0  0  0  0  0  2  0  0  0  0  0  0
  185.6930  177.9290  143.0920 C   0  0  1  0  0  3  0  0  0  0  0  0
  186.4830  178.4090  145.4070 C   0  0  1  0  0  3  0  0  0  0  0  0
  185.4350  180.0800  144.0720 O   0  0  0  0  0  0  0  0  0  0  0  0
  186.4300  176.7090  143.6230 C   0  0  0  0  0  2  0  0  0  0  0  0
  186.7020  176.9270  145.1170 C   0  0  1  0  0  3  0  0  0  0  0  0
  185.8260  178.9270  144.1810 C   0  0  0  0  0  0  0  0  0  0  0  0
  185.4850  178.1360  140.6300 C   0  0  0  0  0  2  0  0  0  0  0  0
  186.3770  178.4170  141.8230 C   0  0  0  0  0  3  0  0  0  0  0  0
  186.6680  177.2370  140.9180 C   0  0  0  0  0  2  0  0  0  0  0  0
  184.3930  177.9610  146.6310 C   0  0  0  0  0  2  0  0  0  0  0  0
  185.5880  178.5470  146.6000 C   0  0  0  0  0  3  0  0  0  0  0  0
  1 29  1  1  0  0  0
  2  7  1  6  0  0  0
  2  4  1  0  0  0  0
  3  1  1  6  0  0  0
  3  2  1  0  0  0  0
  3  4  1  0  0  0  0
  6  5  2  0  0  0  0
  7  6  1  0  0  0  0
  9  6  1  0  0  0  0
  9  8  1  1  0  0  0
 10  9  1  0  0  0  0
 11 10  1  0  0  0  0
 12 13  2  0  0  0  0
 13  1  1  0  0  0  0
 14 13  1  0  0  0  0
 15 20  1  1  0  0  0
 15 14  1  0  0  0  0
 16 17  1  6  0  0  0
 16 15  1  0  0  0  0
 18 19  1  0  0  0  0
 19 16  1  0  0  0  0
 21 22  1  6  0  0  0
 21 25  1  0  0  0  0
 21 20  1  0  0  0  0
 23 24  1  0  0  0  0
 24 22  1  0  0  0  0
 25 26  1  0  0  0  0
 27 28  2  0  0  0  0
 28 26  1  0  0  0  0
 29 30  2  0  0  0  0
 30 36  1  0  0  0  0
 31 35  1  6  0  0  0
 31 32  1  0  0  0  0
 32 34  1  0  0  0  0
 33 36  2  0  0  0  0
 33 34  1  0  0  0  0
 35 37  1  0  0  0  0
 37 33  1  0  0  0  0
 38 45  1  6  0  0  0
 38 41  1  0  0  0  0
 38 43  1  0  0  0  0
 39 48  1  1  0  0  0
 40 43  2  0  0  0  0
 42 41  1  6  0  0  0
 42 39  1  0  0  0  0
 42 31  1  0  0  0  0
 43 39  1  0  0  0  0
 44 46  1  0  0  0  0
 44 45  1  0  0  0  0
 46 45  1  0  0  0  0
 48 47  2  0  0  0  0
M  END
>  <MODEL>
2

>  <REMARK>
 VINA RESULT:      -6.0      3.009      8.143
  Name = 
  21 active torsions:
  status: ('A' for Active; 'I' for Inactive)
    1  A    between atoms: C_1  and  C_22
    2  A    between atoms: C_3  and  N_32
    3  A    between atoms: C_4  and  N_11
    4  A    between atoms: C_4  and  C_24
    5  A    between atoms: C_5  and  C_17
    6  A    between atoms: C_6  and  C_31
    7  A    between atoms: C_8  and  C_27
    8  A    between atoms: O_10  and  C_16
    9  A    between atoms: O_10  and  C_35
   10  A    between atoms: C_13  and  C_30
   11  A    between atoms: C_13  and  C_35
   12  A    between atoms: C_16  and  C_46
   13  A    between atoms: C_17  and  C_40
   14  A    between atoms: C_17  and  C_48
   15  A    between atoms: C_19  and  C_35
   16  A    between atoms: C_19  and  O_45
   17  A    between atoms: C_20  and  C_30
   18  A    between atoms: C_20  and  C_41
   19  A    between atoms: N_29  and  C_39
   20  A    between atoms: C_30  and  O_36
   21  A    between atoms: O_36  and  C_48
                            x       y       z     vdW  Elec       q    Type
                         _______ _______ _______ _____ _____    ______ ____

>  <TORSDO>
F 21

$$$$
=
 OpenBabel11062418243D

 48 51  0  0  1  0  0  0  0  0999 V2000
  190.5070  176.1180  146.1150 C   0  0  2  0  0  3  0  0  0  0  0  0
  192.9940  176.3280  146.7970 C   0  0  1  0  0  3  0  0  0  0  0  0
  191.5390  176.1510  147.2440 C   0  0  2  0  0  3  0  0  0  0  0  0
  192.4560  174.9500  147.1220 C   0  0  0  0  0  2  0  0  0  0  0  0
  195.2740  175.5890  145.2520 O   0  0  0  0  0  0  0  0  0  0  0  0
  194.2960  176.0960  144.6420 C   0  0  0  0  0  0  0  0  0  0  0  0
  193.1190  176.4860  145.3540 N   0  0  0  0  0  2  0  0  0  0  0  0
  195.8140  176.3050  142.7110 C   0  0  0  0  0  1  0  0  0  0  0  0
  194.3660  176.2710  143.1630 C   0  0  1  0  0  3  0  0  0  0  0  0
  193.6670  175.1820  142.4990 N   0  0  0  0  0  2  0  0  0  0  0  0
  194.6780  174.3070  141.9340 C   0  0  0  0  0  1  0  0  0  0  0  0
  189.2060  177.7670  147.2250 O   0  0  0  0  0  0  0  0  0  0  0  0
  189.2050  176.6910  146.5700 C   0  0  0  0  0  0  0  0  0  0  0  0
  188.0060  176.0370  146.2480 O   0  0  0  0  0  0  0  0  0  0  0  0
  186.9260  176.6110  145.5050 C   0  0  1  0  0  3  0  0  0  0  0  0
  185.7790  177.1190  146.3860 C   0  0  1  0  0  3  0  0  0  0  0  0
  186.0850  176.9180  147.7340 O   0  0  0  0  0  1  0  0  0  0  0  0
  184.1120  178.8280  145.6900 C   0  0  0  0  0  1  0  0  0  0  0  0
  185.5390  178.5980  146.1380 C   0  0  0  0  0  2  0  0  0  0  0  0
  187.4090  177.6270  144.4660 C   0  0  0  0  0  2  0  0  0  0  0  0
  187.4460  177.0680  143.0500 C   0  0  1  0  0  3  0  0  0  0  0  0
  186.0930  177.2390  142.3700 C   0  0  0  0  0  2  0  0  0  0  0  0
  185.2040  178.1810  140.5820 C   0  0  0  0  0  1  0  0  0  0  0  0
  186.2460  177.3480  140.9860 O   0  0  0  0  0  0  0  0  0  0  0  0
  188.4380  177.7110  142.3090 O   0  0  0  0  0  0  0  0  0  0  0  0
  189.6350  177.1130  142.7130 C   0  0  0  0  0  2  0  0  0  0  0  0
  190.9150  178.6290  143.9800 O   0  0  0  0  0  0  0  0  0  0  0  0
  190.6890  178.1550  142.8800 C   0  0  0  0  0  3  0  0  0  0  0  0
  190.2980  174.7110  145.6720 C   0  0  0  0  0  3  0  0  0  0  0  0
  190.4920  174.3780  144.4370 N   0  0  0  0  0  0  0  0  0  0  0  0
  191.3220  171.6250  140.1810 C   0  0  2  0  0  3  0  0  0  0  0  0
  190.0600  171.0250  140.8150 C   0  0  0  0  0  2  0  0  0  0  0  0
  190.2430  172.7450  142.5920 C   0  0  0  0  0  0  0  0  0  0  0  0
  190.0120  171.3880  142.2230 N   0  0  0  0  0  0  0  0  0  0  0  0
  191.4360  173.1510  140.4190 C   0  0  0  0  0  2  0  0  0  0  0  0
  190.2660  173.0660  143.8930 C   0  0  0  0  0  2  0  0  0  0  0  0
  190.4980  173.7300  141.4890 C   0  0  0  0  0  2  0  0  0  0  0  0
  191.3800  172.6310  136.6180 C   0  0  1  0  0  3  0  0  0  0  0  0
  190.0290  171.1140  138.0630 C   0  0  1  0  0  3  0  0  0  0  0  0
  189.1910  171.9430  135.9930 O   0  0  0  0  0  0  0  0  0  0  0  0
  192.1320  172.3910  137.9180 C   0  0  0  0  0  2  0  0  0  0  0  0
  191.4100  171.2810  138.6900 C   0  0  1  0  0  3  0  0  0  0  0  0
  190.1040  171.8980  136.8040 C   0  0  0  0  0  0  0  0  0  0  0  0
  191.8570  174.6220  135.2190 C   0  0  0  0  0  2  0  0  0  0  0  0
  191.1270  174.1230  136.4510 C   0  0  0  0  0  3  0  0  0  0  0  0
  192.4340  174.8770  136.5940 C   0  0  0  0  0  2  0  0  0  0  0  0
  190.8070  168.8180  137.6320 C   0  0  0  0  0  2  0  0  0  0  0  0
  189.7890  169.6630  137.7830 C   0  0  0  0  0  3  0  0  0  0  0  0
  1 29  1  1  0  0  0
  1 13  1  0  0  0  0
  2  7  1  6  0  0  0
  2  4  1  0  0  0  0
  2  3  1  0  0  0  0
  3  1  1  6  0  0  0
  4  3  1  0  0  0  0
  6  5  2  0  0  0  0
  6  7  1  0  0  0  0
  9  8  1  6  0  0  0
  9  6  1  0  0  0  0
 10  9  1  0  0  0  0
 11 10  1  0  0  0  0
 13 12  2  0  0  0  0
 14 13  1  0  0  0  0
 15 20  1  1  0  0  0
 15 14  1  0  0  0  0
 15 16  1  0  0  0  0
 16 17  1  1  0  0  0
 18 19  1  0  0  0  0
 19 16  1  0  0  0  0
 21 22  1  6  0  0  0
 21 20  1  0  0  0  0
 23 24  1  0  0  0  0
 24 22  1  0  0  0  0
 25 26  1  0  0  0  0
 25 21  1  0  0  0  0
 26 28  1  0  0  0  0
 28 27  2  0  0  0  0
 30 29  2  0  0  0  0
 31 35  1  6  0  0  0
 31 32  1  0  0  0  0
 32 34  1  0  0  0  0
 33 36  1  0  0  0  0
 34 33  2  0  0  0  0
 35 37  1  0  0  0  0
 36 30  1  0  0  0  0
 37 33  1  0  0  0  0
 38 45  1  1  0  0  0
 38 43  1  0  0  0  0
 38 41  1  0  0  0  0
 39 48  1  6  0  0  0
 39 42  1  0  0  0  0
 40 43  2  0  0  0  0
 42 41  1  6  0  0  0
 42 31  1  0  0  0  0
 43 39  1  0  0  0  0
 44 45  1  0  0  0  0
 44 46  1  0  0  0  0
 45 46  1  0  0  0  0
 47 48  2  0  0  0  0
M  END
>  <MODEL>
3

>  <REMARK>
 VINA RESULT:      -6.0      1.261      3.141
  Name = 
  21 active torsions:
  status: ('A' for Active; 'I' for Inactive)
    1  A    between atoms: C_1  and  C_22
    2  A    between atoms: C_3  and  N_32
    3  A    between atoms: C_4  and  N_11
    4  A    between atoms: C_4  and  C_24
    5  A    between atoms: C_5  and  C_17
    6  A    between atoms: C_6  and  C_31
    7  A    between atoms: C_8  and  C_27
    8  A    between atoms: O_10  and  C_16
    9  A    between atoms: O_10  and  C_35
   10  A    between atoms: C_13  and  C_30
   11  A    between atoms: C_13  and  C_35
   12  A    between atoms: C_16  and  C_46
   13  A    between atoms: C_17  and  C_40
   14  A    between atoms: C_17  and  C_48
   15  A    between atoms: C_19  and  C_35
   16  A    between atoms: C_19  and  O_45
   17  A    between atoms: C_20  and  C_30
   18  A    between atoms: C_20  and  C_41
   19  A    between atoms: N_29  and  C_39
   20  A    between atoms: C_30  and  O_36
   21  A    between atoms: O_36  and  C_48
                            x       y       z     vdW  Elec       q    Type
                         _______ _______ _______ _____ _____    ______ ____

>  <TORSDO>
F 21

$$$$
=
 OpenBabel11062418243D

 48 51  0  0  1  0  0  0  0  0999 V2000
  193.6130  171.4240  142.6780 C   0  0  2  0  0  3  0  0  0  0  0  0
  195.0240  169.4330  141.8190 C   0  0  1  0  0  3  0  0  0  0  0  0
  193.7100  169.9160  142.4410 C   0  0  2  0  0  3  0  0  0  0  0  0
  193.8000  169.6460  140.9520 C   0  0  0  0  0  2  0  0  0  0  0  0
  197.0680  169.4730  139.8310 O   0  0  0  0  0  0  0  0  0  0  0  0
  196.9790  170.4710  140.5950 C   0  0  0  0  0  0  0  0  0  0  0  0
  195.9740  170.5180  141.6120 N   0  0  0  0  0  2  0  0  0  0  0  0
  197.9410  172.0530  138.9680 C   0  0  0  0  0  1  0  0  0  0  0  0
  197.9200  171.6140  140.4210 C   0  0  1  0  0  3  0  0  0  0  0  0
  197.5150  172.7250  141.2660 N   0  0  0  0  0  2  0  0  0  0  0  0
  197.1060  173.8060  140.3860 C   0  0  0  0  0  1  0  0  0  0  0  0
  193.5280  170.7780  144.9630 O   0  0  0  0  0  0  0  0  0  0  0  0
  193.5870  171.7300  144.1400 C   0  0  0  0  0  0  0  0  0  0  0  0
  193.6480  173.0630  144.5720 O   0  0  0  0  0  0  0  0  0  0  0  0
  194.6870  173.6220  145.3840 C   0  0  1  0  0  3  0  0  0  0  0  0
  196.0860  173.4720  144.7760 C   0  0  1  0  0  3  0  0  0  0  0  0
  196.5620  174.7160  144.3560 O   0  0  0  0  0  1  0  0  0  0  0  0
  196.6490  171.4620  146.1280 C   0  0  0  0  0  1  0  0  0  0  0  0
  197.0440  172.8850  145.7990 C   0  0  0  0  0  2  0  0  0  0  0  0
  194.3600  175.0440  145.8480 C   0  0  0  0  0  2  0  0  0  0  0  0
  193.2030  175.6750  145.0840 C   0  0  1  0  0  3  0  0  0  0  0  0
  192.2760  176.4230  146.0350 C   0  0  0  0  0  2  0  0  0  0  0  0
  191.2200  176.4630  147.9730 C   0  0  0  0  0  1  0  0  0  0  0  0
  192.2110  175.7770  147.2720 O   0  0  0  0  0  0  0  0  0  0  0  0
  193.6930  176.5470  144.1100 O   0  0  0  0  0  0  0  0  0  0  0  0
  193.1600  176.0780  142.9060 C   0  0  0  0  0  2  0  0  0  0  0  0
  195.3420  176.4630  142.1070 O   0  0  0  0  0  0  0  0  0  0  0  0
  194.2320  176.0150  141.8710 C   0  0  0  0  0  3  0  0  0  0  0  0
  192.3720  171.9490  142.0430 C   0  0  0  0  0  3  0  0  0  0  0  0
  191.2770  172.0450  142.7250 N   0  0  0  0  0  0  0  0  0  0  0  0
  188.2980  176.2200  142.4540 C   0  0  2  0  0  3  0  0  0  0  0  0
  187.3350  175.0270  142.3910 C   0  0  0  0  0  2  0  0  0  0  0  0
  189.3050  173.5380  142.6220 C   0  0  0  0  0  0  0  0  0  0  0  0
  188.0690  173.8400  141.9800 N   0  0  0  0  0  0  0  0  0  0  0  0
  189.5370  175.9350  143.3380 C   0  0  0  0  0  2  0  0  0  0  0  0
  190.0140  172.4830  142.1970 C   0  0  0  0  0  2  0  0  0  0  0  0
  189.7640  174.4620  143.7120 C   0  0  0  0  0  2  0  0  0  0  0  0
  186.3240  178.1320  144.9340 C   0  0  1  0  0  3  0  0  0  0  0  0
  186.0870  177.4540  142.5480 C   0  0  1  0  0  3  0  0  0  0  0  0
  184.2000  178.0590  143.8680 O   0  0  0  0  0  0  0  0  0  0  0  0
  187.6800  177.6820  144.4140 C   0  0  0  0  0  2  0  0  0  0  0  0
  187.5730  177.4950  142.8960 C   0  0  1  0  0  3  0  0  0  0  0  0
  185.4090  177.9010  143.7900 C   0  0  0  0  0  0  0  0  0  0  0  0
  185.8620  178.1300  147.3710 C   0  0  0  0  0  2  0  0  0  0  0  0
  185.9290  177.2690  146.1250 C   0  0  0  0  0  3  0  0  0  0  0  0
  187.0640  177.2430  147.1300 C   0  0  0  0  0  2  0  0  0  0  0  0
  185.6660  177.9510  140.1730 C   0  0  0  0  0  2  0  0  0  0  0  0
  185.8230  178.3990  141.4160 C   0  0  0  0  0  3  0  0  0  0  0  0
  1 29  1  6  0  0  0
  1 13  1  0  0  0  0
  2  7  1  6  0  0  0
  2  3  1  0  0  0  0
  3  1  1  6  0  0  0
  4  2  1  0  0  0  0
  4  3  1  0  0  0  0
  5  6  2  0  0  0  0
  6  7  1  0  0  0  0
  9  8  1  6  0  0  0
  9  6  1  0  0  0  0
  9 10  1  0  0  0  0
 11 10  1  0  0  0  0
 13 14  1  0  0  0  0
 13 12  2  0  0  0  0
 14 15  1  0  0  0  0
 15 20  1  6  0  0  0
 16 17  1  1  0  0  0
 16 15  1  0  0  0  0
 16 19  1  0  0  0  0
 19 18  1  0  0  0  0
 21 20  1  1  0  0  0
 21 22  1  0  0  0  0
 22 24  1  0  0  0  0
 24 23  1  0  0  0  0
 25 21  1  0  0  0  0
 26 25  1  0  0  0  0
 28 27  2  0  0  0  0
 28 26  1  0  0  0  0
 29 30  2  0  0  0  0
 31 32  1  1  0  0  0
 31 42  1  0  0  0  0
 31 35  1  0  0  0  0
 33 37  1  0  0  0  0
 34 32  1  0  0  0  0
 34 33  2  0  0  0  0
 35 37  1  0  0  0  0
 36 33  1  0  0  0  0
 36 30  1  0  0  0  0
 38 45  1  1  0  0  0
 39 48  1  6  0  0  0
 39 42  1  0  0  0  0
 39 43  1  0  0  0  0
 41 38  1  0  0  0  0
 42 41  1  1  0  0  0
 43 40  2  0  0  0  0
 43 38  1  0  0  0  0
 45 46  1  0  0  0  0
 45 44  1  0  0  0  0
 46 44  1  0  0  0  0
 47 48  2  0  0  0  0
M  END
>  <MODEL>
4

>  <REMARK>
 VINA RESULT:      -5.9      3.457      8.545
  Name = 
  21 active torsions:
  status: ('A' for Active; 'I' for Inactive)
    1  A    between atoms: C_1  and  C_22
    2  A    between atoms: C_3  and  N_32
    3  A    between atoms: C_4  and  N_11
    4  A    between atoms: C_4  and  C_24
    5  A    between atoms: C_5  and  C_17
    6  A    between atoms: C_6  and  C_31
    7  A    between atoms: C_8  and  C_27
    8  A    between atoms: O_10  and  C_16
    9  A    between atoms: O_10  and  C_35
   10  A    between atoms: C_13  and  C_30
   11  A    between atoms: C_13  and  C_35
   12  A    between atoms: C_16  and  C_46
   13  A    between atoms: C_17  and  C_40
   14  A    between atoms: C_17  and  C_48
   15  A    between atoms: C_19  and  C_35
   16  A    between atoms: C_19  and  O_45
   17  A    between atoms: C_20  and  C_30
   18  A    between atoms: C_20  and  C_41
   19  A    between atoms: N_29  and  C_39
   20  A    between atoms: C_30  and  O_36
   21  A    between atoms: O_36  and  C_48
                            x       y       z     vdW  Elec       q    Type
                         _______ _______ _______ _____ _____    ______ ____

>  <TORSDO>
F 21

$$$$
=
 OpenBabel11062418243D

 48 51  0  0  1  0  0  0  0  0999 V2000
  188.0750  176.6710  143.0240 C   0  0  2  0  0  3  0  0  0  0  0  0
  186.4760  178.6610  142.6060 C   0  0  1  0  0  3  0  0  0  0  0  0
  187.4080  177.6020  142.0090 C   0  0  2  0  0  3  0  0  0  0  0  0
  185.9090  177.3790  142.0330 C   0  0  0  0  0  2  0  0  0  0  0  0
  184.2880  179.5140  144.2240 O   0  0  0  0  0  0  0  0  0  0  0  0
  185.3060  179.0630  144.8120 C   0  0  0  0  0  0  0  0  0  0  0  0
  186.4380  178.6140  144.0620 N   0  0  0  0  0  2  0  0  0  0  0  0
  184.1220  178.1830  146.7870 C   0  0  0  0  0  1  0  0  0  0  0  0
  185.3170  178.9820  146.3010 C   0  0  1  0  0  3  0  0  0  0  0  0
  186.5480  178.3580  146.7560 N   0  0  0  0  0  2  0  0  0  0  0  0
  186.2160  177.0040  147.1630 C   0  0  0  0  0  1  0  0  0  0  0  0
  190.1220  177.7470  142.4750 O   0  0  0  0  0  0  0  0  0  0  0  0
  189.4500  177.1500  143.3590 C   0  0  0  0  0  0  0  0  0  0  0  0
  189.9620  176.9480  144.6490 O   0  0  0  0  0  0  0  0  0  0  0  0
  190.5350  175.7260  145.1280 C   0  0  1  0  0  3  0  0  0  0  0  0
  189.5130  174.7820  145.7720 C   0  0  1  0  0  3  0  0  0  0  0  0
  189.7890  173.4600  145.4140 O   0  0  0  0  0  1  0  0  0  0  0  0
  190.9350  175.3470  147.7330 C   0  0  0  0  0  1  0  0  0  0  0  0
  189.5560  174.9140  147.2850 C   0  0  0  0  0  2  0  0  0  0  0  0
  191.4290  175.0530  144.0820 C   0  0  0  0  0  2  0  0  0  0  0  0
  192.7920  175.7180  143.9410 C   0  0  1  0  0  3  0  0  0  0  0  0
  193.8940  174.7990  144.4540 C   0  0  0  0  0  2  0  0  0  0  0  0
  194.4690  175.7820  146.3450 C   0  0  0  0  0  1  0  0  0  0  0  0
  193.8150  174.6590  145.8410 O   0  0  0  0  0  0  0  0  0  0  0  0
  193.0270  176.0450  142.6040 O   0  0  0  0  0  0  0  0  0  0  0  0
  194.2380  175.4240  142.2880 C   0  0  0  0  0  2  0  0  0  0  0  0
  194.3080  175.3510  139.9360 O   0  0  0  0  0  0  0  0  0  0  0  0
  194.7110  175.8900  140.9530 C   0  0  0  0  0  3  0  0  0  0  0  0
  188.1570  175.2950  142.4590 C   0  0  0  0  0  3  0  0  0  0  0  0
  188.6560  175.1000  141.2810 N   0  0  0  0  0  0  0  0  0  0  0  0
  191.8380  171.1210  140.6330 C   0  0  2  0  0  3  0  0  0  0  0  0
  190.9640  171.1530  139.3730 C   0  0  0  0  0  2  0  0  0  0  0  0
  189.8540  173.1670  140.3030 C   0  0  0  0  0  0  0  0  0  0  0  0
  189.7490  171.9030  139.6510 N   0  0  0  0  0  0  0  0  0  0  0  0
  192.1140  172.5360  141.1990 C   0  0  0  0  0  2  0  0  0  0  0  0
  188.7310  173.8250  140.6200 C   0  0  0  0  0  2  0  0  0  0  0  0
  191.2300  173.6610  140.6390 C   0  0  0  0  0  2  0  0  0  0  0  0
  195.0180  169.6540  141.8360 C   0  0  1  0  0  3  0  0  0  0  0  0
  194.3090  171.2890  140.0950 C   0  0  1  0  0  3  0  0  0  0  0  0
  196.5370  171.2450  140.9340 O   0  0  0  0  0  0  0  0  0  0  0  0
  193.5200  169.5160  141.6130 C   0  0  0  0  0  2  0  0  0  0  0  0
  193.1400  170.3520  140.3850 C   0  0  1  0  0  3  0  0  0  0  0  0
  195.4080  170.7780  140.9510 C   0  0  0  0  0  0  0  0  0  0  0  0
  196.1560  168.9290  143.9170 C   0  0  0  0  0  2  0  0  0  0  0  0
  195.2800  169.9990  143.2960 C   0  0  0  0  0  3  0  0  0  0  0  0
  194.6670  168.9350  144.1850 C   0  0  0  0  0  2  0  0  0  0  0  0
  194.4340  170.0790  137.9530 C   0  0  0  0  0  2  0  0  0  0  0  0
  194.6640  171.1950  138.6430 C   0  0  0  0  0  3  0  0  0  0  0  0
  1 29  1  6  0  0  0
  1 13  1  0  0  0  0
  2  7  1  1  0  0  0
  3  4  1  0  0  0  0
  3  2  1  0  0  0  0
  3  1  1  1  0  0  0
  4  2  1  0  0  0  0
  5  6  2  0  0  0  0
  6  9  1  0  0  0  0
  7  6  1  0  0  0  0
  9 10  1  0  0  0  0
  9  8  1  6  0  0  0
 10 11  1  0  0  0  0
 12 13  2  0  0  0  0
 13 14  1  0  0  0  0
 14 15  1  0  0  0  0
 15 20  1  6  0  0  0
 15 16  1  0  0  0  0
 16 17  1  1  0  0  0
 16 19  1  0  0  0  0
 19 18  1  0  0  0  0
 21 20  1  6  0  0  0
 21 22  1  0  0  0  0
 22 24  1  0  0  0  0
 24 23  1  0  0  0  0
 25 21  1  0  0  0  0
 26 25  1  0  0  0  0
 27 28  2  0  0  0  0
 28 26  1  0  0  0  0
 30 29  2  0  0  0  0
 31 32  1  6  0  0  0
 31 35  1  0  0  0  0
 32 34  1  0  0  0  0
 33 36  1  0  0  0  0
 33 37  1  0  0  0  0
 34 33  2  0  0  0  0
 36 30  1  0  0  0  0
 37 35  1  0  0  0  0
 38 45  1  1  0  0  0
 39 48  1  6  0  0  0
 39 42  1  0  0  0  0
 39 43  1  0  0  0  0
 40 43  2  0  0  0  0
 41 38  1  0  0  0  0
 42 31  1  0  0  0  0
 42 41  1  1  0  0  0
 43 38  1  0  0  0  0
 44 46  1  0  0  0  0
 45 44  1  0  0  0  0
 45 46  1  0  0  0  0
 47 48  2  0  0  0  0
M  END
>  <MODEL>
5

>  <REMARK>
 VINA RESULT:      -5.9      3.091      7.199
  Name = 
  21 active torsions:
  status: ('A' for Active; 'I' for Inactive)
    1  A    between atoms: C_1  and  C_22
    2  A    between atoms: C_3  and  N_32
    3  A    between atoms: C_4  and  N_11
    4  A    between atoms: C_4  and  C_24
    5  A    between atoms: C_5  and  C_17
    6  A    between atoms: C_6  and  C_31
    7  A    between atoms: C_8  and  C_27
    8  A    between atoms: O_10  and  C_16
    9  A    between atoms: O_10  and  C_35
   10  A    between atoms: C_13  and  C_30
   11  A    between atoms: C_13  and  C_35
   12  A    between atoms: C_16  and  C_46
   13  A    between atoms: C_17  and  C_40
   14  A    between atoms: C_17  and  C_48
   15  A    between atoms: C_19  and  C_35
   16  A    between atoms: C_19  and  O_45
   17  A    between atoms: C_20  and  C_30
   18  A    between atoms: C_20  and  C_41
   19  A    between atoms: N_29  and  C_39
   20  A    between atoms: C_30  and  O_36
   21  A    between atoms: O_36  and  C_48
                            x       y       z     vdW  Elec       q    Type
                         _______ _______ _______ _____ _____    ______ ____

>  <TORSDO>
F 21

$$$$
=
 OpenBabel11062418243D

 48 51  0  0  1  0  0  0  0  0999 V2000
  188.2560  176.6020  142.6310 C   0  0  2  0  0  3  0  0  0  0  0  0
  186.6490  178.6170  142.4060 C   0  0  1  0  0  3  0  0  0  0  0  0
  187.5990  177.6340  141.7130 C   0  0  2  0  0  3  0  0  0  0  0  0
  186.1010  177.4020  141.6870 C   0  0  0  0  0  2  0  0  0  0  0  0
  185.0040  180.0890  144.2100 O   0  0  0  0  0  0  0  0  0  0  0  0
  185.7410  179.1910  144.6950 C   0  0  0  0  0  0  0  0  0  0  0  0
  186.5890  178.4120  143.8470 N   0  0  0  0  0  2  0  0  0  0  0  0
  184.3570  178.3750  146.5650 C   0  0  0  0  0  1  0  0  0  0  0  0
  185.7110  178.9310  146.1630 C   0  0  1  0  0  3  0  0  0  0  0  0
  186.7580  177.9900  146.5230 N   0  0  0  0  0  2  0  0  0  0  0  0
  186.1400  176.9470  147.3230 C   0  0  0  0  0  1  0  0  0  0  0  0
  190.0040  178.1670  143.0120 O   0  0  0  0  0  0  0  0  0  0  0  0
  189.6860  176.9540  142.8860 C   0  0  0  0  0  0  0  0  0  0  0  0
  190.6430  175.9350  142.9990 O   0  0  0  0  0  0  0  0  0  0  0  0
  191.3340  175.5800  144.2020 C   0  0  1  0  0  3  0  0  0  0  0  0
  190.4130  175.4400  145.4180 C   0  0  1  0  0  3  0  0  0  0  0  0
  189.5240  174.3790  145.2270 O   0  0  0  0  0  1  0  0  0  0  0  0
  191.0050  176.3060  147.6730 C   0  0  0  0  0  1  0  0  0  0  0  0
  191.2310  175.1920  146.6730 C   0  0  0  0  0  2  0  0  0  0  0  0
  192.2810  174.3940  144.0000 C   0  0  0  0  0  2  0  0  0  0  0  0
  193.7350  174.8110  143.8170 C   0  0  1  0  0  3  0  0  0  0  0  0
  194.3080  174.2150  142.5380 C   0  0  0  0  0  2  0  0  0  0  0  0
  194.8830  174.7900  140.4850 C   0  0  0  0  0  1  0  0  0  0  0  0
  193.8560  174.9170  141.4190 O   0  0  0  0  0  0  0  0  0  0  0  0
  193.8310  176.2040  143.7800 O   0  0  0  0  0  0  0  0  0  0  0  0
  194.9800  176.5060  144.5150 C   0  0  0  0  0  2  0  0  0  0  0  0
  194.3690  176.7830  146.7720 O   0  0  0  0  0  0  0  0  0  0  0  0
  194.6150  177.3240  145.7070 C   0  0  0  0  0  3  0  0  0  0  0  0
  188.1860  175.2560  141.9970 C   0  0  0  0  0  3  0  0  0  0  0  0
  188.5920  175.0830  140.7810 N   0  0  0  0  0  0  0  0  0  0  0  0
  190.8870  170.4990  140.4690 C   0  0  2  0  0  3  0  0  0  0  0  0
  190.3140  170.7640  139.0710 C   0  0  0  0  0  2  0  0  0  0  0  0
  189.5080  172.9530  139.9130 C   0  0  0  0  0  0  0  0  0  0  0  0
  189.2630  171.7640  139.1650 N   0  0  0  0  0  0  0  0  0  0  0  0
  191.3460  171.7970  141.1770 C   0  0  0  0  0  2  0  0  0  0  0  0
  188.5170  173.8430  140.0570 C   0  0  0  0  0  2  0  0  0  0  0  0
  190.8630  173.1090  140.5410 C   0  0  0  0  0  2  0  0  0  0  0  0
  193.7370  168.7260  142.0330 C   0  0  1  0  0  3  0  0  0  0  0  0
  193.3350  170.0720  139.9740 C   0  0  1  0  0  3  0  0  0  0  0  0
  195.5230  169.7730  140.8650 O   0  0  0  0  0  0  0  0  0  0  0  0
  192.2380  168.8370  141.8020 C   0  0  0  0  0  2  0  0  0  0  0  0
  192.0110  169.4580  140.4190 C   0  0  1  0  0  3  0  0  0  0  0  0
  194.3260  169.5460  140.9460 C   0  0  0  0  0  0  0  0  0  0  0  0
  194.3320  168.1790  144.3770 C   0  0  0  0  0  2  0  0  0  0  0  0
  194.0810  169.3080  143.3970 C   0  0  0  0  0  3  0  0  0  0  0  0
  193.0120  168.9170  144.3980 C   0  0  0  0  0  2  0  0  0  0  0  0
  193.9370  170.4880  137.6220 C   0  0  0  0  0  2  0  0  0  0  0  0
  193.6450  169.6130  138.5830 C   0  0  0  0  0  3  0  0  0  0  0  0
  1 29  1  6  0  0  0
  1 13  1  0  0  0  0
  2  7  1  1  0  0  0
  3  2  1  0  0  0  0
  3  1  1  1  0  0  0
  4  3  1  0  0  0  0
  4  2  1  0  0  0  0
  5  6  2  0  0  0  0
  6  9  1  0  0  0  0
  7  6  1  0  0  0  0
  9 10  1  0  0  0  0
  9  8  1  6  0  0  0
 10 11  1  0  0  0  0
 13 14  1  0  0  0  0
 13 12  2  0  0  0  0
 14 15  1  0  0  0  0
 15 20  1  6  0  0  0
 15 16  1  0  0  0  0
 16 17  1  6  0  0  0
 16 19  1  0  0  0  0
 19 18  1  0  0  0  0
 21 22  1  6  0  0  0
 21 20  1  0  0  0  0
 23 24  1  0  0  0  0
 24 22  1  0  0  0  0
 25 21  1  0  0  0  0
 25 26  1  0  0  0  0
 26 28  1  0  0  0  0
 28 27  2  0  0  0  0
 30 29  2  0  0  0  0
 31 32  1  6  0  0  0
 31 35  1  0  0  0  0
 32 34  1  0  0  0  0
 33 36  1  0  0  0  0
 33 37  1  0  0  0  0
 34 33  2  0  0  0  0
 36 30  1  0  0  0  0
 37 35  1  0  0  0  0
 38 45  1  1  0  0  0
 39 48  1  6  0  0  0
 39 42  1  0  0  0  0
 39 43  1  0  0  0  0
 40 43  2  0  0  0  0
 41 38  1  0  0  0  0
 42 31  1  0  0  0  0
 42 41  1  1  0  0  0
 43 38  1  0  0  0  0
 44 46  1  0  0  0  0
 45 44  1  0  0  0  0
 45 46  1  0  0  0  0
 47 48  2  0  0  0  0
M  END
>  <MODEL>
6

>  <REMARK>
 VINA RESULT:      -5.8      3.002      7.427
  Name = 
  21 active torsions:
  status: ('A' for Active; 'I' for Inactive)
    1  A    between atoms: C_1  and  C_22
    2  A    between atoms: C_3  and  N_32
    3  A    between atoms: C_4  and  N_11
    4  A    between atoms: C_4  and  C_24
    5  A    between atoms: C_5  and  C_17
    6  A    between atoms: C_6  and  C_31
    7  A    between atoms: C_8  and  C_27
    8  A    between atoms: O_10  and  C_16
    9  A    between atoms: O_10  and  C_35
   10  A    between atoms: C_13  and  C_30
   11  A    between atoms: C_13  and  C_35
   12  A    between atoms: C_16  and  C_46
   13  A    between atoms: C_17  and  C_40
   14  A    between atoms: C_17  and  C_48
   15  A    between atoms: C_19  and  C_35
   16  A    between atoms: C_19  and  O_45
   17  A    between atoms: C_20  and  C_30
   18  A    between atoms: C_20  and  C_41
   19  A    between atoms: N_29  and  C_39
   20  A    between atoms: C_30  and  O_36
   21  A    between atoms: O_36  and  C_48
                            x       y       z     vdW  Elec       q    Type
                         _______ _______ _______ _____ _____    ______ ____

>  <TORSDO>
F 21

$$$$
=
 OpenBabel11062418243D

 48 51  0  0  1  0  0  0  0  0999 V2000
  192.7490  172.0270  142.0010 C   0  0  2  0  0  3  0  0  0  0  0  0
  191.0000  170.3030  141.1870 C   0  0  1  0  0  3  0  0  0  0  0  0
  191.9340  170.7700  142.3090 C   0  0  2  0  0  3  0  0  0  0  0  0
  190.4600  171.1220  142.3400 C   0  0  0  0  0  2  0  0  0  0  0  0
  190.0200  169.6000  138.6030 O   0  0  0  0  0  0  0  0  0  0  0  0
  190.5920  170.7150  138.7250 C   0  0  0  0  0  0  0  0  0  0  0  0
  191.1040  171.1330  139.9940 N   0  0  0  0  0  2  0  0  0  0  0  0
  191.0070  170.7870  136.2960 C   0  0  0  0  0  1  0  0  0  0  0  0
  190.7170  171.6090  137.5390 C   0  0  1  0  0  3  0  0  0  0  0  0
  189.4900  172.3660  137.3550 N   0  0  0  0  0  2  0  0  0  0  0  0
  189.8530  173.7720  137.3410 C   0  0  0  0  0  1  0  0  0  0  0  0
  194.3970  171.4240  143.6030 O   0  0  0  0  0  0  0  0  0  0  0  0
  194.1660  171.8620  142.4450 C   0  0  0  0  0  0  0  0  0  0  0  0
  195.2110  172.1760  141.5640 O   0  0  0  0  0  0  0  0  0  0  0  0
  196.2400  173.1400  141.8130 C   0  0  1  0  0  3  0  0  0  0  0  0
  197.0450  173.5130  140.5620 C   0  0  1  0  0  3  0  0  0  0  0  0
  196.6630  172.7050  139.4880 O   0  0  0  0  0  1  0  0  0  0  0  0
  195.9570  175.0740  138.9610 C   0  0  0  0  0  1  0  0  0  0  0  0
  196.8150  174.9710  140.2030 C   0  0  0  0  0  2  0  0  0  0  0  0
  195.7280  174.3460  142.6050 C   0  0  0  0  0  2  0  0  0  0  0  0
  196.3450  174.4580  143.9930 C   0  0  1  0  0  3  0  0  0  0  0  0
  197.6250  173.6360  144.0800 C   0  0  0  0  0  2  0  0  0  0  0  0
  196.8200  173.0420  146.0480 C   0  0  0  0  0  1  0  0  0  0  0  0
  197.4460  172.5300  144.9130 O   0  0  0  0  0  0  0  0  0  0  0  0
  196.6160  175.7960  144.2880 O   0  0  0  0  0  0  0  0  0  0  0  0
  195.3750  176.4360  144.2290 C   0  0  0  0  0  2  0  0  0  0  0  0
  193.7390  176.3140  145.9180 O   0  0  0  0  0  0  0  0  0  0  0  0
  194.8630  176.6720  145.6100 C   0  0  0  0  0  3  0  0  0  0  0  0
  192.1460  173.1950  142.7020 C   0  0  0  0  0  3  0  0  0  0  0  0
  192.4240  174.4010  142.3230 N   0  0  0  0  0  0  0  0  0  0  0  0
  188.1260  176.4390  144.2590 C   0  0  2  0  0  3  0  0  0  0  0  0
  188.9720  177.6330  143.8000 C   0  0  0  0  0  2  0  0  0  0  0  0
  190.6700  176.0100  143.0050 C   0  0  0  0  0  0  0  0  0  0  0  0
  190.3630  177.2210  143.6900 N   0  0  0  0  0  2  0  0  0  0  0  0
  188.3210  175.1940  143.3600 C   0  0  0  0  0  2  0  0  0  0  0  0
  191.9440  175.5960  142.9630 C   0  0  0  0  0  3  0  0  0  0  0  0
  189.5270  175.2410  142.4090 C   0  0  0  0  0  2  0  0  0  0  0  0
  185.0550  177.9790  142.8780 C   0  0  1  0  0  3  0  0  0  0  0  0
  186.4670  178.2380  144.9160 C   0  0  1  0  0  3  0  0  0  0  0  0
  185.0140  179.9720  144.1730 O   0  0  0  0  0  0  0  0  0  0  0  0
  185.9600  176.7630  143.0070 C   0  0  0  0  0  2  0  0  0  0  0  0
  186.6470  176.8210  144.3770 C   0  0  1  0  0  3  0  0  0  0  0  0
  185.4620  178.8480  144.0080 C   0  0  0  0  0  0  0  0  0  0  0  0
  184.2940  178.2060  140.5290 C   0  0  0  0  0  2  0  0  0  0  0  0
  185.3210  178.6650  141.5450 C   0  0  0  0  0  3  0  0  0  0  0  0
  185.6910  177.6260  140.5050 C   0  0  0  0  0  2  0  0  0  0  0  0
  185.1010  177.2120  146.6900 C   0  0  0  0  0  2  0  0  0  0  0  0
  185.9540  178.1660  146.3210 C   0  0  0  0  0  3  0  0  0  0  0  0
  1 13  1  0  0  0  0
  1 29  1  1  0  0  0
  2  7  1  6  0  0  0
  2  3  1  0  0  0  0
  2  4  1  0  0  0  0
  3  1  1  6  0  0  0
  3  4  1  0  0  0  0
  5  6  2  0  0  0  0
  6  7  1  0  0  0  0
  9  8  1  6  0  0  0
  9  6  1  0  0  0  0
 10  9  1  0  0  0  0
 11 10  1  0  0  0  0
 13 12  2  0  0  0  0
 14 15  1  0  0  0  0
 14 13  1  0  0  0  0
 15 20  1  6  0  0  0
 16 17  1  6  0  0  0
 16 15  1  0  0  0  0
 18 19  1  0  0  0  0
 19 16  1  0  0  0  0
 21 20  1  6  0  0  0
 21 22  1  0  0  0  0
 21 25  1  0  0  0  0
 22 24  1  0  0  0  0
 24 23  1  0  0  0  0
 26 25  1  0  0  0  0
 26 28  1  0  0  0  0
 28 27  2  0  0  0  0
 30 29  2  0  0  0  0
 30 36  1  0  0  0  0
 31 35  1  6  0  0  0
 31 42  1  0  0  0  0
 32 31  1  0  0  0  0
 33 34  1  0  0  0  0
 34 32  1  0  0  0  0
 36 33  2  0  0  0  0
 37 33  1  0  0  0  0
 37 35  1  0  0  0  0
 38 45  1  6  0  0  0
 38 41  1  0  0  0  0
 38 43  1  0  0  0  0
 39 48  1  1  0  0  0
 42 41  1  6  0  0  0
 42 39  1  0  0  0  0
 43 40  2  0  0  0  0
 43 39  1  0  0  0  0
 44 45  1  0  0  0  0
 46 44  1  0  0  0  0
 46 45  1  0  0  0  0
 48 47  2  0  0  0  0
M  END
>  <MODEL>
7

>  <REMARK>
 VINA RESULT:      -5.6      2.944      9.569
  Name = 
  21 active torsions:
  status: ('A' for Active; 'I' for Inactive)
    1  A    between atoms: C_1  and  C_22
    2  A    between atoms: C_3  and  N_32
    3  A    between atoms: C_4  and  N_11
    4  A    between atoms: C_4  and  C_24
    5  A    between atoms: C_5  and  C_17
    6  A    between atoms: C_6  and  C_31
    7  A    between atoms: C_8  and  C_27
    8  A    between atoms: O_10  and  C_16
    9  A    between atoms: O_10  and  C_35
   10  A    between atoms: C_13  and  C_30
   11  A    between atoms: C_13  and  C_35
   12  A    between atoms: C_16  and  C_46
   13  A    between atoms: C_17  and  C_40
   14  A    between atoms: C_17  and  C_48
   15  A    between atoms: C_19  and  C_35
   16  A    between atoms: C_19  and  O_45
   17  A    between atoms: C_20  and  C_30
   18  A    between atoms: C_20  and  C_41
   19  A    between atoms: N_29  and  C_39
   20  A    between atoms: C_30  and  O_36
   21  A    between atoms: O_36  and  C_48
                            x       y       z     vdW  Elec       q    Type
                         _______ _______ _______ _____ _____    ______ ____

>  <TORSDO>
F 21

$$$$
=
 OpenBabel11062418243D

 48 51  0  0  1  0  0  0  0  0999 V2000
  193.1630  171.4810  141.9780 C   0  0  2  0  0  3  0  0  0  0  0  0
  192.5990  169.3780  140.5820 C   0  0  1  0  0  3  0  0  0  0  0  0
  193.1020  169.9540  141.9100 C   0  0  2  0  0  3  0  0  0  0  0  0
  191.6590  169.5150  141.7620 C   0  0  0  0  0  2  0  0  0  0  0  0
  190.4880  169.2910  138.6670 O   0  0  0  0  0  0  0  0  0  0  0  0
  191.2390  170.3020  138.6610 C   0  0  0  0  0  0  0  0  0  0  0  0
  192.3140  170.4120  139.5970 N   0  0  0  0  0  2  0  0  0  0  0  0
  190.0830  170.8980  136.5670 C   0  0  0  0  0  1  0  0  0  0  0  0
  190.9860  171.3960  137.6800 C   0  0  1  0  0  3  0  0  0  0  0  0
  190.3690  172.5300  138.3480 N   0  0  0  0  0  2  0  0  0  0  0  0
  189.2460  172.0170  139.1120 C   0  0  0  0  0  1  0  0  0  0  0  0
  195.0890  172.6680  141.2510 O   0  0  0  0  0  0  0  0  0  0  0  0
  194.5720  171.9490  142.1470 C   0  0  0  0  0  0  0  0  0  0  0  0
  195.2870  171.5980  143.3010 O   0  0  0  0  0  0  0  0  0  0  0  0
  195.1810  172.2520  144.5700 C   0  0  1  0  0  3  0  0  0  0  0  0
  195.1520  171.2840  145.7580 C   0  0  1  0  0  3  0  0  0  0  0  0
  194.3950  170.1550  145.4380 O   0  0  0  0  0  1  0  0  0  0  0  0
  196.5310  169.5580  146.9000 C   0  0  0  0  0  1  0  0  0  0  0  0
  196.5630  170.8570  146.1240 C   0  0  0  0  0  2  0  0  0  0  0  0
  196.1910  173.3930  144.7230 C   0  0  0  0  0  2  0  0  0  0  0  0
  195.5500  174.7740  144.6640 C   0  0  1  0  0  3  0  0  0  0  0  0
  196.0540  175.5490  143.4520 C   0  0  0  0  0  2  0  0  0  0  0  0
  195.6120  176.4800  141.5000 C   0  0  0  0  0  1  0  0  0  0  0  0
  195.0100  175.8050  142.5610 O   0  0  0  0  0  0  0  0  0  0  0  0
  194.1600  174.6530  144.6090 O   0  0  0  0  0  0  0  0  0  0  0  0
  193.7130  175.0670  145.8670 C   0  0  0  0  0  2  0  0  0  0  0  0
  192.7050  176.8540  144.7120 O   0  0  0  0  0  0  0  0  0  0  0  0
  193.1450  176.4430  145.7720 C   0  0  0  0  0  3  0  0  0  0  0  0
  192.3440  171.9610  143.1260 C   0  0  0  0  0  3  0  0  0  0  0  0
  191.4540  172.8850  142.9540 N   0  0  0  0  0  0  0  0  0  0  0  0
  187.8110  176.4280  143.7000 C   0  0  2  0  0  3  0  0  0  0  0  0
  188.5740  176.3410  145.0290 C   0  0  0  0  0  2  0  0  0  0  0  0
  190.0530  174.6570  143.9670 C   0  0  0  0  0  0  0  0  0  0  0  0
  189.2840  175.0730  145.0920 N   0  0  0  0  0  2  0  0  0  0  0  0
  188.7250  176.1810  142.4750 C   0  0  0  0  0  2  0  0  0  0  0  0
  190.6510  173.4580  144.0000 C   0  0  0  0  0  3  0  0  0  0  0  0
  190.1050  175.5790  142.7840 C   0  0  0  0  0  2  0  0  0  0  0  0
  185.2280  178.8070  144.8730 C   0  0  1  0  0  3  0  0  0  0  0  0
  185.7810  177.6130  142.7560 C   0  0  1  0  0  3  0  0  0  0  0  0
  183.5960  178.4620  143.1790 O   0  0  0  0  0  0  0  0  0  0  0  0
  186.6500  178.2770  144.9650 C   0  0  0  0  0  2  0  0  0  0  0  0
  187.0570  177.7560  143.5810 C   0  0  1  0  0  3  0  0  0  0  0  0
  184.7470  178.3120  143.5610 C   0  0  0  0  0  0  0  0  0  0  0  0
  184.9670  178.6830  147.3360 C   0  0  0  0  0  2  0  0  0  0  0  0
  184.3990  178.2220  146.0080 C   0  0  0  0  0  3  0  0  0  0  0  0
  185.2600  177.2860  146.8340 C   0  0  0  0  0  2  0  0  0  0  0  0
  185.9760  177.5720  140.3020 C   0  0  0  0  0  2  0  0  0  0  0  0
  185.9770  178.2800  141.4300 C   0  0  0  0  0  3  0  0  0  0  0  0
  1 13  1  0  0  0  0
  1 29  1  1  0  0  0
  2  7  1  6  0  0  0
  2  4  1  0  0  0  0
  2  3  1  0  0  0  0
  3  1  1  6  0  0  0
  4  3  1  0  0  0  0
  6  5  2  0  0  0  0
  6  7  1  0  0  0  0
  9  8  1  6  0  0  0
  9 10  1  0  0  0  0
  9  6  1  0  0  0  0
 10 11  1  0  0  0  0
 12 13  2  0  0  0  0
 13 14  1  0  0  0  0
 14 15  1  0  0  0  0
 15 20  1  1  0  0  0
 15 16  1  0  0  0  0
 16 17  1  6  0  0  0
 16 19  1  0  0  0  0
 19 18  1  0  0  0  0
 21 22  1  6  0  0  0
 21 20  1  0  0  0  0
 23 24  1  0  0  0  0
 24 22  1  0  0  0  0
 25 21  1  0  0  0  0
 25 26  1  0  0  0  0
 27 28  2  0  0  0  0
 28 26  1  0  0  0  0
 30 29  2  0  0  0  0
 30 36  1  0  0  0  0
 31 35  1  6  0  0  0
 31 32  1  0  0  0  0
 32 34  1  0  0  0  0
 33 36  2  0  0  0  0
 33 34  1  0  0  0  0
 35 37  1  0  0  0  0
 37 33  1  0  0  0  0
 38 41  1  0  0  0  0
 38 45  1  1  0  0  0
 39 48  1  6  0  0  0
 39 43  1  0  0  0  0
 39 42  1  0  0  0  0
 40 43  2  0  0  0  0
 42 31  1  0  0  0  0
 42 41  1  1  0  0  0
 43 38  1  0  0  0  0
 45 46  1  0  0  0  0
 45 44  1  0  0  0  0
 46 44  1  0  0  0  0
 47 48  2  0  0  0  0
M  END
>  <MODEL>
8

>  <REMARK>
 VINA RESULT:      -5.6      2.730      9.557
  Name = 
  21 active torsions:
  status: ('A' for Active; 'I' for Inactive)
    1  A    between atoms: C_1  and  C_22
    2  A    between atoms: C_3  and  N_32
    3  A    between atoms: C_4  and  N_11
    4  A    between atoms: C_4  and  C_24
    5  A    between atoms: C_5  and  C_17
    6  A    between atoms: C_6  and  C_31
    7  A    between atoms: C_8  and  C_27
    8  A    between atoms: O_10  and  C_16
    9  A    between atoms: O_10  and  C_35
   10  A    between atoms: C_13  and  C_30
   11  A    between atoms: C_13  and  C_35
   12  A    between atoms: C_16  and  C_46
   13  A    between atoms: C_17  and  C_40
   14  A    between atoms: C_17  and  C_48
   15  A    between atoms: C_19  and  C_35
   16  A    between atoms: C_19  and  O_45
   17  A    between atoms: C_20  and  C_30
   18  A    between atoms: C_20  and  C_41
   19  A    between atoms: N_29  and  C_39
   20  A    between atoms: C_30  and  O_36
   21  A    between atoms: O_36  and  C_48
                            x       y       z     vdW  Elec       q    Type
                         _______ _______ _______ _____ _____    ______ ____

>  <TORSDO>
F 21

$$$$
=
 OpenBabel11062418243D

 48 51  0  0  1  0  0  0  0  0999 V2000
  193.3240  172.4840  139.8830 C   0  0  2  0  0  3  0  0  0  0  0  0
  194.6930  170.5160  138.9110 C   0  0  1  0  0  3  0  0  0  0  0  0
  193.8100  171.0430  140.0470 C   0  0  2  0  0  3  0  0  0  0  0  0
  193.2160  170.1840  138.9480 C   0  0  0  0  0  2  0  0  0  0  0  0
  197.2690  171.5020  138.1860 O   0  0  0  0  0  0  0  0  0  0  0  0
  196.2720  171.9770  137.5800 C   0  0  0  0  0  0  0  0  0  0  0  0
  194.9510  171.5240  137.8910 N   0  0  0  0  0  2  0  0  0  0  0  0
  195.1730  173.2730  135.7950 C   0  0  0  0  0  1  0  0  0  0  0  0
  196.4790  173.0030  136.5190 C   0  0  1  0  0  3  0  0  0  0  0  0
  196.9810  174.2340  137.1090 N   0  0  0  0  0  2  0  0  0  0  0  0
  195.9920  175.2660  136.8500 C   0  0  0  0  0  1  0  0  0  0  0  0
  195.1730  173.9070  140.3320 O   0  0  0  0  0  0  0  0  0  0  0  0
  194.1000  173.4080  140.7630 C   0  0  0  0  0  0  0  0  0  0  0  0
  193.6150  173.7200  142.0420 O   0  0  0  0  0  0  0  0  0  0  0  0
  194.3960  174.2650  143.1120 C   0  0  1  0  0  3  0  0  0  0  0  0
  193.9900  175.6900  143.5020 C   0  0  1  0  0  3  0  0  0  0  0  0
  193.4960  176.3700  142.3860 O   0  0  0  0  0  1  0  0  0  0  0  0
  192.3990  177.0540  144.8420 C   0  0  0  0  0  1  0  0  0  0  0  0
  192.9250  175.6580  144.5840 C   0  0  0  0  0  2  0  0  0  0  0  0
  194.5060  173.3040  144.2990 C   0  0  0  0  0  2  0  0  0  0  0  0
  193.8440  171.9560  144.0440 C   0  0  1  0  0  3  0  0  0  0  0  0
  194.7890  170.8160  144.4020 C   0  0  0  0  0  2  0  0  0  0  0  0
  195.3710  169.7550  146.2490 C   0  0  0  0  0  1  0  0  0  0  0  0
  194.2690  170.0520  145.4490 O   0  0  0  0  0  0  0  0  0  0  0  0
  192.6680  171.8540  144.7900 O   0  0  0  0  0  0  0  0  0  0  0  0
  191.6730  171.5550  143.8550 C   0  0  0  0  0  2  0  0  0  0  0  0
  189.3520  171.9140  143.6840 O   0  0  0  0  0  0  0  0  0  0  0  0
  190.3880  172.1890  144.2670 C   0  0  0  0  0  3  0  0  0  0  0  0
  191.8790  172.5650  140.2340 C   0  0  0  0  0  3  0  0  0  0  0  0
  191.1440  173.5220  139.7660 N   0  0  0  0  0  0  0  0  0  0  0  0
  188.0870  176.6480  142.4590 C   0  0  2  0  0  3  0  0  0  0  0  0
  187.3540  175.3010  142.4150 C   0  0  0  0  0  2  0  0  0  0  0  0
  189.2820  174.3970  141.1430 C   0  0  0  0  0  0  0  0  0  0  0  0
  187.8710  174.5110  141.3080 N   0  0  0  0  0  2  0  0  0  0  0  0
  189.6260  176.4860  142.4960 C   0  0  0  0  0  2  0  0  0  0  0  0
  189.7570  173.7260  140.0850 C   0  0  0  0  0  3  0  0  0  0  0  0
  190.1560  175.0850  142.1510 C   0  0  0  0  0  2  0  0  0  0  0  0
  187.6630  177.2820  146.0830 C   0  0  1  0  0  3  0  0  0  0  0  0
  186.1910  177.0960  144.0800 C   0  0  1  0  0  3  0  0  0  0  0  0
  185.3440  176.7940  146.2850 O   0  0  0  0  0  0  0  0  0  0  0  0
  188.5190  177.3920  144.8310 C   0  0  0  0  0  2  0  0  0  0  0  0
  187.5850  177.5130  143.6210 C   0  0  1  0  0  3  0  0  0  0  0  0
  186.2970  177.0350  145.5590 C   0  0  0  0  0  0  0  0  0  0  0  0
  189.6090  176.2920  147.2570 C   0  0  0  0  0  2  0  0  0  0  0  0
  188.1430  176.1040  146.9190 C   0  0  0  0  0  3  0  0  0  0  0  0
  189.2040  175.3390  146.1540 C   0  0  0  0  0  2  0  0  0  0  0  0
  185.4280  179.4280  143.8740 C   0  0  0  0  0  2  0  0  0  0  0  0
  185.2020  178.1360  143.6500 C   0  0  0  0  0  3  0  0  0  0  0  0
  1 29  1  1  0  0  0
  1 13  1  0  0  0  0
  2  7  1  6  0  0  0
  2  4  1  0  0  0  0
  2  3  1  0  0  0  0
  3  1  1  6  0  0  0
  4  3  1  0  0  0  0
  6  7  1  0  0  0  0
  6  5  2  0  0  0  0
  9  8  1  1  0  0  0
  9 10  1  0  0  0  0
  9  6  1  0  0  0  0
 11 10  1  0  0  0  0
 12 13  2  0  0  0  0
 13 14  1  0  0  0  0
 14 15  1  0  0  0  0
 15 16  1  0  0  0  0
 15 20  1  1  0  0  0
 16 17  1  6  0  0  0
 16 19  1  0  0  0  0
 19 18  1  0  0  0  0
 21 20  1  1  0  0  0
 21 22  1  0  0  0  0
 21 25  1  0  0  0  0
 22 24  1  0  0  0  0
 24 23  1  0  0  0  0
 26 28  1  0  0  0  0
 26 25  1  0  0  0  0
 27 28  2  0  0  0  0
 30 36  1  0  0  0  0
 30 29  2  0  0  0  0
 31 32  1  1  0  0  0
 31 35  1  0  0  0  0
 31 42  1  0  0  0  0
 33 34  1  0  0  0  0
 33 37  1  0  0  0  0
 34 32  1  0  0  0  0
 36 33  2  0  0  0  0
 37 35  1  0  0  0  0
 38 45  1  1  0  0  0
 39 48  1  1  0  0  0
 39 43  1  0  0  0  0
 41 38  1  0  0  0  0
 42 39  1  0  0  0  0
 42 41  1  1  0  0  0
 43 38  1  0  0  0  0
 43 40  2  0  0  0  0
 45 44  1  0  0  0  0
 46 45  1  0  0  0  0
 46 44  1  0  0  0  0
 48 47  2  0  0  0  0
M  END
>  <MODEL>
9

>  <REMARK>
 VINA RESULT:      -5.5      3.418      9.136
  Name = 
  21 active torsions:
  status: ('A' for Active; 'I' for Inactive)
    1  A    between atoms: C_1  and  C_22
    2  A    between atoms: C_3  and  N_32
    3  A    between atoms: C_4  and  N_11
    4  A    between atoms: C_4  and  C_24
    5  A    between atoms: C_5  and  C_17
    6  A    between atoms: C_6  and  C_31
    7  A    between atoms: C_8  and  C_27
    8  A    between atoms: O_10  and  C_16
    9  A    between atoms: O_10  and  C_35
   10  A    between atoms: C_13  and  C_30
   11  A    between atoms: C_13  and  C_35
   12  A    between atoms: C_16  and  C_46
   13  A    between atoms: C_17  and  C_40
   14  A    between atoms: C_17  and  C_48
   15  A    between atoms: C_19  and  C_35
   16  A    between atoms: C_19  and  O_45
   17  A    between atoms: C_20  and  C_30
   18  A    between atoms: C_20  and  C_41
   19  A    between atoms: N_29  and  C_39
   20  A    between atoms: C_30  and  O_36
   21  A    between atoms: O_36  and  C_48
                            x       y       z     vdW  Elec       q    Type
                         _______ _______ _______ _____ _____    ______ ____

>  <TORSDO>
F 21

$$$$
