=
 OpenBabel11062418513D

 37 41  0  0  1  0  0  0  0  0999 V2000
  191.7150  177.3160  148.3780 O   0  0  0  0  0  0  0  0  0  0  0  0
  187.3020  172.4400  140.9260 O   0  0  0  0  0  0  0  0  0  0  0  0
  187.1130  174.8840  142.3930 C   0  0  0  0  0  3  0  0  0  0  0  0
  191.8510  175.5260  146.7840 C   0  0  1  0  0  3  0  0  0  0  0  0
  192.9330  173.4170  141.7850 C   0  0  0  0  0  2  0  0  0  0  0  0
  194.8480  175.8030  143.9720 O   0  0  0  0  0  0  0  0  0  0  0  0
  192.1410  172.6790  140.7150 C   0  0  0  0  0  2  0  0  0  0  0  0
  195.7820  174.7950  143.6670 C   0  0  2  0  0  3  0  0  0  0  0  0
  189.3410  175.4670  143.8920 C   0  0  0  0  0  0  0  0  0  0  0  0
  191.2340  176.7910  147.3400 C   0  0  0  0  0  0  0  0  0  0  0  0
  189.6270  172.4540  140.8980 N   0  0  0  0  0  2  0  0  0  0  0  0
  190.9210  174.8760  145.7410 C   0  0  0  0  0  2  0  0  0  0  0  0
  194.4050  173.3510  141.5090 C   0  0  0  0  0  0  0  0  0  0  0  0
  190.0790  177.3770  146.7160 N   0  0  0  0  0  0  0  0  0  0  0  0
  187.0590  175.9590  143.2970 C   0  0  0  0  0  0  0  0  0  0  0  0
  190.7740  173.2650  140.6270 C   0  0  0  0  0  0  0  0  0  0  0  0
  193.1040  175.8120  146.2280 O   0  0  0  0  0  0  0  0  0  0  0  0
  188.3770  177.2360  145.0470 N   0  0  0  0  0  2  0  0  0  0  0  0
  195.3720  172.8870  142.5670 C   0  0  1  0  0  3  0  0  0  0  0  0
  193.7990  174.5960  146.2340 C   0  0  0  0  0  2  0  0  0  0  0  0
  190.6360  174.4730  140.2950 O   0  0  0  0  0  0  0  0  0  0  0  0
  195.3070  174.8220  146.1840 C   0  0  0  0  0  2  0  0  0  0  0  0
  188.2140  176.2400  144.0430 C   0  0  0  0  0  0  0  0  0  0  0  0
  195.1480  173.5500  143.7820 O   0  0  0  0  0  0  0  0  0  0  0  0
  194.8370  173.7230  140.4290 O   0  0  0  0  0  0  0  0  0  0  0  0
  189.3920  174.4410  143.0090 N   0  0  0  0  0  0  0  0  0  0  0  0
  190.4390  175.9380  144.7650 C   0  0  2  0  0  3  0  0  0  0  0  0
  188.3000  174.1330  142.2510 C   0  0  0  0  0  0  0  0  0  0  0  0
  188.3660  172.9920  141.3180 C   0  0  0  0  0  0  0  0  0  0  0  0
  195.8390  175.5700  144.9460 C   0  0  2  0  0  3  0  0  0  0  0  0
  189.6940  176.9870  145.5390 C   0  0  0  0  0  0  0  0  0  0  0  0
  195.2550  171.3870  142.7820 C   0  0  0  0  0  2  0  0  0  0  0  0
  195.2660  171.0840  144.2030 N   0  0  0  0  0  1  0  0  0  0  0  0
  185.8700  176.6850  143.4160 O   0  0  0  0  0  0  0  0  0  0  0  0
  185.3910  177.4870  142.4020 N   0  0  0  0  0  2  0  0  0  0  0  0
  186.0000  178.7940  142.5690 C   0  0  0  0  0  2  0  0  0  0  0  0
  185.6000  179.3810  143.9080 C   0  0  0  0  0  1  0  0  0  0  0  0
  2 29  2  0  0  0  0
  3 15  1  0  0  0  0
  4 12  1  6  0  0  0
  4 10  1  0  0  0  0
  6 30  1  0  0  0  0
  7  5  1  0  0  0  0
  8 24  1  1  0  0  0
  8  6  1  0  0  0  0
  8 30  1  0  0  0  0
  9 23  1  0  0  0  0
  9 27  1  0  0  0  0
 10  1  2  0  0  0  0
 11 29  1  0  0  0  0
 13  5  1  0  0  0  0
 13 19  1  0  0  0  0
 14 10  1  0  0  0  0
 15 34  1  0  0  0  0
 15 23  2  0  0  0  0
 16  7  1  0  0  0  0
 16 11  1  0  0  0  0
 17 20  1  0  0  0  0
 17  4  1  0  0  0  0
 18 31  1  0  0  0  0
 19 32  1  1  0  0  0
 19 24  1  0  0  0  0
 21 16  2  0  0  0  0
 22 20  1  0  0  0  0
 23 18  1  0  0  0  0
 25 13  2  0  0  0  0
 26  9  2  0  0  0  0
 27 31  1  0  0  0  0
 27 12  1  1  0  0  0
 28  3  2  0  0  0  0
 28 26  1  0  0  0  0
 29 28  1  0  0  0  0
 30 22  1  1  0  0  0
 31 14  2  0  0  0  0
 32 33  1  0  0  0  0
 35 36  1  0  0  0  0
 35 34  1  0  0  0  0
 36 37  1  0  0  0  0
M  END
>  <MODEL>
1

>  <REMARK>
 VINA RESULT:      -6.7      0.000      0.000
  Name = 
  4 active torsions:
  status: ('A' for Active; 'I' for Inactive)
    1  A    between atoms: N_8  and  C_14
    2  A    between atoms: N_8  and  O_33
    3  A    between atoms: C_12  and  C_22
    4  A    between atoms: C_18  and  O_33
                            x       y       z     vdW  Elec       q    Type
                         _______ _______ _______ _____ _____    ______ ____

>  <TORSDO>
F 4

$$$$
=
 OpenBabel11062418513D

 37 41  0  0  1  0  0  0  0  0999 V2000
  187.7400  176.7010  145.4570 O   0  0  0  0  0  0  0  0  0  0  0  0
  191.5000  170.5240  138.6390 O   0  0  0  0  0  0  0  0  0  0  0  0
  189.7520  172.7720  138.8670 C   0  0  0  0  0  3  0  0  0  0  0  0
  189.4010  175.0470  144.9380 C   0  0  1  0  0  3  0  0  0  0  0  0
  194.2440  173.3790  142.8480 C   0  0  0  0  0  2  0  0  0  0  0  0
  193.3230  176.3010  145.0280 O   0  0  0  0  0  0  0  0  0  0  0  0
  194.6910  172.4020  141.7700 C   0  0  0  0  0  2  0  0  0  0  0  0
  194.3700  175.6710  145.7270 C   0  0  2  0  0  3  0  0  0  0  0  0
  189.9400  174.1000  141.2650 C   0  0  0  0  0  0  0  0  0  0  0  0
  188.3140  176.0310  144.5600 C   0  0  0  0  0  0  0  0  0  0  0  0
  193.0010  171.3330  140.2190 N   0  0  0  0  0  2  0  0  0  0  0  0
  189.7200  174.1060  143.7590 C   0  0  0  0  0  2  0  0  0  0  0  0
  195.4020  173.8170  143.6930 C   0  0  0  0  0  0  0  0  0  0  0  0
  187.9050  176.1790  143.1900 N   0  0  0  0  0  0  0  0  0  0  0  0
  188.8110  173.7740  139.1620 C   0  0  0  0  0  0  0  0  0  0  0  0
  193.7530  172.4840  140.6160 C   0  0  0  0  0  0  0  0  0  0  0  0
  190.5470  175.7380  145.3510 O   0  0  0  0  0  0  0  0  0  0  0  0
  188.0790  175.4450  140.9230 N   0  0  0  0  0  2  0  0  0  0  0  0
  195.3440  173.7250  145.1950 C   0  0  1  0  0  3  0  0  0  0  0  0
  191.2580  174.8340  146.1490 C   0  0  0  0  0  2  0  0  0  0  0  0
  193.6390  173.5680  139.9830 O   0  0  0  0  0  0  0  0  0  0  0  0
  192.2060  175.5620  147.0960 C   0  0  0  0  0  2  0  0  0  0  0  0
  188.9370  174.4420  140.3910 C   0  0  0  0  0  0  0  0  0  0  0  0
  194.1580  174.2850  145.6910 O   0  0  0  0  0  0  0  0  0  0  0  0
  196.3900  174.3020  143.1630 O   0  0  0  0  0  0  0  0  0  0  0  0
  190.8530  173.1430  140.9690 N   0  0  0  0  0  0  0  0  0  0  0  0
  189.8940  174.9280  142.4910 C   0  0  2  0  0  3  0  0  0  0  0  0
  190.7820  172.4710  139.7840 C   0  0  0  0  0  0  0  0  0  0  0  0
  191.7670  171.4110  139.4940 C   0  0  0  0  0  0  0  0  0  0  0  0
  193.2910  176.4320  146.4310 C   0  0  2  0  0  3  0  0  0  0  0  0
  188.6140  175.6680  142.2290 C   0  0  0  0  0  0  0  0  0  0  0  0
  195.4470  172.2780  145.6490 C   0  0  0  0  0  2  0  0  0  0  0  0
  196.8220  171.9610  146.0000 N   0  0  0  0  0  1  0  0  0  0  0  0
  187.8020  174.0510  138.2360 O   0  0  0  0  0  0  0  0  0  0  0  0
  188.0140  174.8480  137.1320 N   0  0  0  0  0  2  0  0  0  0  0  0
  186.9280  175.8110  137.0860 C   0  0  0  0  0  2  0  0  0  0  0  0
  186.8050  176.3830  135.6870 C   0  0  0  0  0  1  0  0  0  0  0  0
  2 29  2  0  0  0  0
  3 15  2  0  0  0  0
  3 28  1  0  0  0  0
  4 12  1  6  0  0  0
  4 17  1  0  0  0  0
  5 13  1  0  0  0  0
  6 30  1  0  0  0  0
  7  5  1  0  0  0  0
  8  6  1  6  0  0  0
  8 30  1  0  0  0  0
  9 27  1  0  0  0  0
 10  4  1  0  0  0  0
 10  1  2  0  0  0  0
 11 16  1  0  0  0  0
 13 19  1  0  0  0  0
 14 10  1  0  0  0  0
 15 23  1  0  0  0  0
 16  7  1  0  0  0  0
 17 20  1  0  0  0  0
 18 31  1  0  0  0  0
 19 32  1  6  0  0  0
 19 24  1  0  0  0  0
 20 22  1  0  0  0  0
 21 16  2  0  0  0  0
 23 18  1  0  0  0  0
 23  9  2  0  0  0  0
 24  8  1  0  0  0  0
 25 13  2  0  0  0  0
 26  9  1  0  0  0  0
 27 12  1  1  0  0  0
 28 26  2  0  0  0  0
 29 28  1  0  0  0  0
 29 11  1  0  0  0  0
 30 22  1  1  0  0  0
 31 27  1  0  0  0  0
 31 14  2  0  0  0  0
 32 33  1  0  0  0  0
 34 15  1  0  0  0  0
 35 34  1  0  0  0  0
 36 35  1  0  0  0  0
 37 36  1  0  0  0  0
M  END
>  <MODEL>
2

>  <REMARK>
 VINA RESULT:      -6.7      2.500      3.986
  Name = 
  4 active torsions:
  status: ('A' for Active; 'I' for Inactive)
    1  A    between atoms: N_8  and  C_14
    2  A    between atoms: N_8  and  O_33
    3  A    between atoms: C_12  and  C_22
    4  A    between atoms: C_18  and  O_33
                            x       y       z     vdW  Elec       q    Type
                         _______ _______ _______ _____ _____    ______ ____

>  <TORSDO>
F 4

$$$$
=
 OpenBabel11062418513D

 37 41  0  0  1  0  0  0  0  0999 V2000
  192.1350  176.7900  147.5370 O   0  0  0  0  0  0  0  0  0  0  0  0
  188.3190  172.4480  139.4520 O   0  0  0  0  0  0  0  0  0  0  0  0
  188.1620  174.8790  140.9430 C   0  0  0  0  0  3  0  0  0  0  0  0
  192.3160  175.0160  145.9310 C   0  0  1  0  0  3  0  0  0  0  0  0
  193.8520  172.8790  141.0640 C   0  0  0  0  0  2  0  0  0  0  0  0
  195.6710  175.0460  143.5410 O   0  0  0  0  0  0  0  0  0  0  0  0
  193.1450  172.2330  139.8820 C   0  0  0  0  0  2  0  0  0  0  0  0
  196.5420  173.9590  143.3350 C   0  0  2  0  0  3  0  0  0  0  0  0
  190.2160  175.2310  142.7350 C   0  0  0  0  0  0  0  0  0  0  0  0
  191.7500  176.3260  146.4330 C   0  0  0  0  0  0  0  0  0  0  0  0
  190.6180  172.2430  139.7290 N   0  0  0  0  0  2  0  0  0  0  0  0
  191.4770  174.4700  144.7580 C   0  0  0  0  0  2  0  0  0  0  0  0
  195.3350  172.6780  140.9800 C   0  0  0  0  0  0  0  0  0  0  0  0
  190.7460  177.0270  145.6780 N   0  0  0  0  0  0  0  0  0  0  0  0
  188.0870  175.9430  141.8590 C   0  0  0  0  0  0  0  0  0  0  0  0
  191.8610  172.9460  139.6300 C   0  0  0  0  0  0  0  0  0  0  0  0
  193.6530  175.1890  145.5500 O   0  0  0  0  0  0  0  0  0  0  0  0
  189.2740  177.0680  143.7980 N   0  0  0  0  0  2  0  0  0  0  0  0
  196.1070  172.1120  142.1440 C   0  0  1  0  0  3  0  0  0  0  0  0
  194.2260  173.9140  145.6160 C   0  0  0  0  0  2  0  0  0  0  0  0
  191.8790  174.1660  139.3130 O   0  0  0  0  0  0  0  0  0  0  0  0
  195.7420  173.9980  145.7690 C   0  0  0  0  0  2  0  0  0  0  0  0
  189.1550  176.1040  142.7570 C   0  0  0  0  0  0  0  0  0  0  0  0
  195.7860  172.7770  143.3360 O   0  0  0  0  0  0  0  0  0  0  0  0
  195.9380  173.0220  139.9750 O   0  0  0  0  0  0  0  0  0  0  0  0
  190.2890  174.2170  141.8400 N   0  0  0  0  0  0  0  0  0  0  0  0
  191.2270  175.5850  143.7550 C   0  0  2  0  0  3  0  0  0  0  0  0
  189.2830  174.0220  140.9390 C   0  0  0  0  0  0  0  0  0  0  0  0
  189.3670  172.8920  139.9940 C   0  0  0  0  0  0  0  0  0  0  0  0
  196.4990  174.7080  144.6300 C   0  0  2  0  0  3  0  0  0  0  0  0
  190.4860  176.6900  144.4510 C   0  0  0  0  0  0  0  0  0  0  0  0
  195.8260  170.6270  142.3030 C   0  0  0  0  0  2  0  0  0  0  0  0
  195.2130  170.3710  143.5960 N   0  0  0  0  0  1  0  0  0  0  0  0
  186.9650  176.7760  141.8410 O   0  0  0  0  0  0  0  0  0  0  0  0
  185.9440  176.6570  142.7590 N   0  0  0  0  0  2  0  0  0  0  0  0
  185.1510  177.8710  142.6750 C   0  0  0  0  0  2  0  0  0  0  0  0
  185.9420  179.0410  143.2280 C   0  0  0  0  0  1  0  0  0  0  0  0
  2 29  2  0  0  0  0
  3 15  1  0  0  0  0
  4 12  1  6  0  0  0
  4 10  1  0  0  0  0
  6 30  1  0  0  0  0
  7  5  1  0  0  0  0
  8 24  1  1  0  0  0
  8  6  1  0  0  0  0
  8 30  1  0  0  0  0
  9 23  1  0  0  0  0
  9 27  1  0  0  0  0
 10  1  2  0  0  0  0
 11 29  1  0  0  0  0
 13  5  1  0  0  0  0
 13 19  1  0  0  0  0
 14 10  1  0  0  0  0
 15 23  2  0  0  0  0
 16 11  1  0  0  0  0
 16  7  1  0  0  0  0
 17 20  1  0  0  0  0
 17  4  1  0  0  0  0
 18 31  1  0  0  0  0
 19 32  1  1  0  0  0
 19 24  1  0  0  0  0
 20 22  1  0  0  0  0
 21 16  2  0  0  0  0
 23 18  1  0  0  0  0
 25 13  2  0  0  0  0
 26  9  2  0  0  0  0
 27 31  1  0  0  0  0
 27 12  1  1  0  0  0
 28  3  2  0  0  0  0
 28 26  1  0  0  0  0
 29 28  1  0  0  0  0
 30 22  1  1  0  0  0
 31 14  2  0  0  0  0
 32 33  1  0  0  0  0
 34 15  1  0  0  0  0
 34 35  1  0  0  0  0
 36 35  1  0  0  0  0
 36 37  1  0  0  0  0
M  END
>  <MODEL>
3

>  <REMARK>
 VINA RESULT:      -6.6      1.290      1.356
  Name = 
  4 active torsions:
  status: ('A' for Active; 'I' for Inactive)
    1  A    between atoms: N_8  and  C_14
    2  A    between atoms: N_8  and  O_33
    3  A    between atoms: C_12  and  C_22
    4  A    between atoms: C_18  and  O_33
                            x       y       z     vdW  Elec       q    Type
                         _______ _______ _______ _____ _____    ______ ____

>  <TORSDO>
F 4

$$$$
=
 OpenBabel11062418513D

 37 41  0  0  1  0  0  0  0  0999 V2000
  186.8670  176.8560  140.2460 O   0  0  0  0  0  0  0  0  0  0  0  0
  191.6860  168.4080  142.2910 O   0  0  0  0  0  0  0  0  0  0  0  0
  190.6470  169.8850  140.0780 C   0  0  0  0  0  3  0  0  0  0  0  0
  188.1120  175.5900  141.8610 C   0  0  1  0  0  3  0  0  0  0  0  0
  192.7900  173.7570  144.1780 C   0  0  0  0  0  2  0  0  0  0  0  0
  191.7230  177.1800  143.0440 O   0  0  0  0  0  0  0  0  0  0  0  0
  193.4260  172.3970  144.4280 C   0  0  0  0  0  2  0  0  0  0  0  0
  192.1370  177.3760  144.3750 C   0  0  2  0  0  3  0  0  0  0  0  0
  190.0310  172.4980  140.6640 C   0  0  0  0  0  0  0  0  0  0  0  0
  187.6050  175.8600  140.4610 C   0  0  0  0  0  0  0  0  0  0  0  0
  192.4370  170.3040  143.4060 N   0  0  0  0  0  2  0  0  0  0  0  0
  188.6950  174.1670  141.9670 C   0  0  0  0  0  2  0  0  0  0  0  0
  193.4960  174.8330  144.9470 C   0  0  0  0  0  0  0  0  0  0  0  0
  187.9240  174.9650  139.3820 N   0  0  0  0  0  0  0  0  0  0  0  0
  189.9580  170.6500  139.1210 C   0  0  0  0  0  0  0  0  0  0  0  0
  193.1790  171.5180  143.2520 C   0  0  0  0  0  0  0  0  0  0  0  0
  189.0690  176.5500  142.2140 O   0  0  0  0  0  0  0  0  0  0  0  0
  188.9350  172.9250  138.6620 N   0  0  0  0  0  2  0  0  0  0  0  0
  192.7310  175.7810  145.8330 C   0  0  1  0  0  3  0  0  0  0  0  0
  189.0840  176.5630  143.6140 C   0  0  0  0  0  2  0  0  0  0  0  0
  193.6420  171.8410  142.1250 O   0  0  0  0  0  0  0  0  0  0  0  0
  189.6360  177.8820  144.1470 C   0  0  0  0  0  2  0  0  0  0  0  0
  189.6640  171.9840  139.4440 C   0  0  0  0  0  0  0  0  0  0  0  0
  191.6300  176.3270  145.1570 O   0  0  0  0  0  0  0  0  0  0  0  0
  194.7020  174.9770  144.8200 O   0  0  0  0  0  0  0  0  0  0  0  0
  190.7080  171.7610  141.5770 N   0  0  0  0  0  0  0  0  0  0  0  0
  189.6310  173.9160  140.7950 C   0  0  2  0  0  3  0  0  0  0  0  0
  191.0280  170.4620  141.3090 C   0  0  0  0  0  0  0  0  0  0  0  0
  191.7380  169.6660  142.3290 C   0  0  0  0  0  0  0  0  0  0  0  0
  191.0820  178.2250  143.7390 C   0  0  2  0  0  3  0  0  0  0  0  0
  188.8440  174.0600  139.5240 C   0  0  0  0  0  0  0  0  0  0  0  0
  192.2520  175.0750  147.0900 C   0  0  0  0  0  2  0  0  0  0  0  0
  190.8410  175.3470  147.3090 N   0  0  0  0  0  1  0  0  0  0  0  0
  189.5930  170.0530  137.9110 O   0  0  0  0  0  0  0  0  0  0  0  0
  190.5220  169.5170  137.0440 N   0  0  0  0  0  2  0  0  0  0  0  0
  190.8750  170.5610  136.0990 C   0  0  0  0  0  2  0  0  0  0  0  0
  189.6180  171.2350  135.5830 C   0  0  0  0  0  1  0  0  0  0  0  0
  1 10  2  0  0  0  0
  2 29  2  0  0  0  0
  3 28  1  0  0  0  0
  4 12  1  6  0  0  0
  4 17  1  0  0  0  0
  5  7  1  0  0  0  0
  5 13  1  0  0  0  0
  6 30  1  0  0  0  0
  8  6  1  6  0  0  0
  8 24  1  0  0  0  0
  9 27  1  0  0  0  0
  9 26  1  0  0  0  0
 10  4  1  0  0  0  0
 13 19  1  0  0  0  0
 14 31  2  0  0  0  0
 14 10  1  0  0  0  0
 15 23  1  0  0  0  0
 15  3  2  0  0  0  0
 16 11  1  0  0  0  0
 16  7  1  0  0  0  0
 17 20  1  0  0  0  0
 18 23  1  0  0  0  0
 18 31  1  0  0  0  0
 19 32  1  1  0  0  0
 20 22  1  0  0  0  0
 21 16  2  0  0  0  0
 23  9  2  0  0  0  0
 24 19  1  0  0  0  0
 25 13  2  0  0  0  0
 27 12  1  1  0  0  0
 28 26  2  0  0  0  0
 28 29  1  0  0  0  0
 29 11  1  0  0  0  0
 30 22  1  1  0  0  0
 30  8  1  0  0  0  0
 31 27  1  0  0  0  0
 32 33  1  0  0  0  0
 34 15  1  0  0  0  0
 35 34  1  0  0  0  0
 36 35  1  0  0  0  0
 37 36  1  0  0  0  0
M  END
>  <MODEL>
4

>  <REMARK>
 VINA RESULT:      -6.6      2.917      6.505
  Name = 
  4 active torsions:
  status: ('A' for Active; 'I' for Inactive)
    1  A    between atoms: N_8  and  C_14
    2  A    between atoms: N_8  and  O_33
    3  A    between atoms: C_12  and  C_22
    4  A    between atoms: C_18  and  O_33
                            x       y       z     vdW  Elec       q    Type
                         _______ _______ _______ _____ _____    ______ ____

>  <TORSDO>
F 4

$$$$
=
 OpenBabel11062418513D

 37 41  0  0  1  0  0  0  0  0999 V2000
  194.2700  177.4310  146.8880 O   0  0  0  0  0  0  0  0  0  0  0  0
  194.0390  171.1470  139.1910 O   0  0  0  0  0  0  0  0  0  0  0  0
  195.1960  171.4270  141.7880 C   0  0  0  0  0  3  0  0  0  0  0  0
  193.1830  176.7880  144.8460 C   0  0  1  0  0  3  0  0  0  0  0  0
  189.6360  173.7660  141.8640 C   0  0  0  0  0  2  0  0  0  0  0  0
  189.2800  175.5140  145.1750 O   0  0  0  0  0  0  0  0  0  0  0  0
  189.7370  172.8150  140.6810 C   0  0  0  0  0  2  0  0  0  0  0  0
  188.1940  175.9930  144.4180 C   0  0  2  0  0  3  0  0  0  0  0  0
  194.0200  173.3690  143.3360 C   0  0  0  0  0  0  0  0  0  0  0  0
  194.1400  176.5540  145.9950 C   0  0  0  0  0  0  0  0  0  0  0  0
  191.9940  172.0470  139.8330 N   0  0  0  0  0  2  0  0  0  0  0  0
  193.4280  175.7720  143.7140 C   0  0  0  0  0  2  0  0  0  0  0  0
  188.2110  174.1450  142.1320 C   0  0  0  0  0  0  0  0  0  0  0  0
  194.9330  175.3560  146.0550 N   0  0  0  0  0  0  0  0  0  0  0  0
  195.8000  171.7790  143.0080 C   0  0  0  0  0  0  0  0  0  0  0  0
  190.9640  171.9840  140.8240 C   0  0  0  0  0  0  0  0  0  0  0  0
  191.8620  176.7170  145.3060 O   0  0  0  0  0  0  0  0  0  0  0  0
  195.6240  173.3200  145.0150 N   0  0  0  0  0  2  0  0  0  0  0  0
  187.8010  175.5900  142.2500 C   0  0  1  0  0  3  0  0  0  0  0  0
  191.1050  177.4370  144.3740 C   0  0  0  0  0  2  0  0  0  0  0  0
  191.0800  171.2130  141.8150 O   0  0  0  0  0  0  0  0  0  0  0  0
  189.7910  177.9160  144.9830 C   0  0  0  0  0  2  0  0  0  0  0  0
  195.1730  172.7680  143.7820 C   0  0  0  0  0  0  0  0  0  0  0  0
  188.6480  176.2860  143.1240 O   0  0  0  0  0  0  0  0  0  0  0  0
  187.3740  173.2730  142.3070 O   0  0  0  0  0  0  0  0  0  0  0  0
  193.4340  173.0150  142.1670 N   0  0  0  0  0  0  0  0  0  0  0  0
  193.5260  174.3730  144.3040 C   0  0  2  0  0  3  0  0  0  0  0  0
  193.9970  172.0510  141.3810 C   0  0  0  0  0  0  0  0  0  0  0  0
  193.3610  171.7030  140.0960 C   0  0  0  0  0  0  0  0  0  0  0  0
  188.8390  176.8140  145.4900 C   0  0  2  0  0  3  0  0  0  0  0  0
  194.6700  174.3500  145.2760 C   0  0  0  0  0  0  0  0  0  0  0  0
  187.8170  176.2660  140.8880 C   0  0  0  0  0  2  0  0  0  0  0  0
  187.4260  177.6590  141.0180 N   0  0  0  0  0  1  0  0  0  0  0  0
  196.9860  171.1440  143.3860 O   0  0  0  0  0  0  0  0  0  0  0  0
  196.9950  169.9470  144.0710 N   0  0  0  0  0  2  0  0  0  0  0  0
  197.5430  170.2150  145.3880 C   0  0  0  0  0  2  0  0  0  0  0  0
  196.4640  170.0410  146.4400 C   0  0  0  0  0  1  0  0  0  0  0  0
  2 29  2  0  0  0  0
  3 15  1  0  0  0  0
  4 12  1  6  0  0  0
  4 17  1  0  0  0  0
  4 10  1  0  0  0  0
  5 13  1  0  0  0  0
  6 30  1  0  0  0  0
  7 16  1  0  0  0  0
  7  5  1  0  0  0  0
  8 24  1  6  0  0  0
  8  6  1  0  0  0  0
  8 30  1  0  0  0  0
  9 23  1  0  0  0  0
  9 27  1  0  0  0  0
 10 14  1  0  0  0  0
 10  1  2  0  0  0  0
 11 29  1  0  0  0  0
 11 16  1  0  0  0  0
 13 19  1  0  0  0  0
 13 25  2  0  0  0  0
 15 34  1  0  0  0  0
 15 23  2  0  0  0  0
 16 21  2  0  0  0  0
 18 31  1  0  0  0  0
 19 32  1  6  0  0  0
 19 24  1  0  0  0  0
 20 22  1  0  0  0  0
 20 17  1  0  0  0  0
 23 18  1  0  0  0  0
 26  9  2  0  0  0  0
 27 12  1  6  0  0  0
 27 31  1  0  0  0  0
 28  3  2  0  0  0  0
 28 26  1  0  0  0  0
 29 28  1  0  0  0  0
 30 22  1  6  0  0  0
 31 14  2  0  0  0  0
 32 33  1  0  0  0  0
 34 35  1  0  0  0  0
 35 36  1  0  0  0  0
 36 37  1  0  0  0  0
M  END
>  <MODEL>
5

>  <REMARK>
 VINA RESULT:      -6.6      2.504      7.356
  Name = 
  4 active torsions:
  status: ('A' for Active; 'I' for Inactive)
    1  A    between atoms: N_8  and  C_14
    2  A    between atoms: N_8  and  O_33
    3  A    between atoms: C_12  and  C_22
    4  A    between atoms: C_18  and  O_33
                            x       y       z     vdW  Elec       q    Type
                         _______ _______ _______ _____ _____    ______ ____

>  <TORSDO>
F 4

$$$$
=
 OpenBabel11062418513D

 37 41  0  0  1  0  0  0  0  0999 V2000
  189.3230  170.9120  138.3260 O   0  0  0  0  0  0  0  0  0  0  0  0
  191.5220  178.8500  143.8870 O   0  0  0  0  0  0  0  0  0  0  0  0
  189.2750  177.4670  142.7910 C   0  0  0  0  0  3  0  0  0  0  0  0
  190.9810  172.0590  139.6290 C   0  0  1  0  0  3  0  0  0  0  0  0
  193.4700  173.4320  144.3760 C   0  0  0  0  0  2  0  0  0  0  0  0
  192.3090  170.1250  143.0140 O   0  0  0  0  0  0  0  0  0  0  0  0
  193.7400  174.7230  145.1350 C   0  0  0  0  0  2  0  0  0  0  0  0
  193.6560  169.8990  143.3550 C   0  0  2  0  0  3  0  0  0  0  0  0
  189.8470  174.9340  141.8930 C   0  0  0  0  0  0  0  0  0  0  0  0
  189.5630  171.8310  139.1510 C   0  0  0  0  0  0  0  0  0  0  0  0
  192.6720  176.8970  144.4010 N   0  0  0  0  0  2  0  0  0  0  0  0
  191.1030  173.4180  140.3480 C   0  0  0  0  0  2  0  0  0  0  0  0
  194.2700  172.2970  144.9400 C   0  0  0  0  0  0  0  0  0  0  0  0
  188.4930  172.6810  139.6000 N   0  0  0  0  0  0  0  0  0  0  0  0
  188.2950  176.7680  142.0650 C   0  0  0  0  0  0  0  0  0  0  0  0
  192.5510  175.6140  145.0220 C   0  0  0  0  0  0  0  0  0  0  0  0
  191.3740  171.0110  140.4710 O   0  0  0  0  0  0  0  0  0  0  0  0
  187.8050  174.6040  140.8380 N   0  0  0  0  0  2  0  0  0  0  0  0
  195.1290  171.4370  144.0500 C   0  0  1  0  0  3  0  0  0  0  0  0
  192.7730  171.0070  140.4300 C   0  0  0  0  0  2  0  0  0  0  0  0
  191.4450  175.2370  145.4940 O   0  0  0  0  0  0  0  0  0  0  0  0
  193.3320  169.6440  140.8260 C   0  0  0  0  0  2  0  0  0  0  0  0
  188.6110  175.4730  141.6260 C   0  0  0  0  0  0  0  0  0  0  0  0
  194.4130  170.9980  142.9270 O   0  0  0  0  0  0  0  0  0  0  0  0
  194.1910  172.0310  146.1290 O   0  0  0  0  0  0  0  0  0  0  0  0
  190.7830  175.6060  142.6060 N   0  0  0  0  0  0  0  0  0  0  0  0
  189.9670  173.5640  141.3480 C   0  0  2  0  0  3  0  0  0  0  0  0
  190.5220  176.8650  143.0650 C   0  0  0  0  0  0  0  0  0  0  0  0
  191.5660  177.5930  143.8110 C   0  0  0  0  0  0  0  0  0  0  0  0
  192.9820  169.1550  142.2450 C   0  0  2  0  0  3  0  0  0  0  0  0
  188.6680  173.4900  140.6000 C   0  0  0  0  0  0  0  0  0  0  0  0
  196.3640  172.1970  143.5960 C   0  0  0  0  0  2  0  0  0  0  0  0
  197.2930  172.3480  144.7040 N   0  0  0  0  0  1  0  0  0  0  0  0
  187.0690  177.3890  141.8090 O   0  0  0  0  0  0  0  0  0  0  0  0
  186.7860  178.6670  142.2420 N   0  0  0  0  0  2  0  0  0  0  0  0
  185.6050  178.5810  143.0820 C   0  0  0  0  0  2  0  0  0  0  0  0
  185.9330  179.0640  144.4820 C   0  0  0  0  0  1  0  0  0  0  0  0
  1 10  2  0  0  0  0
  3 28  1  0  0  0  0
  4 12  1  1  0  0  0
  4 17  1  0  0  0  0
  5 13  1  0  0  0  0
  5  7  1  0  0  0  0
  6  8  1  0  0  0  0
  8 24  1  6  0  0  0
  9 26  1  0  0  0  0
 10 14  1  0  0  0  0
 10  4  1  0  0  0  0
 11 16  1  0  0  0  0
 13 25  2  0  0  0  0
 14 31  2  0  0  0  0
 15  3  2  0  0  0  0
 16  7  1  0  0  0  0
 16 21  2  0  0  0  0
 18 23  1  0  0  0  0
 19 32  1  6  0  0  0
 19 13  1  0  0  0  0
 20 17  1  0  0  0  0
 20 22  1  0  0  0  0
 23  9  2  0  0  0  0
 23 15  1  0  0  0  0
 24 19  1  0  0  0  0
 26 28  2  0  0  0  0
 27 12  1  6  0  0  0
 27  9  1  0  0  0  0
 28 29  1  0  0  0  0
 29  2  2  0  0  0  0
 29 11  1  0  0  0  0
 30 22  1  6  0  0  0
 30  6  1  0  0  0  0
 30  8  1  0  0  0  0
 31 18  1  0  0  0  0
 31 27  1  0  0  0  0
 32 33  1  0  0  0  0
 34 15  1  0  0  0  0
 34 35  1  0  0  0  0
 35 36  1  0  0  0  0
 36 37  1  0  0  0  0
M  END
>  <MODEL>
6

>  <REMARK>
 VINA RESULT:      -6.4      2.363      5.553
  Name = 
  4 active torsions:
  status: ('A' for Active; 'I' for Inactive)
    1  A    between atoms: N_8  and  C_14
    2  A    between atoms: N_8  and  O_33
    3  A    between atoms: C_12  and  C_22
    4  A    between atoms: C_18  and  O_33
                            x       y       z     vdW  Elec       q    Type
                         _______ _______ _______ _____ _____    ______ ____

>  <TORSDO>
F 4

$$$$
=
 OpenBabel11062418513D

 37 41  0  0  1  0  0  0  0  0999 V2000
  187.8570  172.5280  139.4290 O   0  0  0  0  0  0  0  0  0  0  0  0
  194.2120  177.3380  145.3670 O   0  0  0  0  0  0  0  0  0  0  0  0
  191.4090  176.9550  144.9690 C   0  0  0  0  0  3  0  0  0  0  0  0
  190.1230  172.7530  140.1900 C   0  0  1  0  0  3  0  0  0  0  0  0
  194.2810  171.8010  143.7130 C   0  0  0  0  0  2  0  0  0  0  0  0
  191.7140  169.5190  142.1820 O   0  0  0  0  0  0  0  0  0  0  0  0
  195.1910  172.6530  144.5860 C   0  0  0  0  0  2  0  0  0  0  0  0
  192.9420  168.8970  141.8880 C   0  0  2  0  0  3  0  0  0  0  0  0
  190.7870  174.8340  143.3370 C   0  0  0  0  0  0  0  0  0  0  0  0
  188.6360  173.0250  140.2830 C   0  0  0  0  0  0  0  0  0  0  0  0
  194.7410  175.1250  144.8890 N   0  0  0  0  0  2  0  0  0  0  0  0
  190.9120  173.7140  141.1020 C   0  0  0  0  0  2  0  0  0  0  0  0
  194.7880  170.3940  143.6170 C   0  0  0  0  0  0  0  0  0  0  0  0
  188.1110  173.8790  141.3140 N   0  0  0  0  0  0  0  0  0  0  0  0
  190.0770  176.7880  144.5540 C   0  0  0  0  0  0  0  0  0  0  0  0
  194.3980  173.7660  145.1780 C   0  0  0  0  0  0  0  0  0  0  0  0
  190.3840  171.4180  140.5240 O   0  0  0  0  0  0  0  0  0  0  0  0
  188.5320  175.3520  143.1460 N   0  0  0  0  0  2  0  0  0  0  0  0
  194.9850  169.7300  142.2790 C   0  0  1  0  0  3  0  0  0  0  0  0
  191.6140  171.1200  139.9250 C   0  0  0  0  0  2  0  0  0  0  0  0
  193.4360  173.5030  145.9490 O   0  0  0  0  0  0  0  0  0  0  0  0
  191.7780  169.6170  139.7220 C   0  0  0  0  0  2  0  0  0  0  0  0
  189.7860  175.6910  143.7280 C   0  0  0  0  0  0  0  0  0  0  0  0
  193.8500  169.8800  141.4690 O   0  0  0  0  0  0  0  0  0  0  0  0
  195.0010  169.7550  144.6360 O   0  0  0  0  0  0  0  0  0  0  0  0
  192.0670  174.9920  143.7520 N   0  0  0  0  0  0  0  0  0  0  0  0
  190.2640  173.7490  142.4780 C   0  0  2  0  0  3  0  0  0  0  0  0
  192.4010  176.0360  144.5650 C   0  0  0  0  0  0  0  0  0  0  0  0
  193.8070  176.2090  144.9800 C   0  0  0  0  0  0  0  0  0  0  0  0
  191.7470  168.7540  140.9990 C   0  0  2  0  0  3  0  0  0  0  0  0
  188.8510  174.2300  142.3220 C   0  0  0  0  0  0  0  0  0  0  0  0
  196.1950  170.3080  141.5640 C   0  0  0  0  0  2  0  0  0  0  0  0
  197.4150  169.9080  142.2440 N   0  0  0  0  0  1  0  0  0  0  0  0
  189.1150  177.7140  144.9700 O   0  0  0  0  0  0  0  0  0  0  0  0
  188.2320  177.4480  145.9940 N   0  0  0  0  0  2  0  0  0  0  0  0
  186.8940  177.6430  145.4640 C   0  0  0  0  0  2  0  0  0  0  0  0
  185.9060  176.7900  146.2360 C   0  0  0  0  0  1  0  0  0  0  0  0
  1 10  2  0  0  0  0
  4 10  1  0  0  0  0
  4 17  1  0  0  0  0
  4 12  1  1  0  0  0
  5  7  1  0  0  0  0
  7 16  1  0  0  0  0
  8 24  1  6  0  0  0
  8  6  1  0  0  0  0
  9 23  2  0  0  0  0
  9 26  1  0  0  0  0
 10 14  1  0  0  0  0
 11 29  1  0  0  0  0
 11 16  1  0  0  0  0
 13  5  1  0  0  0  0
 13 25  2  0  0  0  0
 14 31  2  0  0  0  0
 15  3  2  0  0  0  0
 15 34  1  0  0  0  0
 16 21  2  0  0  0  0
 18 23  1  0  0  0  0
 19 32  1  6  0  0  0
 19 13  1  0  0  0  0
 20 17  1  0  0  0  0
 22 20  1  0  0  0  0
 23 15  1  0  0  0  0
 24 19  1  0  0  0  0
 26 28  2  0  0  0  0
 27 12  1  6  0  0  0
 27  9  1  0  0  0  0
 28  3  1  0  0  0  0
 28 29  1  0  0  0  0
 29  2  2  0  0  0  0
 30 22  1  6  0  0  0
 30  8  1  0  0  0  0
 30  6  1  0  0  0  0
 31 27  1  0  0  0  0
 31 18  1  0  0  0  0
 32 33  1  0  0  0  0
 34 35  1  0  0  0  0
 36 35  1  0  0  0  0
 36 37  1  0  0  0  0
M  END
>  <MODEL>
7

>  <REMARK>
 VINA RESULT:      -6.3      2.518      5.816
  Name = 
  4 active torsions:
  status: ('A' for Active; 'I' for Inactive)
    1  A    between atoms: N_8  and  C_14
    2  A    between atoms: N_8  and  O_33
    3  A    between atoms: C_12  and  C_22
    4  A    between atoms: C_18  and  O_33
                            x       y       z     vdW  Elec       q    Type
                         _______ _______ _______ _____ _____    ______ ____

>  <TORSDO>
F 4

$$$$
=
 OpenBabel11062418513D

 37 41  0  0  1  0  0  0  0  0999 V2000
  188.2750  172.6240  140.3760 O   0  0  0  0  0  0  0  0  0  0  0  0
  194.4610  177.5750  146.3760 O   0  0  0  0  0  0  0  0  0  0  0  0
  192.2510  175.7670  146.4770 C   0  0  0  0  0  3  0  0  0  0  0  0
  190.3240  173.8590  140.5780 C   0  0  1  0  0  3  0  0  0  0  0  0
  195.7100  174.3610  141.7380 C   0  0  0  0  0  2  0  0  0  0  0  0
  193.7940  171.7940  139.7690 O   0  0  0  0  0  0  0  0  0  0  0  0
  196.5460  175.1760  142.7140 C   0  0  0  0  0  2  0  0  0  0  0  0
  194.8100  172.2100  138.8880 C   0  0  2  0  0  3  0  0  0  0  0  0
  191.7090  174.5240  144.0870 C   0  0  0  0  0  0  0  0  0  0  0  0
  189.1340  173.1180  141.1510 C   0  0  0  0  0  0  0  0  0  0  0  0
  195.4390  176.5240  144.5480 N   0  0  0  0  0  2  0  0  0  0  0  0
  191.0480  174.6620  141.6770 C   0  0  0  0  0  2  0  0  0  0  0  0
  196.5720  173.7170  140.6950 C   0  0  0  0  0  0  0  0  0  0  0  0
  188.9560  173.0090  142.5740 N   0  0  0  0  0  0  0  0  0  0  0  0
  191.0770  175.0040  146.3610 C   0  0  0  0  0  0  0  0  0  0  0  0
  195.8360  175.2540  144.0210 C   0  0  0  0  0  0  0  0  0  0  0  0
  191.1970  172.9540  139.9620 O   0  0  0  0  0  0  0  0  0  0  0  0
  189.6910  173.5990  144.7680 N   0  0  0  0  0  2  0  0  0  0  0  0
  196.2670  173.8780  139.2290 C   0  0  1  0  0  3  0  0  0  0  0  0
  191.9330  173.7140  139.0460 C   0  0  0  0  0  2  0  0  0  0  0  0
  195.6030  174.1960  144.6660 O   0  0  0  0  0  0  0  0  0  0  0  0
  192.5130  172.8350  137.9410 C   0  0  0  0  0  2  0  0  0  0  0  0
  190.8300  174.3730  145.1320 C   0  0  0  0  0  0  0  0  0  0  0  0
  194.9170  173.6070  138.9610 O   0  0  0  0  0  0  0  0  0  0  0  0
  197.5090  173.0100  141.0350 O   0  0  0  0  0  0  0  0  0  0  0  0
  192.8470  175.2490  144.2090 N   0  0  0  0  0  0  0  0  0  0  0  0
  191.2630  173.7740  142.8930 C   0  0  2  0  0  3  0  0  0  0  0  0
  193.1400  175.8740  145.3860 C   0  0  0  0  0  0  0  0  0  0  0  0
  194.3690  176.6860  145.4880 C   0  0  0  0  0  0  0  0  0  0  0  0
  193.4820  171.7270  138.3970 C   0  0  2  0  0  3  0  0  0  0  0  0
  189.9210  173.3180  143.3860 C   0  0  0  0  0  0  0  0  0  0  0  0
  196.6010  175.2850  138.7620 C   0  0  0  0  0  2  0  0  0  0  0  0
  197.9410  175.6490  139.1910 N   0  0  0  0  0  1  0  0  0  0  0  0
  190.2150  174.9150  147.4580 O   0  0  0  0  0  0  0  0  0  0  0  0
  188.8690  175.2000  147.3630 N   0  0  0  0  0  2  0  0  0  0  0  0
  188.7560  176.5690  146.8950 C   0  0  0  0  0  2  0  0  0  0  0  0
  187.3180  176.8650  146.5120 C   0  0  0  0  0  1  0  0  0  0  0  0
  1 10  2  0  0  0  0
  4 10  1  0  0  0  0
  4 12  1  1  0  0  0
  5  7  1  0  0  0  0
  7 16  1  0  0  0  0
  8 24  1  1  0  0  0
  8  6  1  0  0  0  0
  9 26  2  0  0  0  0
  9 23  1  0  0  0  0
 10 14  1  0  0  0  0
 11 29  1  0  0  0  0
 13 25  2  0  0  0  0
 13  5  1  0  0  0  0
 14 31  2  0  0  0  0
 15  3  1  0  0  0  0
 15 34  1  0  0  0  0
 16 11  1  0  0  0  0
 16 21  2  0  0  0  0
 17  4  1  0  0  0  0
 18 23  1  0  0  0  0
 19 32  1  1  0  0  0
 19 13  1  0  0  0  0
 20 17  1  0  0  0  0
 22 20  1  0  0  0  0
 23 15  2  0  0  0  0
 24 19  1  0  0  0  0
 26 28  1  0  0  0  0
 27 12  1  6  0  0  0
 27 31  1  0  0  0  0
 27  9  1  0  0  0  0
 28 29  1  0  0  0  0
 28  3  2  0  0  0  0
 29  2  2  0  0  0  0
 30 22  1  1  0  0  0
 30  8  1  0  0  0  0
 30  6  1  0  0  0  0
 31 18  1  0  0  0  0
 32 33  1  0  0  0  0
 35 34  1  0  0  0  0
 36 35  1  0  0  0  0
 37 36  1  0  0  0  0
M  END
>  <MODEL>
8

>  <REMARK>
 VINA RESULT:      -6.2      2.602      6.091
  Name = 
  4 active torsions:
  status: ('A' for Active; 'I' for Inactive)
    1  A    between atoms: N_8  and  C_14
    2  A    between atoms: N_8  and  O_33
    3  A    between atoms: C_12  and  C_22
    4  A    between atoms: C_18  and  O_33
                            x       y       z     vdW  Elec       q    Type
                         _______ _______ _______ _____ _____    ______ ____

>  <TORSDO>
F 4

$$$$
=
 OpenBabel11062418513D

 37 41  0  0  1  0  0  0  0  0999 V2000
  185.3330  177.6110  139.8810 O   0  0  0  0  0  0  0  0  0  0  0  0
  191.9550  176.1400  147.1450 O   0  0  0  0  0  0  0  0  0  0  0  0
  189.2100  176.8280  146.7560 C   0  0  0  0  0  3  0  0  0  0  0  0
  187.4810  176.7340  140.4990 C   0  0  1  0  0  3  0  0  0  0  0  0
  190.8400  172.8380  142.5350 C   0  0  0  0  0  2  0  0  0  0  0  0
  187.9820  172.6660  140.0980 O   0  0  0  0  0  0  0  0  0  0  0  0
  191.8260  172.7400  143.6900 C   0  0  0  0  0  2  0  0  0  0  0  0
  189.0430  172.0320  139.4240 C   0  0  2  0  0  3  0  0  0  0  0  0
  188.2740  176.3180  144.2230 C   0  0  0  0  0  0  0  0  0  0  0  0
  186.1080  177.2860  140.8170 C   0  0  0  0  0  0  0  0  0  0  0  0
  191.9710  174.5810  145.4220 N   0  0  0  0  0  2  0  0  0  0  0  0
  188.3730  176.7280  141.7560 C   0  0  0  0  0  2  0  0  0  0  0  0
  190.9910  171.6790  141.5970 C   0  0  0  0  0  0  0  0  0  0  0  0
  185.6950  177.4810  142.1810 N   0  0  0  0  0  0  0  0  0  0  0  0
  187.9340  177.2980  146.3980 C   0  0  0  0  0  0  0  0  0  0  0  0
  191.2710  173.4610  144.8700 C   0  0  0  0  0  0  0  0  0  0  0  0
  187.3640  175.4460  139.9630 O   0  0  0  0  0  0  0  0  0  0  0  0
  186.2540  177.4300  144.5030 N   0  0  0  0  0  2  0  0  0  0  0  0
  191.1690  171.8980  140.1170 C   0  0  1  0  0  3  0  0  0  0  0  0
  188.5420  175.2380  139.2350 C   0  0  0  0  0  2  0  0  0  0  0  0
  190.1920  173.0670  145.3880 O   0  0  0  0  0  0  0  0  0  0  0  0
  188.3500  174.1590  138.1740 C   0  0  0  0  0  2  0  0  0  0  0  0
  187.4780  177.0150  145.1000 C   0  0  0  0  0  0  0  0  0  0  0  0
  190.2080  172.7890  139.6180 O   0  0  0  0  0  0  0  0  0  0  0  0
  190.9200  170.5380  142.0260 O   0  0  0  0  0  0  0  0  0  0  0  0
  189.4960  175.8550  144.5790 N   0  0  0  0  0  0  0  0  0  0  0  0
  187.6010  176.1260  142.9200 C   0  0  2  0  0  3  0  0  0  0  0  0
  189.9830  176.0930  145.8320 C   0  0  0  0  0  0  0  0  0  0  0  0
  191.3300  175.6080  146.1880 C   0  0  0  0  0  0  0  0  0  0  0  0
  187.9600  172.7600  138.6920 C   0  0  2  0  0  3  0  0  0  0  0  0
  186.3780  176.9640  143.1580 C   0  0  0  0  0  0  0  0  0  0  0  0
  192.5590  172.4350  139.8170 C   0  0  0  0  0  2  0  0  0  0  0  0
  192.4680  173.7820  139.2780 N   0  0  0  0  0  1  0  0  0  0  0  0
  187.1910  178.0230  147.3340 O   0  0  0  0  0  0  0  0  0  0  0  0
  185.9790  177.5770  147.8170 N   0  0  0  0  0  2  0  0  0  0  0  0
  185.0260  178.6570  147.6380 C   0  0  0  0  0  2  0  0  0  0  0  0
  184.0660  178.3160  146.5140 C   0  0  0  0  0  1  0  0  0  0  0  0
  1 10  2  0  0  0  0
  4 10  1  0  0  0  0
  4 12  1  1  0  0  0
  5  7  1  0  0  0  0
  7 16  1  0  0  0  0
  8 24  1  1  0  0  0
  8  6  1  0  0  0  0
  9 26  2  0  0  0  0
  9 23  1  0  0  0  0
 10 14  1  0  0  0  0
 11 29  1  0  0  0  0
 13 25  2  0  0  0  0
 13  5  1  0  0  0  0
 14 31  2  0  0  0  0
 15  3  1  0  0  0  0
 15 34  1  0  0  0  0
 16 21  2  0  0  0  0
 16 11  1  0  0  0  0
 17  4  1  0  0  0  0
 18 23  1  0  0  0  0
 19 32  1  1  0  0  0
 19 13  1  0  0  0  0
 20 17  1  0  0  0  0
 22 20  1  0  0  0  0
 23 15  2  0  0  0  0
 24 19  1  0  0  0  0
 26 28  1  0  0  0  0
 27 12  1  6  0  0  0
 27 31  1  0  0  0  0
 27  9  1  0  0  0  0
 28 29  1  0  0  0  0
 28  3  2  0  0  0  0
 29  2  2  0  0  0  0
 30 22  1  1  0  0  0
 30  8  1  0  0  0  0
 30  6  1  0  0  0  0
 31 18  1  0  0  0  0
 33 32  1  0  0  0  0
 34 35  1  0  0  0  0
 36 35  1  0  0  0  0
 37 36  1  0  0  0  0
M  END
>  <MODEL>
9

>  <REMARK>
 VINA RESULT:      -6.2      2.778      6.104
  Name = 
  4 active torsions:
  status: ('A' for Active; 'I' for Inactive)
    1  A    between atoms: N_8  and  C_14
    2  A    between atoms: N_8  and  O_33
    3  A    between atoms: C_12  and  C_22
    4  A    between atoms: C_18  and  O_33
                            x       y       z     vdW  Elec       q    Type
                         _______ _______ _______ _____ _____    ______ ____

>  <TORSDO>
F 4

$$$$
