=
 OpenBabel11062419443D

 30 35  0  0  1  0  0  0  0  0999 V2000
  193.0230  174.3540  145.4390 O   0  0  0  0  0  0  0  0  0  0  0  0
  191.6960  175.4220  143.8820 O   0  0  0  0  0  0  0  0  0  0  0  0
  187.9000  177.4420  145.4320 C   0  0  0  0  0  2  0  0  0  0  0  0
  188.4170  174.2540  140.7450 C   0  0  0  0  0  2  0  0  0  0  0  0
  189.1600  176.6180  145.1840 C   0  0  2  0  0  3  0  0  0  0  0  0
  190.9210  173.8330  140.9640 C   0  0  0  0  0  0  0  0  0  0  0  0
  195.2590  174.7050  145.8800 O   0  0  0  0  0  0  0  0  0  0  0  0
  188.8060  175.3570  144.7170 O   0  0  0  0  0  0  0  0  0  0  0  0
  185.8150  177.2060  142.1990 C   0  0  0  0  0  2  0  0  0  0  0  0
  185.4970  177.8630  144.8660 C   0  0  0  0  0  2  0  0  0  0  0  0
  189.6090  173.9090  141.5010 N   0  0  0  0  0  0  0  0  0  0  0  0
  187.0730  176.9060  143.0350 C   0  0  2  0  0  3  0  0  0  0  0  0
  187.9210  175.6130  141.2170 C   0  0  0  0  0  2  0  0  0  0  0  0
  187.6660  175.5960  142.6660 N   0  0  1  0  0  0  0  0  0  0  0  0
  185.4300  179.0600  143.9220 C   0  0  2  0  0  3  0  0  0  0  0  0
  186.7180  176.9890  144.5550 C   0  0  1  0  0  3  0  0  0  0  0  0
  191.2010  174.4250  143.1000 N   0  0  0  0  0  0  0  0  0  0  0  0
  184.3660  179.8720  144.2650 F   0  0  0  0  0  0  0  0  0  0  0  0
  188.9750  175.4550  143.3380 C   0  0  2  0  0  3  0  0  0  0  0  0
  191.4150  176.0680  146.1500 C   0  0  0  0  0  0  0  0  0  0  0  0
  189.9940  176.4650  146.4490 C   0  0  0  0  0  2  0  0  0  0  0  0
  192.3710  176.7590  146.7030 N   0  0  0  0  0  0  0  0  0  0  0  0
  191.2010  173.5540  139.5960 N   0  0  0  0  0  1  0  0  0  0  0  0
  189.7610  174.2110  142.9150 C   0  0  1  0  0  3  0  0  0  0  0  0
  185.2960  178.6240  142.4580 C   0  0  0  0  0  2  0  0  0  0  0  0
  191.7340  174.9250  145.1910 C   0  0  2  0  0  3  0  0  0  0  0  0
  193.7490  176.4140  146.5440 C   0  0  0  0  0  0  0  0  0  0  0  0
  194.6500  177.1800  146.9730 O   0  0  0  0  0  0  0  0  0  0  0  0
  194.0740  175.1290  145.9280 C   0  0  0  0  0  0  0  0  0  0  0  0
  191.8400  174.1210  141.8620 C   0  0  0  0  0  3  0  0  0  0  0  0
  1 29  1  0  0  0  0
  4 13  1  0  0  0  0
  4 11  1  0  0  0  0
  5  3  1  1  0  0  0
  5 21  1  0  0  0  0
  6 11  1  0  0  0  0
  6 30  2  0  0  0  0
  7 29  2  0  0  0  0
  8  5  1  0  0  0  0
  9 25  1  0  0  0  0
 12  9  1  6  0  0  0
 12 16  1  0  0  0  0
 14 13  1  6  0  0  0
 14 12  1  0  0  0  0
 14 19  1  0  0  0  0
 15 18  1  1  0  0  0
 15 10  1  0  0  0  0
 16 10  1  6  0  0  0
 16  3  1  0  0  0  0
 17  2  1  0  0  0  0
 19  8  1  1  0  0  0
 20 21  1  0  0  0  0
 20 22  2  0  0  0  0
 23  6  1  0  0  0  0
 24 11  1  6  0  0  0
 24 17  1  0  0  0  0
 24 19  1  0  0  0  0
 25 15  1  0  0  0  0
 26  2  1  6  0  0  0
 26  1  1  0  0  0  0
 26 20  1  0  0  0  0
 27 22  1  0  0  0  0
 27 28  2  0  0  0  0
 29 27  1  0  0  0  0
 30 17  1  0  0  0  0
M  END
>  <MODEL>
1

>  <REMARK>
 VINA RESULT:      -8.8      0.000      0.000
  Name = 
  0 active torsions:
  status: ('A' for Active; 'I' for Inactive)
                            x       y       z     vdW  Elec       q    Type
                         _______ _______ _______ _____ _____    ______ ____

>  <TORSDO>
F 0

$$$$
=
 OpenBabel11062419443D

 30 35  0  0  1  0  0  0  0  0999 V2000
  190.9270  174.1840  140.9710 O   0  0  0  0  0  0  0  0  0  0  0  0
  189.9140  174.4510  143.0280 O   0  0  0  0  0  0  0  0  0  0  0  0
  186.3140  177.2600  143.2160 C   0  0  0  0  0  2  0  0  0  0  0  0
  190.6140  176.9450  146.9330 C   0  0  0  0  0  2  0  0  0  0  0  0
  187.5740  176.4650  142.8850 C   0  0  2  0  0  3  0  0  0  0  0  0
  191.8390  175.0280  145.7850 C   0  0  0  0  0  0  0  0  0  0  0  0
  191.3080  172.2240  139.8180 O   0  0  0  0  0  0  0  0  0  0  0  0
  188.6950  177.1910  143.2710 O   0  0  0  0  0  0  0  0  0  0  0  0
  186.6420  178.2970  146.9130 C   0  0  0  0  0  2  0  0  0  0  0  0
  185.2180  178.9970  144.6490 C   0  0  0  0  0  2  0  0  0  0  0  0
  191.1490  176.2680  145.7640 N   0  0  0  0  0  0  0  0  0  0  0  0
  187.1400  177.5660  145.6530 C   0  0  2  0  0  3  0  0  0  0  0  0
  189.0940  176.9110  146.8570 C   0  0  0  0  0  2  0  0  0  0  0  0
  188.6240  177.5240  145.6050 N   0  0  1  0  0  0  0  0  0  0  0  0
  184.3830  178.2860  145.7080 C   0  0  2  0  0  3  0  0  0  0  0  0
  186.5260  178.2410  144.3830 C   0  0  1  0  0  3  0  0  0  0  0  0
  190.8350  175.1000  143.7910 N   0  0  0  0  0  0  0  0  0  0  0  0
  183.1790  178.9430  145.8790 F   0  0  0  0  0  0  0  0  0  0  0  0
  189.0430  176.6360  144.5010 C   0  0  2  0  0  3  0  0  0  0  0  0
  188.6220  175.0180  141.1170 C   0  0  0  0  0  0  0  0  0  0  0  0
  187.6710  176.1500  141.3990 C   0  0  0  0  0  2  0  0  0  0  0  0
  188.2040  174.0430  140.3620 N   0  0  0  0  0  0  0  0  0  0  0  0
  192.5610  174.5440  146.9130 N   0  0  0  0  0  1  0  0  0  0  0  0
  190.5520  176.3840  144.4430 C   0  0  1  0  0  3  0  0  0  0  0  0
  185.1190  178.2010  147.0510 C   0  0  0  0  0  2  0  0  0  0  0  0
  190.0170  174.9820  141.7360 C   0  0  2  0  0  3  0  0  0  0  0  0
  189.0560  172.9630  139.9730 C   0  0  0  0  0  0  0  0  0  0  0  0
  188.5850  171.9690  139.3600 O   0  0  0  0  0  0  0  0  0  0  0  0
  190.4860  173.0740  140.2510 C   0  0  0  0  0  0  0  0  0  0  0  0
  191.6740  174.3510  144.6670 C   0  0  0  0  0  3  0  0  0  0  0  0
  2 17  1  0  0  0  0
  5 21  1  6  0  0  0
  5  3  1  0  0  0  0
  5  8  1  0  0  0  0
  6 23  1  0  0  0  0
  7 29  2  0  0  0  0
  9 25  1  0  0  0  0
 10 15  1  0  0  0  0
 11  6  1  0  0  0  0
 11  4  1  0  0  0  0
 12  9  1  1  0  0  0
 13  4  1  0  0  0  0
 14 12  1  0  0  0  0
 14 13  1  1  0  0  0
 15 18  1  1  0  0  0
 15 25  1  0  0  0  0
 16  3  1  6  0  0  0
 16 10  1  0  0  0  0
 16 12  1  0  0  0  0
 17 30  1  0  0  0  0
 19  8  1  6  0  0  0
 19 14  1  0  0  0  0
 20 21  1  0  0  0  0
 20 26  1  0  0  0  0
 22 20  2  0  0  0  0
 24 17  1  6  0  0  0
 24 19  1  0  0  0  0
 24 11  1  0  0  0  0
 26  1  1  6  0  0  0
 26  2  1  0  0  0  0
 27 29  1  0  0  0  0
 27 22  1  0  0  0  0
 28 27  2  0  0  0  0
 29  1  1  0  0  0  0
 30  6  2  0  0  0  0
M  END
>  <MODEL>
2

>  <REMARK>
 VINA RESULT:      -8.8      2.396      5.142
  Name = 
  0 active torsions:
  status: ('A' for Active; 'I' for Inactive)
                            x       y       z     vdW  Elec       q    Type
                         _______ _______ _______ _____ _____    ______ ____

>  <TORSDO>
F 0

$$$$
=
 OpenBabel11062419443D

 30 35  0  0  1  0  0  0  0  0999 V2000
  193.8100  174.0340  144.3850 O   0  0  0  0  0  0  0  0  0  0  0  0
  192.0690  174.6980  143.0230 O   0  0  0  0  0  0  0  0  0  0  0  0
  189.1070  177.7110  144.7660 C   0  0  0  0  0  2  0  0  0  0  0  0
  187.8760  173.0630  141.7190 C   0  0  0  0  0  2  0  0  0  0  0  0
  190.1760  176.6610  144.4790 C   0  0  2  0  0  3  0  0  0  0  0  0
  190.2860  172.3470  141.3090 C   0  0  0  0  0  0  0  0  0  0  0  0
  196.0730  174.1510  143.9580 O   0  0  0  0  0  0  0  0  0  0  0  0
  189.6390  175.3910  144.6560 O   0  0  0  0  0  0  0  0  0  0  0  0
  186.0360  176.7140  142.6640 C   0  0  0  0  0  2  0  0  0  0  0  0
  186.6720  178.2920  144.8430 C   0  0  0  0  0  2  0  0  0  0  0  0
  189.2410  172.8140  142.1490 N   0  0  0  0  0  0  0  0  0  0  0  0
  187.4920  176.5220  143.1260 C   0  0  2  0  0  3  0  0  0  0  0  0
  187.6200  174.5630  141.7690 C   0  0  0  0  0  2  0  0  0  0  0  0
  187.8750  175.0880  143.1190 N   0  0  1  0  0  0  0  0  0  0  0  0
  186.3300  179.0840  143.5850 C   0  0  2  0  0  3  0  0  0  0  0  0
  187.6820  177.1800  144.5310 C   0  0  1  0  0  3  0  0  0  0  0  0
  191.3010  173.5860  142.8670 N   0  0  0  0  0  0  0  0  0  0  0  0
  185.4770  180.1250  143.9010 F   0  0  0  0  0  0  0  0  0  0  0  0
  189.3290  174.9780  143.3620 C   0  0  2  0  0  3  0  0  0  0  0  0
  192.6040  176.1220  144.8470 C   0  0  0  0  0  0  0  0  0  0  0  0
  191.3860  176.8210  145.3890 C   0  0  0  0  0  2  0  0  0  0  0  0
  193.7150  176.7980  144.7770 N   0  0  0  0  0  0  0  0  0  0  0  0
  190.0710  171.5730  140.1350 N   0  0  0  0  0  1  0  0  0  0  0  0
  189.8780  173.5560  143.2250 C   0  0  1  0  0  3  0  0  0  0  0  0
  185.6870  178.1980  142.5110 C   0  0  0  0  0  2  0  0  0  0  0  0
  192.5350  174.6830  144.3440 C   0  0  2  0  0  3  0  0  0  0  0  0
  194.9430  176.2020  144.3500 C   0  0  0  0  0  0  0  0  0  0  0  0
  195.9640  176.9140  144.1620 O   0  0  0  0  0  0  0  0  0  0  0  0
  194.9920  174.7500  144.2000 C   0  0  0  0  0  0  0  0  0  0  0  0
  191.4670  172.7750  141.7060 C   0  0  0  0  0  3  0  0  0  0  0  0
  4 13  1  0  0  0  0
  4 11  1  0  0  0  0
  5  8  1  0  0  0  0
  5  3  1  1  0  0  0
  5 21  1  0  0  0  0
  6 30  2  0  0  0  0
  6 11  1  0  0  0  0
  7 29  2  0  0  0  0
 12  9  1  1  0  0  0
 12 16  1  0  0  0  0
 14 13  1  6  0  0  0
 14 12  1  0  0  0  0
 14 19  1  0  0  0  0
 15 18  1  1  0  0  0
 15 10  1  0  0  0  0
 16  3  1  6  0  0  0
 16 10  1  0  0  0  0
 17  2  1  0  0  0  0
 17 24  1  0  0  0  0
 19  8  1  1  0  0  0
 20 21  1  0  0  0  0
 22 20  2  0  0  0  0
 23  6  1  0  0  0  0
 24 11  1  6  0  0  0
 24 19  1  0  0  0  0
 25  9  1  0  0  0  0
 25 15  1  0  0  0  0
 26  2  1  6  0  0  0
 26  1  1  0  0  0  0
 26 20  1  0  0  0  0
 27 22  1  0  0  0  0
 28 27  2  0  0  0  0
 29 27  1  0  0  0  0
 29  1  1  0  0  0  0
 30 17  1  0  0  0  0
M  END
>  <MODEL>
3

>  <REMARK>
 VINA RESULT:      -8.4      1.448      1.523
  Name = 
  0 active torsions:
  status: ('A' for Active; 'I' for Inactive)
                            x       y       z     vdW  Elec       q    Type
                         _______ _______ _______ _____ _____    ______ ____

>  <TORSDO>
F 0

$$$$
=
 OpenBabel11062419443D

 30 35  0  0  1  0  0  0  0  0999 V2000
  191.9020  173.3120  142.5380 O   0  0  0  0  0  0  0  0  0  0  0  0
  190.2130  174.0570  143.9240 O   0  0  0  0  0  0  0  0  0  0  0  0
  186.9270  176.5910  142.0080 C   0  0  0  0  0  2  0  0  0  0  0  0
  189.5280  177.5410  146.9810 C   0  0  0  0  0  2  0  0  0  0  0  0
  188.1830  175.8140  142.3920 C   0  0  2  0  0  3  0  0  0  0  0  0
  191.0050  175.4650  146.9280 C   0  0  0  0  0  0  0  0  0  0  0  0
  192.5950  171.1420  142.1820 O   0  0  0  0  0  0  0  0  0  0  0  0
  189.1130  176.6830  142.9510 O   0  0  0  0  0  0  0  0  0  0  0  0
  185.9100  178.5950  145.1370 C   0  0  0  0  0  2  0  0  0  0  0  0
  185.4570  178.5780  142.4100 C   0  0  0  0  0  2  0  0  0  0  0  0
  190.4270  176.6100  146.3210 N   0  0  0  0  0  0  0  0  0  0  0  0
  186.8060  177.5860  144.3970 C   0  0  2  0  0  3  0  0  0  0  0  0
  188.1440  177.3960  146.3640 C   0  0  0  0  0  2  0  0  0  0  0  0
  188.1980  177.6220  144.9110 N   0  0  1  0  0  0  0  0  0  0  0  0
  184.2580  178.1260  143.2380 C   0  0  2  0  0  3  0  0  0  0  0  0
  186.7350  177.8590  142.8590 C   0  0  1  0  0  3  0  0  0  0  0  0
  190.8140  174.9410  144.7660 N   0  0  0  0  0  0  0  0  0  0  0  0
  183.1070  178.7310  142.7700 F   0  0  0  0  0  0  0  0  0  0  0  0
  188.9570  176.4990  144.3230 C   0  0  2  0  0  3  0  0  0  0  0  0
  189.7460  174.0140  141.5950 C   0  0  0  0  0  0  0  0  0  0  0  0
  188.8100  175.1200  141.1900 C   0  0  0  0  0  2  0  0  0  0  0  0
  189.5950  172.8490  141.0330 N   0  0  0  0  0  0  0  0  0  0  0  0
  191.2360  175.3440  148.3280 N   0  0  0  0  0  1  0  0  0  0  0  0
  190.3670  176.3330  144.8940 C   0  0  1  0  0  3  0  0  0  0  0  0
  184.4410  178.4470  144.7270 C   0  0  0  0  0  2  0  0  0  0  0  0
  190.8100  174.2290  142.6680 C   0  0  2  0  0  3  0  0  0  0  0  0
  190.4810  171.7580  141.2920 C   0  0  0  0  0  0  0  0  0  0  0  0
  190.2260  170.6100  140.8420 O   0  0  0  0  0  0  0  0  0  0  0  0
  191.7100  172.0250  142.0360 C   0  0  0  0  0  0  0  0  0  0  0  0
  191.2350  174.5050  146.0560 C   0  0  0  0  0  3  0  0  0  0  0  0
  1 26  1  0  0  0  0
  2 17  1  0  0  0  0
  3  5  1  0  0  0  0
  5 21  1  6  0  0  0
  5  8  1  0  0  0  0
  6 23  1  0  0  0  0
 10 16  1  0  0  0  0
 10 15  1  0  0  0  0
 11  6  1  0  0  0  0
 11  4  1  0  0  0  0
 12 14  1  0  0  0  0
 12  9  1  1  0  0  0
 13  4  1  0  0  0  0
 14 13  1  1  0  0  0
 15 18  1  6  0  0  0
 15 25  1  0  0  0  0
 16  3  1  6  0  0  0
 16 12  1  0  0  0  0
 17 30  1  0  0  0  0
 19  8  1  6  0  0  0
 19 24  1  0  0  0  0
 19 14  1  0  0  0  0
 21 20  1  0  0  0  0
 22 27  1  0  0  0  0
 22 20  2  0  0  0  0
 24 17  1  1  0  0  0
 24 11  1  0  0  0  0
 25  9  1  0  0  0  0
 26 20  1  6  0  0  0
 26  2  1  0  0  0  0
 27 29  1  0  0  0  0
 28 27  2  0  0  0  0
 29  7  2  0  0  0  0
 29  1  1  0  0  0  0
 30  6  2  0  0  0  0
M  END
>  <MODEL>
4

>  <REMARK>
 VINA RESULT:      -8.4      2.214      4.817
  Name = 
  0 active torsions:
  status: ('A' for Active; 'I' for Inactive)
                            x       y       z     vdW  Elec       q    Type
                         _______ _______ _______ _____ _____    ______ ____

>  <TORSDO>
F 0

$$$$
=
 OpenBabel11062419443D

 30 35  0  0  1  0  0  0  0  0999 V2000
  186.9130  177.4630  144.3770 O   0  0  0  0  0  0  0  0  0  0  0  0
  188.3480  175.6660  144.1810 O   0  0  0  0  0  0  0  0  0  0  0  0
  192.5680  176.1910  145.8560 C   0  0  0  0  0  2  0  0  0  0  0  0
  191.1200  173.7910  140.9020 C   0  0  0  0  0  2  0  0  0  0  0  0
  191.1500  176.3240  145.3100 C   0  0  2  0  0  3  0  0  0  0  0  0
  188.6010  174.0370  141.1940 C   0  0  0  0  0  0  0  0  0  0  0  0
  184.8320  177.5190  145.3680 O   0  0  0  0  0  0  0  0  0  0  0  0
  191.2000  176.5960  143.9470 O   0  0  0  0  0  0  0  0  0  0  0  0
  194.3690  173.6790  143.5540 C   0  0  0  0  0  2  0  0  0  0  0  0
  194.9700  175.6420  145.4070 C   0  0  0  0  0  2  0  0  0  0  0  0
  189.9270  174.5400  141.2570 N   0  0  0  0  0  0  0  0  0  0  0  0
  193.1260  174.4700  144.0010 C   0  0  2  0  0  3  0  0  0  0  0  0
  191.9210  173.5270  142.1690 C   0  0  0  0  0  2  0  0  0  0  0  0
  192.2470  174.7910  142.8480 N   0  0  1  0  0  0  0  0  0  0  0  0
  195.2370  174.2230  145.9010 C   0  0  2  0  0  3  0  0  0  0  0  0
  193.5750  175.7490  144.7790 C   0  0  1  0  0  3  0  0  0  0  0  0
  188.5740  175.5410  142.8450 N   0  0  0  0  0  0  0  0  0  0  0  0
  196.4670  174.1660  146.5270 F   0  0  0  0  0  0  0  0  0  0  0  0
  190.9790  175.3550  143.3530 C   0  0  2  0  0  3  0  0  0  0  0  0
  188.8870  177.2910  145.8270 C   0  0  0  0  0  0  0  0  0  0  0  0
  190.3750  177.4320  146.0110 C   0  0  0  0  0  2  0  0  0  0  0  0
  188.1330  177.3480  146.8880 N   0  0  0  0  0  0  0  0  0  0  0  0
  188.1910  172.9940  140.3160 N   0  0  0  0  0  1  0  0  0  0  0  0
  189.9230  175.5840  142.2690 C   0  0  1  0  0  3  0  0  0  0  0  0
  195.1930  173.2040  144.7550 C   0  0  0  0  0  2  0  0  0  0  0  0
  188.2790  177.0390  144.4510 C   0  0  2  0  0  3  0  0  0  0  0  0
  186.7070  177.3030  146.8100 C   0  0  0  0  0  0  0  0  0  0  0  0
  186.0150  177.2190  147.8580 O   0  0  0  0  0  0  0  0  0  0  0  0
  186.0810  177.4170  145.4950 C   0  0  0  0  0  0  0  0  0  0  0  0
  187.8160  174.5990  142.0900 C   0  0  0  0  0  3  0  0  0  0  0  0
  1 26  1  0  0  0  0
  1 29  1  0  0  0  0
  4 11  1  0  0  0  0
  4 13  1  0  0  0  0
  5  3  1  1  0  0  0
  5 21  1  0  0  0  0
  6 11  1  0  0  0  0
  6 30  2  0  0  0  0
  7 29  2  0  0  0  0
  8  5  1  0  0  0  0
  9 25  1  0  0  0  0
 10 15  1  0  0  0  0
 12  9  1  6  0  0  0
 12 16  1  0  0  0  0
 14 13  1  1  0  0  0
 14 19  1  0  0  0  0
 14 12  1  0  0  0  0
 15 18  1  6  0  0  0
 16 10  1  1  0  0  0
 16  3  1  0  0  0  0
 17  2  1  0  0  0  0
 19  8  1  6  0  0  0
 20 21  1  0  0  0  0
 20 22  2  0  0  0  0
 23  6  1  0  0  0  0
 24 11  1  6  0  0  0
 24 17  1  0  0  0  0
 24 19  1  0  0  0  0
 25 15  1  0  0  0  0
 26  2  1  1  0  0  0
 26 20  1  0  0  0  0
 27 22  1  0  0  0  0
 27 28  2  0  0  0  0
 29 27  1  0  0  0  0
 30 17  1  0  0  0  0
M  END
>  <MODEL>
5

>  <REMARK>
 VINA RESULT:      -8.2      3.260      6.490
  Name = 
  0 active torsions:
  status: ('A' for Active; 'I' for Inactive)
                            x       y       z     vdW  Elec       q    Type
                         _______ _______ _______ _____ _____    ______ ____

>  <TORSDO>
F 0

$$$$
=
 OpenBabel11062419443D

 30 35  0  0  1  0  0  0  0  0999 V2000
  188.5610  173.7080  139.4020 O   0  0  0  0  0  0  0  0  0  0  0  0
  188.6710  175.5110  140.8400 O   0  0  0  0  0  0  0  0  0  0  0  0
  190.4550  174.7540  144.9790 C   0  0  0  0  0  2  0  0  0  0  0  0
  185.8000  177.7930  143.7560 C   0  0  0  0  0  2  0  0  0  0  0  0
  189.8310  174.6990  143.5880 C   0  0  2  0  0  3  0  0  0  0  0  0
  185.9400  177.5190  141.2270 C   0  0  0  0  0  0  0  0  0  0  0  0
  189.4380  173.5290  137.2780 O   0  0  0  0  0  0  0  0  0  0  0  0
  188.4480  174.6090  143.7020 O   0  0  0  0  0  0  0  0  0  0  0  0
  188.5910  177.5410  146.8780 C   0  0  0  0  0  2  0  0  0  0  0  0
  190.1930  175.3480  147.3980 C   0  0  0  0  0  2  0  0  0  0  0  0
  185.9980  177.0080  142.5490 N   0  0  0  0  0  0  0  0  0  0  0  0
  188.8720  176.7030  145.6180 C   0  0  2  0  0  3  0  0  0  0  0  0
  187.1270  177.8840  144.4960 C   0  0  0  0  0  2  0  0  0  0  0  0
  187.6470  176.5400  144.7940 N   0  0  1  0  0  0  0  0  0  0  0  0
  190.8820  176.6880  147.6380 C   0  0  2  0  0  3  0  0  0  0  0  0
  189.4930  175.3300  146.0340 C   0  0  1  0  0  3  0  0  0  0  0  0
  187.3750  175.8100  141.1270 N   0  0  0  0  0  0  0  0  0  0  0  0
  191.5670  176.6580  148.8380 F   0  0  0  0  0  0  0  0  0  0  0  0
  188.0140  175.9190  143.5050 C   0  0  2  0  0  3  0  0  0  0  0  0
  190.1100  173.6800  141.3060 C   0  0  0  0  0  0  0  0  0  0  0  0
  190.3420  173.5110  142.7840 C   0  0  0  0  0  2  0  0  0  0  0  0
  191.1180  173.4860  140.5050 N   0  0  0  0  0  0  0  0  0  0  0  0
  185.1910  178.6710  140.8550 N   0  0  0  0  0  1  0  0  0  0  0  0
  186.8610  175.8390  142.5020 C   0  0  1  0  0  3  0  0  0  0  0  0
  189.8810  177.8500  147.6440 C   0  0  0  0  0  2  0  0  0  0  0  0
  188.7530  174.1140  140.7620 C   0  0  2  0  0  3  0  0  0  0  0  0
  190.9810  173.5460  139.0830 C   0  0  0  0  0  0  0  0  0  0  0  0
  191.9980  173.4930  138.3430 O   0  0  0  0  0  0  0  0  0  0  0  0
  189.6350  173.6090  138.5180 C   0  0  0  0  0  0  0  0  0  0  0  0
  186.7170  176.8460  140.4020 C   0  0  0  0  0  3  0  0  0  0  0  0
  2 17  1  0  0  0  0
  4 13  1  0  0  0  0
  5 21  1  1  0  0  0
  5  8  1  0  0  0  0
  5  3  1  0  0  0  0
  6 11  1  0  0  0  0
  7 29  2  0  0  0  0
  9 25  1  0  0  0  0
 10 15  1  0  0  0  0
 11  4  1  0  0  0  0
 12 16  1  0  0  0  0
 12  9  1  1  0  0  0
 14 13  1  6  0  0  0
 14 12  1  0  0  0  0
 15 25  1  0  0  0  0
 15 18  1  1  0  0  0
 16  3  1  6  0  0  0
 16 10  1  0  0  0  0
 19  8  1  1  0  0  0
 19 14  1  0  0  0  0
 20 21  1  0  0  0  0
 22 20  2  0  0  0  0
 23  6  1  0  0  0  0
 24 17  1  6  0  0  0
 24 11  1  0  0  0  0
 24 19  1  0  0  0  0
 26  1  1  6  0  0  0
 26  2  1  0  0  0  0
 26 20  1  0  0  0  0
 27 22  1  0  0  0  0
 28 27  2  0  0  0  0
 29 27  1  0  0  0  0
 29  1  1  0  0  0  0
 30 17  1  0  0  0  0
 30  6  2  0  0  0  0
M  END
>  <MODEL>
6

>  <REMARK>
 VINA RESULT:      -8.0      3.253      6.045
  Name = 
  0 active torsions:
  status: ('A' for Active; 'I' for Inactive)
                            x       y       z     vdW  Elec       q    Type
                         _______ _______ _______ _____ _____    ______ ____

>  <TORSDO>
F 0

$$$$
=
 OpenBabel11062419443D

 30 35  0  0  1  0  0  0  0  0999 V2000
  186.6840  177.4320  146.1930 O   0  0  0  0  0  0  0  0  0  0  0  0
  188.6270  177.1290  144.9850 O   0  0  0  0  0  0  0  0  0  0  0  0
  188.2970  174.7680  141.0850 C   0  0  0  0  0  2  0  0  0  0  0  0
  192.3400  174.2720  145.0610 C   0  0  0  0  0  2  0  0  0  0  0  0
  188.1330  175.4280  142.4510 C   0  0  2  0  0  3  0  0  0  0  0  0
  191.4600  176.1110  146.5900 C   0  0  0  0  0  0  0  0  0  0  0  0
  185.7390  179.4160  146.8900 O   0  0  0  0  0  0  0  0  0  0  0  0
  188.5370  174.5450  143.4460 O   0  0  0  0  0  0  0  0  0  0  0  0
  191.9030  173.4140  140.9770 C   0  0  0  0  0  2  0  0  0  0  0  0
  189.4850  173.0690  139.6810 C   0  0  0  0  0  2  0  0  0  0  0  0
  191.2790  174.9690  145.7670 N   0  0  0  0  0  0  0  0  0  0  0  0
  190.7530  174.1750  141.6610 C   0  0  2  0  0  3  0  0  0  0  0  0
  192.1540  174.4950  143.5670 C   0  0  0  0  0  2  0  0  0  0  0  0
  190.8210  174.0420  143.1380 N   0  0  1  0  0  0  0  0  0  0  0  0
  190.5370  173.7910  138.8450 C   0  0  2  0  0  3  0  0  0  0  0  0
  189.3870  173.6810  141.0840 C   0  0  1  0  0  3  0  0  0  0  0  0
  189.3980  176.3160  145.7570 N   0  0  0  0  0  0  0  0  0  0  0  0
  190.5590  173.2720  137.5640 F   0  0  0  0  0  0  0  0  0  0  0  0
  189.8330  174.9570  143.7490 C   0  0  2  0  0  3  0  0  0  0  0  0
  186.5820  176.8720  143.8040 C   0  0  0  0  0  0  0  0  0  0  0  0
  186.6910  175.8450  142.7100 C   0  0  0  0  0  2  0  0  0  0  0  0
  185.8860  177.9470  143.5650 N   0  0  0  0  0  0  0  0  0  0  0  0
  192.6770  176.4160  147.2630 N   0  0  0  0  0  1  0  0  0  0  0  0
  189.9120  175.0290  145.2750 C   0  0  1  0  0  3  0  0  0  0  0  0
  191.9340  173.6820  139.4690 C   0  0  0  0  0  2  0  0  0  0  0  0
  187.3050  176.6920  145.1360 C   0  0  2  0  0  3  0  0  0  0  0  0
  185.6580  178.9430  144.5640 C   0  0  0  0  0  0  0  0  0  0  0  0
  185.1010  180.0320  144.2630 O   0  0  0  0  0  0  0  0  0  0  0  0
  186.0330  178.6400  145.9440 C   0  0  0  0  0  0  0  0  0  0  0  0
  190.3970  176.8880  146.5980 C   0  0  0  0  0  3  0  0  0  0  0  0
  2 26  1  0  0  0  0
  2 17  1  0  0  0  0
  4 11  1  0  0  0  0
  5  3  1  6  0  0  0
  5 21  1  0  0  0  0
  5  8  1  0  0  0  0
  6 30  2  0  0  0  0
  6 23  1  0  0  0  0
 11  6  1  0  0  0  0
 12  9  1  6  0  0  0
 12 14  1  0  0  0  0
 13  4  1  0  0  0  0
 14 13  1  1  0  0  0
 14 19  1  0  0  0  0
 15 18  1  6  0  0  0
 15 25  1  0  0  0  0
 15 10  1  0  0  0  0
 16 10  1  6  0  0  0
 16  3  1  0  0  0  0
 16 12  1  0  0  0  0
 17 30  1  0  0  0  0
 19  8  1  1  0  0  0
 19 24  1  0  0  0  0
 21 20  1  0  0  0  0
 22 20  2  0  0  0  0
 22 27  1  0  0  0  0
 24 17  1  6  0  0  0
 24 11  1  0  0  0  0
 25  9  1  0  0  0  0
 26 20  1  6  0  0  0
 26  1  1  0  0  0  0
 27 29  1  0  0  0  0
 28 27  2  0  0  0  0
 29  1  1  0  0  0  0
 29  7  2  0  0  0  0
M  END
>  <MODEL>
7

>  <REMARK>
 VINA RESULT:      -7.9      3.236      6.621
  Name = 
  0 active torsions:
  status: ('A' for Active; 'I' for Inactive)
                            x       y       z     vdW  Elec       q    Type
                         _______ _______ _______ _____ _____    ______ ____

>  <TORSDO>
F 0

$$$$
=
 OpenBabel11062419443D

 30 35  0  0  1  0  0  0  0  0999 V2000
  192.3860  173.3780  140.2440 O   0  0  0  0  0  0  0  0  0  0  0  0
  191.6770  173.6360  142.4250 O   0  0  0  0  0  0  0  0  0  0  0  0
  187.6640  175.7280  143.0660 C   0  0  0  0  0  2  0  0  0  0  0  0
  192.4700  176.5580  146.0010 C   0  0  0  0  0  2  0  0  0  0  0  0
  188.9890  175.1560  142.5710 C   0  0  2  0  0  3  0  0  0  0  0  0
  193.8570  174.8090  144.7720 C   0  0  0  0  0  0  0  0  0  0  0  0
  192.9630  171.4280  139.1580 O   0  0  0  0  0  0  0  0  0  0  0  0
  189.9900  176.1110  142.7150 O   0  0  0  0  0  0  0  0  0  0  0  0
  188.3560  177.1370  146.5850 C   0  0  0  0  0  2  0  0  0  0  0  0
  186.4840  177.3530  144.5630 C   0  0  0  0  0  2  0  0  0  0  0  0
  192.9390  175.8910  144.7980 N   0  0  0  0  0  0  0  0  0  0  0  0
  188.7860  176.4020  145.3030 C   0  0  2  0  0  3  0  0  0  0  0  0
  190.9950  176.2340  146.1890 C   0  0  0  0  0  2  0  0  0  0  0  0
  190.2220  176.6330  145.0030 N   0  0  1  0  0  0  0  0  0  0  0  0
  185.9840  176.5960  145.7900 C   0  0  2  0  0  3  0  0  0  0  0  0
  187.8570  176.8330  144.1210 C   0  0  1  0  0  3  0  0  0  0  0  0
  192.5580  174.5120  142.9800 N   0  0  0  0  0  0  0  0  0  0  0  0
  184.7160  177.0300  146.1260 F   0  0  0  0  0  0  0  0  0  0  0  0
  190.6310  175.7440  143.8970 C   0  0  2  0  0  3  0  0  0  0  0  0
  190.0140  173.7770  140.7350 C   0  0  0  0  0  0  0  0  0  0  0  0
  188.9120  174.7320  141.1100 C   0  0  0  0  0  2  0  0  0  0  0  0
  189.6840  172.6770  140.1210 N   0  0  0  0  0  0  0  0  0  0  0  0
  194.8290  174.5710  145.7850 N   0  0  0  0  0  1  0  0  0  0  0  0
  192.1310  175.7740  143.5950 C   0  0  1  0  0  3  0  0  0  0  0  0
  186.9250  176.7720  146.9880 C   0  0  0  0  0  2  0  0  0  0  0  0
  191.4670  174.0580  141.1060 C   0  0  2  0  0  3  0  0  0  0  0  0
  190.6630  171.7440  139.6550 C   0  0  0  0  0  0  0  0  0  0  0  0
  190.3080  170.6290  139.1910 O   0  0  0  0  0  0  0  0  0  0  0  0
  192.0680  172.1450  139.6760 C   0  0  0  0  0  0  0  0  0  0  0  0
  193.6560  174.0150  143.7410 C   0  0  0  0  0  3  0  0  0  0  0  0
  2 17  1  0  0  0  0
  4 13  1  0  0  0  0
  5 21  1  6  0  0  0
  5  8  1  0  0  0  0
  5  3  1  0  0  0  0
  6 11  1  0  0  0  0
  6 23  1  0  0  0  0
  7 29  2  0  0  0  0
  9 25  1  0  0  0  0
 10 15  1  0  0  0  0
 11  4  1  0  0  0  0
 12  9  1  1  0  0  0
 14 12  1  0  0  0  0
 14 13  1  1  0  0  0
 15 18  1  1  0  0  0
 15 25  1  0  0  0  0
 16  3  1  6  0  0  0
 16 10  1  0  0  0  0
 16 12  1  0  0  0  0
 17 30  1  0  0  0  0
 19  8  1  6  0  0  0
 19 14  1  0  0  0  0
 20 26  1  0  0  0  0
 20 21  1  0  0  0  0
 22 20  2  0  0  0  0
 24 17  1  1  0  0  0
 24 19  1  0  0  0  0
 24 11  1  0  0  0  0
 26  1  1  6  0  0  0
 26  2  1  0  0  0  0
 27 29  1  0  0  0  0
 27 22  1  0  0  0  0
 28 27  2  0  0  0  0
 29  1  1  0  0  0  0
 30  6  2  0  0  0  0
M  END
>  <MODEL>
8

>  <REMARK>
 VINA RESULT:      -7.7      2.563      5.261
  Name = 
  0 active torsions:
  status: ('A' for Active; 'I' for Inactive)
                            x       y       z     vdW  Elec       q    Type
                         _______ _______ _______ _____ _____    ______ ____

>  <TORSDO>
F 0

$$$$
=
 OpenBabel11062419443D

 30 35  0  0  1  0  0  0  0  0999 V2000
  188.1930  173.8760  139.7980 O   0  0  0  0  0  0  0  0  0  0  0  0
  189.2660  175.3320  141.2310 O   0  0  0  0  0  0  0  0  0  0  0  0
  192.8610  173.7000  143.5340 C   0  0  0  0  0  2  0  0  0  0  0  0
  188.6760  176.9700  145.5820 C   0  0  0  0  0  2  0  0  0  0  0  0
  191.5940  173.9460  142.7200 C   0  0  2  0  0  3  0  0  0  0  0  0
  187.4230  177.2370  143.3800 C   0  0  0  0  0  0  0  0  0  0  0  0
  187.7850  174.1430  137.5440 O   0  0  0  0  0  0  0  0  0  0  0  0
  190.4830  173.8470  143.5490 O   0  0  0  0  0  0  0  0  0  0  0  0
  192.6410  176.0380  146.5890 C   0  0  0  0  0  2  0  0  0  0  0  0
  193.9930  173.7710  145.7670 C   0  0  0  0  0  2  0  0  0  0  0  0
  188.1080  176.4570  144.3470 N   0  0  0  0  0  0  0  0  0  0  0  0
  192.1070  175.4840  145.2560 C   0  0  2  0  0  3  0  0  0  0  0  0
  190.1930  176.8900  145.4860 C   0  0  0  0  0  2  0  0  0  0  0  0
  190.6230  175.5100  145.2160 N   0  0  1  0  0  0  0  0  0  0  0  0
  194.8630  175.0240  145.8220 C   0  0  2  0  0  3  0  0  0  0  0  0
  192.6810  174.0480  145.0230 C   0  0  1  0  0  3  0  0  0  0  0  0
  188.3660  175.5750  142.2230 N   0  0  0  0  0  0  0  0  0  0  0  0
  196.0680  174.7340  146.4320 F   0  0  0  0  0  0  0  0  0  0  0  0
  190.1730  175.1720  143.8490 C   0  0  2  0  0  3  0  0  0  0  0  0
  190.4980  173.4310  140.5170 C   0  0  0  0  0  0  0  0  0  0  0  0
  191.4540  172.9510  141.5760 C   0  0  0  0  0  2  0  0  0  0  0  0
  190.8970  173.4030  139.2770 N   0  0  0  0  0  0  0  0  0  0  0  0
  186.7370  178.4480  143.6810 N   0  0  0  0  0  1  0  0  0  0  0  0
  188.6650  175.3170  143.6370 C   0  0  1  0  0  3  0  0  0  0  0  0
  194.1670  176.1670  146.5720 C   0  0  0  0  0  2  0  0  0  0  0  0
  189.1230  173.9830  140.8810 C   0  0  2  0  0  3  0  0  0  0  0  0
  190.0370  173.7640  138.1940 C   0  0  0  0  0  0  0  0  0  0  0  0
  190.4930  173.8600  137.0240 O   0  0  0  0  0  0  0  0  0  0  0  0
  188.6160  173.9570  138.4710 C   0  0  0  0  0  0  0  0  0  0  0  0
  187.5570  176.7470  142.1640 C   0  0  0  0  0  3  0  0  0  0  0  0
  2 17  1  0  0  0  0
  5 21  1  6  0  0  0
  5  3  1  0  0  0  0
  5  8  1  0  0  0  0
  6 23  1  0  0  0  0
  6 11  1  0  0  0  0
  7 29  2  0  0  0  0
 10 15  1  0  0  0  0
 11  4  1  0  0  0  0
 12  9  1  1  0  0  0
 13  4  1  0  0  0  0
 14 12  1  0  0  0  0
 14 13  1  6  0  0  0
 15 18  1  1  0  0  0
 15 25  1  0  0  0  0
 16  3  1  6  0  0  0
 16 12  1  0  0  0  0
 16 10  1  0  0  0  0
 19  8  1  1  0  0  0
 19 14  1  0  0  0  0
 20 26  1  0  0  0  0
 20 21  1  0  0  0  0
 22 20  2  0  0  0  0
 24 17  1  6  0  0  0
 24 19  1  0  0  0  0
 24 11  1  0  0  0  0
 25  9  1  0  0  0  0
 26  1  1  6  0  0  0
 26  2  1  0  0  0  0
 27 29  1  0  0  0  0
 27 22  1  0  0  0  0
 28 27  2  0  0  0  0
 29  1  1  0  0  0  0
 30 17  1  0  0  0  0
 30  6  2  0  0  0  0
M  END
>  <MODEL>
9

>  <REMARK>
 VINA RESULT:      -7.7      3.508      7.233
  Name = 
  0 active torsions:
  status: ('A' for Active; 'I' for Inactive)
                            x       y       z     vdW  Elec       q    Type
                         _______ _______ _______ _____ _____    ______ ____

>  <TORSDO>
F 0

$$$$
