=
 OpenBabel11062421063D

 27 30  0  0  1  0  0  0  0  0999 V2000
  190.7760  174.8700  142.8090 N   0  0  0  0  0  0  0  0  0  0  0  0
  192.8810  175.2380  144.4850 N   0  0  0  0  0  0  0  0  0  0  0  0
  192.5990  175.9500  145.6510 C   0  0  0  0  0  0  0  0  0  0  0  0
  191.2500  176.4770  145.9700 C   0  0  0  0  0  0  0  0  0  0  0  0
  193.7080  176.1870  146.6140 C   0  0  0  0  0  1  0  0  0  0  0  0
  191.0840  177.1570  147.1350 F   0  0  0  0  0  0  0  0  0  0  0  0
  190.5040  175.5860  143.9860 C   0  0  0  0  0  0  0  0  0  0  0  0
  191.7750  175.1310  143.7570 C   0  0  0  0  0  0  0  0  0  0  0  0
  190.1110  176.2870  145.0850 C   0  0  0  0  0  0  0  0  0  0  0  0
  186.8180  178.1230  144.6460 C   0  0  0  0  0  0  0  0  0  0  0  0
  184.1780  179.1100  145.0720 N   0  0  0  0  0  0  0  0  0  0  0  0
  188.7280  176.7630  145.3110 C   0  0  0  0  0  0  0  0  0  0  0  0
  188.0000  176.3070  146.4210 C   0  0  0  0  0  3  0  0  0  0  0  0
  186.1000  177.6590  145.7610 C   0  0  0  0  0  0  0  0  0  0  0  0
  186.2070  179.0800  143.6610 C   0  0  0  0  0  2  0  0  0  0  0  0
  186.6940  176.7520  146.6460 C   0  0  0  0  0  3  0  0  0  0  0  0
  184.7330  178.1510  145.9770 C   0  0  0  0  0  0  0  0  0  0  0  0
  184.0480  177.7460  146.9530 O   0  0  0  0  0  0  0  0  0  0  0  0
  184.8210  179.5490  144.0320 C   0  0  0  0  0  3  0  0  0  0  0  0
  188.1230  177.6700  144.4280 C   0  0  0  0  0  3  0  0  0  0  0  0
  190.9040  172.9590  141.5010 O   0  0  0  0  0  1  0  0  0  0  0  0
  190.3290  174.2290  141.5840 C   0  0  1  0  0  3  0  0  0  0  0  0
  188.7990  174.1220  141.5600 C   0  0  1  0  0  3  0  0  0  0  0  0
  187.2520  175.9080  141.7100 O   0  0  0  0  0  0  0  0  0  0  0  0
  188.1620  175.3920  141.0820 C   0  0  0  0  0  3  0  0  0  0  0  0
  188.3320  172.9580  140.6890 C   0  0  0  0  0  2  0  0  0  0  0  0
  188.2320  173.3410  139.3490 O   0  0  0  0  0  1  0  0  0  0  0  0
  1  8  1  0  0  0  0
  1  7  1  0  0  0  0
  2  3  1  0  0  0  0
  3  4  2  0  0  0  0
  3  5  1  0  0  0  0
  4  6  1  0  0  0  0
  7  9  2  0  0  0  0
  8  7  1  0  0  0  0
  8  2  2  0  0  0  0
  9 12  1  0  0  0  0
  9  4  1  0  0  0  0
 10 14  1  0  0  0  0
 11 17  1  0  0  0  0
 12 13  2  0  0  0  0
 13 16  1  0  0  0  0
 14 17  1  0  0  0  0
 14 16  2  0  0  0  0
 15 19  1  0  0  0  0
 15 10  1  0  0  0  0
 17 18  2  0  0  0  0
 19 11  2  0  0  0  0
 20 10  2  0  0  0  0
 20 12  1  0  0  0  0
 22 21  1  1  0  0  0
 22  1  1  0  0  0  0
 23 26  1  6  0  0  0
 23 22  1  0  0  0  0
 25 23  1  0  0  0  0
 25 24  2  0  0  0  0
 27 26  1  0  0  0  0
M  END
>  <MODEL>
1

>  <REMARK>
 VINA RESULT:      -7.3      0.000      0.000
  Name = 
  5 active torsions:
  status: ('A' for Active; 'I' for Inactive)
    1  A    between atoms: N_1  and  C_19
    2  A    between atoms: C_3  and  C_14
    3  A    between atoms: C_3  and  C_19
    4  A    between atoms: C_3  and  C_24
    5  A    between atoms: C_7  and  C_27
                            x       y       z     vdW  Elec       q    Type
                         _______ _______ _______ _____ _____    ______ ____

>  <TORSDO>
F 5

$$$$
=
 OpenBabel11062421063D

 27 30  0  0  1  0  0  0  0  0999 V2000
  185.7140  178.7560  144.9290 N   0  0  0  0  0  0  0  0  0  0  0  0
  184.8020  178.5640  142.3780 N   0  0  0  0  0  0  0  0  0  0  0  0
  185.7390  178.1350  141.4390 C   0  0  0  0  0  0  0  0  0  0  0  0
  187.1420  177.8030  141.7890 C   0  0  0  0  0  0  0  0  0  0  0  0
  185.3050  178.0070  140.0210 C   0  0  0  0  0  1  0  0  0  0  0  0
  187.9730  177.3930  140.7970 F   0  0  0  0  0  0  0  0  0  0  0  0
  186.6500  178.3260  143.9740 C   0  0  0  0  0  0  0  0  0  0  0  0
  185.3720  178.6170  143.5770 C   0  0  0  0  0  0  0  0  0  0  0  0
  187.6470  177.8990  143.1510 C   0  0  0  0  0  0  0  0  0  0  0  0
  190.5720  176.9520  145.3750 C   0  0  0  0  0  0  0  0  0  0  0  0
  193.2060  176.3970  146.3140 N   0  0  0  0  0  0  0  0  0  0  0  0
  189.0190  177.5850  143.6080 C   0  0  0  0  0  0  0  0  0  0  0  0
  190.0890  177.6300  142.7020 C   0  0  0  0  0  3  0  0  0  0  0  0
  191.6350  177.0000  144.4590 C   0  0  0  0  0  0  0  0  0  0  0  0
  190.7910  176.5700  146.8130 C   0  0  0  0  0  2  0  0  0  0  0  0
  191.3900  177.3400  143.1230 C   0  0  0  0  0  3  0  0  0  0  0  0
  192.9920  176.6990  144.9320 C   0  0  0  0  0  0  0  0  0  0  0  0
  193.9700  176.7110  144.1380 O   0  0  0  0  0  0  0  0  0  0  0  0
  192.2370  176.3410  147.1780 C   0  0  0  0  0  3  0  0  0  0  0  0
  189.2740  177.2410  144.9440 C   0  0  0  0  0  3  0  0  0  0  0  0
  184.1090  178.4260  146.5700 O   0  0  0  0  0  1  0  0  0  0  0  0
  185.3430  179.0250  146.3070 C   0  0  1  0  0  3  0  0  0  0  0  0
  186.4110  178.4850  147.2680 C   0  0  1  0  0  3  0  0  0  0  0  0
  186.3200  180.5450  148.4330 O   0  0  0  0  0  0  0  0  0  0  0  0
  186.5470  179.3470  148.4870 C   0  0  0  0  0  3  0  0  0  0  0  0
  186.1100  177.0480  147.6890 C   0  0  0  0  0  2  0  0  0  0  0  0
  187.0850  176.1700  147.2090 O   0  0  0  0  0  1  0  0  0  0  0  0
  1 22  1  0  0  0  0
  2  8  1  0  0  0  0
  3  4  1  0  0  0  0
  3  2  2  0  0  0  0
  4  9  2  0  0  0  0
  5  3  1  0  0  0  0
  6  4  1  0  0  0  0
  7  1  1  0  0  0  0
  8  7  2  0  0  0  0
  8  1  1  0  0  0  0
  9 12  1  0  0  0  0
  9  7  1  0  0  0  0
 10 15  1  0  0  0  0
 11 19  2  0  0  0  0
 12 20  2  0  0  0  0
 13 16  2  0  0  0  0
 13 12  1  0  0  0  0
 14 17  1  0  0  0  0
 14 10  2  0  0  0  0
 15 19  1  0  0  0  0
 16 14  1  0  0  0  0
 17 11  1  0  0  0  0
 18 17  2  0  0  0  0
 20 10  1  0  0  0  0
 22 21  1  1  0  0  0
 22 23  1  0  0  0  0
 23 26  1  1  0  0  0
 23 25  1  0  0  0  0
 24 25  2  0  0  0  0
 27 26  1  0  0  0  0
M  END
>  <MODEL>
2

>  <REMARK>
 VINA RESULT:      -7.3      3.311      7.427
  Name = 
  5 active torsions:
  status: ('A' for Active; 'I' for Inactive)
    1  A    between atoms: N_1  and  C_19
    2  A    between atoms: C_3  and  C_14
    3  A    between atoms: C_3  and  C_19
    4  A    between atoms: C_3  and  C_24
    5  A    between atoms: C_7  and  C_27
                            x       y       z     vdW  Elec       q    Type
                         _______ _______ _______ _____ _____    ______ ____

>  <TORSDO>
F 5

$$$$
=
 OpenBabel11062421063D

 27 30  0  0  1  0  0  0  0  0999 V2000
  185.6630  178.7690  144.9090 N   0  0  0  0  0  0  0  0  0  0  0  0
  184.9540  178.4610  142.3050 N   0  0  0  0  0  0  0  0  0  0  0  0
  185.9560  177.9740  141.4670 C   0  0  0  0  0  0  0  0  0  0  0  0
  187.3200  177.6420  141.9450 C   0  0  0  0  0  0  0  0  0  0  0  0
  185.6340  177.7810  140.0270 C   0  0  0  0  0  1  0  0  0  0  0  0
  188.2210  177.1730  141.0430 F   0  0  0  0  0  0  0  0  0  0  0  0
  186.6650  178.2800  144.0550 C   0  0  0  0  0  0  0  0  0  0  0  0
  185.4270  178.5670  143.5420 C   0  0  0  0  0  0  0  0  0  0  0  0
  187.7170  177.8000  143.3360 C   0  0  0  0  0  0  0  0  0  0  0  0
  190.4190  176.3580  145.5770 C   0  0  0  0  0  0  0  0  0  0  0  0
  192.9460  175.7840  146.7640 N   0  0  0  0  0  0  0  0  0  0  0  0
  189.0430  177.4920  143.9170 C   0  0  0  0  0  0  0  0  0  0  0  0
  190.2020  178.0540  143.3600 C   0  0  0  0  0  3  0  0  0  0  0  0
  191.5720  176.9260  145.0100 C   0  0  0  0  0  0  0  0  0  0  0  0
  190.5010  175.4250  146.7530 C   0  0  0  0  0  2  0  0  0  0  0  0
  191.4590  177.7740  143.9020 C   0  0  0  0  0  3  0  0  0  0  0  0
  192.8780  176.6210  145.6070 C   0  0  0  0  0  0  0  0  0  0  0  0
  193.9380  177.0950  145.1170 O   0  0  0  0  0  0  0  0  0  0  0  0
  191.8940  175.2420  147.3020 C   0  0  0  0  0  3  0  0  0  0  0  0
  189.1660  176.6420  145.0260 C   0  0  0  0  0  3  0  0  0  0  0  0
  183.7970  178.9870  146.2690 O   0  0  0  0  0  1  0  0  0  0  0  0
  185.1870  179.1110  146.2380 C   0  0  1  0  0  3  0  0  0  0  0  0
  185.8260  178.1940  147.2910 C   0  0  1  0  0  3  0  0  0  0  0  0
  186.7990  176.0490  147.0540 O   0  0  0  0  0  0  0  0  0  0  0  0
  185.8310  176.7620  146.8480 C   0  0  0  0  0  3  0  0  0  0  0  0
  187.2500  178.6320  147.6240 C   0  0  0  0  0  2  0  0  0  0  0  0
  187.2820  179.3920  148.7960 O   0  0  0  0  0  1  0  0  0  0  0  0
  1 22  1  0  0  0  0
  2  8  1  0  0  0  0
  3  4  1  0  0  0  0
  3  2  2  0  0  0  0
  4  9  2  0  0  0  0
  5  3  1  0  0  0  0
  6  4  1  0  0  0  0
  7  1  1  0  0  0  0
  8  7  2  0  0  0  0
  8  1  1  0  0  0  0
  9 12  1  0  0  0  0
  9  7  1  0  0  0  0
 10 15  1  0  0  0  0
 11 19  2  0  0  0  0
 12 20  2  0  0  0  0
 13 16  2  0  0  0  0
 13 12  1  0  0  0  0
 14 10  2  0  0  0  0
 14 17  1  0  0  0  0
 15 19  1  0  0  0  0
 16 14  1  0  0  0  0
 17 11  1  0  0  0  0
 18 17  2  0  0  0  0
 20 10  1  0  0  0  0
 22 21  1  6  0  0  0
 22 23  1  0  0  0  0
 23 25  1  6  0  0  0
 23 26  1  0  0  0  0
 25 24  2  0  0  0  0
 26 27  1  0  0  0  0
M  END
>  <MODEL>
3

>  <REMARK>
 VINA RESULT:      -7.2      3.334      7.366
  Name = 
  5 active torsions:
  status: ('A' for Active; 'I' for Inactive)
    1  A    between atoms: N_1  and  C_19
    2  A    between atoms: C_3  and  C_14
    3  A    between atoms: C_3  and  C_19
    4  A    between atoms: C_3  and  C_24
    5  A    between atoms: C_7  and  C_27
                            x       y       z     vdW  Elec       q    Type
                         _______ _______ _______ _____ _____    ______ ____

>  <TORSDO>
F 5

$$$$
=
 OpenBabel11062421063D

 27 30  0  0  1  0  0  0  0  0999 V2000
  189.5690  173.2370  142.9080 N   0  0  0  0  0  0  0  0  0  0  0  0
  191.8200  173.3220  144.4240 N   0  0  0  0  0  0  0  0  0  0  0  0
  191.9030  174.3930  145.3120 C   0  0  0  0  0  0  0  0  0  0  0  0
  190.8440  175.4250  145.4350 C   0  0  0  0  0  0  0  0  0  0  0  0
  193.1110  174.4990  146.1750 C   0  0  0  0  0  1  0  0  0  0  0  0
  191.0250  176.4270  146.3340 F   0  0  0  0  0  0  0  0  0  0  0  0
  189.6620  174.3130  143.8060 C   0  0  0  0  0  0  0  0  0  0  0  0
  190.6810  173.3980  143.7460 C   0  0  0  0  0  0  0  0  0  0  0  0
  189.6310  175.3950  144.6320 C   0  0  0  0  0  0  0  0  0  0  0  0
  186.4770  177.2020  145.7200 C   0  0  0  0  0  0  0  0  0  0  0  0
  184.2770  179.0130  145.8190 N   0  0  0  0  0  0  0  0  0  0  0  0
  188.5150  176.3650  144.6800 C   0  0  0  0  0  0  0  0  0  0  0  0
  188.4260  177.3830  143.7180 C   0  0  0  0  0  3  0  0  0  0  0  0
  186.3980  178.2160  144.7510 C   0  0  0  0  0  0  0  0  0  0  0  0
  185.4600  177.0880  146.8220 C   0  0  0  0  0  2  0  0  0  0  0  0
  187.3740  178.3030  143.7520 C   0  0  0  0  0  3  0  0  0  0  0  0
  185.2770  179.1620  144.8070 C   0  0  0  0  0  0  0  0  0  0  0  0
  185.1800  180.0980  143.9680 O   0  0  0  0  0  0  0  0  0  0  0  0
  184.3320  178.0870  146.7280 C   0  0  0  0  0  3  0  0  0  0  0  0
  187.5330  176.2880  145.6800 C   0  0  0  0  0  3  0  0  0  0  0  0
  187.4780  172.8400  141.9870 O   0  0  0  0  0  1  0  0  0  0  0  0
  188.8220  172.4650  141.9300 C   0  0  1  0  0  3  0  0  0  0  0  0
  189.3800  172.6970  140.5200 C   0  0  1  0  0  3  0  0  0  0  0  0
  190.1960  170.9730  139.1170 O   0  0  0  0  0  0  0  0  0  0  0  0
  190.3610  171.6330  140.1290 C   0  0  0  0  0  3  0  0  0  0  0  0
  188.2630  172.7680  139.4800 C   0  0  0  0  0  2  0  0  0  0  0  0
  188.2610  174.0040  138.8280 O   0  0  0  0  0  1  0  0  0  0  0  0
  1  8  1  0  0  0  0
  1  7  1  0  0  0  0
  2  3  1  0  0  0  0
  3  4  2  0  0  0  0
  3  5  1  0  0  0  0
  4  6  1  0  0  0  0
  7  9  2  0  0  0  0
  8  7  1  0  0  0  0
  8  2  2  0  0  0  0
  9 12  1  0  0  0  0
  9  4  1  0  0  0  0
 10 15  1  0  0  0  0
 11 19  2  0  0  0  0
 12 20  2  0  0  0  0
 13 16  2  0  0  0  0
 13 12  1  0  0  0  0
 14 17  1  0  0  0  0
 14 10  2  0  0  0  0
 16 14  1  0  0  0  0
 17 11  1  0  0  0  0
 18 17  2  0  0  0  0
 19 15  1  0  0  0  0
 20 10  1  0  0  0  0
 22 21  1  6  0  0  0
 22  1  1  0  0  0  0
 23 26  1  6  0  0  0
 23 22  1  0  0  0  0
 24 25  2  0  0  0  0
 25 23  1  0  0  0  0
 27 26  1  0  0  0  0
M  END
>  <MODEL>
4

>  <REMARK>
 VINA RESULT:      -7.0      1.771      2.580
  Name = 
  5 active torsions:
  status: ('A' for Active; 'I' for Inactive)
    1  A    between atoms: N_1  and  C_19
    2  A    between atoms: C_3  and  C_14
    3  A    between atoms: C_3  and  C_19
    4  A    between atoms: C_3  and  C_24
    5  A    between atoms: C_7  and  C_27
                            x       y       z     vdW  Elec       q    Type
                         _______ _______ _______ _____ _____    ______ ____

>  <TORSDO>
F 5

$$$$
=
 OpenBabel11062421063D

 27 30  0  0  1  0  0  0  0  0999 V2000
  190.4930  173.9910  145.3680 N   0  0  0  0  0  0  0  0  0  0  0  0
  191.5940  175.3590  147.4390 N   0  0  0  0  0  0  0  0  0  0  0  0
  190.9940  176.5830  147.7320 C   0  0  0  0  0  0  0  0  0  0  0  0
  189.8350  177.1180  146.9770 C   0  0  0  0  0  0  0  0  0  0  0  0
  191.5480  177.3850  148.8580 C   0  0  0  0  0  1  0  0  0  0  0  0
  189.3270  178.3220  147.3470 F   0  0  0  0  0  0  0  0  0  0  0  0
  189.8970  175.2260  145.6720 C   0  0  0  0  0  0  0  0  0  0  0  0
  190.9670  174.7970  146.4120 C   0  0  0  0  0  0  0  0  0  0  0  0
  189.2320  176.3980  145.8660 C   0  0  0  0  0  0  0  0  0  0  0  0
  187.0840  177.3830  142.8970 C   0  0  0  0  0  0  0  0  0  0  0  0
  184.8980  178.2780  141.2990 N   0  0  0  0  0  0  0  0  0  0  0  0
  188.0740  176.8350  145.0540 C   0  0  0  0  0  0  0  0  0  0  0  0
  186.8500  177.1290  145.6750 C   0  0  0  0  0  3  0  0  0  0  0  0
  185.8640  177.6750  143.5300 C   0  0  0  0  0  0  0  0  0  0  0  0
  187.2380  177.4880  141.4050 C   0  0  0  0  0  2  0  0  0  0  0  0
  185.7520  177.5460  144.9200 C   0  0  0  0  0  3  0  0  0  0  0  0
  184.7300  178.1200  142.7110 C   0  0  0  0  0  0  0  0  0  0  0  0
  183.6130  178.3720  143.2370 O   0  0  0  0  0  0  0  0  0  0  0  0
  186.0150  178.0100  140.6910 C   0  0  0  0  0  3  0  0  0  0  0  0
  188.1760  176.9640  143.6610 C   0  0  0  0  0  3  0  0  0  0  0  0
  189.4550  171.9450  145.0270 O   0  0  0  0  0  1  0  0  0  0  0  0
  190.5190  172.7490  144.6150 C   0  0  1  0  0  3  0  0  0  0  0  0
  190.4210  173.0300  143.1090 C   0  0  1  0  0  3  0  0  0  0  0  0
  188.3710  172.7890  141.9490 O   0  0  0  0  0  0  0  0  0  0  0  0
  189.0410  173.4620  142.7150 C   0  0  0  0  0  3  0  0  0  0  0  0
  191.4330  174.0860  142.6690 C   0  0  0  0  0  2  0  0  0  0  0  0
  190.7900  175.2000  142.1240 O   0  0  0  0  0  1  0  0  0  0  0  0
  1  7  1  0  0  0  0
  1  8  1  0  0  0  0
  2  3  1  0  0  0  0
  3  5  1  0  0  0  0
  4  6  1  0  0  0  0
  4  3  2  0  0  0  0
  7  9  2  0  0  0  0
  7  8  1  0  0  0  0
  8  2  2  0  0  0  0
  9  4  1  0  0  0  0
 10 14  2  0  0  0  0
 10 20  1  0  0  0  0
 11 17  1  0  0  0  0
 12 13  1  0  0  0  0
 12  9  1  0  0  0  0
 14 16  1  0  0  0  0
 15 10  1  0  0  0  0
 16 13  2  0  0  0  0
 17 18  2  0  0  0  0
 17 14  1  0  0  0  0
 19 11  2  0  0  0  0
 19 15  1  0  0  0  0
 20 12  2  0  0  0  0
 22 21  1  1  0  0  0
 22  1  1  0  0  0  0
 23 26  1  1  0  0  0
 23 22  1  0  0  0  0
 24 25  2  0  0  0  0
 25 23  1  0  0  0  0
 27 26  1  0  0  0  0
M  END
>  <MODEL>
5

>  <REMARK>
 VINA RESULT:      -7.0      2.317      2.868
  Name = 
  5 active torsions:
  status: ('A' for Active; 'I' for Inactive)
    1  A    between atoms: N_1  and  C_19
    2  A    between atoms: C_3  and  C_14
    3  A    between atoms: C_3  and  C_19
    4  A    between atoms: C_3  and  C_24
    5  A    between atoms: C_7  and  C_27
                            x       y       z     vdW  Elec       q    Type
                         _______ _______ _______ _____ _____    ______ ____

>  <TORSDO>
F 5

$$$$
=
 OpenBabel11062421063D

 27 30  0  0  1  0  0  0  0  0999 V2000
  186.1640  177.3360  142.9670 N   0  0  0  0  0  0  0  0  0  0  0  0
  184.6380  178.2600  145.0160 N   0  0  0  0  0  0  0  0  0  0  0  0
  185.2200  178.1730  146.2800 C   0  0  0  0  0  0  0  0  0  0  0  0
  186.5760  177.6180  146.5110 C   0  0  0  0  0  0  0  0  0  0  0  0
  184.4380  178.6640  147.4480 C   0  0  0  0  0  1  0  0  0  0  0  0
  187.0480  177.5810  147.7830 F   0  0  0  0  0  0  0  0  0  0  0  0
  186.7390  177.2540  144.2460 C   0  0  0  0  0  0  0  0  0  0  0  0
  185.4810  177.7770  144.1100 C   0  0  0  0  0  0  0  0  0  0  0  0
  187.4070  177.1210  145.4250 C   0  0  0  0  0  0  0  0  0  0  0  0
  190.3800  174.7880  145.0780 C   0  0  0  0  0  0  0  0  0  0  0  0
  192.9760  173.6350  145.3290 N   0  0  0  0  0  0  0  0  0  0  0  0
  188.7700  176.5560  145.5430 C   0  0  0  0  0  0  0  0  0  0  0  0
  189.7620  177.2560  146.2480 C   0  0  0  0  0  3  0  0  0  0  0  0
  191.3650  175.4980  145.7860 C   0  0  0  0  0  0  0  0  0  0  0  0
  190.6840  173.4710  144.4180 C   0  0  0  0  0  2  0  0  0  0  0  0
  191.0520  176.7310  146.3690 C   0  0  0  0  0  3  0  0  0  0  0  0
  192.7080  174.9170  145.9040 C   0  0  0  0  0  0  0  0  0  0  0  0
  193.6250  175.5300  146.5130 O   0  0  0  0  0  0  0  0  0  0  0  0
  192.0830  172.9630  144.6660 C   0  0  0  0  0  3  0  0  0  0  0  0
  189.0940  175.3220  144.9590 C   0  0  0  0  0  3  0  0  0  0  0  0
  185.6440  178.2890  140.9180 O   0  0  0  0  0  1  0  0  0  0  0  0
  186.2560  177.1910  141.5250 C   0  0  1  0  0  3  0  0  0  0  0  0
  187.7230  177.0910  141.0870 C   0  0  1  0  0  3  0  0  0  0  0  0
  189.5590  177.8940  142.3470 O   0  0  0  0  0  0  0  0  0  0  0  0
  188.5610  178.1700  141.7040 C   0  0  0  0  0  3  0  0  0  0  0  0
  188.3170  175.7250  141.4260 C   0  0  0  0  0  2  0  0  0  0  0  0
  188.1930  174.8410  140.3520 O   0  0  0  0  0  1  0  0  0  0  0  0
  1  8  1  0  0  0  0
  1  7  1  0  0  0  0
  2  3  1  0  0  0  0
  3  4  2  0  0  0  0
  3  5  1  0  0  0  0
  4  6  1  0  0  0  0
  7  9  2  0  0  0  0
  8  7  1  0  0  0  0
  8  2  2  0  0  0  0
  9 12  1  0  0  0  0
  9  4  1  0  0  0  0
 10 14  1  0  0  0  0
 11 17  1  0  0  0  0
 12 13  2  0  0  0  0
 13 16  1  0  0  0  0
 14 17  1  0  0  0  0
 14 16  2  0  0  0  0
 15 19  1  0  0  0  0
 15 10  1  0  0  0  0
 17 18  2  0  0  0  0
 19 11  2  0  0  0  0
 20 10  2  0  0  0  0
 20 12  1  0  0  0  0
 22 21  1  6  0  0  0
 22  1  1  0  0  0  0
 23 26  1  1  0  0  0
 23 22  1  0  0  0  0
 23 25  1  0  0  0  0
 25 24  2  0  0  0  0
 27 26  1  0  0  0  0
M  END
>  <MODEL>
6

>  <REMARK>
 VINA RESULT:      -6.9      2.268      6.098
  Name = 
  5 active torsions:
  status: ('A' for Active; 'I' for Inactive)
    1  A    between atoms: N_1  and  C_19
    2  A    between atoms: C_3  and  C_14
    3  A    between atoms: C_3  and  C_19
    4  A    between atoms: C_3  and  C_24
    5  A    between atoms: C_7  and  C_27
                            x       y       z     vdW  Elec       q    Type
                         _______ _______ _______ _____ _____    ______ ____

>  <TORSDO>
F 5

$$$$
=
 OpenBabel11062421063D

 27 30  0  0  1  0  0  0  0  0999 V2000
  191.9470  175.0850  144.2770 N   0  0  0  0  0  0  0  0  0  0  0  0
  191.3630  174.0510  141.8340 N   0  0  0  0  0  0  0  0  0  0  0  0
  190.0310  174.1670  141.4400 C   0  0  0  0  0  0  0  0  0  0  0  0
  188.9900  174.8070  142.2820 C   0  0  0  0  0  0  0  0  0  0  0  0
  189.6420  173.6210  140.1110 C   0  0  0  0  0  1  0  0  0  0  0  0
  187.7220  174.8680  141.8000 F   0  0  0  0  0  0  0  0  0  0  0  0
  190.6080  175.1960  143.8690 C   0  0  0  0  0  0  0  0  0  0  0  0
  191.5140  174.5900  143.0390 C   0  0  0  0  0  0  0  0  0  0  0  0
  189.2860  175.3680  143.5910 C   0  0  0  0  0  0  0  0  0  0  0  0
  186.2930  177.3180  144.8710 C   0  0  0  0  0  0  0  0  0  0  0  0
  184.4540  178.6600  146.5870 N   0  0  0  0  0  0  0  0  0  0  0  0
  188.3290  176.0320  144.5040 C   0  0  0  0  0  0  0  0  0  0  0  0
  188.5510  176.0120  145.8900 C   0  0  0  0  0  3  0  0  0  0  0  0
  186.5260  177.2930  146.2560 C   0  0  0  0  0  0  0  0  0  0  0  0
  185.0800  177.9920  144.2910 C   0  0  0  0  0  2  0  0  0  0  0  0
  187.6560  176.6390  146.7620 C   0  0  0  0  0  3  0  0  0  0  0  0
  185.5730  177.9680  147.1470 C   0  0  0  0  0  0  0  0  0  0  0  0
  185.7350  177.9510  148.3960 O   0  0  0  0  0  0  0  0  0  0  0  0
  184.2150  178.6930  145.3100 C   0  0  0  0  0  3  0  0  0  0  0  0
  187.1920  176.6870  144.0070 C   0  0  0  0  0  3  0  0  0  0  0  0
  193.7110  174.2000  145.4940 O   0  0  0  0  0  1  0  0  0  0  0  0
  193.0120  175.3770  145.2200 C   0  0  1  0  0  3  0  0  0  0  0  0
  193.9620  176.4390  144.6490 C   0  0  1  0  0  3  0  0  0  0  0  0
  194.2150  177.1620  146.8900 O   0  0  0  0  0  0  0  0  0  0  0  0
  194.5940  177.2580  145.7340 C   0  0  0  0  0  3  0  0  0  0  0  0
  195.0520  175.8080  143.7850 C   0  0  0  0  0  2  0  0  0  0  0  0
  194.7760  175.9780  142.4260 O   0  0  0  0  0  1  0  0  0  0  0  0
  1 22  1  0  0  0  0
  2  8  1  0  0  0  0
  3  2  2  0  0  0  0
  3  4  1  0  0  0  0
  4  9  2  0  0  0  0
  5  3  1  0  0  0  0
  6  4  1  0  0  0  0
  7  1  1  0  0  0  0
  8  7  2  0  0  0  0
  8  1  1  0  0  0  0
  9  7  1  0  0  0  0
  9 12  1  0  0  0  0
 10 14  1  0  0  0  0
 11 17  1  0  0  0  0
 12 13  2  0  0  0  0
 13 16  1  0  0  0  0
 14 16  2  0  0  0  0
 14 17  1  0  0  0  0
 15 10  1  0  0  0  0
 15 19  1  0  0  0  0
 17 18  2  0  0  0  0
 19 11  2  0  0  0  0
 20 12  1  0  0  0  0
 20 10  2  0  0  0  0
 22 21  1  6  0  0  0
 23 26  1  1  0  0  0
 23 22  1  0  0  0  0
 23 25  1  0  0  0  0
 25 24  2  0  0  0  0
 27 26  1  0  0  0  0
M  END
>  <MODEL>
7

>  <REMARK>
 VINA RESULT:      -6.9      2.860      4.532
  Name = 
  5 active torsions:
  status: ('A' for Active; 'I' for Inactive)
    1  A    between atoms: N_1  and  C_19
    2  A    between atoms: C_3  and  C_14
    3  A    between atoms: C_3  and  C_19
    4  A    between atoms: C_3  and  C_24
    5  A    between atoms: C_7  and  C_27
                            x       y       z     vdW  Elec       q    Type
                         _______ _______ _______ _____ _____    ______ ____

>  <TORSDO>
F 5

$$$$
=
 OpenBabel11062421063D

 27 30  0  0  1  0  0  0  0  0999 V2000
  191.8200  174.3240  145.0520 N   0  0  0  0  0  0  0  0  0  0  0  0
  191.4640  172.6960  142.9080 N   0  0  0  0  0  0  0  0  0  0  0  0
  190.2990  172.9200  142.1750 C   0  0  0  0  0  0  0  0  0  0  0  0
  189.3110  173.9690  142.5260 C   0  0  0  0  0  0  0  0  0  0  0  0
  190.0420  172.0630  140.9850 C   0  0  0  0  0  1  0  0  0  0  0  0
  188.2090  174.1040  141.7430 F   0  0  0  0  0  0  0  0  0  0  0  0
  190.6500  174.5410  144.3060 C   0  0  0  0  0  0  0  0  0  0  0  0
  191.5160  173.5510  143.9240 C   0  0  0  0  0  0  0  0  0  0  0  0
  189.4870  174.8520  143.6700 C   0  0  0  0  0  0  0  0  0  0  0  0
  187.2450  177.0190  145.8320 C   0  0  0  0  0  0  0  0  0  0  0  0
  185.4350  179.0450  146.6960 N   0  0  0  0  0  0  0  0  0  0  0  0
  188.5710  175.9310  144.1030 C   0  0  0  0  0  0  0  0  0  0  0  0
  188.1450  176.9020  143.1840 C   0  0  0  0  0  3  0  0  0  0  0  0
  186.8250  177.9860  144.9030 C   0  0  0  0  0  0  0  0  0  0  0  0
  186.7980  177.0650  147.2680 C   0  0  0  0  0  2  0  0  0  0  0  0
  187.2770  177.9230  143.5790 C   0  0  0  0  0  3  0  0  0  0  0  0
  185.9060  179.0420  145.3460 C   0  0  0  0  0  0  0  0  0  0  0  0
  185.5220  179.9390  144.5490 O   0  0  0  0  0  0  0  0  0  0  0  0
  185.8130  178.1660  147.5740 C   0  0  0  0  0  3  0  0  0  0  0  0
  188.1140  176.0030  145.4270 C   0  0  0  0  0  3  0  0  0  0  0  0
  194.0340  174.3870  145.7380 O   0  0  0  0  0  1  0  0  0  0  0  0
  192.7290  174.7020  146.1210 C   0  0  1  0  0  3  0  0  0  0  0  0
  192.6110  176.2020  146.4230 C   0  0  1  0  0  3  0  0  0  0  0  0
  191.1850  175.6010  148.2160 O   0  0  0  0  0  0  0  0  0  0  0  0
  191.5580  176.4780  147.4540 C   0  0  0  0  0  3  0  0  0  0  0  0
  193.9440  176.7860  146.8850 C   0  0  0  0  0  2  0  0  0  0  0  0
  194.5480  177.5260  145.8660 O   0  0  0  0  0  1  0  0  0  0  0  0
  1 22  1  0  0  0  0
  2  8  1  0  0  0  0
  3  4  1  0  0  0  0
  3  2  2  0  0  0  0
  4  9  2  0  0  0  0
  5  3  1  0  0  0  0
  6  4  1  0  0  0  0
  7  1  1  0  0  0  0
  8  7  2  0  0  0  0
  8  1  1  0  0  0  0
  9 12  1  0  0  0  0
  9  7  1  0  0  0  0
 10 15  1  0  0  0  0
 11 19  2  0  0  0  0
 12 20  2  0  0  0  0
 13 16  2  0  0  0  0
 13 12  1  0  0  0  0
 14 17  1  0  0  0  0
 14 10  2  0  0  0  0
 15 19  1  0  0  0  0
 16 14  1  0  0  0  0
 17 11  1  0  0  0  0
 18 17  2  0  0  0  0
 20 10  1  0  0  0  0
 22 21  1  6  0  0  0
 22 23  1  0  0  0  0
 23 26  1  1  0  0  0
 23 25  1  0  0  0  0
 25 24  2  0  0  0  0
 27 26  1  0  0  0  0
M  END
>  <MODEL>
8

>  <REMARK>
 VINA RESULT:      -6.9      2.980      4.951
  Name = 
  5 active torsions:
  status: ('A' for Active; 'I' for Inactive)
    1  A    between atoms: N_1  and  C_19
    2  A    between atoms: C_3  and  C_14
    3  A    between atoms: C_3  and  C_19
    4  A    between atoms: C_3  and  C_24
    5  A    between atoms: C_7  and  C_27
                            x       y       z     vdW  Elec       q    Type
                         _______ _______ _______ _____ _____    ______ ____

>  <TORSDO>
F 5

$$$$
=
 OpenBabel11062421063D

 27 30  0  0  1  0  0  0  0  0999 V2000
  191.5190  175.6160  143.8330 N   0  0  0  0  0  0  0  0  0  0  0  0
  191.2280  173.5490  142.0950 N   0  0  0  0  0  0  0  0  0  0  0  0
  189.9200  173.2920  141.6870 C   0  0  0  0  0  0  0  0  0  0  0  0
  188.7550  174.0810  142.1580 C   0  0  0  0  0  0  0  0  0  0  0  0
  189.6890  172.1720  140.7340 C   0  0  0  0  0  1  0  0  0  0  0  0
  187.5230  173.7460  141.6960 F   0  0  0  0  0  0  0  0  0  0  0  0
  190.2050  175.3480  143.4150 C   0  0  0  0  0  0  0  0  0  0  0  0
  191.2320  174.5750  142.9390 C   0  0  0  0  0  0  0  0  0  0  0  0
  188.8930  175.1920  143.0870 C   0  0  0  0  0  0  0  0  0  0  0  0
  186.7250  177.2070  145.4610 C   0  0  0  0  0  0  0  0  0  0  0  0
  184.6150  178.8010  146.5270 N   0  0  0  0  0  0  0  0  0  0  0  0
  187.8030  176.0450  143.6110 C   0  0  0  0  0  0  0  0  0  0  0  0
  186.7950  176.5060  142.7510 C   0  0  0  0  0  3  0  0  0  0  0  0
  185.7210  177.6630  144.5900 C   0  0  0  0  0  0  0  0  0  0  0  0
  186.7300  177.5830  146.9170 C   0  0  0  0  0  2  0  0  0  0  0  0
  185.7590  177.3090  143.2360 C   0  0  0  0  0  3  0  0  0  0  0  0
  184.6400  178.4980  145.1300 C   0  0  0  0  0  0  0  0  0  0  0  0
  183.7320  178.9420  144.3790 O   0  0  0  0  0  0  0  0  0  0  0  0
  185.5350  178.3960  147.3510 C   0  0  0  0  0  3  0  0  0  0  0  0
  187.7580  176.4070  144.9660 C   0  0  0  0  0  3  0  0  0  0  0  0
  191.9750  177.7380  144.6520 O   0  0  0  0  0  1  0  0  0  0  0  0
  192.4760  176.4380  144.5530 C   0  0  1  0  0  3  0  0  0  0  0  0
  192.7350  175.8610  145.9520 C   0  0  1  0  0  3  0  0  0  0  0  0
  194.5560  177.2650  146.5190 O   0  0  0  0  0  0  0  0  0  0  0  0
  194.1390  176.1240  146.4080 C   0  0  0  0  0  3  0  0  0  0  0  0
  191.7520  176.4180  146.9790 C   0  0  0  0  0  2  0  0  0  0  0  0
  190.6550  175.5670  147.1380 O   0  0  0  0  0  1  0  0  0  0  0  0
  1 22  1  0  0  0  0
  2  8  1  0  0  0  0
  3  2  2  0  0  0  0
  3  4  1  0  0  0  0
  4  9  2  0  0  0  0
  5  3  1  0  0  0  0
  6  4  1  0  0  0  0
  7  1  1  0  0  0  0
  8  7  2  0  0  0  0
  8  1  1  0  0  0  0
  9  7  1  0  0  0  0
  9 12  1  0  0  0  0
 10 15  1  0  0  0  0
 11 19  2  0  0  0  0
 12 20  2  0  0  0  0
 13 16  2  0  0  0  0
 13 12  1  0  0  0  0
 14 17  1  0  0  0  0
 14 10  2  0  0  0  0
 15 19  1  0  0  0  0
 16 14  1  0  0  0  0
 17 11  1  0  0  0  0
 18 17  2  0  0  0  0
 20 10  1  0  0  0  0
 22 21  1  1  0  0  0
 22 23  1  0  0  0  0
 23 25  1  1  0  0  0
 23 26  1  0  0  0  0
 25 24  2  0  0  0  0
 26 27  1  0  0  0  0
M  END
>  <MODEL>
9

>  <REMARK>
 VINA RESULT:      -6.8      2.926      4.873
  Name = 
  5 active torsions:
  status: ('A' for Active; 'I' for Inactive)
    1  A    between atoms: N_1  and  C_19
    2  A    between atoms: C_3  and  C_14
    3  A    between atoms: C_3  and  C_19
    4  A    between atoms: C_3  and  C_24
    5  A    between atoms: C_7  and  C_27
                            x       y       z     vdW  Elec       q    Type
                         _______ _______ _______ _____ _____    ______ ____

>  <TORSDO>
F 5

$$$$
