=
 OpenBabel11062422363D

 67 72  0  0  1  0  0  0  0  0999 V2000
  190.7390  172.2040  136.6490 C   0  0  1  0  0  3  0  0  0  0  0  0
  191.1470  175.5840  143.6550 C   0  0  0  0  0  2  0  0  0  0  0  0
  188.5980  176.8980  145.2520 F   0  0  0  0  0  0  0  0  0  0  0  0
  188.2200  174.5710  138.2790 C   0  0  0  0  0  3  0  0  0  0  0  0
  191.8920  172.3600  137.5950 C   0  0  0  0  0  0  0  0  0  0  0  0
  189.5240  172.5800  142.9320 F   0  0  0  0  0  0  0  0  0  0  0  0
  190.7050  173.1400  143.3970 C   0  0  0  0  0  0  0  0  0  0  0  0
  187.6870  175.3450  139.4110 C   0  0  0  0  0  0  0  0  0  0  0  0
  192.7460  170.1740  141.9530 C   0  0  0  0  0  2  0  0  0  0  0  0
  186.8200  177.0620  141.4960 C   0  0  0  0  0  0  0  0  0  0  0  0
  194.0080  170.9060  141.7310 N   0  0  0  0  0  0  0  0  0  0  0  0
  191.6470  171.0920  142.3950 C   0  0  0  0  0  3  0  0  0  0  0  0
  186.7200  176.3740  139.1580 C   0  0  0  0  0  0  0  0  0  0  0  0
  190.6460  173.1660  144.7920 F   0  0  0  0  0  0  0  0  0  0  0  0
  186.8880  177.7540  143.8340 C   0  0  0  0  0  0  0  0  0  0  0  0
  187.8220  176.1000  141.7440 C   0  0  0  0  0  0  0  0  0  0  0  0
  189.7420  175.4930  143.1570 N   0  0  0  0  0  0  0  0  0  0  0  0
  186.3670  177.8730  142.5470 C   0  0  0  0  0  3  0  0  0  0  0  0
  193.3060  172.6720  143.2370 C   0  0  0  0  0  0  0  0  0  0  0  0
  192.6520  171.1680  138.0020 C   0  0  0  0  0  0  0  0  0  0  0  0
  189.5830  173.1650  136.8830 C   0  0  0  0  0  0  0  0  0  0  0  0
  188.4580  176.0900  143.0070 C   0  0  0  0  0  0  0  0  0  0  0  0
  190.8450  174.5620  142.7870 C   0  0  1  0  0  0  0  0  0  0  0  0
  194.3990  170.0980  139.4360 C   0  0  1  0  0  3  0  0  0  0  0  0
  185.3630  178.3650  139.9050 C   0  0  0  0  0  1  0  0  0  0  0  0
  192.2990  170.0270  137.5770 O   0  0  0  0  0  0  0  0  0  0  0  0
  189.2590  173.7280  138.2150 C   0  0  0  0  0  3  0  0  0  0  0  0
  194.3070  172.0160  142.6040 C   0  0  0  0  0  3  0  0  0  0  0  0
  192.2440  173.5130  137.9870 O   0  0  0  0  0  0  0  0  0  0  0  0
  191.3420  174.7820  141.3640 C   0  0  0  0  0  1  0  0  0  0  0  0
  191.8840  172.2550  143.0150 C   0  0  0  0  0  0  0  0  0  0  0  0
  195.0050  170.3310  140.8210 C   0  0  1  0  0  3  0  0  0  0  0  0
  188.8610  173.4860  135.8890 O   0  0  0  0  0  0  0  0  0  0  0  0
  188.2530  175.2580  140.6900 C   0  0  0  0  0  3  0  0  0  0  0  0
  187.9400  176.8570  144.0630 C   0  0  0  0  0  0  0  0  0  0  0  0
  193.8000  171.2840  138.8370 N   0  0  0  0  0  2  0  0  0  0  0  0
  186.2730  177.1890  140.2110 C   0  0  0  0  0  0  0  0  0  0  0  0
  196.2860  171.1460  140.7380 C   0  0  0  0  0  1  0  0  0  0  0  0
  195.2310  169.2910  138.4630 C   0  0  0  0  0  0  0  0  0  0  0  0
  197.5870  169.5830  138.4390 O   0  0  0  0  0  1  0  0  0  0  0  0
  196.3930  169.8420  137.8370 N   0  0  0  0  0  0  0  0  0  0  0  0
  194.8060  168.1660  138.1070 O   0  0  0  0  0  0  0  0  0  0  0  0
  195.0650  170.1780  135.7760 C   0  0  0  0  0  1  0  0  0  0  0  0
  197.4880  170.0170  135.6010 C   0  0  0  0  0  1  0  0  0  0  0  0
  196.3630  170.5060  136.5060 C   0  0  0  0  0  0  0  0  0  0  0  0
  196.6330  172.7150  135.5870 O   0  0  0  0  0  0  0  0  0  0  0  0
  196.4710  172.0170  136.6180 C   0  0  0  0  0  0  0  0  0  0  0  0
  196.4250  172.6320  137.8770 O   0  0  0  0  0  0  0  0  0  0  0  0
  196.5970  174.0270  138.0580 C   0  0  0  0  0  1  0  0  0  0  0  0
  195.0240  174.3120  144.0520 C   0  0  0  0  0  2  0  0  0  0  0  0
  194.3850  173.7840  145.3450 C   0  0  2  0  0  3  0  0  0  0  0  0
  193.5500  173.9070  144.0790 C   0  0  2  0  0  3  0  0  0  0  0  0
  194.0380  174.9360  146.2740 C   0  0  0  0  0  0  0  0  0  0  0  0
  194.9550  175.6900  146.7110 O   0  0  0  0  0  0  0  0  0  0  0  0
  192.6560  175.1790  146.6410 N   0  0  0  0  0  2  0  0  0  0  0  0
  192.1830  176.4420  147.1990 C   0  0  0  0  0  2  0  0  0  0  0  0
  190.7290  176.3070  147.6800 C   0  0  0  0  0  2  0  0  0  0  0  0
  190.1300  174.9450  147.3530 C   0  0  0  0  0  1  0  0  0  0  0  0
  185.5720  178.0590  145.9030 C   0  0  0  0  0  1  0  0  0  0  0  0
  186.4190  178.5580  144.8830 O   0  0  0  0  0  0  0  0  0  0  0  0
  191.2390  172.2560  135.2020 C   0  0  0  0  0  2  0  0  0  0  0  0
  192.1800  173.4050  135.0310 C   0  0  0  0  0  0  0  0  0  0  0  0
  193.4200  173.2070  135.0310 O   0  0  0  0  0  0  0  0  0  0  0  0
  191.6730  174.7270  134.9030 N   0  0  0  0  0  1  0  0  0  0  0  0
  186.1960  176.6720  137.8730 O   0  0  0  0  0  0  0  0  0  0  0  0
  185.5410  175.9800  135.9300 C   0  0  0  0  0  1  0  0  0  0  0  0
  185.2100  175.9680  137.2950 O   0  0  0  0  0  0  0  0  0  0  0  0
  1 61  1  6  0  0  0
  1 21  1  0  0  0  0
  1  5  1  0  0  0  0
  4  8  1  0  0  0  0
  5 29  2  0  0  0  0
  5 20  1  0  0  0  0
  6  7  1  0  0  0  0
  7 14  1  0  0  0  0
  8 34  1  0  0  0  0
  9 12  1  0  0  0  0
 10 16  1  0  0  0  0
 10 18  1  0  0  0  0
 11  9  1  0  0  0  0
 11 28  1  0  0  0  0
 12 31  2  0  0  0  0
 13  8  2  0  0  0  0
 13 37  1  0  0  0  0
 15 35  1  0  0  0  0
 15 60  1  0  0  0  0
 16 22  1  0  0  0  0
 17  2  1  0  0  0  0
 18 15  2  0  0  0  0
 20 36  1  0  0  0  0
 21 27  1  0  0  0  0
 22 17  1  0  0  0  0
 22 35  2  0  0  0  0
 23 30  1  6  0  0  0
 23 17  1  0  0  0  0
 23  7  1  0  0  0  0
 23  2  1  0  0  0  0
 24 39  1  6  0  0  0
 24 32  1  0  0  0  0
 25 37  1  0  0  0  0
 26 20  2  0  0  0  0
 27  4  2  0  0  0  0
 28 19  2  0  0  0  0
 31 19  1  0  0  0  0
 31  7  1  0  0  0  0
 32 38  1  6  0  0  0
 32 11  1  0  0  0  0
 33 21  2  0  0  0  0
 34 16  2  0  0  0  0
 35  3  1  0  0  0  0
 36 24  1  0  0  0  0
 37 10  2  0  0  0  0
 41 40  1  0  0  0  0
 41 39  1  0  0  0  0
 42 39  2  0  0  0  0
 43 45  1  0  0  0  0
 44 45  1  0  0  0  0
 45 47  1  0  0  0  0
 45 41  1  0  0  0  0
 46 47  2  0  0  0  0
 47 48  1  0  0  0  0
 48 49  1  0  0  0  0
 50 52  1  0  0  0  0
 50 51  1  0  0  0  0
 51 53  1  1  0  0  0
 52 19  1  6  0  0  0
 52 51  1  0  0  0  0
 53 55  1  0  0  0  0
 53 54  2  0  0  0  0
 55 56  1  0  0  0  0
 56 57  1  0  0  0  0
 58 57  1  0  0  0  0
 60 59  1  0  0  0  0
 62 61  1  0  0  0  0
 63 62  2  0  0  0  0
 64 62  1  0  0  0  0
 65 13  1  0  0  0  0
 66 67  1  0  0  0  0
 67 65  1  0  0  0  0
M  END
>  <MODEL>
1

>  <REMARK>
 VINA RESULT:      -5.9      0.000      0.000
  Name = 
  13 active torsions:
  status: ('A' for Active; 'I' for Inactive)
    1  A    between atoms: C_1  and  C_32
    2  A    between atoms: C_4  and  C_46
    3  A    between atoms: C_6  and  C_53
    4  A    between atoms: O_15  and  C_57
    5  A    between atoms: C_16  and  C_37
    6  A    between atoms: C_19  and  C_32
    7  A    between atoms: C_20  and  O_34
    8  A    between atoms: C_22  and  O_26
    9  A    between atoms: C_28  and  C_58
   10  A    between atoms: O_34  and  O_47
   11  A    between atoms: C_46  and  N_66
   12  A    between atoms: N_54  and  C_64
   13  A    between atoms: C_57  and  C_64
                            x       y       z     vdW  Elec       q    Type
                         _______ _______ _______ _____ _____    ______ ____

>  <TORSDO>
F 13

$$$$
=
 OpenBabel11062422363D

 67 72  0  0  1  0  0  0  0  0999 V2000
  192.1020  175.2950  145.6630 C   0  0  1  0  0  3  0  0  0  0  0  0
  191.8900  172.3990  138.4360 C   0  0  0  0  0  2  0  0  0  0  0  0
  193.3050  169.5870  137.5020 F   0  0  0  0  0  0  0  0  0  0  0  0
  194.3650  172.6290  144.1210 C   0  0  0  0  0  3  0  0  0  0  0  0
  191.4050  175.7880  144.4320 C   0  0  0  0  0  0  0  0  0  0  0  0
  190.3180  171.0220  141.2300 F   0  0  0  0  0  0  0  0  0  0  0  0
  190.1400  171.8440  140.1270 C   0  0  0  0  0  0  0  0  0  0  0  0
  194.7500  171.6870  143.0570 C   0  0  0  0  0  0  0  0  0  0  0  0
  187.4890  173.9320  142.0400 C   0  0  0  0  0  2  0  0  0  0  0  0
  195.6540  170.0860  140.8970 C   0  0  0  0  0  0  0  0  0  0  0  0
  187.7020  175.2050  141.3250 N   0  0  0  0  0  0  0  0  0  0  0  0
  188.4890  172.8960  141.6300 C   0  0  0  0  0  3  0  0  0  0  0  0
  196.0760  171.1410  143.0560 C   0  0  0  0  0  0  0  0  0  0  0  0
  189.6150  171.0650  139.0940 F   0  0  0  0  0  0  0  0  0  0  0  0
  195.2480  169.0060  138.7480 C   0  0  0  0  0  0  0  0  0  0  0  0
  194.3720  170.6740  140.8530 C   0  0  0  0  0  0  0  0  0  0  0  0
  192.5570  171.4670  139.3940 N   0  0  0  0  0  0  0  0  0  0  0  0
  196.0720  169.2600  139.8440 C   0  0  0  0  0  3  0  0  0  0  0  0
  188.8200  174.0540  139.5070 C   0  0  0  0  0  0  0  0  0  0  0  0
  189.9600  176.0580  144.4860 C   0  0  0  0  0  0  0  0  0  0  0  0
  193.2470  174.3250  145.4080 C   0  0  0  0  0  0  0  0  0  0  0  0
  193.6050  170.5440  139.6720 C   0  0  0  0  0  0  0  0  0  0  0  0
  191.5140  172.4680  139.7550 C   0  0  1  0  0  0  0  0  0  0  0  0
  187.8190  176.6340  143.3290 C   0  0  1  0  0  3  0  0  0  0  0  0
  197.9410  169.8680  141.9330 C   0  0  0  0  0  1  0  0  0  0  0  0
  189.3220  175.8350  145.5590 O   0  0  0  0  0  0  0  0  0  0  0  0
  193.2940  173.4270  144.2300 C   0  0  0  0  0  3  0  0  0  0  0  0
  188.1510  175.1430  139.9550 C   0  0  0  0  0  3  0  0  0  0  0  0
  192.0660  176.0280  143.3770 O   0  0  0  0  0  0  0  0  0  0  0  0
  192.0860  173.6610  140.5080 C   0  0  0  0  0  1  0  0  0  0  0  0
  189.1100  172.9210  140.4430 C   0  0  0  0  0  0  0  0  0  0  0  0
  187.2150  176.4470  141.9370 C   0  0  1  0  0  3  0  0  0  0  0  0
  194.1950  174.2820  146.2510 O   0  0  0  0  0  0  0  0  0  0  0  0
  193.9390  171.4800  141.9330 C   0  0  0  0  0  3  0  0  0  0  0  0
  194.0080  169.6540  138.6630 C   0  0  0  0  0  0  0  0  0  0  0  0
  189.2750  176.6000  143.3600 N   0  0  0  0  0  2  0  0  0  0  0  0
  196.4930  170.3180  141.9960 C   0  0  0  0  0  0  0  0  0  0  0  0
  187.4330  177.6740  141.0660 C   0  0  0  0  0  1  0  0  0  0  0  0
  187.2280  177.7400  144.1770 C   0  0  0  0  0  0  0  0  0  0  0  0
  188.2000  178.2220  146.2890 O   0  0  0  0  0  1  0  0  0  0  0  0
  187.1750  177.6430  145.6030 N   0  0  0  0  0  0  0  0  0  0  0  0
  186.6570  178.6950  143.5970 O   0  0  0  0  0  0  0  0  0  0  0  0
  186.4430  176.3460  147.5790 C   0  0  0  0  0  1  0  0  0  0  0  0
  185.2000  176.1200  145.4970 C   0  0  0  0  0  1  0  0  0  0  0  0
  185.9960  177.1120  146.3390 C   0  0  0  0  0  0  0  0  0  0  0  0
  183.8180  178.0030  146.8470 O   0  0  0  0  0  0  0  0  0  0  0  0
  185.0540  178.2170  146.7820 C   0  0  0  0  0  0  0  0  0  0  0  0
  185.5590  179.4880  147.0880 O   0  0  0  0  0  0  0  0  0  0  0  0
  186.2380  179.7760  148.2990 C   0  0  0  0  0  1  0  0  0  0  0  0
  188.6010  174.8240  137.1270 C   0  0  0  0  0  2  0  0  0  0  0  0
  188.6090  173.2930  137.0130 C   0  0  2  0  0  3  0  0  0  0  0  0
  189.4070  173.9780  138.1140 C   0  0  2  0  0  3  0  0  0  0  0  0
  189.5670  172.8470  135.9190 C   0  0  0  0  0  0  0  0  0  0  0  0
  189.2350  171.9140  135.1340 O   0  0  0  0  0  0  0  0  0  0  0  0
  190.8500  173.5080  135.7670 N   0  0  0  0  0  2  0  0  0  0  0  0
  191.6580  173.4240  134.5560 C   0  0  0  0  0  2  0  0  0  0  0  0
  192.9570  172.6490  134.8270 C   0  0  0  0  0  2  0  0  0  0  0  0
  192.7860  171.1440  134.6560 C   0  0  0  0  0  1  0  0  0  0  0  0
  196.3340  168.6540  136.5570 C   0  0  0  0  0  1  0  0  0  0  0  0
  195.6660  168.1660  137.7070 O   0  0  0  0  0  0  0  0  0  0  0  0
  192.5450  176.4820  146.5250 C   0  0  0  0  0  2  0  0  0  0  0  0
  191.8430  176.4410  147.8440 C   0  0  0  0  0  0  0  0  0  0  0  0
  191.4340  175.3460  148.3040 O   0  0  0  0  0  0  0  0  0  0  0  0
  191.6080  177.6430  148.5630 N   0  0  0  0  0  1  0  0  0  0  0  0
  197.0480  171.4140  144.0530 O   0  0  0  0  0  0  0  0  0  0  0  0
  196.9050  170.3470  145.9310 C   0  0  0  0  0  1  0  0  0  0  0  0
  197.6720  170.4570  144.7590 O   0  0  0  0  0  0  0  0  0  0  0  0
  1 61  1  6  0  0  0
  2 17  1  0  0  0  0
  2 23  1  0  0  0  0
  3 35  1  0  0  0  0
  4 27  2  0  0  0  0
  5 20  1  0  0  0  0
  5  1  1  0  0  0  0
  7 31  1  0  0  0  0
  7  6  1  0  0  0  0
  8  4  1  0  0  0  0
 10 37  1  0  0  0  0
 11 32  1  0  0  0  0
 11  9  1  0  0  0  0
 12  9  1  0  0  0  0
 13  8  1  0  0  0  0
 13 65  1  0  0  0  0
 14  7  1  0  0  0  0
 15 18  1  0  0  0  0
 16 10  1  0  0  0  0
 16 34  1  0  0  0  0
 17 22  1  0  0  0  0
 17 23  1  0  0  0  0
 18 10  2  0  0  0  0
 19 28  2  0  0  0  0
 19 31  1  0  0  0  0
 20 26  2  0  0  0  0
 21  1  1  0  0  0  0
 21 33  2  0  0  0  0
 22 16  2  0  0  0  0
 23  7  1  0  0  0  0
 23 30  1  1  0  0  0
 24 36  1  0  0  0  0
 24 39  1  6  0  0  0
 25 37  1  0  0  0  0
 27 21  1  0  0  0  0
 28 11  1  0  0  0  0
 29  5  2  0  0  0  0
 31 12  2  0  0  0  0
 32 38  1  6  0  0  0
 32 24  1  0  0  0  0
 34  8  2  0  0  0  0
 35 15  2  0  0  0  0
 35 22  1  0  0  0  0
 36 20  1  0  0  0  0
 37 13  2  0  0  0  0
 39 41  1  0  0  0  0
 41 40  1  0  0  0  0
 41 45  1  0  0  0  0
 42 39  2  0  0  0  0
 44 45  1  0  0  0  0
 45 47  1  0  0  0  0
 45 43  1  0  0  0  0
 47 46  2  0  0  0  0
 47 48  1  0  0  0  0
 48 49  1  0  0  0  0
 50 52  1  0  0  0  0
 51 53  1  6  0  0  0
 51 50  1  0  0  0  0
 51 52  1  0  0  0  0
 52 19  1  1  0  0  0
 54 53  2  0  0  0  0
 55 53  1  0  0  0  0
 56 57  1  0  0  0  0
 56 55  1  0  0  0  0
 58 57  1  0  0  0  0
 59 60  1  0  0  0  0
 60 15  1  0  0  0  0
 61 62  1  0  0  0  0
 62 63  2  0  0  0  0
 62 64  1  0  0  0  0
 65 67  1  0  0  0  0
 67 66  1  0  0  0  0
M  END
>  <MODEL>
2

>  <REMARK>
 VINA RESULT:      -5.3      2.592     11.468
  Name = 
  13 active torsions:
  status: ('A' for Active; 'I' for Inactive)
    1  A    between atoms: C_1  and  C_32
    2  A    between atoms: C_4  and  C_46
    3  A    between atoms: C_6  and  C_53
    4  A    between atoms: O_15  and  C_57
    5  A    between atoms: C_16  and  C_37
    6  A    between atoms: C_19  and  C_32
    7  A    between atoms: C_20  and  O_34
    8  A    between atoms: C_22  and  O_26
    9  A    between atoms: C_28  and  C_58
   10  A    between atoms: O_34  and  O_47
   11  A    between atoms: C_46  and  N_66
   12  A    between atoms: N_54  and  C_64
   13  A    between atoms: C_57  and  C_64
                            x       y       z     vdW  Elec       q    Type
                         _______ _______ _______ _____ _____    ______ ____

>  <TORSDO>
F 13

$$$$
=
 OpenBabel11062422363D

 67 72  0  0  1  0  0  0  0  0999 V2000
  192.2080  174.9420  145.9740 C   0  0  1  0  0  3  0  0  0  0  0  0
  191.8990  172.4080  138.6150 C   0  0  0  0  0  2  0  0  0  0  0  0
  193.2670  169.6270  137.5330 F   0  0  0  0  0  0  0  0  0  0  0  0
  194.4210  172.3250  144.2840 C   0  0  0  0  0  3  0  0  0  0  0  0
  191.5080  175.5040  144.7750 C   0  0  0  0  0  0  0  0  0  0  0  0
  190.3300  170.9170  141.3520 F   0  0  0  0  0  0  0  0  0  0  0  0
  190.1540  171.7950  140.2920 C   0  0  0  0  0  0  0  0  0  0  0  0
  194.7840  171.4320  143.1720 C   0  0  0  0  0  0  0  0  0  0  0  0
  187.5470  173.8210  142.3280 C   0  0  0  0  0  2  0  0  0  0  0  0
  195.6500  169.9270  140.9280 C   0  0  0  0  0  0  0  0  0  0  0  0
  187.7730  175.1250  141.6750 N   0  0  0  0  0  0  0  0  0  0  0  0
  188.5310  172.7930  141.8590 C   0  0  0  0  0  3  0  0  0  0  0  0
  196.1030  170.8680  143.1320 C   0  0  0  0  0  0  0  0  0  0  0  0
  189.6110  171.0740  139.2270 F   0  0  0  0  0  0  0  0  0  0  0  0
  195.2120  168.9600  138.7330 C   0  0  0  0  0  0  0  0  0  0  0  0
  194.3750  170.5330  140.9240 C   0  0  0  0  0  0  0  0  0  0  0  0
  192.5600  171.4220  139.5210 N   0  0  0  0  0  0  0  0  0  0  0  0
  196.0480  169.1480  139.8320 C   0  0  0  0  0  3  0  0  0  0  0  0
  188.8600  174.0500  139.7930 C   0  0  0  0  0  0  0  0  0  0  0  0
  190.0670  175.7910  144.8540 C   0  0  0  0  0  0  0  0  0  0  0  0
  193.3370  173.9710  145.6620 C   0  0  0  0  0  0  0  0  0  0  0  0
  193.5970  170.4720  139.7450 C   0  0  0  0  0  0  0  0  0  0  0  0
  191.5340  172.4170  139.9400 C   0  0  1  0  0  0  0  0  0  0  0  0
  187.9250  176.4520  143.7460 C   0  0  1  0  0  3  0  0  0  0  0  0
  197.9410  169.6270  141.9330 C   0  0  0  0  0  1  0  0  0  0  0  0
  189.4350  175.5240  145.9200 O   0  0  0  0  0  0  0  0  0  0  0  0
  193.3630  173.1310  144.4410 C   0  0  0  0  0  3  0  0  0  0  0  0
  188.2100  175.1250  140.2990 C   0  0  0  0  0  3  0  0  0  0  0  0
  192.1630  175.7880  143.7270 O   0  0  0  0  0  0  0  0  0  0  0  0
  192.1280  173.5640  140.7460 C   0  0  0  0  0  1  0  0  0  0  0  0
  189.1420  172.8680  140.6700 C   0  0  0  0  0  0  0  0  0  0  0  0
  187.3070  176.3420  142.3510 C   0  0  1  0  0  3  0  0  0  0  0  0
  194.2910  173.8730  146.4940 O   0  0  0  0  0  0  0  0  0  0  0  0
  193.9620  171.2910  142.0460 C   0  0  0  0  0  3  0  0  0  0  0  0
  193.9800  169.6270  138.6900 C   0  0  0  0  0  0  0  0  0  0  0  0
  189.3800  176.3970  143.7620 N   0  0  0  0  0  2  0  0  0  0  0  0
  196.5010  170.0930  142.0300 C   0  0  0  0  0  0  0  0  0  0  0  0
  187.5360  177.6070  141.5390 C   0  0  0  0  0  1  0  0  0  0  0  0
  187.3560  177.5220  144.6510 C   0  0  0  0  0  0  0  0  0  0  0  0
  185.4020  177.0500  145.9140 O   0  0  0  0  0  1  0  0  0  0  0  0
  185.9460  177.6760  144.8340 N   0  0  0  0  0  0  0  0  0  0  0  0
  188.1430  178.3680  145.1410 O   0  0  0  0  0  0  0  0  0  0  0  0
  185.9260  179.8420  143.6380 C   0  0  0  0  0  1  0  0  0  0  0  0
  183.9120  179.1230  144.8020 C   0  0  0  0  0  1  0  0  0  0  0  0
  185.1180  178.6090  144.0230 C   0  0  0  0  0  0  0  0  0  0  0  0
  184.5260  176.7100  142.6650 O   0  0  0  0  0  0  0  0  0  0  0  0
  184.6110  177.9600  142.7460 C   0  0  0  0  0  0  0  0  0  0  0  0
  184.2700  178.7550  141.6440 O   0  0  0  0  0  0  0  0  0  0  0  0
  183.9010  178.2120  140.3870 C   0  0  0  0  0  1  0  0  0  0  0  0
  188.6300  174.9350  137.4540 C   0  0  0  0  0  2  0  0  0  0  0  0
  188.6220  173.4100  137.2680 C   0  0  2  0  0  3  0  0  0  0  0  0
  189.4350  174.0350  138.3930 C   0  0  2  0  0  3  0  0  0  0  0  0
  189.5660  173.0080  136.1460 C   0  0  0  0  0  0  0  0  0  0  0  0
  190.1890  173.8980  135.4990 O   0  0  0  0  0  0  0  0  0  0  0  0
  189.7640  171.6060  135.8340 N   0  0  0  0  0  2  0  0  0  0  0  0
  190.8970  171.1060  135.0610 C   0  0  0  0  0  2  0  0  0  0  0  0
  191.1070  169.6060  135.3210 C   0  0  0  0  0  2  0  0  0  0  0  0
  190.5600  169.1650  136.6740 C   0  0  0  0  0  1  0  0  0  0  0  0
  196.1300  168.7180  136.4520 C   0  0  0  0  0  1  0  0  0  0  0  0
  195.6100  168.1660  137.6480 O   0  0  0  0  0  0  0  0  0  0  0  0
  192.6730  176.0790  146.8890 C   0  0  0  0  0  2  0  0  0  0  0  0
  191.7710  176.1770  148.0770 C   0  0  0  0  0  0  0  0  0  0  0  0
  191.1740  175.1560  148.4980 O   0  0  0  0  0  0  0  0  0  0  0  0
  191.5600  177.4320  148.7090 N   0  0  0  0  0  1  0  0  0  0  0  0
  197.0860  171.0800  144.1340 O   0  0  0  0  0  0  0  0  0  0  0  0
  196.6170  170.4580  146.1530 C   0  0  0  0  0  1  0  0  0  0  0  0
  197.4240  170.1530  145.0450 O   0  0  0  0  0  0  0  0  0  0  0  0
  1 61  1  6  0  0  0
  2 17  1  0  0  0  0
  2 23  1  0  0  0  0
  3 35  1  0  0  0  0
  4 27  2  0  0  0  0
  5 20  1  0  0  0  0
  5  1  1  0  0  0  0
  7 31  1  0  0  0  0
  7  6  1  0  0  0  0
  8  4  1  0  0  0  0
 10 37  1  0  0  0  0
 11  9  1  0  0  0  0
 11 32  1  0  0  0  0
 12  9  1  0  0  0  0
 13  8  1  0  0  0  0
 13 65  1  0  0  0  0
 14  7  1  0  0  0  0
 15 18  1  0  0  0  0
 16 10  1  0  0  0  0
 16 34  1  0  0  0  0
 17 22  1  0  0  0  0
 17 23  1  0  0  0  0
 18 10  2  0  0  0  0
 19 28  2  0  0  0  0
 19 31  1  0  0  0  0
 20 26  2  0  0  0  0
 21  1  1  0  0  0  0
 21 33  2  0  0  0  0
 22 16  2  0  0  0  0
 23  7  1  0  0  0  0
 23 30  1  1  0  0  0
 24 36  1  0  0  0  0
 24 39  1  6  0  0  0
 25 37  1  0  0  0  0
 27 21  1  0  0  0  0
 28 11  1  0  0  0  0
 29  5  2  0  0  0  0
 31 12  2  0  0  0  0
 32 38  1  6  0  0  0
 32 24  1  0  0  0  0
 34  8  2  0  0  0  0
 35 15  2  0  0  0  0
 35 22  1  0  0  0  0
 36 20  1  0  0  0  0
 37 13  2  0  0  0  0
 39 41  1  0  0  0  0
 39 42  2  0  0  0  0
 41 40  1  0  0  0  0
 43 45  1  0  0  0  0
 45 44  1  0  0  0  0
 45 41  1  0  0  0  0
 46 47  2  0  0  0  0
 47 45  1  0  0  0  0
 48 47  1  0  0  0  0
 49 48  1  0  0  0  0
 50 52  1  0  0  0  0
 51 53  1  6  0  0  0
 51 50  1  0  0  0  0
 51 52  1  0  0  0  0
 52 19  1  1  0  0  0
 54 53  2  0  0  0  0
 55 53  1  0  0  0  0
 56 57  1  0  0  0  0
 56 55  1  0  0  0  0
 57 58  1  0  0  0  0
 59 60  1  0  0  0  0
 60 15  1  0  0  0  0
 61 62  1  0  0  0  0
 62 63  2  0  0  0  0
 62 64  1  0  0  0  0
 65 67  1  0  0  0  0
 67 66  1  0  0  0  0
M  END
>  <MODEL>
3

>  <REMARK>
 VINA RESULT:      -5.2      2.543     11.351
  Name = 
  13 active torsions:
  status: ('A' for Active; 'I' for Inactive)
    1  A    between atoms: C_1  and  C_32
    2  A    between atoms: C_4  and  C_46
    3  A    between atoms: C_6  and  C_53
    4  A    between atoms: O_15  and  C_57
    5  A    between atoms: C_16  and  C_37
    6  A    between atoms: C_19  and  C_32
    7  A    between atoms: C_20  and  O_34
    8  A    between atoms: C_22  and  O_26
    9  A    between atoms: C_28  and  C_58
   10  A    between atoms: O_34  and  O_47
   11  A    between atoms: C_46  and  N_66
   12  A    between atoms: N_54  and  C_64
   13  A    between atoms: C_57  and  C_64
                            x       y       z     vdW  Elec       q    Type
                         _______ _______ _______ _____ _____    ______ ____

>  <TORSDO>
F 13

$$$$
=
 OpenBabel11062422363D

 67 72  0  0  1  0  0  0  0  0999 V2000
  188.3750  175.5440  141.4040 C   0  0  1  0  0  3  0  0  0  0  0  0
  194.7860  171.1540  141.9380 C   0  0  0  0  0  2  0  0  0  0  0  0
  196.6040  170.1740  139.3860 F   0  0  0  0  0  0  0  0  0  0  0  0
  190.0970  173.5350  138.6460 C   0  0  0  0  0  3  0  0  0  0  0  0
  189.1010  175.0150  142.6030 C   0  0  0  0  0  0  0  0  0  0  0  0
  194.6840  174.5010  140.9580 F   0  0  0  0  0  0  0  0  0  0  0  0
  194.8880  173.6460  142.0320 C   0  0  0  0  0  0  0  0  0  0  0  0
  191.2010  172.7290  138.1030 C   0  0  0  0  0  0  0  0  0  0  0  0
  193.4930  176.3060  144.4860 C   0  0  0  0  0  2  0  0  0  0  0  0
  193.1840  170.9390  137.1470 C   0  0  0  0  0  0  0  0  0  0  0  0
  192.9900  175.3710  145.5100 N   0  0  0  0  0  0  0  0  0  0  0  0
  193.9940  175.5810  143.2750 C   0  0  0  0  0  3  0  0  0  0  0  0
  190.9880  171.9710  136.9040 C   0  0  0  0  0  0  0  0  0  0  0  0
  196.2610  173.4270  142.1490 F   0  0  0  0  0  0  0  0  0  0  0  0
  195.3850  169.9100  137.3580 C   0  0  0  0  0  0  0  0  0  0  0  0
  193.3800  171.6250  138.3640 C   0  0  0  0  0  0  0  0  0  0  0  0
  194.5310  171.6060  140.5380 N   0  0  0  0  0  0  0  0  0  0  0  0
  194.1920  170.0930  136.6620 C   0  0  0  0  0  3  0  0  0  0  0  0
  194.3730  173.5850  144.6280 C   0  0  0  0  0  0  0  0  0  0  0  0
  189.5180  175.9500  143.6600 C   0  0  0  0  0  0  0  0  0  0  0  0
  188.6750  174.8200  140.1000 C   0  0  0  0  0  0  0  0  0  0  0  0
  194.5180  171.3170  139.1430 C   0  0  0  0  0  0  0  0  0  0  0  0
  194.1020  172.3320  141.7650 C   0  0  1  0  0  0  0  0  0  0  0  0
  190.7720  176.4100  145.7740 C   0  0  1  0  0  3  0  0  0  0  0  0
  191.7030  170.2170  135.2400 C   0  0  0  0  0  1  0  0  0  0  0  0
  189.2910  177.1890  143.5220 O   0  0  0  0  0  0  0  0  0  0  0  0
  189.9680  174.1440  139.8320 C   0  0  0  0  0  3  0  0  0  0  0  0
  193.6690  174.1060  145.6610 C   0  0  0  0  0  3  0  0  0  0  0  0
  189.2950  173.7690  142.7330 O   0  0  0  0  0  0  0  0  0  0  0  0
  192.6030  172.2280  142.0110 C   0  0  0  0  0  1  0  0  0  0  0  0
  194.4290  174.3150  143.3210 C   0  0  0  0  0  0  0  0  0  0  0  0
  192.0060  175.8550  146.4860 C   0  0  1  0  0  3  0  0  0  0  0  0
  187.7780  174.8050  139.2020 O   0  0  0  0  0  0  0  0  0  0  0  0
  192.3760  172.5060  138.8350 C   0  0  0  0  0  3  0  0  0  0  0  0
  195.5470  170.5260  138.6070 C   0  0  0  0  0  0  0  0  0  0  0  0
  190.1420  175.4760  144.8500 N   0  0  0  0  0  2  0  0  0  0  0  0
  191.9960  171.1200  136.4240 C   0  0  0  0  0  0  0  0  0  0  0  0
  191.6270  174.8140  147.5260 C   0  0  0  0  0  1  0  0  0  0  0  0
  189.7790  177.1620  146.6340 C   0  0  0  0  0  0  0  0  0  0  0  0
  188.1730  175.9400  147.8830 O   0  0  0  0  0  1  0  0  0  0  0  0
  188.4320  176.7100  146.7910 N   0  0  0  0  0  0  0  0  0  0  0  0
  190.1220  178.2730  147.1060 O   0  0  0  0  0  0  0  0  0  0  0  0
  186.6630  176.0130  145.2070 C   0  0  0  0  0  1  0  0  0  0  0  0
  187.7890  178.1410  144.8480 C   0  0  0  0  0  1  0  0  0  0  0  0
  187.3100  177.1850  145.9360 C   0  0  0  0  0  0  0  0  0  0  0  0
  186.5520  178.6290  147.7070 O   0  0  0  0  0  0  0  0  0  0  0  0
  186.2340  177.8900  146.7420 C   0  0  0  0  0  0  0  0  0  0  0  0
  184.8820  177.6920  146.4320 O   0  0  0  0  0  0  0  0  0  0  0  0
  184.0890  178.6720  145.7840 C   0  0  0  0  0  1  0  0  0  0  0  0
  194.2740  171.3010  145.6690 C   0  0  0  0  0  2  0  0  0  0  0  0
  195.6990  171.7810  145.9810 C   0  0  2  0  0  3  0  0  0  0  0  0
  195.0160  172.2150  144.6920 C   0  0  2  0  0  3  0  0  0  0  0  0
  196.7090  170.6910  145.6570 C   0  0  0  0  0  0  0  0  0  0  0  0
  197.0350  169.8520  146.5440 O   0  0  0  0  0  0  0  0  0  0  0  0
  197.2780  170.6050  144.3250 N   0  0  0  0  0  2  0  0  0  0  0  0
  197.9410  169.4110  143.8100 C   0  0  0  0  0  2  0  0  0  0  0  0
  196.9200  168.2880  143.5720 C   0  0  0  0  0  2  0  0  0  0  0  0
  196.5180  168.1660  142.1070 C   0  0  0  0  0  1  0  0  0  0  0  0
  196.7880  169.0870  135.4980 C   0  0  0  0  0  1  0  0  0  0  0  0
  196.3940  169.0740  136.8590 O   0  0  0  0  0  0  0  0  0  0  0  0
  186.8700  175.6040  141.6870 C   0  0  0  0  0  2  0  0  0  0  0  0
  186.3840  177.0120  141.5500 C   0  0  0  0  0  0  0  0  0  0  0  0
  186.9250  177.7860  140.7230 O   0  0  0  0  0  0  0  0  0  0  0  0
  185.3330  177.4850  142.3810 N   0  0  0  0  0  1  0  0  0  0  0  0
  189.7760  171.9820  136.1650 O   0  0  0  0  0  0  0  0  0  0  0  0
  189.3160  173.8280  135.1330 C   0  0  0  0  0  1  0  0  0  0  0  0
  189.6710  172.4850  134.9240 O   0  0  0  0  0  0  0  0  0  0  0  0
  1 61  1  1  0  0  0
  1  5  1  0  0  0  0
  4 27  2  0  0  0  0
  5 29  2  0  0  0  0
  5 20  1  0  0  0  0
  6  7  1  0  0  0  0
  7 14  1  0  0  0  0
  7 31  1  0  0  0  0
  8  4  1  0  0  0  0
  8 34  1  0  0  0  0
  9 11  1  0  0  0  0
 10 16  1  0  0  0  0
 11 28  1  0  0  0  0
 11 32  1  0  0  0  0
 12 31  2  0  0  0  0
 12  9  1  0  0  0  0
 13  8  2  0  0  0  0
 15 35  1  0  0  0  0
 16 34  2  0  0  0  0
 16 22  1  0  0  0  0
 17 23  1  0  0  0  0
 17  2  1  0  0  0  0
 18 10  1  0  0  0  0
 18 15  2  0  0  0  0
 19 28  2  0  0  0  0
 20 36  1  0  0  0  0
 21  1  1  0  0  0  0
 22 17  1  0  0  0  0
 23  2  1  0  0  0  0
 23 30  1  1  0  0  0
 23  7  1  0  0  0  0
 24 32  1  0  0  0  0
 24 39  1  1  0  0  0
 25 37  1  0  0  0  0
 26 20  2  0  0  0  0
 27 21  1  0  0  0  0
 31 19  1  0  0  0  0
 32 38  1  1  0  0  0
 33 21  2  0  0  0  0
 35 22  2  0  0  0  0
 35  3  1  0  0  0  0
 36 24  1  0  0  0  0
 37 13  1  0  0  0  0
 37 10  2  0  0  0  0
 39 41  1  0  0  0  0
 39 42  2  0  0  0  0
 41 40  1  0  0  0  0
 43 45  1  0  0  0  0
 44 45  1  0  0  0  0
 45 47  1  0  0  0  0
 45 41  1  0  0  0  0
 47 46  2  0  0  0  0
 48 47  1  0  0  0  0
 49 48  1  0  0  0  0
 50 51  1  0  0  0  0
 51 53  1  6  0  0  0
 52 19  1  1  0  0  0
 52 50  1  0  0  0  0
 52 51  1  0  0  0  0
 53 54  2  0  0  0  0
 55 53  1  0  0  0  0
 56 55  1  0  0  0  0
 57 56  1  0  0  0  0
 58 57  1  0  0  0  0
 59 60  1  0  0  0  0
 60 15  1  0  0  0  0
 62 61  1  0  0  0  0
 62 64  1  0  0  0  0
 63 62  2  0  0  0  0
 65 13  1  0  0  0  0
 67 66  1  0  0  0  0
 67 65  1  0  0  0  0
M  END
>  <MODEL>
4

>  <REMARK>
 VINA RESULT:      -5.2      2.756      9.466
  Name = 
  13 active torsions:
  status: ('A' for Active; 'I' for Inactive)
    1  A    between atoms: C_1  and  C_32
    2  A    between atoms: C_4  and  C_46
    3  A    between atoms: C_6  and  C_53
    4  A    between atoms: O_15  and  C_57
    5  A    between atoms: C_16  and  C_37
    6  A    between atoms: C_19  and  C_32
    7  A    between atoms: C_20  and  O_34
    8  A    between atoms: C_22  and  O_26
    9  A    between atoms: C_28  and  C_58
   10  A    between atoms: O_34  and  O_47
   11  A    between atoms: C_46  and  N_66
   12  A    between atoms: N_54  and  C_64
   13  A    between atoms: C_57  and  C_64
                            x       y       z     vdW  Elec       q    Type
                         _______ _______ _______ _____ _____    ______ ____

>  <TORSDO>
F 13

$$$$
=
 OpenBabel11062422363D

 67 72  0  0  1  0  0  0  0  0999 V2000
  193.0780  174.1110  145.4730 C   0  0  1  0  0  3  0  0  0  0  0  0
  191.5050  172.5350  138.0090 C   0  0  0  0  0  2  0  0  0  0  0  0
  192.4510  169.8180  136.4280 F   0  0  0  0  0  0  0  0  0  0  0  0
  194.7860  171.5690  143.1860 C   0  0  0  0  0  3  0  0  0  0  0  0
  192.2690  174.8660  144.4630 C   0  0  0  0  0  0  0  0  0  0  0  0
  190.2110  170.8340  140.7680 F   0  0  0  0  0  0  0  0  0  0  0  0
  189.9670  171.8470  139.8510 C   0  0  0  0  0  0  0  0  0  0  0  0
  194.9070  170.7960  141.9390 C   0  0  0  0  0  0  0  0  0  0  0  0
  187.8670  173.7900  142.4710 C   0  0  0  0  0  2  0  0  0  0  0  0
  195.3070  169.5220  139.4370 C   0  0  0  0  0  0  0  0  0  0  0  0
  188.1140  175.1440  141.9410 N   0  0  0  0  0  0  0  0  0  0  0  0
  188.6780  172.7580  141.7470 C   0  0  0  0  0  3  0  0  0  0  0  0
  196.1500  170.1480  141.6380 C   0  0  0  0  0  0  0  0  0  0  0  0
  189.2160  171.3050  138.8070 F   0  0  0  0  0  0  0  0  0  0  0  0
  194.4770  168.8680  137.2380 C   0  0  0  0  0  0  0  0  0  0  0  0
  194.1040  170.2150  139.6930 C   0  0  0  0  0  0  0  0  0  0  0  0
  192.1960  171.3990  138.6890 N   0  0  0  0  0  0  0  0  0  0  0  0
  195.4740  168.8580  138.2130 C   0  0  0  0  0  3  0  0  0  0  0  0
  188.8230  174.2340  139.8080 C   0  0  0  0  0  0  0  0  0  0  0  0
  190.8850  175.2440  144.7910 C   0  0  0  0  0  0  0  0  0  0  0  0
  194.0600  173.1070  144.8870 C   0  0  0  0  0  0  0  0  0  0  0  0
  193.1650  170.3560  138.6460 C   0  0  0  0  0  0  0  0  0  0  0  0
  191.3330  172.4060  139.3660 C   0  0  1  0  0  0  0  0  0  0  0  0
  188.6760  176.1910  144.1000 C   0  0  1  0  0  3  0  0  0  0  0  0
  197.6810  168.9350  140.0440 C   0  0  0  0  0  1  0  0  0  0  0  0
  190.3890  174.8940  145.9040 O   0  0  0  0  0  0  0  0  0  0  0  0
  193.8370  172.4240  143.5900 C   0  0  0  0  0  3  0  0  0  0  0  0
  188.3500  175.2820  140.5240 C   0  0  0  0  0  3  0  0  0  0  0  0
  192.7920  175.2280  143.3670 O   0  0  0  0  0  0  0  0  0  0  0  0
  192.1360  173.3990  140.1960 C   0  0  0  0  0  1  0  0  0  0  0  0
  189.1190  172.9360  140.4950 C   0  0  0  0  0  0  0  0  0  0  0  0
  187.8600  176.2990  142.8110 C   0  0  1  0  0  3  0  0  0  0  0  0
  195.1090  172.8380  145.5490 O   0  0  0  0  0  0  0  0  0  0  0  0
  193.9240  170.8560  140.9420 C   0  0  0  0  0  3  0  0  0  0  0  0
  193.3170  169.6230  137.4580 C   0  0  0  0  0  0  0  0  0  0  0  0
  190.1080  176.0280  143.8900 N   0  0  0  0  0  2  0  0  0  0  0  0
  196.3170  169.4880  140.4090 C   0  0  0  0  0  0  0  0  0  0  0  0
  188.0840  177.6340  142.1210 C   0  0  0  0  0  1  0  0  0  0  0  0
  188.3400  177.1790  145.1950 C   0  0  0  0  0  0  0  0  0  0  0  0
  187.0450  176.4550  147.0480 O   0  0  0  0  0  1  0  0  0  0  0  0
  187.0820  177.1440  145.8740 N   0  0  0  0  0  0  0  0  0  0  0  0
  189.1360  178.1250  145.4090 O   0  0  0  0  0  0  0  0  0  0  0  0
  186.3280  179.3870  145.1520 C   0  0  0  0  0  1  0  0  0  0  0  0
  184.8570  178.0480  146.5540 C   0  0  0  0  0  1  0  0  0  0  0  0
  185.9070  177.9540  145.4530 C   0  0  0  0  0  0  0  0  0  0  0  0
  185.2210  176.1490  144.0140 O   0  0  0  0  0  0  0  0  0  0  0  0
  185.2380  177.3890  144.2120 C   0  0  0  0  0  0  0  0  0  0  0  0
  184.6680  178.2530  143.2680 O   0  0  0  0  0  0  0  0  0  0  0  0
  184.5940  177.9430  141.8860 C   0  0  0  0  0  1  0  0  0  0  0  0
  188.0940  175.0660  137.5540 C   0  0  0  0  0  2  0  0  0  0  0  0
  188.3790  173.5760  137.3160 C   0  0  2  0  0  3  0  0  0  0  0  0
  189.1900  174.3510  138.3440 C   0  0  2  0  0  3  0  0  0  0  0  0
  189.2230  173.3910  136.0650 C   0  0  0  0  0  0  0  0  0  0  0  0
  188.9120  172.5000  135.2220 O   0  0  0  0  0  0  0  0  0  0  0  0
  190.3680  174.2490  135.8310 N   0  0  0  0  0  2  0  0  0  0  0  0
  191.0000  174.4080  134.5250 C   0  0  0  0  0  2  0  0  0  0  0  0
  192.0560  175.5240  134.5700 C   0  0  0  0  0  2  0  0  0  0  0  0
  191.4540  176.8860  134.8940 C   0  0  0  0  0  1  0  0  0  0  0  0
  195.1190  168.8280  134.8530 C   0  0  0  0  0  1  0  0  0  0  0  0
  194.6460  168.1870  136.0240 O   0  0  0  0  0  0  0  0  0  0  0  0
  193.7690  175.0890  146.4280 C   0  0  0  0  0  2  0  0  0  0  0  0
  194.5480  176.0970  145.6460 C   0  0  0  0  0  0  0  0  0  0  0  0
  194.0600  177.2320  145.4220 O   0  0  0  0  0  0  0  0  0  0  0  0
  195.8270  175.7610  145.1270 N   0  0  0  0  0  1  0  0  0  0  0  0
  197.2800  170.1620  142.4970 O   0  0  0  0  0  0  0  0  0  0  0  0
  197.4560  170.2420  144.6520 C   0  0  0  0  0  1  0  0  0  0  0  0
  197.4370  171.0430  143.4990 O   0  0  0  0  0  0  0  0  0  0  0  0
  1 61  1  6  0  0  0
  2 17  1  0  0  0  0
  2 23  1  0  0  0  0
  3 35  1  0  0  0  0
  4 27  2  0  0  0  0
  5 20  1  0  0  0  0
  5  1  1  0  0  0  0
  7 31  1  0  0  0  0
  7  6  1  0  0  0  0
  8  4  1  0  0  0  0
 10 16  1  0  0  0  0
 10 37  1  0  0  0  0
 11  9  1  0  0  0  0
 11 32  1  0  0  0  0
 12  9  1  0  0  0  0
 13  8  1  0  0  0  0
 13 65  1  0  0  0  0
 14  7  1  0  0  0  0
 15 35  2  0  0  0  0
 15 18  1  0  0  0  0
 16 34  1  0  0  0  0
 17 23  1  0  0  0  0
 18 10  2  0  0  0  0
 19 31  1  0  0  0  0
 19 28  2  0  0  0  0
 20 26  2  0  0  0  0
 21  1  1  0  0  0  0
 21 33  2  0  0  0  0
 22 17  1  0  0  0  0
 22 16  2  0  0  0  0
 23  7  1  0  0  0  0
 23 30  1  1  0  0  0
 24 39  1  1  0  0  0
 25 37  1  0  0  0  0
 27 21  1  0  0  0  0
 28 11  1  0  0  0  0
 29  5  2  0  0  0  0
 31 12  2  0  0  0  0
 32 38  1  6  0  0  0
 32 24  1  0  0  0  0
 34  8  2  0  0  0  0
 35 22  1  0  0  0  0
 36 24  1  0  0  0  0
 36 20  1  0  0  0  0
 37 13  2  0  0  0  0
 39 42  2  0  0  0  0
 39 41  1  0  0  0  0
 41 40  1  0  0  0  0
 43 45  1  0  0  0  0
 45 41  1  0  0  0  0
 45 44  1  0  0  0  0
 46 47  2  0  0  0  0
 47 45  1  0  0  0  0
 48 47  1  0  0  0  0
 49 48  1  0  0  0  0
 50 52  1  0  0  0  0
 51 53  1  6  0  0  0
 51 50  1  0  0  0  0
 51 52  1  0  0  0  0
 52 19  1  1  0  0  0
 54 53  2  0  0  0  0
 55 53  1  0  0  0  0
 56 57  1  0  0  0  0
 56 55  1  0  0  0  0
 57 58  1  0  0  0  0
 59 60  1  0  0  0  0
 60 15  1  0  0  0  0
 62 61  1  0  0  0  0
 63 62  2  0  0  0  0
 64 62  1  0  0  0  0
 65 67  1  0  0  0  0
 67 66  1  0  0  0  0
M  END
>  <MODEL>
5

>  <REMARK>
 VINA RESULT:      -4.6      2.759     11.125
  Name = 
  13 active torsions:
  status: ('A' for Active; 'I' for Inactive)
    1  A    between atoms: C_1  and  C_32
    2  A    between atoms: C_4  and  C_46
    3  A    between atoms: C_6  and  C_53
    4  A    between atoms: O_15  and  C_57
    5  A    between atoms: C_16  and  C_37
    6  A    between atoms: C_19  and  C_32
    7  A    between atoms: C_20  and  O_34
    8  A    between atoms: C_22  and  O_26
    9  A    between atoms: C_28  and  C_58
   10  A    between atoms: O_34  and  O_47
   11  A    between atoms: C_46  and  N_66
   12  A    between atoms: N_54  and  C_64
   13  A    between atoms: C_57  and  C_64
                            x       y       z     vdW  Elec       q    Type
                         _______ _______ _______ _____ _____    ______ ____

>  <TORSDO>
F 13

$$$$
=
 OpenBabel11062422363D

 67 72  0  0  1  0  0  0  0  0999 V2000
  188.8380  173.0840  137.1940 C   0  0  1  0  0  3  0  0  0  0  0  0
  191.6580  175.0560  144.1820 C   0  0  0  0  0  2  0  0  0  0  0  0
  189.9030  176.4400  146.5880 F   0  0  0  0  0  0  0  0  0  0  0  0
  187.3270  175.4810  139.7590 C   0  0  0  0  0  3  0  0  0  0  0  0
  190.2000  172.8900  137.7900 C   0  0  0  0  0  0  0  0  0  0  0  0
  189.3480  172.5150  143.5590 F   0  0  0  0  0  0  0  0  0  0  0  0
  190.6950  172.7950  143.7420 C   0  0  0  0  0  0  0  0  0  0  0  0
  187.2600  176.1130  141.0860 C   0  0  0  0  0  0  0  0  0  0  0  0
  191.6810  169.8570  141.4100 C   0  0  0  0  0  2  0  0  0  0  0  0
  187.3020  177.5430  143.5360 C   0  0  0  0  0  0  0  0  0  0  0  0
  192.9640  170.4140  140.9400 N   0  0  0  0  0  0  0  0  0  0  0  0
  190.9320  170.8380  142.2580 C   0  0  0  0  0  3  0  0  0  0  0  0
  186.4820  177.3070  141.2510 C   0  0  0  0  0  0  0  0  0  0  0  0
  190.9960  172.5800  145.0890 F   0  0  0  0  0  0  0  0  0  0  0  0
  188.0930  177.7870  145.8300 C   0  0  0  0  0  0  0  0  0  0  0  0
  188.1250  176.4100  143.3650 C   0  0  0  0  0  0  0  0  0  0  0  0
  190.1820  175.2730  144.0910 N   0  0  0  0  0  0  0  0  0  0  0  0
  187.2980  178.2130  144.7680 C   0  0  0  0  0  3  0  0  0  0  0  0
  193.0260  171.9690  142.8000 C   0  0  0  0  0  0  0  0  0  0  0  0
  190.7890  171.5430  137.8090 C   0  0  0  0  0  0  0  0  0  0  0  0
  187.9900  174.1540  137.8650 C   0  0  0  0  0  0  0  0  0  0  0  0
  189.0450  176.0760  144.3860 C   0  0  0  0  0  0  0  0  0  0  0  0
  190.9520  174.2650  143.3090 C   0  0  1  0  0  0  0  0  0  0  0  0
  192.5970  169.9780  138.5430 C   0  0  1  0  0  3  0  0  0  0  0  0
  185.7760  179.3160  142.6010 C   0  0  0  0  0  1  0  0  0  0  0  0
  190.1230  170.5630  137.3550 O   0  0  0  0  0  0  0  0  0  0  0  0
  188.1310  174.5140  139.2970 C   0  0  0  0  0  3  0  0  0  0  0  0
  193.6870  171.2900  141.8310 C   0  0  0  0  0  3  0  0  0  0  0  0
  190.8580  173.8870  138.2140 O   0  0  0  0  0  0  0  0  0  0  0  0
  191.1060  174.6560  141.8450 C   0  0  0  0  0  1  0  0  0  0  0  0
  191.5420  171.8220  142.9330 C   0  0  0  0  0  0  0  0  0  0  0  0
  193.5670  169.8640  139.7200 C   0  0  1  0  0  3  0  0  0  0  0  0
  187.1180  174.7550  137.1650 O   0  0  0  0  0  0  0  0  0  0  0  0
  188.1030  175.7130  142.1320 C   0  0  0  0  0  3  0  0  0  0  0  0
  188.9720  176.7130  145.6360 C   0  0  0  0  0  0  0  0  0  0  0  0
  192.1110  171.3290  138.2960 N   0  0  0  0  0  2  0  0  0  0  0  0
  186.4840  177.9800  142.4840 C   0  0  0  0  0  0  0  0  0  0  0  0
  194.9190  170.4740  139.3880 C   0  0  0  0  0  1  0  0  0  0  0  0
  192.9810  169.2400  137.2790 C   0  0  0  0  0  0  0  0  0  0  0  0
  195.1380  168.2620  137.1230 O   0  0  0  0  0  1  0  0  0  0  0  0
  194.3140  169.2850  136.7630 N   0  0  0  0  0  0  0  0  0  0  0  0
  192.0730  168.6920  136.6090 O   0  0  0  0  0  0  0  0  0  0  0  0
  193.5600  171.0050  135.1520 C   0  0  0  0  0  1  0  0  0  0  0  0
  195.4570  169.5960  134.5660 C   0  0  0  0  0  1  0  0  0  0  0  0
  194.7590  170.2710  135.7420 C   0  0  0  0  0  0  0  0  0  0  0  0
  196.9340  171.0540  136.4170 O   0  0  0  0  0  0  0  0  0  0  0  0
  195.7070  171.3060  136.3210 C   0  0  0  0  0  0  0  0  0  0  0  0
  195.2100  172.5330  136.7800 O   0  0  0  0  0  0  0  0  0  0  0  0
  196.0480  173.5860  137.2250 C   0  0  0  0  0  1  0  0  0  0  0  0
  195.1270  173.2850  143.1990 C   0  0  0  0  0  2  0  0  0  0  0  0
  194.9080  172.5410  144.5240 C   0  0  2  0  0  3  0  0  0  0  0  0
  193.7120  172.9810  143.6930 C   0  0  2  0  0  3  0  0  0  0  0  0
  195.0650  173.4940  145.6990 C   0  0  0  0  0  0  0  0  0  0  0  0
  196.0230  173.3410  146.5100 O   0  0  0  0  0  0  0  0  0  0  0  0
  194.1260  174.5860  145.8760 N   0  0  0  0  0  2  0  0  0  0  0  0
  194.3930  175.7470  146.7180 C   0  0  0  0  0  2  0  0  0  0  0  0
  195.0720  176.8590  145.9020 C   0  0  0  0  0  2  0  0  0  0  0  0
  194.8290  176.7170  144.4050 C   0  0  0  0  0  1  0  0  0  0  0  0
  187.0020  178.3170  147.9830 C   0  0  0  0  0  1  0  0  0  0  0  0
  188.0710  178.4530  147.0640 O   0  0  0  0  0  0  0  0  0  0  0  0
  188.9560  173.3170  135.6840 C   0  0  0  0  0  2  0  0  0  0  0  0
  190.0600  174.2860  135.4050 C   0  0  0  0  0  0  0  0  0  0  0  0
  189.8790  175.5150  135.5890 O   0  0  0  0  0  0  0  0  0  0  0  0
  191.3030  173.8210  134.8980 N   0  0  0  0  0  1  0  0  0  0  0  0
  185.7200  177.9070  140.2150 O   0  0  0  0  0  0  0  0  0  0  0  0
  183.5830  177.5790  140.3280 C   0  0  0  0  0  1  0  0  0  0  0  0
  184.5730  178.5710  140.4310 O   0  0  0  0  0  0  0  0  0  0  0  0
  1 61  1  6  0  0  0
  1  5  1  0  0  0  0
  1 21  1  0  0  0  0
  4  8  1  0  0  0  0
  5 20  1  0  0  0  0
  5 29  2  0  0  0  0
  6  7  1  0  0  0  0
  7 14  1  0  0  0  0
  8 13  2  0  0  0  0
  8 34  1  0  0  0  0
  9 12  1  0  0  0  0
 10 18  1  0  0  0  0
 11  9  1  0  0  0  0
 11 28  1  0  0  0  0
 12 31  2  0  0  0  0
 13 37  1  0  0  0  0
 15 60  1  0  0  0  0
 16 10  1  0  0  0  0
 16 22  1  0  0  0  0
 17  2  1  0  0  0  0
 17 22  1  0  0  0  0
 18 15  2  0  0  0  0
 19 31  1  0  0  0  0
 20 36  1  0  0  0  0
 21 27  1  0  0  0  0
 22 35  2  0  0  0  0
 23 30  1  6  0  0  0
 23  7  1  0  0  0  0
 23 17  1  0  0  0  0
 23  2  1  0  0  0  0
 24 39  1  6  0  0  0
 24 32  1  0  0  0  0
 26 20  2  0  0  0  0
 27  4  2  0  0  0  0
 28 19  2  0  0  0  0
 31  7  1  0  0  0  0
 32 38  1  6  0  0  0
 32 11  1  0  0  0  0
 33 21  2  0  0  0  0
 34 16  2  0  0  0  0
 35 15  1  0  0  0  0
 35  3  1  0  0  0  0
 36 24  1  0  0  0  0
 37 25  1  0  0  0  0
 37 10  2  0  0  0  0
 41 40  1  0  0  0  0
 41 39  1  0  0  0  0
 42 39  2  0  0  0  0
 43 45  1  0  0  0  0
 44 45  1  0  0  0  0
 45 47  1  0  0  0  0
 45 41  1  0  0  0  0
 47 46  2  0  0  0  0
 47 48  1  0  0  0  0
 48 49  1  0  0  0  0
 50 52  1  0  0  0  0
 50 51  1  0  0  0  0
 51 53  1  1  0  0  0
 52 19  1  6  0  0  0
 52 51  1  0  0  0  0
 53 55  1  0  0  0  0
 53 54  2  0  0  0  0
 55 56  1  0  0  0  0
 57 56  1  0  0  0  0
 58 57  1  0  0  0  0
 60 59  1  0  0  0  0
 62 63  2  0  0  0  0
 62 61  1  0  0  0  0
 64 62  1  0  0  0  0
 65 67  1  0  0  0  0
 65 13  1  0  0  0  0
 66 67  1  0  0  0  0
M  END
>  <MODEL>
6

>  <REMARK>
 VINA RESULT:      -4.3      1.602      2.263
  Name = 
  13 active torsions:
  status: ('A' for Active; 'I' for Inactive)
    1  A    between atoms: C_1  and  C_32
    2  A    between atoms: C_4  and  C_46
    3  A    between atoms: C_6  and  C_53
    4  A    between atoms: O_15  and  C_57
    5  A    between atoms: C_16  and  C_37
    6  A    between atoms: C_19  and  C_32
    7  A    between atoms: C_20  and  O_34
    8  A    between atoms: C_22  and  O_26
    9  A    between atoms: C_28  and  C_58
   10  A    between atoms: O_34  and  O_47
   11  A    between atoms: C_46  and  N_66
   12  A    between atoms: N_54  and  C_64
   13  A    between atoms: C_57  and  C_64
                            x       y       z     vdW  Elec       q    Type
                         _______ _______ _______ _____ _____    ______ ____

>  <TORSDO>
F 13

$$$$
=
 OpenBabel11062422363D

 67 72  0  0  1  0  0  0  0  0999 V2000
  188.3610  174.6620  136.3920 C   0  0  1  0  0  3  0  0  0  0  0  0
  190.9850  175.2280  143.7040 C   0  0  0  0  0  2  0  0  0  0  0  0
  189.1290  175.9640  146.3090 F   0  0  0  0  0  0  0  0  0  0  0  0
  186.6870  176.3650  139.3760 C   0  0  0  0  0  3  0  0  0  0  0  0
  189.7240  174.4180  136.9640 C   0  0  0  0  0  0  0  0  0  0  0  0
  188.8320  172.7620  142.4960 F   0  0  0  0  0  0  0  0  0  0  0  0
  190.1580  173.0670  142.7670 C   0  0  0  0  0  0  0  0  0  0  0  0
  186.5700  176.6920  140.8060 C   0  0  0  0  0  0  0  0  0  0  0  0
  191.3370  170.7580  139.8810 C   0  0  0  0  0  2  0  0  0  0  0  0
  186.5020  177.5590  143.5060 C   0  0  0  0  0  0  0  0  0  0  0  0
  192.5910  171.4710  139.5710 N   0  0  0  0  0  0  0  0  0  0  0  0
  190.5230  171.4920  140.9030 C   0  0  0  0  0  3  0  0  0  0  0  0
  185.7230  177.7780  141.2050 C   0  0  0  0  0  0  0  0  0  0  0  0
  190.4560  172.5830  144.0420 F   0  0  0  0  0  0  0  0  0  0  0  0
  187.2530  177.3450  145.8170 C   0  0  0  0  0  0  0  0  0  0  0  0
  187.3910  176.5360  143.1150 C   0  0  0  0  0  0  0  0  0  0  0  0
  189.5010  175.3800  143.6270 N   0  0  0  0  0  0  0  0  0  0  0  0
  186.4460  177.9470  144.8530 C   0  0  0  0  0  3  0  0  0  0  0  0
  192.5430  172.5890  141.7230 C   0  0  0  0  0  0  0  0  0  0  0  0
  190.3900  173.1310  136.7060 C   0  0  0  0  0  0  0  0  0  0  0  0
  187.4460  175.5160  137.2580 C   0  0  0  0  0  0  0  0  0  0  0  0
  188.3160  176.0390  144.0620 C   0  0  0  0  0  0  0  0  0  0  0  0
  190.3360  174.6070  142.6650 C   0  0  1  0  0  0  0  0  0  0  0  0
  192.2750  171.5440  137.1290 C   0  0  1  0  0  3  0  0  0  0  0  0
  184.8880  179.4090  142.9380 C   0  0  0  0  0  1  0  0  0  0  0  0
  189.7860  172.2380  136.0380 O   0  0  0  0  0  0  0  0  0  0  0  0
  187.5500  175.5650  138.7360 C   0  0  0  0  0  3  0  0  0  0  0  0
  193.2520  172.1720  140.6460 C   0  0  0  0  0  3  0  0  0  0  0  0
  190.3200  175.3330  137.6070 O   0  0  0  0  0  0  0  0  0  0  0  0
  190.4830  175.3130  141.3230 C   0  0  0  0  0  1  0  0  0  0  0  0
  191.0680  172.3380  141.7870 C   0  0  0  0  0  0  0  0  0  0  0  0
  193.2370  171.2310  138.2760 C   0  0  1  0  0  3  0  0  0  0  0  0
  186.5490  176.2060  136.6830 O   0  0  0  0  0  0  0  0  0  0  0  0
  187.4220  176.1210  141.7610 C   0  0  0  0  0  3  0  0  0  0  0  0
  188.1940  176.3860  145.4170 C   0  0  0  0  0  0  0  0  0  0  0  0
  191.7160  172.8880  137.1670 N   0  0  0  0  0  2  0  0  0  0  0  0
  185.6730  178.1690  142.5540 C   0  0  0  0  0  0  0  0  0  0  0  0
  194.5560  171.9690  138.1140 C   0  0  0  0  0  1  0  0  0  0  0  0
  192.7150  171.1170  135.7450 C   0  0  0  0  0  0  0  0  0  0  0  0
  192.1100  168.9630  134.9530 O   0  0  0  0  0  1  0  0  0  0  0  0
  193.0860  169.7650  135.4610 N   0  0  0  0  0  0  0  0  0  0  0  0
  192.8810  172.0040  134.8730 O   0  0  0  0  0  0  0  0  0  0  0  0
  195.4620  170.3970  135.1860 C   0  0  0  0  0  1  0  0  0  0  0  0
  194.7520  168.1660  134.5150 C   0  0  0  0  0  1  0  0  0  0  0  0
  194.4890  169.2750  135.5280 C   0  0  0  0  0  0  0  0  0  0  0  0
  193.9570  168.2420  137.6370 O   0  0  0  0  0  0  0  0  0  0  0  0
  194.8450  168.7470  136.9070 C   0  0  0  0  0  0  0  0  0  0  0  0
  196.1600  168.8540  137.3800 O   0  0  0  0  0  0  0  0  0  0  0  0
  196.5450  168.4440  138.6820 C   0  0  0  0  0  1  0  0  0  0  0  0
  194.2440  174.3510  142.2810 C   0  0  0  0  0  2  0  0  0  0  0  0
  194.6150  173.1820  143.2050 C   0  0  2  0  0  3  0  0  0  0  0  0
  193.1600  173.4200  142.8280 C   0  0  2  0  0  3  0  0  0  0  0  0
  194.8400  173.6800  144.6250 C   0  0  0  0  0  0  0  0  0  0  0  0
  195.3420  172.9060  145.4910 O   0  0  0  0  0  0  0  0  0  0  0  0
  194.4980  175.0450  144.9750 N   0  0  0  0  0  2  0  0  0  0  0  0
  195.0080  175.7210  146.1640 C   0  0  0  0  0  2  0  0  0  0  0  0
  194.0120  176.7880  146.6460 C   0  0  0  0  0  2  0  0  0  0  0  0
  192.5730  176.2880  146.6400 C   0  0  0  0  0  1  0  0  0  0  0  0
  186.2090  177.2010  148.0520 C   0  0  0  0  0  1  0  0  0  0  0  0
  187.1790  177.7270  147.1640 O   0  0  0  0  0  0  0  0  0  0  0  0
  188.4820  175.2210  134.9710 C   0  0  0  0  0  2  0  0  0  0  0  0
  189.3950  176.4050  134.9670 C   0  0  0  0  0  0  0  0  0  0  0  0
  188.9510  177.5420  135.2600 O   0  0  0  0  0  0  0  0  0  0  0  0
  190.7590  176.2510  134.5980 N   0  0  0  0  0  1  0  0  0  0  0  0
  184.9390  178.5460  140.3050 O   0  0  0  0  0  0  0  0  0  0  0  0
  183.0430  177.5680  139.9400 C   0  0  0  0  0  1  0  0  0  0  0  0
  183.6180  178.7410  140.4550 O   0  0  0  0  0  0  0  0  0  0  0  0
  1 61  1  6  0  0  0
  1  5  1  0  0  0  0
  1 21  1  0  0  0  0
  4  8  1  0  0  0  0
  5 29  2  0  0  0  0
  6  7  1  0  0  0  0
  7 14  1  0  0  0  0
  8 13  2  0  0  0  0
  8 34  1  0  0  0  0
  9 12  1  0  0  0  0
 10 18  1  0  0  0  0
 11  9  1  0  0  0  0
 11 28  1  0  0  0  0
 12 31  2  0  0  0  0
 13 37  1  0  0  0  0
 15 60  1  0  0  0  0
 16 10  1  0  0  0  0
 16 22  1  0  0  0  0
 17  2  1  0  0  0  0
 17 22  1  0  0  0  0
 18 15  2  0  0  0  0
 19 31  1  0  0  0  0
 20  5  1  0  0  0  0
 20 36  1  0  0  0  0
 21 27  1  0  0  0  0
 22 35  2  0  0  0  0
 23 30  1  6  0  0  0
 23  7  1  0  0  0  0
 23 17  1  0  0  0  0
 23  2  1  0  0  0  0
 24 39  1  6  0  0  0
 24 36  1  0  0  0  0
 24 32  1  0  0  0  0
 26 20  2  0  0  0  0
 27  4  2  0  0  0  0
 28 19  2  0  0  0  0
 31  7  1  0  0  0  0
 32 38  1  6  0  0  0
 32 11  1  0  0  0  0
 33 21  2  0  0  0  0
 34 16  2  0  0  0  0
 35 15  1  0  0  0  0
 35  3  1  0  0  0  0
 37 25  1  0  0  0  0
 37 10  2  0  0  0  0
 40 41  1  0  0  0  0
 41 45  1  0  0  0  0
 41 39  1  0  0  0  0
 42 39  2  0  0  0  0
 43 45  1  0  0  0  0
 44 45  1  0  0  0  0
 45 47  1  0  0  0  0
 47 48  1  0  0  0  0
 47 46  2  0  0  0  0
 48 49  1  0  0  0  0
 50 52  1  0  0  0  0
 50 51  1  0  0  0  0
 51 53  1  1  0  0  0
 52 19  1  6  0  0  0
 52 51  1  0  0  0  0
 53 55  1  0  0  0  0
 53 54  2  0  0  0  0
 55 56  1  0  0  0  0
 56 57  1  0  0  0  0
 58 57  1  0  0  0  0
 60 59  1  0  0  0  0
 62 61  1  0  0  0  0
 62 63  2  0  0  0  0
 64 62  1  0  0  0  0
 65 67  1  0  0  0  0
 65 13  1  0  0  0  0
 66 67  1  0  0  0  0
M  END
>  <MODEL>
7

>  <REMARK>
 VINA RESULT:      -4.1      1.891      3.082
  Name = 
  13 active torsions:
  status: ('A' for Active; 'I' for Inactive)
    1  A    between atoms: C_1  and  C_32
    2  A    between atoms: C_4  and  C_46
    3  A    between atoms: C_6  and  C_53
    4  A    between atoms: O_15  and  C_57
    5  A    between atoms: C_16  and  C_37
    6  A    between atoms: C_19  and  C_32
    7  A    between atoms: C_20  and  O_34
    8  A    between atoms: C_22  and  O_26
    9  A    between atoms: C_28  and  C_58
   10  A    between atoms: O_34  and  O_47
   11  A    between atoms: C_46  and  N_66
   12  A    between atoms: N_54  and  C_64
   13  A    between atoms: C_57  and  C_64
                            x       y       z     vdW  Elec       q    Type
                         _______ _______ _______ _____ _____    ______ ____

>  <TORSDO>
F 13

$$$$
=
 OpenBabel11062422363D

 67 72  0  0  1  0  0  0  0  0999 V2000
  191.0260  176.0630  145.5310 C   0  0  1  0  0  3  0  0  0  0  0  0
  192.5440  172.0330  139.0410 C   0  0  0  0  0  2  0  0  0  0  0  0
  194.3220  169.2750  138.9200 F   0  0  0  0  0  0  0  0  0  0  0  0
  193.7470  173.4410  144.9630 C   0  0  0  0  0  3  0  0  0  0  0  0
  190.5690  176.2730  144.1190 C   0  0  0  0  0  0  0  0  0  0  0  0
  190.5230  170.9650  141.6780 F   0  0  0  0  0  0  0  0  0  0  0  0
  190.5220  171.5740  140.4310 C   0  0  0  0  0  0  0  0  0  0  0  0
  194.4130  172.3870  144.1810 C   0  0  0  0  0  0  0  0  0  0  0  0
  187.3850  173.6470  141.3850 C   0  0  0  0  0  2  0  0  0  0  0  0
  195.8640  170.5640  142.5610 C   0  0  0  0  0  0  0  0  0  0  0  0
  187.6520  174.8040  140.5090 N   0  0  0  0  0  0  0  0  0  0  0  0
  188.5220  172.6710  141.3710 C   0  0  0  0  0  3  0  0  0  0  0  0
  195.7460  171.9920  144.5350 C   0  0  0  0  0  0  0  0  0  0  0  0
  190.2840  170.5870  139.4730 F   0  0  0  0  0  0  0  0  0  0  0  0
  195.9970  169.1140  140.6050 C   0  0  0  0  0  0  0  0  0  0  0  0
  194.5810  170.9960  142.1640 C   0  0  0  0  0  0  0  0  0  0  0  0
  193.0600  171.3450  140.2620 N   0  0  0  0  0  0  0  0  0  0  0  0
  196.5520  169.6280  141.7760 C   0  0  0  0  0  3  0  0  0  0  0  0
  189.2070  173.5010  139.1800 C   0  0  0  0  0  0  0  0  0  0  0  0
  189.1290  176.3920  143.8420 C   0  0  0  0  0  0  0  0  0  0  0  0
  192.2650  175.1930  145.6810 C   0  0  0  0  0  0  0  0  0  0  0  0
  194.0900  170.5960  140.9000 C   0  0  0  0  0  0  0  0  0  0  0  0
  191.8950  172.2730  140.2270 C   0  0  1  0  0  0  0  0  0  0  0  0
  187.2420  176.5420  142.2070 C   0  0  1  0  0  3  0  0  0  0  0  0
  197.8920  170.7620  144.0450 C   0  0  0  0  0  1  0  0  0  0  0  0
  188.2980  176.2780  144.7930 O   0  0  0  0  0  0  0  0  0  0  0  0
  192.6230  174.1260  144.7160 C   0  0  0  0  0  3  0  0  0  0  0  0
  188.3820  174.5700  139.2860 C   0  0  0  0  0  3  0  0  0  0  0  0
  191.4170  176.4100  143.1870 O   0  0  0  0  0  0  0  0  0  0  0  0
  192.2090  173.6270  140.8500 C   0  0  0  0  0  1  0  0  0  0  0  0
  189.3750  172.5710  140.3420 C   0  0  0  0  0  0  0  0  0  0  0  0
  186.9590  176.0690  140.7800 C   0  0  1  0  0  3  0  0  0  0  0  0
  193.0160  175.3880  146.6860 O   0  0  0  0  0  0  0  0  0  0  0  0
  193.8740  171.9150  142.9760 C   0  0  0  0  0  3  0  0  0  0  0  0
  194.7580  169.6030  140.1650 C   0  0  0  0  0  0  0  0  0  0  0  0
  188.6580  176.6690  142.5260 N   0  0  0  0  0  2  0  0  0  0  0  0
  196.4350  171.0590  143.7430 C   0  0  0  0  0  0  0  0  0  0  0  0
  187.2670  177.1550  139.7630 C   0  0  0  0  0  1  0  0  0  0  0  0
  186.4090  177.7000  142.7110 C   0  0  0  0  0  0  0  0  0  0  0  0
  187.2890  179.1030  144.4120 O   0  0  0  0  0  1  0  0  0  0  0  0
  186.4320  178.0960  144.0850 N   0  0  0  0  0  0  0  0  0  0  0  0
  185.5870  178.2290  141.9240 O   0  0  0  0  0  0  0  0  0  0  0  0
  185.2220  176.0990  144.9030 C   0  0  0  0  0  1  0  0  0  0  0  0
  184.0950  178.2560  144.9480 C   0  0  0  0  0  1  0  0  0  0  0  0
  185.4600  177.5920  145.0930 C   0  0  0  0  0  0  0  0  0  0  0  0
  186.2700  176.8360  147.2310 O   0  0  0  0  0  0  0  0  0  0  0  0
  185.9440  177.8150  146.5150 C   0  0  0  0  0  0  0  0  0  0  0  0
  185.9970  179.1120  147.0430 O   0  0  0  0  0  0  0  0  0  0  0  0
  186.8680  179.4790  148.0990 C   0  0  0  0  0  1  0  0  0  0  0  0
  189.9320  174.4000  136.9500 C   0  0  0  0  0  2  0  0  0  0  0  0
  189.4120  172.9930  136.6220 C   0  0  2  0  0  3  0  0  0  0  0  0
  190.0770  173.2640  137.9640 C   0  0  2  0  0  3  0  0  0  0  0  0
  190.3970  172.2590  135.7260 C   0  0  0  0  0  0  0  0  0  0  0  0
  191.2830  172.9090  135.1000 O   0  0  0  0  0  0  0  0  0  0  0  0
  190.3320  170.8150  135.6100 N   0  0  0  0  0  2  0  0  0  0  0  0
  191.4300  170.0000  135.0980 C   0  0  0  0  0  2  0  0  0  0  0  0
  191.6630  168.7800  136.0050 C   0  0  0  0  0  2  0  0  0  0  0  0
  193.0960  168.2680  135.9370 C   0  0  0  0  0  1  0  0  0  0  0  0
  197.9060  168.4600  139.1800 C   0  0  0  0  0  1  0  0  0  0  0  0
  196.6840  168.1670  139.8330 O   0  0  0  0  0  0  0  0  0  0  0  0
  191.1910  177.4140  146.2340 C   0  0  0  0  0  2  0  0  0  0  0  0
  190.3520  177.4480  147.4710 C   0  0  0  0  0  0  0  0  0  0  0  0
  190.4720  178.3960  148.2860 O   0  0  0  0  0  0  0  0  0  0  0  0
  189.4440  176.3900  147.7440 N   0  0  0  0  0  1  0  0  0  0  0  0
  196.4650  172.5260  145.6370 O   0  0  0  0  0  0  0  0  0  0  0  0
  197.6870  174.1860  144.9800 C   0  0  0  0  0  1  0  0  0  0  0  0
  196.6330  173.8430  145.8420 O   0  0  0  0  0  0  0  0  0  0  0  0
  1 21  1  0  0  0  0
  1 61  1  6  0  0  0
  2 23  1  0  0  0  0
  2 17  1  0  0  0  0
  3 35  1  0  0  0  0
  5  1  1  0  0  0  0
  7  6  1  0  0  0  0
  8 13  1  0  0  0  0
  8  4  1  0  0  0  0
 10 37  1  0  0  0  0
 11 32  1  0  0  0  0
 11  9  1  0  0  0  0
 12  9  1  0  0  0  0
 13 65  1  0  0  0  0
 14  7  1  0  0  0  0
 15 18  1  0  0  0  0
 16 10  1  0  0  0  0
 16 34  1  0  0  0  0
 17 22  1  0  0  0  0
 18 10  2  0  0  0  0
 19 28  2  0  0  0  0
 19 31  1  0  0  0  0
 20  5  1  0  0  0  0
 20 26  2  0  0  0  0
 21 33  2  0  0  0  0
 22 16  2  0  0  0  0
 23 17  1  0  0  0  0
 23  7  1  0  0  0  0
 23 30  1  1  0  0  0
 24 36  1  0  0  0  0
 24 39  1  6  0  0  0
 27  4  2  0  0  0  0
 27 21  1  0  0  0  0
 28 11  1  0  0  0  0
 29  5  2  0  0  0  0
 31  7  1  0  0  0  0
 31 12  2  0  0  0  0
 32 38  1  6  0  0  0
 32 24  1  0  0  0  0
 34  8  2  0  0  0  0
 35 15  2  0  0  0  0
 35 22  1  0  0  0  0
 36 20  1  0  0  0  0
 37 25  1  0  0  0  0
 37 13  2  0  0  0  0
 39 41  1  0  0  0  0
 41 40  1  0  0  0  0
 41 45  1  0  0  0  0
 42 39  2  0  0  0  0
 43 45  1  0  0  0  0
 44 45  1  0  0  0  0
 45 47  1  0  0  0  0
 47 48  1  0  0  0  0
 47 46  2  0  0  0  0
 48 49  1  0  0  0  0
 50 52  1  0  0  0  0
 51 53  1  6  0  0  0
 51 50  1  0  0  0  0
 51 52  1  0  0  0  0
 52 19  1  1  0  0  0
 54 53  2  0  0  0  0
 55 53  1  0  0  0  0
 56 55  1  0  0  0  0
 56 57  1  0  0  0  0
 58 57  1  0  0  0  0
 59 60  1  0  0  0  0
 60 15  1  0  0  0  0
 61 62  1  0  0  0  0
 62 64  1  0  0  0  0
 62 63  2  0  0  0  0
 65 67  1  0  0  0  0
 66 67  1  0  0  0  0
M  END
>  <MODEL>
8

>  <REMARK>
 VINA RESULT:      -3.9      2.638     11.329
  Name = 
  13 active torsions:
  status: ('A' for Active; 'I' for Inactive)
    1  A    between atoms: C_1  and  C_32
    2  A    between atoms: C_4  and  C_46
    3  A    between atoms: C_6  and  C_53
    4  A    between atoms: O_15  and  C_57
    5  A    between atoms: C_16  and  C_37
    6  A    between atoms: C_19  and  C_32
    7  A    between atoms: C_20  and  O_34
    8  A    between atoms: C_22  and  O_26
    9  A    between atoms: C_28  and  C_58
   10  A    between atoms: O_34  and  O_47
   11  A    between atoms: C_46  and  N_66
   12  A    between atoms: N_54  and  C_64
   13  A    between atoms: C_57  and  C_64
                            x       y       z     vdW  Elec       q    Type
                         _______ _______ _______ _____ _____    ______ ____

>  <TORSDO>
F 13

$$$$
