=
 OpenBabel11062421203D

 51 55  0  0  1  0  0  0  0  0999 V2000
  188.1360  174.9490  142.7390 C   0  0  0  0  0  2  0  0  0  0  0  0
  191.4290  176.3740  147.5450 C   0  0  0  0  0  3  0  0  0  0  0  0
  189.3550  176.8910  143.4070 C   0  0  2  0  0  3  0  0  0  0  0  0
  192.8750  174.6850  144.6340 N   0  0  2  0  0  0  0  0  0  0  0  0
  193.5560  173.5990  145.3390 C   0  0  1  0  0  3  0  0  0  0  0  0
  192.9860  172.2230  144.9260 C   0  0  0  0  0  2  0  0  0  0  0  0
  189.2610  177.0910  144.8550 N   0  0  0  0  0  0  0  0  0  0  0  0
  189.8920  173.0760  143.0520 C   0  0  0  0  0  2  0  0  0  0  0  0
  191.4090  172.9850  143.3900 C   0  0  1  0  0  3  0  0  0  0  0  0
  190.3790  177.0170  145.5290 C   0  0  0  0  0  0  0  0  0  0  0  0
  192.4770  175.8610  145.4130 C   0  0  2  0  0  3  0  0  0  0  0  0
  192.4580  175.7540  146.8190 C   0  0  0  0  0  2  0  0  0  0  0  0
  190.5030  177.6650  142.7680 C   0  0  0  0  0  2  0  0  0  0  0  0
  191.6010  176.8020  144.8410 C   0  0  1  0  0  3  0  0  0  0  0  0
  192.1010  174.3860  143.4010 C   0  0  0  0  0  2  0  0  0  0  0  0
  188.1440  176.4510  142.7150 N   0  0  0  0  0  0  0  0  0  0  0  0
  191.7070  177.1580  143.5340 C   0  0  0  0  0  2  0  0  0  0  0  0
  190.3620  176.9070  146.8870 N   0  0  0  0  0  0  0  0  0  0  0  0
  191.5550  172.3640  144.6980 N   0  0  0  0  0  2  0  0  0  0  0  0
  189.4750  174.3250  142.2680 C   0  0  1  0  0  3  0  0  0  0  0  0
  188.8740  173.6890  138.6830 C   0  0  0  0  0  3  0  0  0  0  0  0
  190.9210  174.1130  139.8770 S   0  0  0  0  0  0  0  0  0  0  0  0
  188.4810  173.8780  139.9870 N   0  0  0  0  0  0  0  0  0  0  0  0
  190.2140  173.7640  138.4160 N   0  0  0  0  0  0  0  0  0  0  0  0
  189.5370  174.1310  140.7930 C   0  0  0  0  0  0  0  0  0  0  0  0
  195.0420  173.6550  145.0910 C   0  0  0  0  0  3  0  0  0  0  0  0
  195.5450  174.5620  144.2550 C   0  0  0  0  0  3  0  0  0  0  0  0
  197.0150  174.5830  143.9540 C   0  0  2  0  0  3  0  0  0  0  0  0
  196.3280  176.7860  143.1890 C   0  0  0  0  0  1  0  0  0  0  0  0
  197.4390  175.7830  143.1230 C   0  0  0  0  0  2  0  0  0  0  0  0
  197.4200  173.2710  143.3090 C   0  0  0  0  0  2  0  0  0  0  0  0
  195.7050  173.0350  141.5760 C   0  0  0  0  0  3  0  0  0  0  0  0
  197.9320  173.5340  140.8910 O   0  0  0  0  0  1  0  0  0  0  0  0
  196.9930  173.2510  141.8800 C   0  0  0  0  0  0  0  0  0  0  0  0
  195.1200  173.0750  140.1860 C   0  0  1  0  0  3  0  0  0  0  0  0
  194.0390  172.0910  139.9970 N   0  0  0  0  0  2  0  0  0  0  0  0
  194.4590  170.7500  140.3810 C   0  0  0  0  0  2  0  0  0  0  0  0
  193.2460  169.8690  140.6000 C   0  0  0  0  0  2  0  0  0  0  0  0
  192.0620  170.3750  139.7850 C   0  0  0  0  0  2  0  0  0  0  0  0
  190.8180  170.4360  140.6640 C   0  0  0  0  0  2  0  0  0  0  0  0
  190.7970  169.3130  141.5870 N   0  0  0  0  0  1  0  0  0  0  0  0
  194.7690  174.4810  139.6990 C   0  0  0  0  0  2  0  0  0  0  0  0
  194.9590  174.5430  136.9460 S   0  0  0  0  0  1  0  0  0  0  0  0
  195.6890  174.9310  138.5660 C   0  0  0  0  0  2  0  0  0  0  0  0
  188.1380  176.8670  141.3160 C   0  0  0  0  0  2  0  0  0  0  0  0
  186.7120  177.0930  140.8400 C   0  0  2  0  0  3  0  0  0  0  0  0
  186.6940  177.3650  139.4600 O   0  0  0  0  0  1  0  0  0  0  0  0
  186.1180  178.2790  141.5930 C   0  0  0  0  0  2  0  0  0  0  0  0
  184.6270  178.2710  141.5920 C   0  0  0  0  0  0  0  0  0  0  0  0
  183.9240  178.0410  142.7650 O   0  0  0  0  0  1  0  0  0  0  0  0
  184.0020  178.5060  140.5270 O   0  0  0  0  0  0  0  0  0  0  0  0
  3 13  1  6  0  0  0
  3  7  1  0  0  0  0
  4 15  1  1  0  0  0
  4  5  1  0  0  0  0
  4 11  1  0  0  0  0
  5 26  1  6  0  0  0
  6  5  1  0  0  0  0
  7 10  2  0  0  0  0
  9  8  1  1  0  0  0
  9 15  1  0  0  0  0
  9 19  1  0  0  0  0
 10 18  1  0  0  0  0
 11 12  1  1  0  0  0
 12  2  1  0  0  0  0
 13 17  1  0  0  0  0
 14 17  1  6  0  0  0
 14 11  1  0  0  0  0
 14 10  1  0  0  0  0
 16  1  1  0  0  0  0
 16  3  1  0  0  0  0
 18  2  2  0  0  0  0
 19  6  1  0  0  0  0
 20 25  1  6  0  0  0
 20  1  1  0  0  0  0
 20  8  1  0  0  0  0
 21 23  1  0  0  0  0
 22 25  1  0  0  0  0
 23 25  2  0  0  0  0
 24 21  2  0  0  0  0
 24 22  1  0  0  0  0
 27 26  2  0  0  0  0
 28 30  1  6  0  0  0
 28 27  1  0  0  0  0
 30 29  1  0  0  0  0
 31 28  1  0  0  0  0
 32 34  2  0  0  0  0
 33 34  1  0  0  0  0
 34 31  1  0  0  0  0
 35 42  1  1  0  0  0
 35 32  1  0  0  0  0
 36 35  1  0  0  0  0
 36 37  1  0  0  0  0
 37 38  1  0  0  0  0
 39 38  1  0  0  0  0
 39 40  1  0  0  0  0
 40 41  1  0  0  0  0
 43 44  1  0  0  0  0
 44 42  1  0  0  0  0
 45 16  1  0  0  0  0
 46 47  1  6  0  0  0
 46 45  1  0  0  0  0
 46 48  1  0  0  0  0
 49 48  1  0  0  0  0
 49 50  1  0  0  0  0
 51 49  2  0  0  0  0
M  END
>  <MODEL>
1

>  <REMARK>
 VINA RESULT:      -5.7      0.000      0.000
  Name = 
  18 active torsions:
  status: ('A' for Active; 'I' for Inactive)
    1  A    between atoms: C_1  and  C_3
    2  A    between atoms: C_1  and  C_13
    3  A    between atoms: C_2  and  C_8
    4  A    between atoms: C_2  and  C_32
    5  A    between atoms: C_4  and  C_48
    6  A    between atoms: C_4  and  C_50
    7  A    between atoms: C_4  and  C_51
    8  A    between atoms: C_8  and  C_16
    9  A    between atoms: C_8  and  N_17
   10  A    between atoms: C_11  and  C_37
   11  A    between atoms: C_12  and  C_39
   12  A    between atoms: C_12  and  C_45
   13  A    between atoms: C_13  and  C_41
   14  A    between atoms: N_17  and  C_41
   15  A    between atoms: C_19  and  C_45
   16  A    between atoms: N_35  and  C_39
   17  A    between atoms: C_40  and  C_49
   18  A    between atoms: C_42  and  C_48
                            x       y       z     vdW  Elec       q    Type
                         _______ _______ _______ _____ _____    ______ ____

>  <TORSDO>
F 18

$$$$
=
 OpenBabel11062421203D

 51 55  0  0  1  0  0  0  0  0999 V2000
  189.1770  176.7210  142.4700 C   0  0  0  0  0  2  0  0  0  0  0  0
  190.8070  173.2320  137.8710 C   0  0  0  0  0  3  0  0  0  0  0  0
  188.3890  174.6430  141.5940 C   0  0  2  0  0  3  0  0  0  0  0  0
  192.3420  172.9210  141.1820 N   0  0  2  0  0  0  0  0  0  0  0  0
  193.7440  172.9540  140.7670 C   0  0  1  0  0  3  0  0  0  0  0  0
  194.4740  174.1810  141.3610 C   0  0  0  0  0  2  0  0  0  0  0  0
  188.4840  174.6260  140.1330 N   0  0  0  0  0  0  0  0  0  0  0  0
  191.7150  176.2820  142.6980 C   0  0  0  0  0  2  0  0  0  0  0  0
  192.6770  175.0670  142.5500 C   0  0  1  0  0  3  0  0  0  0  0  0
  189.2890  173.7380  139.6090 C   0  0  0  0  0  0  0  0  0  0  0  0
  191.3350  172.6160  140.1620 C   0  0  2  0  0  3  0  0  0  0  0  0
  191.7110  172.7050  138.8060 C   0  0  0  0  0  2  0  0  0  0  0  0
  188.2380  173.2520  142.2010 C   0  0  0  0  0  2  0  0  0  0  0  0
  189.9740  172.8280  140.4540 C   0  0  1  0  0  3  0  0  0  0  0  0
  191.9080  173.7200  142.3580 C   0  0  0  0  0  2  0  0  0  0  0  0
  187.9500  175.8900  142.2190 N   0  0  0  0  0  0  0  0  0  0  0  0
  189.4630  172.5310  141.6770 C   0  0  0  0  0  2  0  0  0  0  0  0
  189.6580  173.8260  138.3010 N   0  0  0  0  0  0  0  0  0  0  0  0
  193.5400  175.2980  141.4020 N   0  0  0  0  0  2  0  0  0  0  0  0
  190.3050  175.9380  143.1910 C   0  0  1  0  0  3  0  0  0  0  0  0
  189.9600  175.2660  146.8030 C   0  0  0  0  0  3  0  0  0  0  0  0
  189.9960  177.3480  145.5920 S   0  0  0  0  0  0  0  0  0  0  0  0
  190.1400  174.9010  145.4900 N   0  0  0  0  0  0  0  0  0  0  0  0
  189.8380  176.6040  147.0680 N   0  0  0  0  0  0  0  0  0  0  0  0
  190.1820  175.9780  144.6740 C   0  0  0  0  0  0  0  0  0  0  0  0
  194.4450  171.6780  141.1600 C   0  0  0  0  0  3  0  0  0  0  0  0
  195.7700  171.5830  141.0450 C   0  0  0  0  0  3  0  0  0  0  0  0
  196.4690  170.2970  141.3730 C   0  0  2  0  0  3  0  0  0  0  0  0
  196.0950  168.5450  139.7300 C   0  0  0  0  0  1  0  0  0  0  0  0
  197.0610  169.6080  140.1540 C   0  0  0  0  0  2  0  0  0  0  0  0
  195.5260  169.3870  142.1400 C   0  0  0  0  0  2  0  0  0  0  0  0
  197.0760  169.7880  143.9950 C   0  0  0  0  0  3  0  0  0  0  0  0
  194.8330  169.1780  144.5180 O   0  0  0  0  0  1  0  0  0  0  0  0
  195.8460  169.4330  143.5970 C   0  0  0  0  0  0  0  0  0  0  0  0
  197.5110  169.9600  145.4290 C   0  0  1  0  0  3  0  0  0  0  0  0
  196.8880  171.1280  146.0750 N   0  0  0  0  0  2  0  0  0  0  0  0
  197.1330  172.3520  145.3250 C   0  0  0  0  0  2  0  0  0  0  0  0
  196.6650  173.5530  146.1220 C   0  0  0  0  0  2  0  0  0  0  0  0
  195.9140  174.5310  145.2260 C   0  0  0  0  0  2  0  0  0  0  0  0
  195.0080  175.4170  146.0730 C   0  0  0  0  0  2  0  0  0  0  0  0
  193.6380  174.9330  146.0230 N   0  0  0  0  0  1  0  0  0  0  0  0
  197.4330  168.6790  146.2600 C   0  0  0  0  0  2  0  0  0  0  0  0
  195.1850  168.1660  147.7760 S   0  0  0  0  0  1  0  0  0  0  0  0
  196.8270  168.9360  147.6380 C   0  0  0  0  0  2  0  0  0  0  0  0
  187.3090  175.6530  143.5090 C   0  0  0  0  0  2  0  0  0  0  0  0
  186.5410  176.8880  143.9500 C   0  0  2  0  0  3  0  0  0  0  0  0
  186.0740  176.7300  145.2670 O   0  0  0  0  0  1  0  0  0  0  0  0
  185.3520  177.0930  143.0170 C   0  0  0  0  0  2  0  0  0  0  0  0
  185.4770  178.3260  142.1890 C   0  0  0  0  0  0  0  0  0  0  0  0
  184.5900  178.5700  141.1510 O   0  0  0  0  0  0  0  0  0  0  0  0
  186.3740  179.1670  142.4500 O   0  0  0  0  0  1  0  0  0  0  0  0
  1 20  1  0  0  0  0
  2 18  2  0  0  0  0
  2 12  1  0  0  0  0
  3 13  1  6  0  0  0
  3 16  1  0  0  0  0
  4 15  1  6  0  0  0
  5 26  1  1  0  0  0
  5  4  1  0  0  0  0
  5  6  1  0  0  0  0
  6 19  1  0  0  0  0
  7  3  1  0  0  0  0
  8 20  1  0  0  0  0
  9 15  1  6  0  0  0
  9  8  1  0  0  0  0
 10  7  2  0  0  0  0
 10 14  1  0  0  0  0
 11 12  1  6  0  0  0
 11 14  1  0  0  0  0
 11  4  1  0  0  0  0
 14 17  1  1  0  0  0
 16  1  1  0  0  0  0
 16 45  1  0  0  0  0
 17 13  1  0  0  0  0
 18 10  1  0  0  0  0
 19  9  1  0  0  0  0
 20 25  1  1  0  0  0
 21 24  2  0  0  0  0
 22 24  1  0  0  0  0
 23 21  1  0  0  0  0
 25 23  2  0  0  0  0
 25 22  1  0  0  0  0
 27 26  2  0  0  0  0
 27 28  1  0  0  0  0
 28 30  1  6  0  0  0
 28 31  1  0  0  0  0
 29 30  1  0  0  0  0
 31 34  1  0  0  0  0
 34 32  2  0  0  0  0
 34 33  1  0  0  0  0
 35 32  1  6  0  0  0
 35 36  1  0  0  0  0
 35 42  1  0  0  0  0
 37 36  1  0  0  0  0
 37 38  1  0  0  0  0
 39 40  1  0  0  0  0
 39 38  1  0  0  0  0
 41 40  1  0  0  0  0
 42 44  1  0  0  0  0
 44 43  1  0  0  0  0
 45 46  1  0  0  0  0
 46 47  1  1  0  0  0
 48 46  1  0  0  0  0
 49 51  1  0  0  0  0
 49 48  1  0  0  0  0
 50 49  2  0  0  0  0
M  END
>  <MODEL>
2

>  <REMARK>
 VINA RESULT:      -5.6      3.091      6.153
  Name = 
  18 active torsions:
  status: ('A' for Active; 'I' for Inactive)
    1  A    between atoms: C_1  and  C_3
    2  A    between atoms: C_1  and  C_13
    3  A    between atoms: C_2  and  C_8
    4  A    between atoms: C_2  and  C_32
    5  A    between atoms: C_4  and  C_48
    6  A    between atoms: C_4  and  C_50
    7  A    between atoms: C_4  and  C_51
    8  A    between atoms: C_8  and  C_16
    9  A    between atoms: C_8  and  N_17
   10  A    between atoms: C_11  and  C_37
   11  A    between atoms: C_12  and  C_39
   12  A    between atoms: C_12  and  C_45
   13  A    between atoms: C_13  and  C_41
   14  A    between atoms: N_17  and  C_41
   15  A    between atoms: C_19  and  C_45
   16  A    between atoms: N_35  and  C_39
   17  A    between atoms: C_40  and  C_49
   18  A    between atoms: C_42  and  C_48
                            x       y       z     vdW  Elec       q    Type
                         _______ _______ _______ _____ _____    ______ ____

>  <TORSDO>
F 18

$$$$
=
 OpenBabel11062421203D

 51 55  0  0  1  0  0  0  0  0999 V2000
  194.6410  173.7480  142.0570 C   0  0  0  0  0  2  0  0  0  0  0  0
  193.9050  177.1430  146.9470 C   0  0  0  0  0  3  0  0  0  0  0  0
  194.5080  173.2920  144.3990 C   0  0  2  0  0  3  0  0  0  0  0  0
  191.0600  175.8310  145.0510 N   0  0  2  0  0  0  0  0  0  0  0  0
  190.3110  177.0780  144.9060 C   0  0  1  0  0  3  0  0  0  0  0  0
  190.1690  177.4750  143.4180 C   0  0  0  0  0  2  0  0  0  0  0  0
  195.1480  174.3580  145.1730 N   0  0  0  0  0  0  0  0  0  0  0  0
  192.5410  175.2070  141.6730 C   0  0  0  0  0  2  0  0  0  0  0  0
  191.3020  175.6580  142.5010 C   0  0  1  0  0  3  0  0  0  0  0  0
  194.3750  175.0420  145.9760 C   0  0  0  0  0  0  0  0  0  0  0  0
  192.0930  175.7710  146.0880 C   0  0  2  0  0  3  0  0  0  0  0  0
  192.5430  176.9820  146.6530 C   0  0  0  0  0  2  0  0  0  0  0  0
  193.5760  172.4210  145.2340 C   0  0  0  0  0  2  0  0  0  0  0  0
  193.0040  174.6970  146.0920 C   0  0  1  0  0  3  0  0  0  0  0  0
  191.2110  174.9270  143.8800 C   0  0  0  0  0  2  0  0  0  0  0  0
  195.1700  172.8770  143.1610 N   0  0  0  0  0  0  0  0  0  0  0  0
  192.6020  173.4330  145.8000 C   0  0  0  0  0  2  0  0  0  0  0  0
  194.8060  176.2150  146.5160 N   0  0  0  0  0  0  0  0  0  0  0  0
  191.3890  177.0930  142.7200 N   0  0  0  0  0  2  0  0  0  0  0  0
  193.0920  173.8230  142.0290 C   0  0  1  0  0  3  0  0  0  0  0  0
  192.0180  171.3720  139.4880 C   0  0  0  0  0  3  0  0  0  0  0  0
  191.1970  171.7840  141.7130 S   0  0  0  0  0  0  0  0  0  0  0  0
  192.8170  172.3810  139.9710 N   0  0  0  0  0  0  0  0  0  0  0  0
  191.0300  170.9070  140.3130 N   0  0  0  0  0  0  0  0  0  0  0  0
  192.4730  172.7280  141.2320 C   0  0  0  0  0  0  0  0  0  0  0  0
  188.9550  176.9630  145.5560 C   0  0  0  0  0  3  0  0  0  0  0  0
  188.0390  177.9110  145.3590 C   0  0  0  0  0  3  0  0  0  0  0  0
  186.7110  177.8370  146.0520 C   0  0  2  0  0  3  0  0  0  0  0  0
  184.8680  176.4170  146.7560 C   0  0  0  0  0  1  0  0  0  0  0  0
  185.9230  176.5840  145.7060 C   0  0  0  0  0  2  0  0  0  0  0  0
  185.9210  179.1030  145.7730 C   0  0  0  0  0  2  0  0  0  0  0  0
  184.5580  178.5040  143.8280 C   0  0  0  0  0  3  0  0  0  0  0  0
  186.3420  180.0530  143.5160 O   0  0  0  0  0  1  0  0  0  0  0  0
  185.5980  179.1930  144.3190 C   0  0  0  0  0  0  0  0  0  0  0  0
  184.0670  178.5690  142.4020 C   0  0  1  0  0  3  0  0  0  0  0  0
  184.6980  177.5550  141.5380 N   0  0  0  0  0  2  0  0  0  0  0  0
  186.0000  177.9940  141.0560 C   0  0  0  0  0  2  0  0  0  0  0  0
  186.9590  176.8220  141.0100 C   0  0  0  0  0  2  0  0  0  0  0  0
  186.9360  176.0600  142.3300 C   0  0  0  0  0  2  0  0  0  0  0  0
  187.8110  174.8160  142.2230 C   0  0  0  0  0  2  0  0  0  0  0  0
  188.3050  174.6620  140.8650 N   0  0  0  0  0  1  0  0  0  0  0  0
  182.5460  178.6340  142.2720 C   0  0  0  0  0  2  0  0  0  0  0  0
  180.4280  178.8570  140.5150 S   0  0  0  0  0  1  0  0  0  0  0  0
  182.0790  178.1910  140.8860 C   0  0  0  0  0  2  0  0  0  0  0  0
  194.8560  171.4930  142.8180 C   0  0  0  0  0  2  0  0  0  0  0  0
  196.1360  170.7030  142.5980 C   0  0  2  0  0  3  0  0  0  0  0  0
  195.9460  169.3550  142.9500 O   0  0  0  0  0  1  0  0  0  0  0  0
  197.2420  171.2960  143.4640 C   0  0  0  0  0  2  0  0  0  0  0  0
  197.3730  170.6090  144.7800 C   0  0  0  0  0  0  0  0  0  0  0  0
  196.8490  171.1840  145.9290 O   0  0  0  0  0  1  0  0  0  0  0  0
  197.9340  169.4870  144.8470 O   0  0  0  0  0  0  0  0  0  0  0  0
  1 16  1  0  0  0  0
  3  7  1  0  0  0  0
  3 13  1  1  0  0  0
  4 15  1  6  0  0  0
  4 11  1  0  0  0  0
  5  4  1  0  0  0  0
  5 26  1  6  0  0  0
  6  5  1  0  0  0  0
  7 10  2  0  0  0  0
  8 20  1  0  0  0  0
  9  8  1  1  0  0  0
  9 19  1  0  0  0  0
  9 15  1  0  0  0  0
 10 14  1  0  0  0  0
 10 18  1  0  0  0  0
 11 14  1  0  0  0  0
 11 12  1  6  0  0  0
 12  2  1  0  0  0  0
 13 17  1  0  0  0  0
 14 17  1  6  0  0  0
 16  3  1  0  0  0  0
 18  2  2  0  0  0  0
 19  6  1  0  0  0  0
 20 25  1  6  0  0  0
 20  1  1  0  0  0  0
 21 23  1  0  0  0  0
 21 24  2  0  0  0  0
 23 25  2  0  0  0  0
 24 22  1  0  0  0  0
 25 22  1  0  0  0  0
 27 26  2  0  0  0  0
 28 27  1  6  0  0  0
 30 28  1  0  0  0  0
 30 29  1  0  0  0  0
 31 28  1  0  0  0  0
 32 34  2  0  0  0  0
 33 34  1  0  0  0  0
 34 31  1  0  0  0  0
 35 42  1  1  0  0  0
 35 32  1  0  0  0  0
 36 35  1  0  0  0  0
 37 36  1  0  0  0  0
 38 37  1  0  0  0  0
 38 39  1  0  0  0  0
 40 39  1  0  0  0  0
 41 40  1  0  0  0  0
 43 44  1  0  0  0  0
 44 42  1  0  0  0  0
 45 16  1  0  0  0  0
 46 45  1  0  0  0  0
 46 47  1  1  0  0  0
 46 48  1  0  0  0  0
 48 49  1  0  0  0  0
 49 51  2  0  0  0  0
 49 50  1  0  0  0  0
M  END
>  <MODEL>
3

>  <REMARK>
 VINA RESULT:      -5.5      3.067      9.128
  Name = 
  18 active torsions:
  status: ('A' for Active; 'I' for Inactive)
    1  A    between atoms: C_1  and  C_3
    2  A    between atoms: C_1  and  C_13
    3  A    between atoms: C_2  and  C_8
    4  A    between atoms: C_2  and  C_32
    5  A    between atoms: C_4  and  C_48
    6  A    between atoms: C_4  and  C_50
    7  A    between atoms: C_4  and  C_51
    8  A    between atoms: C_8  and  C_16
    9  A    between atoms: C_8  and  N_17
   10  A    between atoms: C_11  and  C_37
   11  A    between atoms: C_12  and  C_39
   12  A    between atoms: C_12  and  C_45
   13  A    between atoms: C_13  and  C_41
   14  A    between atoms: N_17  and  C_41
   15  A    between atoms: C_19  and  C_45
   16  A    between atoms: N_35  and  C_39
   17  A    between atoms: C_40  and  C_49
   18  A    between atoms: C_42  and  C_48
                            x       y       z     vdW  Elec       q    Type
                         _______ _______ _______ _____ _____    ______ ____

>  <TORSDO>
F 18

$$$$
=
 OpenBabel11062421203D

 51 55  0  0  1  0  0  0  0  0999 V2000
  187.6760  174.6200  142.6930 C   0  0  0  0  0  2  0  0  0  0  0  0
  191.3050  176.0080  147.2630 C   0  0  0  0  0  3  0  0  0  0  0  0
  188.9930  176.5320  143.2530 C   0  0  2  0  0  3  0  0  0  0  0  0
  192.5130  174.2330  144.2950 N   0  0  2  0  0  0  0  0  0  0  0  0
  193.2040  173.1360  144.9730 C   0  0  1  0  0  3  0  0  0  0  0  0
  192.5680  171.7730  144.6180 C   0  0  0  0  0  2  0  0  0  0  0  0
  188.9970  176.7550  144.7010 N   0  0  0  0  0  0  0  0  0  0  0  0
  189.3900  172.6970  142.9270 C   0  0  0  0  0  2  0  0  0  0  0  0
  190.9210  172.5620  143.1720 C   0  0  1  0  0  3  0  0  0  0  0  0
  190.1510  176.6550  145.3060 C   0  0  0  0  0  0  0  0  0  0  0  0
  192.2020  175.4320  145.0780 C   0  0  2  0  0  3  0  0  0  0  0  0
  192.2670  175.3450  146.4850 C   0  0  0  0  0  2  0  0  0  0  0  0
  190.1220  177.2600  142.5320 C   0  0  0  0  0  2  0  0  0  0  0  0
  191.3200  176.3920  144.5460 C   0  0  1  0  0  3  0  0  0  0  0  0
  191.6550  173.9410  143.1170 C   0  0  0  0  0  2  0  0  0  0  0  0
  187.7280  176.1200  142.6450 N   0  0  0  0  0  0  0  0  0  0  0  0
  191.3560  176.7260  143.2300 C   0  0  0  0  0  2  0  0  0  0  0  0
  190.2150  176.5650  146.6630 N   0  0  0  0  0  0  0  0  0  0  0  0
  191.1300  171.9560  144.4780 N   0  0  0  0  0  2  0  0  0  0  0  0
  188.9630  173.9470  142.1500 C   0  0  1  0  0  3  0  0  0  0  0  0
  188.1890  173.0810  138.6470 C   0  0  0  0  0  3  0  0  0  0  0  0
  190.1790  174.0180  139.6270 S   0  0  0  0  0  0  0  0  0  0  0  0
  187.8900  173.2100  139.9830 N   0  0  0  0  0  0  0  0  0  0  0  0
  189.4400  173.4670  138.2460 N   0  0  0  0  0  0  0  0  0  0  0  0
  188.9270  173.7310  140.6770 C   0  0  0  0  0  0  0  0  0  0  0  0
  194.6730  173.1410  144.6330 C   0  0  0  0  0  3  0  0  0  0  0  0
  195.2860  174.2890  144.3470 C   0  0  0  0  0  3  0  0  0  0  0  0
  196.7320  174.2960  143.9460 C   0  0  2  0  0  3  0  0  0  0  0  0
  197.6040  172.4630  145.2840 C   0  0  0  0  0  1  0  0  0  0  0  0
  197.6730  173.9460  145.0880 C   0  0  0  0  0  2  0  0  0  0  0  0
  197.0770  175.6300  143.3110 C   0  0  0  0  0  2  0  0  0  0  0  0
  196.9050  174.4650  141.1630 C   0  0  0  0  0  3  0  0  0  0  0  0
  196.2140  176.7430  141.2630 O   0  0  0  0  0  1  0  0  0  0  0  0
  196.7490  175.6020  141.8550 C   0  0  0  0  0  0  0  0  0  0  0  0
  196.5320  174.2710  139.7130 C   0  0  1  0  0  3  0  0  0  0  0  0
  197.7080  174.2170  138.8270 N   0  0  0  0  0  2  0  0  0  0  0  0
  197.8740  175.4550  138.0790 C   0  0  0  0  0  2  0  0  0  0  0  0
  197.9410  175.1590  136.5940 C   0  0  0  0  0  2  0  0  0  0  0  0
  196.6310  174.5510  136.1090 C   0  0  0  0  0  2  0  0  0  0  0  0
  196.9170  173.3130  135.2660 C   0  0  0  0  0  2  0  0  0  0  0  0
  196.8680  172.1170  136.0910 N   0  0  0  0  0  1  0  0  0  0  0  0
  195.5270  173.1440  139.4760 C   0  0  0  0  0  2  0  0  0  0  0  0
  193.9100  171.5480  141.0440 S   0  0  0  0  0  1  0  0  0  0  0  0
  194.3620  173.2110  140.4620 C   0  0  0  0  0  2  0  0  0  0  0  0
  187.6480  176.5170  141.2430 C   0  0  0  0  0  2  0  0  0  0  0  0
  186.3750  177.3090  140.9920 C   0  0  2  0  0  3  0  0  0  0  0  0
  186.2490  177.6140  139.6250 O   0  0  0  0  0  1  0  0  0  0  0  0
  186.4300  178.6060  141.7930 C   0  0  0  0  0  2  0  0  0  0  0  0
  185.4230  178.6460  142.8910 C   0  0  0  0  0  0  0  0  0  0  0  0
  185.6450  179.4180  144.0220 O   0  0  0  0  0  1  0  0  0  0  0  0
  184.3510  178.0000  142.7800 O   0  0  0  0  0  0  0  0  0  0  0  0
  3 13  1  6  0  0  0
  3  7  1  0  0  0  0
  4 15  1  1  0  0  0
  4  5  1  0  0  0  0
  4 11  1  0  0  0  0
  5 26  1  6  0  0  0
  6  5  1  0  0  0  0
  7 10  2  0  0  0  0
  9  8  1  1  0  0  0
  9 19  1  0  0  0  0
 10 18  1  0  0  0  0
 11 12  1  1  0  0  0
 12  2  1  0  0  0  0
 13 17  1  0  0  0  0
 14 17  1  6  0  0  0
 14 11  1  0  0  0  0
 14 10  1  0  0  0  0
 15  9  1  0  0  0  0
 16  1  1  0  0  0  0
 16  3  1  0  0  0  0
 18  2  2  0  0  0  0
 19  6  1  0  0  0  0
 20 25  1  6  0  0  0
 20  1  1  0  0  0  0
 20  8  1  0  0  0  0
 21 23  1  0  0  0  0
 22 25  1  0  0  0  0
 23 25  2  0  0  0  0
 24 21  2  0  0  0  0
 24 22  1  0  0  0  0
 27 26  2  0  0  0  0
 28 31  1  1  0  0  0
 28 27  1  0  0  0  0
 28 30  1  0  0  0  0
 30 29  1  0  0  0  0
 32 34  2  0  0  0  0
 33 34  1  0  0  0  0
 34 31  1  0  0  0  0
 35 42  1  1  0  0  0
 35 32  1  0  0  0  0
 36 35  1  0  0  0  0
 37 36  1  0  0  0  0
 38 37  1  0  0  0  0
 39 38  1  0  0  0  0
 40 41  1  0  0  0  0
 40 39  1  0  0  0  0
 42 44  1  0  0  0  0
 44 43  1  0  0  0  0
 45 16  1  0  0  0  0
 46 47  1  6  0  0  0
 46 45  1  0  0  0  0
 46 48  1  0  0  0  0
 48 49  1  0  0  0  0
 49 50  1  0  0  0  0
 51 49  2  0  0  0  0
M  END
>  <MODEL>
4

>  <REMARK>
 VINA RESULT:      -5.5      1.735      2.985
  Name = 
  18 active torsions:
  status: ('A' for Active; 'I' for Inactive)
    1  A    between atoms: C_1  and  C_3
    2  A    between atoms: C_1  and  C_13
    3  A    between atoms: C_2  and  C_8
    4  A    between atoms: C_2  and  C_32
    5  A    between atoms: C_4  and  C_48
    6  A    between atoms: C_4  and  C_50
    7  A    between atoms: C_4  and  C_51
    8  A    between atoms: C_8  and  C_16
    9  A    between atoms: C_8  and  N_17
   10  A    between atoms: C_11  and  C_37
   11  A    between atoms: C_12  and  C_39
   12  A    between atoms: C_12  and  C_45
   13  A    between atoms: C_13  and  C_41
   14  A    between atoms: N_17  and  C_41
   15  A    between atoms: C_19  and  C_45
   16  A    between atoms: N_35  and  C_39
   17  A    between atoms: C_40  and  C_49
   18  A    between atoms: C_42  and  C_48
                            x       y       z     vdW  Elec       q    Type
                         _______ _______ _______ _____ _____    ______ ____

>  <TORSDO>
F 18

$$$$
=
 OpenBabel11062421203D

 51 55  0  0  1  0  0  0  0  0999 V2000
  189.0920  176.8770  142.4050 C   0  0  0  0  0  2  0  0  0  0  0  0
  190.5150  173.0400  138.0190 C   0  0  0  0  0  3  0  0  0  0  0  0
  188.1080  174.8710  141.5610 C   0  0  2  0  0  3  0  0  0  0  0  0
  191.8450  172.6870  141.4140 N   0  0  2  0  0  0  0  0  0  0  0  0
  193.2590  172.5400  141.0710 C   0  0  1  0  0  3  0  0  0  0  0  0
  194.0990  173.6960  141.6590 C   0  0  0  0  0  2  0  0  0  0  0  0
  188.2690  174.7840  140.1080 N   0  0  0  0  0  0  0  0  0  0  0  0
  191.5480  176.1560  142.7790 C   0  0  0  0  0  2  0  0  0  0  0  0
  192.3660  174.8320  142.7220 C   0  0  1  0  0  3  0  0  0  0  0  0
  188.9870  173.7880  139.6580 C   0  0  0  0  0  0  0  0  0  0  0  0
  190.8580  172.4600  140.3550 C   0  0  2  0  0  3  0  0  0  0  0  0
  191.3060  172.4490  139.0170 C   0  0  0  0  0  2  0  0  0  0  0  0
  187.7650  173.5330  142.2080 C   0  0  0  0  0  2  0  0  0  0  0  0
  189.5200  172.8400  140.5680 C   0  0  1  0  0  3  0  0  0  0  0  0
  191.4530  173.5770  142.5370 C   0  0  0  0  0  2  0  0  0  0  0  0
  187.7900  176.1850  142.1200 N   0  0  0  0  0  0  0  0  0  0  0  0
  188.9200  172.6540  141.7720 C   0  0  0  0  0  2  0  0  0  0  0  0
  189.4250  173.7800  138.3690 N   0  0  0  0  0  0  0  0  0  0  0  0
  193.3030  174.9150  141.6130 N   0  0  0  0  0  2  0  0  0  0  0  0
  190.0860  175.9980  143.2090 C   0  0  1  0  0  3  0  0  0  0  0  0
  189.5050  175.5150  146.8210 C   0  0  0  0  0  3  0  0  0  0  0  0
  189.8100  177.5300  145.5390 S   0  0  0  0  0  0  0  0  0  0  0  0
  189.7080  175.0790  145.5340 N   0  0  0  0  0  0  0  0  0  0  0  0
  189.5090  176.8680  147.0320 N   0  0  0  0  0  0  0  0  0  0  0  0
  189.8980  176.1120  144.6820 C   0  0  0  0  0  0  0  0  0  0  0  0
  193.7860  171.2080  141.5430 C   0  0  0  0  0  3  0  0  0  0  0  0
  194.7690  171.1610  142.4420 C   0  0  0  0  0  3  0  0  0  0  0  0
  195.3420  169.8420  142.8700 C   0  0  2  0  0  3  0  0  0  0  0  0
  193.5420  168.2100  142.7840 C   0  0  0  0  0  1  0  0  0  0  0  0
  194.7870  168.6650  142.0850 C   0  0  0  0  0  2  0  0  0  0  0  0
  195.1570  169.6690  144.3660 C   0  0  0  0  0  2  0  0  0  0  0  0
  196.1660  171.8360  144.9020 C   0  0  0  0  0  3  0  0  0  0  0  0
  193.9740  171.3850  145.7210 O   0  0  0  0  0  1  0  0  0  0  0  0
  195.1240  171.0030  145.0340 C   0  0  0  0  0  0  0  0  0  0  0  0
  196.2310  173.2410  145.4470 C   0  0  1  0  0  3  0  0  0  0  0  0
  197.4470  173.9580  145.0250 N   0  0  0  0  0  2  0  0  0  0  0  0
  197.9320  173.4820  143.7360 C   0  0  0  0  0  2  0  0  0  0  0  0
  197.4920  174.4260  142.6350 C   0  0  0  0  0  2  0  0  0  0  0  0
  197.5930  175.8740  143.1000 C   0  0  0  0  0  2  0  0  0  0  0  0
  196.5410  176.7180  142.3890 C   0  0  0  0  0  2  0  0  0  0  0  0
  196.5010  176.3890  140.9740 N   0  0  0  0  0  1  0  0  0  0  0  0
  194.9430  174.0420  145.2560 C   0  0  0  0  0  2  0  0  0  0  0  0
  194.4220  176.7520  145.3390 S   0  0  0  0  0  1  0  0  0  0  0  0
  194.8660  175.2240  146.2210 C   0  0  0  0  0  2  0  0  0  0  0  0
  187.0650  176.0760  143.3820 C   0  0  0  0  0  2  0  0  0  0  0  0
  185.9550  177.1120  143.4430 C   0  0  2  0  0  3  0  0  0  0  0  0
  185.6970  177.6290  142.1610 O   0  0  0  0  0  1  0  0  0  0  0  0
  186.3860  178.2490  144.3650 C   0  0  0  0  0  2  0  0  0  0  0  0
  185.3220  178.6370  145.3340 C   0  0  0  0  0  0  0  0  0  0  0  0
  185.6310  179.4080  146.4460 O   0  0  0  0  0  1  0  0  0  0  0  0
  184.1320  178.2910  145.1290 O   0  0  0  0  0  0  0  0  0  0  0  0
  1 20  1  0  0  0  0
  2 18  2  0  0  0  0
  2 12  1  0  0  0  0
  3 16  1  0  0  0  0
  3 13  1  6  0  0  0
  4 15  1  6  0  0  0
  5  4  1  0  0  0  0
  5 26  1  1  0  0  0
  5  6  1  0  0  0  0
  7  3  1  0  0  0  0
  8 20  1  0  0  0  0
  9 15  1  6  0  0  0
  9  8  1  0  0  0  0
 10  7  2  0  0  0  0
 10 14  1  0  0  0  0
 11 12  1  6  0  0  0
 11 14  1  0  0  0  0
 11  4  1  0  0  0  0
 14 17  1  1  0  0  0
 16  1  1  0  0  0  0
 16 45  1  0  0  0  0
 17 13  1  0  0  0  0
 18 10  1  0  0  0  0
 19  6  1  0  0  0  0
 19  9  1  0  0  0  0
 20 25  1  1  0  0  0
 21 24  2  0  0  0  0
 22 24  1  0  0  0  0
 23 21  1  0  0  0  0
 25 23  2  0  0  0  0
 25 22  1  0  0  0  0
 26 27  2  0  0  0  0
 27 28  1  0  0  0  0
 28 30  1  6  0  0  0
 28 31  1  0  0  0  0
 30 29  1  0  0  0  0
 31 34  1  0  0  0  0
 32 34  2  0  0  0  0
 34 33  1  0  0  0  0
 35 32  1  6  0  0  0
 36 35  1  0  0  0  0
 37 36  1  0  0  0  0
 38 39  1  0  0  0  0
 38 37  1  0  0  0  0
 40 39  1  0  0  0  0
 41 40  1  0  0  0  0
 42 35  1  0  0  0  0
 42 44  1  0  0  0  0
 43 44  1  0  0  0  0
 45 46  1  0  0  0  0
 46 47  1  6  0  0  0
 46 48  1  0  0  0  0
 48 49  1  0  0  0  0
 49 50  1  0  0  0  0
 51 49  2  0  0  0  0
M  END
>  <MODEL>
5

>  <REMARK>
 VINA RESULT:      -5.4      2.685      5.850
  Name = 
  18 active torsions:
  status: ('A' for Active; 'I' for Inactive)
    1  A    between atoms: C_1  and  C_3
    2  A    between atoms: C_1  and  C_13
    3  A    between atoms: C_2  and  C_8
    4  A    between atoms: C_2  and  C_32
    5  A    between atoms: C_4  and  C_48
    6  A    between atoms: C_4  and  C_50
    7  A    between atoms: C_4  and  C_51
    8  A    between atoms: C_8  and  C_16
    9  A    between atoms: C_8  and  N_17
   10  A    between atoms: C_11  and  C_37
   11  A    between atoms: C_12  and  C_39
   12  A    between atoms: C_12  and  C_45
   13  A    between atoms: C_13  and  C_41
   14  A    between atoms: N_17  and  C_41
   15  A    between atoms: C_19  and  C_45
   16  A    between atoms: N_35  and  C_39
   17  A    between atoms: C_40  and  C_49
   18  A    between atoms: C_42  and  C_48
                            x       y       z     vdW  Elec       q    Type
                         _______ _______ _______ _____ _____    ______ ____

>  <TORSDO>
F 18

$$$$
=
 OpenBabel11062421203D

 51 55  0  0  1  0  0  0  0  0999 V2000
  188.2360  174.5510  143.0800 C   0  0  0  0  0  2  0  0  0  0  0  0
  192.0410  176.3670  147.3480 C   0  0  0  0  0  3  0  0  0  0  0  0
  189.4000  176.5910  143.5170 C   0  0  2  0  0  3  0  0  0  0  0  0
  193.1930  174.6590  144.3190 N   0  0  2  0  0  0  0  0  0  0  0  0
  194.0340  173.6470  144.9570 C   0  0  1  0  0  3  0  0  0  0  0  0
  193.5090  172.2220  144.6670 C   0  0  0  0  0  2  0  0  0  0  0  0
  189.4880  176.8410  144.9580 N   0  0  0  0  0  0  0  0  0  0  0  0
  190.1410  172.8060  143.2080 C   0  0  0  0  0  2  0  0  0  0  0  0
  191.6920  172.8230  143.3380 C   0  0  1  0  0  3  0  0  0  0  0  0
  190.6890  176.8640  145.4750 C   0  0  0  0  0  0  0  0  0  0  0  0
  192.8260  175.8370  145.1090 C   0  0  2  0  0  3  0  0  0  0  0  0
  193.0020  175.7850  146.5070 C   0  0  0  0  0  2  0  0  0  0  0  0
  190.3970  177.4100  142.7050 C   0  0  0  0  0  2  0  0  0  0  0  0
  191.8190  176.6980  144.6330 C   0  0  1  0  0  3  0  0  0  0  0  0
  192.2830  174.2640  143.2120 C   0  0  0  0  0  2  0  0  0  0  0  0
  188.1400  176.0490  143.0100 N   0  0  0  0  0  0  0  0  0  0  0  0
  191.7250  177.0090  143.3140 C   0  0  0  0  0  2  0  0  0  0  0  0
  190.8610  176.8060  146.8250 N   0  0  0  0  0  0  0  0  0  0  0  0
  192.0530  172.2650  144.6320 N   0  0  0  0  0  2  0  0  0  0  0  0
  189.5390  173.9940  142.4500 C   0  0  1  0  0  3  0  0  0  0  0  0
  189.8490  173.8510  138.7760 C   0  0  0  0  0  3  0  0  0  0  0  0
  188.1650  172.9510  140.2430 S   0  0  0  0  0  0  0  0  0  0  0  0
  190.2710  174.1910  140.0380 N   0  0  0  0  0  0  0  0  0  0  0  0
  188.6700  173.1610  138.6750 N   0  0  0  0  0  0  0  0  0  0  0  0
  189.4160  173.7480  140.9870 C   0  0  0  0  0  0  0  0  0  0  0  0
  195.4670  173.7850  144.5070 C   0  0  0  0  0  3  0  0  0  0  0  0
  195.7830  174.6540  143.5470 C   0  0  0  0  0  3  0  0  0  0  0  0
  197.1950  174.7530  143.0490 C   0  0  2  0  0  3  0  0  0  0  0  0
  196.6420  177.0780  143.4920 C   0  0  0  0  0  1  0  0  0  0  0  0
  197.6620  176.1860  142.8540 C   0  0  0  0  0  2  0  0  0  0  0  0
  197.3480  173.9260  141.7860 C   0  0  0  0  0  2  0  0  0  0  0  0
  195.4540  173.3240  140.3540 C   0  0  0  0  0  3  0  0  0  0  0  0
  196.1000  175.6150  140.4560 O   0  0  0  0  0  1  0  0  0  0  0  0
  196.2740  174.2800  140.8110 C   0  0  0  0  0  0  0  0  0  0  0  0
  194.2770  173.5530  139.4380 C   0  0  1  0  0  3  0  0  0  0  0  0
  194.6840  173.8100  138.0450 N   0  0  0  0  0  2  0  0  0  0  0  0
  194.3560  175.1680  137.6320 C   0  0  0  0  0  2  0  0  0  0  0  0
  193.8120  175.1630  136.2170 C   0  0  0  0  0  2  0  0  0  0  0  0
  192.3000  175.3550  136.2240 C   0  0  0  0  0  2  0  0  0  0  0  0
  191.9050  176.3820  135.1700 C   0  0  0  0  0  2  0  0  0  0  0  0
  192.6960  177.5920  135.3220 N   0  0  0  0  0  1  0  0  0  0  0  0
  193.1700  172.5070  139.5750 C   0  0  0  0  0  2  0  0  0  0  0  0
  193.6520  170.1170  138.2820 S   0  0  0  0  0  1  0  0  0  0  0  0
  192.9150  171.7790  138.2570 C   0  0  0  0  0  2  0  0  0  0  0  0
  187.9190  176.4090  141.6130 C   0  0  0  0  0  2  0  0  0  0  0  0
  186.6020  177.1550  141.4640 C   0  0  2  0  0  3  0  0  0  0  0  0
  186.3370  177.4140  140.1080 O   0  0  0  0  0  1  0  0  0  0  0  0
  186.6910  178.4770  142.2200 C   0  0  0  0  0  2  0  0  0  0  0  0
  185.5530  178.6790  143.1610 C   0  0  0  0  0  0  0  0  0  0  0  0
  185.7140  179.4470  144.3050 O   0  0  0  0  0  1  0  0  0  0  0  0
  184.4310  178.1770  142.9020 O   0  0  0  0  0  0  0  0  0  0  0  0
  3 13  1  6  0  0  0
  3  7  1  0  0  0  0
  4 15  1  1  0  0  0
  4  5  1  0  0  0  0
  4 11  1  0  0  0  0
  5 26  1  6  0  0  0
  6  5  1  0  0  0  0
  7 10  2  0  0  0  0
  9  8  1  1  0  0  0
  9 19  1  0  0  0  0
 10 18  1  0  0  0  0
 11 12  1  1  0  0  0
 12  2  1  0  0  0  0
 13 17  1  0  0  0  0
 14 17  1  6  0  0  0
 14 11  1  0  0  0  0
 14 10  1  0  0  0  0
 15  9  1  0  0  0  0
 16  1  1  0  0  0  0
 16  3  1  0  0  0  0
 18  2  2  0  0  0  0
 19  6  1  0  0  0  0
 20 25  1  6  0  0  0
 20  1  1  0  0  0  0
 20  8  1  0  0  0  0
 21 23  1  0  0  0  0
 22 25  1  0  0  0  0
 23 25  2  0  0  0  0
 24 21  2  0  0  0  0
 24 22  1  0  0  0  0
 27 26  2  0  0  0  0
 28 31  1  6  0  0  0
 28 27  1  0  0  0  0
 30 28  1  0  0  0  0
 30 29  1  0  0  0  0
 32 34  2  0  0  0  0
 33 34  1  0  0  0  0
 34 31  1  0  0  0  0
 35 42  1  6  0  0  0
 35 32  1  0  0  0  0
 36 35  1  0  0  0  0
 37 36  1  0  0  0  0
 38 39  1  0  0  0  0
 38 37  1  0  0  0  0
 40 41  1  0  0  0  0
 40 39  1  0  0  0  0
 44 43  1  0  0  0  0
 44 42  1  0  0  0  0
 45 16  1  0  0  0  0
 46 47  1  6  0  0  0
 46 45  1  0  0  0  0
 46 48  1  0  0  0  0
 48 49  1  0  0  0  0
 49 50  1  0  0  0  0
 51 49  2  0  0  0  0
M  END
>  <MODEL>
6

>  <REMARK>
 VINA RESULT:      -5.4      1.848      2.812
  Name = 
  18 active torsions:
  status: ('A' for Active; 'I' for Inactive)
    1  A    between atoms: C_1  and  C_3
    2  A    between atoms: C_1  and  C_13
    3  A    between atoms: C_2  and  C_8
    4  A    between atoms: C_2  and  C_32
    5  A    between atoms: C_4  and  C_48
    6  A    between atoms: C_4  and  C_50
    7  A    between atoms: C_4  and  C_51
    8  A    between atoms: C_8  and  C_16
    9  A    between atoms: C_8  and  N_17
   10  A    between atoms: C_11  and  C_37
   11  A    between atoms: C_12  and  C_39
   12  A    between atoms: C_12  and  C_45
   13  A    between atoms: C_13  and  C_41
   14  A    between atoms: N_17  and  C_41
   15  A    between atoms: C_19  and  C_45
   16  A    between atoms: N_35  and  C_39
   17  A    between atoms: C_40  and  C_49
   18  A    between atoms: C_42  and  C_48
                            x       y       z     vdW  Elec       q    Type
                         _______ _______ _______ _____ _____    ______ ____

>  <TORSDO>
F 18

$$$$
=
 OpenBabel11062421203D

 51 55  0  0  1  0  0  0  0  0999 V2000
  197.2790  173.1870  139.9290 C   0  0  0  0  0  2  0  0  0  0  0  0
  196.7820  172.3350  145.8460 C   0  0  0  0  0  3  0  0  0  0  0  0
  195.9340  171.7680  141.3010 C   0  0  2  0  0  3  0  0  0  0  0  0
  194.8520  174.9030  144.0860 N   0  0  2  0  0  0  0  0  0  0  0  0
  195.1560  176.0320  144.9640 C   0  0  1  0  0  3  0  0  0  0  0  0
  195.9210  177.1400  144.2040 C   0  0  0  0  0  2  0  0  0  0  0  0
  196.6870  171.3100  142.4710 N   0  0  0  0  0  0  0  0  0  0  0  0
  196.8940  175.5050  141.0120 C   0  0  0  0  0  2  0  0  0  0  0  0
  195.9780  176.1050  142.1180 C   0  0  1  0  0  3  0  0  0  0  0  0
  196.2400  171.6870  143.6400 C   0  0  0  0  0  0  0  0  0  0  0  0
  195.0820  173.5530  144.6060 C   0  0  2  0  0  3  0  0  0  0  0  0
  195.8830  173.4090  145.7590 C   0  0  0  0  0  2  0  0  0  0  0  0
  194.4270  171.6020  141.4570 C   0  0  0  0  0  2  0  0  0  0  0  0
  195.0520  172.4590  143.7200 C   0  0  1  0  0  3  0  0  0  0  0  0
  194.8990  175.0880  142.6120 C   0  0  0  0  0  2  0  0  0  0  0  0
  196.6510  171.8260  140.0270 N   0  0  0  0  0  0  0  0  0  0  0  0
  194.1380  172.3930  142.7170 C   0  0  0  0  0  2  0  0  0  0  0  0
  197.0140  171.5560  144.7520 N   0  0  0  0  0  0  0  0  0  0  0  0
  196.8110  176.5080  143.2400 N   0  0  0  0  0  2  0  0  0  0  0  0
  196.2840  174.3400  140.2240 C   0  0  1  0  0  3  0  0  0  0  0  0
  193.8080  175.2890  137.6580 C   0  0  0  0  0  3  0  0  0  0  0  0
  196.2070  175.1160  137.5330 S   0  0  0  0  0  0  0  0  0  0  0  0
  194.1950  174.9230  138.9250 N   0  0  0  0  0  0  0  0  0  0  0  0
  194.7940  175.4340  136.7190 N   0  0  0  0  0  0  0  0  0  0  0  0
  195.5370  174.7840  139.0150 C   0  0  0  0  0  0  0  0  0  0  0  0
  193.8940  176.5850  145.5780 C   0  0  0  0  0  3  0  0  0  0  0  0
  192.7270  175.9810  145.3570 C   0  0  0  0  0  3  0  0  0  0  0  0
  191.4580  176.5600  145.9100 C   0  0  2  0  0  3  0  0  0  0  0  0
  191.2000  175.4330  148.0490 C   0  0  0  0  0  1  0  0  0  0  0  0
  191.4970  176.7580  147.4170 C   0  0  0  0  0  2  0  0  0  0  0  0
  190.2790  175.7070  145.4780 C   0  0  0  0  0  2  0  0  0  0  0  0
  187.8540  176.0530  145.4340 C   0  0  0  0  0  3  0  0  0  0  0  0
  189.2620  177.9140  144.9560 O   0  0  0  0  0  1  0  0  0  0  0  0
  189.0790  176.5680  145.2610 C   0  0  0  0  0  0  0  0  0  0  0  0
  186.5630  176.8260  145.3340 C   0  0  1  0  0  3  0  0  0  0  0  0
  185.8860  176.6350  144.0400 N   0  0  0  0  0  2  0  0  0  0  0  0
  185.5320  177.9070  143.4250 C   0  0  0  0  0  2  0  0  0  0  0  0
  186.0880  177.9760  142.0170 C   0  0  0  0  0  2  0  0  0  0  0  0
  187.5800  178.2880  142.0450 C   0  0  0  0  0  2  0  0  0  0  0  0
  188.3720  177.0560  141.6220 C   0  0  0  0  0  2  0  0  0  0  0  0
  187.5290  176.1500  140.8590 N   0  0  0  0  0  1  0  0  0  0  0  0
  185.6430  176.6580  146.5440 C   0  0  0  0  0  2  0  0  0  0  0  0
  186.5630  179.0010  147.6770 S   0  0  0  0  0  1  0  0  0  0  0  0
  185.1630  178.0060  147.0780 C   0  0  0  0  0  2  0  0  0  0  0  0
  195.7470  171.6770  138.8910 C   0  0  0  0  0  2  0  0  0  0  0  0
  196.0980  170.4260  138.1000 C   0  0  2  0  0  3  0  0  0  0  0  0
  196.9940  170.7390  137.0620 O   0  0  0  0  0  1  0  0  0  0  0  0
  194.8230  169.8410  137.5030 C   0  0  0  0  0  2  0  0  0  0  0  0
  193.8310  169.4450  138.5430 C   0  0  0  0  0  0  0  0  0  0  0  0
  192.5450  169.9670  138.5240 O   0  0  0  0  0  0  0  0  0  0  0  0
  194.1490  168.6100  139.4260 O   0  0  0  0  0  1  0  0  0  0  0  0
  1 16  1  0  0  0  0
  1 20  1  0  0  0  0
  3 13  1  6  0  0  0
  3  7  1  0  0  0  0
  4 15  1  6  0  0  0
  4 11  1  0  0  0  0
  4  5  1  0  0  0  0
  5 26  1  6  0  0  0
  6  5  1  0  0  0  0
  7 10  2  0  0  0  0
  9  8  1  6  0  0  0
  9 15  1  0  0  0  0
  9 19  1  0  0  0  0
 10 14  1  0  0  0  0
 10 18  1  0  0  0  0
 11 12  1  6  0  0  0
 12  2  1  0  0  0  0
 13 17  1  0  0  0  0
 14 17  1  6  0  0  0
 14 11  1  0  0  0  0
 16  3  1  0  0  0  0
 18  2  2  0  0  0  0
 19  6  1  0  0  0  0
 20 25  1  6  0  0  0
 20  8  1  0  0  0  0
 21 23  1  0  0  0  0
 22 25  1  0  0  0  0
 23 25  2  0  0  0  0
 24 22  1  0  0  0  0
 24 21  2  0  0  0  0
 27 26  2  0  0  0  0
 28 27  1  1  0  0  0
 28 30  1  0  0  0  0
 30 29  1  0  0  0  0
 31 28  1  0  0  0  0
 33 34  1  0  0  0  0
 34 32  2  0  0  0  0
 34 31  1  0  0  0  0
 35 32  1  1  0  0  0
 35 42  1  0  0  0  0
 36 35  1  0  0  0  0
 37 36  1  0  0  0  0
 38 39  1  0  0  0  0
 38 37  1  0  0  0  0
 40 39  1  0  0  0  0
 41 40  1  0  0  0  0
 42 44  1  0  0  0  0
 44 43  1  0  0  0  0
 45 16  1  0  0  0  0
 46 47  1  6  0  0  0
 46 45  1  0  0  0  0
 48 46  1  0  0  0  0
 48 49  1  0  0  0  0
 49 51  1  0  0  0  0
 50 49  2  0  0  0  0
M  END
>  <MODEL>
7

>  <REMARK>
 VINA RESULT:      -5.4      3.215      8.752
  Name = 
  18 active torsions:
  status: ('A' for Active; 'I' for Inactive)
    1  A    between atoms: C_1  and  C_3
    2  A    between atoms: C_1  and  C_13
    3  A    between atoms: C_2  and  C_8
    4  A    between atoms: C_2  and  C_32
    5  A    between atoms: C_4  and  C_48
    6  A    between atoms: C_4  and  C_50
    7  A    between atoms: C_4  and  C_51
    8  A    between atoms: C_8  and  C_16
    9  A    between atoms: C_8  and  N_17
   10  A    between atoms: C_11  and  C_37
   11  A    between atoms: C_12  and  C_39
   12  A    between atoms: C_12  and  C_45
   13  A    between atoms: C_13  and  C_41
   14  A    between atoms: N_17  and  C_41
   15  A    between atoms: C_19  and  C_45
   16  A    between atoms: N_35  and  C_39
   17  A    between atoms: C_40  and  C_49
   18  A    between atoms: C_42  and  C_48
                            x       y       z     vdW  Elec       q    Type
                         _______ _______ _______ _____ _____    ______ ____

>  <TORSDO>
F 18

$$$$
=
 OpenBabel11062421203D

 51 55  0  0  1  0  0  0  0  0999 V2000
  193.1890  172.5720  144.0770 C   0  0  0  0  0  2  0  0  0  0  0  0
  191.7560  170.5790  138.6030 C   0  0  0  0  0  3  0  0  0  0  0  0
  194.0440  172.9680  141.8820 C   0  0  2  0  0  3  0  0  0  0  0  0
  190.1420  173.5150  140.0840 N   0  0  2  0  0  0  0  0  0  0  0  0
  188.7510  173.1340  139.8410 C   0  0  1  0  0  3  0  0  0  0  0  0
  187.9790  172.9610  141.1700 C   0  0  0  0  0  2  0  0  0  0  0  0
  193.9880  171.7480  141.0740 N   0  0  0  0  0  0  0  0  0  0  0  0
  190.6550  172.9750  143.7490 C   0  0  0  0  0  2  0  0  0  0  0  0
  189.7240  173.4990  142.6160 C   0  0  1  0  0  3  0  0  0  0  0  0
  193.2170  171.7810  140.0180 C   0  0  0  0  0  0  0  0  0  0  0  0
  191.1820  172.8330  139.3090 C   0  0  2  0  0  3  0  0  0  0  0  0
  190.8390  171.6410  138.6370 C   0  0  0  0  0  2  0  0  0  0  0  0
  194.2090  174.2330  141.0470 C   0  0  0  0  0  2  0  0  0  0  0  0
  192.5290  172.9770  139.6890 C   0  0  1  0  0  3  0  0  0  0  0  0
  190.5270  174.0750  141.4060 C   0  0  0  0  0  2  0  0  0  0  0  0
  194.4390  172.8230  143.2830 N   0  0  0  0  0  0  0  0  0  0  0  0
  193.0150  174.1710  140.1170 C   0  0  0  0  0  2  0  0  0  0  0  0
  192.8800  170.6300  139.3730 N   0  0  0  0  0  0  0  0  0  0  0  0
  188.8870  172.4000  142.1610 N   0  0  0  0  0  2  0  0  0  0  0  0
  192.0590  173.5890  143.7730 C   0  0  1  0  0  3  0  0  0  0  0  0
  192.1160  176.1410  146.4370 C   0  0  0  0  0  3  0  0  0  0  0  0
  192.2630  176.3700  144.0450 S   0  0  0  0  0  0  0  0  0  0  0  0
  192.0680  174.8520  145.9630 N   0  0  0  0  0  0  0  0  0  0  0  0
  192.2080  177.1460  145.5120 N   0  0  0  0  0  0  0  0  0  0  0  0
  192.1420  174.8160  144.6130 C   0  0  0  0  0  0  0  0  0  0  0  0
  188.0680  174.1480  138.9590 C   0  0  0  0  0  3  0  0  0  0  0  0
  187.4580  175.2010  139.5030 C   0  0  0  0  0  3  0  0  0  0  0  0
  186.7210  176.1810  138.6380 C   0  0  2  0  0  3  0  0  0  0  0  0
  185.7700  176.0410  136.4050 C   0  0  0  0  0  1  0  0  0  0  0  0
  187.0620  176.0520  137.1620 C   0  0  0  0  0  2  0  0  0  0  0  0
  186.9510  177.5890  139.1560 C   0  0  0  0  0  2  0  0  0  0  0  0
  185.8920  177.6010  141.3650 C   0  0  0  0  0  3  0  0  0  0  0  0
  188.2690  177.4720  141.2590 O   0  0  0  0  0  1  0  0  0  0  0  0
  187.0230  177.5790  140.6460 C   0  0  0  0  0  0  0  0  0  0  0  0
  185.8140  177.5070  142.8680 C   0  0  1  0  0  3  0  0  0  0  0  0
  184.5010  177.9180  143.3950 N   0  0  0  0  0  2  0  0  0  0  0  0
  184.5190  179.2950  143.8700 C   0  0  0  0  0  2  0  0  0  0  0  0
  185.1260  179.3590  145.2570 C   0  0  0  0  0  2  0  0  0  0  0  0
  184.3270  178.5020  146.2310 C   0  0  0  0  0  2  0  0  0  0  0  0
  184.9230  178.6180  147.6290 C   0  0  0  0  0  2  0  0  0  0  0  0
  186.3710  178.5000  147.5720 N   0  0  0  0  0  1  0  0  0  0  0  0
  186.3210  176.1810  143.4350 C   0  0  0  0  0  2  0  0  0  0  0  0
  188.4280  177.5360  144.5940 S   0  0  0  0  0  1  0  0  0  0  0  0
  187.0390  176.3760  144.7690 C   0  0  0  0  0  2  0  0  0  0  0  0
  195.0510  174.0420  143.8020 C   0  0  0  0  0  2  0  0  0  0  0  0
  195.6190  173.7960  145.1910 C   0  0  2  0  0  3  0  0  0  0  0  0
  195.6300  174.9890  145.9340 O   0  0  0  0  0  1  0  0  0  0  0  0
  197.0450  173.2730  145.0600 C   0  0  0  0  0  2  0  0  0  0  0  0
  197.1280  171.7900  145.1900 C   0  0  0  0  0  0  0  0  0  0  0  0
  196.8110  171.1700  146.3900 O   0  0  0  0  0  1  0  0  0  0  0  0
  197.4590  171.0930  144.1980 O   0  0  0  0  0  0  0  0  0  0  0  0
  2 12  1  0  0  0  0
  2 18  2  0  0  0  0
  3 13  1  6  0  0  0
  3 16  1  0  0  0  0
  4 15  1  1  0  0  0
  5 26  1  6  0  0  0
  5  4  1  0  0  0  0
  5  6  1  0  0  0  0
  6 19  1  0  0  0  0
  7  3  1  0  0  0  0
  8 20  1  0  0  0  0
  9 15  1  6  0  0  0
  9  8  1  0  0  0  0
 10  7  2  0  0  0  0
 11 12  1  1  0  0  0
 11 14  1  0  0  0  0
 11  4  1  0  0  0  0
 14 10  1  0  0  0  0
 14 17  1  1  0  0  0
 16 45  1  0  0  0  0
 16  1  1  0  0  0  0
 17 13  1  0  0  0  0
 18 10  1  0  0  0  0
 19  9  1  0  0  0  0
 20  1  1  0  0  0  0
 20 25  1  1  0  0  0
 22 25  1  0  0  0  0
 22 24  1  0  0  0  0
 23 21  1  0  0  0  0
 24 21  2  0  0  0  0
 25 23  2  0  0  0  0
 26 27  2  0  0  0  0
 28 30  1  6  0  0  0
 28 31  1  0  0  0  0
 28 27  1  0  0  0  0
 29 30  1  0  0  0  0
 31 34  1  0  0  0  0
 34 33  1  0  0  0  0
 34 32  2  0  0  0  0
 35 32  1  6  0  0  0
 35 36  1  0  0  0  0
 35 42  1  0  0  0  0
 36 37  1  0  0  0  0
 37 38  1  0  0  0  0
 38 39  1  0  0  0  0
 39 40  1  0  0  0  0
 41 40  1  0  0  0  0
 42 44  1  0  0  0  0
 43 44  1  0  0  0  0
 45 46  1  0  0  0  0
 46 47  1  1  0  0  0
 48 49  1  0  0  0  0
 48 46  1  0  0  0  0
 49 50  1  0  0  0  0
 51 49  2  0  0  0  0
M  END
>  <MODEL>
8

>  <REMARK>
 VINA RESULT:      -5.4      2.853      9.625
  Name = 
  18 active torsions:
  status: ('A' for Active; 'I' for Inactive)
    1  A    between atoms: C_1  and  C_3
    2  A    between atoms: C_1  and  C_13
    3  A    between atoms: C_2  and  C_8
    4  A    between atoms: C_2  and  C_32
    5  A    between atoms: C_4  and  C_48
    6  A    between atoms: C_4  and  C_50
    7  A    between atoms: C_4  and  C_51
    8  A    between atoms: C_8  and  C_16
    9  A    between atoms: C_8  and  N_17
   10  A    between atoms: C_11  and  C_37
   11  A    between atoms: C_12  and  C_39
   12  A    between atoms: C_12  and  C_45
   13  A    between atoms: C_13  and  C_41
   14  A    between atoms: N_17  and  C_41
   15  A    between atoms: C_19  and  C_45
   16  A    between atoms: N_35  and  C_39
   17  A    between atoms: C_40  and  C_49
   18  A    between atoms: C_42  and  C_48
                            x       y       z     vdW  Elec       q    Type
                         _______ _______ _______ _____ _____    ______ ____

>  <TORSDO>
F 18

$$$$
=
 OpenBabel11062421203D

 51 55  0  0  1  0  0  0  0  0999 V2000
  189.3740  174.6200  144.1080 C   0  0  0  0  0  2  0  0  0  0  0  0
  194.6490  176.0360  146.5880 C   0  0  0  0  0  3  0  0  0  0  0  0
  190.8410  176.4980  143.9460 C   0  0  2  0  0  3  0  0  0  0  0  0
  194.4200  174.1020  143.4860 N   0  0  2  0  0  0  0  0  0  0  0  0
  195.3140  173.0050  143.8560 C   0  0  1  0  0  3  0  0  0  0  0  0
  194.5600  171.6560  143.8810 C   0  0  0  0  0  2  0  0  0  0  0  0
  191.4740  176.7760  145.2370 N   0  0  0  0  0  0  0  0  0  0  0  0
  190.9820  172.6410  143.6800 C   0  0  0  0  0  2  0  0  0  0  0  0
  192.4660  172.4550  143.2470 C   0  0  1  0  0  3  0  0  0  0  0  0
  192.7750  176.6540  145.2890 C   0  0  0  0  0  0  0  0  0  0  0  0
  194.5010  175.3410  144.2640 C   0  0  2  0  0  3  0  0  0  0  0  0
  195.1660  175.3060  145.5070 C   0  0  0  0  0  2  0  0  0  0  0  0
  191.5610  177.1530  142.7720 C   0  0  0  0  0  2  0  0  0  0  0  0
  193.4950  176.3150  144.1150 C   0  0  1  0  0  3  0  0  0  0  0  0
  193.1310  173.7990  142.8100 C   0  0  0  0  0  2  0  0  0  0  0  0
  189.4290  176.1140  143.9640 N   0  0  0  0  0  0  0  0  0  0  0  0
  192.9640  176.5960  142.8960 C   0  0  0  0  0  2  0  0  0  0  0  0
  193.4180  176.6130  146.4890 N   0  0  0  0  0  0  0  0  0  0  0  0
  193.2070  171.8910  144.3650 N   0  0  0  0  0  2  0  0  0  0  0  0
  190.2860  173.8760  143.0990 C   0  0  1  0  0  3  0  0  0  0  0  0
  189.2330  173.5630  139.5760 C   0  0  0  0  0  3  0  0  0  0  0  0
  188.0780  173.0010  141.6120 S   0  0  0  0  0  0  0  0  0  0  0  0
  190.1250  173.8700  140.5760 N   0  0  0  0  0  0  0  0  0  0  0  0
  188.0120  173.0740  139.9550 N   0  0  0  0  0  0  0  0  0  0  0  0
  189.6120  173.6050  141.7990 C   0  0  0  0  0  0  0  0  0  0  0  0
  196.4910  172.9380  142.9170 C   0  0  0  0  0  3  0  0  0  0  0  0
  196.6830  173.9040  142.0190 C   0  0  0  0  0  3  0  0  0  0  0  0
  197.8140  173.8140  141.0380 C   0  0  2  0  0  3  0  0  0  0  0  0
  196.9250  176.0380  140.6250 C   0  0  0  0  0  1  0  0  0  0  0  0
  197.9410  175.0430  140.1530 C   0  0  0  0  0  2  0  0  0  0  0  0
  197.6830  172.5380  140.2260 C   0  0  0  0  0  2  0  0  0  0  0  0
  195.7000  173.0170  138.8690 C   0  0  0  0  0  3  0  0  0  0  0  0
  197.8210  172.9810  137.7840 O   0  0  0  0  0  1  0  0  0  0  0  0
  197.0270  172.8310  138.9180 C   0  0  0  0  0  0  0  0  0  0  0  0
  194.9200  173.4030  137.6370 C   0  0  1  0  0  3  0  0  0  0  0  0
  194.0260  172.3290  137.1710 N   0  0  0  0  0  2  0  0  0  0  0  0
  192.6460  172.5670  137.5700 C   0  0  0  0  0  2  0  0  0  0  0  0
  191.8920  171.2540  137.6440 C   0  0  0  0  0  2  0  0  0  0  0  0
  192.6480  170.2510  138.5060 C   0  0  0  0  0  2  0  0  0  0  0  0
  191.6710  169.5050  139.4080 C   0  0  0  0  0  2  0  0  0  0  0  0
  190.8620  170.4480  140.1650 N   0  0  0  0  0  1  0  0  0  0  0  0
  194.2460  174.7720  137.7320 C   0  0  0  0  0  2  0  0  0  0  0  0
  196.1310  175.4610  135.8380 S   0  0  0  0  0  1  0  0  0  0  0  0
  194.4210  175.5780  136.4470 C   0  0  0  0  0  2  0  0  0  0  0  0
  188.7590  176.4600  142.7150 C   0  0  0  0  0  2  0  0  0  0  0  0
  187.4730  177.2190  143.0000 C   0  0  2  0  0  3  0  0  0  0  0  0
  187.2760  178.2290  142.0420 O   0  0  0  0  0  1  0  0  0  0  0  0
  187.5660  177.8530  144.3850 C   0  0  0  0  0  2  0  0  0  0  0  0
  186.2290  178.0980  144.9960 C   0  0  0  0  0  0  0  0  0  0  0  0
  185.6820  179.3730  145.0040 O   0  0  0  0  0  0  0  0  0  0  0  0
  185.5780  177.1390  145.4810 O   0  0  0  0  0  1  0  0  0  0  0  0
  3 13  1  6  0  0  0
  3 16  1  0  0  0  0
  3  7  1  0  0  0  0
  4 15  1  1  0  0  0
  4  5  1  0  0  0  0
  4 11  1  0  0  0  0
  5 26  1  6  0  0  0
  5  6  1  0  0  0  0
  6 19  1  0  0  0  0
  7 10  2  0  0  0  0
  9 15  1  1  0  0  0
  9  8  1  0  0  0  0
  9 19  1  0  0  0  0
 10 18  1  0  0  0  0
 11 12  1  1  0  0  0
 12  2  1  0  0  0  0
 13 17  1  0  0  0  0
 14 17  1  6  0  0  0
 14 11  1  0  0  0  0
 14 10  1  0  0  0  0
 16  1  1  0  0  0  0
 18  2  2  0  0  0  0
 20 25  1  6  0  0  0
 20  8  1  0  0  0  0
 20  1  1  0  0  0  0
 21 24  2  0  0  0  0
 21 23  1  0  0  0  0
 22 25  1  0  0  0  0
 23 25  2  0  0  0  0
 24 22  1  0  0  0  0
 27 26  2  0  0  0  0
 28 30  1  6  0  0  0
 28 27  1  0  0  0  0
 30 29  1  0  0  0  0
 31 28  1  0  0  0  0
 32 34  2  0  0  0  0
 33 34  1  0  0  0  0
 34 31  1  0  0  0  0
 35 42  1  1  0  0  0
 35 32  1  0  0  0  0
 36 37  1  0  0  0  0
 36 35  1  0  0  0  0
 37 38  1  0  0  0  0
 38 39  1  0  0  0  0
 39 40  1  0  0  0  0
 40 41  1  0  0  0  0
 43 44  1  0  0  0  0
 44 42  1  0  0  0  0
 45 46  1  0  0  0  0
 45 16  1  0  0  0  0
 46 47  1  6  0  0  0
 46 48  1  0  0  0  0
 48 49  1  0  0  0  0
 49 50  2  0  0  0  0
 49 51  1  0  0  0  0
M  END
>  <MODEL>
9

>  <REMARK>
 VINA RESULT:      -5.4      1.995      2.556
  Name = 
  18 active torsions:
  status: ('A' for Active; 'I' for Inactive)
    1  A    between atoms: C_1  and  C_3
    2  A    between atoms: C_1  and  C_13
    3  A    between atoms: C_2  and  C_8
    4  A    between atoms: C_2  and  C_32
    5  A    between atoms: C_4  and  C_48
    6  A    between atoms: C_4  and  C_50
    7  A    between atoms: C_4  and  C_51
    8  A    between atoms: C_8  and  C_16
    9  A    between atoms: C_8  and  N_17
   10  A    between atoms: C_11  and  C_37
   11  A    between atoms: C_12  and  C_39
   12  A    between atoms: C_12  and  C_45
   13  A    between atoms: C_13  and  C_41
   14  A    between atoms: N_17  and  C_41
   15  A    between atoms: C_19  and  C_45
   16  A    between atoms: N_35  and  C_39
   17  A    between atoms: C_40  and  C_49
   18  A    between atoms: C_42  and  C_48
                            x       y       z     vdW  Elec       q    Type
                         _______ _______ _______ _____ _____    ______ ____

>  <TORSDO>
F 18

$$$$
