=
 OpenBabel11062420583D

 31 36  0  0  1  0  0  0  0  0999 V2000
  185.7030  177.4380  143.2330 C   0  0  0  0  0  0  0  0  0  0  0  0
  186.7670  176.9830  142.4390 C   0  0  0  0  0  0  0  0  0  0  0  0
  185.5670  177.6360  140.4710 N   0  0  0  0  0  0  0  0  0  0  0  0
  186.6720  177.0920  141.0440 C   0  0  0  0  0  3  0  0  0  0  0  0
  184.5260  178.0860  141.2200 C   0  0  0  0  0  0  0  0  0  0  0  0
  184.5750  177.9960  142.6120 C   0  0  0  0  0  3  0  0  0  0  0  0
  183.3850  178.6500  140.5850 N   0  0  0  0  0  1  0  0  0  0  0  0
  192.9020  176.5580  142.6400 C   0  0  0  0  0  2  0  0  0  0  0  0
  189.2400  177.1700  142.7530 C   0  0  0  0  0  2  0  0  0  0  0  0
  190.4940  176.4730  143.2050 C   0  0  0  0  0  0  0  0  0  0  0  0
  189.2930  174.3020  143.4560 C   0  0  0  0  0  2  0  0  0  0  0  0
  191.8780  173.4200  144.6880 C   0  0  0  0  0  2  0  0  0  0  0  0
  193.0730  175.1190  143.1510 C   0  0  2  0  0  3  0  0  0  0  0  0
  193.2830  173.2940  145.3370 C   0  0  0  0  0  2  0  0  0  0  0  0
  190.5470  175.1420  143.4130 C   0  0  0  0  0  0  0  0  0  0  0  0
  188.1500  174.9200  142.6580 C   0  0  0  0  0  2  0  0  0  0  0  0
  194.2420  173.5650  144.2830 N   0  0  2  0  0  0  0  0  0  0  0  0
  195.3950  174.4330  144.4730 C   0  0  0  0  0  2  0  0  0  0  0  0
  191.7500  177.2760  143.3330 C   0  0  0  0  0  2  0  0  0  0  0  0
  191.8190  174.5390  143.7080 N   0  0  0  0  0  0  0  0  0  0  0  0
  194.0860  175.0410  144.2630 C   0  0  1  0  0  3  0  0  0  0  0  0
  187.9760  176.3720  143.0810 C   0  0  2  0  0  3  0  0  0  0  0  0
  185.7840  177.3310  144.6270 O   0  0  0  0  0  0  0  0  0  0  0  0
  186.4680  178.2720  145.4480 C   0  0  0  0  0  2  0  0  0  0  0  0
  187.0200  177.5920  146.6950 C   0  0  0  0  0  2  0  0  0  0  0  0
  190.7730  176.8000  146.8670 C   0  0  0  0  0  2  0  0  0  0  0  0
  190.5880  175.4530  147.3090 O   0  0  0  0  0  0  0  0  0  0  0  0
  189.3500  174.8010  147.2210 C   0  0  0  0  0  3  0  0  0  0  0  0
  188.3390  176.8960  146.3990 C   0  0  2  0  0  3  0  0  0  0  0  0
  188.2590  175.4570  146.8180 C   0  0  0  0  0  3  0  0  0  0  0  0
  189.5000  177.6080  147.0970 C   0  0  0  0  0  2  0  0  0  0  0  0
  1 23  1  0  0  0  0
  2  1  2  0  0  0  0
  3  4  2  0  0  0  0
  3  5  1  0  0  0  0
  4  2  1  0  0  0  0
  5  6  2  0  0  0  0
  6  1  1  0  0  0  0
  7  5  1  0  0  0  0
  8 19  1  0  0  0  0
  9 22  1  0  0  0  0
  9 10  1  0  0  0  0
 10 19  1  0  0  0  0
 10 15  2  0  0  0  0
 12 14  1  0  0  0  0
 13  8  1  1  0  0  0
 13 20  1  0  0  0  0
 13 21  1  0  0  0  0
 15 11  1  0  0  0  0
 15 20  1  0  0  0  0
 16 22  1  0  0  0  0
 16 11  1  0  0  0  0
 17 18  1  1  0  0  0
 17 14  1  0  0  0  0
 20 12  1  0  0  0  0
 21 17  1  0  0  0  0
 21 18  1  6  0  0  0
 22  2  1  6  0  0  0
 23 24  1  0  0  0  0
 24 25  1  0  0  0  0
 26 31  1  0  0  0  0
 26 27  1  0  0  0  0
 28 27  1  0  0  0  0
 29 25  1  1  0  0  0
 29 30  1  0  0  0  0
 29 31  1  0  0  0  0
 30 28  2  0  0  0  0
M  END
>  <MODEL>
1

>  <REMARK>
 VINA RESULT:      -7.6      0.000      0.000
  Name = 
  5 active torsions:
  status: ('A' for Active; 'I' for Inactive)
    1  A    between atoms: C_1  and  O_28
    2  A    between atoms: C_7  and  C_30
    3  A    between atoms: C_20  and  C_24
    4  A    between atoms: C_20  and  O_28
    5  A    between atoms: C_24  and  C_25
                            x       y       z     vdW  Elec       q    Type
                         _______ _______ _______ _____ _____    ______ ____

>  <TORSDO>
F 5

$$$$
=
 OpenBabel11062420583D

 31 36  0  0  1  0  0  0  0  0999 V2000
  187.2830  177.6020  144.6040 C   0  0  0  0  0  0  0  0  0  0  0  0
  188.3750  177.3310  145.4440 C   0  0  0  0  0  0  0  0  0  0  0  0
  187.0580  177.9600  147.3450 N   0  0  0  0  0  0  0  0  0  0  0  0
  188.2360  177.5230  146.8270 C   0  0  0  0  0  3  0  0  0  0  0  0
  185.9870  178.2260  146.5510 C   0  0  0  0  0  0  0  0  0  0  0  0
  186.0800  178.0520  145.1690 C   0  0  0  0  0  3  0  0  0  0  0  0
  184.7700  178.6830  147.1280 N   0  0  0  0  0  1  0  0  0  0  0  0
  194.2100  175.6410  146.4170 C   0  0  0  0  0  2  0  0  0  0  0  0
  190.5790  176.2620  145.9400 C   0  0  0  0  0  2  0  0  0  0  0  0
  191.9650  175.9720  145.4310 C   0  0  0  0  0  0  0  0  0  0  0  0
  191.6240  177.4280  143.4350 C   0  0  0  0  0  2  0  0  0  0  0  0
  194.2550  176.2750  142.5850 C   0  0  0  0  0  2  0  0  0  0  0  0
  194.8570  176.0650  145.0900 C   0  0  2  0  0  3  0  0  0  0  0  0
  195.5590  175.4540  142.3900 C   0  0  0  0  0  2  0  0  0  0  0  0
  192.4850  176.5930  144.3530 C   0  0  0  0  0  0  0  0  0  0  0  0
  190.3960  177.9910  144.1410 C   0  0  0  0  0  2  0  0  0  0  0  0
  196.4270  175.8020  143.5000 N   0  0  2  0  0  0  0  0  0  0  0  0
  197.1670  174.8060  144.2600 C   0  0  0  0  0  2  0  0  0  0  0  0
  192.8290  175.0310  146.2100 C   0  0  0  0  0  2  0  0  0  0  0  0
  193.8640  176.3600  144.0190 N   0  0  0  0  0  0  0  0  0  0  0  0
  195.7460  174.9830  144.5330 C   0  0  1  0  0  3  0  0  0  0  0  0
  189.6740  176.8610  144.8620 C   0  0  2  0  0  3  0  0  0  0  0  0
  187.4110  177.4180  143.2220 O   0  0  0  0  0  0  0  0  0  0  0  0
  186.8130  176.3350  142.5160 C   0  0  0  0  0  2  0  0  0  0  0  0
  187.8240  175.6830  141.5820 C   0  0  0  0  0  2  0  0  0  0  0  0
  188.9190  172.1480  142.6080 C   0  0  0  0  0  2  0  0  0  0  0  0
  190.2730  172.3160  142.1810 O   0  0  0  0  0  0  0  0  0  0  0  0
  190.8180  173.5790  141.9060 C   0  0  0  0  0  3  0  0  0  0  0  0
  188.6010  174.5880  142.2970 C   0  0  2  0  0  3  0  0  0  0  0  0
  190.0540  174.6730  141.9270 C   0  0  0  0  0  3  0  0  0  0  0  0
  188.0290  173.2090  141.9650 C   0  0  0  0  0  2  0  0  0  0  0  0
  1  6  2  0  0  0  0
  1  2  1  0  0  0  0
  2  4  2  0  0  0  0
  4  3  1  0  0  0  0
  5  7  1  0  0  0  0
  5  3  2  0  0  0  0
  6  5  1  0  0  0  0
 10  9  1  0  0  0  0
 10 19  1  0  0  0  0
 11 16  1  0  0  0  0
 11 15  1  0  0  0  0
 12 20  1  0  0  0  0
 13  8  1  1  0  0  0
 14 12  1  0  0  0  0
 15 10  2  0  0  0  0
 16 22  1  0  0  0  0
 17 14  1  6  0  0  0
 17 18  1  0  0  0  0
 17 21  1  0  0  0  0
 19  8  1  0  0  0  0
 20 15  1  0  0  0  0
 20 13  1  0  0  0  0
 21 18  1  1  0  0  0
 21 13  1  0  0  0  0
 22  2  1  1  0  0  0
 22  9  1  0  0  0  0
 23  1  1  0  0  0  0
 24 23  1  0  0  0  0
 25 24  1  0  0  0  0
 27 26  1  0  0  0  0
 28 30  2  0  0  0  0
 28 27  1  0  0  0  0
 29 25  1  6  0  0  0
 30 29  1  0  0  0  0
 31 29  1  0  0  0  0
 31 26  1  0  0  0  0
M  END
>  <MODEL>
2

>  <REMARK>
 VINA RESULT:      -7.5      2.615      4.428
  Name = 
  5 active torsions:
  status: ('A' for Active; 'I' for Inactive)
    1  A    between atoms: C_1  and  O_28
    2  A    between atoms: C_7  and  C_30
    3  A    between atoms: C_20  and  C_24
    4  A    between atoms: C_20  and  O_28
    5  A    between atoms: C_24  and  C_25
                            x       y       z     vdW  Elec       q    Type
                         _______ _______ _______ _____ _____    ______ ____

>  <TORSDO>
F 5

$$$$
=
 OpenBabel11062420583D

 31 36  0  0  1  0  0  0  0  0999 V2000
  186.1750  177.3950  142.7690 C   0  0  0  0  0  0  0  0  0  0  0  0
  187.1010  177.1600  141.7410 C   0  0  0  0  0  0  0  0  0  0  0  0
  185.4940  177.9170  140.1330 N   0  0  0  0  0  0  0  0  0  0  0  0
  186.7310  177.4290  140.4150 C   0  0  0  0  0  3  0  0  0  0  0  0
  184.5830  178.1550  141.1130 C   0  0  0  0  0  0  0  0  0  0  0  0
  184.9060  177.8990  142.4460 C   0  0  0  0  0  3  0  0  0  0  0  0
  183.2970  178.6650  140.7800 N   0  0  0  0  0  1  0  0  0  0  0  0
  190.4470  173.0150  144.8200 C   0  0  0  0  0  2  0  0  0  0  0  0
  188.3590  175.2100  142.6710 C   0  0  0  0  0  2  0  0  0  0  0  0
  189.6800  174.7150  143.1940 C   0  0  0  0  0  0  0  0  0  0  0  0
  190.6450  177.0150  143.1640 C   0  0  0  0  0  2  0  0  0  0  0  0
  193.1900  175.5720  143.8070 C   0  0  0  0  0  2  0  0  0  0  0  0
  191.7580  173.7930  145.0150 C   0  0  2  0  0  3  0  0  0  0  0  0
  194.3350  174.5510  144.0480 C   0  0  0  0  0  2  0  0  0  0  0  0
  190.6840  175.5500  143.5300 C   0  0  0  0  0  0  0  0  0  0  0  0
  189.2220  177.5360  142.9980 C   0  0  0  0  0  2  0  0  0  0  0  0
  193.9940  173.8390  145.2640 N   0  0  2  0  0  0  0  0  0  0  0  0
  194.1060  172.3930  145.3860 C   0  0  0  0  0  2  0  0  0  0  0  0
  189.8460  173.2490  143.4390 C   0  0  0  0  0  2  0  0  0  0  0  0
  191.8590  175.0020  144.1510 N   0  0  0  0  0  0  0  0  0  0  0  0
  192.9600  172.9500  144.6770 C   0  0  1  0  0  3  0  0  0  0  0  0
  188.4590  176.6100  142.0610 C   0  0  2  0  0  3  0  0  0  0  0  0
  186.5320  177.1260  144.0970 O   0  0  0  0  0  0  0  0  0  0  0  0
  186.4200  178.0800  145.1480 C   0  0  0  0  0  2  0  0  0  0  0  0
  186.8570  177.4680  146.4730 C   0  0  0  0  0  2  0  0  0  0  0  0
  190.6270  176.9310  146.9710 C   0  0  0  0  0  2  0  0  0  0  0  0
  190.4830  175.6440  147.5760 O   0  0  0  0  0  0  0  0  0  0  0  0
  189.2890  174.9130  147.5020 C   0  0  0  0  0  3  0  0  0  0  0  0
  188.2280  176.8200  146.3510 C   0  0  2  0  0  3  0  0  0  0  0  0
  188.1940  175.4450  146.9520 C   0  0  0  0  0  3  0  0  0  0  0  0
  189.3010  177.6840  147.0160 C   0  0  0  0  0  2  0  0  0  0  0  0
  1 23  1  0  0  0  0
  2  1  2  0  0  0  0
  3  4  2  0  0  0  0
  3  5  1  0  0  0  0
  4  2  1  0  0  0  0
  5  6  2  0  0  0  0
  6  1  1  0  0  0  0
  7  5  1  0  0  0  0
  9 10  1  0  0  0  0
 10 19  1  0  0  0  0
 10 15  2  0  0  0  0
 11 15  1  0  0  0  0
 12 14  1  0  0  0  0
 12 20  1  0  0  0  0
 13  8  1  6  0  0  0
 15 20  1  0  0  0  0
 16 11  1  0  0  0  0
 17 14  1  6  0  0  0
 17 18  1  0  0  0  0
 19  8  1  0  0  0  0
 20 13  1  0  0  0  0
 21 13  1  0  0  0  0
 21 17  1  0  0  0  0
 21 18  1  1  0  0  0
 22  2  1  1  0  0  0
 22  9  1  0  0  0  0
 22 16  1  0  0  0  0
 23 24  1  0  0  0  0
 24 25  1  0  0  0  0
 26 31  1  0  0  0  0
 26 27  1  0  0  0  0
 28 27  1  0  0  0  0
 29 25  1  1  0  0  0
 29 30  1  0  0  0  0
 29 31  1  0  0  0  0
 30 28  2  0  0  0  0
M  END
>  <MODEL>
3

>  <REMARK>
 VINA RESULT:      -7.1      0.686      1.852
  Name = 
  5 active torsions:
  status: ('A' for Active; 'I' for Inactive)
    1  A    between atoms: C_1  and  O_28
    2  A    between atoms: C_7  and  C_30
    3  A    between atoms: C_20  and  C_24
    4  A    between atoms: C_20  and  O_28
    5  A    between atoms: C_24  and  C_25
                            x       y       z     vdW  Elec       q    Type
                         _______ _______ _______ _____ _____    ______ ____

>  <TORSDO>
F 5

$$$$
=
 OpenBabel11062420583D

 31 36  0  0  1  0  0  0  0  0999 V2000
  192.5670  174.4040  145.1100 C   0  0  0  0  0  0  0  0  0  0  0  0
  192.1150  175.7290  145.0010 C   0  0  0  0  0  0  0  0  0  0  0  0
  194.3700  176.4600  144.6520 N   0  0  0  0  0  0  0  0  0  0  0  0
  193.0480  176.7510  144.7720 C   0  0  0  0  0  3  0  0  0  0  0  0
  194.8300  175.1850  144.7500 C   0  0  0  0  0  0  0  0  0  0  0  0
  193.9380  174.1360  144.9800 C   0  0  0  0  0  3  0  0  0  0  0  0
  196.2210  174.9180  144.6190 N   0  0  0  0  0  1  0  0  0  0  0  0
  187.0680  178.2900  142.5900 C   0  0  0  0  0  2  0  0  0  0  0  0
  190.0290  176.4030  143.8020 C   0  0  0  0  0  2  0  0  0  0  0  0
  188.6240  176.9210  143.9420 C   0  0  0  0  0  0  0  0  0  0  0  0
  188.9350  177.3340  146.3820 C   0  0  0  0  0  2  0  0  0  0  0  0
  185.9920  177.8930  146.3010 C   0  0  0  0  0  2  0  0  0  0  0  0
  186.3150  178.6950  143.8660 C   0  0  2  0  0  3  0  0  0  0  0  0
  184.4850  178.0350  145.9560 C   0  0  0  0  0  2  0  0  0  0  0  0
  188.1610  177.4550  145.0910 C   0  0  0  0  0  0  0  0  0  0  0  0
  190.4320  177.1650  146.1500 C   0  0  0  0  0  2  0  0  0  0  0  0
  184.3930  179.0930  144.9680 N   0  0  2  0  0  0  0  0  0  0  0  0
  183.5720  178.9810  143.7710 C   0  0  0  0  0  2  0  0  0  0  0  0
  187.7420  176.9310  142.7340 C   0  0  0  0  0  2  0  0  0  0  0  0
  186.8520  178.0520  145.0970 N   0  0  0  0  0  0  0  0  0  0  0  0
  184.8620  178.3010  143.8030 C   0  0  1  0  0  3  0  0  0  0  0  0
  190.6570  176.0410  145.1490 C   0  0  2  0  0  3  0  0  0  0  0  0
  191.6460  173.3750  145.3420 O   0  0  0  0  0  0  0  0  0  0  0  0
  191.2570  172.4310  144.3490 C   0  0  0  0  0  2  0  0  0  0  0  0
  189.8010  172.6400  143.9540 C   0  0  0  0  0  2  0  0  0  0  0  0
  188.1920  173.0630  140.4930 C   0  0  0  0  0  2  0  0  0  0  0  0
  189.3010  173.7710  139.9340 O   0  0  0  0  0  0  0  0  0  0  0  0
  190.5620  173.7900  140.5480 C   0  0  0  0  0  3  0  0  0  0  0  0
  189.6210  172.5260  142.4480 C   0  0  2  0  0  3  0  0  0  0  0  0
  190.7460  173.2340  141.7480 C   0  0  0  0  0  3  0  0  0  0  0  0
  188.2660  173.0890  142.0170 C   0  0  0  0  0  2  0  0  0  0  0  0
  1 23  1  0  0  0  0
  2  1  1  0  0  0  0
  3  5  2  0  0  0  0
  3  4  1  0  0  0  0
  4  2  2  0  0  0  0
  5  6  1  0  0  0  0
  6  1  2  0  0  0  0
  7  5  1  0  0  0  0
  8 19  1  0  0  0  0
  9 10  1  0  0  0  0
  9 22  1  0  0  0  0
 10 15  2  0  0  0  0
 13  8  1  6  0  0  0
 13 20  1  0  0  0  0
 14 12  1  0  0  0  0
 15 20  1  0  0  0  0
 15 11  1  0  0  0  0
 16 11  1  0  0  0  0
 17 18  1  6  0  0  0
 17 14  1  0  0  0  0
 19 10  1  0  0  0  0
 20 12  1  0  0  0  0
 21 18  1  6  0  0  0
 21 13  1  0  0  0  0
 21 17  1  0  0  0  0
 22  2  1  6  0  0  0
 22 16  1  0  0  0  0
 24 23  1  0  0  0  0
 25 24  1  0  0  0  0
 26 31  1  0  0  0  0
 27 26  1  0  0  0  0
 27 28  1  0  0  0  0
 28 30  2  0  0  0  0
 29 25  1  1  0  0  0
 30 29  1  0  0  0  0
 31 29  1  0  0  0  0
M  END
>  <MODEL>
4

>  <REMARK>
 VINA RESULT:      -7.0      2.462      7.789
  Name = 
  5 active torsions:
  status: ('A' for Active; 'I' for Inactive)
    1  A    between atoms: C_1  and  O_28
    2  A    between atoms: C_7  and  C_30
    3  A    between atoms: C_20  and  C_24
    4  A    between atoms: C_20  and  O_28
    5  A    between atoms: C_24  and  C_25
                            x       y       z     vdW  Elec       q    Type
                         _______ _______ _______ _____ _____    ______ ____

>  <TORSDO>
F 5

$$$$
=
 OpenBabel11062420583D

 31 36  0  0  1  0  0  0  0  0999 V2000
  192.8900  174.7340  145.2130 C   0  0  0  0  0  0  0  0  0  0  0  0
  192.8630  176.0980  144.8810 C   0  0  0  0  0  0  0  0  0  0  0  0
  195.2580  176.1460  144.9200 N   0  0  0  0  0  0  0  0  0  0  0  0
  194.0750  176.7900  144.7420 C   0  0  0  0  0  3  0  0  0  0  0  0
  195.3080  174.8260  145.2380 C   0  0  0  0  0  0  0  0  0  0  0  0
  194.1280  174.0970  145.3900 C   0  0  0  0  0  3  0  0  0  0  0  0
  196.5650  174.1850  145.4180 N   0  0  0  0  0  1  0  0  0  0  0  0
  187.0260  176.7900  146.7000 C   0  0  0  0  0  2  0  0  0  0  0  0
  190.6560  176.6300  145.9270 C   0  0  0  0  0  2  0  0  0  0  0  0
  189.2610  177.1440  145.6970 C   0  0  0  0  0  0  0  0  0  0  0  0
  189.5890  177.1650  143.2250 C   0  0  0  0  0  2  0  0  0  0  0  0
  186.9360  178.5570  143.2420 C   0  0  0  0  0  2  0  0  0  0  0  0
  186.3660  177.2280  145.3830 C   0  0  2  0  0  3  0  0  0  0  0  0
  185.6220  179.3130  143.5800 C   0  0  0  0  0  2  0  0  0  0  0  0
  188.7320  177.2770  144.4640 C   0  0  0  0  0  0  0  0  0  0  0  0
  190.8310  176.3110  143.4510 C   0  0  0  0  0  2  0  0  0  0  0  0
  184.7720  178.3620  144.2700 N   0  0  2  0  0  0  0  0  0  0  0  0
  184.0340  178.6990  145.4770 C   0  0  0  0  0  2  0  0  0  0  0  0
  188.3990  177.4250  146.8880 C   0  0  0  0  0  2  0  0  0  0  0  0
  187.3470  177.6430  144.3420 N   0  0  0  0  0  0  0  0  0  0  0  0
  185.4600  178.4150  145.5840 C   0  0  1  0  0  3  0  0  0  0  0  0
  191.5520  176.8020  144.6990 C   0  0  2  0  0  3  0  0  0  0  0  0
  191.6860  174.0330  145.3580 O   0  0  0  0  0  0  0  0  0  0  0  0
  191.3790  172.8440  144.6380 C   0  0  0  0  0  2  0  0  0  0  0  0
  189.8870  172.7730  144.3350 C   0  0  0  0  0  2  0  0  0  0  0  0
  188.4370  173.5540  140.8660 C   0  0  0  0  0  2  0  0  0  0  0  0
  189.7090  173.7900  140.2590 O   0  0  0  0  0  0  0  0  0  0  0  0
  190.9110  173.3930  140.8620 C   0  0  0  0  0  3  0  0  0  0  0  0
  189.6380  172.6500  142.8400 C   0  0  2  0  0  3  0  0  0  0  0  0
  190.9200  172.8740  142.0920 C   0  0  0  0  0  3  0  0  0  0  0  0
  188.5580  173.6340  142.3860 C   0  0  0  0  0  2  0  0  0  0  0  0
  1 23  1  0  0  0  0
  1  6  1  0  0  0  0
  2  1  2  0  0  0  0
  3  5  1  0  0  0  0
  4  2  1  0  0  0  0
  4  3  2  0  0  0  0
  5  6  2  0  0  0  0
  5  7  1  0  0  0  0
  8 19  1  0  0  0  0
 10  9  1  0  0  0  0
 10 19  1  0  0  0  0
 11 16  1  0  0  0  0
 11 15  1  0  0  0  0
 12 14  1  0  0  0  0
 12 20  1  0  0  0  0
 13 21  1  0  0  0  0
 13  8  1  1  0  0  0
 15 10  2  0  0  0  0
 16 22  1  0  0  0  0
 17 14  1  6  0  0  0
 17 18  1  0  0  0  0
 17 21  1  0  0  0  0
 20 15  1  0  0  0  0
 20 13  1  0  0  0  0
 21 18  1  1  0  0  0
 22  2  1  1  0  0  0
 22  9  1  0  0  0  0
 24 23  1  0  0  0  0
 25 24  1  0  0  0  0
 26 31  1  0  0  0  0
 27 28  1  0  0  0  0
 27 26  1  0  0  0  0
 28 30  2  0  0  0  0
 29 25  1  1  0  0  0
 30 29  1  0  0  0  0
 31 29  1  0  0  0  0
M  END
>  <MODEL>
5

>  <REMARK>
 VINA RESULT:      -6.9      2.354      7.793
  Name = 
  5 active torsions:
  status: ('A' for Active; 'I' for Inactive)
    1  A    between atoms: C_1  and  O_28
    2  A    between atoms: C_7  and  C_30
    3  A    between atoms: C_20  and  C_24
    4  A    between atoms: C_20  and  O_28
    5  A    between atoms: C_24  and  C_25
                            x       y       z     vdW  Elec       q    Type
                         _______ _______ _______ _____ _____    ______ ____

>  <TORSDO>
F 5

$$$$
=
 OpenBabel11062420583D

 31 36  0  0  1  0  0  0  0  0999 V2000
  186.9500  177.3000  144.6290 C   0  0  0  0  0  0  0  0  0  0  0  0
  187.6320  177.1700  145.8490 C   0  0  0  0  0  0  0  0  0  0  0  0
  185.7150  178.0290  147.0020 N   0  0  0  0  0  0  0  0  0  0  0  0
  186.9860  177.5490  147.0350 C   0  0  0  0  0  3  0  0  0  0  0  0
  185.0340  178.1590  145.8330 C   0  0  0  0  0  0  0  0  0  0  0  0
  185.6380  177.7980  144.6280 C   0  0  0  0  0  3  0  0  0  0  0  0
  183.7050  178.6660  145.8370 N   0  0  0  0  0  1  0  0  0  0  0  0
  193.0030  176.5440  142.9130 C   0  0  0  0  0  2  0  0  0  0  0  0
  189.8910  177.3150  144.7910 C   0  0  0  0  0  2  0  0  0  0  0  0
  191.2450  176.6730  144.6500 C   0  0  0  0  0  0  0  0  0  0  0  0
  190.5020  174.6480  145.9020 C   0  0  0  0  0  2  0  0  0  0  0  0
  193.4060  173.9280  145.7560 C   0  0  0  0  0  2  0  0  0  0  0  0
  193.5130  175.2320  143.5280 C   0  0  2  0  0  3  0  0  0  0  0  0
  194.9500  173.8770  145.5910 C   0  0  0  0  0  2  0  0  0  0  0  0
  191.4910  175.4100  145.0530 C   0  0  0  0  0  0  0  0  0  0  0  0
  189.0710  175.1390  145.7120 C   0  0  0  0  0  2  0  0  0  0  0  0
  195.2050  173.8910  144.1630 N   0  0  2  0  0  0  0  0  0  0  0  0
  196.2270  174.7310  143.5560 C   0  0  0  0  0  2  0  0  0  0  0  0
  192.3260  177.4330  143.9500 C   0  0  0  0  0  2  0  0  0  0  0  0
  192.7720  174.8270  144.7550 N   0  0  0  0  0  0  0  0  0  0  0  0
  194.9580  175.3370  143.9430 C   0  0  1  0  0  3  0  0  0  0  0  0
  189.0380  176.6520  145.8730 C   0  0  2  0  0  3  0  0  0  0  0  0
  187.5850  176.9290  143.4380 O   0  0  0  0  0  0  0  0  0  0  0  0
  186.9160  176.8460  142.1830 C   0  0  0  0  0  2  0  0  0  0  0  0
  187.5570  175.7780  141.3050 C   0  0  0  0  0  2  0  0  0  0  0  0
  188.7770  172.4430  142.7640 C   0  0  0  0  0  2  0  0  0  0  0  0
  190.1130  172.5830  142.2760 O   0  0  0  0  0  0  0  0  0  0  0  0
  190.6160  173.8100  141.8180 C   0  0  0  0  0  3  0  0  0  0  0  0
  188.3830  174.8100  142.1370 C   0  0  2  0  0  3  0  0  0  0  0  0
  189.8220  174.8780  141.7140 C   0  0  0  0  0  3  0  0  0  0  0  0
  187.8410  173.3850  142.0120 C   0  0  0  0  0  2  0  0  0  0  0  0
  1  2  1  0  0  0  0
  2  4  2  0  0  0  0
  3  4  1  0  0  0  0
  5  7  1  0  0  0  0
  5  3  2  0  0  0  0
  6  1  2  0  0  0  0
  6  5  1  0  0  0  0
  8 19  1  0  0  0  0
  9 22  1  0  0  0  0
 10  9  1  0  0  0  0
 10 15  2  0  0  0  0
 13  8  1  1  0  0  0
 13 21  1  0  0  0  0
 13 20  1  0  0  0  0
 14 12  1  0  0  0  0
 15 11  1  0  0  0  0
 16 22  1  0  0  0  0
 16 11  1  0  0  0  0
 17 18  1  1  0  0  0
 17 14  1  0  0  0  0
 19 10  1  0  0  0  0
 20 15  1  0  0  0  0
 20 12  1  0  0  0  0
 21 18  1  6  0  0  0
 21 17  1  0  0  0  0
 22  2  1  6  0  0  0
 23  1  1  0  0  0  0
 24 23  1  0  0  0  0
 25 24  1  0  0  0  0
 27 26  1  0  0  0  0
 28 27  1  0  0  0  0
 29 25  1  6  0  0  0
 30 28  2  0  0  0  0
 30 29  1  0  0  0  0
 31 29  1  0  0  0  0
 31 26  1  0  0  0  0
M  END
>  <MODEL>
6

>  <REMARK>
 VINA RESULT:      -6.6      2.260      3.829
  Name = 
  5 active torsions:
  status: ('A' for Active; 'I' for Inactive)
    1  A    between atoms: C_1  and  O_28
    2  A    between atoms: C_7  and  C_30
    3  A    between atoms: C_20  and  C_24
    4  A    between atoms: C_20  and  O_28
    5  A    between atoms: C_24  and  C_25
                            x       y       z     vdW  Elec       q    Type
                         _______ _______ _______ _____ _____    ______ ____

>  <TORSDO>
F 5

$$$$
=
 OpenBabel11062420583D

 31 36  0  0  1  0  0  0  0  0999 V2000
  186.2630  177.7950  143.3270 C   0  0  0  0  0  0  0  0  0  0  0  0
  186.7360  178.1950  144.5860 C   0  0  0  0  0  0  0  0  0  0  0  0
  184.5870  179.1300  145.0860 N   0  0  0  0  0  0  0  0  0  0  0  0
  185.8690  178.8720  145.4570 C   0  0  0  0  0  3  0  0  0  0  0  0
  184.1070  178.7490  143.8740 C   0  0  0  0  0  0  0  0  0  0  0  0
  184.9350  178.0760  142.9740 C   0  0  0  0  0  3  0  0  0  0  0  0
  182.7600  179.0370  143.5200 N   0  0  0  0  0  1  0  0  0  0  0  0
  192.3830  176.4780  142.8480 C   0  0  0  0  0  2  0  0  0  0  0  0
  189.0770  177.9060  143.7600 C   0  0  0  0  0  2  0  0  0  0  0  0
  190.4640  177.4270  144.0900 C   0  0  0  0  0  0  0  0  0  0  0  0
  189.6960  176.4410  146.2490 C   0  0  0  0  0  2  0  0  0  0  0  0
  192.6300  176.0370  146.7000 C   0  0  0  0  0  2  0  0  0  0  0  0
  192.8900  175.8150  144.1380 C   0  0  2  0  0  3  0  0  0  0  0  0
  194.1830  176.0410  146.6740 C   0  0  0  0  0  2  0  0  0  0  0  0
  190.7270  176.6580  145.1660 C   0  0  0  0  0  0  0  0  0  0  0  0
  188.2700  176.5990  145.7340 C   0  0  0  0  0  2  0  0  0  0  0  0
  194.5720  175.2490  145.5220 N   0  0  2  0  0  0  0  0  0  0  0  0
  195.6080  175.6720  144.5920 C   0  0  0  0  0  2  0  0  0  0  0  0
  191.5730  177.7370  143.1350 C   0  0  0  0  0  2  0  0  0  0  0  0
  192.0550  176.1300  145.3300 N   0  0  0  0  0  0  0  0  0  0  0  0
  194.2830  176.2720  144.4870 C   0  0  1  0  0  3  0  0  0  0  0  0
  188.1550  177.9170  144.9810 C   0  0  2  0  0  3  0  0  0  0  0  0
  187.1200  177.1220  142.4470 O   0  0  0  0  0  0  0  0  0  0  0  0
  187.0680  175.7170  142.2210 C   0  0  0  0  0  2  0  0  0  0  0  0
  188.1740  175.2870  141.2660 C   0  0  0  0  0  2  0  0  0  0  0  0
  190.8470  172.5540  141.6290 C   0  0  0  0  0  2  0  0  0  0  0  0
  190.9720  172.7010  143.0460 O   0  0  0  0  0  0  0  0  0  0  0  0
  190.0230  173.3910  143.8130 C   0  0  0  0  0  3  0  0  0  0  0  0
  188.8350  174.0020  141.7380 C   0  0  2  0  0  3  0  0  0  0  0  0
  189.0120  174.0390  143.2280 C   0  0  0  0  0  3  0  0  0  0  0  0
  190.1750  173.7860  141.0310 C   0  0  0  0  0  2  0  0  0  0  0  0
  1  2  1  0  0  0  0
  2  4  2  0  0  0  0
  3  4  1  0  0  0  0
  5  3  2  0  0  0  0
  6  1  2  0  0  0  0
  6  5  1  0  0  0  0
  7  5  1  0  0  0  0
  8 19  1  0  0  0  0
  9 10  1  0  0  0  0
  9 22  1  0  0  0  0
 10 15  2  0  0  0  0
 13  8  1  6  0  0  0
 13 21  1  0  0  0  0
 13 20  1  0  0  0  0
 14 12  1  0  0  0  0
 15 20  1  0  0  0  0
 15 11  1  0  0  0  0
 16 11  1  0  0  0  0
 17 18  1  1  0  0  0
 17 14  1  0  0  0  0
 19 10  1  0  0  0  0
 20 12  1  0  0  0  0
 21 18  1  6  0  0  0
 21 17  1  0  0  0  0
 22  2  1  6  0  0  0
 22 16  1  0  0  0  0
 23  1  1  0  0  0  0
 24 23  1  0  0  0  0
 25 24  1  0  0  0  0
 26 27  1  0  0  0  0
 27 28  1  0  0  0  0
 29 25  1  6  0  0  0
 29 30  1  0  0  0  0
 30 28  2  0  0  0  0
 31 26  1  0  0  0  0
 31 29  1  0  0  0  0
M  END
>  <MODEL>
7

>  <REMARK>
 VINA RESULT:      -6.5      2.040      3.550
  Name = 
  5 active torsions:
  status: ('A' for Active; 'I' for Inactive)
    1  A    between atoms: C_1  and  O_28
    2  A    between atoms: C_7  and  C_30
    3  A    between atoms: C_20  and  C_24
    4  A    between atoms: C_20  and  O_28
    5  A    between atoms: C_24  and  C_25
                            x       y       z     vdW  Elec       q    Type
                         _______ _______ _______ _____ _____    ______ ____

>  <TORSDO>
F 5

$$$$
=
 OpenBabel11062420583D

 31 36  0  0  1  0  0  0  0  0999 V2000
  187.1670  177.1510  144.7450 C   0  0  0  0  0  0  0  0  0  0  0  0
  187.6360  177.7290  143.5550 C   0  0  0  0  0  0  0  0  0  0  0  0
  185.6490  179.0630  143.4300 N   0  0  0  0  0  0  0  0  0  0  0  0
  186.8480  178.6920  142.9080 C   0  0  0  0  0  3  0  0  0  0  0  0
  185.1770  178.5200  144.5830 C   0  0  0  0  0  0  0  0  0  0  0  0
  185.9260  177.5560  145.2600 C   0  0  0  0  0  3  0  0  0  0  0  0
  183.9180  178.9320  145.1000 N   0  0  0  0  0  1  0  0  0  0  0  0
  191.5170  173.1300  142.2750 C   0  0  0  0  0  2  0  0  0  0  0  0
  188.9700  175.8020  142.6870 C   0  0  0  0  0  2  0  0  0  0  0  0
  190.3380  175.3050  142.3060 C   0  0  0  0  0  0  0  0  0  0  0  0
  191.4240  177.3600  143.2100 C   0  0  0  0  0  2  0  0  0  0  0  0
  193.8720  176.2000  141.9320 C   0  0  0  0  0  2  0  0  0  0  0  0
  192.8660  173.8600  142.3660 C   0  0  2  0  0  3  0  0  0  0  0  0
  194.9200  175.3970  141.1140 C   0  0  0  0  0  2  0  0  0  0  0  0
  191.4660  175.9590  142.6480 C   0  0  0  0  0  0  0  0  0  0  0  0
  190.1040  177.6680  143.9070 C   0  0  0  0  0  2  0  0  0  0  0  0
  195.0160  174.0940  141.7440 N   0  0  2  0  0  0  0  0  0  0  0  0
  195.0320  172.8530  140.9840 C   0  0  0  0  0  2  0  0  0  0  0  0
  190.4490  173.9880  141.6060 C   0  0  0  0  0  2  0  0  0  0  0  0
  192.7350  175.3430  142.3650 N   0  0  0  0  0  0  0  0  0  0  0  0
  193.7570  173.5290  141.1970 C   0  0  1  0  0  3  0  0  0  0  0  0
  188.9530  177.3030  142.9800 C   0  0  2  0  0  3  0  0  0  0  0  0
  187.9430  176.1860  145.3990 O   0  0  0  0  0  0  0  0  0  0  0  0
  188.2680  176.2460  146.7840 C   0  0  0  0  0  2  0  0  0  0  0  0
  188.8250  174.9110  147.2610 C   0  0  0  0  0  2  0  0  0  0  0  0
  192.4120  174.6050  145.9240 C   0  0  0  0  0  2  0  0  0  0  0  0
  192.7720  175.9500  146.2480 O   0  0  0  0  0  0  0  0  0  0  0  0
  192.0090  176.7380  147.1210 C   0  0  0  0  0  3  0  0  0  0  0  0
  190.3460  174.9210  147.2600 C   0  0  2  0  0  3  0  0  0  0  0  0
  190.8440  176.2960  147.6000 C   0  0  0  0  0  3  0  0  0  0  0  0
  190.8930  174.4570  145.9080 C   0  0  0  0  0  2  0  0  0  0  0  0
  1  6  1  0  0  0  0
  1 23  1  0  0  0  0
  2  1  2  0  0  0  0
  3  5  1  0  0  0  0
  4  3  2  0  0  0  0
  4  2  1  0  0  0  0
  5  7  1  0  0  0  0
  5  6  2  0  0  0  0
  9 22  1  0  0  0  0
 10 15  2  0  0  0  0
 10  9  1  0  0  0  0
 11 16  1  0  0  0  0
 12 20  1  0  0  0  0
 13  8  1  6  0  0  0
 14 17  1  0  0  0  0
 14 12  1  0  0  0  0
 15 11  1  0  0  0  0
 17 18  1  6  0  0  0
 19  8  1  0  0  0  0
 19 10  1  0  0  0  0
 20 13  1  0  0  0  0
 20 15  1  0  0  0  0
 21 18  1  1  0  0  0
 21 17  1  0  0  0  0
 21 13  1  0  0  0  0
 22  2  1  1  0  0  0
 22 16  1  0  0  0  0
 23 24  1  0  0  0  0
 24 25  1  0  0  0  0
 26 27  1  0  0  0  0
 27 28  1  0  0  0  0
 28 30  2  0  0  0  0
 29 25  1  6  0  0  0
 29 30  1  0  0  0  0
 31 26  1  0  0  0  0
 31 29  1  0  0  0  0
M  END
>  <MODEL>
8

>  <REMARK>
 VINA RESULT:      -6.5      2.012      3.087
  Name = 
  5 active torsions:
  status: ('A' for Active; 'I' for Inactive)
    1  A    between atoms: C_1  and  O_28
    2  A    between atoms: C_7  and  C_30
    3  A    between atoms: C_20  and  C_24
    4  A    between atoms: C_20  and  O_28
    5  A    between atoms: C_24  and  C_25
                            x       y       z     vdW  Elec       q    Type
                         _______ _______ _______ _____ _____    ______ ____

>  <TORSDO>
F 5

$$$$
=
 OpenBabel11062420583D

 31 36  0  0  1  0  0  0  0  0999 V2000
  188.7740  176.4940  144.9460 C   0  0  0  0  0  0  0  0  0  0  0  0
  189.5450  175.8440  145.9220 C   0  0  0  0  0  0  0  0  0  0  0  0
  187.6590  175.8500  147.4010 N   0  0  0  0  0  0  0  0  0  0  0  0
  188.9580  175.5310  147.1570 C   0  0  0  0  0  3  0  0  0  0  0  0
  186.8940  176.4760  146.4700 C   0  0  0  0  0  0  0  0  0  0  0  0
  187.4360  176.8090  145.2280 C   0  0  0  0  0  3  0  0  0  0  0  0
  185.5380  176.7950  146.7610 N   0  0  0  0  0  1  0  0  0  0  0  0
  193.7770  171.4910  144.9240 C   0  0  0  0  0  2  0  0  0  0  0  0
  191.1220  174.0830  145.1120 C   0  0  0  0  0  2  0  0  0  0  0  0
  192.5580  173.6430  145.0240 C   0  0  0  0  0  0  0  0  0  0  0  0
  193.3010  175.4900  146.5250 C   0  0  0  0  0  2  0  0  0  0  0  0
  196.0360  174.5400  145.7540 C   0  0  0  0  0  2  0  0  0  0  0  0
  195.0300  172.1740  145.4930 C   0  0  2  0  0  3  0  0  0  0  0  0
  197.2880  173.8810  145.1120 C   0  0  0  0  0  2  0  0  0  0  0  0
  193.5360  174.2100  145.7590 C   0  0  0  0  0  0  0  0  0  0  0  0
  191.8360  175.6870  146.8940 C   0  0  0  0  0  2  0  0  0  0  0  0
  197.2590  172.4860  145.5080 N   0  0  2  0  0  0  0  0  0  0  0  0
  197.5140  171.3990  144.5750 C   0  0  0  0  0  2  0  0  0  0  0  0
  192.8930  172.4690  144.1590 C   0  0  0  0  0  2  0  0  0  0  0  0
  194.8540  173.6370  145.7160 N   0  0  0  0  0  0  0  0  0  0  0  0
  196.2060  172.0440  144.5600 C   0  0  1  0  0  3  0  0  0  0  0  0
  190.9800  175.5080  145.6480 C   0  0  2  0  0  3  0  0  0  0  0  0
  189.3490  176.8150  143.7100 O   0  0  0  0  0  0  0  0  0  0  0  0
  189.0560  178.0100  142.9930 C   0  0  0  0  0  2  0  0  0  0  0  0
  188.4440  177.6830  141.6370 C   0  0  0  0  0  2  0  0  0  0  0  0
  184.8200  178.5630  142.5510 C   0  0  0  0  0  2  0  0  0  0  0  0
  184.3570  178.5720  141.1990 O   0  0  0  0  0  0  0  0  0  0  0  0
  185.1000  178.0100  140.1510 C   0  0  0  0  0  3  0  0  0  0  0  0
  186.9320  177.5500  141.7380 C   0  0  2  0  0  3  0  0  0  0  0  0
  186.3310  177.5390  140.3620 C   0  0  0  0  0  3  0  0  0  0  0  0
  186.3410  178.6760  142.5870 C   0  0  0  0  0  2  0  0  0  0  0  0
  1  6  2  0  0  0  0
  1  2  1  0  0  0  0
  2  4  2  0  0  0  0
  4  3  1  0  0  0  0
  5  7  1  0  0  0  0
  5  3  2  0  0  0  0
  6  5  1  0  0  0  0
  9 22  1  0  0  0  0
 10  9  1  0  0  0  0
 10 15  2  0  0  0  0
 11 16  1  0  0  0  0
 13  8  1  6  0  0  0
 13 20  1  0  0  0  0
 14 17  1  0  0  0  0
 14 12  1  0  0  0  0
 15 11  1  0  0  0  0
 17 18  1  6  0  0  0
 19  8  1  0  0  0  0
 19 10  1  0  0  0  0
 20 12  1  0  0  0  0
 20 15  1  0  0  0  0
 21 18  1  1  0  0  0
 21 13  1  0  0  0  0
 21 17  1  0  0  0  0
 22  2  1  1  0  0  0
 22 16  1  0  0  0  0
 23  1  1  0  0  0  0
 24 23  1  0  0  0  0
 25 24  1  0  0  0  0
 26 31  1  0  0  0  0
 27 26  1  0  0  0  0
 28 30  2  0  0  0  0
 28 27  1  0  0  0  0
 29 25  1  6  0  0  0
 29 31  1  0  0  0  0
 30 29  1  0  0  0  0
M  END
>  <MODEL>
9

>  <REMARK>
 VINA RESULT:      -6.4      2.639      5.398
  Name = 
  5 active torsions:
  status: ('A' for Active; 'I' for Inactive)
    1  A    between atoms: C_1  and  O_28
    2  A    between atoms: C_7  and  C_30
    3  A    between atoms: C_20  and  C_24
    4  A    between atoms: C_20  and  O_28
    5  A    between atoms: C_24  and  C_25
                            x       y       z     vdW  Elec       q    Type
                         _______ _______ _______ _____ _____    ______ ____

>  <TORSDO>
F 5

$$$$
