=
 OpenBabel11062421023D

 38 41  0  0  1  0  0  0  0  0999 V2000
  188.0780  175.7880  147.0740 C   0  0  0  0  0  3  0  0  0  0  0  0
  187.8130  177.0650  146.8480 C   0  0  0  0  0  3  0  0  0  0  0  0
  190.1820  174.6670  145.9380 C   0  0  0  0  0  0  0  0  0  0  0  0
  189.2180  175.1750  146.4540 C   0  0  0  0  0  0  0  0  0  0  0  0
  191.3610  174.0570  145.3160 C   0  0  2  0  0  3  0  0  0  0  0  0
  191.9610  174.9700  144.4450 O   0  0  0  0  0  1  0  0  0  0  0  0
  192.0450  172.3460  143.6200 C   0  0  0  0  0  0  0  0  0  0  0  0
  190.1000  172.6930  142.3380 N   0  0  0  0  0  0  0  0  0  0  0  0
  191.4660  172.3430  142.3030 C   0  0  0  0  0  0  0  0  0  0  0  0
  190.9850  172.7580  144.5930 C   0  0  2  0  0  3  0  0  0  0  0  0
  193.3020  171.9870  143.8990 C   0  0  0  0  0  3  0  0  0  0  0  0
  189.7120  172.9290  143.7250 C   0  0  0  0  0  3  0  0  0  0  0  0
  192.0810  172.0650  141.2400 O   0  0  0  0  0  0  0  0  0  0  0  0
  194.7660  173.0860  145.4670 N   0  0  0  0  0  0  0  0  0  0  0  0
  196.0440  171.2340  145.8020 N   0  0  0  0  0  0  0  0  0  0  0  0
  193.8550  171.9660  145.2880 C   0  0  2  0  0  3  0  0  0  0  0  0
  195.9390  172.6430  145.7520 C   0  0  0  0  0  0  0  0  0  0  0  0
  197.0960  173.5460  145.9910 C   0  0  0  0  0  1  0  0  0  0  0  0
  194.7200  170.7180  145.5040 C   0  0  0  0  0  3  0  0  0  0  0  0
  186.6350  177.7290  147.4820 C   0  0  1  0  0  3  0  0  0  0  0  0
  187.0590  178.8810  148.1510 O   0  0  0  0  0  1  0  0  0  0  0  0
  184.3860  178.4090  147.0050 O   0  0  0  0  0  1  0  0  0  0  0  0
  185.6120  178.0980  146.4120 C   0  0  2  0  0  3  0  0  0  0  0  0
  185.4180  176.9410  145.4400 C   0  0  0  0  0  2  0  0  0  0  0  0
  184.3580  178.6100  142.1260 C   0  0  0  0  0  2  0  0  0  0  0  0
  189.4780  176.4460  141.9950 C   0  0  0  0  0  2  0  0  0  0  0  0
  184.3340  177.9940  143.5060 C   0  0  0  0  0  3  0  0  0  0  0  0
  187.1910  176.6190  140.8830 C   0  0  0  0  0  3  0  0  0  0  0  0
  188.2980  175.7180  141.3510 C   0  0  0  0  0  2  0  0  0  0  0  0
  189.1120  177.6050  142.9280 C   0  0  1  0  0  3  0  0  0  0  0  0
  186.4120  177.2980  141.7310 C   0  0  0  0  0  0  0  0  0  0  0  0
  186.6430  177.3210  143.1940 C   0  0  0  0  0  0  0  0  0  0  0  0
  185.4330  177.4340  144.0290 C   0  0  0  0  0  0  0  0  0  0  0  0
  185.2450  177.9040  141.2500 O   0  0  0  0  0  0  0  0  0  0  0  0
  187.8630  177.4120  143.7400 C   0  0  0  0  0  3  0  0  0  0  0  0
  190.0640  178.1420  145.0440 O   0  0  0  0  0  1  0  0  0  0  0  0
  191.5530  178.0000  143.3010 O   0  0  0  0  0  0  0  0  0  0  0  0
  190.2630  177.9300  143.8170 C   0  0  0  0  0  0  0  0  0  0  0  0
  2  1  2  0  0  0  0
  2 20  1  0  0  0  0
  3  4  3  0  0  0  0
  4  1  1  0  0  0  0
  5  6  1  6  0  0  0
  5  3  1  0  0  0  0
  7 11  2  0  0  0  0
  7 10  1  0  0  0  0
  8 12  2  0  0  0  0
  9  8  1  0  0  0  0
  9  7  1  0  0  0  0
 10  5  1  6  0  0  0
 12 10  1  0  0  0  0
 13  9  2  0  0  0  0
 14 17  2  0  0  0  0
 16 11  1  6  0  0  0
 16 14  1  0  0  0  0
 16 19  1  0  0  0  0
 17 15  1  0  0  0  0
 17 18  1  0  0  0  0
 19 15  2  0  0  0  0
 20 21  1  6  0  0  0
 23 22  1  1  0  0  0
 23 20  1  0  0  0  0
 24 23  1  0  0  0  0
 25 27  1  0  0  0  0
 26 30  1  0  0  0  0
 27 33  2  0  0  0  0
 28 29  1  0  0  0  0
 28 31  2  0  0  0  0
 29 26  1  0  0  0  0
 30 35  1  0  0  0  0
 30 38  1  1  0  0  0
 31 32  1  0  0  0  0
 32 35  2  0  0  0  0
 32 33  1  0  0  0  0
 33 24  1  0  0  0  0
 34 31  1  0  0  0  0
 34 25  1  0  0  0  0
 37 38  2  0  0  0  0
 38 36  1  0  0  0  0
M  END
>  <MODEL>
1

>  <REMARK>
 VINA RESULT:      -7.6      0.000      0.000
  Name = 
  9 active torsions:
  status: ('A' for Active; 'I' for Inactive)
    1  A    between atoms: C_7  and  C_20
    2  A    between atoms: C_7  and  C_21
    3  A    between atoms: C_9  and  C_30
    4  A    between atoms: C_11  and  C_13
    5  A    between atoms: C_11  and  C_35
    6  A    between atoms: C_13  and  C_23
    7  A    between atoms: C_14  and  C_29
    8  A    between atoms: C_17  and  C_23
    9  A    between atoms: C_24  and  C_31
                            x       y       z     vdW  Elec       q    Type
                         _______ _______ _______ _____ _____    ______ ____

>  <TORSDO>
F 9

$$$$
=
 OpenBabel11062421023D

 38 41  0  0  1  0  0  0  0  0999 V2000
  191.4340  177.3560  143.5830 C   0  0  0  0  0  3  0  0  0  0  0  0
  192.4040  176.4840  143.3600 C   0  0  0  0  0  3  0  0  0  0  0  0
  189.0090  176.8770  142.6560 C   0  0  0  0  0  0  0  0  0  0  0  0
  190.1140  177.1010  143.0810 C   0  0  0  0  0  0  0  0  0  0  0  0
  187.6680  176.5960  142.1340 C   0  0  2  0  0  3  0  0  0  0  0  0
  187.6990  175.4350  141.3550 O   0  0  0  0  0  1  0  0  0  0  0  0
  185.7310  178.1320  141.7380 C   0  0  0  0  0  0  0  0  0  0  0  0
  185.6230  177.5700  139.4530 N   0  0  0  0  0  0  0  0  0  0  0  0
  184.8840  177.9670  140.5870 C   0  0  0  0  0  0  0  0  0  0  0  0
  187.1320  177.7910  141.3360 C   0  0  2  0  0  3  0  0  0  0  0  0
  185.3160  178.5690  142.9310 C   0  0  0  0  0  3  0  0  0  0  0  0
  187.0320  177.4750  139.8220 C   0  0  0  0  0  3  0  0  0  0  0  0
  183.6380  178.1490  140.5700 O   0  0  0  0  0  0  0  0  0  0  0  0
  186.3100  177.5380  144.8700 N   0  0  0  0  0  0  0  0  0  0  0  0
  185.4800  179.0930  146.3080 N   0  0  0  0  0  0  0  0  0  0  0  0
  186.2380  178.7660  144.0930 C   0  0  2  0  0  3  0  0  0  0  0  0
  185.8970  177.7640  146.0670 C   0  0  0  0  0  0  0  0  0  0  0  0
  185.8460  176.7030  147.1070 C   0  0  0  0  0  1  0  0  0  0  0  0
  185.6680  179.8110  145.0600 C   0  0  0  0  0  3  0  0  0  0  0  0
  193.7860  176.7230  143.8720 C   0  0  1  0  0  3  0  0  0  0  0  0
  193.7140  177.2560  145.1630 O   0  0  0  0  0  1  0  0  0  0  0  0
  194.0920  174.5530  142.9010 O   0  0  0  0  0  1  0  0  0  0  0  0
  194.5630  175.4100  143.8970 C   0  0  2  0  0  3  0  0  0  0  0  0
  194.4150  174.7310  145.2520 C   0  0  0  0  0  2  0  0  0  0  0  0
  193.9050  170.9100  145.0730 C   0  0  0  0  0  2  0  0  0  0  0  0
  189.2190  173.8200  144.3740 C   0  0  0  0  0  2  0  0  0  0  0  0
  194.5340  172.2840  145.1020 C   0  0  0  0  0  3  0  0  0  0  0  0
  190.7540  171.9820  143.5040 C   0  0  0  0  0  3  0  0  0  0  0  0
  189.9530  173.2100  143.1810 C   0  0  0  0  0  2  0  0  0  0  0  0
  190.0050  173.8550  145.6890 C   0  0  1  0  0  3  0  0  0  0  0  0
  191.8550  172.0210  144.2610 C   0  0  0  0  0  0  0  0  0  0  0  0
  192.3150  173.2510  144.9470 C   0  0  0  0  0  0  0  0  0  0  0  0
  193.7760  173.3880  145.0980 C   0  0  0  0  0  0  0  0  0  0  0  0
  192.6950  170.9020  144.3050 O   0  0  0  0  0  0  0  0  0  0  0  0
  191.4800  174.1070  145.5530 C   0  0  0  0  0  3  0  0  0  0  0  0
  188.8400  174.4380  147.6820 O   0  0  0  0  0  1  0  0  0  0  0  0
  189.4360  176.2020  146.3380 O   0  0  0  0  0  0  0  0  0  0  0  0
  189.3960  174.8410  146.6250 C   0  0  0  0  0  0  0  0  0  0  0  0
  2  1  2  0  0  0  0
  2 20  1  0  0  0  0
  3  4  3  0  0  0  0
  4  1  1  0  0  0  0
  5  6  1  6  0  0  0
  5  3  1  0  0  0  0
  7 11  2  0  0  0  0
  8 12  2  0  0  0  0
  8  9  1  0  0  0  0
  9  7  1  0  0  0  0
 10  7  1  0  0  0  0
 10  5  1  1  0  0  0
 12 10  1  0  0  0  0
 13  9  2  0  0  0  0
 14 17  2  0  0  0  0
 16 11  1  6  0  0  0
 16 14  1  0  0  0  0
 16 19  1  0  0  0  0
 17 15  1  0  0  0  0
 17 18  1  0  0  0  0
 19 15  2  0  0  0  0
 20 23  1  0  0  0  0
 20 21  1  1  0  0  0
 23 22  1  6  0  0  0
 23 24  1  0  0  0  0
 25 27  1  0  0  0  0
 26 30  1  0  0  0  0
 28 31  2  0  0  0  0
 29 28  1  0  0  0  0
 29 26  1  0  0  0  0
 30 38  1  1  0  0  0
 31 34  1  0  0  0  0
 31 32  1  0  0  0  0
 32 33  1  0  0  0  0
 32 35  2  0  0  0  0
 33 27  2  0  0  0  0
 33 24  1  0  0  0  0
 34 25  1  0  0  0  0
 35 30  1  0  0  0  0
 37 38  2  0  0  0  0
 38 36  1  0  0  0  0
M  END
>  <MODEL>
2

>  <REMARK>
 VINA RESULT:      -7.4      3.257      8.403
  Name = 
  9 active torsions:
  status: ('A' for Active; 'I' for Inactive)
    1  A    between atoms: C_7  and  C_20
    2  A    between atoms: C_7  and  C_21
    3  A    between atoms: C_9  and  C_30
    4  A    between atoms: C_11  and  C_13
    5  A    between atoms: C_11  and  C_35
    6  A    between atoms: C_13  and  C_23
    7  A    between atoms: C_14  and  C_29
    8  A    between atoms: C_17  and  C_23
    9  A    between atoms: C_24  and  C_31
                            x       y       z     vdW  Elec       q    Type
                         _______ _______ _______ _____ _____    ______ ____

>  <TORSDO>
F 9

$$$$
=
 OpenBabel11062421023D

 38 41  0  0  1  0  0  0  0  0999 V2000
  192.6460  176.7560  145.9140 C   0  0  0  0  0  3  0  0  0  0  0  0
  192.5230  176.2160  147.1160 C   0  0  0  0  0  3  0  0  0  0  0  0
  194.7940  176.2650  144.4590 C   0  0  0  0  0  0  0  0  0  0  0  0
  193.8140  176.4850  145.1250 C   0  0  0  0  0  0  0  0  0  0  0  0
  195.9860  176.0100  143.6430 C   0  0  2  0  0  3  0  0  0  0  0  0
  196.7300  177.1860  143.5130 O   0  0  0  0  0  1  0  0  0  0  0  0
  196.3730  174.1990  141.9580 C   0  0  0  0  0  0  0  0  0  0  0  0
  196.9260  175.7490  140.2720 N   0  0  0  0  0  0  0  0  0  0  0  0
  197.1520  174.4500  140.7740 C   0  0  0  0  0  0  0  0  0  0  0  0
  195.5960  175.4390  142.2740 C   0  0  2  0  0  3  0  0  0  0  0  0
  196.3320  173.0320  142.6080 C   0  0  0  0  0  3  0  0  0  0  0  0
  195.9450  176.4160  141.1220 C   0  0  0  0  0  3  0  0  0  0  0  0
  197.9400  173.6280  140.2360 O   0  0  0  0  0  0  0  0  0  0  0  0
  196.2980  172.2890  144.9010 N   0  0  0  0  0  0  0  0  0  0  0  0
  194.7670  170.6530  144.5060 N   0  0  0  0  0  0  0  0  0  0  0  0
  195.4780  172.7990  143.8130 C   0  0  2  0  0  3  0  0  0  0  0  0
  195.8720  171.1270  145.2500 C   0  0  0  0  0  0  0  0  0  0  0  0
  196.5080  170.3380  146.3380 C   0  0  0  0  0  1  0  0  0  0  0  0
  194.4520  171.6920  143.5410 C   0  0  0  0  0  3  0  0  0  0  0  0
  191.3180  176.4800  147.9570 C   0  0  1  0  0  3  0  0  0  0  0  0
  191.5960  177.5210  148.8480 O   0  0  0  0  0  1  0  0  0  0  0  0
  189.4560  177.9500  147.6130 O   0  0  0  0  0  1  0  0  0  0  0  0
  190.1390  176.8610  147.0670 C   0  0  2  0  0  3  0  0  0  0  0  0
  189.1780  175.6880  146.9280 C   0  0  0  0  0  2  0  0  0  0  0  0
  189.6920  173.4540  143.8230 C   0  0  0  0  0  2  0  0  0  0  0  0
  187.0090  178.2000  142.7340 C   0  0  0  0  0  2  0  0  0  0  0  0
  189.7940  174.0460  145.2100 C   0  0  0  0  0  3  0  0  0  0  0  0
  188.9160  176.6240  142.1240 C   0  0  0  0  0  3  0  0  0  0  0  0
  188.4910  178.0380  142.3980 C   0  0  0  0  0  2  0  0  0  0  0  0
  186.4170  177.1280  143.6560 C   0  0  1  0  0  3  0  0  0  0  0  0
  188.9490  175.6870  143.0780 C   0  0  0  0  0  0  0  0  0  0  0  0
  188.4570  175.9230  144.4550 C   0  0  0  0  0  0  0  0  0  0  0  0
  189.1630  175.1870  145.5200 C   0  0  0  0  0  0  0  0  0  0  0  0
  189.5980  174.4740  142.8210 O   0  0  0  0  0  0  0  0  0  0  0  0
  187.3400  176.6130  144.7240 C   0  0  0  0  0  3  0  0  0  0  0  0
  184.2760  178.1650  143.5310 O   0  0  0  0  0  0  0  0  0  0  0  0
  184.9160  177.4740  145.6260 O   0  0  0  0  0  1  0  0  0  0  0  0
  185.1470  177.6180  144.2610 C   0  0  0  0  0  0  0  0  0  0  0  0
  1  2  2  0  0  0  0
  2 20  1  0  0  0  0
  3  4  3  0  0  0  0
  4  1  1  0  0  0  0
  5  6  1  6  0  0  0
  5  3  1  0  0  0  0
  7 10  1  0  0  0  0
  7 11  2  0  0  0  0
  8  9  1  0  0  0  0
  8 12  2  0  0  0  0
  9  7  1  0  0  0  0
 10  5  1  1  0  0  0
 12 10  1  0  0  0  0
 13  9  2  0  0  0  0
 14 17  2  0  0  0  0
 15 17  1  0  0  0  0
 16 11  1  6  0  0  0
 16 14  1  0  0  0  0
 17 18  1  0  0  0  0
 19 16  1  0  0  0  0
 19 15  2  0  0  0  0
 20 21  1  1  0  0  0
 23 22  1  1  0  0  0
 23 20  1  0  0  0  0
 24 23  1  0  0  0  0
 25 27  1  0  0  0  0
 26 30  1  0  0  0  0
 27 33  2  0  0  0  0
 28 29  1  0  0  0  0
 28 31  2  0  0  0  0
 29 26  1  0  0  0  0
 30 38  1  1  0  0  0
 30 35  1  0  0  0  0
 31 32  1  0  0  0  0
 32 35  2  0  0  0  0
 32 33  1  0  0  0  0
 33 24  1  0  0  0  0
 34 31  1  0  0  0  0
 34 25  1  0  0  0  0
 36 38  2  0  0  0  0
 38 37  1  0  0  0  0
M  END
>  <MODEL>
3

>  <REMARK>
 VINA RESULT:      -7.4      3.052      4.822
  Name = 
  9 active torsions:
  status: ('A' for Active; 'I' for Inactive)
    1  A    between atoms: C_7  and  C_20
    2  A    between atoms: C_7  and  C_21
    3  A    between atoms: C_9  and  C_30
    4  A    between atoms: C_11  and  C_13
    5  A    between atoms: C_11  and  C_35
    6  A    between atoms: C_13  and  C_23
    7  A    between atoms: C_14  and  C_29
    8  A    between atoms: C_17  and  C_23
    9  A    between atoms: C_24  and  C_31
                            x       y       z     vdW  Elec       q    Type
                         _______ _______ _______ _____ _____    ______ ____

>  <TORSDO>
F 9

$$$$
=
 OpenBabel11062421023D

 38 41  0  0  1  0  0  0  0  0999 V2000
  187.0440  175.8010  142.1380 C   0  0  0  0  0  3  0  0  0  0  0  0
  187.3300  176.7480  141.2590 C   0  0  0  0  0  3  0  0  0  0  0  0
  188.5160  173.6120  142.2370 C   0  0  0  0  0  0  0  0  0  0  0  0
  187.8470  174.6140  142.1950 C   0  0  0  0  0  0  0  0  0  0  0  0
  189.3200  172.3870  142.2820 C   0  0  2  0  0  3  0  0  0  0  0  0
  189.0940  171.7170  143.4880 O   0  0  0  0  0  1  0  0  0  0  0  0
  191.4660  171.7150  141.1780 C   0  0  0  0  0  0  0  0  0  0  0  0
  192.5860  171.5280  143.2410 N   0  0  0  0  0  0  0  0  0  0  0  0
  192.4960  171.0400  141.9210 C   0  0  0  0  0  0  0  0  0  0  0  0
  190.8080  172.7050  142.0880 C   0  0  2  0  0  3  0  0  0  0  0  0
  191.2020  171.5090  139.8840 C   0  0  0  0  0  3  0  0  0  0  0  0
  191.5990  172.5900  143.4160 C   0  0  0  0  0  3  0  0  0  0  0  0
  193.2370  170.1270  141.4700 O   0  0  0  0  0  0  0  0  0  0  0  0
  189.6270  171.4310  138.0600 N   0  0  0  0  0  0  0  0  0  0  0  0
  190.5120  173.2510  137.0210 N   0  0  0  0  0  0  0  0  0  0  0  0
  190.1470  172.2610  139.1360 C   0  0  2  0  0  3  0  0  0  0  0  0
  189.8400  172.0110  136.9320 C   0  0  0  0  0  0  0  0  0  0  0  0
  189.4270  171.4100  135.6360 C   0  0  0  0  0  1  0  0  0  0  0  0
  190.7520  173.4830  138.4340 C   0  0  0  0  0  3  0  0  0  0  0  0
  186.5120  177.9950  141.1800 C   0  0  1  0  0  3  0  0  0  0  0  0
  185.8020  178.0050  139.9750 O   0  0  0  0  0  1  0  0  0  0  0  0
  184.2580  178.3740  141.9030 O   0  0  0  0  0  1  0  0  0  0  0  0
  185.5400  178.0530  142.3540 C   0  0  2  0  0  3  0  0  0  0  0  0
  185.9910  179.0990  143.3660 C   0  0  0  0  0  2  0  0  0  0  0  0
  183.9470  178.2570  146.5290 C   0  0  0  0  0  2  0  0  0  0  0  0
  189.4040  177.3560  147.0960 C   0  0  0  0  0  2  0  0  0  0  0  0
  184.3630  178.7890  145.1770 C   0  0  0  0  0  3  0  0  0  0  0  0
  187.2960  178.4310  148.0420 C   0  0  0  0  0  3  0  0  0  0  0  0
  188.7450  178.6020  147.6870 C   0  0  0  0  0  2  0  0  0  0  0  0
  188.5530  176.5690  146.0940 C   0  0  1  0  0  3  0  0  0  0  0  0
  186.3440  178.2720  147.1160 C   0  0  0  0  0  0  0  0  0  0  0  0
  186.6440  178.1270  145.6720 C   0  0  0  0  0  0  0  0  0  0  0  0
  185.6290  178.6760  144.7530 C   0  0  0  0  0  0  0  0  0  0  0  0
  185.0010  178.3830  147.4910 O   0  0  0  0  0  0  0  0  0  0  0  0
  187.6670  177.3980  145.2070 C   0  0  0  0  0  3  0  0  0  0  0  0
  189.4950  174.4520  145.5450 O   0  0  0  0  0  1  0  0  0  0  0  0
  190.1500  176.1980  144.2050 O   0  0  0  0  0  0  0  0  0  0  0  0
  189.4210  175.6800  145.2720 C   0  0  0  0  0  0  0  0  0  0  0  0
  1  4  1  0  0  0  0
  2  1  2  0  0  0  0
  3  5  1  0  0  0  0
  4  3  3  0  0  0  0
  5  6  1  1  0  0  0
  7  9  1  0  0  0  0
  7 10  1  0  0  0  0
  8 12  2  0  0  0  0
  9  8  1  0  0  0  0
 10  5  1  1  0  0  0
 10 12  1  0  0  0  0
 11  7  2  0  0  0  0
 13  9  2  0  0  0  0
 14 16  1  0  0  0  0
 15 19  2  0  0  0  0
 16 11  1  6  0  0  0
 17 15  1  0  0  0  0
 17 14  2  0  0  0  0
 18 17  1  0  0  0  0
 19 16  1  0  0  0  0
 20 21  1  6  0  0  0
 20  2  1  0  0  0  0
 20 23  1  0  0  0  0
 23 22  1  6  0  0  0
 23 24  1  0  0  0  0
 24 33  1  0  0  0  0
 25 34  1  0  0  0  0
 26 29  1  0  0  0  0
 27 25  1  0  0  0  0
 29 28  1  0  0  0  0
 30 38  1  6  0  0  0
 30 26  1  0  0  0  0
 31 34  1  0  0  0  0
 31 28  2  0  0  0  0
 32 31  1  0  0  0  0
 33 27  2  0  0  0  0
 33 32  1  0  0  0  0
 35 32  2  0  0  0  0
 35 30  1  0  0  0  0
 37 38  2  0  0  0  0
 38 36  1  0  0  0  0
M  END
>  <MODEL>
4

>  <REMARK>
 VINA RESULT:      -7.3      2.591      5.679
  Name = 
  9 active torsions:
  status: ('A' for Active; 'I' for Inactive)
    1  A    between atoms: C_7  and  C_20
    2  A    between atoms: C_7  and  C_21
    3  A    between atoms: C_9  and  C_30
    4  A    between atoms: C_11  and  C_13
    5  A    between atoms: C_11  and  C_35
    6  A    between atoms: C_13  and  C_23
    7  A    between atoms: C_14  and  C_29
    8  A    between atoms: C_17  and  C_23
    9  A    between atoms: C_24  and  C_31
                            x       y       z     vdW  Elec       q    Type
                         _______ _______ _______ _____ _____    ______ ____

>  <TORSDO>
F 9

$$$$
=
 OpenBabel11062421023D

 38 41  0  0  1  0  0  0  0  0999 V2000
  189.9650  178.0920  142.6710 C   0  0  0  0  0  3  0  0  0  0  0  0
  188.9460  177.3760  142.2240 C   0  0  0  0  0  3  0  0  0  0  0  0
  192.0540  176.8890  143.7490 C   0  0  0  0  0  0  0  0  0  0  0  0
  191.0980  177.4340  143.2560 C   0  0  0  0  0  0  0  0  0  0  0  0
  193.2220  176.2380  144.3510 C   0  0  2  0  0  3  0  0  0  0  0  0
  193.7090  177.0200  145.4020 O   0  0  0  0  0  1  0  0  0  0  0  0
  194.6630  174.5270  143.2240 C   0  0  0  0  0  0  0  0  0  0  0  0
  196.6430  175.6450  143.8390 N   0  0  0  0  0  0  0  0  0  0  0  0
  196.0520  174.3920  143.5710 C   0  0  0  0  0  0  0  0  0  0  0  0
  194.3050  175.9790  143.2960 C   0  0  2  0  0  3  0  0  0  0  0  0
  193.8690  173.5180  142.8540 C   0  0  0  0  0  3  0  0  0  0  0  0
  195.6370  176.6860  143.6530 C   0  0  0  0  0  3  0  0  0  0  0  0
  196.6830  173.3030  143.6330 O   0  0  0  0  0  0  0  0  0  0  0  0
  191.7250  172.4460  142.6010 N   0  0  0  0  0  0  0  0  0  0  0  0
  191.5520  172.9750  140.3950 N   0  0  0  0  0  0  0  0  0  0  0  0
  192.4380  173.7060  142.4610 C   0  0  2  0  0  3  0  0  0  0  0  0
  191.2550  172.0910  141.4580 C   0  0  0  0  0  0  0  0  0  0  0  0
  190.4760  170.8390  141.2700 C   0  0  0  0  0  1  0  0  0  0  0  0
  192.3300  174.0570  140.9720 C   0  0  0  0  0  3  0  0  0  0  0  0
  187.7550  178.0350  141.6090 C   0  0  1  0  0  3  0  0  0  0  0  0
  187.4250  177.3760  140.4220 O   0  0  0  0  0  1  0  0  0  0  0  0
  186.7110  178.9680  143.5560 O   0  0  0  0  0  1  0  0  0  0  0  0
  186.5770  177.9810  142.5770 C   0  0  2  0  0  3  0  0  0  0  0  0
  186.5050  176.6160  143.2500 C   0  0  0  0  0  2  0  0  0  0  0  0
  185.0030  177.1320  146.7670 C   0  0  0  0  0  2  0  0  0  0  0  0
  190.4930  176.2550  146.7940 C   0  0  0  0  0  2  0  0  0  0  0  0
  185.1910  177.0930  145.2680 C   0  0  0  0  0  3  0  0  0  0  0  0
  188.5470  177.7070  147.5690 C   0  0  0  0  0  3  0  0  0  0  0  0
  189.9190  177.6620  146.9590 C   0  0  0  0  0  2  0  0  0  0  0  0
  189.5050  175.1890  146.3100 C   0  0  1  0  0  3  0  0  0  0  0  0
  187.4630  177.2550  146.9310 C   0  0  0  0  0  0  0  0  0  0  0  0
  187.5310  176.5610  145.6240 C   0  0  0  0  0  0  0  0  0  0  0  0
  186.3750  176.7680  144.7310 C   0  0  0  0  0  0  0  0  0  0  0  0
  186.1950  177.5630  147.4350 O   0  0  0  0  0  0  0  0  0  0  0  0
  188.4770  175.6620  145.3210 C   0  0  0  0  0  3  0  0  0  0  0  0
  189.6100  173.0890  145.1920 O   0  0  0  0  0  0  0  0  0  0  0  0
  191.6280  173.9340  145.8920 O   0  0  0  0  0  1  0  0  0  0  0  0
  190.2440  174.0150  145.7670 C   0  0  0  0  0  0  0  0  0  0  0  0
  1  4  1  0  0  0  0
  2  1  2  0  0  0  0
  3  5  1  0  0  0  0
  4  3  3  0  0  0  0
  5  6  1  1  0  0  0
  7 10  1  0  0  0  0
  7  9  1  0  0  0  0
  9 13  2  0  0  0  0
  9  8  1  0  0  0  0
 10 12  1  0  0  0  0
 10  5  1  1  0  0  0
 11  7  2  0  0  0  0
 12  8  2  0  0  0  0
 15 19  2  0  0  0  0
 15 17  1  0  0  0  0
 16 14  1  0  0  0  0
 16 11  1  6  0  0  0
 17 14  2  0  0  0  0
 18 17  1  0  0  0  0
 19 16  1  0  0  0  0
 20 21  1  6  0  0  0
 20  2  1  0  0  0  0
 20 23  1  0  0  0  0
 23 24  1  0  0  0  0
 23 22  1  1  0  0  0
 24 33  1  0  0  0  0
 25 34  1  0  0  0  0
 26 29  1  0  0  0  0
 27 25  1  0  0  0  0
 29 28  1  0  0  0  0
 30 38  1  6  0  0  0
 30 26  1  0  0  0  0
 31 34  1  0  0  0  0
 31 28  2  0  0  0  0
 32 31  1  0  0  0  0
 33 27  2  0  0  0  0
 33 32  1  0  0  0  0
 35 32  2  0  0  0  0
 35 30  1  0  0  0  0
 36 38  2  0  0  0  0
 38 37  1  0  0  0  0
M  END
>  <MODEL>
5

>  <REMARK>
 VINA RESULT:      -7.2      2.250      5.068
  Name = 
  9 active torsions:
  status: ('A' for Active; 'I' for Inactive)
    1  A    between atoms: C_7  and  C_20
    2  A    between atoms: C_7  and  C_21
    3  A    between atoms: C_9  and  C_30
    4  A    between atoms: C_11  and  C_13
    5  A    between atoms: C_11  and  C_35
    6  A    between atoms: C_13  and  C_23
    7  A    between atoms: C_14  and  C_29
    8  A    between atoms: C_17  and  C_23
    9  A    between atoms: C_24  and  C_31
                            x       y       z     vdW  Elec       q    Type
                         _______ _______ _______ _____ _____    ______ ____

>  <TORSDO>
F 9

$$$$
=
 OpenBabel11062421023D

 38 41  0  0  1  0  0  0  0  0999 V2000
  189.4630  174.9110  141.6380 C   0  0  0  0  0  3  0  0  0  0  0  0
  190.1750  174.0240  142.3150 C   0  0  0  0  0  3  0  0  0  0  0  0
  187.4110  176.0970  142.8020 C   0  0  0  0  0  0  0  0  0  0  0  0
  188.3460  175.5570  142.2660 C   0  0  0  0  0  0  0  0  0  0  0  0
  186.2780  176.7510  143.4650 C   0  0  2  0  0  3  0  0  0  0  0  0
  185.1920  176.8180  142.5870 O   0  0  0  0  0  1  0  0  0  0  0  0
  186.7220  178.1840  145.4690 C   0  0  0  0  0  0  0  0  0  0  0  0
  185.0790  179.7500  144.8380 N   0  0  0  0  0  0  0  0  0  0  0  0
  185.7460  179.1400  145.9210 C   0  0  0  0  0  0  0  0  0  0  0  0
  186.6740  178.1420  143.9740 C   0  0  2  0  0  3  0  0  0  0  0  0
  187.5500  177.5070  146.2700 C   0  0  0  0  0  3  0  0  0  0  0  0
  185.6220  179.2150  143.5930 C   0  0  0  0  0  3  0  0  0  0  0  0
  185.5020  179.4150  147.1260 O   0  0  0  0  0  0  0  0  0  0  0  0
  189.1000  175.7580  146.8610 N   0  0  0  0  0  0  0  0  0  0  0  0
  190.9050  176.8720  146.0380 N   0  0  0  0  0  0  0  0  0  0  0  0
  188.5800  176.5500  145.7570 C   0  0  2  0  0  3  0  0  0  0  0  0
  190.3660  175.9570  146.9710 C   0  0  0  0  0  0  0  0  0  0  0  0
  191.1900  175.2910  148.0140 C   0  0  0  0  0  1  0  0  0  0  0  0
  189.7950  177.3090  145.2100 C   0  0  0  0  0  3  0  0  0  0  0  0
  191.3450  173.3380  141.6870 C   0  0  1  0  0  3  0  0  0  0  0  0
  191.4890  173.7840  140.3700 O   0  0  0  0  0  1  0  0  0  0  0  0
  193.7380  173.2270  141.7690 O   0  0  0  0  0  1  0  0  0  0  0  0
  192.6110  173.6460  142.4800 C   0  0  2  0  0  3  0  0  0  0  0  0
  192.5800  172.9380  143.8280 C   0  0  0  0  0  2  0  0  0  0  0  0
  194.5110  175.3500  146.1400 C   0  0  0  0  0  2  0  0  0  0  0  0
  196.9090  170.3610  145.6220 C   0  0  0  0  0  2  0  0  0  0  0  0
  193.5470  174.7870  145.1210 C   0  0  0  0  0  3  0  0  0  0  0  0
  197.1790  172.8930  145.5210 C   0  0  0  0  0  3  0  0  0  0  0  0
  197.4370  171.5730  144.8540 C   0  0  0  0  0  2  0  0  0  0  0  0
  195.5280  170.5330  146.2630 C   0  0  1  0  0  3  0  0  0  0  0  0
  195.9500  173.4070  145.6430 C   0  0  0  0  0  0  0  0  0  0  0  0
  194.7280  172.6720  145.2450 C   0  0  0  0  0  0  0  0  0  0  0  0
  193.6180  173.5040  144.7420 C   0  0  0  0  0  0  0  0  0  0  0  0
  195.8040  174.7440  146.0310 O   0  0  0  0  0  0  0  0  0  0  0  0
  194.5510  171.3640  145.4800 C   0  0  0  0  0  3  0  0  0  0  0  0
  195.1890  168.6520  147.6840 O   0  0  0  0  0  1  0  0  0  0  0  0
  194.1160  168.5600  145.6560 O   0  0  0  0  0  0  0  0  0  0  0  0
  194.9390  169.2010  146.5770 C   0  0  0  0  0  0  0  0  0  0  0  0
  1  4  1  0  0  0  0
  1  2  2  0  0  0  0
  3  5  1  0  0  0  0
  4  3  3  0  0  0  0
  5  6  1  6  0  0  0
  7  9  1  0  0  0  0
  7 11  2  0  0  0  0
  8  9  1  0  0  0  0
  9 13  2  0  0  0  0
 10  5  1  1  0  0  0
 10  7  1  0  0  0  0
 12 10  1  0  0  0  0
 12  8  2  0  0  0  0
 14 17  2  0  0  0  0
 15 17  1  0  0  0  0
 16 11  1  1  0  0  0
 16 14  1  0  0  0  0
 17 18  1  0  0  0  0
 19 16  1  0  0  0  0
 19 15  2  0  0  0  0
 20 21  1  6  0  0  0
 20  2  1  0  0  0  0
 20 23  1  0  0  0  0
 23 22  1  6  0  0  0
 23 24  1  0  0  0  0
 24 33  1  0  0  0  0
 26 30  1  0  0  0  0
 27 25  1  0  0  0  0
 28 31  2  0  0  0  0
 29 28  1  0  0  0  0
 29 26  1  0  0  0  0
 30 38  1  6  0  0  0
 31 34  1  0  0  0  0
 32 35  2  0  0  0  0
 32 31  1  0  0  0  0
 33 27  2  0  0  0  0
 33 32  1  0  0  0  0
 34 25  1  0  0  0  0
 35 30  1  0  0  0  0
 37 38  2  0  0  0  0
 38 36  1  0  0  0  0
M  END
>  <MODEL>
6

>  <REMARK>
 VINA RESULT:      -7.2      2.987      8.968
  Name = 
  9 active torsions:
  status: ('A' for Active; 'I' for Inactive)
    1  A    between atoms: C_7  and  C_20
    2  A    between atoms: C_7  and  C_21
    3  A    between atoms: C_9  and  C_30
    4  A    between atoms: C_11  and  C_13
    5  A    between atoms: C_11  and  C_35
    6  A    between atoms: C_13  and  C_23
    7  A    between atoms: C_14  and  C_29
    8  A    between atoms: C_17  and  C_23
    9  A    between atoms: C_24  and  C_31
                            x       y       z     vdW  Elec       q    Type
                         _______ _______ _______ _____ _____    ______ ____

>  <TORSDO>
F 9

$$$$
=
 OpenBabel11062421023D

 38 41  0  0  1  0  0  0  0  0999 V2000
  190.5360  173.5470  142.2640 C   0  0  0  0  0  3  0  0  0  0  0  0
  190.1750  173.6740  140.9970 C   0  0  0  0  0  3  0  0  0  0  0  0
  192.6650  172.1130  142.8840 C   0  0  0  0  0  0  0  0  0  0  0  0
  191.6900  172.7630  142.6030 C   0  0  0  0  0  0  0  0  0  0  0  0
  193.8570  171.3300  143.2230 C   0  0  2  0  0  3  0  0  0  0  0  0
  193.8720  170.1460  142.4790 O   0  0  0  0  0  1  0  0  0  0  0  0
  195.1790  171.5670  145.3370 C   0  0  0  0  0  0  0  0  0  0  0  0
  195.2050  169.2400  145.6990 N   0  0  0  0  0  0  0  0  0  0  0  0
  195.9060  170.4510  145.8790 C   0  0  0  0  0  0  0  0  0  0  0  0
  193.9140  171.0460  144.7290 C   0  0  2  0  0  3  0  0  0  0  0  0
  195.5670  172.8430  145.4250 C   0  0  0  0  0  3  0  0  0  0  0  0
  193.9410  169.5260  145.0280 C   0  0  0  0  0  3  0  0  0  0  0  0
  197.0280  170.5220  146.4480 O   0  0  0  0  0  0  0  0  0  0  0  0
  195.4920  174.6220  143.8010 N   0  0  0  0  0  0  0  0  0  0  0  0
  195.2230  176.2470  145.3710 N   0  0  0  0  0  0  0  0  0  0  0  0
  194.7610  173.9800  144.8820 C   0  0  2  0  0  3  0  0  0  0  0  0
  195.7130  175.8520  144.1050 C   0  0  0  0  0  0  0  0  0  0  0  0
  196.4460  176.7770  143.2010 C   0  0  0  0  0  1  0  0  0  0  0  0
  194.5890  175.0730  145.9450 C   0  0  0  0  0  3  0  0  0  0  0  0
  188.9810  174.4850  140.6160 C   0  0  1  0  0  3  0  0  0  0  0  0
  188.0780  173.6780  139.9170 O   0  0  0  0  0  1  0  0  0  0  0  0
  187.0310  174.5060  142.0120 O   0  0  0  0  0  1  0  0  0  0  0  0
  188.3130  175.0430  141.8700 C   0  0  2  0  0  3  0  0  0  0  0  0
  188.2120  176.5600  141.7880 C   0  0  0  0  0  2  0  0  0  0  0  0
  190.9460  178.2970  143.8860 C   0  0  0  0  0  2  0  0  0  0  0  0
  186.2260  177.3970  146.6820 C   0  0  0  0  0  2  0  0  0  0  0  0
  190.2250  177.5430  142.7930 C   0  0  0  0  0  3  0  0  0  0  0  0
  188.7620  177.1610  146.6210 C   0  0  0  0  0  3  0  0  0  0  0  0
  187.4430  176.4930  146.8790 C   0  0  0  0  0  2  0  0  0  0  0  0
  186.2820  178.3300  145.4690 C   0  0  1  0  0  3  0  0  0  0  0  0
  189.1460  177.5450  145.3980 C   0  0  0  0  0  0  0  0  0  0  0  0
  188.2610  177.4570  144.2140 C   0  0  0  0  0  0  0  0  0  0  0  0
  188.9380  177.1960  142.9300 C   0  0  0  0  0  0  0  0  0  0  0  0
  190.4790  177.9150  145.1850 O   0  0  0  0  0  0  0  0  0  0  0  0
  186.9570  177.7660  144.2500 C   0  0  0  0  0  3  0  0  0  0  0  0
  183.9760  178.6670  145.9570 O   0  0  0  0  0  1  0  0  0  0  0  0
  184.6660  179.4140  143.8980 O   0  0  0  0  0  0  0  0  0  0  0  0
  184.9140  178.8100  145.1270 C   0  0  0  0  0  0  0  0  0  0  0  0
  1  4  1  0  0  0  0
  2  1  2  0  0  0  0
  3  5  1  0  0  0  0
  4  3  3  0  0  0  0
  5  6  1  6  0  0  0
  7 11  2  0  0  0  0
  7  9  1  0  0  0  0
  8  9  1  0  0  0  0
  9 13  2  0  0  0  0
 10  5  1  6  0  0  0
 10 12  1  0  0  0  0
 10  7  1  0  0  0  0
 12  8  2  0  0  0  0
 14 17  2  0  0  0  0
 14 16  1  0  0  0  0
 15 19  2  0  0  0  0
 16 11  1  1  0  0  0
 16 19  1  0  0  0  0
 17 15  1  0  0  0  0
 18 17  1  0  0  0  0
 20 21  1  1  0  0  0
 20  2  1  0  0  0  0
 20 23  1  0  0  0  0
 23 22  1  6  0  0  0
 24 23  1  0  0  0  0
 24 33  1  0  0  0  0
 25 34  1  0  0  0  0
 26 29  1  0  0  0  0
 27 33  2  0  0  0  0
 27 25  1  0  0  0  0
 28 29  1  0  0  0  0
 30 38  1  6  0  0  0
 30 26  1  0  0  0  0
 31 28  2  0  0  0  0
 32 35  2  0  0  0  0
 32 31  1  0  0  0  0
 33 32  1  0  0  0  0
 34 31  1  0  0  0  0
 35 30  1  0  0  0  0
 37 38  2  0  0  0  0
 38 36  1  0  0  0  0
M  END
>  <MODEL>
7

>  <REMARK>
 VINA RESULT:      -7.1      2.298      5.474
  Name = 
  9 active torsions:
  status: ('A' for Active; 'I' for Inactive)
    1  A    between atoms: C_7  and  C_20
    2  A    between atoms: C_7  and  C_21
    3  A    between atoms: C_9  and  C_30
    4  A    between atoms: C_11  and  C_13
    5  A    between atoms: C_11  and  C_35
    6  A    between atoms: C_13  and  C_23
    7  A    between atoms: C_14  and  C_29
    8  A    between atoms: C_17  and  C_23
    9  A    between atoms: C_24  and  C_31
                            x       y       z     vdW  Elec       q    Type
                         _______ _______ _______ _____ _____    ______ ____

>  <TORSDO>
F 9

$$$$
=
 OpenBabel11062421023D

 38 41  0  0  1  0  0  0  0  0999 V2000
  187.4370  176.2460  141.6950 C   0  0  0  0  0  3  0  0  0  0  0  0
  187.3760  177.4030  141.0550 C   0  0  0  0  0  3  0  0  0  0  0  0
  189.5750  174.7190  141.4410 C   0  0  0  0  0  0  0  0  0  0  0  0
  188.6010  175.4180  141.5610 C   0  0  0  0  0  0  0  0  0  0  0  0
  190.7560  173.8630  141.2840 C   0  0  2  0  0  3  0  0  0  0  0  0
  190.6760  173.1650  140.0760 O   0  0  0  0  0  1  0  0  0  0  0  0
  192.3000  172.4000  142.6060 C   0  0  0  0  0  0  0  0  0  0  0  0
  190.9610  170.4950  142.2500 N   0  0  0  0  0  0  0  0  0  0  0  0
  192.2750  170.9710  142.4470 C   0  0  0  0  0  0  0  0  0  0  0  0
  190.8970  172.9070  142.4750 C   0  0  2  0  0  3  0  0  0  0  0  0
  193.3950  173.1160  142.8760 C   0  0  0  0  0  3  0  0  0  0  0  0
  190.0420  171.6280  142.2920 C   0  0  0  0  0  3  0  0  0  0  0  0
  193.2850  170.2180  142.4780 O   0  0  0  0  0  0  0  0  0  0  0  0
  194.3690  175.2200  142.2150 N   0  0  0  0  0  0  0  0  0  0  0  0
  195.0000  175.7650  144.3310 N   0  0  0  0  0  0  0  0  0  0  0  0
  193.3730  174.5990  143.0740 C   0  0  2  0  0  3  0  0  0  0  0  0
  195.2270  175.8480  142.9380 C   0  0  0  0  0  0  0  0  0  0  0  0
  196.3770  176.5860  142.3520 C   0  0  0  0  0  1  0  0  0  0  0  0
  193.8050  174.9580  144.5010 C   0  0  0  0  0  3  0  0  0  0  0  0
  186.1780  178.2870  141.1780 C   0  0  1  0  0  3  0  0  0  0  0  0
  185.2890  178.0060  140.1350 O   0  0  0  0  0  1  0  0  0  0  0  0
  184.1060  178.0450  142.3600 O   0  0  0  0  0  1  0  0  0  0  0  0
  185.4930  178.0470  142.5200 C   0  0  2  0  0  3  0  0  0  0  0  0
  185.8800  179.1340  143.5150 C   0  0  0  0  0  2  0  0  0  0  0  0
  184.0610  178.1830  146.7830 C   0  0  0  0  0  2  0  0  0  0  0  0
  189.5680  177.4450  147.0000 C   0  0  0  0  0  2  0  0  0  0  0  0
  184.3770  178.7470  145.4170 C   0  0  0  0  0  3  0  0  0  0  0  0
  187.4910  178.4400  148.0910 C   0  0  0  0  0  3  0  0  0  0  0  0
  188.9090  178.6610  147.6510 C   0  0  0  0  0  2  0  0  0  0  0  0
  188.6810  176.6460  146.0390 C   0  0  1  0  0  3  0  0  0  0  0  0
  186.4890  178.2640  147.2230 C   0  0  0  0  0  0  0  0  0  0  0  0
  186.7030  178.1500  145.7610 C   0  0  0  0  0  0  0  0  0  0  0  0
  185.6180  178.6800  144.9150 C   0  0  0  0  0  0  0  0  0  0  0  0
  185.1680  178.3280  147.6810 O   0  0  0  0  0  0  0  0  0  0  0  0
  187.7170  177.4600  145.2220 C   0  0  0  0  0  3  0  0  0  0  0  0
  189.3260  174.5520  145.1060 O   0  0  0  0  0  1  0  0  0  0  0  0
  190.5250  176.3680  144.3730 O   0  0  0  0  0  0  0  0  0  0  0  0
  189.5230  175.7970  145.1510 C   0  0  0  0  0  0  0  0  0  0  0  0
  2 20  1  0  0  0  0
  2  1  2  0  0  0  0
  3  4  3  0  0  0  0
  4  1  1  0  0  0  0
  5  6  1  6  0  0  0
  5  3  1  0  0  0  0
  7 11  2  0  0  0  0
  8 12  2  0  0  0  0
  8  9  1  0  0  0  0
  9 13  2  0  0  0  0
  9  7  1  0  0  0  0
 10  5  1  6  0  0  0
 10  7  1  0  0  0  0
 12 10  1  0  0  0  0
 14 17  2  0  0  0  0
 14 16  1  0  0  0  0
 15 19  2  0  0  0  0
 16 11  1  1  0  0  0
 16 19  1  0  0  0  0
 17 15  1  0  0  0  0
 18 17  1  0  0  0  0
 20 21  1  6  0  0  0
 20 23  1  0  0  0  0
 23 22  1  6  0  0  0
 23 24  1  0  0  0  0
 24 33  1  0  0  0  0
 25 34  1  0  0  0  0
 26 29  1  0  0  0  0
 27 25  1  0  0  0  0
 29 28  1  0  0  0  0
 30 38  1  6  0  0  0
 30 26  1  0  0  0  0
 31 34  1  0  0  0  0
 31 28  2  0  0  0  0
 32 31  1  0  0  0  0
 33 27  2  0  0  0  0
 33 32  1  0  0  0  0
 35 32  2  0  0  0  0
 35 30  1  0  0  0  0
 36 38  1  0  0  0  0
 37 38  2  0  0  0  0
M  END
>  <MODEL>
8

>  <REMARK>
 VINA RESULT:      -7.1      2.112      4.350
  Name = 
  9 active torsions:
  status: ('A' for Active; 'I' for Inactive)
    1  A    between atoms: C_7  and  C_20
    2  A    between atoms: C_7  and  C_21
    3  A    between atoms: C_9  and  C_30
    4  A    between atoms: C_11  and  C_13
    5  A    between atoms: C_11  and  C_35
    6  A    between atoms: C_13  and  C_23
    7  A    between atoms: C_14  and  C_29
    8  A    between atoms: C_17  and  C_23
    9  A    between atoms: C_24  and  C_31
                            x       y       z     vdW  Elec       q    Type
                         _______ _______ _______ _____ _____    ______ ____

>  <TORSDO>
F 9

$$$$
=
 OpenBabel11062421023D

 38 41  0  0  1  0  0  0  0  0999 V2000
  191.1980  173.8930  142.3440 C   0  0  0  0  0  3  0  0  0  0  0  0
  190.6770  174.1670  141.1590 C   0  0  0  0  0  3  0  0  0  0  0  0
  193.7980  174.1590  142.7180 C   0  0  0  0  0  0  0  0  0  0  0  0
  192.6110  174.0370  142.5530 C   0  0  0  0  0  0  0  0  0  0  0  0
  195.2440  174.3090  142.9080 C   0  0  2  0  0  3  0  0  0  0  0  0
  195.8770  173.0790  142.7040 O   0  0  0  0  0  1  0  0  0  0  0  0
  194.5820  174.3810  145.3220 C   0  0  0  0  0  0  0  0  0  0  0  0
  194.3410  176.7230  145.2890 N   0  0  0  0  0  0  0  0  0  0  0  0
  193.8830  175.5170  145.8590 C   0  0  0  0  0  0  0  0  0  0  0  0
  195.5560  174.8760  144.2980 C   0  0  2  0  0  3  0  0  0  0  0  0
  194.4070  173.1190  145.7260 C   0  0  0  0  0  3  0  0  0  0  0  0
  195.4050  176.4180  144.3390 C   0  0  0  0  0  3  0  0  0  0  0  0
  192.9750  175.4650  146.7310 O   0  0  0  0  0  0  0  0  0  0  0  0
  194.4610  170.7290  145.4130 N   0  0  0  0  0  0  0  0  0  0  0  0
  196.4400  170.4800  146.5090 N   0  0  0  0  0  0  0  0  0  0  0  0
  195.1840  171.9680  145.1680 C   0  0  2  0  0  3  0  0  0  0  0  0
  195.1840  169.9490  146.1370 C   0  0  0  0  0  0  0  0  0  0  0  0
  194.7210  168.6020  146.5640 C   0  0  0  0  0  1  0  0  0  0  0  0
  196.5130  171.8030  145.9150 C   0  0  0  0  0  3  0  0  0  0  0  0
  189.2100  174.0290  140.9150 C   0  0  1  0  0  3  0  0  0  0  0  0
  188.8780  172.6720  140.8510 O   0  0  0  0  0  1  0  0  0  0  0  0
  187.1500  174.1530  142.1350 O   0  0  0  0  0  1  0  0  0  0  0  0
  188.4320  174.6990  142.0430 C   0  0  2  0  0  3  0  0  0  0  0  0
  188.3190  176.1980  141.7930 C   0  0  0  0  0  2  0  0  0  0  0  0
  190.8090  178.2840  143.8750 C   0  0  0  0  0  2  0  0  0  0  0  0
  186.0430  177.2050  146.5270 C   0  0  0  0  0  2  0  0  0  0  0  0
  190.2000  177.4030  142.8090 C   0  0  0  0  0  3  0  0  0  0  0  0
  188.5910  177.1670  146.5890 C   0  0  0  0  0  3  0  0  0  0  0  0
  187.3150  176.4160  146.8380 C   0  0  0  0  0  2  0  0  0  0  0  0
  186.0870  178.0550  145.2530 C   0  0  1  0  0  3  0  0  0  0  0  0
  189.0020  177.4960  145.3600 C   0  0  0  0  0  0  0  0  0  0  0  0
  188.1830  177.2580  144.1480 C   0  0  0  0  0  0  0  0  0  0  0  0
  188.9390  176.9650  142.9160 C   0  0  0  0  0  0  0  0  0  0  0  0
  190.3110  177.9550  145.1770 O   0  0  0  0  0  0  0  0  0  0  0  0
  186.8600  177.4650  144.1070 C   0  0  0  0  0  3  0  0  0  0  0  0
  184.4280  178.4530  143.5910 O   0  0  0  0  0  0  0  0  0  0  0  0
  183.7160  178.6660  145.7640 O   0  0  0  0  0  1  0  0  0  0  0  0
  184.7040  178.4000  144.8200 C   0  0  0  0  0  0  0  0  0  0  0  0
  1  4  1  0  0  0  0
  2  1  2  0  0  0  0
  3  5  1  0  0  0  0
  4  3  3  0  0  0  0
  5  6  1  1  0  0  0
  7 11  2  0  0  0  0
  7  9  1  0  0  0  0
  8  9  1  0  0  0  0
  9 13  2  0  0  0  0
 10  5  1  6  0  0  0
 10 12  1  0  0  0  0
 10  7  1  0  0  0  0
 12  8  2  0  0  0  0
 14 17  2  0  0  0  0
 16 14  1  0  0  0  0
 16 11  1  1  0  0  0
 16 19  1  0  0  0  0
 17 15  1  0  0  0  0
 17 18  1  0  0  0  0
 19 15  2  0  0  0  0
 20 21  1  1  0  0  0
 20  2  1  0  0  0  0
 20 23  1  0  0  0  0
 23 22  1  6  0  0  0
 24 23  1  0  0  0  0
 24 33  1  0  0  0  0
 25 34  1  0  0  0  0
 26 29  1  0  0  0  0
 27 33  2  0  0  0  0
 27 25  1  0  0  0  0
 28 29  1  0  0  0  0
 30 38  1  6  0  0  0
 30 26  1  0  0  0  0
 31 28  2  0  0  0  0
 32 31  1  0  0  0  0
 33 32  1  0  0  0  0
 34 31  1  0  0  0  0
 35 32  2  0  0  0  0
 35 30  1  0  0  0  0
 36 38  2  0  0  0  0
 38 37  1  0  0  0  0
M  END
>  <MODEL>
9

>  <REMARK>
 VINA RESULT:      -7.0      2.131      5.407
  Name = 
  9 active torsions:
  status: ('A' for Active; 'I' for Inactive)
    1  A    between atoms: C_7  and  C_20
    2  A    between atoms: C_7  and  C_21
    3  A    between atoms: C_9  and  C_30
    4  A    between atoms: C_11  and  C_13
    5  A    between atoms: C_11  and  C_35
    6  A    between atoms: C_13  and  C_23
    7  A    between atoms: C_14  and  C_29
    8  A    between atoms: C_17  and  C_23
    9  A    between atoms: C_24  and  C_31
                            x       y       z     vdW  Elec       q    Type
                         _______ _______ _______ _____ _____    ______ ____

>  <TORSDO>
F 9

$$$$
