=
 OpenBabel11062422053D

 34 34  0  0  1  0  0  0  0  0999 V2000
  187.3150  177.2330  141.1180 C   0  0  0  0  0  2  0  0  0  0  0  0
  186.7970  177.2930  142.5400 C   0  0  1  0  0  3  0  0  0  0  0  0
  188.1170  176.6120  142.2410 C   0  0  1  0  0  3  0  0  0  0  0  0
  187.9060  175.1080  142.2480 C   0  0  0  0  0  2  0  0  0  0  0  0
  191.4430  175.7160  142.6010 C   0  0  0  0  0  3  0  0  0  0  0  0
  190.3290  175.0500  142.4410 C   0  0  0  0  0  0  0  0  0  0  0  0
  189.2160  174.3840  142.2840 C   0  0  0  0  0  0  0  0  0  0  0  0
  191.8440  176.2970  143.8900 C   0  0  0  0  0  3  0  0  0  0  0  0
  192.4940  175.6070  144.8240 C   0  0  0  0  0  3  0  0  0  0  0  0
  192.5860  175.3660  147.1530 F   0  0  0  0  0  0  0  0  0  0  0  0
  192.8800  176.2390  146.1210 C   0  0  1  0  0  3  0  0  0  0  0  0
  194.3650  176.6070  146.1600 C   0  0  0  0  0  0  0  0  0  0  0  0
  194.6200  177.4420  147.2350 F   0  0  0  0  0  0  0  0  0  0  0  0
  195.1260  175.4480  146.3020 O   0  0  0  0  0  1  0  0  0  0  0  0
  194.7290  177.2480  144.9900 F   0  0  0  0  0  0  0  0  0  0  0  0
  190.2250  172.4090  143.1130 O   0  0  0  0  0  1  0  0  0  0  0  0
  189.2630  172.8900  142.2250 C   0  0  2  0  0  3  0  0  0  0  0  0
  189.5760  172.4040  140.8180 C   0  0  0  0  0  2  0  0  0  0  0  0
  188.8410  173.1350  139.8850 O   0  0  0  0  0  1  0  0  0  0  0  0
  187.0850  178.6640  143.1240 C   0  0  0  0  0  2  0  0  0  0  0  0
  186.2550  178.9030  144.3770 C   0  0  0  0  0  2  0  0  0  0  0  0
  185.0750  177.9440  144.4650 C   0  0  2  0  0  3  0  0  0  0  0  0
  183.8830  178.6730  144.4410 O   0  0  0  0  0  0  0  0  0  0  0  0
  183.4680  178.6360  143.1080 C   0  0  0  0  0  1  0  0  0  0  0  0
  185.1540  177.1330  145.7510 C   0  0  0  0  0  2  0  0  0  0  0  0
  186.3480  177.5560  146.6000 C   0  0  1  0  0  3  0  0  0  0  0  0
  185.8810  178.3660  147.7990 C   0  0  0  0  0  2  0  0  0  0  0  0
  186.9230  179.1650  148.2720 O   0  0  0  0  0  1  0  0  0  0  0  0
  187.0840  176.3240  147.0990 C   0  0  0  0  0  2  0  0  0  0  0  0
  188.3300  176.0580  146.2670 C   0  0  1  0  0  3  0  0  0  0  0  0
  189.8370  177.6210  147.2690 O   0  0  0  0  0  1  0  0  0  0  0  0
  189.0980  177.3620  146.1150 C   0  0  0  0  0  2  0  0  0  0  0  0
  189.1990  175.0120  146.9520 C   0  0  0  0  0  2  0  0  0  0  0  0
  189.6060  173.9340  145.9670 C   0  0  0  0  0  1  0  0  0  0  0  0
  1  3  1  0  0  0  0
  1  2  1  0  0  0  0
  2 20  1  1  0  0  0
  3  4  1  6  0  0  0
  3  2  1  0  0  0  0
  4  7  1  0  0  0  0
  5  8  1  0  0  0  0
  6  5  2  0  0  0  0
  7  6  2  0  0  0  0
  8  9  2  0  0  0  0
  9 11  1  0  0  0  0
 11 12  1  0  0  0  0
 11 10  1  1  0  0  0
 12 14  1  0  0  0  0
 12 13  1  0  0  0  0
 15 12  1  0  0  0  0
 17  7  1  0  0  0  0
 17 16  1  1  0  0  0
 18 17  1  0  0  0  0
 19 18  1  0  0  0  0
 20 21  1  0  0  0  0
 22 21  1  1  0  0  0
 22 25  1  0  0  0  0
 23 22  1  0  0  0  0
 24 23  1  0  0  0  0
 26 25  1  1  0  0  0
 26 29  1  0  0  0  0
 26 27  1  0  0  0  0
 27 28  1  0  0  0  0
 30 32  1  1  0  0  0
 30 33  1  0  0  0  0
 30 29  1  0  0  0  0
 32 31  1  0  0  0  0
 34 33  1  0  0  0  0
M  END
>  <MODEL>
1

>  <REMARK>
 VINA RESULT:      -5.9      0.000      0.000
  Name = 
  18 active torsions:
  status: ('A' for Active; 'I' for Inactive)
    1  A    between atoms: C_1  and  C_13
    2  A    between atoms: C_2  and  C_15
    3  A    between atoms: C_2  and  C_24
    4  A    between atoms: O_4  and  C_25
    5  A    between atoms: C_5  and  C_7
    6  A    between atoms: C_5  and  C_33
    7  A    between atoms: C_6  and  C_7
    8  A    between atoms: C_7  and  C_32
    9  A    between atoms: C_8  and  C_18
   10  A    between atoms: C_17  and  C_27
   11  A    between atoms: C_18  and  C_23
   12  A    between atoms: C_19  and  C_33
   13  A    between atoms: C_21  and  C_31
   14  A    between atoms: C_24  and  C_25
   15  A    between atoms: C_25  and  C_32
   16  A    between atoms: C_27  and  C_34
   17  A    between atoms: C_29  and  C_33
   18  A    between atoms: C_31  and  C_34
                            x       y       z     vdW  Elec       q    Type
                         _______ _______ _______ _____ _____    ______ ____

>  <TORSDO>
F 18

$$$$
=
 OpenBabel11062422053D

 34 34  0  0  1  0  0  0  0  0999 V2000
  189.7760  174.5290  146.4590 C   0  0  0  0  0  2  0  0  0  0  0  0
  189.9190  175.8000  147.2720 C   0  0  1  0  0  3  0  0  0  0  0  0
  190.9150  175.4840  146.1740 C   0  0  1  0  0  3  0  0  0  0  0  0
  192.1920  174.9580  146.8060 C   0  0  0  0  0  2  0  0  0  0  0  0
  192.6480  172.1670  144.5670 C   0  0  0  0  0  3  0  0  0  0  0  0
  192.8910  173.3050  145.1660 C   0  0  0  0  0  0  0  0  0  0  0  0
  193.1320  174.4420  145.7610 C   0  0  0  0  0  0  0  0  0  0  0  0
  191.5960  172.0120  143.5520 C   0  0  0  0  0  3  0  0  0  0  0  0
  191.1690  173.0190  142.7940 C   0  0  0  0  0  3  0  0  0  0  0  0
  190.1050  171.4910  141.3710 F   0  0  0  0  0  0  0  0  0  0  0  0
  190.0960  172.8150  141.7760 C   0  0  1  0  0  3  0  0  0  0  0  0
  188.7130  173.1820  142.3170 C   0  0  0  0  0  0  0  0  0  0  0  0
  188.8380  174.0010  143.4260 F   0  0  0  0  0  0  0  0  0  0  0  0
  187.9970  173.8640  141.3340 O   0  0  0  0  0  1  0  0  0  0  0  0
  188.0200  172.0390  142.6720 F   0  0  0  0  0  0  0  0  0  0  0  0
  195.1050  175.5640  146.4330 O   0  0  0  0  0  1  0  0  0  0  0  0
  194.3100  175.2560  145.3290 C   0  0  2  0  0  3  0  0  0  0  0  0
  193.8720  176.5390  144.6400 C   0  0  0  0  0  2  0  0  0  0  0  0
  193.3570  176.2500  143.3760 O   0  0  0  0  0  1  0  0  0  0  0  0
  188.9460  176.8430  146.7530 C   0  0  0  0  0  2  0  0  0  0  0  0
  187.5090  176.3670  146.9120 C   0  0  0  0  0  2  0  0  0  0  0  0
  186.5180  177.3450  146.2930 C   0  0  2  0  0  3  0  0  0  0  0  0
  185.4660  177.5650  147.1850 O   0  0  0  0  0  0  0  0  0  0  0  0
  185.6770  178.8540  147.6770 C   0  0  0  0  0  1  0  0  0  0  0  0
  185.9740  176.7810  144.9870 C   0  0  0  0  0  2  0  0  0  0  0  0
  186.1970  177.7500  143.8310 C   0  0  1  0  0  3  0  0  0  0  0  0
  185.5120  179.0770  144.1140 C   0  0  0  0  0  2  0  0  0  0  0  0
  184.1310  178.8960  144.1950 O   0  0  0  0  0  1  0  0  0  0  0  0
  187.6850  177.9970  143.6480 C   0  0  0  0  0  2  0  0  0  0  0  0
  188.2530  177.1200  142.5420 C   0  0  1  0  0  3  0  0  0  0  0  0
  187.0480  176.8860  140.4900 O   0  0  0  0  0  1  0  0  0  0  0  0
  187.8930  177.7390  141.2010 C   0  0  0  0  0  2  0  0  0  0  0  0
  189.7650  177.0160  142.6860 C   0  0  0  0  0  2  0  0  0  0  0  0
  190.2830  178.0850  143.6280 C   0  0  0  0  0  1  0  0  0  0  0  0
  1  2  1  0  0  0  0
  2 20  1  6  0  0  0
  3  1  1  0  0  0  0
  3  4  1  1  0  0  0
  3  2  1  0  0  0  0
  5  6  2  0  0  0  0
  6  7  2  0  0  0  0
  7  4  1  0  0  0  0
  8  5  1  0  0  0  0
  9  8  2  0  0  0  0
 11 10  1  1  0  0  0
 11 12  1  0  0  0  0
 11  9  1  0  0  0  0
 12 15  1  0  0  0  0
 12 13  1  0  0  0  0
 14 12  1  0  0  0  0
 17  7  1  0  0  0  0
 17 16  1  1  0  0  0
 18 17  1  0  0  0  0
 19 18  1  0  0  0  0
 20 21  1  0  0  0  0
 22 25  1  6  0  0  0
 22 21  1  0  0  0  0
 22 23  1  0  0  0  0
 23 24  1  0  0  0  0
 26 29  1  1  0  0  0
 26 27  1  0  0  0  0
 26 25  1  0  0  0  0
 27 28  1  0  0  0  0
 30 32  1  6  0  0  0
 30 33  1  0  0  0  0
 30 29  1  0  0  0  0
 31 32  1  0  0  0  0
 33 34  1  0  0  0  0
M  END
>  <MODEL>
2

>  <REMARK>
 VINA RESULT:      -5.6      2.648      5.581
  Name = 
  18 active torsions:
  status: ('A' for Active; 'I' for Inactive)
    1  A    between atoms: C_1  and  C_13
    2  A    between atoms: C_2  and  C_15
    3  A    between atoms: C_2  and  C_24
    4  A    between atoms: O_4  and  C_25
    5  A    between atoms: C_5  and  C_7
    6  A    between atoms: C_5  and  C_33
    7  A    between atoms: C_6  and  C_7
    8  A    between atoms: C_7  and  C_32
    9  A    between atoms: C_8  and  C_18
   10  A    between atoms: C_17  and  C_27
   11  A    between atoms: C_18  and  C_23
   12  A    between atoms: C_19  and  C_33
   13  A    between atoms: C_21  and  C_31
   14  A    between atoms: C_24  and  C_25
   15  A    between atoms: C_25  and  C_32
   16  A    between atoms: C_27  and  C_34
   17  A    between atoms: C_29  and  C_33
   18  A    between atoms: C_31  and  C_34
                            x       y       z     vdW  Elec       q    Type
                         _______ _______ _______ _____ _____    ______ ____

>  <TORSDO>
F 18

$$$$
=
 OpenBabel11062422053D

 34 34  0  0  1  0  0  0  0  0999 V2000
  187.8110  175.6230  140.7610 C   0  0  0  0  0  2  0  0  0  0  0  0
  187.5410  176.3230  142.0770 C   0  0  1  0  0  3  0  0  0  0  0  0
  188.8730  175.6410  141.8390 C   0  0  1  0  0  3  0  0  0  0  0  0
  188.8800  174.3100  142.5690 C   0  0  0  0  0  2  0  0  0  0  0  0
  192.3250  174.7320  141.5870 C   0  0  0  0  0  3  0  0  0  0  0  0
  191.2110  174.1230  141.9010 C   0  0  0  0  0  0  0  0  0  0  0  0
  190.1000  173.5140  142.2190 C   0  0  0  0  0  0  0  0  0  0  0  0
  193.1730  175.4030  142.5830 C   0  0  0  0  0  3  0  0  0  0  0  0
  193.8990  174.7390  143.4790 C   0  0  0  0  0  3  0  0  0  0  0  0
  195.0610  176.7140  143.9720 F   0  0  0  0  0  0  0  0  0  0  0  0
  194.7460  175.4630  144.4730 C   0  0  1  0  0  3  0  0  0  0  0  0
  194.0450  175.6080  145.8260 C   0  0  0  0  0  0  0  0  0  0  0  0
  193.3610  176.8100  145.8810 F   0  0  0  0  0  0  0  0  0  0  0  0
  193.1350  174.5650  145.9900 O   0  0  0  0  0  1  0  0  0  0  0  0
  194.9730  175.5650  146.8510 F   0  0  0  0  0  0  0  0  0  0  0  0
  188.9700  171.5990  143.0290 O   0  0  0  0  0  1  0  0  0  0  0  0
  190.0860  172.0220  142.3060 C   0  0  2  0  0  3  0  0  0  0  0  0
  191.3520  171.4950  142.9640 C   0  0  0  0  0  2  0  0  0  0  0  0
  191.7220  170.2810  142.3840 O   0  0  0  0  0  1  0  0  0  0  0  0
  187.7280  177.8190  141.9000 C   0  0  0  0  0  2  0  0  0  0  0  0
  186.5490  178.5840  142.4840 C   0  0  0  0  0  2  0  0  0  0  0  0
  186.0230  177.9280  143.7540 C   0  0  2  0  0  3  0  0  0  0  0  0
  184.6350  178.0750  143.8100 O   0  0  0  0  0  0  0  0  0  0  0  0
  184.2120  177.9960  142.4820 C   0  0  0  0  0  1  0  0  0  0  0  0
  186.6570  178.5740  144.9780 C   0  0  0  0  0  2  0  0  0  0  0  0
  187.1030  177.5250  145.9910 C   0  0  1  0  0  3  0  0  0  0  0  0
  185.8930  176.8840  146.6520 C   0  0  0  0  0  2  0  0  0  0  0  0
  185.9590  177.0520  148.0360 O   0  0  0  0  0  1  0  0  0  0  0  0
  187.9060  176.4430  145.2880 C   0  0  0  0  0  2  0  0  0  0  0  0
  189.2700  176.2680  145.9380 C   0  0  1  0  0  3  0  0  0  0  0  0
  188.7120  174.7120  147.6660 O   0  0  0  0  0  1  0  0  0  0  0  0
  189.3830  174.8400  146.4490 C   0  0  0  0  0  2  0  0  0  0  0  0
  190.3700  176.5520  144.9240 C   0  0  0  0  0  2  0  0  0  0  0  0
  190.3220  178.0010  144.4820 C   0  0  0  0  0  1  0  0  0  0  0  0
  1  3  1  0  0  0  0
  1  2  1  0  0  0  0
  2 20  1  6  0  0  0
  3  2  1  0  0  0  0
  3  4  1  1  0  0  0
  5  6  2  0  0  0  0
  5  8  1  0  0  0  0
  6  7  2  0  0  0  0
  7 17  1  0  0  0  0
  7  4  1  0  0  0  0
  8  9  2  0  0  0  0
  9 11  1  0  0  0  0
 11 10  1  6  0  0  0
 11 12  1  0  0  0  0
 12 13  1  0  0  0  0
 12 14  1  0  0  0  0
 12 15  1  0  0  0  0
 17 18  1  0  0  0  0
 17 16  1  1  0  0  0
 19 18  1  0  0  0  0
 20 21  1  0  0  0  0
 22 21  1  6  0  0  0
 22 23  1  0  0  0  0
 22 25  1  0  0  0  0
 24 23  1  0  0  0  0
 26 25  1  6  0  0  0
 26 27  1  0  0  0  0
 27 28  1  0  0  0  0
 29 30  1  0  0  0  0
 29 26  1  0  0  0  0
 30 33  1  6  0  0  0
 30 32  1  0  0  0  0
 32 31  1  0  0  0  0
 34 33  1  0  0  0  0
M  END
>  <MODEL>
3

>  <REMARK>
 VINA RESULT:      -5.3      1.611      2.256
  Name = 
  18 active torsions:
  status: ('A' for Active; 'I' for Inactive)
    1  A    between atoms: C_1  and  C_13
    2  A    between atoms: C_2  and  C_15
    3  A    between atoms: C_2  and  C_24
    4  A    between atoms: O_4  and  C_25
    5  A    between atoms: C_5  and  C_7
    6  A    between atoms: C_5  and  C_33
    7  A    between atoms: C_6  and  C_7
    8  A    between atoms: C_7  and  C_32
    9  A    between atoms: C_8  and  C_18
   10  A    between atoms: C_17  and  C_27
   11  A    between atoms: C_18  and  C_23
   12  A    between atoms: C_19  and  C_33
   13  A    between atoms: C_21  and  C_31
   14  A    between atoms: C_24  and  C_25
   15  A    between atoms: C_25  and  C_32
   16  A    between atoms: C_27  and  C_34
   17  A    between atoms: C_29  and  C_33
   18  A    between atoms: C_31  and  C_34
                            x       y       z     vdW  Elec       q    Type
                         _______ _______ _______ _____ _____    ______ ____

>  <TORSDO>
F 18

$$$$
=
 OpenBabel11062422053D

 34 34  0  0  1  0  0  0  0  0999 V2000
  191.2190  176.7300  148.1250 C   0  0  0  0  0  2  0  0  0  0  0  0
  190.5850  176.4500  146.7780 C   0  0  1  0  0  3  0  0  0  0  0  0
  191.6480  175.5200  147.3250 C   0  0  1  0  0  3  0  0  0  0  0  0
  192.9640  175.8130  146.6240 C   0  0  0  0  0  2  0  0  0  0  0  0
  191.3940  173.1360  144.7860 C   0  0  0  0  0  3  0  0  0  0  0  0
  192.3330  173.9480  145.1960 C   0  0  0  0  0  0  0  0  0  0  0  0
  193.2710  174.7610  145.6030 C   0  0  0  0  0  0  0  0  0  0  0  0
  190.3170  173.5590  143.8780 C   0  0  0  0  0  3  0  0  0  0  0  0
  189.7220  172.7280  143.0260 C   0  0  0  0  0  3  0  0  0  0  0  0
  187.8920  174.1710  142.7760 F   0  0  0  0  0  0  0  0  0  0  0  0
  188.6330  173.2030  142.1210 C   0  0  1  0  0  3  0  0  0  0  0  0
  189.1830  173.7700  140.8100 C   0  0  0  0  0  0  0  0  0  0  0  0
  190.4030  174.3850  141.0320 F   0  0  0  0  0  0  0  0  0  0  0  0
  189.3620  172.7320  139.8960 O   0  0  0  0  0  1  0  0  0  0  0  0
  188.2980  174.6920  140.2800 F   0  0  0  0  0  0  0  0  0  0  0  0
  195.6090  174.9060  145.9440 O   0  0  0  0  0  1  0  0  0  0  0  0
  194.6270  174.6800  144.9790 C   0  0  2  0  0  3  0  0  0  0  0  0
  194.7770  175.6900  143.8510 C   0  0  0  0  0  2  0  0  0  0  0  0
  195.7970  176.5930  144.1510 O   0  0  0  0  0  1  0  0  0  0  0  0
  189.2270  175.8030  146.9840 C   0  0  0  0  0  2  0  0  0  0  0  0
  188.3490  175.9840  145.7540 C   0  0  0  0  0  2  0  0  0  0  0  0
  187.4270  177.1890  145.8910 C   0  0  2  0  0  3  0  0  0  0  0  0
  187.4010  177.6030  147.2250 O   0  0  0  0  0  0  0  0  0  0  0  0
  186.0720  177.4470  147.6230 C   0  0  0  0  0  1  0  0  0  0  0  0
  186.0190  176.8240  145.4400 C   0  0  0  0  0  2  0  0  0  0  0  0
  185.6740  177.4850  144.1110 C   0  0  1  0  0  3  0  0  0  0  0  0
  185.8780  178.9890  144.2010 C   0  0  0  0  0  2  0  0  0  0  0  0
  184.8830  179.5600  144.9940 O   0  0  0  0  0  1  0  0  0  0  0  0
  186.5720  176.9340  143.0160 C   0  0  0  0  0  2  0  0  0  0  0  0
  186.8380  177.9850  141.9480 C   0  0  1  0  0  3  0  0  0  0  0  0
  188.9910  177.0740  142.4490 O   0  0  0  0  0  1  0  0  0  0  0  0
  188.3300  178.0170  141.6600 C   0  0  0  0  0  2  0  0  0  0  0  0
  186.0650  177.6450  140.6810 C   0  0  0  0  0  2  0  0  0  0  0  0
  184.7530  178.4030  140.6400 C   0  0  0  0  0  1  0  0  0  0  0  0
  2 20  1  1  0  0  0
  2  3  1  0  0  0  0
  2  1  1  0  0  0  0
  3  4  1  6  0  0  0
  3  1  1  0  0  0  0
  5  6  2  0  0  0  0
  6  7  2  0  0  0  0
  7  4  1  0  0  0  0
  8  5  1  0  0  0  0
  9  8  2  0  0  0  0
 11 10  1  1  0  0  0
 11  9  1  0  0  0  0
 12 13  1  0  0  0  0
 12 11  1  0  0  0  0
 14 12  1  0  0  0  0
 15 12  1  0  0  0  0
 17  7  1  0  0  0  0
 17 16  1  1  0  0  0
 18 19  1  0  0  0  0
 18 17  1  0  0  0  0
 21 22  1  0  0  0  0
 21 20  1  0  0  0  0
 22 25  1  1  0  0  0
 22 23  1  0  0  0  0
 23 24  1  0  0  0  0
 26 29  1  6  0  0  0
 26 27  1  0  0  0  0
 26 25  1  0  0  0  0
 27 28  1  0  0  0  0
 30 33  1  6  0  0  0
 30 29  1  0  0  0  0
 32 30  1  0  0  0  0
 32 31  1  0  0  0  0
 34 33  1  0  0  0  0
M  END
>  <MODEL>
4

>  <REMARK>
 VINA RESULT:      -5.3      2.704      5.915
  Name = 
  18 active torsions:
  status: ('A' for Active; 'I' for Inactive)
    1  A    between atoms: C_1  and  C_13
    2  A    between atoms: C_2  and  C_15
    3  A    between atoms: C_2  and  C_24
    4  A    between atoms: O_4  and  C_25
    5  A    between atoms: C_5  and  C_7
    6  A    between atoms: C_5  and  C_33
    7  A    between atoms: C_6  and  C_7
    8  A    between atoms: C_7  and  C_32
    9  A    between atoms: C_8  and  C_18
   10  A    between atoms: C_17  and  C_27
   11  A    between atoms: C_18  and  C_23
   12  A    between atoms: C_19  and  C_33
   13  A    between atoms: C_21  and  C_31
   14  A    between atoms: C_24  and  C_25
   15  A    between atoms: C_25  and  C_32
   16  A    between atoms: C_27  and  C_34
   17  A    between atoms: C_29  and  C_33
   18  A    between atoms: C_31  and  C_34
                            x       y       z     vdW  Elec       q    Type
                         _______ _______ _______ _____ _____    ______ ____

>  <TORSDO>
F 18

$$$$
=
 OpenBabel11062422053D

 34 34  0  0  1  0  0  0  0  0999 V2000
  188.1090  172.7980  141.7690 C   0  0  0  0  0  2  0  0  0  0  0  0
  189.4200  173.3520  142.2870 C   0  0  1  0  0  3  0  0  0  0  0  0
  188.1560  174.1820  142.3790 C   0  0  1  0  0  3  0  0  0  0  0  0
  188.1720  175.2260  141.2770 C   0  0  0  0  0  2  0  0  0  0  0  0
  185.8200  176.3190  143.7820 C   0  0  0  0  0  3  0  0  0  0  0  0
  186.5630  176.3560  142.7070 C   0  0  0  0  0  0  0  0  0  0  0  0
  187.3080  176.3960  141.6350 C   0  0  0  0  0  0  0  0  0  0  0  0
  186.3750  176.4440  145.1380 C   0  0  0  0  0  3  0  0  0  0  0  0
  186.8820  177.5810  145.6090 C   0  0  0  0  0  3  0  0  0  0  0  0
  188.7470  178.1030  146.9290 F   0  0  0  0  0  0  0  0  0  0  0  0
  187.4380  177.6610  146.9930 C   0  0  1  0  0  3  0  0  0  0  0  0
  186.6180  178.5940  147.8870 C   0  0  0  0  0  0  0  0  0  0  0  0
  187.4610  179.3810  148.6530 F   0  0  0  0  0  0  0  0  0  0  0  0
  185.8300  179.4240  147.0910 O   0  0  0  0  0  1  0  0  0  0  0  0
  185.7990  177.8570  148.7230 F   0  0  0  0  0  0  0  0  0  0  0  0
  187.0570  178.7490  141.6260 O   0  0  0  0  0  1  0  0  0  0  0  0
  187.3470  177.6480  140.8190 C   0  0  2  0  0  3  0  0  0  0  0  0
  186.3580  177.5860  139.6650 C   0  0  0  0  0  2  0  0  0  0  0  0
  187.0130  177.1950  138.4960 O   0  0  0  0  0  1  0  0  0  0  0  0
  189.7100  172.7630  143.6560 C   0  0  0  0  0  2  0  0  0  0  0  0
  190.9290  173.4250  144.2820 C   0  0  0  0  0  2  0  0  0  0  0  0
  190.5460  174.3290  145.4460 C   0  0  2  0  0  3  0  0  0  0  0  0
  189.4110  173.8150  146.0780 O   0  0  0  0  0  0  0  0  0  0  0  0
  189.2010  174.6540  147.1740 C   0  0  0  0  0  1  0  0  0  0  0  0
  190.2600  175.7380  144.9420 C   0  0  0  0  0  2  0  0  0  0  0  0
  191.2580  176.1560  143.8680 C   0  0  1  0  0  3  0  0  0  0  0  0
  190.6290  177.1760  142.9330 C   0  0  0  0  0  2  0  0  0  0  0  0
  189.6840  177.9370  143.6200 O   0  0  0  0  0  1  0  0  0  0  0  0
  192.4820  176.7780  144.5200 C   0  0  0  0  0  2  0  0  0  0  0  0
  193.7050  175.8910  144.3430 C   0  0  1  0  0  3  0  0  0  0  0  0
  195.5980  175.9930  142.8860 O   0  0  0  0  0  1  0  0  0  0  0  0
  194.2040  176.0340  142.9140 C   0  0  0  0  0  2  0  0  0  0  0  0
  194.7930  176.3040  145.3240 C   0  0  0  0  0  2  0  0  0  0  0  0
  195.1200  175.1610  146.2650 C   0  0  0  0  0  1  0  0  0  0  0  0
  1  2  1  0  0  0  0
  1  3  1  0  0  0  0
  2  3  1  0  0  0  0
  2 20  1  1  0  0  0
  3  4  1  6  0  0  0
  4  7  1  0  0  0  0
  5  8  1  0  0  0  0
  6  5  2  0  0  0  0
  7  6  2  0  0  0  0
  8  9  2  0  0  0  0
  9 11  1  0  0  0  0
 11 10  1  6  0  0  0
 11 12  1  0  0  0  0
 12 13  1  0  0  0  0
 12 15  1  0  0  0  0
 14 12  1  0  0  0  0
 17 16  1  1  0  0  0
 17  7  1  0  0  0  0
 18 17  1  0  0  0  0
 19 18  1  0  0  0  0
 20 21  1  0  0  0  0
 22 21  1  6  0  0  0
 22 23  1  0  0  0  0
 23 24  1  0  0  0  0
 25 22  1  0  0  0  0
 26 27  1  6  0  0  0
 26 29  1  0  0  0  0
 26 25  1  0  0  0  0
 27 28  1  0  0  0  0
 30 32  1  6  0  0  0
 30 29  1  0  0  0  0
 30 33  1  0  0  0  0
 31 32  1  0  0  0  0
 33 34  1  0  0  0  0
M  END
>  <MODEL>
5

>  <REMARK>
 VINA RESULT:      -5.3      2.701      6.234
  Name = 
  18 active torsions:
  status: ('A' for Active; 'I' for Inactive)
    1  A    between atoms: C_1  and  C_13
    2  A    between atoms: C_2  and  C_15
    3  A    between atoms: C_2  and  C_24
    4  A    between atoms: O_4  and  C_25
    5  A    between atoms: C_5  and  C_7
    6  A    between atoms: C_5  and  C_33
    7  A    between atoms: C_6  and  C_7
    8  A    between atoms: C_7  and  C_32
    9  A    between atoms: C_8  and  C_18
   10  A    between atoms: C_17  and  C_27
   11  A    between atoms: C_18  and  C_23
   12  A    between atoms: C_19  and  C_33
   13  A    between atoms: C_21  and  C_31
   14  A    between atoms: C_24  and  C_25
   15  A    between atoms: C_25  and  C_32
   16  A    between atoms: C_27  and  C_34
   17  A    between atoms: C_29  and  C_33
   18  A    between atoms: C_31  and  C_34
                            x       y       z     vdW  Elec       q    Type
                         _______ _______ _______ _____ _____    ______ ____

>  <TORSDO>
F 18

$$$$
=
 OpenBabel11062422053D

 34 34  0  0  1  0  0  0  0  0999 V2000
  193.5220  175.5130  141.7810 C   0  0  0  0  0  2  0  0  0  0  0  0
  192.5780  174.5620  142.4880 C   0  0  1  0  0  3  0  0  0  0  0  0
  193.6470  175.2950  143.2720 C   0  0  1  0  0  3  0  0  0  0  0  0
  194.7920  174.3380  143.5540 C   0  0  0  0  0  2  0  0  0  0  0  0
  194.3940  176.3630  146.5120 C   0  0  0  0  0  3  0  0  0  0  0  0
  194.7900  175.3730  145.7550 C   0  0  0  0  0  0  0  0  0  0  0  0
  195.1830  174.3830  144.9990 C   0  0  0  0  0  0  0  0  0  0  0  0
  193.0080  176.4960  146.9870 C   0  0  0  0  0  3  0  0  0  0  0  0
  192.1840  175.4580  147.1120 C   0  0  0  0  0  3  0  0  0  0  0  0
  190.5220  176.9940  147.7190 F   0  0  0  0  0  0  0  0  0  0  0  0
  190.7840  175.6410  147.5970 C   0  0  1  0  0  3  0  0  0  0  0  0
  189.7620  174.9980  146.6580 C   0  0  0  0  0  0  0  0  0  0  0  0
  190.3790  174.0500  145.8600 F   0  0  0  0  0  0  0  0  0  0  0  0
  188.7690  174.3730  147.4110 O   0  0  0  0  0  1  0  0  0  0  0  0
  189.1810  175.9610  145.8530 F   0  0  0  0  0  0  0  0  0  0  0  0
  197.0780  173.7600  146.2720 O   0  0  0  0  0  1  0  0  0  0  0  0
  195.9550  173.2590  145.6140 C   0  0  2  0  0  3  0  0  0  0  0  0
  196.3860  172.2470  144.5640 C   0  0  0  0  0  2  0  0  0  0  0  0
  196.3190  170.9560  145.0900 O   0  0  0  0  0  1  0  0  0  0  0  0
  191.2480  175.2540  142.7230 C   0  0  0  0  0  2  0  0  0  0  0  0
  190.1410  174.5860  141.9200 C   0  0  0  0  0  2  0  0  0  0  0  0
  188.9340  174.2540  142.7880 C   0  0  2  0  0  3  0  0  0  0  0  0
  188.6650  172.8860  142.7040 O   0  0  0  0  0  0  0  0  0  0  0  0
  189.1650  172.4990  141.4590 C   0  0  0  0  0  1  0  0  0  0  0  0
  187.7200  175.0450  142.3190 C   0  0  0  0  0  2  0  0  0  0  0  0
  187.6220  176.3870  143.0360 C   0  0  1  0  0  3  0  0  0  0  0  0
  187.8390  177.5270  142.0540 C   0  0  0  0  0  2  0  0  0  0  0  0
  187.4060  177.1530  140.7820 O   0  0  0  0  0  1  0  0  0  0  0  0
  186.2440  176.5360  143.6600 C   0  0  0  0  0  2  0  0  0  0  0  0
  185.9990  177.9690  144.1070 C   0  0  1  0  0  3  0  0  0  0  0  0
  184.1750  178.2300  142.5830 O   0  0  0  0  0  1  0  0  0  0  0  0
  184.5220  178.2840  143.9340 C   0  0  0  0  0  2  0  0  0  0  0  0
  186.4060  178.1350  145.5650 C   0  0  0  0  0  2  0  0  0  0  0  0
  186.0440  176.8970  146.3610 C   0  0  0  0  0  1  0  0  0  0  0  0
  1  2  1  0  0  0  0
  1  3  1  0  0  0  0
  2 20  1  1  0  0  0
  2  3  1  0  0  0  0
  3  4  1  6  0  0  0
  4  7  1  0  0  0  0
  5  8  1  0  0  0  0
  6  5  2  0  0  0  0
  7 17  1  0  0  0  0
  7  6  2  0  0  0  0
  8  9  2  0  0  0  0
  9 11  1  0  0  0  0
 11 10  1  6  0  0  0
 12 14  1  0  0  0  0
 12 11  1  0  0  0  0
 13 12  1  0  0  0  0
 15 12  1  0  0  0  0
 17 16  1  6  0  0  0
 18 19  1  0  0  0  0
 18 17  1  0  0  0  0
 21 20  1  0  0  0  0
 22 21  1  6  0  0  0
 23 22  1  0  0  0  0
 24 23  1  0  0  0  0
 25 22  1  0  0  0  0
 25 26  1  0  0  0  0
 26 27  1  6  0  0  0
 26 29  1  0  0  0  0
 28 27  1  0  0  0  0
 30 29  1  1  0  0  0
 30 33  1  0  0  0  0
 31 32  1  0  0  0  0
 32 30  1  0  0  0  0
 33 34  1  0  0  0  0
M  END
>  <MODEL>
6

>  <REMARK>
 VINA RESULT:      -5.2      2.307      5.957
  Name = 
  18 active torsions:
  status: ('A' for Active; 'I' for Inactive)
    1  A    between atoms: C_1  and  C_13
    2  A    between atoms: C_2  and  C_15
    3  A    between atoms: C_2  and  C_24
    4  A    between atoms: O_4  and  C_25
    5  A    between atoms: C_5  and  C_7
    6  A    between atoms: C_5  and  C_33
    7  A    between atoms: C_6  and  C_7
    8  A    between atoms: C_7  and  C_32
    9  A    between atoms: C_8  and  C_18
   10  A    between atoms: C_17  and  C_27
   11  A    between atoms: C_18  and  C_23
   12  A    between atoms: C_19  and  C_33
   13  A    between atoms: C_21  and  C_31
   14  A    between atoms: C_24  and  C_25
   15  A    between atoms: C_25  and  C_32
   16  A    between atoms: C_27  and  C_34
   17  A    between atoms: C_29  and  C_33
   18  A    between atoms: C_31  and  C_34
                            x       y       z     vdW  Elec       q    Type
                         _______ _______ _______ _____ _____    ______ ____

>  <TORSDO>
F 18

$$$$
=
 OpenBabel11062422053D

 34 34  0  0  1  0  0  0  0  0999 V2000
  191.9510  175.2830  147.1390 C   0  0  0  0  0  2  0  0  0  0  0  0
  191.8510  175.9280  145.7720 C   0  0  1  0  0  3  0  0  0  0  0  0
  192.9610  174.9400  146.0660 C   0  0  1  0  0  3  0  0  0  0  0  0
  194.2480  175.7070  146.3130 C   0  0  0  0  0  2  0  0  0  0  0  0
  197.0920  173.5040  146.0540 C   0  0  0  0  0  3  0  0  0  0  0  0
  196.2040  174.3970  145.7020 C   0  0  0  0  0  0  0  0  0  0  0  0
  195.3140  175.2870  145.3490 C   0  0  0  0  0  0  0  0  0  0  0  0
  196.7770  172.0730  146.1720 C   0  0  0  0  0  3  0  0  0  0  0  0
  195.9690  171.4380  145.3260 C   0  0  0  0  0  3  0  0  0  0  0  0
  195.7550  169.6520  146.8270 F   0  0  0  0  0  0  0  0  0  0  0  0
  195.6760  169.9830  145.4860 C   0  0  1  0  0  3  0  0  0  0  0  0
  194.2950  169.6120  144.9410 C   0  0  0  0  0  0  0  0  0  0  0  0
  193.6750  168.7090  145.7880 F   0  0  0  0  0  0  0  0  0  0  0  0
  193.5080  170.7590  144.8540 O   0  0  0  0  0  1  0  0  0  0  0  0
  194.4140  169.0470  143.6840 F   0  0  0  0  0  0  0  0  0  0  0  0
  195.4480  174.7620  143.0460 O   0  0  0  0  0  1  0  0  0  0  0  0
  195.3280  175.8160  143.9510 C   0  0  2  0  0  3  0  0  0  0  0  0
  196.4690  176.8010  143.7440 C   0  0  0  0  0  2  0  0  0  0  0  0
  197.2870  176.3710  142.6990 O   0  0  0  0  0  1  0  0  0  0  0  0
  190.7810  175.2210  144.9580 C   0  0  0  0  0  2  0  0  0  0  0  0
  190.4920  175.9790  143.6710 C   0  0  0  0  0  2  0  0  0  0  0  0
  188.9960  176.1250  143.4240 C   0  0  2  0  0  3  0  0  0  0  0  0
  188.7840  176.5810  142.1210 O   0  0  0  0  0  0  0  0  0  0  0  0
  188.9930  177.9600  142.1860 C   0  0  0  0  0  1  0  0  0  0  0  0
  188.3960  177.1130  144.4170 C   0  0  0  0  0  2  0  0  0  0  0  0
  187.3490  176.4440  145.3000 C   0  0  1  0  0  3  0  0  0  0  0  0
  187.6470  176.7100  146.7670 C   0  0  0  0  0  2  0  0  0  0  0  0
  188.8220  177.4520  146.8900 O   0  0  0  0  0  1  0  0  0  0  0  0
  185.9720  176.9980  144.9730 C   0  0  0  0  0  2  0  0  0  0  0  0
  186.0640  178.4390  144.4950 C   0  0  1  0  0  3  0  0  0  0  0  0
  185.2300  177.2670  142.5850 O   0  0  0  0  0  1  0  0  0  0  0  0
  185.4020  178.5400  143.1300 C   0  0  0  0  0  2  0  0  0  0  0  0
  185.3670  179.3600  145.4870 C   0  0  0  0  0  2  0  0  0  0  0  0
  184.3390  178.5910  146.2940 C   0  0  0  0  0  1  0  0  0  0  0  0
  2 20  1  6  0  0  0
  2  3  1  0  0  0  0
  2  1  1  0  0  0  0
  3  4  1  1  0  0  0
  3  1  1  0  0  0  0
  5  8  1  0  0  0  0
  6  5  2  0  0  0  0
  7  6  2  0  0  0  0
  7  4  1  0  0  0  0
  9 11  1  0  0  0  0
  9  8  2  0  0  0  0
 11 10  1  1  0  0  0
 12 11  1  0  0  0  0
 12 13  1  0  0  0  0
 14 12  1  0  0  0  0
 15 12  1  0  0  0  0
 17 16  1  6  0  0  0
 17  7  1  0  0  0  0
 18 17  1  0  0  0  0
 19 18  1  0  0  0  0
 21 20  1  0  0  0  0
 22 21  1  1  0  0  0
 22 25  1  0  0  0  0
 23 24  1  0  0  0  0
 23 22  1  0  0  0  0
 26 25  1  6  0  0  0
 26 27  1  0  0  0  0
 27 28  1  0  0  0  0
 29 26  1  0  0  0  0
 30 32  1  6  0  0  0
 30 29  1  0  0  0  0
 30 33  1  0  0  0  0
 31 32  1  0  0  0  0
 33 34  1  0  0  0  0
M  END
>  <MODEL>
7

>  <REMARK>
 VINA RESULT:      -5.2      3.564      6.239
  Name = 
  18 active torsions:
  status: ('A' for Active; 'I' for Inactive)
    1  A    between atoms: C_1  and  C_13
    2  A    between atoms: C_2  and  C_15
    3  A    between atoms: C_2  and  C_24
    4  A    between atoms: O_4  and  C_25
    5  A    between atoms: C_5  and  C_7
    6  A    between atoms: C_5  and  C_33
    7  A    between atoms: C_6  and  C_7
    8  A    between atoms: C_7  and  C_32
    9  A    between atoms: C_8  and  C_18
   10  A    between atoms: C_17  and  C_27
   11  A    between atoms: C_18  and  C_23
   12  A    between atoms: C_19  and  C_33
   13  A    between atoms: C_21  and  C_31
   14  A    between atoms: C_24  and  C_25
   15  A    between atoms: C_25  and  C_32
   16  A    between atoms: C_27  and  C_34
   17  A    between atoms: C_29  and  C_33
   18  A    between atoms: C_31  and  C_34
                            x       y       z     vdW  Elec       q    Type
                         _______ _______ _______ _____ _____    ______ ____

>  <TORSDO>
F 18

$$$$
=
 OpenBabel11062422053D

 34 34  0  0  1  0  0  0  0  0999 V2000
  187.8230  173.7800  142.0180 C   0  0  0  0  0  2  0  0  0  0  0  0
  188.9420  174.7960  141.9170 C   0  0  1  0  0  3  0  0  0  0  0  0
  187.7100  175.1030  142.7430 C   0  0  1  0  0  3  0  0  0  0  0  0
  186.8120  176.0410  141.9560 C   0  0  0  0  0  2  0  0  0  0  0  0
  186.2400  176.7930  145.4370 C   0  0  0  0  0  3  0  0  0  0  0  0
  186.2420  176.9490  144.1380 C   0  0  0  0  0  0  0  0  0  0  0  0
  186.2460  177.1080  142.8420 C   0  0  0  0  0  0  0  0  0  0  0  0
  187.4590  176.9050  146.2520 C   0  0  0  0  0  3  0  0  0  0  0  0
  188.6550  176.5080  145.8240 C   0  0  0  0  0  3  0  0  0  0  0  0
  189.6020  177.5520  147.6960 F   0  0  0  0  0  0  0  0  0  0  0  0
  189.8650  176.6410  146.6880 C   0  0  1  0  0  3  0  0  0  0  0  0
  190.2850  175.3010  147.2970 C   0  0  0  0  0  0  0  0  0  0  0  0
  190.8900  174.5100  146.3350 F   0  0  0  0  0  0  0  0  0  0  0  0
  191.1940  175.5260  148.3290 O   0  0  0  0  0  1  0  0  0  0  0  0
  189.1810  174.6390  147.8020 F   0  0  0  0  0  0  0  0  0  0  0  0
  185.8380  179.4080  143.2180 O   0  0  0  0  0  1  0  0  0  0  0  0
  185.7540  178.3960  142.2630 C   0  0  2  0  0  3  0  0  0  0  0  0
  184.3180  178.2700  141.7770 C   0  0  0  0  0  2  0  0  0  0  0  0
  184.2280  178.6700  140.4440 O   0  0  0  0  0  1  0  0  0  0  0  0
  190.0670  174.4030  142.8570 C   0  0  0  0  0  2  0  0  0  0  0  0
  191.4190  174.7950  142.2770 C   0  0  0  0  0  2  0  0  0  0  0  0
  192.0390  175.9640  143.0300 C   0  0  2  0  0  3  0  0  0  0  0  0
  191.3270  177.1310  142.7410 O   0  0  0  0  0  0  0  0  0  0  0  0
  191.5570  177.9700  143.8330 C   0  0  0  0  0  1  0  0  0  0  0  0
  193.4960  176.1380  142.6190 C   0  0  0  0  0  2  0  0  0  0  0  0
  194.3940  175.1260  143.3210 C   0  0  1  0  0  3  0  0  0  0  0  0
  195.0450  174.2030  142.3030 C   0  0  0  0  0  2  0  0  0  0  0  0
  194.6590  174.5650  141.0120 O   0  0  0  0  0  1  0  0  0  0  0  0
  195.4850  175.8540  144.0880 C   0  0  0  0  0  2  0  0  0  0  0  0
  195.4640  175.4720  145.5610 C   0  0  1  0  0  3  0  0  0  0  0  0
  193.5590  176.5820  146.4880 O   0  0  0  0  0  1  0  0  0  0  0  0
  194.0170  175.3530  146.0100 C   0  0  0  0  0  2  0  0  0  0  0  0
  196.1890  174.1500  145.7650 C   0  0  0  0  0  2  0  0  0  0  0  0
  197.5220  174.1580  145.0430 C   0  0  0  0  0  1  0  0  0  0  0  0
  1  3  1  0  0  0  0
  2  1  1  0  0  0  0
  2  3  1  0  0  0  0
  2 20  1  1  0  0  0
  3  4  1  6  0  0  0
  4  7  1  0  0  0  0
  5  8  1  0  0  0  0
  6  5  2  0  0  0  0
  7  6  2  0  0  0  0
  9  8  2  0  0  0  0
  9 11  1  0  0  0  0
 11 12  1  0  0  0  0
 11 10  1  1  0  0  0
 12 15  1  0  0  0  0
 12 14  1  0  0  0  0
 13 12  1  0  0  0  0
 17  7  1  0  0  0  0
 17 16  1  1  0  0  0
 18 17  1  0  0  0  0
 19 18  1  0  0  0  0
 21 20  1  0  0  0  0
 22 21  1  6  0  0  0
 23 22  1  0  0  0  0
 23 24  1  0  0  0  0
 25 22  1  0  0  0  0
 25 26  1  0  0  0  0
 26 27  1  6  0  0  0
 26 29  1  0  0  0  0
 28 27  1  0  0  0  0
 30 29  1  6  0  0  0
 30 33  1  0  0  0  0
 30 32  1  0  0  0  0
 32 31  1  0  0  0  0
 34 33  1  0  0  0  0
M  END
>  <MODEL>
8

>  <REMARK>
 VINA RESULT:      -5.1      2.448      6.593
  Name = 
  18 active torsions:
  status: ('A' for Active; 'I' for Inactive)
    1  A    between atoms: C_1  and  C_13
    2  A    between atoms: C_2  and  C_15
    3  A    between atoms: C_2  and  C_24
    4  A    between atoms: O_4  and  C_25
    5  A    between atoms: C_5  and  C_7
    6  A    between atoms: C_5  and  C_33
    7  A    between atoms: C_6  and  C_7
    8  A    between atoms: C_7  and  C_32
    9  A    between atoms: C_8  and  C_18
   10  A    between atoms: C_17  and  C_27
   11  A    between atoms: C_18  and  C_23
   12  A    between atoms: C_19  and  C_33
   13  A    between atoms: C_21  and  C_31
   14  A    between atoms: C_24  and  C_25
   15  A    between atoms: C_25  and  C_32
   16  A    between atoms: C_27  and  C_34
   17  A    between atoms: C_29  and  C_33
   18  A    between atoms: C_31  and  C_34
                            x       y       z     vdW  Elec       q    Type
                         _______ _______ _______ _____ _____    ______ ____

>  <TORSDO>
F 18

$$$$
=
 OpenBabel11062422053D

 34 34  0  0  1  0  0  0  0  0999 V2000
  191.4960  171.7630  142.6400 C   0  0  0  0  0  2  0  0  0  0  0  0
  192.4650  172.8130  143.1420 C   0  0  1  0  0  3  0  0  0  0  0  0
  191.0210  173.1810  142.8680 C   0  0  1  0  0  3  0  0  0  0  0  0
  190.9450  173.9140  141.5400 C   0  0  0  0  0  2  0  0  0  0  0  0
  187.5810  174.7940  142.4970 C   0  0  0  0  0  3  0  0  0  0  0  0
  188.5640  174.3540  141.7540 C   0  0  0  0  0  0  0  0  0  0  0  0
  189.5450  173.9170  141.0100 C   0  0  0  0  0  0  0  0  0  0  0  0
  187.3720  176.2230  142.7740 C   0  0  0  0  0  3  0  0  0  0  0  0
  186.1690  176.7480  142.9930 C   0  0  0  0  0  3  0  0  0  0  0  0
  185.1710  178.7560  142.3100 F   0  0  0  0  0  0  0  0  0  0  0  0
  186.0040  178.2070  143.2690 C   0  0  1  0  0  3  0  0  0  0  0  0
  185.4310  178.4660  144.6640 C   0  0  0  0  0  0  0  0  0  0  0  0
  185.9970  179.6070  145.2060 F   0  0  0  0  0  0  0  0  0  0  0  0
  184.0520  178.6490  144.5710 O   0  0  0  0  0  1  0  0  0  0  0  0
  185.6910  177.3910  145.4940 F   0  0  0  0  0  0  0  0  0  0  0  0
  188.2120  172.5830  139.5810 O   0  0  0  0  0  1  0  0  0  0  0  0
  189.2620  173.5000  139.6030 C   0  0  2  0  0  3  0  0  0  0  0  0
  190.4920  172.8850  138.9520 C   0  0  0  0  0  2  0  0  0  0  0  0
  191.0600  173.7900  138.0540 O   0  0  0  0  0  1  0  0  0  0  0  0
  192.6450  172.6560  144.6410 C   0  0  0  0  0  2  0  0  0  0  0  0
  194.0820  172.9520  145.0470 C   0  0  0  0  0  2  0  0  0  0  0  0
  194.2930  174.4320  145.3420 C   0  0  2  0  0  3  0  0  0  0  0  0
  195.4740  174.5950  146.0700 O   0  0  0  0  0  0  0  0  0  0  0  0
  196.4900  174.5690  145.1140 C   0  0  0  0  0  1  0  0  0  0  0  0
  193.1170  174.9780  146.1430 C   0  0  0  0  0  2  0  0  0  0  0  0
  192.5720  176.2590  145.5220 C   0  0  1  0  0  3  0  0  0  0  0  0
  193.3540  176.6110  144.2670 C   0  0  0  0  0  2  0  0  0  0  0  0
  192.5110  176.5960  143.1570 O   0  0  0  0  0  1  0  0  0  0  0  0
  191.1110  176.0670  145.1490 C   0  0  0  0  0  2  0  0  0  0  0  0
  190.1950  176.6160  146.2320 C   0  0  1  0  0  3  0  0  0  0  0  0
  189.7500  178.2270  144.5220 O   0  0  0  0  0  1  0  0  0  0  0  0
  189.1680  177.5280  145.5810 C   0  0  0  0  0  2  0  0  0  0  0  0
  189.4990  175.4700  146.9540 C   0  0  0  0  0  2  0  0  0  0  0  0
  189.4480  174.2390  146.0710 C   0  0  0  0  0  1  0  0  0  0  0  0
  1  3  1  0  0  0  0
  1  2  1  0  0  0  0
  2 20  1  1  0  0  0
  3  4  1  6  0  0  0
  3  2  1  0  0  0  0
  5  8  1  0  0  0  0
  6  5  2  0  0  0  0
  7  4  1  0  0  0  0
  7  6  2  0  0  0  0
  8  9  2  0  0  0  0
  9 11  1  0  0  0  0
 11 10  1  6  0  0  0
 11 12  1  0  0  0  0
 12 13  1  0  0  0  0
 12 15  1  0  0  0  0
 14 12  1  0  0  0  0
 17 16  1  1  0  0  0
 17  7  1  0  0  0  0
 18 17  1  0  0  0  0
 19 18  1  0  0  0  0
 20 21  1  0  0  0  0
 22 21  1  1  0  0  0
 22 23  1  0  0  0  0
 22 25  1  0  0  0  0
 24 23  1  0  0  0  0
 26 27  1  6  0  0  0
 26 25  1  0  0  0  0
 28 27  1  0  0  0  0
 29 26  1  0  0  0  0
 30 29  1  6  0  0  0
 30 33  1  0  0  0  0
 31 32  1  0  0  0  0
 32 30  1  0  0  0  0
 34 33  1  0  0  0  0
M  END
>  <MODEL>
9

>  <REMARK>
 VINA RESULT:      -5.1      3.118      7.030
  Name = 
  18 active torsions:
  status: ('A' for Active; 'I' for Inactive)
    1  A    between atoms: C_1  and  C_13
    2  A    between atoms: C_2  and  C_15
    3  A    between atoms: C_2  and  C_24
    4  A    between atoms: O_4  and  C_25
    5  A    between atoms: C_5  and  C_7
    6  A    between atoms: C_5  and  C_33
    7  A    between atoms: C_6  and  C_7
    8  A    between atoms: C_7  and  C_32
    9  A    between atoms: C_8  and  C_18
   10  A    between atoms: C_17  and  C_27
   11  A    between atoms: C_18  and  C_23
   12  A    between atoms: C_19  and  C_33
   13  A    between atoms: C_21  and  C_31
   14  A    between atoms: C_24  and  C_25
   15  A    between atoms: C_25  and  C_32
   16  A    between atoms: C_27  and  C_34
   17  A    between atoms: C_29  and  C_33
   18  A    between atoms: C_31  and  C_34
                            x       y       z     vdW  Elec       q    Type
                         _______ _______ _______ _____ _____    ______ ____

>  <TORSDO>
F 18

$$$$
