=
 OpenBabel11062419403D

 42 45  0  0  1  0  0  0  0  0999 V2000
  190.1140  177.3870  145.2240 C   0  0  0  0  0  0  0  0  0  0  0  0
  190.0880  176.0890  147.2730 C   0  0  0  0  0  3  0  0  0  0  0  0
  191.4280  175.7510  147.0810 C   0  0  0  0  0  3  0  0  0  0  0  0
  189.4150  176.9140  146.3580 C   0  0  0  0  0  0  0  0  0  0  0  0
  191.4560  177.0360  145.0320 C   0  0  0  0  0  3  0  0  0  0  0  0
  189.4950  178.1990  144.2820 O   0  0  0  0  0  1  0  0  0  0  0  0
  192.1210  176.2220  145.9590 C   0  0  0  0  0  0  0  0  0  0  0  0
  195.3460  174.9540  144.2640 C   0  0  0  0  0  0  0  0  0  0  0  0
  194.0020  175.3360  144.5700 N   0  0  0  0  0  2  0  0  0  0  0  0
  193.5500  175.9130  145.8020 C   0  0  0  0  0  0  0  0  0  0  0  0
  196.2950  175.3140  145.0140 O   0  0  0  0  0  0  0  0  0  0  0  0
  194.3550  176.1130  146.7540 O   0  0  0  0  0  0  0  0  0  0  0  0
  195.6540  171.6680  142.8070 C   0  0  0  0  0  2  0  0  0  0  0  0
  197.0770  174.1030  142.6040 C   0  0  1  0  0  3  0  0  0  0  0  0
  194.5860  175.4630  141.6320 C   0  0  0  0  0  2  0  0  0  0  0  0
  197.1330  171.5710  142.4660 C   0  0  2  0  0  3  0  0  0  0  0  0
  197.9140  171.3190  143.6660 N   0  0  0  0  0  1  0  0  0  0  0  0
  195.6040  173.9790  143.1270 C   0  0  1  0  0  0  0  0  0  0  0  0
  195.4250  172.7060  143.7300 O   0  0  0  0  0  0  0  0  0  0  0  0
  197.5960  175.9160  139.6530 O   0  0  0  0  0  0  0  0  0  0  0  0
  197.5710  172.8720  141.8140 C   0  0  1  0  0  3  0  0  0  0  0  0
  197.2590  176.5160  142.7750 F   0  0  0  0  0  0  0  0  0  0  0  0
  194.6650  174.1230  142.0650 O   0  0  0  0  0  0  0  0  0  0  0  0
  195.3780  175.6660  140.3570 C   0  0  0  0  0  2  0  0  0  0  0  0
  196.8610  175.6850  140.5950 C   0  0  0  0  0  0  0  0  0  0  0  0
  197.1150  172.8840  140.4980 O   0  0  0  0  0  1  0  0  0  0  0  0
  197.4820  175.4390  141.9430 C   0  0  2  0  0  3  0  0  0  0  0  0
  187.7320  178.1320  147.5260 O   0  0  0  0  0  0  0  0  0  0  0  0
  186.9550  176.6440  145.9110 N   0  0  0  0  0  2  0  0  0  0  0  0
  188.0090  177.2790  146.6430 C   0  0  0  0  0  0  0  0  0  0  0  0
  185.5430  176.7910  146.2320 C   0  0  0  0  0  2  0  0  0  0  0  0
  184.8540  177.5650  145.2100 N   0  0  0  0  0  2  0  0  0  0  0  0
  185.8900  179.5570  144.6180 O   0  0  0  0  0  0  0  0  0  0  0  0
  185.5500  178.3920  144.2760 C   0  0  0  0  0  0  0  0  0  0  0  0
  187.1490  176.5960  141.3110 C   0  0  0  0  0  2  0  0  0  0  0  0
  185.8260  177.9110  142.9050 C   0  0  0  0  0  0  0  0  0  0  0  0
  186.9680  177.6670  140.4160 O   0  0  0  0  0  0  0  0  0  0  0  0
  185.1000  178.5120  141.7130 C   0  0  1  0  0  3  0  0  0  0  0  0
  186.8250  177.0410  142.7080 C   0  0  0  0  0  3  0  0  0  0  0  0
  185.5810  177.9060  140.3830 C   0  0  0  0  0  2  0  0  0  0  0  0
  183.6000  178.2910  141.8330 C   0  0  0  0  0  2  0  0  0  0  0  0
  183.0060  178.1680  140.5120 N   0  0  0  0  0  1  0  0  0  0  0  0
  1  4  1  0  0  0  0
  3  2  1  0  0  0  0
  4 30  1  0  0  0  0
  4  2  2  0  0  0  0
  5  1  2  0  0  0  0
  5  7  1  0  0  0  0
  6  1  1  0  0  0  0
  7  3  2  0  0  0  0
  8  9  1  0  0  0  0
  8 11  2  0  0  0  0
  9 10  1  0  0  0  0
 10  7  1  0  0  0  0
 10 12  2  0  0  0  0
 13 19  1  0  0  0  0
 14 18  1  0  0  0  0
 15 23  1  0  0  0  0
 16 13  1  0  0  0  0
 16 17  1  0  0  0  0
 18 19  1  0  0  0  0
 18  8  1  0  0  0  0
 20 25  2  0  0  0  0
 21 16  1  0  0  0  0
 21 14  1  0  0  0  0
 23 18  1  0  0  0  0
 24 25  1  0  0  0  0
 24 15  1  0  0  0  0
 25 27  1  0  0  0  0
 26 21  1  0  0  0  0
 27 14  1  0  0  0  0
 27 22  1  0  0  0  0
 29 31  1  0  0  0  0
 29 30  1  0  0  0  0
 30 28  2  0  0  0  0
 32 31  1  0  0  0  0
 34 33  2  0  0  0  0
 34 32  1  0  0  0  0
 35 39  1  0  0  0  0
 36 34  1  0  0  0  0
 37 35  1  0  0  0  0
 38 41  1  0  0  0  0
 38 36  1  0  0  0  0
 39 36  2  0  0  0  0
 40 37  1  0  0  0  0
 40 38  1  0  0  0  0
 42 41  1  0  0  0  0
M  END
>  <MODEL>
1

>  <REMARK>
 VINA RESULT:      -8.5      0.000      0.000
  Name = 
  7 active torsions:
  status: ('A' for Active; 'I' for Inactive)
    1  A    between atoms: C_2  and  N_3
    2  A    between atoms: C_2  and  N_36
    3  A    between atoms: C_5  and  C_16
    4  A    between atoms: C_6  and  C_40
    5  A    between atoms: C_15  and  C_33
    6  A    between atoms: C_19  and  C_23
    7  A    between atoms: C_24  and  C_41
                            x       y       z     vdW  Elec       q    Type
                         _______ _______ _______ _____ _____    ______ ____

>  <TORSDO>
F 7

$$$$
=
 OpenBabel11062419403D

 42 45  0  0  1  0  0  0  0  0999 V2000
  187.6340  177.7240  142.9970 C   0  0  0  0  0  0  0  0  0  0  0  0
  186.1630  177.1770  144.8480 C   0  0  0  0  0  3  0  0  0  0  0  0
  187.2270  176.5760  145.5210 C   0  0  0  0  0  3  0  0  0  0  0  0
  186.3490  177.7640  143.5860 C   0  0  0  0  0  0  0  0  0  0  0  0
  188.6950  177.1110  143.6750 C   0  0  0  0  0  3  0  0  0  0  0  0
  187.8720  178.2810  141.7470 O   0  0  0  0  0  1  0  0  0  0  0  0
  188.5000  176.5400  144.9400 C   0  0  0  0  0  0  0  0  0  0  0  0
  191.9530  174.9270  145.5350 C   0  0  0  0  0  0  0  0  0  0  0  0
  190.7870  175.5290  144.9670 N   0  0  0  0  0  2  0  0  0  0  0  0
  189.6270  175.9630  145.6880 C   0  0  0  0  0  0  0  0  0  0  0  0
  192.1290  174.9350  146.7840 O   0  0  0  0  0  0  0  0  0  0  0  0
  189.5530  175.8140  146.9400 O   0  0  0  0  0  0  0  0  0  0  0  0
  193.1900  171.9190  143.9710 C   0  0  0  0  0  2  0  0  0  0  0  0
  194.3630  174.1870  145.1870 C   0  0  1  0  0  3  0  0  0  0  0  0
  193.0150  175.9510  143.1700 C   0  0  0  0  0  2  0  0  0  0  0  0
  194.5540  171.7230  144.6150 C   0  0  2  0  0  3  0  0  0  0  0  0
  194.4080  171.1890  145.9590 N   0  0  0  0  0  1  0  0  0  0  0  0
  192.8950  174.1340  144.6410 C   0  0  1  0  0  0  0  0  0  0  0  0
  192.4050  172.8050  144.7340 O   0  0  0  0  0  0  0  0  0  0  0  0
  196.5860  176.4040  143.6370 O   0  0  0  0  0  0  0  0  0  0  0  0
  195.2740  173.0610  144.6520 C   0  0  1  0  0  3  0  0  0  0  0  0
  194.3390  176.5020  145.9090 F   0  0  0  0  0  0  0  0  0  0  0  0
  192.8340  174.5560  143.2810 O   0  0  0  0  0  0  0  0  0  0  0  0
  194.4290  176.2790  142.7390 C   0  0  0  0  0  2  0  0  0  0  0  0
  195.4270  176.0980  143.8460 C   0  0  0  0  0  0  0  0  0  0  0  0
  195.7510  173.3430  143.3740 O   0  0  0  0  0  1  0  0  0  0  0  0
  195.0630  175.5640  145.2050 C   0  0  2  0  0  3  0  0  0  0  0  0
  184.6620  179.4430  143.4670 O   0  0  0  0  0  0  0  0  0  0  0  0
  184.6710  177.9040  141.7180 N   0  0  0  0  0  2  0  0  0  0  0  0
  185.1930  178.4300  142.9430 C   0  0  0  0  0  0  0  0  0  0  0  0
  183.4360  178.3660  141.1010 C   0  0  0  0  0  2  0  0  0  0  0  0
  182.2750  177.9030  141.8470 N   0  0  0  0  0  2  0  0  0  0  0  0
  181.1530  179.5480  143.0420 O   0  0  0  0  0  0  0  0  0  0  0  0
  181.1350  178.7310  142.0810 C   0  0  0  0  0  0  0  0  0  0  0  0
  177.8170  177.4850  140.6630 C   0  0  0  0  0  2  0  0  0  0  0  0
  179.9250  178.6000  141.2420 C   0  0  0  0  0  0  0  0  0  0  0  0
  178.1780  177.6970  139.3190 O   0  0  0  0  0  0  0  0  0  0  0  0
  179.7810  179.4030  139.9590 C   0  0  1  0  0  3  0  0  0  0  0  0
  179.0180  177.6620  141.5460 C   0  0  0  0  0  3  0  0  0  0  0  0
  178.4750  179.0690  139.2170 C   0  0  0  0  0  2  0  0  0  0  0  0
  179.8050  180.8940  140.2560 C   0  0  0  0  0  2  0  0  0  0  0  0
  178.4480  181.4110  140.3280 N   0  0  0  0  0  1  0  0  0  0  0  0
  1  4  2  0  0  0  0
  1  5  1  0  0  0  0
  2  3  2  0  0  0  0
  4  2  1  0  0  0  0
  5  7  2  0  0  0  0
  6  1  1  0  0  0  0
  7  3  1  0  0  0  0
  7 10  1  0  0  0  0
  8 11  2  0  0  0  0
  9  8  1  0  0  0  0
  9 10  1  0  0  0  0
 10 12  2  0  0  0  0
 13 16  1  0  0  0  0
 13 19  1  0  0  0  0
 14 27  1  0  0  0  0
 15 23  1  0  0  0  0
 16 21  1  0  0  0  0
 16 17  1  0  0  0  0
 18 19  1  0  0  0  0
 18 14  1  0  0  0  0
 18  8  1  0  0  0  0
 20 25  2  0  0  0  0
 21 14  1  0  0  0  0
 23 18  1  0  0  0  0
 24 15  1  0  0  0  0
 24 25  1  0  0  0  0
 25 27  1  0  0  0  0
 26 21  1  0  0  0  0
 27 22  1  0  0  0  0
 29 30  1  0  0  0  0
 30 28  2  0  0  0  0
 30  4  1  0  0  0  0
 31 29  1  0  0  0  0
 31 32  1  0  0  0  0
 32 34  1  0  0  0  0
 34 33  2  0  0  0  0
 35 39  1  0  0  0  0
 36 39  2  0  0  0  0
 36 34  1  0  0  0  0
 37 35  1  0  0  0  0
 38 41  1  0  0  0  0
 38 36  1  0  0  0  0
 40 37  1  0  0  0  0
 40 38  1  0  0  0  0
 41 42  1  0  0  0  0
M  END
>  <MODEL>
2

>  <REMARK>
 VINA RESULT:      -8.2      3.210      4.749
  Name = 
  7 active torsions:
  status: ('A' for Active; 'I' for Inactive)
    1  A    between atoms: C_2  and  N_3
    2  A    between atoms: C_2  and  N_36
    3  A    between atoms: C_5  and  C_16
    4  A    between atoms: C_6  and  C_40
    5  A    between atoms: C_15  and  C_33
    6  A    between atoms: C_19  and  C_23
    7  A    between atoms: C_24  and  C_41
                            x       y       z     vdW  Elec       q    Type
                         _______ _______ _______ _____ _____    ______ ____

>  <TORSDO>
F 7

$$$$
=
 OpenBabel11062419403D

 42 45  0  0  1  0  0  0  0  0999 V2000
  189.1410  174.9500  146.5380 C   0  0  0  0  0  0  0  0  0  0  0  0
  189.3260  176.2930  144.5270 C   0  0  0  0  0  3  0  0  0  0  0  0
  190.3510  175.4670  144.0650 C   0  0  0  0  0  3  0  0  0  0  0  0
  188.7020  176.0450  145.7600 C   0  0  0  0  0  0  0  0  0  0  0  0
  190.1760  174.1300  146.0730 C   0  0  0  0  0  3  0  0  0  0  0  0
  188.5660  174.6640  147.7700 O   0  0  0  0  0  1  0  0  0  0  0  0
  190.7830  174.3800  144.8340 C   0  0  0  0  0  0  0  0  0  0  0  0
  194.2150  173.2840  143.4540 C   0  0  0  0  0  0  0  0  0  0  0  0
  193.1100  174.0140  143.9950 N   0  0  0  0  0  2  0  0  0  0  0  0
  191.8180  173.4780  144.3070 C   0  0  0  0  0  0  0  0  0  0  0  0
  194.1850  172.0220  143.4160 O   0  0  0  0  0  0  0  0  0  0  0  0
  191.5550  172.2610  144.0930 O   0  0  0  0  0  0  0  0  0  0  0  0
  197.3030  175.1480  143.4020 C   0  0  0  0  0  2  0  0  0  0  0  0
  194.8170  175.3300  142.0670 C   0  0  1  0  0  3  0  0  0  0  0  0
  195.2260  172.5730  140.9570 C   0  0  0  0  0  2  0  0  0  0  0  0
  196.8710  176.5320  142.9440 C   0  0  2  0  0  3  0  0  0  0  0  0
  196.2350  177.2530  144.0350 N   0  0  0  0  0  1  0  0  0  0  0  0
  195.3480  174.0380  142.7780 C   0  0  1  0  0  0  0  0  0  0  0  0
  196.1940  174.4080  143.8550 O   0  0  0  0  0  0  0  0  0  0  0  0
  194.3570  175.1920  138.5980 O   0  0  0  0  0  0  0  0  0  0  0  0
  195.9080  176.3830  141.7770 C   0  0  1  0  0  3  0  0  0  0  0  0
  192.7400  174.3900  141.2370 F   0  0  0  0  0  0  0  0  0  0  0  0
  196.0830  173.2160  141.8740 O   0  0  0  0  0  0  0  0  0  0  0  0
  195.2410  173.2810  139.6180 C   0  0  0  0  0  2  0  0  0  0  0  0
  194.4760  174.5720  139.6390 C   0  0  0  0  0  0  0  0  0  0  0  0
  196.6410  176.0690  140.6350 O   0  0  0  0  0  1  0  0  0  0  0  0
  193.8440  175.1360  140.8820 C   0  0  2  0  0  3  0  0  0  0  0  0
  187.7700  177.8420  147.0180 O   0  0  0  0  0  0  0  0  0  0  0  0
  186.2860  176.7250  145.6120 N   0  0  0  0  0  2  0  0  0  0  0  0
  187.5870  176.9270  146.1730 C   0  0  0  0  0  0  0  0  0  0  0  0
  185.0880  177.4100  146.0780 C   0  0  0  0  0  2  0  0  0  0  0  0
  184.4280  178.1080  144.9840 N   0  0  0  0  0  2  0  0  0  0  0  0
  185.5080  180.0260  144.2470 O   0  0  0  0  0  0  0  0  0  0  0  0
  185.1520  178.8420  143.9970 C   0  0  0  0  0  0  0  0  0  0  0  0
  186.8720  176.9470  141.1650 C   0  0  0  0  0  2  0  0  0  0  0  0
  185.4390  178.2460  142.6750 C   0  0  0  0  0  0  0  0  0  0  0  0
  186.5020  177.8680  140.1670 O   0  0  0  0  0  0  0  0  0  0  0  0
  184.5850  178.5930  141.4660 C   0  0  1  0  0  3  0  0  0  0  0  0
  186.5450  177.5060  142.5190 C   0  0  0  0  0  3  0  0  0  0  0  0
  185.0950  177.9060  140.1870 C   0  0  0  0  0  2  0  0  0  0  0  0
  183.1400  178.1800  141.6960 C   0  0  0  0  0  2  0  0  0  0  0  0
  182.5040  177.8590  140.4290 N   0  0  0  0  0  1  0  0  0  0  0  0
  1  6  1  0  0  0  0
  2  4  1  0  0  0  0
  3  2  2  0  0  0  0
  3  7  1  0  0  0  0
  4 30  1  0  0  0  0
  4  1  2  0  0  0  0
  5  1  1  0  0  0  0
  7  5  2  0  0  0  0
  8  9  1  0  0  0  0
  9 10  1  0  0  0  0
 10  7  1  0  0  0  0
 11  8  2  0  0  0  0
 12 10  2  0  0  0  0
 13 19  1  0  0  0  0
 14 18  1  0  0  0  0
 15 23  1  0  0  0  0
 16 13  1  0  0  0  0
 16 17  1  0  0  0  0
 18  8  1  0  0  0  0
 18 19  1  0  0  0  0
 20 25  2  0  0  0  0
 21 14  1  0  0  0  0
 21 16  1  0  0  0  0
 23 18  1  0  0  0  0
 24 25  1  0  0  0  0
 24 15  1  0  0  0  0
 25 27  1  0  0  0  0
 26 21  1  0  0  0  0
 27 22  1  0  0  0  0
 27 14  1  0  0  0  0
 29 31  1  0  0  0  0
 29 30  1  0  0  0  0
 30 28  2  0  0  0  0
 32 31  1  0  0  0  0
 34 33  2  0  0  0  0
 34 32  1  0  0  0  0
 35 39  1  0  0  0  0
 36 34  1  0  0  0  0
 37 40  1  0  0  0  0
 37 35  1  0  0  0  0
 38 41  1  0  0  0  0
 38 36  1  0  0  0  0
 39 36  2  0  0  0  0
 40 38  1  0  0  0  0
 42 41  1  0  0  0  0
M  END
>  <MODEL>
3

>  <REMARK>
 VINA RESULT:      -8.2      2.002      2.839
  Name = 
  7 active torsions:
  status: ('A' for Active; 'I' for Inactive)
    1  A    between atoms: C_2  and  N_3
    2  A    between atoms: C_2  and  N_36
    3  A    between atoms: C_5  and  C_16
    4  A    between atoms: C_6  and  C_40
    5  A    between atoms: C_15  and  C_33
    6  A    between atoms: C_19  and  C_23
    7  A    between atoms: C_24  and  C_41
                            x       y       z     vdW  Elec       q    Type
                         _______ _______ _______ _____ _____    ______ ____

>  <TORSDO>
F 7

$$$$
=
 OpenBabel11062419403D

 42 45  0  0  1  0  0  0  0  0999 V2000
  193.5580  176.3000  146.4440 C   0  0  0  0  0  0  0  0  0  0  0  0
  193.1530  174.2060  145.2890 C   0  0  0  0  0  3  0  0  0  0  0  0
  191.7870  174.3210  145.5490 C   0  0  0  0  0  3  0  0  0  0  0  0
  194.0550  175.1910  145.7220 C   0  0  0  0  0  0  0  0  0  0  0  0
  192.1870  176.4050  146.7100 C   0  0  0  0  0  3  0  0  0  0  0  0
  194.4060  177.2990  146.9050 O   0  0  0  0  0  1  0  0  0  0  0  0
  191.2950  175.4210  146.2610 C   0  0  0  0  0  0  0  0  0  0  0  0
  187.6750  176.5750  145.5940 C   0  0  0  0  0  0  0  0  0  0  0  0
  189.0810  176.3190  145.5250 N   0  0  0  0  0  2  0  0  0  0  0  0
  189.8470  175.5650  146.4720 C   0  0  0  0  0  0  0  0  0  0  0  0
  186.9540  175.9470  146.4180 O   0  0  0  0  0  0  0  0  0  0  0  0
  189.2990  175.0690  147.4970 O   0  0  0  0  0  0  0  0  0  0  0  0
  185.8800  179.6790  145.1890 C   0  0  0  0  0  2  0  0  0  0  0  0
  185.9660  177.2080  143.8180 C   0  0  1  0  0  3  0  0  0  0  0  0
  188.8960  177.6050  143.3100 C   0  0  0  0  0  2  0  0  0  0  0  0
  184.6190  179.2620  144.4480 C   0  0  2  0  0  3  0  0  0  0  0  0
  183.6840  178.6220  145.3580 N   0  0  0  0  0  1  0  0  0  0  0  0
  187.0850  177.7220  144.7880 C   0  0  1  0  0  0  0  0  0  0  0  0
  186.5030  178.5600  145.7740 O   0  0  0  0  0  0  0  0  0  0  0  0
  186.8210  176.7810  140.4480 O   0  0  0  0  0  0  0  0  0  0  0  0
  185.0030  178.3100  143.3270 C   0  0  1  0  0  3  0  0  0  0  0  0
  187.0460  175.1320  143.1780 F   0  0  0  0  0  0  0  0  0  0  0  0
  188.0810  178.4590  144.0840 O   0  0  0  0  0  0  0  0  0  0  0  0
  188.4830  177.6390  141.8540 C   0  0  0  0  0  2  0  0  0  0  0  0
  187.2110  176.8850  141.5970 C   0  0  0  0  0  0  0  0  0  0  0  0
  185.5510  179.0520  142.2840 O   0  0  0  0  0  1  0  0  0  0  0  0
  186.3960  176.2450  142.6890 C   0  0  2  0  0  3  0  0  0  0  0  0
  196.0090  175.7550  144.4810 O   0  0  0  0  0  0  0  0  0  0  0  0
  196.2730  174.0530  146.0500 N   0  0  0  0  0  2  0  0  0  0  0  0
  195.4850  175.0370  145.3720 C   0  0  0  0  0  0  0  0  0  0  0  0
  197.6300  173.6960  145.6620 C   0  0  0  0  0  2  0  0  0  0  0  0
  197.6240  172.7110  144.5880 N   0  0  0  0  0  2  0  0  0  0  0  0
  197.7060  170.4970  145.2830 O   0  0  0  0  0  0  0  0  0  0  0  0
  197.0370  171.4180  144.7390 C   0  0  0  0  0  0  0  0  0  0  0  0
  193.9790  171.2940  142.4580 C   0  0  0  0  0  2  0  0  0  0  0  0
  195.6810  171.1420  144.2190 C   0  0  0  0  0  0  0  0  0  0  0  0
  193.0500  171.4920  143.4980 O   0  0  0  0  0  0  0  0  0  0  0  0
  194.6000  170.5860  145.1310 C   0  0  1  0  0  3  0  0  0  0  0  0
  195.3710  171.5180  142.9710 C   0  0  0  0  0  3  0  0  0  0  0  0
  193.2550  170.4290  144.3990 C   0  0  0  0  0  2  0  0  0  0  0  0
  195.0120  169.2320  145.6860 C   0  0  0  0  0  2  0  0  0  0  0  0
  194.8300  169.2050  147.1280 N   0  0  0  0  0  1  0  0  0  0  0  0
  1  5  1  0  0  0  0
  1  6  1  0  0  0  0
  2  3  2  0  0  0  0
  2  4  1  0  0  0  0
  3  7  1  0  0  0  0
  4  1  2  0  0  0  0
  7 10  1  0  0  0  0
  7  5  2  0  0  0  0
  8 11  2  0  0  0  0
  9  8  1  0  0  0  0
  9 10  1  0  0  0  0
 10 12  2  0  0  0  0
 13 19  1  0  0  0  0
 14 18  1  0  0  0  0
 15 23  1  0  0  0  0
 16 13  1  0  0  0  0
 16 17  1  0  0  0  0
 18  8  1  0  0  0  0
 18 19  1  0  0  0  0
 20 25  2  0  0  0  0
 21 14  1  0  0  0  0
 21 16  1  0  0  0  0
 23 18  1  0  0  0  0
 24 15  1  0  0  0  0
 25 24  1  0  0  0  0
 25 27  1  0  0  0  0
 26 21  1  0  0  0  0
 27 22  1  0  0  0  0
 27 14  1  0  0  0  0
 28 30  2  0  0  0  0
 30  4  1  0  0  0  0
 30 29  1  0  0  0  0
 31 29  1  0  0  0  0
 32 34  1  0  0  0  0
 32 31  1  0  0  0  0
 34 33  2  0  0  0  0
 35 39  1  0  0  0  0
 35 37  1  0  0  0  0
 36 34  1  0  0  0  0
 36 38  1  0  0  0  0
 37 40  1  0  0  0  0
 38 41  1  0  0  0  0
 39 36  2  0  0  0  0
 40 38  1  0  0  0  0
 41 42  1  0  0  0  0
M  END
>  <MODEL>
4

>  <REMARK>
 VINA RESULT:      -8.2      2.988     10.297
  Name = 
  7 active torsions:
  status: ('A' for Active; 'I' for Inactive)
    1  A    between atoms: C_2  and  N_3
    2  A    between atoms: C_2  and  N_36
    3  A    between atoms: C_5  and  C_16
    4  A    between atoms: C_6  and  C_40
    5  A    between atoms: C_15  and  C_33
    6  A    between atoms: C_19  and  C_23
    7  A    between atoms: C_24  and  C_41
                            x       y       z     vdW  Elec       q    Type
                         _______ _______ _______ _____ _____    ______ ____

>  <TORSDO>
F 7

$$$$
=
 OpenBabel11062419403D

 42 45  0  0  1  0  0  0  0  0999 V2000
  188.3700  177.7030  147.2400 C   0  0  0  0  0  0  0  0  0  0  0  0
  188.3940  176.1950  145.3400 C   0  0  0  0  0  3  0  0  0  0  0  0
  189.7770  176.0580  145.4600 C   0  0  0  0  0  3  0  0  0  0  0  0
  187.6700  177.0080  146.2270 C   0  0  0  0  0  0  0  0  0  0  0  0
  189.7590  177.5690  147.3490 C   0  0  0  0  0  3  0  0  0  0  0  0
  187.7060  178.5290  148.1380 O   0  0  0  0  0  1  0  0  0  0  0  0
  190.4690  176.7440  146.4650 C   0  0  0  0  0  0  0  0  0  0  0  0
  194.1010  175.9210  145.4610 C   0  0  0  0  0  0  0  0  0  0  0  0
  192.6940  176.1780  145.4760 N   0  0  0  0  0  2  0  0  0  0  0  0
  191.9170  176.5410  146.6230 C   0  0  0  0  0  0  0  0  0  0  0  0
  194.8130  176.2170  146.4600 O   0  0  0  0  0  0  0  0  0  0  0  0
  192.4550  176.6430  147.7620 O   0  0  0  0  0  0  0  0  0  0  0  0
  195.1170  175.4550  142.0300 C   0  0  0  0  0  2  0  0  0  0  0  0
  193.8610  173.8550  143.9940 C   0  0  1  0  0  3  0  0  0  0  0  0
  196.2550  174.1790  145.7720 C   0  0  0  0  0  2  0  0  0  0  0  0
  194.1800  174.3660  141.5300 C   0  0  2  0  0  3  0  0  0  0  0  0
  192.8610  174.9150  141.2630 N   0  0  0  0  0  1  0  0  0  0  0  0
  194.7050  175.1390  144.3040 C   0  0  1  0  0  0  0  0  0  0  0  0
  194.6150  176.0370  143.2090 O   0  0  0  0  0  0  0  0  0  0  0  0
  195.0660  170.7970  145.2020 O   0  0  0  0  0  0  0  0  0  0  0  0
  194.0950  173.2730  142.5830 C   0  0  1  0  0  3  0  0  0  0  0  0
  193.3480  173.2630  146.2900 F   0  0  0  0  0  0  0  0  0  0  0  0
  196.0750  174.8150  144.5250 O   0  0  0  0  0  0  0  0  0  0  0  0
  196.3960  172.6820  145.5980 C   0  0  0  0  0  2  0  0  0  0  0  0
  195.0890  172.0110  145.2890 C   0  0  0  0  0  0  0  0  0  0  0  0
  195.2580  172.5090  142.5240 O   0  0  0  0  0  1  0  0  0  0  0  0
  193.8020  172.7650  145.0870 C   0  0  2  0  0  3  0  0  0  0  0  0
  185.5340  176.0410  145.8050 O   0  0  0  0  0  0  0  0  0  0  0  0
  185.5300  178.3290  146.2440 N   0  0  0  0  0  2  0  0  0  0  0  0
  186.1980  177.0730  146.0800 C   0  0  0  0  0  0  0  0  0  0  0  0
  184.1210  178.5400  145.9450 C   0  0  0  0  0  2  0  0  0  0  0  0
  183.9520  179.1420  144.6300 N   0  0  0  0  0  2  0  0  0  0  0  0
  185.5660  180.7050  144.0470 O   0  0  0  0  0  0  0  0  0  0  0  0
  185.0580  179.5700  143.8360 C   0  0  0  0  0  0  0  0  0  0  0  0
  187.3440  177.3560  141.7280 C   0  0  0  0  0  2  0  0  0  0  0  0
  185.5740  178.7200  142.7420 C   0  0  0  0  0  0  0  0  0  0  0  0
  186.9470  177.9160  140.4990 O   0  0  0  0  0  0  0  0  0  0  0  0
  184.8130  178.5950  141.4330 C   0  0  1  0  0  3  0  0  0  0  0  0
  186.7910  178.1720  142.8600 C   0  0  0  0  0  3  0  0  0  0  0  0
  185.5570  177.7090  140.4180 C   0  0  0  0  0  2  0  0  0  0  0  0
  183.4310  178.0060  141.6710 C   0  0  0  0  0  2  0  0  0  0  0  0
  182.5830  178.2370  140.5130 N   0  0  0  0  0  1  0  0  0  0  0  0
  1  5  1  0  0  0  0
  1  6  1  0  0  0  0
  2  3  2  0  0  0  0
  2  4  1  0  0  0  0
  3  7  1  0  0  0  0
  4  1  2  0  0  0  0
  7 10  1  0  0  0  0
  7  5  2  0  0  0  0
  8  9  1  0  0  0  0
  8 11  2  0  0  0  0
  9 10  1  0  0  0  0
 10 12  2  0  0  0  0
 13 19  1  0  0  0  0
 14 18  1  0  0  0  0
 14 27  1  0  0  0  0
 16 13  1  0  0  0  0
 16 21  1  0  0  0  0
 17 16  1  0  0  0  0
 18 23  1  0  0  0  0
 18  8  1  0  0  0  0
 19 18  1  0  0  0  0
 20 25  2  0  0  0  0
 21 14  1  0  0  0  0
 23 15  1  0  0  0  0
 24 15  1  0  0  0  0
 25 24  1  0  0  0  0
 26 21  1  0  0  0  0
 27 25  1  0  0  0  0
 27 22  1  0  0  0  0
 28 30  2  0  0  0  0
 30  4  1  0  0  0  0
 30 29  1  0  0  0  0
 31 29  1  0  0  0  0
 32 31  1  0  0  0  0
 34 33  2  0  0  0  0
 34 32  1  0  0  0  0
 35 39  1  0  0  0  0
 36 39  2  0  0  0  0
 36 34  1  0  0  0  0
 37 35  1  0  0  0  0
 38 41  1  0  0  0  0
 38 36  1  0  0  0  0
 40 37  1  0  0  0  0
 40 38  1  0  0  0  0
 42 41  1  0  0  0  0
M  END
>  <MODEL>
5

>  <REMARK>
 VINA RESULT:      -8.1      2.271      3.358
  Name = 
  7 active torsions:
  status: ('A' for Active; 'I' for Inactive)
    1  A    between atoms: C_2  and  N_3
    2  A    between atoms: C_2  and  N_36
    3  A    between atoms: C_5  and  C_16
    4  A    between atoms: C_6  and  C_40
    5  A    between atoms: C_15  and  C_33
    6  A    between atoms: C_19  and  C_23
    7  A    between atoms: C_24  and  C_41
                            x       y       z     vdW  Elec       q    Type
                         _______ _______ _______ _____ _____    ______ ____

>  <TORSDO>
F 7

$$$$
=
 OpenBabel11062419403D

 42 45  0  0  1  0  0  0  0  0999 V2000
  194.1000  176.3770  145.9530 C   0  0  0  0  0  0  0  0  0  0  0  0
  193.7360  174.0710  145.2920 C   0  0  0  0  0  3  0  0  0  0  0  0
  192.4060  174.1580  145.7050 C   0  0  0  0  0  3  0  0  0  0  0  0
  194.5980  175.1740  145.4010 C   0  0  0  0  0  0  0  0  0  0  0  0
  192.7670  176.4550  146.3730 C   0  0  0  0  0  3  0  0  0  0  0  0
  194.9110  177.4960  146.0920 O   0  0  0  0  0  1  0  0  0  0  0  0
  191.9130  175.3500  146.2480 C   0  0  0  0  0  0  0  0  0  0  0  0
  188.2080  176.3950  145.9890 C   0  0  0  0  0  0  0  0  0  0  0  0
  189.6050  176.1810  145.7640 N   0  0  0  0  0  2  0  0  0  0  0  0
  190.4930  175.4510  146.6180 C   0  0  0  0  0  0  0  0  0  0  0  0
  187.6020  175.7460  146.8860 O   0  0  0  0  0  0  0  0  0  0  0  0
  190.0770  174.9390  147.6960 O   0  0  0  0  0  0  0  0  0  0  0  0
  186.1650  179.3620  145.7880 C   0  0  0  0  0  2  0  0  0  0  0  0
  186.3830  176.9620  144.3090 C   0  0  1  0  0  3  0  0  0  0  0  0
  189.2490  177.6080  143.7060 C   0  0  0  0  0  2  0  0  0  0  0  0
  184.9100  178.8770  145.0800 C   0  0  2  0  0  3  0  0  0  0  0  0
  184.0650  178.1300  145.9970 N   0  0  0  0  0  1  0  0  0  0  0  0
  187.4980  177.5230  145.2570 C   0  0  1  0  0  0  0  0  0  0  0  0
  186.8960  178.2730  146.3000 O   0  0  0  0  0  0  0  0  0  0  0  0
  187.1250  176.7380  140.8940 O   0  0  0  0  0  0  0  0  0  0  0  0
  185.3170  178.0040  143.9050 C   0  0  1  0  0  3  0  0  0  0  0  0
  187.5910  175.0040  143.5390 F   0  0  0  0  0  0  0  0  0  0  0  0
  188.4040  178.3630  144.5460 O   0  0  0  0  0  0  0  0  0  0  0  0
  188.7740  177.6670  142.2690 C   0  0  0  0  0  2  0  0  0  0  0  0
  187.5530  176.8260  142.0300 C   0  0  0  0  0  0  0  0  0  0  0  0
  185.7630  178.8270  142.8740 O   0  0  0  0  0  1  0  0  0  0  0  0
  186.8370  176.0820  143.1240 C   0  0  2  0  0  3  0  0  0  0  0  0
  196.8530  174.4230  145.5740 O   0  0  0  0  0  0  0  0  0  0  0  0
  196.3380  175.6150  143.6400 N   0  0  0  0  0  2  0  0  0  0  0  0
  195.9840  175.0350  144.9000 C   0  0  0  0  0  0  0  0  0  0  0  0
  197.7030  175.6950  143.1400 C   0  0  0  0  0  2  0  0  0  0  0  0
  197.9350  174.7080  142.0950 N   0  0  0  0  0  2  0  0  0  0  0  0
  196.7830  172.7090  142.3560 O   0  0  0  0  0  0  0  0  0  0  0  0
  196.9360  173.7710  141.6920 C   0  0  0  0  0  0  0  0  0  0  0  0
  195.7790  173.8660  138.0560 C   0  0  0  0  0  2  0  0  0  0  0  0
  196.1230  174.0120  140.4810 C   0  0  0  0  0  0  0  0  0  0  0  0
  195.1980  175.1440  138.1520 O   0  0  0  0  0  0  0  0  0  0  0  0
  194.8790  174.8820  140.5440 C   0  0  1  0  0  3  0  0  0  0  0  0
  196.5710  173.5730  139.2970 C   0  0  0  0  0  3  0  0  0  0  0  0
  194.2210  175.0430  139.1610 C   0  0  0  0  0  2  0  0  0  0  0  0
  193.8580  174.2870  141.5010 C   0  0  0  0  0  2  0  0  0  0  0  0
  192.9970  175.3340  142.0270 N   0  0  0  0  0  1  0  0  0  0  0  0
  1  6  1  0  0  0  0
  1  5  1  0  0  0  0
  2  4  1  0  0  0  0
  2  3  2  0  0  0  0
  3  7  1  0  0  0  0
  4  1  2  0  0  0  0
  7  5  2  0  0  0  0
  7 10  1  0  0  0  0
  8 11  2  0  0  0  0
  9  8  1  0  0  0  0
  9 10  1  0  0  0  0
 10 12  2  0  0  0  0
 13 19  1  0  0  0  0
 14 18  1  0  0  0  0
 15 23  1  0  0  0  0
 16 13  1  0  0  0  0
 16 17  1  0  0  0  0
 18  8  1  0  0  0  0
 18 19  1  0  0  0  0
 20 25  2  0  0  0  0
 21 14  1  0  0  0  0
 21 16  1  0  0  0  0
 23 18  1  0  0  0  0
 24 15  1  0  0  0  0
 25 24  1  0  0  0  0
 25 27  1  0  0  0  0
 26 21  1  0  0  0  0
 27 22  1  0  0  0  0
 27 14  1  0  0  0  0
 29 30  1  0  0  0  0
 30  4  1  0  0  0  0
 30 28  2  0  0  0  0
 31 29  1  0  0  0  0
 32 31  1  0  0  0  0
 34 32  1  0  0  0  0
 34 33  2  0  0  0  0
 35 37  1  0  0  0  0
 35 39  1  0  0  0  0
 36 38  1  0  0  0  0
 36 34  1  0  0  0  0
 37 40  1  0  0  0  0
 38 41  1  0  0  0  0
 39 36  2  0  0  0  0
 40 38  1  0  0  0  0
 41 42  1  0  0  0  0
M  END
>  <MODEL>
6

>  <REMARK>
 VINA RESULT:      -8.0      2.488      9.676
  Name = 
  7 active torsions:
  status: ('A' for Active; 'I' for Inactive)
    1  A    between atoms: C_2  and  N_3
    2  A    between atoms: C_2  and  N_36
    3  A    between atoms: C_5  and  C_16
    4  A    between atoms: C_6  and  C_40
    5  A    between atoms: C_15  and  C_33
    6  A    between atoms: C_19  and  C_23
    7  A    between atoms: C_24  and  C_41
                            x       y       z     vdW  Elec       q    Type
                         _______ _______ _______ _____ _____    ______ ____

>  <TORSDO>
F 7

$$$$
=
 OpenBabel11062419403D

 42 45  0  0  1  0  0  0  0  0999 V2000
  193.3750  176.0720  144.0440 C   0  0  0  0  0  0  0  0  0  0  0  0
  194.0440  175.6030  146.3290 C   0  0  0  0  0  3  0  0  0  0  0  0
  192.7120  175.6710  146.7370 C   0  0  0  0  0  3  0  0  0  0  0  0
  194.3950  175.7940  144.9820 C   0  0  0  0  0  0  0  0  0  0  0  0
  192.0410  176.1480  144.4630 C   0  0  0  0  0  3  0  0  0  0  0  0
  193.6670  176.2780  142.7020 O   0  0  0  0  0  1  0  0  0  0  0  0
  191.7010  175.9430  145.8070 C   0  0  0  0  0  0  0  0  0  0  0  0
  187.9260  176.7310  145.7070 C   0  0  0  0  0  0  0  0  0  0  0  0
  189.3230  176.6130  145.4230 N   0  0  0  0  0  2  0  0  0  0  0  0
  190.2950  175.9470  146.2370 C   0  0  0  0  0  0  0  0  0  0  0  0
  187.4050  176.0430  146.6270 O   0  0  0  0  0  0  0  0  0  0  0  0
  189.9610  175.4080  147.3300 O   0  0  0  0  0  0  0  0  0  0  0  0
  185.7480  179.6060  145.6010 C   0  0  0  0  0  2  0  0  0  0  0  0
  185.9450  177.1740  144.1720 C   0  0  1  0  0  3  0  0  0  0  0  0
  188.7220  177.9180  143.3140 C   0  0  0  0  0  2  0  0  0  0  0  0
  184.4600  179.0500  145.0130 C   0  0  2  0  0  3  0  0  0  0  0  0
  183.7280  178.2960  146.0170 N   0  0  0  0  0  1  0  0  0  0  0  0
  187.1110  177.8070  145.0080 C   0  0  1  0  0  0  0  0  0  0  0  0
  186.5650  178.5630  146.0780 O   0  0  0  0  0  0  0  0  0  0  0  0
  186.4110  176.8800  140.7140 O   0  0  0  0  0  0  0  0  0  0  0  0
  184.8070  178.1590  143.8320 C   0  0  1  0  0  3  0  0  0  0  0  0
  187.1680  175.2450  143.3550 F   0  0  0  0  0  0  0  0  0  0  0  0
  187.9180  178.6620  144.2020 O   0  0  0  0  0  0  0  0  0  0  0  0
  188.1270  177.9160  141.9210 C   0  0  0  0  0  2  0  0  0  0  0  0
  186.9280  177.0190  141.8070 C   0  0  0  0  0  0  0  0  0  0  0  0
  185.1300  178.9700  142.7460 O   0  0  0  0  0  1  0  0  0  0  0  0
  186.3380  176.2780  142.9760 C   0  0  2  0  0  3  0  0  0  0  0  0
  196.3660  176.5080  143.8490 O   0  0  0  0  0  0  0  0  0  0  0  0
  196.5770  174.5470  145.0890 N   0  0  0  0  0  2  0  0  0  0  0  0
  195.8200  175.6600  144.6020 C   0  0  0  0  0  0  0  0  0  0  0  0
  197.9210  174.2220  144.6360 C   0  0  0  0  0  2  0  0  0  0  0  0
  197.8840  173.2810  143.5250 N   0  0  0  0  0  2  0  0  0  0  0  0
  197.2830  171.1110  144.0930 O   0  0  0  0  0  0  0  0  0  0  0  0
  196.9800  172.1760  143.4880 C   0  0  0  0  0  0  0  0  0  0  0  0
  194.5230  172.3520  140.5720 C   0  0  0  0  0  2  0  0  0  0  0  0
  195.7260  172.2540  142.7090 C   0  0  0  0  0  0  0  0  0  0  0  0
  193.6570  173.2650  141.2060 O   0  0  0  0  0  0  0  0  0  0  0  0
  194.4020  172.5380  143.3980 C   0  0  1  0  0  3  0  0  0  0  0  0
  195.7860  172.2140  141.3710 C   0  0  0  0  0  3  0  0  0  0  0  0
  193.2400  172.6330  142.3930 C   0  0  0  0  0  2  0  0  0  0  0  0
  194.0820  171.4500  144.4100 C   0  0  0  0  0  2  0  0  0  0  0  0
  194.1840  171.9780  145.7610 N   0  0  0  0  0  1  0  0  0  0  0  0
  1  5  2  0  0  0  0
  1  4  1  0  0  0  0
  2  3  1  0  0  0  0
  4  2  2  0  0  0  0
  5  7  1  0  0  0  0
  6  1  1  0  0  0  0
  7 10  1  0  0  0  0
  7  3  2  0  0  0  0
  8 11  2  0  0  0  0
  9  8  1  0  0  0  0
  9 10  1  0  0  0  0
 10 12  2  0  0  0  0
 13 19  1  0  0  0  0
 14 18  1  0  0  0  0
 15 23  1  0  0  0  0
 16 13  1  0  0  0  0
 16 17  1  0  0  0  0
 18  8  1  0  0  0  0
 18 19  1  0  0  0  0
 20 25  2  0  0  0  0
 21 14  1  0  0  0  0
 21 16  1  0  0  0  0
 23 18  1  0  0  0  0
 24 15  1  0  0  0  0
 25 24  1  0  0  0  0
 25 27  1  0  0  0  0
 26 21  1  0  0  0  0
 27 22  1  0  0  0  0
 27 14  1  0  0  0  0
 28 30  2  0  0  0  0
 30  4  1  0  0  0  0
 30 29  1  0  0  0  0
 31 29  1  0  0  0  0
 32 31  1  0  0  0  0
 34 32  1  0  0  0  0
 34 33  2  0  0  0  0
 35 37  1  0  0  0  0
 35 39  1  0  0  0  0
 36 38  1  0  0  0  0
 36 34  1  0  0  0  0
 37 40  1  0  0  0  0
 38 41  1  0  0  0  0
 39 36  2  0  0  0  0
 40 38  1  0  0  0  0
 41 42  1  0  0  0  0
M  END
>  <MODEL>
7

>  <REMARK>
 VINA RESULT:      -7.9      2.726     10.014
  Name = 
  7 active torsions:
  status: ('A' for Active; 'I' for Inactive)
    1  A    between atoms: C_2  and  N_3
    2  A    between atoms: C_2  and  N_36
    3  A    between atoms: C_5  and  C_16
    4  A    between atoms: C_6  and  C_40
    5  A    between atoms: C_15  and  C_33
    6  A    between atoms: C_19  and  C_23
    7  A    between atoms: C_24  and  C_41
                            x       y       z     vdW  Elec       q    Type
                         _______ _______ _______ _____ _____    ______ ____

>  <TORSDO>
F 7

$$$$
=
 OpenBabel11062419403D

 42 45  0  0  1  0  0  0  0  0999 V2000
  188.7040  174.6000  140.8440 C   0  0  0  0  0  0  0  0  0  0  0  0
  188.9510  175.4680  143.0960 C   0  0  0  0  0  3  0  0  0  0  0  0
  189.7550  174.3780  143.4320 C   0  0  0  0  0  3  0  0  0  0  0  0
  188.4210  175.6000  141.8020 C   0  0  0  0  0  0  0  0  0  0  0  0
  189.5040  173.5050  141.1910 C   0  0  0  0  0  3  0  0  0  0  0  0
  188.1990  174.6760  139.5520 O   0  0  0  0  0  1  0  0  0  0  0  0
  190.0370  173.3900  142.4820 C   0  0  0  0  0  0  0  0  0  0  0  0
  193.2190  171.6290  143.7690 C   0  0  0  0  0  0  0  0  0  0  0  0
  192.2180  172.5820  143.4000 N   0  0  0  0  0  2  0  0  0  0  0  0
  190.9390  172.2820  142.8280 C   0  0  0  0  0  0  0  0  0  0  0  0
  192.9410  170.3990  143.8120 O   0  0  0  0  0  0  0  0  0  0  0  0
  190.6070  171.0870  142.5820 O   0  0  0  0  0  0  0  0  0  0  0  0
  196.7960  171.1580  143.8610 C   0  0  0  0  0  2  0  0  0  0  0  0
  194.9100  172.5840  145.4130 C   0  0  1  0  0  3  0  0  0  0  0  0
  194.1110  174.1490  142.9830 C   0  0  0  0  0  2  0  0  0  0  0  0
  197.1420  171.3820  145.3250 C   0  0  2  0  0  3  0  0  0  0  0  0
  196.7790  170.2190  146.1170 N   0  0  0  0  0  1  0  0  0  0  0  0
  194.6570  172.0890  143.9480 C   0  0  1  0  0  0  0  0  0  0  0  0
  195.4170  170.9130  143.7110 O   0  0  0  0  0  0  0  0  0  0  0  0
  194.9330  176.0420  145.9700 O   0  0  0  0  0  0  0  0  0  0  0  0
  196.3990  172.6120  145.8210 C   0  0  1  0  0  3  0  0  0  0  0  0
  192.7770  173.6930  145.7340 F   0  0  0  0  0  0  0  0  0  0  0  0
  195.0320  173.0810  142.9960 O   0  0  0  0  0  0  0  0  0  0  0  0
  194.6490  175.3340  143.7570 C   0  0  0  0  0  2  0  0  0  0  0  0
  194.5960  175.1250  145.2430 C   0  0  0  0  0  0  0  0  0  0  0  0
  197.0470  173.7470  145.3380 O   0  0  0  0  0  1  0  0  0  0  0  0
  194.1400  173.8400  145.8790 C   0  0  2  0  0  3  0  0  0  0  0  0
  188.1490  177.8150  140.9650 O   0  0  0  0  0  0  0  0  0  0  0  0
  186.2200  176.8160  141.8070 N   0  0  0  0  0  2  0  0  0  0  0  0
  187.6170  176.8040  141.4920 C   0  0  0  0  0  0  0  0  0  0  0  0
  185.3800  178.0010  141.7130 C   0  0  0  0  0  2  0  0  0  0  0  0
  185.6020  178.8890  142.8460 N   0  0  0  0  0  2  0  0  0  0  0  0
  183.9460  178.8430  144.4720 O   0  0  0  0  0  0  0  0  0  0  0  0
  185.1400  178.5820  144.1620 C   0  0  0  0  0  0  0  0  0  0  0  0
  188.3050  177.3440  145.8990 C   0  0  0  0  0  2  0  0  0  0  0  0
  186.0600  178.0120  145.1690 C   0  0  0  0  0  0  0  0  0  0  0  0
  187.6820  176.2330  146.4980 O   0  0  0  0  0  0  0  0  0  0  0  0
  185.5180  177.3290  146.4140 C   0  0  1  0  0  3  0  0  0  0  0  0
  187.3730  177.9760  144.9060 C   0  0  0  0  0  3  0  0  0  0  0  0
  186.6460  176.7600  147.2930 C   0  0  0  0  0  2  0  0  0  0  0  0
  184.6990  178.3030  147.2450 C   0  0  0  0  0  2  0  0  0  0  0  0
  185.5380  179.3990  147.7030 N   0  0  0  0  0  1  0  0  0  0  0  0
  1  5  2  0  0  0  0
  1  4  1  0  0  0  0
  2  3  1  0  0  0  0
  4  2  2  0  0  0  0
  5  7  1  0  0  0  0
  6  1  1  0  0  0  0
  7 10  1  0  0  0  0
  7  3  2  0  0  0  0
  8 11  2  0  0  0  0
  8 18  1  0  0  0  0
  9  8  1  0  0  0  0
 10  9  1  0  0  0  0
 12 10  2  0  0  0  0
 13 16  1  0  0  0  0
 14 21  1  0  0  0  0
 14 27  1  0  0  0  0
 15 23  1  0  0  0  0
 15 24  1  0  0  0  0
 16 21  1  0  0  0  0
 16 17  1  0  0  0  0
 18 14  1  0  0  0  0
 19 13  1  0  0  0  0
 19 18  1  0  0  0  0
 22 27  1  0  0  0  0
 23 18  1  0  0  0  0
 24 25  1  0  0  0  0
 25 27  1  0  0  0  0
 25 20  2  0  0  0  0
 26 21  1  0  0  0  0
 28 30  2  0  0  0  0
 30  4  1  0  0  0  0
 30 29  1  0  0  0  0
 31 29  1  0  0  0  0
 31 32  1  0  0  0  0
 32 34  1  0  0  0  0
 34 33  2  0  0  0  0
 34 36  1  0  0  0  0
 35 37  1  0  0  0  0
 36 38  1  0  0  0  0
 37 40  1  0  0  0  0
 38 41  1  0  0  0  0
 38 40  1  0  0  0  0
 39 36  2  0  0  0  0
 39 35  1  0  0  0  0
 41 42  1  0  0  0  0
M  END
>  <MODEL>
8

>  <REMARK>
 VINA RESULT:      -7.7      2.682      4.716
  Name = 
  7 active torsions:
  status: ('A' for Active; 'I' for Inactive)
    1  A    between atoms: C_2  and  N_3
    2  A    between atoms: C_2  and  N_36
    3  A    between atoms: C_5  and  C_16
    4  A    between atoms: C_6  and  C_40
    5  A    between atoms: C_15  and  C_33
    6  A    between atoms: C_19  and  C_23
    7  A    between atoms: C_24  and  C_41
                            x       y       z     vdW  Elec       q    Type
                         _______ _______ _______ _____ _____    ______ ____

>  <TORSDO>
F 7

$$$$
=
 OpenBabel11062419403D

 42 45  0  0  1  0  0  0  0  0999 V2000
  192.6450  173.3770  144.9430 C   0  0  0  0  0  0  0  0  0  0  0  0
  193.4680  175.2190  146.2900 C   0  0  0  0  0  3  0  0  0  0  0  0
  192.1570  175.5980  146.5810 C   0  0  0  0  0  3  0  0  0  0  0  0
  193.7320  174.1040  145.4780 C   0  0  0  0  0  0  0  0  0  0  0  0
  191.3320  173.7680  145.2320 C   0  0  0  0  0  3  0  0  0  0  0  0
  192.8490  172.2720  144.1270 O   0  0  0  0  0  1  0  0  0  0  0  0
  191.0800  174.8750  146.0540 C   0  0  0  0  0  0  0  0  0  0  0  0
  187.5970  176.5000  145.7210 C   0  0  0  0  0  0  0  0  0  0  0  0
  188.9340  176.0360  145.5090 N   0  0  0  0  0  2  0  0  0  0  0  0
  189.7050  175.2430  146.4200 C   0  0  0  0  0  0  0  0  0  0  0  0
  186.9090  176.0410  146.6730 O   0  0  0  0  0  0  0  0  0  0  0  0
  189.2290  174.9030  147.5400 O   0  0  0  0  0  0  0  0  0  0  0  0
  185.9080  179.6540  145.2550 C   0  0  0  0  0  2  0  0  0  0  0  0
  185.9780  177.1840  143.8800 C   0  0  1  0  0  3  0  0  0  0  0  0
  188.9350  177.4990  143.4900 C   0  0  0  0  0  2  0  0  0  0  0  0
  184.6660  179.2740  144.4640 C   0  0  2  0  0  3  0  0  0  0  0  0
  183.6780  178.6590  145.3350 N   0  0  0  0  0  1  0  0  0  0  0  0
  187.0720  177.6640  144.8960 C   0  0  1  0  0  0  0  0  0  0  0  0
  186.4750  178.5170  145.8610 O   0  0  0  0  0  0  0  0  0  0  0  0
  186.9520  176.7390  140.5460 O   0  0  0  0  0  0  0  0  0  0  0  0
  185.0660  178.3130  143.3560 C   0  0  1  0  0  3  0  0  0  0  0  0
  187.0240  175.0790  143.2780 F   0  0  0  0  0  0  0  0  0  0  0  0
  188.1150  178.3740  144.2330 O   0  0  0  0  0  0  0  0  0  0  0  0
  188.5810  177.5480  142.0180 C   0  0  0  0  0  2  0  0  0  0  0  0
  187.2990  176.8300  141.7090 C   0  0  0  0  0  0  0  0  0  0  0  0
  185.6760  179.0420  142.3370 O   0  0  0  0  0  1  0  0  0  0  0  0
  186.4250  176.2110  142.7660 C   0  0  2  0  0  3  0  0  0  0  0  0
  195.6350  172.7070  145.8050 O   0  0  0  0  0  0  0  0  0  0  0  0
  195.9580  174.5260  144.3870 N   0  0  0  0  0  2  0  0  0  0  0  0
  195.1440  173.7220  145.2470 C   0  0  0  0  0  0  0  0  0  0  0  0
  197.3950  174.3480  144.2340 C   0  0  0  0  0  2  0  0  0  0  0  0
  197.6970  173.5100  143.0820 N   0  0  0  0  0  2  0  0  0  0  0  0
  196.1070  171.8870  142.6020 O   0  0  0  0  0  0  0  0  0  0  0  0
  196.6780  172.9560  142.2500 C   0  0  0  0  0  0  0  0  0  0  0  0
  196.6840  173.9330  138.5600 C   0  0  0  0  0  2  0  0  0  0  0  0
  196.3260  173.5950  140.9640 C   0  0  0  0  0  0  0  0  0  0  0  0
  196.3890  175.2890  138.7980 O   0  0  0  0  0  0  0  0  0  0  0  0
  195.3350  174.7460  140.9160 C   0  0  1  0  0  3  0  0  0  0  0  0
  196.9960  173.2450  139.8570 C   0  0  0  0  0  3  0  0  0  0  0  0
  195.1620  175.2960  139.4890 C   0  0  0  0  0  2  0  0  0  0  0  0
  193.9760  174.3050  141.4350 C   0  0  0  0  0  2  0  0  0  0  0  0
  193.2680  175.4370  142.0080 N   0  0  0  0  0  1  0  0  0  0  0  0
  1  5  2  0  0  0  0
  1  4  1  0  0  0  0
  2  3  1  0  0  0  0
  4  2  2  0  0  0  0
  5  7  1  0  0  0  0
  6  1  1  0  0  0  0
  7 10  1  0  0  0  0
  7  3  2  0  0  0  0
  8 11  2  0  0  0  0
  9  8  1  0  0  0  0
  9 10  1  0  0  0  0
 10 12  2  0  0  0  0
 13 19  1  0  0  0  0
 14 18  1  0  0  0  0
 15 23  1  0  0  0  0
 16 13  1  0  0  0  0
 16 17  1  0  0  0  0
 18  8  1  0  0  0  0
 18 19  1  0  0  0  0
 20 25  2  0  0  0  0
 21 14  1  0  0  0  0
 21 16  1  0  0  0  0
 23 18  1  0  0  0  0
 24 15  1  0  0  0  0
 25 24  1  0  0  0  0
 25 27  1  0  0  0  0
 26 21  1  0  0  0  0
 27 22  1  0  0  0  0
 27 14  1  0  0  0  0
 29 30  1  0  0  0  0
 30  4  1  0  0  0  0
 30 28  2  0  0  0  0
 31 29  1  0  0  0  0
 32 31  1  0  0  0  0
 34 33  2  0  0  0  0
 34 32  1  0  0  0  0
 35 37  1  0  0  0  0
 35 39  1  0  0  0  0
 36 34  1  0  0  0  0
 37 40  1  0  0  0  0
 38 36  1  0  0  0  0
 38 41  1  0  0  0  0
 39 36  2  0  0  0  0
 40 38  1  0  0  0  0
 41 42  1  0  0  0  0
M  END
>  <MODEL>
9

>  <REMARK>
 VINA RESULT:      -7.6      2.499      9.906
  Name = 
  7 active torsions:
  status: ('A' for Active; 'I' for Inactive)
    1  A    between atoms: C_2  and  N_3
    2  A    between atoms: C_2  and  N_36
    3  A    between atoms: C_5  and  C_16
    4  A    between atoms: C_6  and  C_40
    5  A    between atoms: C_15  and  C_33
    6  A    between atoms: C_19  and  C_23
    7  A    between atoms: C_24  and  C_41
                            x       y       z     vdW  Elec       q    Type
                         _______ _______ _______ _____ _____    ______ ____

>  <TORSDO>
F 7

$$$$
