=
 OpenBabel11062418543D

 33 35  0  0  1  0  0  0  0  0999 V2000
  189.3590  174.5400  143.9240 C   0  0  0  0  0  0  0  0  0  0  0  0
  189.3680  173.1790  143.6080 C   0  0  0  0  0  3  0  0  0  0  0  0
  189.3820  175.4970  142.8850 C   0  0  0  0  0  0  0  0  0  0  0  0
  189.4350  173.7170  141.2840 N   0  0  0  0  0  0  0  0  0  0  0  0
  189.4090  172.7840  142.2710 C   0  0  0  0  0  3  0  0  0  0  0  0
  189.4200  175.0480  141.5610 C   0  0  0  0  0  3  0  0  0  0  0  0
  189.3500  176.9800  143.1220 C   0  0  1  0  0  3  0  0  0  0  0  0
  190.9850  178.5880  144.1050 C   0  0  0  0  0  1  0  0  0  0  0  0
  190.7460  177.5740  143.0030 C   0  0  0  0  0  2  0  0  0  0  0  0
  188.4650  177.6100  142.2400 O   0  0  0  0  0  0  0  0  0  0  0  0
  186.2310  178.2900  142.1410 N   0  0  2  0  0  0  0  0  0  0  0  0
  185.3300  178.7810  143.2030 C   0  0  1  0  0  3  0  0  0  0  0  0
  184.9000  177.6920  142.3260 C   0  0  1  0  0  3  0  0  0  0  0  0
  185.8230  178.2360  144.5300 C   0  0  1  0  0  3  0  0  0  0  0  0
  184.0330  178.1920  141.3570 O   0  0  0  0  0  1  0  0  0  0  0  0
  187.1950  177.4040  142.7850 C   0  0  2  0  0  3  0  0  0  0  0  0
  187.2150  177.7250  144.2590 C   0  0  0  0  0  2  0  0  0  0  0  0
  185.8640  179.2820  145.4930 O   0  0  0  0  0  0  0  0  0  0  0  0
  184.4920  178.3750  147.1170 O   0  0  0  0  0  0  0  0  0  0  0  0
  186.2210  179.6940  147.8350 O   0  0  0  0  0  1  0  0  0  0  0  0
  185.4880  179.0880  146.8230 C   0  0  0  0  0  0  0  0  0  0  0  0
  189.3030  174.9300  145.3650 C   0  0  0  0  0  2  0  0  0  0  0  0
  190.4700  174.5210  146.0150 O   0  0  0  0  0  0  0  0  0  0  0  0
  190.7470  175.5380  146.9280 C   0  0  2  0  0  3  0  0  0  0  0  0
  189.6260  176.5710  146.8940 C   0  0  0  0  0  1  0  0  0  0  0  0
  194.0140  174.8270  145.4090 C   0  0  0  0  0  0  0  0  0  0  0  0
  193.0630  175.4690  146.0280 C   0  0  0  0  0  0  0  0  0  0  0  0
  195.4080  174.9060  145.9210 C   0  0  0  0  0  1  0  0  0  0  0  0
  192.1100  176.1130  146.6490 C   0  0  0  0  0  3  0  0  0  0  0  0
  192.7650  174.5240  143.0740 O   0  0  0  0  0  0  0  0  0  0  0  0
  194.9010  173.3550  143.3720 O   0  0  0  0  0  0  0  0  0  0  0  0
  192.7770  172.3890  144.6110 N   0  0  0  0  0  1  0  0  0  0  0  0
  193.6320  173.7830  144.0520 S   0  0  0  0  0  0  0  0  0  0  0  0
  1 22  1  0  0  0  0
  2  1  1  0  0  0  0
  3  7  1  0  0  0  0
  3  1  2  0  0  0  0
  4  6  2  0  0  0  0
  4  5  1  0  0  0  0
  5  2  2  0  0  0  0
  6  3  1  0  0  0  0
  7  9  1  6  0  0  0
  9  8  1  0  0  0  0
 10 16  1  0  0  0  0
 10  7  1  0  0  0  0
 11 13  1  0  0  0  0
 11 16  1  0  0  0  0
 11 12  1  0  0  0  0
 12 14  1  0  0  0  0
 13 12  1  0  0  0  0
 14 18  1  0  0  0  0
 15 13  1  0  0  0  0
 16 17  1  0  0  0  0
 17 14  1  0  0  0  0
 18 21  1  0  0  0  0
 21 19  2  0  0  0  0
 21 20  1  0  0  0  0
 22 23  1  0  0  0  0
 23 24  1  0  0  0  0
 25 24  1  0  0  0  0
 26 28  1  0  0  0  0
 26 27  2  0  0  0  0
 27 29  2  0  0  0  0
 29 24  1  0  0  0  0
 30 33  2  0  0  0  0
 31 33  2  0  0  0  0
 33 32  1  0  0  0  0
 33 26  1  0  0  0  0
M  END
>  <MODEL>
1

>  <REMARK>
 VINA RESULT:      -6.3      0.000      0.000
  Name = 
  11 active torsions:
  status: ('A' for Active; 'I' for Inactive)
    1  A    between atoms: C_1  and  O_13
    2  A    between atoms: C_1  and  C_15
    3  A    between atoms: C_1  and  C_20
    4  A    between atoms: C_6  and  S_31
    5  A    between atoms: C_12  and  C_19
    6  A    between atoms: O_13  and  C_24
    7  A    between atoms: C_16  and  O_23
    8  A    between atoms: O_18  and  C_19
    9  A    between atoms: O_18  and  C_21
   10  A    between atoms: C_21  and  C_25
   11  A    between atoms: O_23  and  C_27
                            x       y       z     vdW  Elec       q    Type
                         _______ _______ _______ _____ _____    ______ ____

>  <TORSDO>
F 11

$$$$
=
 OpenBabel11062418543D

 33 35  0  0  1  0  0  0  0  0999 V2000
  189.9110  174.7800  142.4930 C   0  0  0  0  0  0  0  0  0  0  0  0
  189.2080  174.5650  141.3060 C   0  0  0  0  0  3  0  0  0  0  0  0
  189.8770  173.8000  143.5100 C   0  0  0  0  0  0  0  0  0  0  0  0
  188.4480  172.4600  142.1340 N   0  0  0  0  0  0  0  0  0  0  0  0
  188.4730  173.3900  141.1440 C   0  0  0  0  0  3  0  0  0  0  0  0
  189.1290  172.6380  143.2970 C   0  0  0  0  0  3  0  0  0  0  0  0
  190.6200  173.9270  144.8100 C   0  0  1  0  0  3  0  0  0  0  0  0
  190.3140  175.0860  146.9980 C   0  0  0  0  0  1  0  0  0  0  0  0
  189.6570  174.2020  145.9560 C   0  0  0  0  0  2  0  0  0  0  0  0
  191.3830  172.7820  145.0670 O   0  0  0  0  0  0  0  0  0  0  0  0
  193.6350  172.1640  145.1490 N   0  0  2  0  0  0  0  0  0  0  0  0
  194.8410  172.9710  145.4170 C   0  0  1  0  0  3  0  0  0  0  0  0
  194.7860  172.1140  144.2340 C   0  0  1  0  0  3  0  0  0  0  0  0
  194.5380  174.4120  145.0500 C   0  0  1  0  0  3  0  0  0  0  0  0
  195.5110  170.9480  144.4710 O   0  0  0  0  0  1  0  0  0  0  0  0
  192.6520  173.0640  144.5550 C   0  0  2  0  0  3  0  0  0  0  0  0
  193.0390  174.4800  144.9060 C   0  0  0  0  0  2  0  0  0  0  0  0
  194.9700  175.2750  146.0940 O   0  0  0  0  0  0  0  0  0  0  0  0
  194.8960  177.4980  145.4670 O   0  0  0  0  0  0  0  0  0  0  0  0
  193.5700  176.8700  147.2250 O   0  0  0  0  0  1  0  0  0  0  0  0
  194.4940  176.5800  146.2300 C   0  0  0  0  0  0  0  0  0  0  0  0
  190.6980  176.0430  142.6300 C   0  0  0  0  0  2  0  0  0  0  0  0
  189.8460  177.1460  142.5370 O   0  0  0  0  0  0  0  0  0  0  0  0
  190.1990  177.9640  143.6100 C   0  0  2  0  0  3  0  0  0  0  0  0
  191.6560  177.7130  143.9810 C   0  0  0  0  0  1  0  0  0  0  0  0
  186.6490  178.0290  144.5490 C   0  0  0  0  0  0  0  0  0  0  0  0
  187.9420  177.8890  144.6490 C   0  0  0  0  0  0  0  0  0  0  0  0
  185.9000  178.7230  145.6300 C   0  0  0  0  0  1  0  0  0  0  0  0
  189.2380  177.7510  144.7490 C   0  0  0  0  0  3  0  0  0  0  0  0
  186.0430  176.0330  142.8900 O   0  0  0  0  0  0  0  0  0  0  0  0
  184.3450  177.7710  143.2350 O   0  0  0  0  0  0  0  0  0  0  0  0
  186.4340  178.3620  141.7290 N   0  0  0  0  0  1  0  0  0  0  0  0
  185.8180  177.5040  143.0970 S   0  0  0  0  0  0  0  0  0  0  0  0
  1 22  1  0  0  0  0
  1  3  1  0  0  0  0
  2  1  2  0  0  0  0
  3  7  1  0  0  0  0
  4  6  1  0  0  0  0
  5  2  1  0  0  0  0
  5  4  2  0  0  0  0
  6  3  2  0  0  0  0
  7 10  1  0  0  0  0
  7  9  1  1  0  0  0
  9  8  1  0  0  0  0
 11 12  1  0  0  0  0
 13 15  1  0  0  0  0
 13 11  1  0  0  0  0
 13 12  1  0  0  0  0
 14 12  1  0  0  0  0
 14 18  1  0  0  0  0
 16 17  1  0  0  0  0
 16 10  1  0  0  0  0
 16 11  1  0  0  0  0
 17 14  1  0  0  0  0
 18 21  1  0  0  0  0
 19 21  2  0  0  0  0
 21 20  1  0  0  0  0
 23 22  1  0  0  0  0
 23 24  1  0  0  0  0
 24 25  1  0  0  0  0
 24 29  1  0  0  0  0
 26 27  2  0  0  0  0
 26 28  1  0  0  0  0
 27 29  2  0  0  0  0
 30 33  2  0  0  0  0
 32 33  1  0  0  0  0
 33 31  2  0  0  0  0
 33 26  1  0  0  0  0
M  END
>  <MODEL>
2

>  <REMARK>
 VINA RESULT:      -6.1      2.467      7.483
  Name = 
  11 active torsions:
  status: ('A' for Active; 'I' for Inactive)
    1  A    between atoms: C_1  and  O_13
    2  A    between atoms: C_1  and  C_15
    3  A    between atoms: C_1  and  C_20
    4  A    between atoms: C_6  and  S_31
    5  A    between atoms: C_12  and  C_19
    6  A    between atoms: O_13  and  C_24
    7  A    between atoms: C_16  and  O_23
    8  A    between atoms: O_18  and  C_19
    9  A    between atoms: O_18  and  C_21
   10  A    between atoms: C_21  and  C_25
   11  A    between atoms: O_23  and  C_27
                            x       y       z     vdW  Elec       q    Type
                         _______ _______ _______ _____ _____    ______ ____

>  <TORSDO>
F 11

$$$$
=
 OpenBabel11062418543D

 33 35  0  0  1  0  0  0  0  0999 V2000
  189.9160  174.5630  143.1590 C   0  0  0  0  0  0  0  0  0  0  0  0
  189.1480  173.7980  142.2770 C   0  0  0  0  0  3  0  0  0  0  0  0
  190.3490  173.9940  144.3780 C   0  0  0  0  0  0  0  0  0  0  0  0
  189.2310  171.9590  143.7950 N   0  0  0  0  0  0  0  0  0  0  0  0
  188.8100  172.4880  142.6170 C   0  0  0  0  0  3  0  0  0  0  0  0
  189.9860  172.6760  144.6700 C   0  0  0  0  0  3  0  0  0  0  0  0
  191.1990  174.7250  145.3790 C   0  0  1  0  0  3  0  0  0  0  0  0
  190.8440  176.0290  147.4760 C   0  0  0  0  0  1  0  0  0  0  0  0
  190.5300  174.7380  146.7450 C   0  0  0  0  0  2  0  0  0  0  0  0
  192.4780  174.1630  145.4570 O   0  0  0  0  0  0  0  0  0  0  0  0
  193.6260  174.7400  143.5050 N   0  0  2  0  0  0  0  0  0  0  0  0
  195.0560  175.0300  143.2850 C   0  0  1  0  0  3  0  0  0  0  0  0
  194.0410  175.9670  142.8060 C   0  0  1  0  0  3  0  0  0  0  0  0
  195.6500  175.5080  144.5970 C   0  0  1  0  0  3  0  0  0  0  0  0
  193.8610  175.7970  141.4350 O   0  0  0  0  0  1  0  0  0  0  0  0
  193.3310  175.1100  144.8860 C   0  0  2  0  0  3  0  0  0  0  0  0
  194.6320  175.1490  145.6490 C   0  0  0  0  0  2  0  0  0  0  0  0
  196.8740  174.8280  144.8460 O   0  0  0  0  0  0  0  0  0  0  0  0
  197.1810  173.4110  146.6460 O   0  0  0  0  0  1  0  0  0  0  0  0
  196.6760  172.4410  144.6340 O   0  0  0  0  0  0  0  0  0  0  0  0
  196.9190  173.5570  145.4220 C   0  0  0  0  0  0  0  0  0  0  0  0
  190.2710  175.9580  142.7600 C   0  0  0  0  0  2  0  0  0  0  0  0
  189.1100  176.7210  142.6150 O   0  0  0  0  0  0  0  0  0  0  0  0
  189.1920  177.6920  143.6140 C   0  0  2  0  0  3  0  0  0  0  0  0
  190.6540  178.0510  143.8540 C   0  0  0  0  0  1  0  0  0  0  0  0
  186.2720  178.2720  145.7640 C   0  0  0  0  0  0  0  0  0  0  0  0
  187.3710  177.7420  145.3060 C   0  0  0  0  0  0  0  0  0  0  0  0
  186.1190  178.5010  147.2260 C   0  0  0  0  0  1  0  0  0  0  0  0
  188.4750  177.2120  144.8480 C   0  0  0  0  0  3  0  0  0  0  0  0
  183.7110  178.8970  145.3700 O   0  0  0  0  0  0  0  0  0  0  0  0
  185.3910  180.1750  144.1190 O   0  0  0  0  0  0  0  0  0  0  0  0
  184.8860  177.7000  143.3430 N   0  0  0  0  0  1  0  0  0  0  0  0
  185.0290  178.8180  144.6530 S   0  0  0  0  0  0  0  0  0  0  0  0
  1  3  1  0  0  0  0
  2  5  1  0  0  0  0
  2  1  2  0  0  0  0
  3  6  2  0  0  0  0
  3  7  1  0  0  0  0
  4  6  1  0  0  0  0
  5  4  2  0  0  0  0
  7 10  1  0  0  0  0
  7  9  1  1  0  0  0
  9  8  1  0  0  0  0
 11 16  1  0  0  0  0
 12 11  1  0  0  0  0
 12 14  1  0  0  0  0
 13 12  1  0  0  0  0
 13 11  1  0  0  0  0
 14 18  1  0  0  0  0
 14 17  1  0  0  0  0
 15 13  1  0  0  0  0
 16 10  1  0  0  0  0
 16 17  1  0  0  0  0
 18 21  1  0  0  0  0
 20 21  2  0  0  0  0
 21 19  1  0  0  0  0
 22  1  1  0  0  0  0
 23 22  1  0  0  0  0
 23 24  1  0  0  0  0
 24 25  1  0  0  0  0
 24 29  1  0  0  0  0
 26 28  1  0  0  0  0
 27 26  2  0  0  0  0
 29 27  2  0  0  0  0
 31 33  2  0  0  0  0
 32 33  1  0  0  0  0
 33 30  2  0  0  0  0
 33 26  1  0  0  0  0
M  END
>  <MODEL>
3

>  <REMARK>
 VINA RESULT:      -6.1      2.582      7.963
  Name = 
  11 active torsions:
  status: ('A' for Active; 'I' for Inactive)
    1  A    between atoms: C_1  and  O_13
    2  A    between atoms: C_1  and  C_15
    3  A    between atoms: C_1  and  C_20
    4  A    between atoms: C_6  and  S_31
    5  A    between atoms: C_12  and  C_19
    6  A    between atoms: O_13  and  C_24
    7  A    between atoms: C_16  and  O_23
    8  A    between atoms: O_18  and  C_19
    9  A    between atoms: O_18  and  C_21
   10  A    between atoms: C_21  and  C_25
   11  A    between atoms: O_23  and  C_27
                            x       y       z     vdW  Elec       q    Type
                         _______ _______ _______ _____ _____    ______ ____

>  <TORSDO>
F 11

$$$$
=
 OpenBabel11062418543D

 33 35  0  0  1  0  0  0  0  0999 V2000
  189.5820  174.0480  142.5100 C   0  0  0  0  0  0  0  0  0  0  0  0
  189.4690  173.0120  141.5810 C   0  0  0  0  0  3  0  0  0  0  0  0
  189.9680  173.7540  143.8380 C   0  0  0  0  0  0  0  0  0  0  0  0
  190.0950  171.4340  143.2580 N   0  0  0  0  0  0  0  0  0  0  0  0
  189.7290  171.7000  141.9770 C   0  0  0  0  0  3  0  0  0  0  0  0
  190.2200  172.4230  144.1830 C   0  0  0  0  0  3  0  0  0  0  0  0
  190.1410  174.8000  144.9020 C   0  0  1  0  0  3  0  0  0  0  0  0
  189.2840  174.6510  147.2400 C   0  0  0  0  0  1  0  0  0  0  0  0
  188.9070  174.8760  145.7890 C   0  0  0  0  0  2  0  0  0  0  0  0
  191.2880  174.5540  145.6670 O   0  0  0  0  0  0  0  0  0  0  0  0
  191.6690  176.3990  144.2850 N   0  0  2  0  0  0  0  0  0  0  0  0
  192.8920  176.8310  143.5790 C   0  0  1  0  0  3  0  0  0  0  0  0
  192.1630  177.7790  144.4200 C   0  0  1  0  0  3  0  0  0  0  0  0
  194.0910  176.2690  144.3200 C   0  0  1  0  0  3  0  0  0  0  0  0
  191.3970  178.6200  143.6150 O   0  0  0  0  0  1  0  0  0  0  0  0
  192.1060  175.6680  145.4700 C   0  0  2  0  0  3  0  0  0  0  0  0
  193.5300  175.2210  145.2470 C   0  0  0  0  0  2  0  0  0  0  0  0
  194.9920  175.6750  143.3950 O   0  0  0  0  0  0  0  0  0  0  0  0
  196.9290  176.9350  143.3460 O   0  0  0  0  0  1  0  0  0  0  0  0
  195.8710  176.5770  141.3470 O   0  0  0  0  0  0  0  0  0  0  0  0
  195.9670  176.4130  142.7220 C   0  0  0  0  0  0  0  0  0  0  0  0
  189.3080  175.4430  142.0510 C   0  0  0  0  0  2  0  0  0  0  0  0
  188.2360  175.4470  141.1560 O   0  0  0  0  0  0  0  0  0  0  0  0
  187.3360  176.3760  141.6790 C   0  0  2  0  0  3  0  0  0  0  0  0
  188.0620  177.6880  141.9510 C   0  0  0  0  0  1  0  0  0  0  0  0
  185.5490  177.2310  144.7720 C   0  0  0  0  0  0  0  0  0  0  0  0
  186.1000  176.5160  143.8320 C   0  0  0  0  0  0  0  0  0  0  0  0
  185.7540  176.8570  146.1960 C   0  0  0  0  0  1  0  0  0  0  0  0
  186.6540  175.7970  142.8900 C   0  0  0  0  0  3  0  0  0  0  0  0
  183.6940  179.0170  145.4580 O   0  0  0  0  0  0  0  0  0  0  0  0
  185.6360  179.8330  144.2000 O   0  0  0  0  0  0  0  0  0  0  0  0
  183.8000  178.4580  142.8890 N   0  0  0  0  0  1  0  0  0  0  0  0
  184.6710  178.6930  144.3630 S   0  0  0  0  0  0  0  0  0  0  0  0
  1  3  1  0  0  0  0
  2  5  1  0  0  0  0
  2  1  2  0  0  0  0
  3  6  2  0  0  0  0
  3  7  1  0  0  0  0
  4  6  1  0  0  0  0
  5  4  2  0  0  0  0
  7 10  1  0  0  0  0
  7  9  1  1  0  0  0
  9  8  1  0  0  0  0
 11 13  1  0  0  0  0
 11 16  1  0  0  0  0
 12 11  1  0  0  0  0
 12 14  1  0  0  0  0
 12 13  1  0  0  0  0
 14 17  1  0  0  0  0
 15 13  1  0  0  0  0
 16 10  1  0  0  0  0
 17 16  1  0  0  0  0
 18 14  1  0  0  0  0
 20 21  2  0  0  0  0
 21 19  1  0  0  0  0
 21 18  1  0  0  0  0
 22  1  1  0  0  0  0
 23 24  1  0  0  0  0
 23 22  1  0  0  0  0
 24 25  1  0  0  0  0
 24 29  1  0  0  0  0
 26 28  1  0  0  0  0
 27 26  2  0  0  0  0
 29 27  2  0  0  0  0
 31 33  2  0  0  0  0
 32 33  1  0  0  0  0
 33 26  1  0  0  0  0
 33 30  2  0  0  0  0
M  END
>  <MODEL>
4

>  <REMARK>
 VINA RESULT:      -6.1      2.759      7.555
  Name = 
  11 active torsions:
  status: ('A' for Active; 'I' for Inactive)
    1  A    between atoms: C_1  and  O_13
    2  A    between atoms: C_1  and  C_15
    3  A    between atoms: C_1  and  C_20
    4  A    between atoms: C_6  and  S_31
    5  A    between atoms: C_12  and  C_19
    6  A    between atoms: O_13  and  C_24
    7  A    between atoms: C_16  and  O_23
    8  A    between atoms: O_18  and  C_19
    9  A    between atoms: O_18  and  C_21
   10  A    between atoms: C_21  and  C_25
   11  A    between atoms: O_23  and  C_27
                            x       y       z     vdW  Elec       q    Type
                         _______ _______ _______ _____ _____    ______ ____

>  <TORSDO>
F 11

$$$$
=
 OpenBabel11062418543D

 33 35  0  0  1  0  0  0  0  0999 V2000
  193.1330  175.9850  145.7140 C   0  0  0  0  0  0  0  0  0  0  0  0
  194.3600  175.6780  146.3050 C   0  0  0  0  0  3  0  0  0  0  0  0
  192.9810  175.8500  144.3150 C   0  0  0  0  0  0  0  0  0  0  0  0
  195.2600  175.1320  144.1640 N   0  0  0  0  0  0  0  0  0  0  0  0
  195.4220  175.2510  145.5070 C   0  0  0  0  0  3  0  0  0  0  0  0
  194.0750  175.4170  143.5600 C   0  0  0  0  0  3  0  0  0  0  0  0
  191.6960  176.1310  143.5900 C   0  0  1  0  0  3  0  0  0  0  0  0
  190.2130  177.9700  142.7850 C   0  0  0  0  0  1  0  0  0  0  0  0
  191.6360  177.5850  143.1440 C   0  0  0  0  0  2  0  0  0  0  0  0
  191.5370  175.2700  142.4970 O   0  0  0  0  0  0  0  0  0  0  0  0
  191.2560  172.9510  142.4370 N   0  0  2  0  0  0  0  0  0  0  0  0
  190.0720  172.1380  142.0970 C   0  0  1  0  0  3  0  0  0  0  0  0
  190.7980  171.8840  143.3400 C   0  0  1  0  0  3  0  0  0  0  0  0
  188.8320  172.9720  142.3610 C   0  0  1  0  0  3  0  0  0  0  0  0
  191.6140  170.7660  143.1820 O   0  0  0  0  0  1  0  0  0  0  0  0
  190.7580  174.2130  142.9730 C   0  0  2  0  0  3  0  0  0  0  0  0
  189.3300  174.3870  142.5150 C   0  0  0  0  0  2  0  0  0  0  0  0
  187.9470  172.8820  141.2520 O   0  0  0  0  0  0  0  0  0  0  0  0
  188.3420  174.2890  139.4610 O   0  0  0  0  0  1  0  0  0  0  0  0
  188.8020  172.0670  139.1570 O   0  0  0  0  0  0  0  0  0  0  0  0
  188.3640  173.1250  139.9420 C   0  0  0  0  0  0  0  0  0  0  0  0
  192.0130  176.4260  146.5970 C   0  0  0  0  0  2  0  0  0  0  0  0
  191.2690  175.3180  147.0120 O   0  0  0  0  0  0  0  0  0  0  0  0
  189.9950  175.8220  147.2790 C   0  0  2  0  0  3  0  0  0  0  0  0
  188.9950  174.6720  147.3230 C   0  0  0  0  0  1  0  0  0  0  0  0
  187.2110  177.6510  145.7320 C   0  0  0  0  0  0  0  0  0  0  0  0
  188.4280  177.2710  146.0040 C   0  0  0  0  0  0  0  0  0  0  0  0
  186.8110  177.8800  144.3180 C   0  0  0  0  0  1  0  0  0  0  0  0
  189.6490  176.8890  146.2750 C   0  0  0  0  0  3  0  0  0  0  0  0
  186.1650  176.6120  147.9520 O   0  0  0  0  0  0  0  0  0  0  0  0
  186.2360  179.0580  147.7750 O   0  0  0  0  0  0  0  0  0  0  0  0
  184.4320  177.7630  146.3420 N   0  0  0  0  0  1  0  0  0  0  0  0
  186.0230  177.7780  147.0160 S   0  0  0  0  0  0  0  0  0  0  0  0
  1  2  1  0  0  0  0
  1 22  1  0  0  0  0
  3  1  2  0  0  0  0
  4  5  1  0  0  0  0
  5  2  2  0  0  0  0
  6  4  2  0  0  0  0
  6  3  1  0  0  0  0
  7  9  1  6  0  0  0
  7  3  1  0  0  0  0
  8  9  1  0  0  0  0
 10 16  1  0  0  0  0
 10  7  1  0  0  0  0
 11 16  1  0  0  0  0
 11 13  1  0  0  0  0
 12 14  1  0  0  0  0
 12 11  1  0  0  0  0
 12 13  1  0  0  0  0
 14 17  1  0  0  0  0
 15 13  1  0  0  0  0
 17 16  1  0  0  0  0
 18 14  1  0  0  0  0
 19 21  1  0  0  0  0
 20 21  2  0  0  0  0
 21 18  1  0  0  0  0
 22 23  1  0  0  0  0
 23 24  1  0  0  0  0
 24 25  1  0  0  0  0
 26 27  2  0  0  0  0
 26 33  1  0  0  0  0
 27 29  2  0  0  0  0
 28 26  1  0  0  0  0
 29 24  1  0  0  0  0
 32 33  1  0  0  0  0
 33 31  2  0  0  0  0
 33 30  2  0  0  0  0
M  END
>  <MODEL>
5

>  <REMARK>
 VINA RESULT:      -6.0      2.859      6.894
  Name = 
  11 active torsions:
  status: ('A' for Active; 'I' for Inactive)
    1  A    between atoms: C_1  and  O_13
    2  A    between atoms: C_1  and  C_15
    3  A    between atoms: C_1  and  C_20
    4  A    between atoms: C_6  and  S_31
    5  A    between atoms: C_12  and  C_19
    6  A    between atoms: O_13  and  C_24
    7  A    between atoms: C_16  and  O_23
    8  A    between atoms: O_18  and  C_19
    9  A    between atoms: O_18  and  C_21
   10  A    between atoms: C_21  and  C_25
   11  A    between atoms: O_23  and  C_27
                            x       y       z     vdW  Elec       q    Type
                         _______ _______ _______ _____ _____    ______ ____

>  <TORSDO>
F 11

$$$$
=
 OpenBabel11062418543D

 33 35  0  0  1  0  0  0  0  0999 V2000
  189.7010  174.1820  144.9780 C   0  0  0  0  0  0  0  0  0  0  0  0
  189.7230  172.7860  144.9700 C   0  0  0  0  0  3  0  0  0  0  0  0
  189.3620  174.8800  143.7970 C   0  0  0  0  0  0  0  0  0  0  0  0
  189.0980  172.7860  142.6670 N   0  0  0  0  0  0  0  0  0  0  0  0
  189.4180  172.0990  143.7950 C   0  0  0  0  0  3  0  0  0  0  0  0
  189.0620  174.1450  142.6460 C   0  0  0  0  0  3  0  0  0  0  0  0
  189.2860  176.3780  143.7110 C   0  0  1  0  0  3  0  0  0  0  0  0
  190.9680  178.2150  143.8700 C   0  0  0  0  0  1  0  0  0  0  0  0
  190.5720  176.9500  143.1330 C   0  0  0  0  0  2  0  0  0  0  0  0
  188.1790  176.7830  142.9560 O   0  0  0  0  0  0  0  0  0  0  0  0
  186.4180  176.8030  144.4930 N   0  0  2  0  0  0  0  0  0  0  0  0
  185.1910  177.6230  144.5330 C   0  0  1  0  0  3  0  0  0  0  0  0
  186.0460  177.5310  145.7160 C   0  0  1  0  0  3  0  0  0  0  0  0
  185.4580  178.9120  143.7790 C   0  0  1  0  0  3  0  0  0  0  0  0
  185.4840  176.6400  146.6270 O   0  0  0  0  0  1  0  0  0  0  0  0
  187.4320  177.5990  143.8090 C   0  0  2  0  0  3  0  0  0  0  0  0
  186.7280  178.6660  143.0050 C   0  0  0  0  0  2  0  0  0  0  0  0
  184.3840  179.1770  142.8850 O   0  0  0  0  0  0  0  0  0  0  0  0
  184.9290  177.8940  141.0420 O   0  0  0  0  0  0  0  0  0  0  0  0
  182.7300  177.9150  141.6800 O   0  0  0  0  0  1  0  0  0  0  0  0
  184.0500  178.3130  141.8420 C   0  0  0  0  0  0  0  0  0  0  0  0
  190.0200  174.8880  146.2550 C   0  0  0  0  0  2  0  0  0  0  0  0
  191.3300  174.5960  146.6460 O   0  0  0  0  0  0  0  0  0  0  0  0
  191.7980  175.7710  147.2360 C   0  0  2  0  0  3  0  0  0  0  0  0
  190.6690  176.7940  147.2940 C   0  0  0  0  0  1  0  0  0  0  0  0
  194.5950  174.7130  145.1050 C   0  0  0  0  0  0  0  0  0  0  0  0
  193.8080  175.4830  145.8020 C   0  0  0  0  0  0  0  0  0  0  0  0
  196.0690  174.8780  145.2120 C   0  0  0  0  0  1  0  0  0  0  0  0
  193.0200  176.2560  146.5030 C   0  0  0  0  0  3  0  0  0  0  0  0
  195.0210  172.7370  143.3670 O   0  0  0  0  0  0  0  0  0  0  0  0
  193.2500  172.4140  145.0340 O   0  0  0  0  0  0  0  0  0  0  0  0
  192.7710  174.0550  143.0190 N   0  0  0  0  0  1  0  0  0  0  0  0
  193.9220  173.4140  144.1370 S   0  0  0  0  0  0  0  0  0  0  0  0
  1 22  1  0  0  0  0
  2  1  1  0  0  0  0
  3  1  2  0  0  0  0
  4  5  1  0  0  0  0
  5  2  2  0  0  0  0
  6  4  2  0  0  0  0
  6  3  1  0  0  0  0
  7  9  1  6  0  0  0
  7  3  1  0  0  0  0
  9  8  1  0  0  0  0
 10  7  1  0  0  0  0
 10 16  1  0  0  0  0
 11 12  1  0  0  0  0
 11 13  1  0  0  0  0
 12 13  1  0  0  0  0
 13 15  1  0  0  0  0
 14 12  1  0  0  0  0
 16 11  1  0  0  0  0
 17 14  1  0  0  0  0
 17 16  1  0  0  0  0
 18 14  1  0  0  0  0
 19 21  2  0  0  0  0
 20 21  1  0  0  0  0
 21 18  1  0  0  0  0
 22 23  1  0  0  0  0
 23 24  1  0  0  0  0
 24 25  1  0  0  0  0
 26 28  1  0  0  0  0
 26 27  2  0  0  0  0
 27 29  2  0  0  0  0
 29 24  1  0  0  0  0
 30 33  2  0  0  0  0
 32 33  1  0  0  0  0
 33 31  2  0  0  0  0
 33 26  1  0  0  0  0
M  END
>  <MODEL>
6

>  <REMARK>
 VINA RESULT:      -5.8      1.501      2.648
  Name = 
  11 active torsions:
  status: ('A' for Active; 'I' for Inactive)
    1  A    between atoms: C_1  and  O_13
    2  A    between atoms: C_1  and  C_15
    3  A    between atoms: C_1  and  C_20
    4  A    between atoms: C_6  and  S_31
    5  A    between atoms: C_12  and  C_19
    6  A    between atoms: O_13  and  C_24
    7  A    between atoms: C_16  and  O_23
    8  A    between atoms: O_18  and  C_19
    9  A    between atoms: O_18  and  C_21
   10  A    between atoms: C_21  and  C_25
   11  A    between atoms: O_23  and  C_27
                            x       y       z     vdW  Elec       q    Type
                         _______ _______ _______ _____ _____    ______ ____

>  <TORSDO>
F 11

$$$$
=
 OpenBabel11062418543D

 33 35  0  0  1  0  0  0  0  0999 V2000
  189.3490  174.2930  142.9670 C   0  0  0  0  0  0  0  0  0  0  0  0
  189.1110  173.0880  142.3040 C   0  0  0  0  0  3  0  0  0  0  0  0
  188.9930  175.5120  142.3470 C   0  0  0  0  0  0  0  0  0  0  0  0
  188.2010  174.2830  140.4500 N   0  0  0  0  0  0  0  0  0  0  0  0
  188.5340  173.1030  141.0340 C   0  0  0  0  0  3  0  0  0  0  0  0
  188.4150  175.4720  141.0740 C   0  0  0  0  0  3  0  0  0  0  0  0
  189.1850  176.8570  142.9880 C   0  0  1  0  0  3  0  0  0  0  0  0
  191.0700  178.1560  143.9800 C   0  0  0  0  0  1  0  0  0  0  0  0
  190.6070  177.3550  142.7780 C   0  0  0  0  0  2  0  0  0  0  0  0
  188.2570  177.7840  142.5000 O   0  0  0  0  0  0  0  0  0  0  0  0
  186.0390  178.4620  142.7850 N   0  0  2  0  0  0  0  0  0  0  0  0
  185.2900  178.8000  144.0120 C   0  0  1  0  0  3  0  0  0  0  0  0
  184.7350  177.8390  143.0610 C   0  0  1  0  0  3  0  0  0  0  0  0
  185.9440  178.0820  145.1780 C   0  0  1  0  0  3  0  0  0  0  0  0
  183.7560  178.4610  142.2890 O   0  0  0  0  0  1  0  0  0  0  0  0
  187.0660  177.5000  143.1720 C   0  0  2  0  0  3  0  0  0  0  0  0
  187.2820  177.6180  144.6610 C   0  0  0  0  0  2  0  0  0  0  0  0
  186.1240  178.9880  146.2600 O   0  0  0  0  0  0  0  0  0  0  0  0
  185.9410  177.4340  147.9600 O   0  0  0  0  0  0  0  0  0  0  0  0
  187.0520  179.3770  148.4430 O   0  0  0  0  0  1  0  0  0  0  0  0
  186.3570  178.5560  147.5660 C   0  0  0  0  0  0  0  0  0  0  0  0
  189.9570  174.2420  144.3310 C   0  0  0  0  0  2  0  0  0  0  0  0
  190.6170  173.0240  144.5120 O   0  0  0  0  0  0  0  0  0  0  0  0
  191.9500  173.3680  144.7400 C   0  0  2  0  0  3  0  0  0  0  0  0
  192.0120  174.5450  145.7070 C   0  0  0  0  0  1  0  0  0  0  0  0
  194.2430  175.6390  142.9870 C   0  0  0  0  0  0  0  0  0  0  0  0
  193.4430  174.6330  143.2070 C   0  0  0  0  0  0  0  0  0  0  0  0
  194.1420  176.3920  141.7090 C   0  0  0  0  0  1  0  0  0  0  0  0
  192.6400  173.6250  143.4270 C   0  0  0  0  0  3  0  0  0  0  0  0
  195.8930  174.9790  144.9740 O   0  0  0  0  0  0  0  0  0  0  0  0
  196.4850  176.9350  143.6160 O   0  0  0  0  0  0  0  0  0  0  0  0
  194.5170  177.1870  145.3610 N   0  0  0  0  0  1  0  0  0  0  0  0
  195.3500  176.1720  144.2390 S   0  0  0  0  0  0  0  0  0  0  0  0
  1 22  1  0  0  0  0
  2  1  2  0  0  0  0
  3  1  1  0  0  0  0
  3  7  1  0  0  0  0
  4  5  2  0  0  0  0
  4  6  1  0  0  0  0
  5  2  1  0  0  0  0
  6  3  2  0  0  0  0
  7  9  1  6  0  0  0
  9  8  1  0  0  0  0
 10  7  1  0  0  0  0
 10 16  1  0  0  0  0
 11 13  1  0  0  0  0
 11 16  1  0  0  0  0
 11 12  1  0  0  0  0
 12 14  1  0  0  0  0
 13 12  1  0  0  0  0
 14 18  1  0  0  0  0
 15 13  1  0  0  0  0
 16 17  1  0  0  0  0
 17 14  1  0  0  0  0
 18 21  1  0  0  0  0
 21 19  2  0  0  0  0
 21 20  1  0  0  0  0
 22 23  1  0  0  0  0
 23 24  1  0  0  0  0
 24 25  1  0  0  0  0
 26 27  2  0  0  0  0
 26 33  1  0  0  0  0
 27 29  2  0  0  0  0
 28 26  1  0  0  0  0
 29 24  1  0  0  0  0
 31 33  2  0  0  0  0
 33 30  2  0  0  0  0
 33 32  1  0  0  0  0
M  END
>  <MODEL>
7

>  <REMARK>
 VINA RESULT:      -5.8      1.937      2.253
  Name = 
  11 active torsions:
  status: ('A' for Active; 'I' for Inactive)
    1  A    between atoms: C_1  and  O_13
    2  A    between atoms: C_1  and  C_15
    3  A    between atoms: C_1  and  C_20
    4  A    between atoms: C_6  and  S_31
    5  A    between atoms: C_12  and  C_19
    6  A    between atoms: O_13  and  C_24
    7  A    between atoms: C_16  and  O_23
    8  A    between atoms: O_18  and  C_19
    9  A    between atoms: O_18  and  C_21
   10  A    between atoms: C_21  and  C_25
   11  A    between atoms: O_23  and  C_27
                            x       y       z     vdW  Elec       q    Type
                         _______ _______ _______ _____ _____    ______ ____

>  <TORSDO>
F 11

$$$$
=
 OpenBabel11062418543D

 33 35  0  0  1  0  0  0  0  0999 V2000
  188.7180  173.3420  140.5050 C   0  0  0  0  0  0  0  0  0  0  0  0
  188.4420  173.0190  139.1750 C   0  0  0  0  0  3  0  0  0  0  0  0
  189.8080  172.7260  141.1600 C   0  0  0  0  0  0  0  0  0  0  0  0
  190.2820  171.4990  139.1590 N   0  0  0  0  0  0  0  0  0  0  0  0
  189.2400  172.0850  138.5130 C   0  0  0  0  0  3  0  0  0  0  0  0
  190.5790  171.7990  140.4510 C   0  0  0  0  0  3  0  0  0  0  0  0
  190.2010  173.0250  142.5790 C   0  0  1  0  0  3  0  0  0  0  0  0
  189.8590  172.3700  144.9620 C   0  0  0  0  0  1  0  0  0  0  0  0
  189.6980  171.9380  143.5170 C   0  0  0  0  0  2  0  0  0  0  0  0
  191.5870  173.1790  142.6950 O   0  0  0  0  0  0  0  0  0  0  0  0
  193.1820  174.8720  142.9250 N   0  0  2  0  0  0  0  0  0  0  0  0
  193.1100  176.1670  143.6300 C   0  0  1  0  0  3  0  0  0  0  0  0
  193.5560  176.1180  142.2380 C   0  0  1  0  0  3  0  0  0  0  0  0
  191.6520  176.5820  143.7100 C   0  0  1  0  0  3  0  0  0  0  0  0
  194.9450  176.2180  142.1930 O   0  0  0  0  0  1  0  0  0  0  0  0
  191.8210  174.5440  142.5110 C   0  0  2  0  0  3  0  0  0  0  0  0
  190.8660  175.3440  143.3610 C   0  0  0  0  0  2  0  0  0  0  0  0
  191.3450  177.0020  145.0330 O   0  0  0  0  0  0  0  0  0  0  0  0
  189.6260  176.3920  146.4540 O   0  0  0  0  0  1  0  0  0  0  0  0
  189.1630  178.0040  144.8950 O   0  0  0  0  0  0  0  0  0  0  0  0
  190.0330  177.1060  145.4990 C   0  0  0  0  0  0  0  0  0  0  0  0
  187.8520  174.3540  141.1820 C   0  0  0  0  0  2  0  0  0  0  0  0
  188.2840  175.6420  140.8570 O   0  0  0  0  0  0  0  0  0  0  0  0
  187.3430  176.4930  141.4380 C   0  0  2  0  0  3  0  0  0  0  0  0
  187.9770  177.8560  141.6890 C   0  0  0  0  0  1  0  0  0  0  0  0
  185.7180  177.1820  144.6590 C   0  0  0  0  0  0  0  0  0  0  0  0
  186.2450  176.5180  143.6680 C   0  0  0  0  0  0  0  0  0  0  0  0
  186.0350  176.7890  146.0580 C   0  0  0  0  0  1  0  0  0  0  0  0
  186.7730  175.8510  142.6750 C   0  0  0  0  0  3  0  0  0  0  0  0
  185.6290  179.7750  144.0500 O   0  0  0  0  0  0  0  0  0  0  0  0
  183.8440  178.3450  143.1640 O   0  0  0  0  0  0  0  0  0  0  0  0
  183.7740  178.9660  145.7310 N   0  0  0  0  0  1  0  0  0  0  0  0
  184.7380  178.6020  144.3440 S   0  0  0  0  0  0  0  0  0  0  0  0
  1  3  1  0  0  0  0
  1 22  1  0  0  0  0
  2  1  2  0  0  0  0
  3  7  1  0  0  0  0
  4  6  1  0  0  0  0
  5  4  2  0  0  0  0
  5  2  1  0  0  0  0
  6  3  2  0  0  0  0
  7 10  1  0  0  0  0
  7  9  1  1  0  0  0
  9  8  1  0  0  0  0
 11 12  1  0  0  0  0
 12 14  1  0  0  0  0
 13 11  1  0  0  0  0
 13 12  1  0  0  0  0
 14 18  1  0  0  0  0
 15 13  1  0  0  0  0
 16 10  1  0  0  0  0
 16 11  1  0  0  0  0
 16 17  1  0  0  0  0
 17 14  1  0  0  0  0
 18 21  1  0  0  0  0
 20 21  2  0  0  0  0
 21 19  1  0  0  0  0
 23 22  1  0  0  0  0
 23 24  1  0  0  0  0
 24 25  1  0  0  0  0
 24 29  1  0  0  0  0
 26 28  1  0  0  0  0
 27 26  2  0  0  0  0
 29 27  2  0  0  0  0
 30 33  2  0  0  0  0
 31 33  2  0  0  0  0
 33 26  1  0  0  0  0
 33 32  1  0  0  0  0
M  END
>  <MODEL>
8

>  <REMARK>
 VINA RESULT:      -5.8      2.941      6.912
  Name = 
  11 active torsions:
  status: ('A' for Active; 'I' for Inactive)
    1  A    between atoms: C_1  and  O_13
    2  A    between atoms: C_1  and  C_15
    3  A    between atoms: C_1  and  C_20
    4  A    between atoms: C_6  and  S_31
    5  A    between atoms: C_12  and  C_19
    6  A    between atoms: O_13  and  C_24
    7  A    between atoms: C_16  and  O_23
    8  A    between atoms: O_18  and  C_19
    9  A    between atoms: O_18  and  C_21
   10  A    between atoms: C_21  and  C_25
   11  A    between atoms: O_23  and  C_27
                            x       y       z     vdW  Elec       q    Type
                         _______ _______ _______ _____ _____    ______ ____

>  <TORSDO>
F 11

$$$$
=
 OpenBabel11062418543D

 33 35  0  0  1  0  0  0  0  0999 V2000
  192.9180  175.1770  145.8150 C   0  0  0  0  0  0  0  0  0  0  0  0
  194.0570  175.6860  146.4440 C   0  0  0  0  0  3  0  0  0  0  0  0
  192.9790  174.8150  144.4500 C   0  0  0  0  0  0  0  0  0  0  0  0
  195.2770  175.4880  144.4020 N   0  0  0  0  0  0  0  0  0  0  0  0
  195.2370  175.8370  145.7140 C   0  0  0  0  0  3  0  0  0  0  0  0
  194.1860  174.9840  143.7650 C   0  0  0  0  0  3  0  0  0  0  0  0
  191.8180  174.2360  143.6930 C   0  0  1  0  0  3  0  0  0  0  0  0
  192.1540  171.7970  144.0930 C   0  0  0  0  0  1  0  0  0  0  0  0
  191.2800  172.9990  144.3960 C   0  0  0  0  0  2  0  0  0  0  0  0
  190.8060  175.1880  143.5210 O   0  0  0  0  0  0  0  0  0  0  0  0
  189.9060  174.4590  141.4920 N   0  0  2  0  0  0  0  0  0  0  0  0
  188.5650  174.6640  140.9090 C   0  0  1  0  0  3  0  0  0  0  0  0
  189.1240  173.3160  140.9930 C   0  0  1  0  0  3  0  0  0  0  0  0
  187.5880  174.9100  142.0450 C   0  0  1  0  0  3  0  0  0  0  0  0
  189.6110  172.9370  139.7440 O   0  0  0  0  0  1  0  0  0  0  0  0
  189.7430  174.4930  142.9410 C   0  0  2  0  0  3  0  0  0  0  0  0
  188.4440  175.1970  143.2520 C   0  0  0  0  0  2  0  0  0  0  0  0
  186.7740  176.0370  141.7420 O   0  0  0  0  0  0  0  0  0  0  0  0
  186.6960  177.1940  139.7430 O   0  0  0  0  0  0  0  0  0  0  0  0
  188.1920  177.9310  141.3120 O   0  0  0  0  0  1  0  0  0  0  0  0
  187.1990  177.0580  140.8900 C   0  0  0  0  0  0  0  0  0  0  0  0
  191.6750  175.0160  146.6270 C   0  0  0  0  0  2  0  0  0  0  0  0
  191.3570  176.2220  147.2550 O   0  0  0  0  0  0  0  0  0  0  0  0
  189.9630  176.2780  147.2400 C   0  0  2  0  0  3  0  0  0  0  0  0
  189.4020  174.8760  147.0290 C   0  0  0  0  0  1  0  0  0  0  0  0
  187.0070  177.9270  145.8150 C   0  0  0  0  0  0  0  0  0  0  0  0
  188.2540  177.6020  146.0130 C   0  0  0  0  0  0  0  0  0  0  0  0
  186.4950  178.0650  144.4260 C   0  0  0  0  0  1  0  0  0  0  0  0
  189.5050  177.2760  146.2100 C   0  0  0  0  0  3  0  0  0  0  0  0
  185.9670  176.8410  148.0150 O   0  0  0  0  0  0  0  0  0  0  0  0
  186.3160  179.2690  148.0110 O   0  0  0  0  0  0  0  0  0  0  0  0
  184.2970  178.3050  146.6050 N   0  0  0  0  0  1  0  0  0  0  0  0
  185.9130  178.0860  147.1770 S   0  0  0  0  0  0  0  0  0  0  0  0
  1  2  1  0  0  0  0
  1 22  1  0  0  0  0
  3  1  2  0  0  0  0
  4  5  1  0  0  0  0
  5  2  2  0  0  0  0
  6  4  2  0  0  0  0
  6  3  1  0  0  0  0
  7  9  1  1  0  0  0
  7  3  1  0  0  0  0
  8  9  1  0  0  0  0
 10  7  1  0  0  0  0
 11 16  1  0  0  0  0
 12 13  1  0  0  0  0
 12 11  1  0  0  0  0
 12 14  1  0  0  0  0
 13 11  1  0  0  0  0
 14 17  1  0  0  0  0
 15 13  1  0  0  0  0
 16 17  1  0  0  0  0
 16 10  1  0  0  0  0
 18 14  1  0  0  0  0
 19 21  2  0  0  0  0
 21 20  1  0  0  0  0
 21 18  1  0  0  0  0
 22 23  1  0  0  0  0
 24 23  1  0  0  0  0
 25 24  1  0  0  0  0
 26 27  2  0  0  0  0
 26 33  1  0  0  0  0
 27 29  2  0  0  0  0
 28 26  1  0  0  0  0
 29 24  1  0  0  0  0
 32 33  1  0  0  0  0
 33 31  2  0  0  0  0
 33 30  2  0  0  0  0
M  END
>  <MODEL>
9

>  <REMARK>
 VINA RESULT:      -5.8      2.699      6.247
  Name = 
  11 active torsions:
  status: ('A' for Active; 'I' for Inactive)
    1  A    between atoms: C_1  and  O_13
    2  A    between atoms: C_1  and  C_15
    3  A    between atoms: C_1  and  C_20
    4  A    between atoms: C_6  and  S_31
    5  A    between atoms: C_12  and  C_19
    6  A    between atoms: O_13  and  C_24
    7  A    between atoms: C_16  and  O_23
    8  A    between atoms: O_18  and  C_19
    9  A    between atoms: O_18  and  C_21
   10  A    between atoms: C_21  and  C_25
   11  A    between atoms: O_23  and  C_27
                            x       y       z     vdW  Elec       q    Type
                         _______ _______ _______ _____ _____    ______ ____

>  <TORSDO>
F 11

$$$$
