=
 OpenBabel11072409413D

 25 26  0  0  1  0  0  0  0  0999 V2000
  187.8710  175.8410  143.3120 C   0  0  0  0  0  0  0  0  0  0  0  0
  189.2780  176.6700  145.2250 C   0  0  2  0  0  3  0  0  0  0  0  0
  189.2820  175.9260  143.8590 C   0  0  2  0  0  3  0  0  0  0  0  0
  187.1240  177.2960  145.1570 C   0  0  1  0  0  3  0  0  0  0  0  0
  186.8700  176.5280  143.8810 C   0  0  0  0  0  3  0  0  0  0  0  0
  187.5990  175.0490  142.0790 C   0  0  0  0  0  1  0  0  0  0  0  0
  188.4380  177.8000  145.2000 O   0  0  0  0  0  0  0  0  0  0  0  0
  184.7170  176.7000  146.5670 O   0  0  0  0  0  1  0  0  0  0  0  0
  186.0970  178.4100  145.3610 C   0  0  1  0  0  0  0  0  0  0  0  0
  184.8350  178.0090  146.0980 C   0  0  0  0  0  0  0  0  0  0  0  0
  183.6520  178.7030  145.8350 O   0  0  0  0  0  1  0  0  0  0  0  0
  185.8870  178.8300  146.8140 C   0  0  0  0  0  2  0  0  0  0  0  0
  185.9300  179.5310  144.3320 C   0  0  0  0  0  2  0  0  0  0  0  0
  185.7620  178.9940  142.9190 C   0  0  0  0  0  2  0  0  0  0  0  0
  184.4100  178.7730  142.6500 O   0  0  0  0  0  0  0  0  0  0  0  0
  183.2030  178.2980  140.6550 C   0  0  0  0  0  1  0  0  0  0  0  0
  185.6690  178.1640  140.7270 C   0  0  0  0  0  1  0  0  0  0  0  0
  184.3970  177.9510  141.5220 C   0  0  0  0  0  3  0  0  0  0  0  0
  190.0870  177.8420  142.8420 O   0  0  0  0  0  1  0  0  0  0  0  0
  191.4510  176.1640  143.1570 O   0  0  0  0  0  1  0  0  0  0  0  0
  190.1770  176.4890  142.8370 N   0  0  0  0  0  0  0  0  0  0  0  0
  190.6410  176.9340  145.8730 C   0  0  0  0  0  2  0  0  0  0  0  0
  190.6320  176.7970  147.3910 C   0  0  0  0  0  2  0  0  0  0  0  0
  191.3380  175.5230  147.8080 C   0  0  0  0  0  2  0  0  0  0  0  0
  192.3250  175.1180  146.7340 C   0  0  0  0  0  1  0  0  0  0  0  0
  1  3  1  0  0  0  0
  1  5  2  0  0  0  0
  2 22  1  6  0  0  0
  3 21  1  6  0  0  0
  3  2  1  0  0  0  0
  4  5  1  6  0  0  0
  4  7  1  0  0  0  0
  4  9  1  0  0  0  0
  6  1  1  0  0  0  0
  7  2  1  0  0  0  0
  9 13  1  6  0  0  0
  9 10  1  0  0  0  0
  9 12  1  0  0  0  0
 10  8  1  0  0  0  0
 10 12  1  0  0  0  0
 11 10  1  0  0  0  0
 14 13  1  0  0  0  0
 15 14  1  0  0  0  0
 16 18  1  0  0  0  0
 17 18  1  0  0  0  0
 18 15  1  0  0  0  0
 21 19  1  0  0  0  0
 21 20  1  0  0  0  0
 22 23  1  0  0  0  0
 23 24  1  0  0  0  0
 25 24  1  0  0  0  0
M  END
>  <MODEL>
1

>  <REMARK>
 VINA RESULT:      -6.5      0.000      0.000
  Name = 
  9 active torsions:
  status: ('A' for Active; 'I' for Inactive)
    1  A    between atoms: C_2  and  C_14
    2  A    between atoms: C_2  and  C_25
    3  A    between atoms: O_4  and  C_20
    4  A    between atoms: O_4  and  C_23
    5  A    between atoms: C_5  and  C_10
    6  A    between atoms: C_5  and  C_23
    7  A    between atoms: C_6  and  C_25
    8  A    between atoms: C_10  and  C_13
    9  A    between atoms: C_11  and  N_19
                            x       y       z     vdW  Elec       q    Type
                         _______ _______ _______ _____ _____    ______ ____

>  <TORSDO>
F 9

$$$$
=
 OpenBabel11072409413D

 25 26  0  0  1  0  0  0  0  0999 V2000
  186.3940  177.0950  146.1200 C   0  0  0  0  0  0  0  0  0  0  0  0
  185.6670  177.3630  143.7270 C   0  0  2  0  0  3  0  0  0  0  0  0
  185.2360  177.4710  145.2180 C   0  0  2  0  0  3  0  0  0  0  0  0
  187.8430  176.9870  144.1270 C   0  0  1  0  0  3  0  0  0  0  0  0
  187.6270  176.9250  145.6210 C   0  0  0  0  0  3  0  0  0  0  0  0
  186.1850  176.9870  147.5920 C   0  0  0  0  0  1  0  0  0  0  0  0
  186.9550  177.8920  143.5170 O   0  0  0  0  0  0  0  0  0  0  0  0
  189.1310  175.4810  142.0750 O   0  0  0  0  0  1  0  0  0  0  0  0
  189.2940  177.3150  143.7780 C   0  0  1  0  0  0  0  0  0  0  0  0
  189.9160  176.4550  142.6940 C   0  0  0  0  0  0  0  0  0  0  0  0
  191.2970  176.2510  142.7060 O   0  0  0  0  0  1  0  0  0  0  0  0
  189.5030  177.8770  142.3730 C   0  0  0  0  0  2  0  0  0  0  0  0
  190.2660  177.8410  144.8370 C   0  0  0  0  0  2  0  0  0  0  0  0
  190.8920  176.7180  145.6500 C   0  0  0  0  0  2  0  0  0  0  0  0
  190.7120  176.9590  147.0140 O   0  0  0  0  0  0  0  0  0  0  0  0
  189.7130  174.8400  147.4290 C   0  0  0  0  0  1  0  0  0  0  0  0
  192.1380  175.0560  147.0130 C   0  0  0  0  0  1  0  0  0  0  0  0
  190.9260  175.7250  147.6290 C   0  0  0  0  0  3  0  0  0  0  0  0
  185.5180  179.7670  145.2020 O   0  0  0  0  0  1  0  0  0  0  0  0
  183.4980  178.9530  145.0150 O   0  0  0  0  0  1  0  0  0  0  0  0
  184.6950  178.7770  145.6230 N   0  0  0  0  0  0  0  0  0  0  0  0
  184.6430  177.8060  142.6760 C   0  0  0  0  0  2  0  0  0  0  0  0
  185.2430  178.6420  141.5530 C   0  0  0  0  0  2  0  0  0  0  0  0
  185.2500  177.8540  140.2580 C   0  0  0  0  0  2  0  0  0  0  0  0
  186.6590  177.3910  139.9550 C   0  0  0  0  0  1  0  0  0  0  0  0
  1  6  1  0  0  0  0
  2 22  1  6  0  0  0
  2  3  1  0  0  0  0
  3 21  1  1  0  0  0
  3  1  1  0  0  0  0
  4  5  1  1  0  0  0
  5  1  2  0  0  0  0
  7  2  1  0  0  0  0
  7  4  1  0  0  0  0
  8 10  1  0  0  0  0
  9  4  1  0  0  0  0
  9 13  1  1  0  0  0
 10 11  1  0  0  0  0
 10  9  1  0  0  0  0
 12 10  1  0  0  0  0
 12  9  1  0  0  0  0
 13 14  1  0  0  0  0
 14 15  1  0  0  0  0
 15 18  1  0  0  0  0
 16 18  1  0  0  0  0
 17 18  1  0  0  0  0
 19 21  1  0  0  0  0
 20 21  1  0  0  0  0
 23 22  1  0  0  0  0
 24 23  1  0  0  0  0
 25 24  1  0  0  0  0
M  END
>  <MODEL>
2

>  <REMARK>
 VINA RESULT:      -6.2      2.064      6.754
  Name = 
  9 active torsions:
  status: ('A' for Active; 'I' for Inactive)
    1  A    between atoms: C_2  and  C_14
    2  A    between atoms: C_2  and  C_25
    3  A    between atoms: O_4  and  C_20
    4  A    between atoms: O_4  and  C_23
    5  A    between atoms: C_5  and  C_10
    6  A    between atoms: C_5  and  C_23
    7  A    between atoms: C_6  and  C_25
    8  A    between atoms: C_10  and  C_13
    9  A    between atoms: C_11  and  N_19
                            x       y       z     vdW  Elec       q    Type
                         _______ _______ _______ _____ _____    ______ ____

>  <TORSDO>
F 9

$$$$
=
 OpenBabel11072409413D

 25 26  0  0  1  0  0  0  0  0999 V2000
  186.0440  177.6600  146.6080 C   0  0  0  0  0  0  0  0  0  0  0  0
  186.2340  176.7130  144.2860 C   0  0  2  0  0  3  0  0  0  0  0  0
  185.4550  177.6920  145.2120 C   0  0  2  0  0  3  0  0  0  0  0  0
  187.8560  176.2220  145.7550 C   0  0  1  0  0  3  0  0  0  0  0  0
  187.1980  177.0230  146.8540 C   0  0  0  0  0  3  0  0  0  0  0  0
  185.3800  178.4100  147.7120 C   0  0  0  0  0  1  0  0  0  0  0  0
  187.6240  176.7960  144.4910 O   0  0  0  0  0  0  0  0  0  0  0  0
  188.6780  174.4220  147.8100 O   0  0  0  0  0  1  0  0  0  0  0  0
  189.3520  176.0330  146.0110 C   0  0  1  0  0  0  0  0  0  0  0  0
  189.7080  175.0790  147.1340 C   0  0  0  0  0  0  0  0  0  0  0  0
  190.9070  175.2680  147.8230 O   0  0  0  0  0  1  0  0  0  0  0  0
  189.8840  174.6370  145.6960 C   0  0  0  0  0  2  0  0  0  0  0  0
  190.3460  177.1730  145.7770 C   0  0  0  0  0  2  0  0  0  0  0  0
  191.0840  177.0300  144.4550 C   0  0  0  0  0  2  0  0  0  0  0  0
  192.4180  177.4110  144.6100 O   0  0  0  0  0  0  0  0  0  0  0  0
  193.6420  175.4350  144.1000 C   0  0  0  0  0  1  0  0  0  0  0  0
  194.1480  176.7760  146.1130 C   0  0  0  0  0  1  0  0  0  0  0  0
  193.0440  176.3050  145.1870 C   0  0  0  0  0  3  0  0  0  0  0  0
  186.3760  179.3210  143.8510 O   0  0  0  0  0  1  0  0  0  0  0  0
  184.2040  179.2470  144.0850 O   0  0  0  0  0  1  0  0  0  0  0  0
  185.3780  179.0810  144.7370 N   0  0  0  0  0  0  0  0  0  0  0  0
  185.8320  176.6940  142.8070 C   0  0  0  0  0  2  0  0  0  0  0  0
  187.0070  176.4930  141.8580 C   0  0  0  0  0  2  0  0  0  0  0  0
  186.9050  177.4500  140.6860 C   0  0  0  0  0  2  0  0  0  0  0  0
  185.5230  178.0680  140.6580 C   0  0  0  0  0  1  0  0  0  0  0  0
  1  5  2  0  0  0  0
  1  6  1  0  0  0  0
  2 22  1  6  0  0  0
  2  7  1  0  0  0  0
  2  3  1  0  0  0  0
  3 21  1  6  0  0  0
  3  1  1  0  0  0  0
  4  9  1  0  0  0  0
  4  5  1  1  0  0  0
  7  4  1  0  0  0  0
  9 13  1  6  0  0  0
  9 10  1  0  0  0  0
 10  8  1  0  0  0  0
 10 11  1  0  0  0  0
 12  9  1  0  0  0  0
 12 10  1  0  0  0  0
 14 15  1  0  0  0  0
 14 13  1  0  0  0  0
 15 18  1  0  0  0  0
 16 18  1  0  0  0  0
 18 17  1  0  0  0  0
 19 21  1  0  0  0  0
 20 21  1  0  0  0  0
 23 22  1  0  0  0  0
 24 23  1  0  0  0  0
 25 24  1  0  0  0  0
M  END
>  <MODEL>
3

>  <REMARK>
 VINA RESULT:      -6.2      2.304      6.616
  Name = 
  9 active torsions:
  status: ('A' for Active; 'I' for Inactive)
    1  A    between atoms: C_2  and  C_14
    2  A    between atoms: C_2  and  C_25
    3  A    between atoms: O_4  and  C_20
    4  A    between atoms: O_4  and  C_23
    5  A    between atoms: C_5  and  C_10
    6  A    between atoms: C_5  and  C_23
    7  A    between atoms: C_6  and  C_25
    8  A    between atoms: C_10  and  C_13
    9  A    between atoms: C_11  and  N_19
                            x       y       z     vdW  Elec       q    Type
                         _______ _______ _______ _____ _____    ______ ____

>  <TORSDO>
F 9

$$$$
=
 OpenBabel11072409413D

 25 26  0  0  1  0  0  0  0  0999 V2000
  189.6250  176.8770  145.8370 C   0  0  0  0  0  0  0  0  0  0  0  0
  190.1620  174.8480  144.4510 C   0  0  2  0  0  3  0  0  0  0  0  0
  190.3140  175.5280  145.8430 C   0  0  2  0  0  3  0  0  0  0  0  0
  188.7410  176.3590  143.5940 C   0  0  1  0  0  3  0  0  0  0  0  0
  188.8400  177.2450  144.8140 C   0  0  0  0  0  3  0  0  0  0  0  0
  189.7510  177.7810  147.0160 C   0  0  0  0  0  1  0  0  0  0  0  0
  188.8600  174.9990  143.9370 O   0  0  0  0  0  0  0  0  0  0  0  0
  188.7150  178.4730  141.6800 O   0  0  0  0  0  1  0  0  0  0  0  0
  187.4570  176.6200  142.8080 C   0  0  1  0  0  0  0  0  0  0  0  0
  187.5150  177.7750  141.8270 C   0  0  0  0  0  0  0  0  0  0  0  0
  186.3360  178.4580  141.5200 O   0  0  0  0  0  1  0  0  0  0  0  0
  187.5590  176.3530  141.3080 C   0  0  0  0  0  2  0  0  0  0  0  0
  186.0810  176.3480  143.4220 C   0  0  0  0  0  2  0  0  0  0  0  0
  185.7540  177.3150  144.5490 C   0  0  0  0  0  2  0  0  0  0  0  0
  185.4750  176.6070  145.7190 O   0  0  0  0  0  0  0  0  0  0  0  0
  186.0220  178.2310  147.3700 C   0  0  0  0  0  1  0  0  0  0  0  0
  184.1600  178.5870  145.7860 C   0  0  0  0  0  1  0  0  0  0  0  0
  184.9190  177.5490  146.5870 C   0  0  0  0  0  3  0  0  0  0  0  0
  190.5610  175.0410  148.0910 O   0  0  0  0  0  1  0  0  0  0  0  0
  188.5510  175.0630  147.2330 O   0  0  0  0  0  1  0  0  0  0  0  0
  189.8400  174.7330  146.9860 N   0  0  0  0  0  0  0  0  0  0  0  0
  190.7170  173.4270  144.3110 C   0  0  0  0  0  2  0  0  0  0  0  0
  189.6380  172.3520  144.2640 C   0  0  0  0  0  2  0  0  0  0  0  0
  189.3760  171.9330  142.8310 C   0  0  0  0  0  2  0  0  0  0  0  0
  190.4760  171.0000  142.3690 C   0  0  0  0  0  1  0  0  0  0  0  0
  1  3  1  0  0  0  0
  1  6  1  0  0  0  0
  2 22  1  1  0  0  0
  2  3  1  0  0  0  0
  3 21  1  1  0  0  0
  4  7  1  0  0  0  0
  4  5  1  1  0  0  0
  5  1  2  0  0  0  0
  7  2  1  0  0  0  0
  8 10  1  0  0  0  0
  9 13  1  1  0  0  0
  9  4  1  0  0  0  0
 10  9  1  0  0  0  0
 11 10  1  0  0  0  0
 12 10  1  0  0  0  0
 12  9  1  0  0  0  0
 13 14  1  0  0  0  0
 14 15  1  0  0  0  0
 15 18  1  0  0  0  0
 17 18  1  0  0  0  0
 18 16  1  0  0  0  0
 21 20  1  0  0  0  0
 21 19  1  0  0  0  0
 23 22  1  0  0  0  0
 24 23  1  0  0  0  0
 25 24  1  0  0  0  0
M  END
>  <MODEL>
4

>  <REMARK>
 VINA RESULT:      -6.1      2.466      4.776
  Name = 
  9 active torsions:
  status: ('A' for Active; 'I' for Inactive)
    1  A    between atoms: C_2  and  C_14
    2  A    between atoms: C_2  and  C_25
    3  A    between atoms: O_4  and  C_20
    4  A    between atoms: O_4  and  C_23
    5  A    between atoms: C_5  and  C_10
    6  A    between atoms: C_5  and  C_23
    7  A    between atoms: C_6  and  C_25
    8  A    between atoms: C_10  and  C_13
    9  A    between atoms: C_11  and  N_19
                            x       y       z     vdW  Elec       q    Type
                         _______ _______ _______ _____ _____    ______ ____

>  <TORSDO>
F 9

$$$$
=
 OpenBabel11072409413D

 25 26  0  0  1  0  0  0  0  0999 V2000
  188.4080  177.3090  143.4860 C   0  0  0  0  0  0  0  0  0  0  0  0
  187.3460  176.8480  145.7200 C   0  0  2  0  0  3  0  0  0  0  0  0
  187.1090  177.3520  144.2670 C   0  0  2  0  0  3  0  0  0  0  0  0
  189.4610  176.1680  145.4020 C   0  0  1  0  0  3  0  0  0  0  0  0
  189.4940  176.7040  143.9900 C   0  0  0  0  0  3  0  0  0  0  0  0
  188.4660  177.8760  142.1090 C   0  0  0  0  0  1  0  0  0  0  0  0
  188.1760  175.7100  145.7480 O   0  0  0  0  0  0  0  0  0  0  0  0
  192.2190  176.8880  145.2970 O   0  0  0  0  0  1  0  0  0  0  0  0
  190.5120  175.0790  145.6180 C   0  0  1  0  0  0  0  0  0  0  0  0
  191.9550  175.5360  145.5230 C   0  0  0  0  0  0  0  0  0  0  0  0
  192.9260  174.6180  145.1210 O   0  0  0  0  0  1  0  0  0  0  0  0
  191.3530  175.2430  146.8820 C   0  0  0  0  0  2  0  0  0  0  0  0
  190.2520  173.6310  145.1960 C   0  0  0  0  0  2  0  0  0  0  0  0
  189.8970  173.5170  143.7220 C   0  0  0  0  0  2  0  0  0  0  0  0
  190.9560  172.9410  143.0190 O   0  0  0  0  0  0  0  0  0  0  0  0
  189.5480  174.0240  141.4360 C   0  0  0  0  0  1  0  0  0  0  0  0
  191.8600  174.7960  141.8370 C   0  0  0  0  0  1  0  0  0  0  0  0
  190.9560  173.5820  141.7780 C   0  0  0  0  0  3  0  0  0  0  0  0
  185.4360  177.5060  142.6760 O   0  0  0  0  0  1  0  0  0  0  0  0
  186.6400  175.6840  142.7660 O   0  0  0  0  0  1  0  0  0  0  0  0
  186.0580  176.6460  143.5190 N   0  0  0  0  0  0  0  0  0  0  0  0
  186.1120  176.7300  146.6210 C   0  0  0  0  0  2  0  0  0  0  0  0
  186.0190  177.8270  147.6740 C   0  0  0  0  0  2  0  0  0  0  0  0
  185.3210  179.0450  147.1030 C   0  0  0  0  0  2  0  0  0  0  0  0
  184.1800  178.6020  146.2110 C   0  0  0  0  0  1  0  0  0  0  0  0
  1  5  2  0  0  0  0
  1  3  1  0  0  0  0
  2  7  1  0  0  0  0
  2 22  1  6  0  0  0
  3 21  1  6  0  0  0
  3  2  1  0  0  0  0
  4  5  1  6  0  0  0
  4  9  1  0  0  0  0
  4  7  1  0  0  0  0
  6  1  1  0  0  0  0
  8 10  1  0  0  0  0
  9 13  1  6  0  0  0
  9 12  1  0  0  0  0
 10  9  1  0  0  0  0
 10 12  1  0  0  0  0
 11 10  1  0  0  0  0
 14 13  1  0  0  0  0
 15 14  1  0  0  0  0
 16 18  1  0  0  0  0
 18 17  1  0  0  0  0
 18 15  1  0  0  0  0
 19 21  1  0  0  0  0
 20 21  1  0  0  0  0
 22 23  1  0  0  0  0
 24 23  1  0  0  0  0
 25 24  1  0  0  0  0
M  END
>  <MODEL>
5

>  <REMARK>
 VINA RESULT:      -6.0      2.522      6.059
  Name = 
  9 active torsions:
  status: ('A' for Active; 'I' for Inactive)
    1  A    between atoms: C_2  and  C_14
    2  A    between atoms: C_2  and  C_25
    3  A    between atoms: O_4  and  C_20
    4  A    between atoms: O_4  and  C_23
    5  A    between atoms: C_5  and  C_10
    6  A    between atoms: C_5  and  C_23
    7  A    between atoms: C_6  and  C_25
    8  A    between atoms: C_10  and  C_13
    9  A    between atoms: C_11  and  N_19
                            x       y       z     vdW  Elec       q    Type
                         _______ _______ _______ _____ _____    ______ ____

>  <TORSDO>
F 9

$$$$
=
 OpenBabel11072409413D

 25 26  0  0  1  0  0  0  0  0999 V2000
  189.5490  177.0380  145.8280 C   0  0  0  0  0  0  0  0  0  0  0  0
  190.1840  175.0800  144.3810 C   0  0  2  0  0  3  0  0  0  0  0  0
  190.3120  175.7290  145.7900 C   0  0  2  0  0  3  0  0  0  0  0  0
  188.6730  176.5310  143.5790 C   0  0  1  0  0  3  0  0  0  0  0  0
  188.7350  177.3880  144.8220 C   0  0  0  0  0  3  0  0  0  0  0  0
  189.6380  177.9150  147.0300 C   0  0  0  0  0  1  0  0  0  0  0  0
  188.8700  175.1710  143.8830 O   0  0  0  0  0  0  0  0  0  0  0  0
  188.5330  178.6480  141.6720 O   0  0  0  0  0  1  0  0  0  0  0  0
  187.3670  176.7420  142.8110 C   0  0  1  0  0  0  0  0  0  0  0  0
  187.3650  177.9010  141.8340 C   0  0  0  0  0  0  0  0  0  0  0  0
  186.1550  178.5360  141.5460 O   0  0  0  0  0  1  0  0  0  0  0  0
  187.4590  176.4830  141.3090 C   0  0  0  0  0  2  0  0  0  0  0  0
  186.0130  176.4120  143.4440 C   0  0  0  0  0  2  0  0  0  0  0  0
  185.6190  177.4180  144.5140 C   0  0  0  0  0  2  0  0  0  0  0  0
  185.5670  176.7910  145.7610 O   0  0  0  0  0  0  0  0  0  0  0  0
  185.8480  178.2230  147.6400 C   0  0  0  0  0  1  0  0  0  0  0  0
  184.3720  178.8470  145.7600 C   0  0  0  0  0  1  0  0  0  0  0  0
  184.8950  177.6920  146.5890 C   0  0  0  0  0  3  0  0  0  0  0  0
  190.6280  175.1780  148.0150 O   0  0  0  0  0  1  0  0  0  0  0  0
  188.6000  175.1490  147.2000 O   0  0  0  0  0  1  0  0  0  0  0  0
  189.8950  174.8780  146.9150 N   0  0  0  0  0  0  0  0  0  0  0  0
  190.8150  173.6960  144.1970 C   0  0  0  0  0  2  0  0  0  0  0  0
  192.3220  173.7360  143.9750 C   0  0  0  0  0  2  0  0  0  0  0  0
  193.0520  173.3730  145.2530 C   0  0  0  0  0  2  0  0  0  0  0  0
  193.8080  174.5820  145.7630 C   0  0  0  0  0  1  0  0  0  0  0  0
  1  6  1  0  0  0  0
  2 22  1  1  0  0  0
  2  3  1  0  0  0  0
  3  1  1  0  0  0  0
  3 21  1  1  0  0  0
  4  7  1  0  0  0  0
  4  5  1  1  0  0  0
  5  1  2  0  0  0  0
  7  2  1  0  0  0  0
  8 10  1  0  0  0  0
  9 13  1  1  0  0  0
  9  4  1  0  0  0  0
 10  9  1  0  0  0  0
 11 10  1  0  0  0  0
 12 10  1  0  0  0  0
 12  9  1  0  0  0  0
 13 14  1  0  0  0  0
 14 15  1  0  0  0  0
 15 18  1  0  0  0  0
 17 18  1  0  0  0  0
 18 16  1  0  0  0  0
 21 20  1  0  0  0  0
 21 19  1  0  0  0  0
 23 22  1  0  0  0  0
 23 24  1  0  0  0  0
 24 25  1  0  0  0  0
M  END
>  <MODEL>
6

>  <REMARK>
 VINA RESULT:      -6.0      2.185      4.427
  Name = 
  9 active torsions:
  status: ('A' for Active; 'I' for Inactive)
    1  A    between atoms: C_2  and  C_14
    2  A    between atoms: C_2  and  C_25
    3  A    between atoms: O_4  and  C_20
    4  A    between atoms: O_4  and  C_23
    5  A    between atoms: C_5  and  C_10
    6  A    between atoms: C_5  and  C_23
    7  A    between atoms: C_6  and  C_25
    8  A    between atoms: C_10  and  C_13
    9  A    between atoms: C_11  and  N_19
                            x       y       z     vdW  Elec       q    Type
                         _______ _______ _______ _____ _____    ______ ____

>  <TORSDO>
F 9

$$$$
=
 OpenBabel11072409413D

 25 26  0  0  1  0  0  0  0  0999 V2000
  187.1120  177.8610  141.2450 C   0  0  0  0  0  0  0  0  0  0  0  0
  186.4360  178.9980  143.3850 C   0  0  2  0  0  3  0  0  0  0  0  0
  185.9960  178.6130  141.9420 C   0  0  2  0  0  3  0  0  0  0  0  0
  188.3550  177.8350  143.3740 C   0  0  1  0  0  3  0  0  0  0  0  0
  188.1900  177.4430  141.9250 C   0  0  0  0  0  3  0  0  0  0  0  0
  186.9810  177.5080  139.8030 C   0  0  0  0  0  1  0  0  0  0  0  0
  187.1100  177.9390  144.0230 O   0  0  0  0  0  0  0  0  0  0  0  0
  191.1590  178.3570  143.3480 O   0  0  0  0  0  1  0  0  0  0  0  0
  189.2870  176.8770  144.1170 C   0  0  1  0  0  0  0  0  0  0  0  0
  190.7640  177.2080  144.0360 C   0  0  0  0  0  0  0  0  0  0  0  0
  191.6930  176.1710  144.1360 O   0  0  0  0  0  1  0  0  0  0  0  0
  190.0070  177.4860  145.3180 C   0  0  0  0  0  2  0  0  0  0  0  0
  188.9530  175.3890  144.2470 C   0  0  0  0  0  2  0  0  0  0  0  0
  189.1520  174.6390  142.9390 C   0  0  0  0  0  2  0  0  0  0  0  0
  187.9140  174.2740  142.4060 O   0  0  0  0  0  0  0  0  0  0  0  0
  188.5400  173.5680  140.2220 C   0  0  0  0  0  1  0  0  0  0  0  0
  189.3310  172.3720  142.2330 C   0  0  0  0  0  1  0  0  0  0  0  0
  188.1750  173.1430  141.6300 C   0  0  0  0  0  3  0  0  0  0  0  0
  184.0690  177.9230  143.0210 O   0  0  0  0  0  1  0  0  0  0  0  0
  183.9690  178.4050  140.8920 O   0  0  0  0  0  1  0  0  0  0  0  0
  184.7450  177.8450  141.8490 N   0  0  0  0  0  0  0  0  0  0  0  0
  185.3860  179.6790  144.2700 C   0  0  0  0  0  2  0  0  0  0  0  0
  185.5660  179.3990  145.7560 C   0  0  0  0  0  2  0  0  0  0  0  0
  184.3950  178.5940  146.2840 C   0  0  0  0  0  2  0  0  0  0  0  0
  184.8300  177.1610  146.5120 C   0  0  0  0  0  1  0  0  0  0  0  0
  1  5  2  0  0  0  0
  1  3  1  0  0  0  0
  2  7  1  0  0  0  0
  2 22  1  1  0  0  0
  3 21  1  1  0  0  0
  3  2  1  0  0  0  0
  4  5  1  6  0  0  0
  4  7  1  0  0  0  0
  4  9  1  0  0  0  0
  6  1  1  0  0  0  0
  8 10  1  0  0  0  0
  9 13  1  1  0  0  0
  9 12  1  0  0  0  0
 10  9  1  0  0  0  0
 10 11  1  0  0  0  0
 10 12  1  0  0  0  0
 14 13  1  0  0  0  0
 15 14  1  0  0  0  0
 16 18  1  0  0  0  0
 18 17  1  0  0  0  0
 18 15  1  0  0  0  0
 20 21  1  0  0  0  0
 21 19  1  0  0  0  0
 22 23  1  0  0  0  0
 23 24  1  0  0  0  0
 24 25  1  0  0  0  0
M  END
>  <MODEL>
7

>  <REMARK>
 VINA RESULT:      -5.9      2.264      5.770
  Name = 
  9 active torsions:
  status: ('A' for Active; 'I' for Inactive)
    1  A    between atoms: C_2  and  C_14
    2  A    between atoms: C_2  and  C_25
    3  A    between atoms: O_4  and  C_20
    4  A    between atoms: O_4  and  C_23
    5  A    between atoms: C_5  and  C_10
    6  A    between atoms: C_5  and  C_23
    7  A    between atoms: C_6  and  C_25
    8  A    between atoms: C_10  and  C_13
    9  A    between atoms: C_11  and  N_19
                            x       y       z     vdW  Elec       q    Type
                         _______ _______ _______ _____ _____    ______ ____

>  <TORSDO>
F 9

$$$$
=
 OpenBabel11072409413D

 25 26  0  0  1  0  0  0  0  0999 V2000
  188.4060  177.7750  143.2660 C   0  0  0  0  0  0  0  0  0  0  0  0
  186.5460  177.5020  144.9380 C   0  0  2  0  0  3  0  0  0  0  0  0
  186.9230  177.9760  143.5040 C   0  0  2  0  0  3  0  0  0  0  0  0
  188.5420  176.6010  145.4300 C   0  0  1  0  0  3  0  0  0  0  0  0
  189.1550  177.0810  144.1350 C   0  0  0  0  0  3  0  0  0  0  0  0
  189.0330  178.2840  142.0130 C   0  0  0  0  0  1  0  0  0  0  0  0
  187.1790  176.2880  145.2680 O   0  0  0  0  0  0  0  0  0  0  0  0
  190.3180  177.0750  147.6110 O   0  0  0  0  0  1  0  0  0  0  0  0
  189.3140  175.4190  146.0180 C   0  0  1  0  0  0  0  0  0  0  0  0
  190.2550  175.7560  147.1580 C   0  0  0  0  0  0  0  0  0  0  0  0
  191.3810  174.9560  147.3600 O   0  0  0  0  0  1  0  0  0  0  0  0
  188.9420  175.0630  147.4550 C   0  0  0  0  0  2  0  0  0  0  0  0
  189.7360  174.2350  145.1450 C   0  0  0  0  0  2  0  0  0  0  0  0
  190.6740  174.6540  144.0230 C   0  0  0  0  0  2  0  0  0  0  0  0
  191.9930  174.3540  144.3680 O   0  0  0  0  0  0  0  0  0  0  0  0
  192.1390  175.6660  142.3880 C   0  0  0  0  0  1  0  0  0  0  0  0
  192.8170  176.5740  144.5820 C   0  0  0  0  0  1  0  0  0  0  0  0
  192.7630  175.3260  143.7260 C   0  0  0  0  0  3  0  0  0  0  0  0
  186.0800  178.2050  141.3620 O   0  0  0  0  0  1  0  0  0  0  0  0
  186.8180  176.2490  142.0000 O   0  0  0  0  0  1  0  0  0  0  0  0
  186.1560  177.3550  142.4140 N   0  0  0  0  0  0  0  0  0  0  0  0
  185.0610  177.5420  145.3120 C   0  0  0  0  0  2  0  0  0  0  0  0
  184.8100  177.8170  146.7890 C   0  0  0  0  0  2  0  0  0  0  0  0
  185.5610  179.0590  147.2270 C   0  0  0  0  0  2  0  0  0  0  0  0
  186.6910  178.6660  148.1540 C   0  0  0  0  0  1  0  0  0  0  0  0
  1  3  1  0  0  0  0
  1  5  2  0  0  0  0
  2  7  1  0  0  0  0
  2 22  1  6  0  0  0
  3 21  1  6  0  0  0
  3  2  1  0  0  0  0
  4  5  1  6  0  0  0
  4  9  1  0  0  0  0
  6  1  1  0  0  0  0
  7  4  1  0  0  0  0
  9 13  1  6  0  0  0
  9 10  1  0  0  0  0
  9 12  1  0  0  0  0
 10 11  1  0  0  0  0
 10 12  1  0  0  0  0
 10  8  1  0  0  0  0
 14 15  1  0  0  0  0
 14 13  1  0  0  0  0
 16 18  1  0  0  0  0
 18 15  1  0  0  0  0
 18 17  1  0  0  0  0
 19 21  1  0  0  0  0
 20 21  1  0  0  0  0
 22 23  1  0  0  0  0
 23 24  1  0  0  0  0
 24 25  1  0  0  0  0
M  END
>  <MODEL>
8

>  <REMARK>
 VINA RESULT:      -5.9      2.455      5.865
  Name = 
  9 active torsions:
  status: ('A' for Active; 'I' for Inactive)
    1  A    between atoms: C_2  and  C_14
    2  A    between atoms: C_2  and  C_25
    3  A    between atoms: O_4  and  C_20
    4  A    between atoms: O_4  and  C_23
    5  A    between atoms: C_5  and  C_10
    6  A    between atoms: C_5  and  C_23
    7  A    between atoms: C_6  and  C_25
    8  A    between atoms: C_10  and  C_13
    9  A    between atoms: C_11  and  N_19
                            x       y       z     vdW  Elec       q    Type
                         _______ _______ _______ _____ _____    ______ ____

>  <TORSDO>
F 9

$$$$
=
 OpenBabel11072409413D

 25 26  0  0  1  0  0  0  0  0999 V2000
  188.9310  175.2450  145.8530 C   0  0  0  0  0  0  0  0  0  0  0  0
  188.0140  176.6410  143.9720 C   0  0  2  0  0  3  0  0  0  0  0  0
  188.0500  176.4310  145.5130 C   0  0  2  0  0  3  0  0  0  0  0  0
  189.5880  175.1200  143.4800 C   0  0  1  0  0  3  0  0  0  0  0  0
  189.6970  174.6670  144.9160 C   0  0  0  0  0  3  0  0  0  0  0  0
  189.0120  174.7590  147.2600 C   0  0  0  0  0  1  0  0  0  0  0  0
  189.2900  176.4930  143.3950 O   0  0  0  0  0  0  0  0  0  0  0  0
  190.1470  172.3810  142.9130 O   0  0  0  0  0  1  0  0  0  0  0  0
  190.8460  174.7780  142.6820 C   0  0  1  0  0  0  0  0  0  0  0  0
  191.0860  173.3000  142.4420 C   0  0  0  0  0  0  0  0  0  0  0  0
  192.3970  172.8490  142.2800 O   0  0  0  0  0  1  0  0  0  0  0  0
  190.5860  174.1680  141.3060 C   0  0  0  0  0  2  0  0  0  0  0  0
  192.1070  175.6410  142.7790 C   0  0  0  0  0  2  0  0  0  0  0  0
  192.7770  175.5270  144.1390 C   0  0  0  0  0  2  0  0  0  0  0  0
  192.5470  176.6860  144.8830 O   0  0  0  0  0  0  0  0  0  0  0  0
  192.8970  174.9530  146.4760 C   0  0  0  0  0  1  0  0  0  0  0  0
  194.5670  176.7420  146.1370 C   0  0  0  0  0  1  0  0  0  0  0  0
  193.0860  176.4190  146.1430 C   0  0  0  0  0  3  0  0  0  0  0  0
  187.6230  177.7860  147.3400 O   0  0  0  0  0  1  0  0  0  0  0  0
  189.6990  177.3570  146.8090 O   0  0  0  0  0  1  0  0  0  0  0  0
  188.4700  177.6020  146.2980 N   0  0  0  0  0  0  0  0  0  0  0  0
  187.2460  177.8640  143.4590 C   0  0  0  0  0  2  0  0  0  0  0  0
  185.7750  177.8730  143.8550 C   0  0  0  0  0  2  0  0  0  0  0  0
  185.4770  179.0650  144.7420 C   0  0  0  0  0  2  0  0  0  0  0  0
  184.4720  178.6670  145.8020 C   0  0  0  0  0  1  0  0  0  0  0  0
  1  6  1  0  0  0  0
  2 22  1  1  0  0  0
  2  3  1  0  0  0  0
  3  1  1  0  0  0  0
  3 21  1  1  0  0  0
  4  5  1  1  0  0  0
  5  1  2  0  0  0  0
  7  4  1  0  0  0  0
  7  2  1  0  0  0  0
  9 13  1  1  0  0  0
  9  4  1  0  0  0  0
 10  9  1  0  0  0  0
 10  8  1  0  0  0  0
 11 10  1  0  0  0  0
 12 10  1  0  0  0  0
 12  9  1  0  0  0  0
 13 14  1  0  0  0  0
 14 15  1  0  0  0  0
 15 18  1  0  0  0  0
 17 18  1  0  0  0  0
 18 16  1  0  0  0  0
 21 20  1  0  0  0  0
 21 19  1  0  0  0  0
 22 23  1  0  0  0  0
 23 24  1  0  0  0  0
 24 25  1  0  0  0  0
M  END
>  <MODEL>
9

>  <REMARK>
 VINA RESULT:      -5.7      2.517      7.051
  Name = 
  9 active torsions:
  status: ('A' for Active; 'I' for Inactive)
    1  A    between atoms: C_2  and  C_14
    2  A    between atoms: C_2  and  C_25
    3  A    between atoms: O_4  and  C_20
    4  A    between atoms: O_4  and  C_23
    5  A    between atoms: C_5  and  C_10
    6  A    between atoms: C_5  and  C_23
    7  A    between atoms: C_6  and  C_25
    8  A    between atoms: C_10  and  C_13
    9  A    between atoms: C_11  and  N_19
                            x       y       z     vdW  Elec       q    Type
                         _______ _______ _______ _____ _____    ______ ____

>  <TORSDO>
F 9

$$$$
