=
 OpenBabel11062420163D

 25 28  0  0  1  0  0  0  0  0999 V2000
  184.7310  177.9430  140.8200 C   0  0  0  0  0  3  0  0  0  0  0  0
  182.7650  178.6420  142.0570 N   0  0  0  0  0  1  0  0  0  0  0  0
  184.1690  178.5910  144.5190 C   0  0  0  0  0  2  0  0  0  0  0  0
  184.9430  178.4850  145.8290 C   0  0  0  0  0  2  0  0  0  0  0  0
  186.8000  177.5500  141.9260 N   0  0  0  0  0  0  0  0  0  0  0  0
  185.4990  177.1070  146.0020 C   0  0  0  0  0  0  0  0  0  0  0  0
  184.8730  176.2840  146.6510 O   0  0  0  0  0  0  0  0  0  0  0  0
  187.1880  177.8090  144.3170 C   0  0  0  0  0  2  0  0  0  0  0  0
  184.1430  178.2750  142.0390 C   0  0  0  0  0  0  0  0  0  0  0  0
  186.0720  177.5790  140.7830 C   0  0  0  0  0  0  0  0  0  0  0  0
  186.2680  177.8670  143.1370 C   0  0  0  0  0  0  0  0  0  0  0  0
  186.7750  176.7110  145.3010 C   0  0  1  0  0  3  0  0  0  0  0  0
  186.6810  177.2380  139.5440 N   0  0  0  0  0  1  0  0  0  0  0  0
  184.8980  178.2420  143.2300 C   0  0  0  0  0  0  0  0  0  0  0  0
  188.2980  177.7210  147.0340 C   0  0  0  0  0  2  0  0  0  0  0  0
  189.6880  177.7210  147.2100 O   0  0  0  0  0  0  0  0  0  0  0  0
  190.1950  177.0700  146.0770 C   0  0  0  0  0  2  0  0  0  0  0  0
  189.1830  176.0410  145.6180 C   0  0  2  0  0  3  0  0  0  0  0  0
  187.9070  176.4500  146.3050 C   0  0  2  0  0  3  0  0  0  0  0  0
  189.5870  174.6580  146.0970 C   0  0  0  0  0  2  0  0  0  0  0  0
  189.7280  173.7110  144.9180 C   0  0  0  0  0  2  0  0  0  0  0  0
  189.7530  174.4880  143.6140 C   0  0  0  0  0  2  0  0  0  0  0  0
  188.9970  173.7380  142.5330 C   0  0  1  0  0  3  0  0  0  0  0  0
  187.7800  174.3990  142.2860 O   0  0  0  0  0  0  0  0  0  0  0  0
  188.8130  174.6090  141.3540 C   0  0  0  0  0  2  0  0  0  0  0  0
  1  9  1  0  0  0  0
  3  4  1  0  0  0  0
  4  6  1  0  0  0  0
  5 11  2  0  0  0  0
  6  7  2  0  0  0  0
  9  2  1  0  0  0  0
  9 14  2  0  0  0  0
 10  1  2  0  0  0  0
 10  5  1  0  0  0  0
 11 14  1  0  0  0  0
 11  8  1  0  0  0  0
 12  8  1  6  0  0  0
 12  6  1  0  0  0  0
 12 19  1  0  0  0  0
 13 10  1  0  0  0  0
 14  3  1  0  0  0  0
 15 16  1  0  0  0  0
 17 16  1  0  0  0  0
 18 17  1  0  0  0  0
 18 20  1  1  0  0  0
 18 19  1  0  0  0  0
 19 15  1  6  0  0  0
 21 20  1  0  0  0  0
 22 21  1  0  0  0  0
 23 22  1  1  0  0  0
 24 23  1  0  0  0  0
 25 24  1  0  0  0  0
 25 23  1  0  0  0  0
M  END
>  <MODEL>
1

>  <REMARK>
 VINA RESULT:      -7.1      0.000      0.000
  Name = 
  5 active torsions:
  status: ('A' for Active; 'I' for Inactive)
    1  A    between atoms: C_3  and  C_9
    2  A    between atoms: C_9  and  C_21
    3  A    between atoms: C_11  and  C_19
    4  A    between atoms: C_11  and  C_21
    5  A    between atoms: C_22  and  C_25
                            x       y       z     vdW  Elec       q    Type
                         _______ _______ _______ _____ _____    ______ ____

>  <TORSDO>
F 5

$$$$
=
 OpenBabel11062420163D

 25 28  0  0  1  0  0  0  0  0999 V2000
  184.1450  178.5460  143.5550 C   0  0  0  0  0  3  0  0  0  0  0  0
  183.7150  178.6740  145.9380 N   0  0  0  0  0  1  0  0  0  0  0  0
  186.4290  178.1480  146.5610 C   0  0  0  0  0  2  0  0  0  0  0  0
  187.8840  177.7940  146.8520 C   0  0  0  0  0  2  0  0  0  0  0  0
  186.3320  178.1170  142.7240 N   0  0  0  0  0  0  0  0  0  0  0  0
  188.2490  176.4910  146.2150 C   0  0  0  0  0  0  0  0  0  0  0  0
  188.1790  175.4630  146.8690 O   0  0  0  0  0  0  0  0  0  0  0  0
  188.3190  177.7910  144.0970 C   0  0  0  0  0  2  0  0  0  0  0  0
  184.6290  178.4830  144.8600 C   0  0  0  0  0  0  0  0  0  0  0  0
  185.0190  178.3580  142.4900 C   0  0  0  0  0  0  0  0  0  0  0  0
  186.8480  178.0480  143.9810 C   0  0  0  0  0  0  0  0  0  0  0  0
  188.6050  176.4370  144.7500 C   0  0  1  0  0  3  0  0  0  0  0  0
  184.5340  178.4200  141.1550 N   0  0  0  0  0  1  0  0  0  0  0  0
  185.9930  178.2290  145.1060 C   0  0  0  0  0  0  0  0  0  0  0  0
  190.6560  176.7300  143.3180 C   0  0  0  0  0  2  0  0  0  0  0  0
  191.5230  175.8310  142.6840 O   0  0  0  0  0  0  0  0  0  0  0  0
  190.9600  174.5670  142.9100 C   0  0  0  0  0  2  0  0  0  0  0  0
  190.2410  174.5890  144.2420 C   0  0  2  0  0  3  0  0  0  0  0  0
  190.0790  176.0550  144.5470 C   0  0  2  0  0  3  0  0  0  0  0  0
  191.1060  173.9500  145.3150 C   0  0  0  0  0  2  0  0  0  0  0  0
  191.6160  175.0070  146.2800 C   0  0  0  0  0  2  0  0  0  0  0  0
  193.1280  175.1170  146.1940 C   0  0  0  0  0  2  0  0  0  0  0  0
  193.5300  176.4680  145.6330 C   0  0  1  0  0  3  0  0  0  0  0  0
  194.5820  176.9890  146.4080 O   0  0  0  0  0  0  0  0  0  0  0  0
  194.9330  176.4210  145.1700 C   0  0  0  0  0  2  0  0  0  0  0  0
  1  9  1  0  0  0  0
  3  4  1  0  0  0  0
  5 11  2  0  0  0  0
  6  4  1  0  0  0  0
  6  7  2  0  0  0  0
  9 14  2  0  0  0  0
  9  2  1  0  0  0  0
 10  5  1  0  0  0  0
 10  1  2  0  0  0  0
 11  8  1  0  0  0  0
 11 14  1  0  0  0  0
 12  8  1  1  0  0  0
 12  6  1  0  0  0  0
 13 10  1  0  0  0  0
 14  3  1  0  0  0  0
 16 17  1  0  0  0  0
 16 15  1  0  0  0  0
 17 18  1  0  0  0  0
 18 19  1  0  0  0  0
 18 20  1  1  0  0  0
 19 15  1  6  0  0  0
 19 12  1  0  0  0  0
 20 21  1  0  0  0  0
 22 21  1  0  0  0  0
 23 22  1  1  0  0  0
 23 24  1  0  0  0  0
 25 23  1  0  0  0  0
 25 24  1  0  0  0  0
M  END
>  <MODEL>
2

>  <REMARK>
 VINA RESULT:      -6.7      2.395      3.829
  Name = 
  5 active torsions:
  status: ('A' for Active; 'I' for Inactive)
    1  A    between atoms: C_3  and  C_9
    2  A    between atoms: C_9  and  C_21
    3  A    between atoms: C_11  and  C_19
    4  A    between atoms: C_11  and  C_21
    5  A    between atoms: C_22  and  C_25
                            x       y       z     vdW  Elec       q    Type
                         _______ _______ _______ _____ _____    ______ ____

>  <TORSDO>
F 5

$$$$
=
 OpenBabel11062420163D

 25 28  0  0  1  0  0  0  0  0999 V2000
  190.3550  173.7830  142.5180 C   0  0  0  0  0  3  0  0  0  0  0  0
  191.6180  173.0260  144.4450 N   0  0  0  0  0  1  0  0  0  0  0  0
  189.9450  174.4550  146.2310 C   0  0  0  0  0  2  0  0  0  0  0  0
  189.0630  175.2930  147.1510 C   0  0  0  0  0  2  0  0  0  0  0  0
  188.4630  175.2020  142.7710 N   0  0  0  0  0  0  0  0  0  0  0  0
  189.0900  176.7320  146.7420 C   0  0  0  0  0  0  0  0  0  0  0  0
  189.8710  177.4950  147.2870 O   0  0  0  0  0  0  0  0  0  0  0  0
  187.5880  176.0130  144.8950 C   0  0  0  0  0  2  0  0  0  0  0  0
  190.5330  173.7740  143.9000 C   0  0  0  0  0  0  0  0  0  0  0  0
  189.3060  174.5090  141.9660 C   0  0  0  0  0  0  0  0  0  0  0  0
  188.5980  175.2210  144.1240 C   0  0  0  0  0  0  0  0  0  0  0  0
  188.2300  177.2120  145.6000 C   0  0  1  0  0  3  0  0  0  0  0  0
  189.1160  174.5250  140.5570 N   0  0  0  0  0  1  0  0  0  0  0  0
  189.6600  174.4960  144.7380 C   0  0  0  0  0  0  0  0  0  0  0  0
  186.6740  177.8220  147.4840 C   0  0  0  0  0  2  0  0  0  0  0  0
  185.2920  178.0410  147.5580 O   0  0  0  0  0  0  0  0  0  0  0  0
  184.8100  177.7380  146.2770 C   0  0  0  0  0  2  0  0  0  0  0  0
  185.8860  178.0730  145.2650 C   0  0  2  0  0  3  0  0  0  0  0  0
  187.1430  178.1800  146.0870 C   0  0  2  0  0  3  0  0  0  0  0  0
  185.5970  179.4150  144.6180 C   0  0  0  0  0  2  0  0  0  0  0  0
  185.2810  179.2330  143.1420 C   0  0  0  0  0  2  0  0  0  0  0  0
  186.4540  178.5910  142.4250 C   0  0  0  0  0  2  0  0  0  0  0  0
  185.9670  177.5330  141.4510 C   0  0  1  0  0  3  0  0  0  0  0  0
  185.6440  178.1520  140.2300 O   0  0  0  0  0  0  0  0  0  0  0  0
  186.8730  177.4700  140.2860 C   0  0  0  0  0  2  0  0  0  0  0  0
  1  9  1  0  0  0  0
  3  4  1  0  0  0  0
  5 11  2  0  0  0  0
  6  4  1  0  0  0  0
  6  7  2  0  0  0  0
  9  2  1  0  0  0  0
  9 14  2  0  0  0  0
 10  1  2  0  0  0  0
 10  5  1  0  0  0  0
 11 14  1  0  0  0  0
 11  8  1  0  0  0  0
 12  8  1  1  0  0  0
 12 19  1  0  0  0  0
 12  6  1  0  0  0  0
 13 10  1  0  0  0  0
 14  3  1  0  0  0  0
 15 16  1  0  0  0  0
 17 16  1  0  0  0  0
 18 20  1  1  0  0  0
 18 19  1  0  0  0  0
 18 17  1  0  0  0  0
 19 15  1  1  0  0  0
 21 20  1  0  0  0  0
 22 21  1  0  0  0  0
 23 22  1  1  0  0  0
 24 25  1  0  0  0  0
 24 23  1  0  0  0  0
 25 23  1  0  0  0  0
M  END
>  <MODEL>
3

>  <REMARK>
 VINA RESULT:      -6.6      2.251      5.339
  Name = 
  5 active torsions:
  status: ('A' for Active; 'I' for Inactive)
    1  A    between atoms: C_3  and  C_9
    2  A    between atoms: C_9  and  C_21
    3  A    between atoms: C_11  and  C_19
    4  A    between atoms: C_11  and  C_21
    5  A    between atoms: C_22  and  C_25
                            x       y       z     vdW  Elec       q    Type
                         _______ _______ _______ _____ _____    ______ ____

>  <TORSDO>
F 5

$$$$
=
 OpenBabel11062420163D

 25 28  0  0  1  0  0  0  0  0999 V2000
  184.1320  178.6240  145.3210 C   0  0  0  0  0  3  0  0  0  0  0  0
  183.5700  178.6090  142.9620 N   0  0  0  0  0  1  0  0  0  0  0  0
  185.9710  177.2610  142.2920 C   0  0  0  0  0  2  0  0  0  0  0  0
  187.3050  176.5970  141.9680 C   0  0  0  0  0  2  0  0  0  0  0  0
  186.1530  177.6450  146.1060 N   0  0  0  0  0  0  0  0  0  0  0  0
  188.4440  177.4270  142.4730 C   0  0  0  0  0  0  0  0  0  0  0  0
  188.9910  178.2140  141.7190 O   0  0  0  0  0  0  0  0  0  0  0  0
  187.8160  176.5420  144.7100 C   0  0  0  0  0  2  0  0  0  0  0  0
  184.4660  178.2660  144.0160 C   0  0  0  0  0  0  0  0  0  0  0  0
  184.9950  178.3030  146.3620 C   0  0  0  0  0  0  0  0  0  0  0  0
  186.5190  177.2770  144.8490 C   0  0  0  0  0  0  0  0  0  0  0  0
  188.8460  177.3580  143.9250 C   0  0  1  0  0  3  0  0  0  0  0  0
  184.6620  178.6630  147.6970 N   0  0  0  0  0  1  0  0  0  0  0  0
  185.6710  177.5860  143.7480 C   0  0  0  0  0  0  0  0  0  0  0  0
  190.5320  175.7350  142.9950 C   0  0  0  0  0  2  0  0  0  0  0  0
  191.2490  174.6690  143.5530 O   0  0  0  0  0  0  0  0  0  0  0  0
  190.7610  174.5510  144.8620 C   0  0  0  0  0  2  0  0  0  0  0  0
  190.3500  175.9240  145.3490 C   0  0  2  0  0  3  0  0  0  0  0  0
  190.2430  176.7440  144.0900 C   0  0  2  0  0  3  0  0  0  0  0  0
  191.4340  176.5120  146.2360 C   0  0  0  0  0  2  0  0  0  0  0  0
  192.3280  175.4090  146.7770 C   0  0  0  0  0  2  0  0  0  0  0  0
  193.7840  175.7110  146.4720 C   0  0  0  0  0  2  0  0  0  0  0  0
  193.8920  176.7200  145.3440 C   0  0  1  0  0  3  0  0  0  0  0  0
  194.9690  177.5870  145.6090 O   0  0  0  0  0  0  0  0  0  0  0  0
  195.1940  176.5710  144.6610 C   0  0  0  0  0  2  0  0  0  0  0  0
  1 10  1  0  0  0  0
  2  9  1  0  0  0  0
  3 14  1  0  0  0  0
  4  3  1  0  0  0  0
  4  6  1  0  0  0  0
  5 10  2  0  0  0  0
  6 12  1  0  0  0  0
  7  6  2  0  0  0  0
  8 11  1  0  0  0  0
  9  1  2  0  0  0  0
 10 13  1  0  0  0  0
 11  5  1  0  0  0  0
 12 19  1  0  0  0  0
 12  8  1  1  0  0  0
 14  9  1  0  0  0  0
 14 11  2  0  0  0  0
 15 16  1  0  0  0  0
 16 17  1  0  0  0  0
 17 18  1  0  0  0  0
 18 20  1  1  0  0  0
 19 15  1  6  0  0  0
 19 18  1  0  0  0  0
 20 21  1  0  0  0  0
 22 21  1  0  0  0  0
 23 24  1  0  0  0  0
 23 22  1  1  0  0  0
 25 23  1  0  0  0  0
 25 24  1  0  0  0  0
M  END
>  <MODEL>
4

>  <REMARK>
 VINA RESULT:      -6.5      2.889      4.686
  Name = 
  5 active torsions:
  status: ('A' for Active; 'I' for Inactive)
    1  A    between atoms: C_3  and  C_9
    2  A    between atoms: C_9  and  C_21
    3  A    between atoms: C_11  and  C_19
    4  A    between atoms: C_11  and  C_21
    5  A    between atoms: C_22  and  C_25
                            x       y       z     vdW  Elec       q    Type
                         _______ _______ _______ _____ _____    ______ ____

>  <TORSDO>
F 5

$$$$
=
 OpenBabel11062420163D

 25 28  0  0  1  0  0  0  0  0999 V2000
  185.7640  178.6570  145.8880 C   0  0  0  0  0  3  0  0  0  0  0  0
  185.6860  179.4200  143.5880 N   0  0  0  0  0  1  0  0  0  0  0  0
  188.0430  177.9940  142.9250 C   0  0  0  0  0  2  0  0  0  0  0  0
  189.3510  177.2670  142.6290 C   0  0  0  0  0  2  0  0  0  0  0  0
  187.4920  177.2060  146.6400 N   0  0  0  0  0  0  0  0  0  0  0  0
  190.4350  177.7350  143.5480 C   0  0  0  0  0  0  0  0  0  0  0  0
  191.1900  178.6210  143.1820 O   0  0  0  0  0  0  0  0  0  0  0  0
  189.2960  176.3320  145.2560 C   0  0  0  0  0  2  0  0  0  0  0  0
  186.3190  178.6550  144.6100 C   0  0  0  0  0  0  0  0  0  0  0  0
  186.3700  177.9200  146.9000 C   0  0  0  0  0  0  0  0  0  0  0  0
  188.0680  177.1750  145.4090 C   0  0  0  0  0  0  0  0  0  0  0  0
  190.5300  177.1840  144.9490 C   0  0  1  0  0  3  0  0  0  0  0  0
  185.8100  177.9160  148.2070 N   0  0  0  0  0  1  0  0  0  0  0  0
  187.4880  177.9150  144.3400 C   0  0  0  0  0  0  0  0  0  0  0  0
  191.5840  174.9070  144.7260 C   0  0  0  0  0  2  0  0  0  0  0  0
  192.2860  174.0810  145.6130 O   0  0  0  0  0  0  0  0  0  0  0  0
  192.2340  174.7480  146.8450 C   0  0  0  0  0  2  0  0  0  0  0  0
  192.1970  176.2400  146.5860 C   0  0  2  0  0  3  0  0  0  0  0  0
  191.8060  176.3500  145.1360 C   0  0  2  0  0  3  0  0  0  0  0  0
  193.5790  176.8390  146.7770 C   0  0  0  0  0  2  0  0  0  0  0  0
  194.2040  177.1660  145.4310 C   0  0  0  0  0  2  0  0  0  0  0  0
  195.3170  176.1840  145.1110 C   0  0  0  0  0  2  0  0  0  0  0  0
  195.6970  176.2710  143.6440 C   0  0  1  0  0  3  0  0  0  0  0  0
  196.8160  177.1130  143.5130 O   0  0  0  0  0  0  0  0  0  0  0  0
  197.0570  175.7280  143.4470 C   0  0  0  0  0  2  0  0  0  0  0  0
  1 10  1  0  0  0  0
  2  9  1  0  0  0  0
  3 14  1  0  0  0  0
  4  3  1  0  0  0  0
  4  6  1  0  0  0  0
  5 10  2  0  0  0  0
  6 12  1  0  0  0  0
  7  6  2  0  0  0  0
  8 11  1  0  0  0  0
  9  1  2  0  0  0  0
 10 13  1  0  0  0  0
 11  5  1  0  0  0  0
 12 19  1  0  0  0  0
 12  8  1  6  0  0  0
 14  9  1  0  0  0  0
 14 11  2  0  0  0  0
 15 16  1  0  0  0  0
 16 17  1  0  0  0  0
 18 20  1  6  0  0  0
 18 17  1  0  0  0  0
 19 15  1  1  0  0  0
 19 18  1  0  0  0  0
 21 20  1  0  0  0  0
 22 21  1  0  0  0  0
 23 22  1  1  0  0  0
 24 23  1  0  0  0  0
 25 24  1  0  0  0  0
 25 23  1  0  0  0  0
M  END
>  <MODEL>
5

>  <REMARK>
 VINA RESULT:      -6.5      3.858      5.487
  Name = 
  5 active torsions:
  status: ('A' for Active; 'I' for Inactive)
    1  A    between atoms: C_3  and  C_9
    2  A    between atoms: C_9  and  C_21
    3  A    between atoms: C_11  and  C_19
    4  A    between atoms: C_11  and  C_21
    5  A    between atoms: C_22  and  C_25
                            x       y       z     vdW  Elec       q    Type
                         _______ _______ _______ _____ _____    ______ ____

>  <TORSDO>
F 5

$$$$
=
 OpenBabel11062420163D

 25 28  0  0  1  0  0  0  0  0999 V2000
  184.4060  178.5490  143.5890 C   0  0  0  0  0  3  0  0  0  0  0  0
  183.9170  178.6730  145.9620 N   0  0  0  0  0  1  0  0  0  0  0  0
  186.5950  178.0560  146.6510 C   0  0  0  0  0  2  0  0  0  0  0  0
  188.0300  177.6540  146.9780 C   0  0  0  0  0  2  0  0  0  0  0  0
  186.6000  178.0560  142.8130 N   0  0  0  0  0  0  0  0  0  0  0  0
  188.3700  176.3440  146.3400 C   0  0  0  0  0  0  0  0  0  0  0  0
  188.2500  175.3140  146.9840 O   0  0  0  0  0  0  0  0  0  0  0  0
  188.5380  177.6570  144.2350 C   0  0  0  0  0  2  0  0  0  0  0  0
  184.8520  178.4610  144.9060 C   0  0  0  0  0  0  0  0  0  0  0  0
  185.3010  178.3410  142.5470 C   0  0  0  0  0  0  0  0  0  0  0  0
  187.0790  177.9610  144.0830 C   0  0  0  0  0  0  0  0  0  0  0  0
  188.7630  176.2900  144.8850 C   0  0  1  0  0  3  0  0  0  0  0  0
  184.8550  178.4290  141.1990 N   0  0  0  0  0  1  0  0  0  0  0  0
  186.2010  178.1610  145.1860 C   0  0  0  0  0  0  0  0  0  0  0  0
  191.1710  177.0230  144.9700 C   0  0  0  0  0  2  0  0  0  0  0  0
  192.2370  176.9350  144.0640 O   0  0  0  0  0  0  0  0  0  0  0  0
  191.6760  176.3890  142.9010 C   0  0  0  0  0  2  0  0  0  0  0  0
  190.5400  175.4700  143.2970 C   0  0  2  0  0  3  0  0  0  0  0  0
  190.2290  175.8620  144.7170 C   0  0  2  0  0  3  0  0  0  0  0  0
  191.0020  174.0230  143.2700 C   0  0  0  0  0  2  0  0  0  0  0  0
  189.8060  173.0870  143.2990 C   0  0  0  0  0  2  0  0  0  0  0  0
  188.8010  173.4770  142.2290 C   0  0  0  0  0  2  0  0  0  0  0  0
  189.2010  172.8930  140.8870 C   0  0  1  0  0  3  0  0  0  0  0  0
  188.0550  172.7840  140.0780 O   0  0  0  0  0  0  0  0  0  0  0  0
  188.9130  173.8660  139.8120 C   0  0  0  0  0  2  0  0  0  0  0  0
  1  9  1  0  0  0  0
  3  4  1  0  0  0  0
  5 11  2  0  0  0  0
  6  4  1  0  0  0  0
  6  7  2  0  0  0  0
  9 14  2  0  0  0  0
  9  2  1  0  0  0  0
 10  5  1  0  0  0  0
 10  1  2  0  0  0  0
 11  8  1  0  0  0  0
 11 14  1  0  0  0  0
 12  8  1  1  0  0  0
 12  6  1  0  0  0  0
 13 10  1  0  0  0  0
 14  3  1  0  0  0  0
 16 15  1  0  0  0  0
 17 18  1  0  0  0  0
 17 16  1  0  0  0  0
 18 20  1  1  0  0  0
 18 19  1  0  0  0  0
 19 12  1  0  0  0  0
 19 15  1  6  0  0  0
 20 21  1  0  0  0  0
 22 21  1  0  0  0  0
 23 22  1  1  0  0  0
 24 23  1  0  0  0  0
 25 24  1  0  0  0  0
 25 23  1  0  0  0  0
M  END
>  <MODEL>
6

>  <REMARK>
 VINA RESULT:      -6.5      1.876      2.779
  Name = 
  5 active torsions:
  status: ('A' for Active; 'I' for Inactive)
    1  A    between atoms: C_3  and  C_9
    2  A    between atoms: C_9  and  C_21
    3  A    between atoms: C_11  and  C_19
    4  A    between atoms: C_11  and  C_21
    5  A    between atoms: C_22  and  C_25
                            x       y       z     vdW  Elec       q    Type
                         _______ _______ _______ _____ _____    ______ ____

>  <TORSDO>
F 5

$$$$
=
 OpenBabel11062420163D

 25 28  0  0  1  0  0  0  0  0999 V2000
  184.2400  178.6360  143.6420 C   0  0  0  0  0  3  0  0  0  0  0  0
  184.7000  178.2890  141.2860 N   0  0  0  0  0  1  0  0  0  0  0  0
  186.8760  176.5660  141.8580 C   0  0  0  0  0  2  0  0  0  0  0  0
  188.0810  175.7000  142.2100 C   0  0  0  0  0  2  0  0  0  0  0  0
  185.5480  177.5680  145.3170 N   0  0  0  0  0  0  0  0  0  0  0  0
  189.0430  176.4590  143.0680 C   0  0  0  0  0  0  0  0  0  0  0  0
  189.9850  177.0350  142.5480 O   0  0  0  0  0  0  0  0  0  0  0  0
  187.4060  176.0500  144.8940 C   0  0  0  0  0  2  0  0  0  0  0  0
  185.0080  178.0250  142.6530 C   0  0  0  0  0  0  0  0  0  0  0  0
  184.5270  178.3950  144.9800 C   0  0  0  0  0  0  0  0  0  0  0  0
  186.3230  176.9500  144.3850 C   0  0  0  0  0  0  0  0  0  0  0  0
  188.7960  176.5910  144.5510 C   0  0  1  0  0  3  0  0  0  0  0  0
  183.7500  179.0140  145.9970 N   0  0  0  0  0  1  0  0  0  0  0  0
  186.0710  177.1680  143.0010 C   0  0  0  0  0  0  0  0  0  0  0  0
  189.2550  175.1340  146.5540 C   0  0  0  0  0  2  0  0  0  0  0  0
  190.1400  175.2370  147.6350 O   0  0  0  0  0  0  0  0  0  0  0  0
  190.7580  176.4860  147.4780 C   0  0  0  0  0  2  0  0  0  0  0  0
  190.8480  176.7980  145.9990 C   0  0  2  0  0  3  0  0  0  0  0  0
  189.8670  175.8480  145.3640 C   0  0  2  0  0  3  0  0  0  0  0  0
  192.2420  176.4930  145.4830 C   0  0  0  0  0  2  0  0  0  0  0  0
  193.2150  176.3520  146.6420 C   0  0  0  0  0  2  0  0  0  0  0  0
  194.5710  175.8850  146.1420 C   0  0  0  0  0  2  0  0  0  0  0  0
  194.6240  175.9390  144.6260 C   0  0  1  0  0  3  0  0  0  0  0  0
  195.6720  176.7930  144.2370 O   0  0  0  0  0  0  0  0  0  0  0  0
  195.9210  175.4110  144.1530 C   0  0  0  0  0  2  0  0  0  0  0  0
  1 10  1  0  0  0  0
  2  9  1  0  0  0  0
  3  4  1  0  0  0  0
  3 14  1  0  0  0  0
  4  6  1  0  0  0  0
  6 12  1  0  0  0  0
  7  6  2  0  0  0  0
  9 14  1  0  0  0  0
  9  1  2  0  0  0  0
 10  5  2  0  0  0  0
 10 13  1  0  0  0  0
 11  8  1  0  0  0  0
 11  5  1  0  0  0  0
 12  8  1  6  0  0  0
 12 19  1  0  0  0  0
 14 11  2  0  0  0  0
 15 16  1  0  0  0  0
 17 16  1  0  0  0  0
 18 20  1  6  0  0  0
 18 17  1  0  0  0  0
 19 18  1  0  0  0  0
 19 15  1  1  0  0  0
 20 21  1  0  0  0  0
 22 21  1  0  0  0  0
 23 22  1  1  0  0  0
 24 23  1  0  0  0  0
 25 24  1  0  0  0  0
 25 23  1  0  0  0  0
M  END
>  <MODEL>
7

>  <REMARK>
 VINA RESULT:      -6.5      2.937      4.430
  Name = 
  5 active torsions:
  status: ('A' for Active; 'I' for Inactive)
    1  A    between atoms: C_3  and  C_9
    2  A    between atoms: C_9  and  C_21
    3  A    between atoms: C_11  and  C_19
    4  A    between atoms: C_11  and  C_21
    5  A    between atoms: C_22  and  C_25
                            x       y       z     vdW  Elec       q    Type
                         _______ _______ _______ _____ _____    ______ ____

>  <TORSDO>
F 5

$$$$
=
 OpenBabel11062420163D

 25 28  0  0  1  0  0  0  0  0999 V2000
  184.6550  178.0120  140.6840 C   0  0  0  0  0  3  0  0  0  0  0  0
  182.7120  178.7310  141.9450 N   0  0  0  0  0  1  0  0  0  0  0  0
  184.1410  178.6480  144.3910 C   0  0  0  0  0  2  0  0  0  0  0  0
  184.9270  178.5240  145.6920 C   0  0  0  0  0  2  0  0  0  0  0  0
  186.7300  177.5850  141.7660 N   0  0  0  0  0  0  0  0  0  0  0  0
  185.4670  177.1380  145.8530 C   0  0  0  0  0  0  0  0  0  0  0  0
  184.8360  176.3200  146.5040 O   0  0  0  0  0  0  0  0  0  0  0  0
  187.1470  177.8260  144.1530 C   0  0  0  0  0  2  0  0  0  0  0  0
  184.0850  178.3460  141.9110 C   0  0  0  0  0  0  0  0  0  0  0  0
  185.9900  177.6300  140.6300 C   0  0  0  0  0  0  0  0  0  0  0  0
  186.2150  177.9020  142.9840 C   0  0  0  0  0  0  0  0  0  0  0  0
  186.7300  176.7280  145.1360 C   0  0  1  0  0  3  0  0  0  0  0  0
  186.5810  177.2870  139.3830 N   0  0  0  0  0  1  0  0  0  0  0  0
  184.8510  178.2960  143.0930 C   0  0  0  0  0  0  0  0  0  0  0  0
  188.1680  177.6630  146.9800 C   0  0  0  0  0  2  0  0  0  0  0  0
  189.5530  177.7390  147.1750 O   0  0  0  0  0  0  0  0  0  0  0  0
  190.1120  177.2350  145.9920 C   0  0  0  0  0  2  0  0  0  0  0  0
  189.1750  176.1910  145.4210 C   0  0  2  0  0  3  0  0  0  0  0  0
  187.8690  176.4460  146.1260 C   0  0  2  0  0  3  0  0  0  0  0  0
  189.6670  174.7980  145.7710 C   0  0  0  0  0  2  0  0  0  0  0  0
  190.6450  174.3040  144.7190 C   0  0  0  0  0  2  0  0  0  0  0  0
  192.0130  174.0730  145.3350 C   0  0  0  0  0  2  0  0  0  0  0  0
  193.1040  174.5850  144.4130 C   0  0  1  0  0  3  0  0  0  0  0  0
  192.7720  175.8860  143.9930 O   0  0  0  0  0  0  0  0  0  0  0  0
  193.7420  175.7790  145.0070 C   0  0  0  0  0  2  0  0  0  0  0  0
  1  9  1  0  0  0  0
  3  4  1  0  0  0  0
  4  6  1  0  0  0  0
  5 11  2  0  0  0  0
  6  7  2  0  0  0  0
  9  2  1  0  0  0  0
  9 14  2  0  0  0  0
 10  1  2  0  0  0  0
 10  5  1  0  0  0  0
 11 14  1  0  0  0  0
 11  8  1  0  0  0  0
 12  8  1  6  0  0  0
 12  6  1  0  0  0  0
 12 19  1  0  0  0  0
 13 10  1  0  0  0  0
 14  3  1  0  0  0  0
 15 16  1  0  0  0  0
 17 16  1  0  0  0  0
 18 20  1  1  0  0  0
 18 17  1  0  0  0  0
 18 19  1  0  0  0  0
 19 15  1  1  0  0  0
 21 22  1  0  0  0  0
 21 20  1  0  0  0  0
 23 25  1  0  0  0  0
 23 22  1  1  0  0  0
 24 23  1  0  0  0  0
 24 25  1  0  0  0  0
M  END
>  <MODEL>
8

>  <REMARK>
 VINA RESULT:      -6.4      1.523      2.004
  Name = 
  5 active torsions:
  status: ('A' for Active; 'I' for Inactive)
    1  A    between atoms: C_3  and  C_9
    2  A    between atoms: C_9  and  C_21
    3  A    between atoms: C_11  and  C_19
    4  A    between atoms: C_11  and  C_21
    5  A    between atoms: C_22  and  C_25
                            x       y       z     vdW  Elec       q    Type
                         _______ _______ _______ _____ _____    ______ ____

>  <TORSDO>
F 5

$$$$
=
 OpenBabel11062420163D

 25 28  0  0  1  0  0  0  0  0999 V2000
  194.6630  176.0380  144.1030 C   0  0  0  0  0  3  0  0  0  0  0  0
  194.4710  175.7200  146.5000 N   0  0  0  0  0  1  0  0  0  0  0  0
  191.6680  175.3380  146.3290 C   0  0  0  0  0  2  0  0  0  0  0  0
  190.1540  175.2070  146.2000 C   0  0  0  0  0  2  0  0  0  0  0  0
  192.7510  175.9160  142.6930 N   0  0  0  0  0  0  0  0  0  0  0  0
  189.5730  176.4210  145.5460 C   0  0  0  0  0  0  0  0  0  0  0  0
  189.1370  177.3250  146.2400 O   0  0  0  0  0  0  0  0  0  0  0  0
  190.4790  175.4560  143.4410 C   0  0  0  0  0  2  0  0  0  0  0  0
  193.8610  175.7790  145.2120 C   0  0  0  0  0  0  0  0  0  0  0  0
  194.0860  176.1040  142.8400 C   0  0  0  0  0  0  0  0  0  0  0  0
  191.9310  175.6600  143.7470 C   0  0  0  0  0  0  0  0  0  0  0  0
  189.6140  176.5660  144.0450 C   0  0  1  0  0  3  0  0  0  0  0  0
  194.8970  176.3680  141.7020 N   0  0  0  0  0  1  0  0  0  0  0  0
  192.4730  175.5870  145.0620 C   0  0  0  0  0  0  0  0  0  0  0  0
  188.2200  175.9120  142.0520 C   0  0  0  0  0  2  0  0  0  0  0  0
  187.3020  176.6050  141.2520 O   0  0  0  0  0  0  0  0  0  0  0  0
  187.3400  177.9260  141.7200 C   0  0  0  0  0  2  0  0  0  0  0  0
  187.6540  177.9040  143.2010 C   0  0  2  0  0  3  0  0  0  0  0  0
  188.2040  176.5230  143.4400 C   0  0  2  0  0  3  0  0  0  0  0  0
  186.3810  178.0810  144.0090 C   0  0  0  0  0  2  0  0  0  0  0  0
  185.9700  176.7610  144.6420 C   0  0  0  0  0  2  0  0  0  0  0  0
  185.3510  176.9990  146.0080 C   0  0  0  0  0  2  0  0  0  0  0  0
  185.7870  178.3430  146.5620 C   0  0  1  0  0  3  0  0  0  0  0  0
  184.9410  178.6920  147.6290 O   0  0  0  0  0  0  0  0  0  0  0  0
  186.2100  178.1910  147.9690 C   0  0  0  0  0  2  0  0  0  0  0  0
  1  9  1  0  0  0  0
  4  3  1  0  0  0  0
  5 10  1  0  0  0  0
  5 11  2  0  0  0  0
  6  4  1  0  0  0  0
  6  7  2  0  0  0  0
  8 11  1  0  0  0  0
  9  2  1  0  0  0  0
 10  1  2  0  0  0  0
 11 14  1  0  0  0  0
 12  8  1  6  0  0  0
 12  6  1  0  0  0  0
 13 10  1  0  0  0  0
 14  9  2  0  0  0  0
 14  3  1  0  0  0  0
 16 17  1  0  0  0  0
 16 15  1  0  0  0  0
 17 18  1  0  0  0  0
 18 19  1  0  0  0  0
 18 20  1  1  0  0  0
 19 15  1  6  0  0  0
 19 12  1  0  0  0  0
 20 21  1  0  0  0  0
 21 22  1  0  0  0  0
 23 22  1  1  0  0  0
 23 24  1  0  0  0  0
 23 25  1  0  0  0  0
 24 25  1  0  0  0  0
M  END
>  <MODEL>
9

>  <REMARK>
 VINA RESULT:      -6.3      3.518      6.968
  Name = 
  5 active torsions:
  status: ('A' for Active; 'I' for Inactive)
    1  A    between atoms: C_3  and  C_9
    2  A    between atoms: C_9  and  C_21
    3  A    between atoms: C_11  and  C_19
    4  A    between atoms: C_11  and  C_21
    5  A    between atoms: C_22  and  C_25
                            x       y       z     vdW  Elec       q    Type
                         _______ _______ _______ _____ _____    ______ ____

>  <TORSDO>
F 5

$$$$
