=
 OpenBabel11062422163D

 44 47  0  0  1  0  0  0  0  0999 V2000
  187.5800  175.5660  139.2370 N   0  0  0  0  0  0  0  0  0  0  0  0
  188.1890  176.9890  143.0190 C   0  0  0  0  0  0  0  0  0  0  0  0
  189.4270  174.6850  143.2100 C   0  0  0  0  0  3  0  0  0  0  0  0
  187.5990  177.7780  142.1880 N   0  0  0  0  0  0  0  0  0  0  0  0
  188.6260  175.6060  142.5990 C   0  0  0  0  0  0  0  0  0  0  0  0
  187.6210  176.1070  140.4690 C   0  0  0  0  0  0  0  0  0  0  0  0
  188.5960  174.2260  140.5980 C   0  0  0  0  0  0  0  0  0  0  0  0
  187.2590  177.4180  140.8810 N   0  0  0  0  0  2  0  0  0  0  0  0
  188.2460  175.2910  141.3050 C   0  0  0  0  0  0  0  0  0  0  0  0
  189.7130  173.4060  142.6110 C   0  0  0  0  0  0  0  0  0  0  0  0
  188.2050  174.3480  139.3590 N   0  0  0  0  0  2  0  0  0  0  0  0
  189.3580  173.1990  141.2510 C   0  0  0  0  0  3  0  0  0  0  0  0
  190.7830  172.5340  143.3090 C   0  0  0  0  0  2  0  0  0  0  0  0
  192.3710  173.5180  144.7490 C   0  0  0  0  0  3  0  0  0  0  0  0
  192.1970  172.9950  143.4730 C   0  0  0  0  0  0  0  0  0  0  0  0
  194.0200  174.8060  140.6430 C   0  0  0  0  0  3  0  0  0  0  0  0
  194.3740  172.6920  142.4290 C   0  0  0  0  0  3  0  0  0  0  0  0
  195.2150  174.0310  140.6040 C   0  0  0  0  0  0  0  0  0  0  0  0
  195.3750  172.9990  141.5210 C   0  0  0  0  0  3  0  0  0  0  0  0
  193.1810  173.3770  142.4460 C   0  0  0  0  0  0  0  0  0  0  0  0
  193.0200  174.5040  141.5590 C   0  0  0  0  0  3  0  0  0  0  0  0
  196.2330  174.2570  139.7000 O   0  0  0  0  0  0  0  0  0  0  0  0
  196.0110  174.4050  138.3040 C   0  0  0  0  0  1  0  0  0  0  0  0
  193.5320  174.1720  145.3400 C   0  0  0  0  0  2  0  0  0  0  0  0
  193.4000  175.6740  145.1760 C   0  0  0  0  0  2  0  0  0  0  0  0
  196.5950  175.2070  144.6710 O   0  0  0  0  0  1  0  0  0  0  0  0
  194.9650  177.5010  145.8330 O   0  0  0  0  0  1  0  0  0  0  0  0
  195.7870  176.5570  142.9530 O   0  0  0  0  0  0  0  0  0  0  0  0
  195.6880  175.9960  144.2250 C   0  0  0  0  0  0  0  0  0  0  0  0
  194.6900  176.3760  145.1090 N   0  0  0  0  0  0  0  0  0  0  0  0
  188.6330  177.5640  144.3430 C   0  0  0  0  0  2  0  0  0  0  0  0
  188.3020  176.6820  145.5920 C   0  0  2  0  0  3  0  0  0  0  0  0
  186.9540  176.7230  146.1680 N   0  0  0  0  0  2  0  0  0  0  0  0
  186.8600  177.7690  147.1910 C   0  0  0  0  0  2  0  0  0  0  0  0
  185.3920  178.1370  147.3720 C   0  0  0  0  0  2  0  0  0  0  0  0
  184.4720  177.7990  146.2080 C   0  0  0  0  0  2  0  0  0  0  0  0
  183.8880  179.0380  145.6810 N   0  0  0  0  0  2  0  0  0  0  0  0
  184.5940  177.7930  143.7380 C   0  0  0  0  0  1  0  0  0  0  0  0
  184.2810  179.1870  144.2990 C   0  0  0  0  0  3  0  0  0  0  0  0
  185.5420  180.0190  144.1380 C   0  0  0  0  0  1  0  0  0  0  0  0
  189.3530  176.6930  146.7130 C   0  0  0  0  0  2  0  0  0  0  0  0
  189.0100  174.4760  147.6060 O   0  0  0  0  0  1  0  0  0  0  0  0
  189.9670  175.3230  147.0470 C   0  0  2  0  0  3  0  0  0  0  0  0
  191.1470  175.4650  148.0130 C   0  0  0  0  0  1  0  0  0  0  0  0
  1 11  1  0  0  0  0
  1  6  2  0  0  0  0
  2 31  1  0  0  0  0
  4  2  2  0  0  0  0
  5  2  1  0  0  0  0
  5  3  2  0  0  0  0
  6  8  1  0  0  0  0
  6  9  1  0  0  0  0
  7 12  1  0  0  0  0
  7  9  2  0  0  0  0
  8  4  1  0  0  0  0
  9  5  1  0  0  0  0
 10  3  1  0  0  0  0
 10 13  1  0  0  0  0
 11  7  1  0  0  0  0
 12 10  2  0  0  0  0
 13 15  1  0  0  0  0
 14 24  1  0  0  0  0
 15 14  2  0  0  0  0
 16 21  1  0  0  0  0
 17 20  1  0  0  0  0
 18 16  2  0  0  0  0
 18 19  1  0  0  0  0
 19 17  2  0  0  0  0
 20 15  1  0  0  0  0
 21 20  2  0  0  0  0
 22 18  1  0  0  0  0
 23 22  1  0  0  0  0
 25 24  1  0  0  0  0
 28 29  2  0  0  0  0
 29 26  1  0  0  0  0
 29 30  1  0  0  0  0
 30 25  1  0  0  0  0
 30 27  1  0  0  0  0
 32 31  1  6  0  0  0
 32 33  1  0  0  0  0
 32 41  1  0  0  0  0
 33 34  1  0  0  0  0
 34 35  1  0  0  0  0
 36 35  1  0  0  0  0
 37 36  1  0  0  0  0
 38 39  1  0  0  0  0
 39 37  1  0  0  0  0
 40 39  1  0  0  0  0
 41 43  1  0  0  0  0
 43 42  1  0  0  0  0
 43 44  1  1  0  0  0
M  END
>  <MODEL>
1

>  <REMARK>
 VINA RESULT:      -6.5      0.000      0.000
  Name = 
  17 active torsions:
  status: ('A' for Active; 'I' for Inactive)
    1  A    between atoms: C_3  and  C_12
    2  A    between atoms: C_3  and  C_16
    3  A    between atoms: C_5  and  C_6
    4  A    between atoms: C_5  and  C_12
    5  A    between atoms: C_9  and  C_33
    6  A    between atoms: C_9  and  N_40
    7  A    between atoms: C_11  and  O_25
    8  A    between atoms: C_12  and  N_40
    9  A    between atoms: C_17  and  N_32
   10  A    between atoms: C_21  and  C_35
   11  A    between atoms: C_21  and  C_42
   12  A    between atoms: C_22  and  C_41
   13  A    between atoms: C_28  and  C_35
   14  A    between atoms: C_31  and  N_39
   15  A    between atoms: C_31  and  C_41
   16  A    between atoms: N_32  and  C_37
   17  A    between atoms: C_33  and  C_37
                            x       y       z     vdW  Elec       q    Type
                         _______ _______ _______ _____ _____    ______ ____

>  <TORSDO>
F 17

$$$$
=
 OpenBabel11062422163D

 44 47  0  0  1  0  0  0  0  0999 V2000
  196.8650  175.9190  143.6850 N   0  0  0  0  0  0  0  0  0  0  0  0
  195.2000  172.5360  145.2600 C   0  0  0  0  0  0  0  0  0  0  0  0
  193.3990  174.2940  145.9900 C   0  0  0  0  0  3  0  0  0  0  0  0
  196.2730  172.3850  144.5610 N   0  0  0  0  0  0  0  0  0  0  0  0
  194.6020  173.9040  145.4790 C   0  0  0  0  0  0  0  0  0  0  0  0
  196.4810  174.7520  144.2340 C   0  0  0  0  0  0  0  0  0  0  0  0
  195.0520  176.2040  144.8300 C   0  0  0  0  0  0  0  0  0  0  0  0
  196.9980  173.4470  144.0110 N   0  0  0  0  0  2  0  0  0  0  0  0
  195.3690  174.9210  144.9350 C   0  0  0  0  0  0  0  0  0  0  0  0
  193.0330  175.6840  146.1060 C   0  0  0  0  0  0  0  0  0  0  0  0
  195.9290  176.8360  144.1000 N   0  0  0  0  0  2  0  0  0  0  0  0
  193.8360  176.6530  145.4460 C   0  0  0  0  0  3  0  0  0  0  0  0
  191.5750  175.9880  146.5200 C   0  0  0  0  0  2  0  0  0  0  0  0
  189.3140  176.4850  146.0670 C   0  0  0  0  0  3  0  0  0  0  0  0
  190.4310  175.8260  145.5680 C   0  0  0  0  0  0  0  0  0  0  0  0
  189.6760  172.5130  143.8180 C   0  0  0  0  0  3  0  0  0  0  0  0
  190.1480  175.1990  143.2340 C   0  0  0  0  0  3  0  0  0  0  0  0
  189.6950  172.9560  142.4650 C   0  0  0  0  0  0  0  0  0  0  0  0
  189.9080  174.3040  142.2040 C   0  0  0  0  0  3  0  0  0  0  0  0
  190.2050  174.7900  144.5460 C   0  0  0  0  0  0  0  0  0  0  0  0
  189.9080  173.4110  144.8530 C   0  0  0  0  0  3  0  0  0  0  0  0
  189.5040  172.1110  141.3900 O   0  0  0  0  0  0  0  0  0  0  0  0
  189.1170  172.5690  140.1030 C   0  0  0  0  0  1  0  0  0  0  0  0
  187.9500  176.5320  145.5520 C   0  0  0  0  0  2  0  0  0  0  0  0
  187.7620  177.8010  144.7430 C   0  0  0  0  0  2  0  0  0  0  0  0
  186.6750  175.5050  142.6860 O   0  0  0  0  0  0  0  0  0  0  0  0
  188.0380  178.2000  142.2970 O   0  0  0  0  0  1  0  0  0  0  0  0
  185.0930  177.2130  142.7570 O   0  0  0  0  0  1  0  0  0  0  0  0
  186.3800  176.7230  142.9630 C   0  0  0  0  0  0  0  0  0  0  0  0
  187.4230  177.5570  143.3330 N   0  0  0  0  0  0  0  0  0  0  0  0
  194.4400  171.2930  145.6570 C   0  0  0  0  0  2  0  0  0  0  0  0
  194.9740  169.9620  145.0310 C   0  0  2  0  0  3  0  0  0  0  0  0
  194.1690  169.2630  144.0230 N   0  0  0  0  0  2  0  0  0  0  0  0
  194.2830  169.9260  142.7200 C   0  0  0  0  0  2  0  0  0  0  0  0
  192.9690  170.6400  142.4250 C   0  0  0  0  0  2  0  0  0  0  0  0
  193.0520  171.8160  141.4620 C   0  0  0  0  0  2  0  0  0  0  0  0
  193.2440  173.0520  142.2290 N   0  0  0  0  0  2  0  0  0  0  0  0
  193.7360  175.2940  141.4830 C   0  0  0  0  0  1  0  0  0  0  0  0
  194.2540  173.8520  141.5770 C   0  0  0  0  0  3  0  0  0  0  0  0
  194.5340  173.3930  140.1560 C   0  0  0  0  0  1  0  0  0  0  0  0
  195.5670  168.9500  146.0230 C   0  0  0  0  0  2  0  0  0  0  0  0
  197.9280  169.4230  145.8470 O   0  0  0  0  0  1  0  0  0  0  0  0
  196.8510  169.4070  146.7340 C   0  0  2  0  0  3  0  0  0  0  0  0
  197.1840  168.4950  147.9200 C   0  0  0  0  0  1  0  0  0  0  0  0
  1 11  1  0  0  0  0
  1  6  2  0  0  0  0
  2  5  1  0  0  0  0
  2 31  1  0  0  0  0
  3 10  1  0  0  0  0
  4  2  2  0  0  0  0
  5  3  2  0  0  0  0
  6  9  1  0  0  0  0
  7  9  2  0  0  0  0
  7 12  1  0  0  0  0
  8  6  1  0  0  0  0
  8  4  1  0  0  0  0
  9  5  1  0  0  0  0
 10 13  1  0  0  0  0
 11  7  1  0  0  0  0
 12 10  2  0  0  0  0
 15 14  2  0  0  0  0
 15 13  1  0  0  0  0
 16 21  1  0  0  0  0
 17 20  1  0  0  0  0
 18 16  2  0  0  0  0
 19 18  1  0  0  0  0
 19 17  2  0  0  0  0
 20 21  2  0  0  0  0
 20 15  1  0  0  0  0
 22 18  1  0  0  0  0
 23 22  1  0  0  0  0
 24 14  1  0  0  0  0
 25 24  1  0  0  0  0
 26 29  2  0  0  0  0
 27 30  1  0  0  0  0
 28 29  1  0  0  0  0
 29 30  1  0  0  0  0
 30 25  1  0  0  0  0
 32 31  1  1  0  0  0
 32 41  1  0  0  0  0
 33 32  1  0  0  0  0
 34 33  1  0  0  0  0
 35 34  1  0  0  0  0
 36 37  1  0  0  0  0
 36 35  1  0  0  0  0
 38 39  1  0  0  0  0
 39 37  1  0  0  0  0
 40 39  1  0  0  0  0
 41 43  1  0  0  0  0
 42 43  1  0  0  0  0
 43 44  1  1  0  0  0
M  END
>  <MODEL>
2

>  <REMARK>
 VINA RESULT:      -6.4      3.427      8.608
  Name = 
  17 active torsions:
  status: ('A' for Active; 'I' for Inactive)
    1  A    between atoms: C_3  and  C_12
    2  A    between atoms: C_3  and  C_16
    3  A    between atoms: C_5  and  C_6
    4  A    between atoms: C_5  and  C_12
    5  A    between atoms: C_9  and  C_33
    6  A    between atoms: C_9  and  N_40
    7  A    between atoms: C_11  and  O_25
    8  A    between atoms: C_12  and  N_40
    9  A    between atoms: C_17  and  N_32
   10  A    between atoms: C_21  and  C_35
   11  A    between atoms: C_21  and  C_42
   12  A    between atoms: C_22  and  C_41
   13  A    between atoms: C_28  and  C_35
   14  A    between atoms: C_31  and  N_39
   15  A    between atoms: C_31  and  C_41
   16  A    between atoms: N_32  and  C_37
   17  A    between atoms: C_33  and  C_37
                            x       y       z     vdW  Elec       q    Type
                         _______ _______ _______ _____ _____    ______ ____

>  <TORSDO>
F 17

$$$$
=
 OpenBabel11062422163D

 44 47  0  0  1  0  0  0  0  0999 V2000
  190.7650  176.2560  147.6550 N   0  0  0  0  0  0  0  0  0  0  0  0
  189.2380  177.7210  144.1590 C   0  0  0  0  0  0  0  0  0  0  0  0
  191.5730  176.8870  143.3050 C   0  0  0  0  0  3  0  0  0  0  0  0
  188.4580  177.7330  145.1850 N   0  0  0  0  0  0  0  0  0  0  0  0
  190.6480  177.1890  144.2620 C   0  0  0  0  0  0  0  0  0  0  0  0
  190.1850  176.8610  146.6020 C   0  0  0  0  0  0  0  0  0  0  0  0
  192.0920  176.1960  145.9470 C   0  0  0  0  0  0  0  0  0  0  0  0
  188.8500  177.3300  146.4650 N   0  0  0  0  0  2  0  0  0  0  0  0
  190.9930  176.8250  145.5520 C   0  0  0  0  0  0  0  0  0  0  0  0
  192.8810  176.3820  143.6410 C   0  0  0  0  0  0  0  0  0  0  0  0
  191.9980  175.8510  147.2010 N   0  0  0  0  0  2  0  0  0  0  0  0
  193.1200  175.9550  144.9750 C   0  0  0  0  0  3  0  0  0  0  0  0
  193.7630  175.8990  142.4670 C   0  0  0  0  0  2  0  0  0  0  0  0
  192.9500  174.3900  140.8460 C   0  0  0  0  0  3  0  0  0  0  0  0
  193.7380  174.4810  141.9880 C   0  0  0  0  0  0  0  0  0  0  0  0
  195.4480  171.4870  143.6370 C   0  0  0  0  0  3  0  0  0  0  0  0
  192.9400  172.6890  143.4280 C   0  0  0  0  0  3  0  0  0  0  0  0
  194.3220  170.9050  144.2870 C   0  0  0  0  0  0  0  0  0  0  0  0
  193.0880  171.5390  144.1850 C   0  0  0  0  0  3  0  0  0  0  0  0
  193.9940  173.2370  142.7340 C   0  0  0  0  0  0  0  0  0  0  0  0
  195.3020  172.6460  142.8850 C   0  0  0  0  0  3  0  0  0  0  0  0
  194.3920  169.7390  145.0220 O   0  0  0  0  0  0  0  0  0  0  0  0
  194.9530  169.6780  146.3250 C   0  0  0  0  0  1  0  0  0  0  0  0
  192.5490  173.2150  140.0800 C   0  0  0  0  0  2  0  0  0  0  0  0
  191.1420  173.4190  139.5490 C   0  0  0  0  0  2  0  0  0  0  0  0
  188.1070  172.3280  139.0190 O   0  0  0  0  0  1  0  0  0  0  0  0
  190.3620  171.4520  140.8680 O   0  0  0  0  0  1  0  0  0  0  0  0
  189.5800  170.9370  137.8700 O   0  0  0  0  0  0  0  0  0  0  0  0
  189.2990  171.8830  138.8540 C   0  0  0  0  0  0  0  0  0  0  0  0
  190.2530  172.2710  139.7810 N   0  0  0  0  0  0  0  0  0  0  0  0
  188.6340  178.0370  142.8110 C   0  0  0  0  0  2  0  0  0  0  0  0
  187.9050  176.8390  142.1160 C   0  0  2  0  0  3  0  0  0  0  0  0
  186.6330  177.0720  141.4230 N   0  0  0  0  0  2  0  0  0  0  0  0
  186.0140  178.3180  141.8830 C   0  0  0  0  0  2  0  0  0  0  0  0
  184.5900  178.0140  142.3330 C   0  0  0  0  0  2  0  0  0  0  0  0
  184.1480  178.6700  143.6330 C   0  0  0  0  0  2  0  0  0  0  0  0
  185.2720  178.6730  144.5770 N   0  0  0  0  0  2  0  0  0  0  0  0
  185.4860  179.0730  146.9470 C   0  0  0  0  0  1  0  0  0  0  0  0
  184.7980  178.2280  145.8660 C   0  0  0  0  0  3  0  0  0  0  0  0
  185.1560  176.7780  146.1490 C   0  0  0  0  0  1  0  0  0  0  0  0
  187.8290  175.5400  142.9330 C   0  0  0  0  0  2  0  0  0  0  0  0
  187.6920  173.3210  141.9930 O   0  0  0  0  0  1  0  0  0  0  0  0
  188.5800  174.3430  142.3290 C   0  0  2  0  0  3  0  0  0  0  0  0
  189.6330  173.8010  143.3020 C   0  0  0  0  0  1  0  0  0  0  0  0
  2  5  1  0  0  0  0
  2  4  2  0  0  0  0
  3 10  2  0  0  0  0
  3  5  1  0  0  0  0
  4  8  1  0  0  0  0
  5  9  2  0  0  0  0
  6  1  2  0  0  0  0
  7 11  1  0  0  0  0
  8  6  1  0  0  0  0
  9  7  1  0  0  0  0
  9  6  1  0  0  0  0
 10 12  1  0  0  0  0
 11  1  1  0  0  0  0
 12  7  2  0  0  0  0
 13 10  1  0  0  0  0
 14 15  2  0  0  0  0
 15 13  1  0  0  0  0
 15 20  1  0  0  0  0
 16 18  1  0  0  0  0
 17 19  1  0  0  0  0
 18 22  1  0  0  0  0
 19 18  2  0  0  0  0
 20 21  1  0  0  0  0
 20 17  2  0  0  0  0
 21 16  2  0  0  0  0
 22 23  1  0  0  0  0
 24 14  1  0  0  0  0
 25 30  1  0  0  0  0
 25 24  1  0  0  0  0
 28 29  2  0  0  0  0
 29 26  1  0  0  0  0
 29 30  1  0  0  0  0
 30 27  1  0  0  0  0
 31  2  1  0  0  0  0
 32 31  1  1  0  0  0
 32 41  1  0  0  0  0
 33 34  1  0  0  0  0
 33 32  1  0  0  0  0
 34 35  1  0  0  0  0
 35 36  1  0  0  0  0
 36 37  1  0  0  0  0
 37 39  1  0  0  0  0
 39 40  1  0  0  0  0
 39 38  1  0  0  0  0
 42 43  1  0  0  0  0
 43 41  1  0  0  0  0
 43 44  1  1  0  0  0
M  END
>  <MODEL>
3

>  <REMARK>
 VINA RESULT:      -6.4      2.993      5.660
  Name = 
  17 active torsions:
  status: ('A' for Active; 'I' for Inactive)
    1  A    between atoms: C_3  and  C_12
    2  A    between atoms: C_3  and  C_16
    3  A    between atoms: C_5  and  C_6
    4  A    between atoms: C_5  and  C_12
    5  A    between atoms: C_9  and  C_33
    6  A    between atoms: C_9  and  N_40
    7  A    between atoms: C_11  and  O_25
    8  A    between atoms: C_12  and  N_40
    9  A    between atoms: C_17  and  N_32
   10  A    between atoms: C_21  and  C_35
   11  A    between atoms: C_21  and  C_42
   12  A    between atoms: C_22  and  C_41
   13  A    between atoms: C_28  and  C_35
   14  A    between atoms: C_31  and  N_39
   15  A    between atoms: C_31  and  C_41
   16  A    between atoms: N_32  and  C_37
   17  A    between atoms: C_33  and  C_37
                            x       y       z     vdW  Elec       q    Type
                         _______ _______ _______ _____ _____    ______ ____

>  <TORSDO>
F 17

$$$$
=
 OpenBabel11062422163D

 44 47  0  0  1  0  0  0  0  0999 V2000
  187.8170  175.1070  139.6670 N   0  0  0  0  0  0  0  0  0  0  0  0
  188.6200  177.0540  143.1690 C   0  0  0  0  0  0  0  0  0  0  0  0
  189.7920  174.7600  143.6600 C   0  0  0  0  0  3  0  0  0  0  0  0
  188.0220  177.7320  142.2500 N   0  0  0  0  0  0  0  0  0  0  0  0
  188.9970  175.6080  142.9470 C   0  0  0  0  0  0  0  0  0  0  0  0
  187.9240  175.8240  140.8010 C   0  0  0  0  0  0  0  0  0  0  0  0
  188.8440  173.9480  141.1770 C   0  0  0  0  0  0  0  0  0  0  0  0
  187.6190  177.1940  141.0250 N   0  0  0  0  0  2  0  0  0  0  0  0
  188.5550  175.1190  141.7290 C   0  0  0  0  0  0  0  0  0  0  0  0
  190.0140  173.3960  143.2520 C   0  0  0  0  0  0  0  0  0  0  0  0
  188.4080  173.8980  139.9490 N   0  0  0  0  0  2  0  0  0  0  0  0
  189.5990  173.0030  141.9510 C   0  0  0  0  0  3  0  0  0  0  0  0
  191.0820  172.5990  144.0340 C   0  0  0  0  0  2  0  0  0  0  0  0
  193.2700  172.6620  144.9160 C   0  0  0  0  0  3  0  0  0  0  0  0
  192.5430  172.7240  143.7330 C   0  0  0  0  0  0  0  0  0  0  0  0
  194.2000  173.2250  140.3250 C   0  0  0  0  0  3  0  0  0  0  0  0
  193.3310  174.6890  142.5340 C   0  0  0  0  0  3  0  0  0  0  0  0
  194.3770  174.6380  140.3590 C   0  0  0  0  0  0  0  0  0  0  0  0
  193.9130  175.3450  141.4620 C   0  0  0  0  0  3  0  0  0  0  0  0
  193.2080  173.3200  142.5610 C   0  0  0  0  0  0  0  0  0  0  0  0
  193.6080  172.5670  141.3960 C   0  0  0  0  0  3  0  0  0  0  0  0
  194.9850  175.3480  139.3430 O   0  0  0  0  0  0  0  0  0  0  0  0
  196.2530  174.9990  138.8060 C   0  0  0  0  0  1  0  0  0  0  0  0
  194.7000  172.8310  145.1430 C   0  0  0  0  0  2  0  0  0  0  0  0
  195.4420  171.6280  144.5930 C   0  0  0  0  0  2  0  0  0  0  0  0
  197.1540  171.7700  141.8120 O   0  0  0  0  0  0  0  0  0  0  0  0
  197.9250  171.7820  144.7580 O   0  0  0  0  0  1  0  0  0  0  0  0
  196.9930  173.9310  142.6670 O   0  0  0  0  0  1  0  0  0  0  0  0
  196.9300  172.5460  142.8090 C   0  0  0  0  0  0  0  0  0  0  0  0
  196.7700  171.9510  144.0500 N   0  0  0  0  0  0  0  0  0  0  0  0
  189.1330  177.8030  144.3750 C   0  0  0  0  0  2  0  0  0  0  0  0
  188.2150  177.7300  145.6400 C   0  0  2  0  0  3  0  0  0  0  0  0
  188.6870  177.0210  146.8350 N   0  0  0  0  0  2  0  0  0  0  0  0
  188.1180  175.6710  146.8940 C   0  0  0  0  0  2  0  0  0  0  0  0
  189.2290  174.6930  147.2590 C   0  0  0  0  0  2  0  0  0  0  0  0
  190.5460  175.3170  147.6990 C   0  0  0  0  0  2  0  0  0  0  0  0
  191.6080  174.8990  146.7770 N   0  0  0  0  0  2  0  0  0  0  0  0
  192.2560  177.0050  147.7600 C   0  0  0  0  0  1  0  0  0  0  0  0
  192.6030  175.9430  146.7080 C   0  0  0  0  0  3  0  0  0  0  0  0
  192.6150  176.6470  145.3610 C   0  0  0  0  0  1  0  0  0  0  0  0
  186.7410  177.3880  145.3750 C   0  0  0  0  0  2  0  0  0  0  0  0
  184.4980  177.9890  146.0360 O   0  0  0  0  0  1  0  0  0  0  0  0
  185.7420  178.5140  145.6860 C   0  0  2  0  0  3  0  0  0  0  0  0
  185.5780  179.4570  144.4890 C   0  0  0  0  0  1  0  0  0  0  0  0
  1 11  1  0  0  0  0
  1  6  2  0  0  0  0
  2 31  1  0  0  0  0
  4  2  2  0  0  0  0
  5  2  1  0  0  0  0
  5  3  2  0  0  0  0
  6  8  1  0  0  0  0
  6  9  1  0  0  0  0
  7  9  2  0  0  0  0
  7 12  1  0  0  0  0
  8  4  1  0  0  0  0
  9  5  1  0  0  0  0
 10  3  1  0  0  0  0
 10 13  1  0  0  0  0
 11  7  1  0  0  0  0
 12 10  2  0  0  0  0
 14 24  1  0  0  0  0
 15 13  1  0  0  0  0
 15 14  2  0  0  0  0
 16 18  2  0  0  0  0
 16 21  1  0  0  0  0
 17 20  1  0  0  0  0
 18 19  1  0  0  0  0
 19 17  2  0  0  0  0
 20 15  1  0  0  0  0
 21 20  2  0  0  0  0
 22 18  1  0  0  0  0
 23 22  1  0  0  0  0
 25 24  1  0  0  0  0
 26 29  2  0  0  0  0
 28 29  1  0  0  0  0
 29 30  1  0  0  0  0
 30 25  1  0  0  0  0
 30 27  1  0  0  0  0
 32 31  1  6  0  0  0
 32 33  1  0  0  0  0
 33 34  1  0  0  0  0
 34 35  1  0  0  0  0
 35 36  1  0  0  0  0
 37 36  1  0  0  0  0
 39 37  1  0  0  0  0
 39 38  1  0  0  0  0
 40 39  1  0  0  0  0
 41 32  1  0  0  0  0
 41 43  1  0  0  0  0
 43 44  1  6  0  0  0
 43 42  1  0  0  0  0
M  END
>  <MODEL>
4

>  <REMARK>
 VINA RESULT:      -6.3      1.995      3.946
  Name = 
  17 active torsions:
  status: ('A' for Active; 'I' for Inactive)
    1  A    between atoms: C_3  and  C_12
    2  A    between atoms: C_3  and  C_16
    3  A    between atoms: C_5  and  C_6
    4  A    between atoms: C_5  and  C_12
    5  A    between atoms: C_9  and  C_33
    6  A    between atoms: C_9  and  N_40
    7  A    between atoms: C_11  and  O_25
    8  A    between atoms: C_12  and  N_40
    9  A    between atoms: C_17  and  N_32
   10  A    between atoms: C_21  and  C_35
   11  A    between atoms: C_21  and  C_42
   12  A    between atoms: C_22  and  C_41
   13  A    between atoms: C_28  and  C_35
   14  A    between atoms: C_31  and  N_39
   15  A    between atoms: C_31  and  C_41
   16  A    between atoms: N_32  and  C_37
   17  A    between atoms: C_33  and  C_37
                            x       y       z     vdW  Elec       q    Type
                         _______ _______ _______ _____ _____    ______ ____

>  <TORSDO>
F 17

$$$$
=
 OpenBabel11062422163D

 44 47  0  0  1  0  0  0  0  0999 V2000
  187.4730  175.7220  139.5420 N   0  0  0  0  0  0  0  0  0  0  0  0
  188.1420  177.3520  143.2290 C   0  0  0  0  0  0  0  0  0  0  0  0
  189.1890  174.9780  143.6010 C   0  0  0  0  0  3  0  0  0  0  0  0
  187.6280  178.1260  142.3350 N   0  0  0  0  0  0  0  0  0  0  0  0
  188.4720  175.9130  142.9130 C   0  0  0  0  0  0  0  0  0  0  0  0
  187.5400  176.3430  140.7350 C   0  0  0  0  0  0  0  0  0  0  0  0
  188.3600  174.4040  141.0110 C   0  0  0  0  0  0  0  0  0  0  0  0
  187.2780  177.7030  141.0490 N   0  0  0  0  0  2  0  0  0  0  0  0
  188.0860  175.5400  141.6370 C   0  0  0  0  0  0  0  0  0  0  0  0
  189.3800  173.6410  143.0970 C   0  0  0  0  0  0  0  0  0  0  0  0
  187.9970  174.4700  139.7590 N   0  0  0  0  0  2  0  0  0  0  0  0
  189.0280  173.3680  141.7470 C   0  0  0  0  0  3  0  0  0  0  0  0
  190.3660  172.7380  143.8730 C   0  0  0  0  0  2  0  0  0  0  0  0
  192.1360  173.6400  142.6000 C   0  0  0  0  0  3  0  0  0  0  0  0
  191.8490  172.8730  143.7240 C   0  0  0  0  0  0  0  0  0  0  0  0
  194.7880  171.5120  145.7530 C   0  0  0  0  0  3  0  0  0  0  0  0
  192.9760  170.7180  143.7870 C   0  0  0  0  0  3  0  0  0  0  0  0
  194.8610  170.1990  145.2040 C   0  0  0  0  0  0  0  0  0  0  0  0
  193.9300  169.8220  144.2420 C   0  0  0  0  0  3  0  0  0  0  0  0
  192.9240  172.0130  144.2470 C   0  0  0  0  0  0  0  0  0  0  0  0
  193.8260  172.4070  145.3020 C   0  0  0  0  0  3  0  0  0  0  0  0
  195.8110  169.2730  145.5830 O   0  0  0  0  0  0  0  0  0  0  0  0
  196.9110  169.5910  146.4240 C   0  0  0  0  0  1  0  0  0  0  0  0
  193.4220  173.9640  141.9940 C   0  0  0  0  0  2  0  0  0  0  0  0
  194.0380  175.1430  142.7240 C   0  0  0  0  0  2  0  0  0  0  0  0
  196.6680  176.4390  141.2790 O   0  0  0  0  0  0  0  0  0  0  0  0
  196.2380  174.0280  143.0870 O   0  0  0  0  0  1  0  0  0  0  0  0
  196.6720  177.1090  143.5100 O   0  0  0  0  0  1  0  0  0  0  0  0
  196.2570  176.2650  142.4820 C   0  0  0  0  0  0  0  0  0  0  0  0
  195.5080  175.1270  142.7350 N   0  0  0  0  0  0  0  0  0  0  0  0
  188.6110  177.9820  144.5190 C   0  0  0  0  0  2  0  0  0  0  0  0
  187.8080  177.5580  145.7930 C   0  0  2  0  0  3  0  0  0  0  0  0
  188.5080  176.9000  146.9020 N   0  0  0  0  0  2  0  0  0  0  0  0
  188.1960  175.4680  146.9340 C   0  0  0  0  0  2  0  0  0  0  0  0
  189.4390  174.7130  147.3900 C   0  0  0  0  0  2  0  0  0  0  0  0
  190.7270  175.5220  147.4470 C   0  0  0  0  0  2  0  0  0  0  0  0
  191.7310  174.8870  146.5860 N   0  0  0  0  0  2  0  0  0  0  0  0
  193.0210  176.8120  147.2590 C   0  0  0  0  0  1  0  0  0  0  0  0
  192.6260  175.9050  146.0860 C   0  0  0  0  0  3  0  0  0  0  0  0
  191.9700  176.7950  145.0430 C   0  0  0  0  0  1  0  0  0  0  0  0
  186.4640  176.8600  145.5320 C   0  0  0  0  0  2  0  0  0  0  0  0
  184.8540  178.3120  144.4710 O   0  0  0  0  0  1  0  0  0  0  0  0
  185.2230  177.7520  145.6940 C   0  0  2  0  0  3  0  0  0  0  0  0
  185.4720  178.8710  146.7110 C   0  0  0  0  0  1  0  0  0  0  0  0
  1 11  1  0  0  0  0
  1  6  2  0  0  0  0
  2 31  1  0  0  0  0
  4  2  2  0  0  0  0
  5  2  1  0  0  0  0
  5  3  2  0  0  0  0
  6  8  1  0  0  0  0
  6  9  1  0  0  0  0
  7  9  2  0  0  0  0
  7 12  1  0  0  0  0
  8  4  1  0  0  0  0
  9  5  1  0  0  0  0
 10  3  1  0  0  0  0
 10 13  1  0  0  0  0
 11  7  1  0  0  0  0
 12 10  2  0  0  0  0
 14 15  2  0  0  0  0
 15 13  1  0  0  0  0
 15 20  1  0  0  0  0
 17 19  2  0  0  0  0
 17 20  1  0  0  0  0
 18 22  1  0  0  0  0
 18 16  2  0  0  0  0
 19 18  1  0  0  0  0
 20 21  2  0  0  0  0
 21 16  1  0  0  0  0
 22 23  1  0  0  0  0
 24 14  1  0  0  0  0
 24 25  1  0  0  0  0
 25 30  1  0  0  0  0
 26 29  2  0  0  0  0
 29 30  1  0  0  0  0
 29 28  1  0  0  0  0
 30 27  1  0  0  0  0
 32 31  1  6  0  0  0
 32 33  1  0  0  0  0
 33 34  1  0  0  0  0
 34 35  1  0  0  0  0
 35 36  1  0  0  0  0
 37 36  1  0  0  0  0
 39 37  1  0  0  0  0
 39 38  1  0  0  0  0
 40 39  1  0  0  0  0
 41 43  1  0  0  0  0
 41 32  1  0  0  0  0
 42 43  1  0  0  0  0
 43 44  1  1  0  0  0
M  END
>  <MODEL>
5

>  <REMARK>
 VINA RESULT:      -6.2      2.246      4.422
  Name = 
  17 active torsions:
  status: ('A' for Active; 'I' for Inactive)
    1  A    between atoms: C_3  and  C_12
    2  A    between atoms: C_3  and  C_16
    3  A    between atoms: C_5  and  C_6
    4  A    between atoms: C_5  and  C_12
    5  A    between atoms: C_9  and  C_33
    6  A    between atoms: C_9  and  N_40
    7  A    between atoms: C_11  and  O_25
    8  A    between atoms: C_12  and  N_40
    9  A    between atoms: C_17  and  N_32
   10  A    between atoms: C_21  and  C_35
   11  A    between atoms: C_21  and  C_42
   12  A    between atoms: C_22  and  C_41
   13  A    between atoms: C_28  and  C_35
   14  A    between atoms: C_31  and  N_39
   15  A    between atoms: C_31  and  C_41
   16  A    between atoms: N_32  and  C_37
   17  A    between atoms: C_33  and  C_37
                            x       y       z     vdW  Elec       q    Type
                         _______ _______ _______ _____ _____    ______ ____

>  <TORSDO>
F 17

$$$$
=
 OpenBabel11062422163D

 44 47  0  0  1  0  0  0  0  0999 V2000
  190.3440  172.5110  138.4150 N   0  0  0  0  0  0  0  0  0  0  0  0
  193.4700  172.7850  141.0330 C   0  0  0  0  0  0  0  0  0  0  0  0
  191.5730  173.8480  142.4980 C   0  0  0  0  0  3  0  0  0  0  0  0
  193.6970  172.1820  139.9170 N   0  0  0  0  0  0  0  0  0  0  0  0
  192.1080  173.3600  141.3420 C   0  0  0  0  0  0  0  0  0  0  0  0
  191.4750  172.6300  139.1360 C   0  0  0  0  0  0  0  0  0  0  0  0
  189.9220  173.5060  140.2890 C   0  0  0  0  0  0  0  0  0  0  0  0
  192.7550  172.0630  138.8910 N   0  0  0  0  0  2  0  0  0  0  0  0
  191.2200  173.2370  140.2870 C   0  0  0  0  0  0  0  0  0  0  0  0
  190.2250  174.3540  142.5620 C   0  0  0  0  0  0  0  0  0  0  0  0
  189.3660  173.0990  139.1810 N   0  0  0  0  0  2  0  0  0  0  0  0
  189.3580  174.1100  141.4630 C   0  0  0  0  0  3  0  0  0  0  0  0
  189.6750  174.6980  143.9650 C   0  0  0  0  0  2  0  0  0  0  0  0
  189.2670  176.3350  145.6140 C   0  0  0  0  0  3  0  0  0  0  0  0
  189.0660  176.0300  144.2730 C   0  0  0  0  0  0  0  0  0  0  0  0
  187.1380  178.5240  142.1110 C   0  0  0  0  0  3  0  0  0  0  0  0
  186.7380  176.1860  143.5790 C   0  0  0  0  0  3  0  0  0  0  0  0
  185.8370  177.9510  142.2000 C   0  0  0  0  0  0  0  0  0  0  0  0
  185.6710  176.7730  142.9190 C   0  0  0  0  0  3  0  0  0  0  0  0
  187.9920  176.7520  143.5680 C   0  0  0  0  0  0  0  0  0  0  0  0
  188.2110  177.9310  142.7650 C   0  0  0  0  0  3  0  0  0  0  0  0
  184.7240  178.5060  141.6020 O   0  0  0  0  0  0  0  0  0  0  0  0
  183.3990  178.2650  142.0540 C   0  0  0  0  0  1  0  0  0  0  0  0
  188.7790  177.4630  146.3980 C   0  0  0  0  0  2  0  0  0  0  0  0
  187.4470  177.1000  147.0260 C   0  0  0  0  0  2  0  0  0  0  0  0
  185.8300  179.3880  145.3430 O   0  0  0  0  0  0  0  0  0  0  0  0
  186.5300  179.0460  148.2860 O   0  0  0  0  0  1  0  0  0  0  0  0
  184.2590  178.0150  146.3790 O   0  0  0  0  0  1  0  0  0  0  0  0
  185.5490  178.5270  146.2520 C   0  0  0  0  0  0  0  0  0  0  0  0
  186.5360  178.2430  147.1810 N   0  0  0  0  0  0  0  0  0  0  0  0
  194.5290  172.7000  142.1070 C   0  0  0  0  0  2  0  0  0  0  0  0
  195.7910  173.5910  141.8630 C   0  0  2  0  0  3  0  0  0  0  0  0
  196.8270  173.6750  142.8990 N   0  0  0  0  0  2  0  0  0  0  0  0
  196.6800  174.9070  143.6800 C   0  0  0  0  0  2  0  0  0  0  0  0
  196.4820  174.5310  145.1440 C   0  0  0  0  0  2  0  0  0  0  0  0
  195.0430  174.5190  145.6400 C   0  0  0  0  0  2  0  0  0  0  0  0
  194.7300  175.8210  146.2380 N   0  0  0  0  0  2  0  0  0  0  0  0
  192.5940  174.7000  146.2850 C   0  0  0  0  0  1  0  0  0  0  0  0
  193.3080  176.0500  146.1370 C   0  0  0  0  0  3  0  0  0  0  0  0
  192.9040  176.6140  144.7840 C   0  0  0  0  0  1  0  0  0  0  0  0
  195.5200  174.9860  141.2780 C   0  0  0  0  0  2  0  0  0  0  0  0
  195.0430  175.2180  138.9230 O   0  0  0  0  0  1  0  0  0  0  0  0
  196.0740  175.2200  139.8630 C   0  0  2  0  0  3  0  0  0  0  0  0
  197.1060  174.1520  139.4880 C   0  0  0  0  0  1  0  0  0  0  0  0
  1  6  2  0  0  0  0
  1 11  1  0  0  0  0
  2  5  1  0  0  0  0
  2 31  1  0  0  0  0
  3 10  1  0  0  0  0
  4  2  2  0  0  0  0
  5  3  2  0  0  0  0
  6  9  1  0  0  0  0
  7 12  1  0  0  0  0
  8  6  1  0  0  0  0
  8  4  1  0  0  0  0
  9  7  2  0  0  0  0
  9  5  1  0  0  0  0
 10 13  1  0  0  0  0
 11  7  1  0  0  0  0
 12 10  2  0  0  0  0
 13 15  1  0  0  0  0
 14 24  1  0  0  0  0
 15 14  2  0  0  0  0
 16 18  2  0  0  0  0
 16 21  1  0  0  0  0
 18 19  1  0  0  0  0
 19 17  2  0  0  0  0
 20 17  1  0  0  0  0
 20 15  1  0  0  0  0
 21 20  2  0  0  0  0
 22 23  1  0  0  0  0
 22 18  1  0  0  0  0
 24 25  1  0  0  0  0
 25 30  1  0  0  0  0
 26 29  2  0  0  0  0
 29 28  1  0  0  0  0
 29 30  1  0  0  0  0
 30 27  1  0  0  0  0
 32 41  1  1  0  0  0
 32 31  1  0  0  0  0
 32 33  1  0  0  0  0
 33 34  1  0  0  0  0
 34 35  1  0  0  0  0
 35 36  1  0  0  0  0
 36 37  1  0  0  0  0
 39 37  1  0  0  0  0
 39 38  1  0  0  0  0
 40 39  1  0  0  0  0
 42 43  1  0  0  0  0
 43 44  1  6  0  0  0
 43 41  1  0  0  0  0
M  END
>  <MODEL>
6

>  <REMARK>
 VINA RESULT:      -6.2      2.795      8.404
  Name = 
  17 active torsions:
  status: ('A' for Active; 'I' for Inactive)
    1  A    between atoms: C_3  and  C_12
    2  A    between atoms: C_3  and  C_16
    3  A    between atoms: C_5  and  C_6
    4  A    between atoms: C_5  and  C_12
    5  A    between atoms: C_9  and  C_33
    6  A    between atoms: C_9  and  N_40
    7  A    between atoms: C_11  and  O_25
    8  A    between atoms: C_12  and  N_40
    9  A    between atoms: C_17  and  N_32
   10  A    between atoms: C_21  and  C_35
   11  A    between atoms: C_21  and  C_42
   12  A    between atoms: C_22  and  C_41
   13  A    between atoms: C_28  and  C_35
   14  A    between atoms: C_31  and  N_39
   15  A    between atoms: C_31  and  C_41
   16  A    between atoms: N_32  and  C_37
   17  A    between atoms: C_33  and  C_37
                            x       y       z     vdW  Elec       q    Type
                         _______ _______ _______ _____ _____    ______ ____

>  <TORSDO>
F 17

$$$$
=
 OpenBabel11062422163D

 44 47  0  0  1  0  0  0  0  0999 V2000
  186.1340  177.6450  139.4790 N   0  0  0  0  0  0  0  0  0  0  0  0
  188.2980  174.2260  138.9060 C   0  0  0  0  0  0  0  0  0  0  0  0
  188.5490  174.4770  141.5030 C   0  0  0  0  0  3  0  0  0  0  0  0
  187.7020  174.7170  137.8740 N   0  0  0  0  0  0  0  0  0  0  0  0
  188.1940  174.8960  140.2550 C   0  0  0  0  0  0  0  0  0  0  0  0
  186.8970  176.5900  139.1380 C   0  0  0  0  0  0  0  0  0  0  0  0
  187.1000  176.8330  141.2370 C   0  0  0  0  0  0  0  0  0  0  0  0
  186.9790  175.9140  137.8900 N   0  0  0  0  0  2  0  0  0  0  0  0
  187.4880  176.0870  140.2120 C   0  0  0  0  0  0  0  0  0  0  0  0
  188.3520  175.2990  142.6710 C   0  0  0  0  0  0  0  0  0  0  0  0
  186.3000  177.7830  140.8370 N   0  0  0  0  0  2  0  0  0  0  0  0
  187.5450  176.4630  142.5500 C   0  0  0  0  0  3  0  0  0  0  0  0
  188.6170  174.6380  144.0420 C   0  0  0  0  0  2  0  0  0  0  0  0
  188.0450  176.2590  145.6580 C   0  0  0  0  0  3  0  0  0  0  0  0
  189.0740  175.4280  145.2280 C   0  0  0  0  0  0  0  0  0  0  0  0
  192.3410  175.6840  147.1960 C   0  0  0  0  0  3  0  0  0  0  0  0
  191.2370  176.4320  144.7460 C   0  0  0  0  0  3  0  0  0  0  0  0
  193.1150  176.4310  146.2620 C   0  0  0  0  0  0  0  0  0  0  0  0
  192.5480  176.7700  145.0390 C   0  0  0  0  0  3  0  0  0  0  0  0
  190.4420  175.7710  145.6530 C   0  0  0  0  0  0  0  0  0  0  0  0
  191.0290  175.3380  146.8980 C   0  0  0  0  0  3  0  0  0  0  0  0
  194.4120  176.8350  146.5090 O   0  0  0  0  0  0  0  0  0  0  0  0
  195.0730  177.8310  145.7410 C   0  0  0  0  0  1  0  0  0  0  0  0
  188.0410  177.2740  146.7050 C   0  0  0  0  0  2  0  0  0  0  0  0
  186.6390  177.4070  147.2690 C   0  0  0  0  0  2  0  0  0  0  0  0
  185.8820  179.5340  144.9040 O   0  0  0  0  0  0  0  0  0  0  0  0
  186.0740  179.7430  147.9360 O   0  0  0  0  0  1  0  0  0  0  0  0
  183.8950  178.8060  145.8780 O   0  0  0  0  0  1  0  0  0  0  0  0
  185.2760  178.9880  145.8940 C   0  0  0  0  0  0  0  0  0  0  0  0
  186.0290  178.7230  147.0280 N   0  0  0  0  0  0  0  0  0  0  0  0
  188.9080  172.8510  138.7770 C   0  0  0  0  0  2  0  0  0  0  0  0
  190.4700  172.8250  138.6970 C   0  0  2  0  0  3  0  0  0  0  0  0
  191.2560  172.7440  139.9330 N   0  0  0  0  0  2  0  0  0  0  0  0
  192.3570  173.7120  139.9110 C   0  0  0  0  0  2  0  0  0  0  0  0
  192.3150  174.5210  141.2010 C   0  0  0  0  0  2  0  0  0  0  0  0
  192.0540  173.7300  142.4750 C   0  0  0  0  0  2  0  0  0  0  0  0
  193.3170  173.5560  143.2010 N   0  0  0  0  0  2  0  0  0  0  0  0
  191.6470  172.3800  144.4870 C   0  0  0  0  0  1  0  0  0  0  0  0
  193.1470  172.5160  144.1880 C   0  0  0  0  0  3  0  0  0  0  0  0
  193.8280  172.8470  145.5050 C   0  0  0  0  0  1  0  0  0  0  0  0
  191.1050  173.8420  137.7360 C   0  0  0  0  0  2  0  0  0  0  0  0
  191.8410  172.8640  135.6550 O   0  0  0  0  0  1  0  0  0  0  0  0
  190.8150  173.6030  136.2460 C   0  0  2  0  0  3  0  0  0  0  0  0
  190.6470  174.9280  135.4940 C   0  0  0  0  0  1  0  0  0  0  0  0
  1 11  1  0  0  0  0
  2  5  1  0  0  0  0
  3 10  1  0  0  0  0
  4  8  1  0  0  0  0
  4  2  2  0  0  0  0
  5  3  2  0  0  0  0
  6  1  2  0  0  0  0
  6  9  1  0  0  0  0
  7 12  1  0  0  0  0
  8  6  1  0  0  0  0
  9  5  1  0  0  0  0
  9  7  2  0  0  0  0
 10 13  1  0  0  0  0
 11  7  1  0  0  0  0
 12 10  2  0  0  0  0
 13 15  1  0  0  0  0
 14 24  1  0  0  0  0
 15 20  1  0  0  0  0
 15 14  2  0  0  0  0
 17 19  2  0  0  0  0
 17 20  1  0  0  0  0
 18 22  1  0  0  0  0
 18 16  2  0  0  0  0
 19 18  1  0  0  0  0
 20 21  2  0  0  0  0
 21 16  1  0  0  0  0
 23 22  1  0  0  0  0
 24 25  1  0  0  0  0
 26 29  2  0  0  0  0
 28 29  1  0  0  0  0
 29 30  1  0  0  0  0
 30 25  1  0  0  0  0
 30 27  1  0  0  0  0
 31  2  1  0  0  0  0
 32 41  1  1  0  0  0
 32 31  1  0  0  0  0
 32 33  1  0  0  0  0
 34 33  1  0  0  0  0
 34 35  1  0  0  0  0
 35 36  1  0  0  0  0
 36 37  1  0  0  0  0
 37 39  1  0  0  0  0
 39 38  1  0  0  0  0
 39 40  1  0  0  0  0
 42 43  1  0  0  0  0
 43 44  1  6  0  0  0
 43 41  1  0  0  0  0
M  END
>  <MODEL>
7

>  <REMARK>
 VINA RESULT:      -6.1      2.774      7.763
  Name = 
  17 active torsions:
  status: ('A' for Active; 'I' for Inactive)
    1  A    between atoms: C_3  and  C_12
    2  A    between atoms: C_3  and  C_16
    3  A    between atoms: C_5  and  C_6
    4  A    between atoms: C_5  and  C_12
    5  A    between atoms: C_9  and  C_33
    6  A    between atoms: C_9  and  N_40
    7  A    between atoms: C_11  and  O_25
    8  A    between atoms: C_12  and  N_40
    9  A    between atoms: C_17  and  N_32
   10  A    between atoms: C_21  and  C_35
   11  A    between atoms: C_21  and  C_42
   12  A    between atoms: C_22  and  C_41
   13  A    between atoms: C_28  and  C_35
   14  A    between atoms: C_31  and  N_39
   15  A    between atoms: C_31  and  C_41
   16  A    between atoms: N_32  and  C_37
   17  A    between atoms: C_33  and  C_37
                            x       y       z     vdW  Elec       q    Type
                         _______ _______ _______ _____ _____    ______ ____

>  <TORSDO>
F 17

$$$$
=
 OpenBabel11062422163D

 44 47  0  0  1  0  0  0  0  0999 V2000
  190.2570  175.2430  148.0230 N   0  0  0  0  0  0  0  0  0  0  0  0
  189.8180  176.8990  144.3130 C   0  0  0  0  0  0  0  0  0  0  0  0
  192.4300  176.9790  144.5250 C   0  0  0  0  0  3  0  0  0  0  0  0
  188.7480  176.4680  144.8880 N   0  0  0  0  0  0  0  0  0  0  0  0
  191.1620  176.7920  144.9920 C   0  0  0  0  0  0  0  0  0  0  0  0
  189.9640  175.8600  146.8630 C   0  0  0  0  0  0  0  0  0  0  0  0
  192.0760  175.9320  147.0750 C   0  0  0  0  0  0  0  0  0  0  0  0
  188.7200  175.9380  146.1810 N   0  0  0  0  0  2  0  0  0  0  0  0
  191.0760  176.2810  146.2770 C   0  0  0  0  0  0  0  0  0  0  0  0
  193.5860  176.8180  145.3690 C   0  0  0  0  0  0  0  0  0  0  0  0
  191.6250  175.3190  148.1350 N   0  0  0  0  0  2  0  0  0  0  0  0
  193.4160  176.2090  146.6420 C   0  0  0  0  0  3  0  0  0  0  0  0
  194.9670  176.8700  144.6770 C   0  0  0  0  0  2  0  0  0  0  0  0
  196.0240  175.7720  142.8760 C   0  0  0  0  0  3  0  0  0  0  0  0
  195.6680  175.6310  144.2120 C   0  0  0  0  0  0  0  0  0  0  0  0
  194.4950  172.1270  145.1890 C   0  0  0  0  0  3  0  0  0  0  0  0
  196.7760  173.7300  145.2510 C   0  0  0  0  0  3  0  0  0  0  0  0
  195.7020  171.6290  145.7590 C   0  0  0  0  0  0  0  0  0  0  0  0
  196.8300  172.4410  145.7550 C   0  0  0  0  0  3  0  0  0  0  0  0
  195.6090  174.2640  144.7560 C   0  0  0  0  0  0  0  0  0  0  0  0
  194.4430  173.4170  144.6750 C   0  0  0  0  0  3  0  0  0  0  0  0
  195.8120  170.3710  146.3150 O   0  0  0  0  0  0  0  0  0  0  0  0
  197.0220  169.6270  146.3150 C   0  0  0  0  0  1  0  0  0  0  0  0
  196.6320  174.8090  141.9660 C   0  0  0  0  0  2  0  0  0  0  0  0
  196.5390  175.3330  140.5450 C   0  0  0  0  0  2  0  0  0  0  0  0
  194.1540  175.2670  138.3110 O   0  0  0  0  0  1  0  0  0  0  0  0
  195.6090  173.1120  139.8950 O   0  0  0  0  0  1  0  0  0  0  0  0
  196.1490  174.7110  137.2460 O   0  0  0  0  0  0  0  0  0  0  0  0
  195.3670  174.8590  138.3900 C   0  0  0  0  0  0  0  0  0  0  0  0
  195.8130  174.4370  139.6320 N   0  0  0  0  0  0  0  0  0  0  0  0
  189.7220  177.3010  142.8600 C   0  0  0  0  0  2  0  0  0  0  0  0
  188.3200  177.0750  142.2020 C   0  0  2  0  0  3  0  0  0  0  0  0
  188.1470  175.9970  141.2220 N   0  0  0  0  0  2  0  0  0  0  0  0
  187.6100  174.7950  141.8670 C   0  0  0  0  0  2  0  0  0  0  0  0
  188.2090  173.5710  141.1830 C   0  0  0  0  0  2  0  0  0  0  0  0
  189.5440  173.7860  140.4840 C   0  0  0  0  0  2  0  0  0  0  0  0
  190.5970  173.0920  141.2340 N   0  0  0  0  0  2  0  0  0  0  0  0
  192.6410  174.2870  141.7030 C   0  0  0  0  0  1  0  0  0  0  0  0
  191.2000  174.0220  142.1600 C   0  0  0  0  0  3  0  0  0  0  0  0
  191.2820  173.4660  143.5720 C   0  0  0  0  0  1  0  0  0  0  0  0
  187.5980  178.3430  141.7210 C   0  0  0  0  0  2  0  0  0  0  0  0
  185.9580  177.6900  143.3670 O   0  0  0  0  0  1  0  0  0  0  0  0
  186.1840  178.5450  142.2890 C   0  0  2  0  0  3  0  0  0  0  0  0
  185.1160  178.3040  141.2160 C   0  0  0  0  0  1  0  0  0  0  0  0
  1 11  1  0  0  0  0
  2  4  2  0  0  0  0
  2  5  1  0  0  0  0
  3  5  2  0  0  0  0
  3 10  1  0  0  0  0
  4  8  1  0  0  0  0
  5  9  1  0  0  0  0
  6  1  2  0  0  0  0
  7 11  1  0  0  0  0
  8  6  1  0  0  0  0
  9  6  1  0  0  0  0
  9  7  2  0  0  0  0
 10 12  2  0  0  0  0
 12  7  1  0  0  0  0
 13 10  1  0  0  0  0
 14 15  2  0  0  0  0
 15 13  1  0  0  0  0
 15 20  1  0  0  0  0
 16 18  1  0  0  0  0
 17 19  1  0  0  0  0
 18 22  1  0  0  0  0
 19 18  2  0  0  0  0
 20 17  2  0  0  0  0
 21 20  1  0  0  0  0
 21 16  2  0  0  0  0
 22 23  1  0  0  0  0
 24 14  1  0  0  0  0
 25 24  1  0  0  0  0
 26 29  1  0  0  0  0
 28 29  2  0  0  0  0
 29 30  1  0  0  0  0
 30 27  1  0  0  0  0
 30 25  1  0  0  0  0
 31  2  1  0  0  0  0
 32 41  1  6  0  0  0
 32 31  1  0  0  0  0
 33 34  1  0  0  0  0
 33 32  1  0  0  0  0
 35 34  1  0  0  0  0
 36 35  1  0  0  0  0
 36 37  1  0  0  0  0
 37 39  1  0  0  0  0
 38 39  1  0  0  0  0
 39 40  1  0  0  0  0
 41 43  1  0  0  0  0
 43 44  1  6  0  0  0
 43 42  1  0  0  0  0
M  END
>  <MODEL>
8

>  <REMARK>
 VINA RESULT:      -6.1      2.794      6.482
  Name = 
  17 active torsions:
  status: ('A' for Active; 'I' for Inactive)
    1  A    between atoms: C_3  and  C_12
    2  A    between atoms: C_3  and  C_16
    3  A    between atoms: C_5  and  C_6
    4  A    between atoms: C_5  and  C_12
    5  A    between atoms: C_9  and  C_33
    6  A    between atoms: C_9  and  N_40
    7  A    between atoms: C_11  and  O_25
    8  A    between atoms: C_12  and  N_40
    9  A    between atoms: C_17  and  N_32
   10  A    between atoms: C_21  and  C_35
   11  A    between atoms: C_21  and  C_42
   12  A    between atoms: C_22  and  C_41
   13  A    between atoms: C_28  and  C_35
   14  A    between atoms: C_31  and  N_39
   15  A    between atoms: C_31  and  C_41
   16  A    between atoms: N_32  and  C_37
   17  A    between atoms: C_33  and  C_37
                            x       y       z     vdW  Elec       q    Type
                         _______ _______ _______ _____ _____    ______ ____

>  <TORSDO>
F 17

$$$$
=
 OpenBabel11062422163D

 44 47  0  0  1  0  0  0  0  0999 V2000
  189.4990  172.4650  138.1480 N   0  0  0  0  0  0  0  0  0  0  0  0
  188.0720  174.9470  141.0640 C   0  0  0  0  0  0  0  0  0  0  0  0
  189.3790  173.2270  142.5500 C   0  0  0  0  0  3  0  0  0  0  0  0
  187.8360  175.2870  139.8440 N   0  0  0  0  0  0  0  0  0  0  0  0
  188.8390  173.6860  141.3840 C   0  0  0  0  0  0  0  0  0  0  0  0
  188.8860  173.3000  139.0080 C   0  0  0  0  0  0  0  0  0  0  0  0
  189.9350  171.8780  140.1840 C   0  0  0  0  0  0  0  0  0  0  0  0
  188.1980  174.5140  138.7370 N   0  0  0  0  0  2  0  0  0  0  0  0
  189.1530  172.9470  140.2570 C   0  0  0  0  0  0  0  0  0  0  0  0
  190.0840  171.9720  142.6220 C   0  0  0  0  0  0  0  0  0  0  0  0
  190.1550  171.5530  138.9400 N   0  0  0  0  0  2  0  0  0  0  0  0
  190.4360  171.3220  141.4090 C   0  0  0  0  0  3  0  0  0  0  0  0
  190.8120  171.6570  143.9490 C   0  0  0  0  0  2  0  0  0  0  0  0
  192.8870  170.5710  144.2310 C   0  0  0  0  0  3  0  0  0  0  0  0
  192.2920  171.8200  144.0990 C   0  0  0  0  0  0  0  0  0  0  0  0
  194.5670  174.1460  146.1050 C   0  0  0  0  0  3  0  0  0  0  0  0
  193.1310  174.0720  143.7150 C   0  0  0  0  0  3  0  0  0  0  0  0
  194.5600  175.2790  145.2420 C   0  0  0  0  0  0  0  0  0  0  0  0
  193.8550  175.2060  144.0460 C   0  0  0  0  0  3  0  0  0  0  0  0
  193.0610  172.9890  144.5600 C   0  0  0  0  0  0  0  0  0  0  0  0
  193.8470  173.0060  145.7710 C   0  0  0  0  0  3  0  0  0  0  0  0
  195.2270  176.4530  145.5290 O   0  0  0  0  0  0  0  0  0  0  0  0
  194.5630  177.6940  145.7200 C   0  0  0  0  0  1  0  0  0  0  0  0
  194.2780  170.2230  144.4960 C   0  0  0  0  0  2  0  0  0  0  0  0
  194.3310  169.1330  145.5490 C   0  0  0  0  0  2  0  0  0  0  0  0
  197.5940  169.2000  145.7350 O   0  0  0  0  0  0  0  0  0  0  0  0
  195.3780  168.8780  147.7980 O   0  0  0  0  0  1  0  0  0  0  0  0
  196.7950  171.2920  146.3750 O   0  0  0  0  0  1  0  0  0  0  0  0
  196.6220  169.9280  146.1480 C   0  0  0  0  0  0  0  0  0  0  0  0
  195.4480  169.2790  146.4940 N   0  0  0  0  0  0  0  0  0  0  0  0
  187.7620  175.9530  142.1470 C   0  0  0  0  0  2  0  0  0  0  0  0
  187.8170  177.4500  141.6950 C   0  0  2  0  0  3  0  0  0  0  0  0
  188.9380  178.2940  142.1250 N   0  0  0  0  0  2  0  0  0  0  0  0
  189.9830  177.4830  142.7570 C   0  0  0  0  0  2  0  0  0  0  0  0
  190.1530  177.9500  144.1980 C   0  0  0  0  0  2  0  0  0  0  0  0
  189.3030  177.2290  145.2350 C   0  0  0  0  0  2  0  0  0  0  0  0
  190.0840  177.0660  146.4670 N   0  0  0  0  0  2  0  0  0  0  0  0
  190.0110  174.7060  145.9680 C   0  0  0  0  0  1  0  0  0  0  0  0
  190.9130  175.8910  146.3410 C   0  0  0  0  0  3  0  0  0  0  0  0
  191.6040  175.5230  147.6440 C   0  0  0  0  0  1  0  0  0  0  0  0
  186.4980  178.2300  141.8090 C   0  0  0  0  0  2  0  0  0  0  0  0
  184.3260  177.8980  142.8100 O   0  0  0  0  0  1  0  0  0  0  0  0
  185.6910  177.9650  143.0900 C   0  0  2  0  0  3  0  0  0  0  0  0
  185.9420  179.0540  144.1380 C   0  0  0  0  0  1  0  0  0  0  0  0
  1 11  1  0  0  0  0
  1  6  2  0  0  0  0
  2  5  1  0  0  0  0
  2 31  1  0  0  0  0
  3 10  1  0  0  0  0
  4  2  2  0  0  0  0
  5  3  2  0  0  0  0
  6  9  1  0  0  0  0
  7  9  2  0  0  0  0
  7 12  1  0  0  0  0
  8  6  1  0  0  0  0
  8  4  1  0  0  0  0
  9  5  1  0  0  0  0
 10 13  1  0  0  0  0
 11  7  1  0  0  0  0
 12 10  2  0  0  0  0
 13 15  1  0  0  0  0
 14 24  1  0  0  0  0
 15 14  2  0  0  0  0
 15 20  1  0  0  0  0
 17 19  2  0  0  0  0
 17 20  1  0  0  0  0
 18 22  1  0  0  0  0
 18 16  2  0  0  0  0
 19 18  1  0  0  0  0
 20 21  2  0  0  0  0
 21 16  1  0  0  0  0
 22 23  1  0  0  0  0
 24 25  1  0  0  0  0
 25 30  1  0  0  0  0
 26 29  2  0  0  0  0
 29 28  1  0  0  0  0
 29 30  1  0  0  0  0
 30 27  1  0  0  0  0
 32 41  1  1  0  0  0
 32 33  1  0  0  0  0
 32 31  1  0  0  0  0
 33 34  1  0  0  0  0
 34 35  1  0  0  0  0
 35 36  1  0  0  0  0
 36 37  1  0  0  0  0
 38 39  1  0  0  0  0
 39 37  1  0  0  0  0
 39 40  1  0  0  0  0
 41 43  1  0  0  0  0
 42 43  1  0  0  0  0
 43 44  1  1  0  0  0
M  END
>  <MODEL>
9

>  <REMARK>
 VINA RESULT:      -6.0      2.906      5.150
  Name = 
  17 active torsions:
  status: ('A' for Active; 'I' for Inactive)
    1  A    between atoms: C_3  and  C_12
    2  A    between atoms: C_3  and  C_16
    3  A    between atoms: C_5  and  C_6
    4  A    between atoms: C_5  and  C_12
    5  A    between atoms: C_9  and  C_33
    6  A    between atoms: C_9  and  N_40
    7  A    between atoms: C_11  and  O_25
    8  A    between atoms: C_12  and  N_40
    9  A    between atoms: C_17  and  N_32
   10  A    between atoms: C_21  and  C_35
   11  A    between atoms: C_21  and  C_42
   12  A    between atoms: C_22  and  C_41
   13  A    between atoms: C_28  and  C_35
   14  A    between atoms: C_31  and  N_39
   15  A    between atoms: C_31  and  C_41
   16  A    between atoms: N_32  and  C_37
   17  A    between atoms: C_33  and  C_37
                            x       y       z     vdW  Elec       q    Type
                         _______ _______ _______ _____ _____    ______ ____

>  <TORSDO>
F 17

$$$$
