=
 OpenBabel11072409133D

 39 43  0  0  1  0  0  0  0  0999 V2000
  190.4750  172.8240  140.1870 C   0  0  0  0  0  0  0  0  0  0  0  0
  192.2470  174.1000  145.5860 N   0  0  0  0  0  2  0  0  0  0  0  0
  189.2250  176.0220  143.0010 C   0  0  0  0  0  0  0  0  0  0  0  0
  192.0270  172.1760  144.2690 N   0  0  0  0  0  2  0  0  0  0  0  0
  190.0000  173.2680  142.4800 C   0  0  2  0  0  0  0  0  0  0  0  0
  191.7030  173.4140  144.4550 C   0  0  0  0  0  0  0  0  0  0  0  0
  190.2830  175.3650  143.8440 C   0  0  0  0  0  0  0  0  0  0  0  0
  189.2510  174.1200  141.5560 N   0  0  0  0  0  0  0  0  0  0  0  0
  189.0120  172.3040  143.1320 C   0  0  0  0  0  1  0  0  0  0  0  0
  188.7750  175.4190  141.8920 C   0  0  0  0  0  0  0  0  0  0  0  0
  188.1840  178.0850  142.1990 O   0  0  0  0  0  0  0  0  0  0  0  0
  192.3620  176.0440  146.8540 O   0  0  0  0  0  0  0  0  0  0  0  0
  190.6890  174.0860  143.5740 C   0  0  0  0  0  0  0  0  0  0  0  0
  191.8720  175.4420  145.8590 C   0  0  0  0  0  0  0  0  0  0  0  0
  188.6510  177.3790  143.3600 C   0  0  1  0  0  3  0  0  0  0  0  0
  191.0080  172.5260  141.5480 C   0  0  1  0  0  3  0  0  0  0  0  0
  187.6910  177.4100  141.0990 N   0  0  0  0  0  0  0  0  0  0  0  0
  190.9230  176.1200  144.9690 C   0  0  0  0  0  0  0  0  0  0  0  0
  189.4840  173.7710  140.2560 O   0  0  0  0  0  0  0  0  0  0  0  0
  187.9250  176.1440  140.9350 C   0  0  0  0  0  3  0  0  0  0  0  0
  190.6890  177.3430  145.1550 O   0  0  0  0  0  0  0  0  0  0  0  0
  190.9250  172.3080  139.0500 C   0  0  0  0  0  3  0  0  0  0  0  0
  191.0200  171.1460  141.7590 O   0  0  0  0  0  1  0  0  0  0  0  0
  188.0920  177.6210  145.8010 C   0  0  0  0  0  2  0  0  0  0  0  0
  187.5510  177.2510  144.4220 C   0  0  1  0  0  3  0  0  0  0  0  0
  184.8600  178.0380  147.5360 O   0  0  0  0  0  1  0  0  0  0  0  0
  187.0430  177.3360  146.8850 C   0  0  0  0  0  2  0  0  0  0  0  0
  185.5910  177.5830  146.4400 C   0  0  2  0  0  3  0  0  0  0  0  0
  186.2720  178.0400  144.0610 C   0  0  0  0  0  2  0  0  0  0  0  0
  185.5370  178.5960  145.2890 C   0  0  1  0  0  3  0  0  0  0  0  0
  183.8610  178.5860  143.5660 O   0  0  0  0  0  1  0  0  0  0  0  0
  184.1210  178.9880  144.8830 C   0  0  0  0  0  2  0  0  0  0  0  0
  189.7490  170.1560  137.5220 O   0  0  0  0  0  1  0  0  0  0  0  0
  189.7020  171.4650  137.0430 C   0  0  0  0  0  0  0  0  0  0  0  0
  189.1660  171.6890  135.9240 O   0  0  0  0  0  0  0  0  0  0  0  0
  190.2830  172.5430  137.7880 N   0  0  0  0  0  0  0  0  0  0  0  0
  190.4670  173.8330  137.1500 C   0  0  0  0  0  2  0  0  0  0  0  0
  191.9160  174.1220  136.9630 C   0  0  0  0  0  3  0  0  0  0  0  0
  192.3010  175.2590  136.7950 O   0  0  0  0  0  0  0  0  0  0  0  0
  1 19  1  0  0  0  0
  1 16  1  0  0  0  0
  2 14  1  0  0  0  0
  3 15  1  0  0  0  0
  3  7  1  0  0  0  0
  4  6  2  0  0  0  0
  5  9  1  1  0  0  0
  5 13  1  0  0  0  0
  6  2  1  0  0  0  0
  7 18  1  0  0  0  0
  8 10  1  0  0  0  0
  8  5  1  0  0  0  0
 10  3  2  0  0  0  0
 13  7  2  0  0  0  0
 13  6  1  0  0  0  0
 14 12  2  0  0  0  0
 15 11  1  6  0  0  0
 15 25  1  0  0  0  0
 16 23  1  1  0  0  0
 16  5  1  0  0  0  0
 17 11  1  0  0  0  0
 18 21  2  0  0  0  0
 18 14  1  0  0  0  0
 19  8  1  0  0  0  0
 20 17  2  0  0  0  0
 20 10  1  0  0  0  0
 22  1  2  0  0  0  0
 24 27  1  0  0  0  0
 25 29  1  6  0  0  0
 25 24  1  0  0  0  0
 28 27  1  0  0  0  0
 28 26  1  1  0  0  0
 29 30  1  0  0  0  0
 30 32  1  6  0  0  0
 30 28  1  0  0  0  0
 31 32  1  0  0  0  0
 34 33  1  0  0  0  0
 34 36  1  0  0  0  0
 35 34  2  0  0  0  0
 36 22  1  0  0  0  0
 37 36  1  0  0  0  0
 38 37  1  0  0  0  0
 39 38  2  0  0  0  0
M  END
>  <MODEL>
1

>  <REMARK>
 VINA RESULT:      -8.2      0.000      0.000
  Name = 
  5 active torsions:
  status: ('A' for Active; 'I' for Inactive)
    1  A    between atoms: C_8  and  C_25
    2  A    between atoms: C_17  and  C_18
    3  A    between atoms: C_17  and  N_39
    4  A    between atoms: C_19  and  C_37
    5  A    between atoms: C_34  and  N_39
                            x       y       z     vdW  Elec       q    Type
                         _______ _______ _______ _____ _____    ______ ____

>  <TORSDO>
F 5

$$$$
=
 OpenBabel11072409133D

 39 43  0  0  1  0  0  0  0  0999 V2000
  190.7410  172.6210  140.5430 C   0  0  0  0  0  0  0  0  0  0  0  0
  192.4520  174.4020  145.8180 N   0  0  0  0  0  2  0  0  0  0  0  0
  189.3310  175.9590  143.1080 C   0  0  0  0  0  0  0  0  0  0  0  0
  192.3300  172.3720  144.6560 N   0  0  0  0  0  2  0  0  0  0  0  0
  190.2460  173.2170  142.7980 C   0  0  2  0  0  0  0  0  0  0  0  0
  191.9420  173.6030  144.7470 C   0  0  0  0  0  0  0  0  0  0  0  0
  190.4220  175.4250  143.9940 C   0  0  0  0  0  0  0  0  0  0  0  0
  189.4540  173.9540  141.8150 N   0  0  0  0  0  0  0  0  0  0  0  0
  189.3110  172.2570  143.5280 C   0  0  0  0  0  1  0  0  0  0  0  0
  188.9110  175.2490  142.0520 C   0  0  0  0  0  0  0  0  0  0  0  0
  188.1840  177.8970  142.1550 O   0  0  0  0  0  0  0  0  0  0  0  0
  192.4680  176.4410  146.9310 O   0  0  0  0  0  0  0  0  0  0  0  0
  190.8940  174.1510  143.8220 C   0  0  0  0  0  0  0  0  0  0  0  0
  192.0080  175.7400  145.9880 C   0  0  0  0  0  0  0  0  0  0  0  0
  188.6880  177.3090  143.3640 C   0  0  1  0  0  3  0  0  0  0  0  0
  191.2900  172.4570  141.9210 C   0  0  1  0  0  3  0  0  0  0  0  0
  187.7240  177.1150  141.1140 N   0  0  0  0  0  0  0  0  0  0  0  0
  191.0250  176.2960  145.0540 C   0  0  0  0  0  0  0  0  0  0  0  0
  189.7020  173.5180  140.5450 O   0  0  0  0  0  0  0  0  0  0  0  0
  188.0240  175.8530  141.0460 C   0  0  0  0  0  3  0  0  0  0  0  0
  190.7270  177.5160  145.1460 O   0  0  0  0  0  0  0  0  0  0  0  0
  191.2150  172.0420  139.4470 C   0  0  0  0  0  3  0  0  0  0  0  0
  191.3740  171.1000  142.2380 O   0  0  0  0  0  1  0  0  0  0  0  0
  188.1380  177.6550  145.7950 C   0  0  0  0  0  2  0  0  0  0  0  0
  187.5980  177.2070  144.4390 C   0  0  1  0  0  3  0  0  0  0  0  0
  184.9080  178.0820  147.5310 O   0  0  0  0  0  1  0  0  0  0  0  0
  187.1030  177.3990  146.8990 C   0  0  0  0  0  2  0  0  0  0  0  0
  185.6420  177.5900  146.4530 C   0  0  2  0  0  3  0  0  0  0  0  0
  186.2980  177.9480  144.0490 C   0  0  0  0  0  2  0  0  0  0  0  0
  185.5580  178.5460  145.2550 C   0  0  1  0  0  3  0  0  0  0  0  0
  183.9270  178.5730  143.4900 O   0  0  0  0  0  1  0  0  0  0  0  0
  184.1310  178.8840  144.8400 C   0  0  0  0  0  2  0  0  0  0  0  0
  191.8040  174.1900  137.6070 O   0  0  0  0  0  1  0  0  0  0  0  0
  190.8650  173.2140  137.2700 C   0  0  0  0  0  0  0  0  0  0  0  0
  190.2590  173.3010  136.1690 O   0  0  0  0  0  0  0  0  0  0  0  0
  190.5610  172.1450  138.1750 N   0  0  0  0  0  0  0  0  0  0  0  0
  189.3980  171.3130  137.9290 C   0  0  0  0  0  2  0  0  0  0  0  0
  189.7970  169.8880  137.7710 C   0  0  0  0  0  3  0  0  0  0  0  0
  190.5810  169.5580  136.9070 O   0  0  0  0  0  0  0  0  0  0  0  0
  1 19  1  0  0  0  0
  1 16  1  0  0  0  0
  2 14  1  0  0  0  0
  3 15  1  0  0  0  0
  3  7  1  0  0  0  0
  4  6  2  0  0  0  0
  5  9  1  1  0  0  0
  5 13  1  0  0  0  0
  6  2  1  0  0  0  0
  7 18  1  0  0  0  0
  8 10  1  0  0  0  0
  8  5  1  0  0  0  0
 10  3  2  0  0  0  0
 13  7  2  0  0  0  0
 13  6  1  0  0  0  0
 14 12  2  0  0  0  0
 15 11  1  6  0  0  0
 15 25  1  0  0  0  0
 16 23  1  1  0  0  0
 16  5  1  0  0  0  0
 17 11  1  0  0  0  0
 18 21  2  0  0  0  0
 18 14  1  0  0  0  0
 19  8  1  0  0  0  0
 20 17  2  0  0  0  0
 20 10  1  0  0  0  0
 22  1  2  0  0  0  0
 24 27  1  0  0  0  0
 25 29  1  6  0  0  0
 25 24  1  0  0  0  0
 28 27  1  0  0  0  0
 28 26  1  1  0  0  0
 29 30  1  0  0  0  0
 30 32  1  6  0  0  0
 30 28  1  0  0  0  0
 31 32  1  0  0  0  0
 34 33  1  0  0  0  0
 34 36  1  0  0  0  0
 35 34  2  0  0  0  0
 36 22  1  0  0  0  0
 37 36  1  0  0  0  0
 38 37  1  0  0  0  0
 39 38  2  0  0  0  0
M  END
>  <MODEL>
2

>  <REMARK>
 VINA RESULT:      -8.2      0.634      1.596
  Name = 
  5 active torsions:
  status: ('A' for Active; 'I' for Inactive)
    1  A    between atoms: C_8  and  C_25
    2  A    between atoms: C_17  and  C_18
    3  A    between atoms: C_17  and  N_39
    4  A    between atoms: C_19  and  C_37
    5  A    between atoms: C_34  and  N_39
                            x       y       z     vdW  Elec       q    Type
                         _______ _______ _______ _____ _____    ______ ____

>  <TORSDO>
F 5

$$$$
=
 OpenBabel11072409133D

 39 43  0  0  1  0  0  0  0  0999 V2000
  191.2760  172.2800  141.0220 C   0  0  0  0  0  0  0  0  0  0  0  0
  194.1420  175.4140  145.0070 N   0  0  0  0  0  2  0  0  0  0  0  0
  190.2660  176.1190  143.0090 C   0  0  0  0  0  0  0  0  0  0  0  0
  193.9240  173.1500  144.4460 N   0  0  0  0  0  2  0  0  0  0  0  0
  191.3440  173.4200  143.1140 C   0  0  2  0  0  0  0  0  0  0  0  0
  193.4500  174.3500  144.3480 C   0  0  0  0  0  0  0  0  0  0  0  0
  191.6040  175.8670  143.6480 C   0  0  0  0  0  0  0  0  0  0  0  0
  190.2450  173.8540  142.2510 N   0  0  0  0  0  0  0  0  0  0  0  0
  190.7420  172.6520  144.2870 C   0  0  0  0  0  1  0  0  0  0  0  0
  189.6550  175.1480  142.3170 C   0  0  0  0  0  0  0  0  0  0  0  0
  188.7120  177.7080  141.9890 O   0  0  0  0  0  0  0  0  0  0  0  0
  194.2450  177.6710  145.5490 O   0  0  0  0  0  0  0  0  0  0  0  0
  192.1410  174.6070  143.6570 C   0  0  0  0  0  0  0  0  0  0  0  0
  193.6250  176.7360  144.9720 C   0  0  0  0  0  0  0  0  0  0  0  0
  189.5800  177.4680  143.1080 C   0  0  1  0  0  3  0  0  0  0  0  0
  192.1880  172.4940  142.1830 C   0  0  1  0  0  3  0  0  0  0  0  0
  188.0750  176.6690  141.3390 N   0  0  0  0  0  0  0  0  0  0  0  0
  192.3750  177.0010  144.2520 C   0  0  0  0  0  0  0  0  0  0  0  0
  190.1880  173.1130  141.1050 O   0  0  0  0  0  0  0  0  0  0  0  0
  188.4740  175.4440  141.4920 C   0  0  0  0  0  3  0  0  0  0  0  0
  191.9890  178.1930  144.1310 O   0  0  0  0  0  0  0  0  0  0  0  0
  191.4970  171.4540  140.0070 C   0  0  0  0  0  3  0  0  0  0  0  0
  192.4930  171.2680  142.7770 O   0  0  0  0  0  1  0  0  0  0  0  0
  187.3430  177.8350  144.1990 C   0  0  0  0  0  2  0  0  0  0  0  0
  188.8330  177.6120  144.4410 C   0  0  1  0  0  3  0  0  0  0  0  0
  186.1420  177.1120  147.6140 O   0  0  0  0  0  1  0  0  0  0  0  0
  186.6230  178.1430  145.5190 C   0  0  0  0  0  2  0  0  0  0  0  0
  187.1890  177.3930  146.7380 C   0  0  2  0  0  3  0  0  0  0  0  0
  189.1010  176.4370  145.4090 C   0  0  0  0  0  2  0  0  0  0  0  0
  187.8980  176.1030  146.3030 C   0  0  1  0  0  3  0  0  0  0  0  0
  189.4930  174.4890  147.0960 O   0  0  0  0  0  1  0  0  0  0  0  0
  188.3720  175.2420  147.4680 C   0  0  0  0  0  2  0  0  0  0  0  0
  190.7480  168.7680  139.2490 O   0  0  0  0  0  1  0  0  0  0  0  0
  190.1550  169.8660  138.6240 C   0  0  0  0  0  0  0  0  0  0  0  0
  189.3130  169.6680  137.7080 O   0  0  0  0  0  0  0  0  0  0  0  0
  190.5190  171.2040  138.9870 N   0  0  0  0  0  0  0  0  0  0  0  0
  190.1030  172.3090  138.1440 C   0  0  0  0  0  2  0  0  0  0  0  0
  191.2640  172.8570  137.3900 C   0  0  0  0  0  3  0  0  0  0  0  0
  191.5580  174.0290  137.4750 O   0  0  0  0  0  0  0  0  0  0  0  0
  1 19  1  0  0  0  0
  1 16  1  0  0  0  0
  3 15  1  0  0  0  0
  3  7  1  0  0  0  0
  5 13  1  0  0  0  0
  5  9  1  1  0  0  0
  6  4  2  0  0  0  0
  6  2  1  0  0  0  0
  7 13  2  0  0  0  0
  7 18  1  0  0  0  0
  8 10  1  0  0  0  0
  8  5  1  0  0  0  0
 10  3  2  0  0  0  0
 13  6  1  0  0  0  0
 14  2  1  0  0  0  0
 14 12  2  0  0  0  0
 15 11  1  6  0  0  0
 15 25  1  0  0  0  0
 16 23  1  1  0  0  0
 16  5  1  0  0  0  0
 17 20  2  0  0  0  0
 17 11  1  0  0  0  0
 18 14  1  0  0  0  0
 19  8  1  0  0  0  0
 20 10  1  0  0  0  0
 21 18  2  0  0  0  0
 22  1  2  0  0  0  0
 24 27  1  0  0  0  0
 25 24  1  6  0  0  0
 25 29  1  0  0  0  0
 27 28  1  0  0  0  0
 28 26  1  1  0  0  0
 29 30  1  0  0  0  0
 30 28  1  0  0  0  0
 30 32  1  1  0  0  0
 31 32  1  0  0  0  0
 34 36  1  0  0  0  0
 34 33  1  0  0  0  0
 35 34  2  0  0  0  0
 36 22  1  0  0  0  0
 37 36  1  0  0  0  0
 38 39  2  0  0  0  0
 38 37  1  0  0  0  0
M  END
>  <MODEL>
3

>  <REMARK>
 VINA RESULT:      -8.0      1.708      2.431
  Name = 
  5 active torsions:
  status: ('A' for Active; 'I' for Inactive)
    1  A    between atoms: C_8  and  C_25
    2  A    between atoms: C_17  and  C_18
    3  A    between atoms: C_17  and  N_39
    4  A    between atoms: C_19  and  C_37
    5  A    between atoms: C_34  and  N_39
                            x       y       z     vdW  Elec       q    Type
                         _______ _______ _______ _____ _____    ______ ____

>  <TORSDO>
F 5

$$$$
=
 OpenBabel11072409133D

 39 43  0  0  1  0  0  0  0  0999 V2000
  188.4860  176.0320  143.3410 C   0  0  0  0  0  0  0  0  0  0  0  0
  191.9260  173.5910  139.3250 N   0  0  0  0  0  2  0  0  0  0  0  0
  192.8800  175.4110  143.2350 C   0  0  0  0  0  0  0  0  0  0  0  0
  189.7260  173.3230  140.0810 N   0  0  0  0  0  2  0  0  0  0  0  0
  190.1770  174.4690  142.7250 C   0  0  2  0  0  0  0  0  0  0  0  0
  190.9100  173.7910  140.3110 C   0  0  0  0  0  0  0  0  0  0  0  0
  192.5260  174.8270  141.8950 C   0  0  0  0  0  0  0  0  0  0  0  0
  190.5680  175.3420  143.8310 N   0  0  0  0  0  0  0  0  0  0  0  0
  189.9890  173.0610  143.2840 C   0  0  0  0  0  1  0  0  0  0  0  0
  191.9190  175.6800  144.1280 C   0  0  0  0  0  0  0  0  0  0  0  0
  194.3910  176.7940  144.5710 O   0  0  0  0  0  0  0  0  0  0  0  0
  194.1430  173.8640  138.6850 O   0  0  0  0  0  0  0  0  0  0  0  0
  191.2440  174.4270  141.6300 C   0  0  0  0  0  0  0  0  0  0  0  0
  193.2530  174.0370  139.5630 C   0  0  0  0  0  0  0  0  0  0  0  0
  194.3150  175.7280  143.6100 C   0  0  1  0  0  3  0  0  0  0  0  0
  188.8290  175.0870  142.2380 C   0  0  1  0  0  3  0  0  0  0  0  0
  193.3880  176.9980  145.4970 N   0  0  0  0  0  0  0  0  0  0  0  0
  193.5710  174.7080  140.8270 C   0  0  0  0  0  0  0  0  0  0  0  0
  189.5400  176.1580  144.2100 O   0  0  0  0  0  0  0  0  0  0  0  0
  192.2150  176.4650  145.3370 C   0  0  0  0  0  3  0  0  0  0  0  0
  194.7200  175.2000  140.9770 O   0  0  0  0  0  0  0  0  0  0  0  0
  187.3530  176.7160  143.4490 C   0  0  0  0  0  3  0  0  0  0  0  0
  187.8180  174.1330  142.1010 O   0  0  0  0  0  1  0  0  0  0  0  0
  195.8210  174.7710  145.3830 C   0  0  0  0  0  2  0  0  0  0  0  0
  195.0490  174.4730  144.1000 C   0  0  1  0  0  3  0  0  0  0  0  0
  196.4410  171.2880  146.4400 O   0  0  0  0  0  1  0  0  0  0  0  0
  196.6860  173.5670  145.7830 C   0  0  0  0  0  2  0  0  0  0  0  0
  196.0550  172.2010  145.4600 C   0  0  2  0  0  3  0  0  0  0  0  0
  194.1160  173.2500  144.2460 C   0  0  0  0  0  2  0  0  0  0  0  0
  194.5250  172.3090  145.3880 C   0  0  1  0  0  3  0  0  0  0  0  0
  192.8050  171.0800  144.2460 O   0  0  0  0  0  1  0  0  0  0  0  0
  193.8250  170.9680  145.2000 C   0  0  0  0  0  2  0  0  0  0  0  0
  185.7060  179.0810  143.2560 O   0  0  0  0  0  0  0  0  0  0  0  0
  186.2180  178.6800  144.4900 C   0  0  0  0  0  0  0  0  0  0  0  0
  185.9750  179.3800  145.5100 O   0  0  0  0  0  1  0  0  0  0  0  0
  187.0390  177.5110  144.6010 N   0  0  0  0  0  0  0  0  0  0  0  0
  187.7790  177.2730  145.8260 C   0  0  0  0  0  2  0  0  0  0  0  0
  186.9920  176.4160  146.7550 C   0  0  0  0  0  3  0  0  0  0  0  0
  186.3270  176.9120  147.6390 O   0  0  0  0  0  0  0  0  0  0  0  0
  1 22  2  0  0  0  0
  1 19  1  0  0  0  0
  2 14  1  0  0  0  0
  2  6  1  0  0  0  0
  3 10  2  0  0  0  0
  4  6  2  0  0  0  0
  5  9  1  1  0  0  0
  5  8  1  0  0  0  0
  6 13  1  0  0  0  0
  7  3  1  0  0  0  0
  8 10  1  0  0  0  0
  8 19  1  0  0  0  0
 10 20  1  0  0  0  0
 11 17  1  0  0  0  0
 12 14  2  0  0  0  0
 13  7  2  0  0  0  0
 13  5  1  0  0  0  0
 14 18  1  0  0  0  0
 15  3  1  1  0  0  0
 15 25  1  0  0  0  0
 15 11  1  0  0  0  0
 16 23  1  1  0  0  0
 16  5  1  0  0  0  0
 16  1  1  0  0  0  0
 18 21  2  0  0  0  0
 18  7  1  0  0  0  0
 20 17  2  0  0  0  0
 22 36  1  0  0  0  0
 24 27  1  0  0  0  0
 25 29  1  1  0  0  0
 25 24  1  0  0  0  0
 28 27  1  0  0  0  0
 28 26  1  1  0  0  0
 29 30  1  0  0  0  0
 30 32  1  6  0  0  0
 30 28  1  0  0  0  0
 31 32  1  0  0  0  0
 33 34  2  0  0  0  0
 34 36  1  0  0  0  0
 34 35  1  0  0  0  0
 36 37  1  0  0  0  0
 37 38  1  0  0  0  0
 38 39  2  0  0  0  0
M  END
>  <MODEL>
4

>  <REMARK>
 VINA RESULT:      -7.6      2.850      8.078
  Name = 
  5 active torsions:
  status: ('A' for Active; 'I' for Inactive)
    1  A    between atoms: C_8  and  C_25
    2  A    between atoms: C_17  and  C_18
    3  A    between atoms: C_17  and  N_39
    4  A    between atoms: C_19  and  C_37
    5  A    between atoms: C_34  and  N_39
                            x       y       z     vdW  Elec       q    Type
                         _______ _______ _______ _____ _____    ______ ____

>  <TORSDO>
F 5

$$$$
=
 OpenBabel11072409133D

 39 43  0  0  1  0  0  0  0  0999 V2000
  188.6970  176.7830  144.7380 C   0  0  0  0  0  0  0  0  0  0  0  0
  194.1540  174.9830  145.6880 N   0  0  0  0  0  2  0  0  0  0  0  0
  190.8830  173.1870  143.3250 C   0  0  0  0  0  0  0  0  0  0  0  0
  193.0360  177.0340  145.5210 N   0  0  0  0  0  2  0  0  0  0  0  0
  190.8090  176.0310  143.9270 C   0  0  2  0  0  0  0  0  0  0  0  0
  193.0260  175.7630  145.2820 C   0  0  0  0  0  0  0  0  0  0  0  0
  191.9660  173.8080  144.1640 C   0  0  0  0  0  0  0  0  0  0  0  0
  189.6800  175.2480  143.4230 N   0  0  0  0  0  0  0  0  0  0  0  0
  191.3770  176.8370  142.7630 C   0  0  0  0  0  1  0  0  0  0  0  0
  189.7850  173.8880  143.0150 C   0  0  0  0  0  0  0  0  0  0  0  0
  189.6910  171.1710  142.6220 O   0  0  0  0  0  0  0  0  0  0  0  0
  195.2040  172.9110  145.7630 O   0  0  0  0  0  0  0  0  0  0  0  0
  191.9120  175.1350  144.4940 C   0  0  0  0  0  0  0  0  0  0  0  0
  194.2090  173.5950  145.3940 C   0  0  0  0  0  0  0  0  0  0  0  0
  190.9860  171.7590  142.8220 C   0  0  1  0  0  3  0  0  0  0  0  0
  190.1560  176.9490  145.0070 C   0  0  1  0  0  3  0  0  0  0  0  0
  188.6020  171.9380  142.2610 N   0  0  0  0  0  0  0  0  0  0  0  0
  193.0980  172.9670  144.6720 C   0  0  0  0  0  0  0  0  0  0  0  0
  188.4870  175.7690  143.8380 O   0  0  0  0  0  0  0  0  0  0  0  0
  188.6190  173.2280  142.4060 C   0  0  0  0  0  3  0  0  0  0  0  0
  193.1060  171.7180  144.5200 O   0  0  0  0  0  0  0  0  0  0  0  0
  187.7200  177.4640  145.3240 C   0  0  0  0  0  3  0  0  0  0  0  0
  190.5130  178.2910  144.8610 O   0  0  0  0  0  1  0  0  0  0  0  0
  191.6430  170.3390  140.8530 C   0  0  0  0  0  2  0  0  0  0  0  0
  191.8450  171.6810  141.5540 C   0  0  1  0  0  3  0  0  0  0  0  0
  193.1260  171.2250  137.5900 O   0  0  0  0  0  1  0  0  0  0  0  0
  192.6210  170.1930  139.6790 C   0  0  0  0  0  2  0  0  0  0  0  0
  192.9230  171.5090  138.9390 C   0  0  2  0  0  3  0  0  0  0  0  0
  191.6240  172.8790  140.6030 C   0  0  0  0  0  2  0  0  0  0  0  0
  191.7750  172.5120  139.1200 C   0  0  1  0  0  3  0  0  0  0  0  0
  190.8680  173.9590  137.4290 O   0  0  0  0  0  1  0  0  0  0  0  0
  191.9460  173.7910  138.3090 C   0  0  0  0  0  2  0  0  0  0  0  0
  186.7170  178.7270  142.9280 O   0  0  0  0  0  0  0  0  0  0  0  0
  185.8640  177.9720  143.7330 C   0  0  0  0  0  0  0  0  0  0  0  0
  184.6490  177.8740  143.4160 O   0  0  0  0  0  1  0  0  0  0  0  0
  186.3470  177.3420  144.9260 N   0  0  0  0  0  0  0  0  0  0  0  0
  185.3980  176.8020  145.8820 C   0  0  0  0  0  2  0  0  0  0  0  0
  185.0230  177.8350  146.8870 C   0  0  0  0  0  3  0  0  0  0  0  0
  184.0660  178.5560  146.7050 O   0  0  0  0  0  0  0  0  0  0  0  0
  1 16  1  0  0  0  0
  1 22  2  0  0  0  0
  3  7  1  0  0  0  0
  5  9  1  6  0  0  0
  5 13  1  0  0  0  0
  5 16  1  0  0  0  0
  6  4  2  0  0  0  0
  6  2  1  0  0  0  0
  7 13  2  0  0  0  0
  7 18  1  0  0  0  0
  8 19  1  0  0  0  0
  8  5  1  0  0  0  0
 10  3  2  0  0  0  0
 10  8  1  0  0  0  0
 13  6  1  0  0  0  0
 14  2  1  0  0  0  0
 14 12  2  0  0  0  0
 15 11  1  6  0  0  0
 15  3  1  0  0  0  0
 16 23  1  6  0  0  0
 17 20  2  0  0  0  0
 17 11  1  0  0  0  0
 18 14  1  0  0  0  0
 19  1  1  0  0  0  0
 20 10  1  0  0  0  0
 21 18  2  0  0  0  0
 24 25  1  0  0  0  0
 25 29  1  6  0  0  0
 25 15  1  0  0  0  0
 27 24  1  0  0  0  0
 28 26  1  6  0  0  0
 28 30  1  0  0  0  0
 28 27  1  0  0  0  0
 30 32  1  6  0  0  0
 30 29  1  0  0  0  0
 31 32  1  0  0  0  0
 33 34  2  0  0  0  0
 34 36  1  0  0  0  0
 35 34  1  0  0  0  0
 36 22  1  0  0  0  0
 36 37  1  0  0  0  0
 37 38  1  0  0  0  0
 39 38  2  0  0  0  0
M  END
>  <MODEL>
5

>  <REMARK>
 VINA RESULT:      -7.5      2.151      7.961
  Name = 
  5 active torsions:
  status: ('A' for Active; 'I' for Inactive)
    1  A    between atoms: C_8  and  C_25
    2  A    between atoms: C_17  and  C_18
    3  A    between atoms: C_17  and  N_39
    4  A    between atoms: C_19  and  C_37
    5  A    between atoms: C_34  and  N_39
                            x       y       z     vdW  Elec       q    Type
                         _______ _______ _______ _____ _____    ______ ____

>  <TORSDO>
F 5

$$$$
=
 OpenBabel11072409133D

 39 43  0  0  1  0  0  0  0  0999 V2000
  188.5670  174.1930  138.5600 C   0  0  0  0  0  0  0  0  0  0  0  0
  191.3710  172.0600  143.1980 N   0  0  0  0  0  2  0  0  0  0  0  0
  189.1840  175.8560  142.6300 C   0  0  0  0  0  0  0  0  0  0  0  0
  190.1780  171.1980  141.3770 N   0  0  0  0  0  2  0  0  0  0  0  0
  188.6190  173.6100  140.8710 C   0  0  2  0  0  0  0  0  0  0  0  0
  190.4470  172.2230  142.1180 C   0  0  0  0  0  0  0  0  0  0  0  0
  189.9480  174.5690  142.7810 C   0  0  0  0  0  0  0  0  0  0  0  0
  188.2050  174.9920  140.6300 N   0  0  0  0  0  0  0  0  0  0  0  0
  187.4010  172.8370  141.3690 C   0  0  0  0  0  1  0  0  0  0  0  0
  188.3840  176.0440  141.5720 C   0  0  0  0  0  0  0  0  0  0  0  0
  189.0480  178.2600  143.0540 O   0  0  0  0  0  0  0  0  0  0  0  0
  192.4720  172.9970  145.0180 O   0  0  0  0  0  0  0  0  0  0  0  0
  189.7230  173.5250  141.9250 C   0  0  0  0  0  0  0  0  0  0  0  0
  191.6500  173.1450  144.0710 C   0  0  0  0  0  0  0  0  0  0  0  0
  189.3030  176.9770  143.6450 C   0  0  1  0  0  3  0  0  0  0  0  0
  189.0820  173.1220  139.4630 C   0  0  1  0  0  3  0  0  0  0  0  0
  188.1790  178.4010  141.9890 N   0  0  0  0  0  0  0  0  0  0  0  0
  190.9860  174.4340  143.8530 C   0  0  0  0  0  0  0  0  0  0  0  0
  188.1000  175.2550  139.2930 O   0  0  0  0  0  0  0  0  0  0  0  0
  187.8200  177.3720  141.2830 C   0  0  0  0  0  3  0  0  0  0  0  0
  191.3290  175.4170  144.5610 O   0  0  0  0  0  0  0  0  0  0  0  0
  188.6050  174.1710  137.2340 C   0  0  0  0  0  3  0  0  0  0  0  0
  188.5220  171.8940  139.1070 O   0  0  0  0  0  1  0  0  0  0  0  0
  189.0150  177.3160  146.1210 C   0  0  0  0  0  2  0  0  0  0  0  0
  188.3970  176.7230  144.8570 C   0  0  1  0  0  3  0  0  0  0  0  0
  186.0120  177.2240  148.2660 O   0  0  0  0  0  1  0  0  0  0  0  0
  188.1950  176.9220  147.3570 C   0  0  0  0  0  2  0  0  0  0  0  0
  186.6790  176.8300  147.1070 C   0  0  2  0  0  3  0  0  0  0  0  0
  186.9450  177.2030  144.6320 C   0  0  0  0  0  2  0  0  0  0  0  0
  186.2680  177.7060  145.9160 C   0  0  1  0  0  3  0  0  0  0  0  0
  184.3100  179.0900  145.7570 O   0  0  0  0  0  1  0  0  0  0  0  0
  184.7620  177.7650  145.6900 C   0  0  0  0  0  2  0  0  0  0  0  0
  189.8570  175.1950  134.8400 O   0  0  0  0  0  1  0  0  0  0  0  0
  188.6090  175.6740  135.2400 C   0  0  0  0  0  0  0  0  0  0  0  0
  188.0520  176.5770  134.5590 O   0  0  0  0  0  0  0  0  0  0  0  0
  187.9770  175.1770  136.4260 N   0  0  0  0  0  0  0  0  0  0  0  0
  186.8270  175.8770  136.9680 C   0  0  0  0  0  2  0  0  0  0  0  0
  185.7150  175.9020  135.9780 C   0  0  0  0  0  3  0  0  0  0  0  0
  184.5620  175.8180  136.3420 O   0  0  0  0  0  0  0  0  0  0  0  0
  1 19  1  0  0  0  0
  1 16  1  0  0  0  0
  2 14  1  0  0  0  0
  3  7  1  0  0  0  0
  4  6  2  0  0  0  0
  5  9  1  1  0  0  0
  5 13  1  0  0  0  0
  6  2  1  0  0  0  0
  7 18  1  0  0  0  0
  8  5  1  0  0  0  0
  8 10  1  0  0  0  0
 10  3  2  0  0  0  0
 11 15  1  0  0  0  0
 13  6  1  0  0  0  0
 13  7  2  0  0  0  0
 14 12  2  0  0  0  0
 15  3  1  6  0  0  0
 15 25  1  0  0  0  0
 16 23  1  6  0  0  0
 16  5  1  0  0  0  0
 17 11  1  0  0  0  0
 18 14  1  0  0  0  0
 18 21  2  0  0  0  0
 19  8  1  0  0  0  0
 20 10  1  0  0  0  0
 20 17  2  0  0  0  0
 22  1  2  0  0  0  0
 24 27  1  0  0  0  0
 25 29  1  6  0  0  0
 25 24  1  0  0  0  0
 28 27  1  0  0  0  0
 28 26  1  1  0  0  0
 29 30  1  0  0  0  0
 30 32  1  6  0  0  0
 30 28  1  0  0  0  0
 32 31  1  0  0  0  0
 33 34  1  0  0  0  0
 34 36  1  0  0  0  0
 35 34  2  0  0  0  0
 36 37  1  0  0  0  0
 36 22  1  0  0  0  0
 38 39  2  0  0  0  0
 38 37  1  0  0  0  0
M  END
>  <MODEL>
6

>  <REMARK>
 VINA RESULT:      -7.2      2.431      3.084
  Name = 
  5 active torsions:
  status: ('A' for Active; 'I' for Inactive)
    1  A    between atoms: C_8  and  C_25
    2  A    between atoms: C_17  and  C_18
    3  A    between atoms: C_17  and  N_39
    4  A    between atoms: C_19  and  C_37
    5  A    between atoms: C_34  and  N_39
                            x       y       z     vdW  Elec       q    Type
                         _______ _______ _______ _____ _____    ______ ____

>  <TORSDO>
F 5

$$$$
=
 OpenBabel11072409133D

 39 43  0  0  1  0  0  0  0  0999 V2000
  188.2840  177.0710  144.6160 C   0  0  0  0  0  0  0  0  0  0  0  0
  193.4150  174.6150  145.8670 N   0  0  0  0  0  2  0  0  0  0  0  0
  190.2650  173.4410  143.0010 C   0  0  0  0  0  0  0  0  0  0  0  0
  192.5170  176.7780  145.8380 N   0  0  0  0  0  2  0  0  0  0  0  0
  190.3920  176.1940  143.9290 C   0  0  2  0  0  0  0  0  0  0  0  0
  192.4150  175.5480  145.4490 C   0  0  0  0  0  0  0  0  0  0  0  0
  191.3040  173.8490  144.0090 C   0  0  0  0  0  0  0  0  0  0  0  0
  189.2560  175.5940  143.2280 N   0  0  0  0  0  0  0  0  0  0  0  0
  191.1550  177.0580  142.9290 C   0  0  0  0  0  1  0  0  0  0  0  0
  189.2760  174.2830  142.6730 C   0  0  0  0  0  0  0  0  0  0  0  0
  188.9740  171.6490  141.9510 O   0  0  0  0  0  0  0  0  0  0  0  0
  194.2530  172.4490  145.7940 O   0  0  0  0  0  0  0  0  0  0  0  0
  191.3390  175.1310  144.4880 C   0  0  0  0  0  0  0  0  0  0  0  0
  193.3720  173.2690  145.4160 C   0  0  0  0  0  0  0  0  0  0  0  0
  190.2880  172.0740  142.3440 C   0  0  1  0  0  3  0  0  0  0  0  0
  189.7140  177.0520  145.0420 C   0  0  1  0  0  3  0  0  0  0  0  0
  188.0050  172.5620  141.5810 N   0  0  0  0  0  0  0  0  0  0  0  0
  192.2910  172.8440  144.5200 C   0  0  0  0  0  0  0  0  0  0  0  0
  188.0790  176.1880  143.5850 O   0  0  0  0  0  0  0  0  0  0  0  0
  188.1270  173.8190  141.8790 C   0  0  0  0  0  3  0  0  0  0  0  0
  192.1990  171.6250  144.2210 O   0  0  0  0  0  0  0  0  0  0  0  0
  187.3170  177.7820  145.1820 C   0  0  0  0  0  3  0  0  0  0  0  0
  190.2090  178.3570  145.0920 O   0  0  0  0  0  1  0  0  0  0  0  0
  191.9130  173.4140  140.9690 C   0  0  0  0  0  2  0  0  0  0  0  0
  191.2670  172.0440  141.1640 C   0  0  1  0  0  3  0  0  0  0  0  0
  194.6960  172.3740  138.7780 O   0  0  0  0  0  1  0  0  0  0  0  0
  192.7640  173.4310  139.6920 C   0  0  0  0  0  2  0  0  0  0  0  0
  193.4730  172.0990  139.3860 C   0  0  2  0  0  3  0  0  0  0  0  0
  192.3140  170.9130  141.2800 C   0  0  0  0  0  2  0  0  0  0  0  0
  193.6740  171.2810  140.6700 C   0  0  1  0  0  3  0  0  0  0  0  0
  193.6350  168.9150  140.2510 O   0  0  0  0  0  1  0  0  0  0  0  0
  194.4860  170.0080  140.4640 C   0  0  0  0  0  2  0  0  0  0  0  0
  186.7630  179.1170  142.6810 O   0  0  0  0  0  0  0  0  0  0  0  0
  185.7300  178.5120  143.3980 C   0  0  0  0  0  0  0  0  0  0  0  0
  184.5530  178.5820  142.9540 O   0  0  0  0  0  1  0  0  0  0  0  0
  185.9900  177.8490  144.6420 N   0  0  0  0  0  0  0  0  0  0  0  0
  184.8780  177.4760  145.4960 C   0  0  0  0  0  2  0  0  0  0  0  0
  184.5380  178.5870  146.4270 C   0  0  0  0  0  3  0  0  0  0  0  0
  184.8420  178.5250  147.5990 O   0  0  0  0  0  0  0  0  0  0  0  0
  1 16  1  0  0  0  0
  1 22  2  0  0  0  0
  3  7  1  0  0  0  0
  5  9  1  6  0  0  0
  5 13  1  0  0  0  0
  5 16  1  0  0  0  0
  6  4  2  0  0  0  0
  6  2  1  0  0  0  0
  7 13  2  0  0  0  0
  7 18  1  0  0  0  0
  8 19  1  0  0  0  0
  8  5  1  0  0  0  0
 10  3  2  0  0  0  0
 10  8  1  0  0  0  0
 13  6  1  0  0  0  0
 14 12  2  0  0  0  0
 14  2  1  0  0  0  0
 15 11  1  6  0  0  0
 15  3  1  0  0  0  0
 16 23  1  6  0  0  0
 17 20  2  0  0  0  0
 17 11  1  0  0  0  0
 18 14  1  0  0  0  0
 19  1  1  0  0  0  0
 20 10  1  0  0  0  0
 21 18  2  0  0  0  0
 25 24  1  1  0  0  0
 25 29  1  0  0  0  0
 25 15  1  0  0  0  0
 27 24  1  0  0  0  0
 28 26  1  1  0  0  0
 28 27  1  0  0  0  0
 28 30  1  0  0  0  0
 30 32  1  6  0  0  0
 30 29  1  0  0  0  0
 31 32  1  0  0  0  0
 33 34  2  0  0  0  0
 34 36  1  0  0  0  0
 35 34  1  0  0  0  0
 36 22  1  0  0  0  0
 36 37  1  0  0  0  0
 37 38  1  0  0  0  0
 38 39  2  0  0  0  0
M  END
>  <MODEL>
7

>  <REMARK>
 VINA RESULT:      -7.0      2.438      8.166
  Name = 
  5 active torsions:
  status: ('A' for Active; 'I' for Inactive)
    1  A    between atoms: C_8  and  C_25
    2  A    between atoms: C_17  and  C_18
    3  A    between atoms: C_17  and  N_39
    4  A    between atoms: C_19  and  C_37
    5  A    between atoms: C_34  and  N_39
                            x       y       z     vdW  Elec       q    Type
                         _______ _______ _______ _____ _____    ______ ____

>  <TORSDO>
F 5

$$$$
=
 OpenBabel11072409133D

 39 43  0  0  1  0  0  0  0  0999 V2000
  188.8780  177.1160  143.8730 C   0  0  0  0  0  0  0  0  0  0  0  0
  193.4770  174.1320  145.8420 N   0  0  0  0  0  2  0  0  0  0  0  0
  190.8540  173.4420  142.3540 C   0  0  0  0  0  0  0  0  0  0  0  0
  192.7650  176.3640  145.8290 N   0  0  0  0  0  2  0  0  0  0  0  0
  191.0060  176.1030  143.5170 C   0  0  2  0  0  0  0  0  0  0  0  0
  192.6480  175.1780  145.3260 C   0  0  0  0  0  0  0  0  0  0  0  0
  191.7090  173.6870  143.5680 C   0  0  0  0  0  0  0  0  0  0  0  0
  189.9850  175.6560  142.5710 N   0  0  0  0  0  0  0  0  0  0  0  0
  192.0090  176.9630  142.7520 C   0  0  0  0  0  1  0  0  0  0  0  0
  190.0130  174.3900  141.9210 C   0  0  0  0  0  0  0  0  0  0  0  0
  189.6580  171.8500  140.9360 O   0  0  0  0  0  0  0  0  0  0  0  0
  194.1490  171.9100  145.7440 O   0  0  0  0  0  0  0  0  0  0  0  0
  191.7470  174.9250  144.1510 C   0  0  0  0  0  0  0  0  0  0  0  0
  193.4200  172.8300  145.2790 C   0  0  0  0  0  0  0  0  0  0  0  0
  190.9010  172.1270  141.6000 C   0  0  1  0  0  3  0  0  0  0  0  0
  190.1940  176.9410  144.5540 C   0  0  1  0  0  3  0  0  0  0  0  0
  188.8490  172.8680  140.4720 N   0  0  0  0  0  0  0  0  0  0  0  0
  192.5020  172.5650  144.1660 C   0  0  0  0  0  0  0  0  0  0  0  0
  188.8090  176.3280  142.7520 O   0  0  0  0  0  0  0  0  0  0  0  0
  189.0050  174.0860  140.8920 C   0  0  0  0  0  3  0  0  0  0  0  0
  192.3780  171.3820  143.7540 O   0  0  0  0  0  0  0  0  0  0  0  0
  187.8760  177.8700  144.3090 C   0  0  0  0  0  3  0  0  0  0  0  0
  190.7660  178.1890  144.8040 O   0  0  0  0  0  1  0  0  0  0  0  0
  191.7470  171.2330  139.4070 C   0  0  0  0  0  2  0  0  0  0  0  0
  192.0830  172.0910  140.6230 C   0  0  1  0  0  3  0  0  0  0  0  0
  194.4700  172.3750  137.1910 O   0  0  0  0  0  1  0  0  0  0  0  0
  192.9810  171.0610  138.5110 C   0  0  0  0  0  2  0  0  0  0  0  0
  193.9030  172.2930  138.4620 C   0  0  2  0  0  3  0  0  0  0  0  0
  192.5800  173.5010  140.2290 C   0  0  0  0  0  2  0  0  0  0  0  0
  193.1230  173.5720  138.7950 C   0  0  1  0  0  3  0  0  0  0  0  0
  194.2720  175.3730  139.8950 O   0  0  0  0  0  1  0  0  0  0  0  0
  193.9430  174.8470  138.6390 C   0  0  0  0  0  2  0  0  0  0  0  0
  185.3610  176.6390  145.0180 O   0  0  0  0  0  1  0  0  0  0  0  0
  185.4440  177.4760  143.9060 C   0  0  0  0  0  0  0  0  0  0  0  0
  184.4160  177.6630  143.2010 O   0  0  0  0  0  0  0  0  0  0  0  0
  186.6860  178.0920  143.5400 N   0  0  0  0  0  0  0  0  0  0  0  0
  186.8120  178.7240  142.2400 C   0  0  0  0  0  2  0  0  0  0  0  0
  186.3160  177.8180  141.1670 C   0  0  0  0  0  3  0  0  0  0  0  0
  187.0580  177.4400  140.2860 O   0  0  0  0  0  0  0  0  0  0  0  0
  1 22  2  0  0  0  0
  1 16  1  0  0  0  0
  3  7  1  0  0  0  0
  5  9  1  6  0  0  0
  5 13  1  0  0  0  0
  5 16  1  0  0  0  0
  6  4  2  0  0  0  0
  6  2  1  0  0  0  0
  7 13  2  0  0  0  0
  7 18  1  0  0  0  0
  8 19  1  0  0  0  0
  8  5  1  0  0  0  0
 10  3  2  0  0  0  0
 10  8  1  0  0  0  0
 13  6  1  0  0  0  0
 14 12  2  0  0  0  0
 14  2  1  0  0  0  0
 15 11  1  6  0  0  0
 15  3  1  0  0  0  0
 16 23  1  6  0  0  0
 17 20  2  0  0  0  0
 17 11  1  0  0  0  0
 18 14  1  0  0  0  0
 19  1  1  0  0  0  0
 20 10  1  0  0  0  0
 21 18  2  0  0  0  0
 25 24  1  6  0  0  0
 25 15  1  0  0  0  0
 27 24  1  0  0  0  0
 28 26  1  6  0  0  0
 28 27  1  0  0  0  0
 28 30  1  0  0  0  0
 29 25  1  0  0  0  0
 30 32  1  1  0  0  0
 30 29  1  0  0  0  0
 32 31  1  0  0  0  0
 34 33  1  0  0  0  0
 35 34  2  0  0  0  0
 36 34  1  0  0  0  0
 36 22  1  0  0  0  0
 37 36  1  0  0  0  0
 38 37  1  0  0  0  0
 39 38  2  0  0  0  0
M  END
>  <MODEL>
8

>  <REMARK>
 VINA RESULT:      -6.9      2.228      7.585
  Name = 
  5 active torsions:
  status: ('A' for Active; 'I' for Inactive)
    1  A    between atoms: C_8  and  C_25
    2  A    between atoms: C_17  and  C_18
    3  A    between atoms: C_17  and  N_39
    4  A    between atoms: C_19  and  C_37
    5  A    between atoms: C_34  and  N_39
                            x       y       z     vdW  Elec       q    Type
                         _______ _______ _______ _____ _____    ______ ____

>  <TORSDO>
F 5

$$$$
=
 OpenBabel11072409133D

 39 43  0  0  1  0  0  0  0  0999 V2000
  194.5860  173.2260  143.4480 C   0  0  0  0  0  0  0  0  0  0  0  0
  190.4080  173.2280  139.3900 N   0  0  0  0  0  2  0  0  0  0  0  0
  190.3140  174.4180  143.6430 C   0  0  0  0  0  0  0  0  0  0  0  0
  192.7330  173.5090  139.4500 N   0  0  0  0  0  2  0  0  0  0  0  0
  192.8610  174.3440  142.2410 C   0  0  2  0  0  0  0  0  0  0  0  0
  191.6170  173.5030  140.1040 C   0  0  0  0  0  0  0  0  0  0  0  0
  190.3710  173.9750  142.2060 C   0  0  0  0  0  0  0  0  0  0  0  0
  192.7020  174.4270  143.6930 N   0  0  0  0  0  0  0  0  0  0  0  0
  193.2290  175.7340  141.7300 C   0  0  0  0  0  1  0  0  0  0  0  0
  191.4450  174.5930  144.3400 C   0  0  0  0  0  0  0  0  0  0  0  0
  189.1000  174.4520  145.7650 O   0  0  0  0  0  0  0  0  0  0  0  0
  188.0940  173.0180  139.4230 O   0  0  0  0  0  0  0  0  0  0  0  0
  191.5720  173.8900  141.5550 C   0  0  0  0  0  0  0  0  0  0  0  0
  189.1560  173.2690  140.0580 C   0  0  0  0  0  0  0  0  0  0  0  0
  188.9940  174.6620  144.3480 C   0  0  1  0  0  3  0  0  0  0  0  0
  194.0350  173.3310  142.0650 C   0  0  1  0  0  3  0  0  0  0  0  0
  190.2820  174.6900  146.4390 N   0  0  0  0  0  0  0  0  0  0  0  0
  189.1130  173.5930  141.4880 C   0  0  0  0  0  0  0  0  0  0  0  0
  193.7580  173.8540  144.3440 O   0  0  0  0  0  0  0  0  0  0  0  0
  191.4060  174.7900  145.7970 C   0  0  0  0  0  3  0  0  0  0  0  0
  188.0120  173.5120  142.0920 O   0  0  0  0  0  0  0  0  0  0  0  0
  195.6850  172.5670  143.7940 C   0  0  0  0  0  3  0  0  0  0  0  0
  195.0230  173.7970  141.1960 O   0  0  0  0  0  1  0  0  0  0  0  0
  187.5570  176.0070  142.7820 C   0  0  0  0  0  2  0  0  0  0  0  0
  188.4430  176.0560  144.0240 C   0  0  1  0  0  3  0  0  0  0  0  0
  185.8940  179.2770  143.1930 O   0  0  0  0  0  1  0  0  0  0  0  0
  187.1410  177.4230  142.3600 C   0  0  0  0  0  2  0  0  0  0  0  0
  186.9140  178.3910  143.5350 C   0  0  2  0  0  3  0  0  0  0  0  0
  187.7310  176.7160  145.2270 C   0  0  0  0  0  2  0  0  0  0  0  0
  186.5610  177.6220  144.8160 C   0  0  1  0  0  3  0  0  0  0  0  0
  184.8380  178.3870  146.3060 O   0  0  0  0  0  1  0  0  0  0  0  0
  186.1960  178.5220  145.9900 C   0  0  0  0  0  2  0  0  0  0  0  0
  196.9900  174.9330  144.8190 O   0  0  0  0  0  0  0  0  0  0  0  0
  196.8690  173.7950  145.6180 C   0  0  0  0  0  0  0  0  0  0  0  0
  197.3610  173.8060  146.7780 O   0  0  0  0  0  1  0  0  0  0  0  0
  196.2270  172.6140  145.1220 N   0  0  0  0  0  0  0  0  0  0  0  0
  196.3580  171.3700  145.8570 C   0  0  0  0  0  2  0  0  0  0  0  0
  195.2700  170.4240  145.4830 C   0  0  0  0  0  3  0  0  0  0  0  0
  194.5660  169.9250  146.3340 O   0  0  0  0  0  0  0  0  0  0  0  0
  1 22  2  0  0  0  0
  1 19  1  0  0  0  0
  2 14  1  0  0  0  0
  2  6  1  0  0  0  0
  3 10  2  0  0  0  0
  4  6  2  0  0  0  0
  5  9  1  6  0  0  0
  5  8  1  0  0  0  0
  6 13  1  0  0  0  0
  7  3  1  0  0  0  0
  8 10  1  0  0  0  0
  8 19  1  0  0  0  0
 10 20  1  0  0  0  0
 11 17  1  0  0  0  0
 12 14  2  0  0  0  0
 13  7  2  0  0  0  0
 13  5  1  0  0  0  0
 14 18  1  0  0  0  0
 15  3  1  6  0  0  0
 15 11  1  0  0  0  0
 16 23  1  6  0  0  0
 16  5  1  0  0  0  0
 16  1  1  0  0  0  0
 18 21  2  0  0  0  0
 18  7  1  0  0  0  0
 20 17  2  0  0  0  0
 22 36  1  0  0  0  0
 25 24  1  6  0  0  0
 25 15  1  0  0  0  0
 25 29  1  0  0  0  0
 27 24  1  0  0  0  0
 27 28  1  0  0  0  0
 28 26  1  6  0  0  0
 28 30  1  0  0  0  0
 30 29  1  0  0  0  0
 30 32  1  1  0  0  0
 32 31  1  0  0  0  0
 33 34  2  0  0  0  0
 34 35  1  0  0  0  0
 36 34  1  0  0  0  0
 36 37  1  0  0  0  0
 38 37  1  0  0  0  0
 38 39  2  0  0  0  0
M  END
>  <MODEL>
9

>  <REMARK>
 VINA RESULT:      -6.9      3.007      6.355
  Name = 
  5 active torsions:
  status: ('A' for Active; 'I' for Inactive)
    1  A    between atoms: C_8  and  C_25
    2  A    between atoms: C_17  and  C_18
    3  A    between atoms: C_17  and  N_39
    4  A    between atoms: C_19  and  C_37
    5  A    between atoms: C_34  and  N_39
                            x       y       z     vdW  Elec       q    Type
                         _______ _______ _______ _____ _____    ______ ____

>  <TORSDO>
F 5

$$$$
