=
 OpenBabel11072408353D

 26 29  0  0  0  0  0  0  0  0999 V2000
  186.2630  177.3670  142.1140 C   0  0  0  0  0  0  0  0  0  0  0  0
  183.9810  178.4420  145.5360 O   0  0  0  0  0  0  0  0  0  0  0  0
  185.3170  177.8210  142.9980 C   0  0  0  0  0  0  0  0  0  0  0  0
  186.0520  177.4130  140.7370 C   0  0  0  0  0  3  0  0  0  0  0  0
  185.9730  178.3250  146.7820 C   0  0  0  0  0  0  0  0  0  0  0  0
  183.8980  178.3960  141.1940 N   0  0  0  0  0  0  0  0  0  0  0  0
  191.3740  177.8160  144.2240 C   0  0  0  0  0  3  0  0  0  0  0  0
  189.8340  176.5820  142.7430 N   0  0  0  0  0  0  0  0  0  0  0  0
  192.1150  175.8570  142.9760 C   0  0  0  0  0  3  0  0  0  0  0  0
  185.8200  177.6600  144.2760 C   0  0  0  0  0  0  0  0  0  0  0  0
  188.5320  176.3340  142.1930 C   0  0  0  0  0  0  0  0  0  0  0  0
  193.4790  176.9430  144.6850 F   0  0  0  0  0  0  0  0  0  0  0  0
  187.3580  176.9330  142.7700 N   0  0  0  0  0  0  0  0  0  0  0  0
  190.1020  177.8570  143.4220 C   0  0  0  0  0  2  0  0  0  0  0  0
  187.0830  177.0950  144.0900 C   0  0  0  0  0  0  0  0  0  0  0  0
  184.8270  177.9430  140.2950 C   0  0  0  0  0  3  0  0  0  0  0  0
  187.9190  176.5910  145.1310 N   0  0  0  0  0  2  0  0  0  0  0  0
  185.1980  178.1140  145.5400 C   0  0  0  0  0  0  0  0  0  0  0  0
  190.9220  175.7060  142.4010 C   0  0  0  0  0  3  0  0  0  0  0  0
  184.1130  178.3520  142.5420 C   0  0  0  0  0  3  0  0  0  0  0  0
  188.4110  175.5860  141.1840 O   0  0  0  0  0  0  0  0  0  0  0  0
  192.3260  176.9140  143.9760 C   0  0  0  0  0  0  0  0  0  0  0  0
  187.4020  176.2870  146.4540 C   0  0  0  0  0  2  0  0  0  0  0  0
  186.9780  177.5280  147.1670 C   0  0  0  0  0  3  0  0  0  0  0  0
  186.5160  180.0540  148.3420 O   0  0  0  0  0  1  0  0  0  0  0  0
  185.6140  179.4070  147.5900 O   0  0  0  0  0  0  0  0  0  0  0  0
  1 13  1  0  0  0  0
  1  3  1  0  0  0  0
  2 18  2  0  0  0  0
  3 10  1  0  0  0  0
  4  1  2  0  0  0  0
  5 24  2  0  0  0  0
  5 26  1  0  0  0  0
  6 20  1  0  0  0  0
  8 14  1  0  0  0  0
  9 22  1  0  0  0  0
 10 18  1  0  0  0  0
 11  8  1  0  0  0  0
 11 13  1  0  0  0  0
 13 15  1  0  0  0  0
 14  7  1  0  0  0  0
 15 10  2  0  0  0  0
 15 17  1  0  0  0  0
 16  4  1  0  0  0  0
 16  6  2  0  0  0  0
 17 23  1  0  0  0  0
 18  5  1  0  0  0  0
 19  8  1  0  0  0  0
 19  9  2  0  0  0  0
 20  3  2  0  0  0  0
 21 11  2  0  0  0  0
 22  7  2  0  0  0  0
 22 12  1  0  0  0  0
 23 24  1  0  0  0  0
 26 25  1  0  0  0  0
M  END
>  <MODEL>
1

>  <REMARK>
 VINA RESULT:      -8.3      0.000      0.000
  Name = 
  1 active torsions:
  status: ('A' for Active; 'I' for Inactive)
    1  A    between atoms: C_5  and  O_18
                            x       y       z     vdW  Elec       q    Type
                         _______ _______ _______ _____ _____    ______ ____

>  <TORSDO>
F 1

$$$$
=
 OpenBabel11072408353D

 26 29  0  0  0  0  0  0  0  0999 V2000
  186.7400  177.9650  146.1020 C   0  0  0  0  0  0  0  0  0  0  0  0
  185.0910  178.8930  142.2960 O   0  0  0  0  0  0  0  0  0  0  0  0
  185.9400  178.3170  145.0460 C   0  0  0  0  0  0  0  0  0  0  0  0
  186.2710  178.0080  147.4140 C   0  0  0  0  0  3  0  0  0  0  0  0
  186.8690  177.6850  141.3380 C   0  0  0  0  0  0  0  0  0  0  0  0
  184.1600  178.7730  146.5360 N   0  0  0  0  0  0  0  0  0  0  0  0
  190.5830  174.2660  144.5770 C   0  0  0  0  0  3  0  0  0  0  0  0
  189.9730  176.1440  146.0560 N   0  0  0  0  0  0  0  0  0  0  0  0
  192.1490  175.1380  146.2300 C   0  0  0  0  0  3  0  0  0  0  0  0
  186.6750  178.1550  143.8850 C   0  0  0  0  0  0  0  0  0  0  0  0
  189.0790  177.1840  146.4800 C   0  0  0  0  0  0  0  0  0  0  0  0
  192.7770  173.4980  144.5330 F   0  0  0  0  0  0  0  0  0  0  0  0
  187.9550  177.5700  145.6700 N   0  0  0  0  0  0  0  0  0  0  0  0
  189.4690  175.0620  145.2000 C   0  0  0  0  0  2  0  0  0  0  0  0
  187.9230  177.7020  144.3190 C   0  0  0  0  0  0  0  0  0  0  0  0
  184.9440  178.4310  147.6060 C   0  0  0  0  0  3  0  0  0  0  0  0
  189.0760  177.5540  143.4910 N   0  0  0  0  0  2  0  0  0  0  0  0
  186.1880  178.3060  142.4960 C   0  0  0  0  0  0  0  0  0  0  0  0
  191.2650  176.0300  146.6740 C   0  0  0  0  0  3  0  0  0  0  0  0
  184.6240  178.7250  145.2530 C   0  0  0  0  0  3  0  0  0  0  0  0
  189.2740  177.7650  147.5830 O   0  0  0  0  0  0  0  0  0  0  0  0
  191.8140  174.2680  145.0930 C   0  0  0  0  0  0  0  0  0  0  0  0
  189.1770  178.1920  142.1890 C   0  0  0  0  0  2  0  0  0  0  0  0
  188.2010  177.6050  141.2230 C   0  0  0  0  0  3  0  0  0  0  0  0
  186.4980  177.1060  139.0490 O   0  0  0  0  0  1  0  0  0  0  0  0
  186.0650  177.1760  140.3160 O   0  0  0  0  0  0  0  0  0  0  0  0
  1  4  1  0  0  0  0
  2 18  2  0  0  0  0
  3 20  1  0  0  0  0
  3  1  2  0  0  0  0
  4 16  2  0  0  0  0
  5 18  1  0  0  0  0
  6 16  1  0  0  0  0
  7 22  2  0  0  0  0
  7 14  1  0  0  0  0
  8 11  1  0  0  0  0
  8 19  1  0  0  0  0
  9 19  2  0  0  0  0
 10 15  2  0  0  0  0
 10  3  1  0  0  0  0
 11 21  2  0  0  0  0
 12 22  1  0  0  0  0
 13  1  1  0  0  0  0
 13 11  1  0  0  0  0
 14  8  1  0  0  0  0
 15 13  1  0  0  0  0
 17 15  1  0  0  0  0
 18 10  1  0  0  0  0
 20  6  2  0  0  0  0
 22  9  1  0  0  0  0
 23 17  1  0  0  0  0
 24  5  2  0  0  0  0
 24 23  1  0  0  0  0
 25 26  1  0  0  0  0
 26  5  1  0  0  0  0
M  END
>  <MODEL>
2

>  <REMARK>
 VINA RESULT:      -8.2      2.448      4.776
  Name = 
  1 active torsions:
  status: ('A' for Active; 'I' for Inactive)
    1  A    between atoms: C_5  and  O_18
                            x       y       z     vdW  Elec       q    Type
                         _______ _______ _______ _____ _____    ______ ____

>  <TORSDO>
F 1

$$$$
=
 OpenBabel11072408353D

 26 29  0  0  0  0  0  0  0  0999 V2000
  186.7460  176.9460  145.3110 C   0  0  0  0  0  0  0  0  0  0  0  0
  183.4140  178.9930  143.6460 O   0  0  0  0  0  0  0  0  0  0  0  0
  185.5700  177.6120  145.0800 C   0  0  0  0  0  0  0  0  0  0  0  0
  187.1490  176.6100  146.6020 C   0  0  0  0  0  3  0  0  0  0  0  0
  184.0190  178.0840  141.5610 C   0  0  0  0  0  0  0  0  0  0  0  0
  185.1250  177.6460  147.4030 N   0  0  0  0  0  0  0  0  0  0  0  0
  188.1570  173.7820  140.9780 C   0  0  0  0  0  3  0  0  0  0  0  0
  188.9080  175.1520  142.8870 N   0  0  0  0  0  0  0  0  0  0  0  0
  190.5260  174.0920  141.4590 C   0  0  0  0  0  3  0  0  0  0  0  0
  185.4420  177.7840  143.7130 C   0  0  0  0  0  0  0  0  0  0  0  0
  188.6560  176.0390  143.9870 C   0  0  0  0  0  0  0  0  0  0  0  0
  189.7090  173.0140  139.4270 F   0  0  0  0  0  0  0  0  0  0  0  0
  187.3740  176.6710  144.1490 N   0  0  0  0  0  0  0  0  0  0  0  0
  187.7980  174.3810  142.3100 C   0  0  0  0  0  2  0  0  0  0  0  0
  186.5890  177.1970  143.1750 C   0  0  0  0  0  0  0  0  0  0  0  0
  186.2980  176.9860  147.6560 C   0  0  0  0  0  3  0  0  0  0  0  0
  186.9860  177.2750  141.8060 N   0  0  0  0  0  2  0  0  0  0  0  0
  184.2790  178.3500  142.9940 C   0  0  0  0  0  0  0  0  0  0  0  0
  190.2650  174.8320  142.5360 C   0  0  0  0  0  3  0  0  0  0  0  0
  184.7340  177.9680  146.1350 C   0  0  0  0  0  3  0  0  0  0  0  0
  189.5670  176.2640  144.8310 O   0  0  0  0  0  0  0  0  0  0  0  0
  189.4280  173.6050  140.6120 C   0  0  0  0  0  0  0  0  0  0  0  0
  186.4340  178.2670  140.9000 C   0  0  0  0  0  2  0  0  0  0  0  0
  184.9860  178.0130  140.6380 C   0  0  0  0  0  3  0  0  0  0  0  0
  182.3570  177.6620  139.8950 O   0  0  0  0  0  1  0  0  0  0  0  0
  182.6880  177.9170  141.1690 O   0  0  0  0  0  0  0  0  0  0  0  0
  1  4  1  0  0  0  0
  3  1  2  0  0  0  0
  3 20  1  0  0  0  0
  4 16  2  0  0  0  0
  5 18  1  0  0  0  0
  6 16  1  0  0  0  0
  7 14  1  0  0  0  0
  8 11  1  0  0  0  0
  9 19  2  0  0  0  0
 10  3  1  0  0  0  0
 11 13  1  0  0  0  0
 11 21  2  0  0  0  0
 12 22  1  0  0  0  0
 13  1  1  0  0  0  0
 14  8  1  0  0  0  0
 15 10  2  0  0  0  0
 15 13  1  0  0  0  0
 17 15  1  0  0  0  0
 18  2  2  0  0  0  0
 18 10  1  0  0  0  0
 19  8  1  0  0  0  0
 20  6  2  0  0  0  0
 22  7  2  0  0  0  0
 22  9  1  0  0  0  0
 23 17  1  0  0  0  0
 24 23  1  0  0  0  0
 24  5  2  0  0  0  0
 25 26  1  0  0  0  0
 26  5  1  0  0  0  0
M  END
>  <MODEL>
3

>  <REMARK>
 VINA RESULT:      -7.8      2.712      4.901
  Name = 
  1 active torsions:
  status: ('A' for Active; 'I' for Inactive)
    1  A    between atoms: C_5  and  O_18
                            x       y       z     vdW  Elec       q    Type
                         _______ _______ _______ _____ _____    ______ ____

>  <TORSDO>
F 1

$$$$
=
 OpenBabel11072408353D

 26 29  0  0  0  0  0  0  0  0999 V2000
  188.6950  175.2210  141.5610 C   0  0  0  0  0  0  0  0  0  0  0  0
  192.0770  174.5300  144.0410 O   0  0  0  0  0  0  0  0  0  0  0  0
  189.8420  174.7580  142.1530 C   0  0  0  0  0  0  0  0  0  0  0  0
  188.2160  174.6690  140.3740 C   0  0  0  0  0  3  0  0  0  0  0  0
  190.9740  175.7510  145.7230 C   0  0  0  0  0  0  0  0  0  0  0  0
  190.1030  173.1680  140.4210 N   0  0  0  0  0  0  0  0  0  0  0  0
  185.2090  177.3560  145.3120 C   0  0  0  0  0  3  0  0  0  0  0  0
  186.0650  177.4080  142.9990 N   0  0  0  0  0  0  0  0  0  0  0  0
  184.3480  178.9480  143.6790 C   0  0  0  0  0  3  0  0  0  0  0  0
  190.0440  175.4860  143.3120 C   0  0  0  0  0  0  0  0  0  0  0  0
  186.9720  176.9780  141.9740 C   0  0  0  0  0  0  0  0  0  0  0  0
  183.7790  179.0330  146.0520 F   0  0  0  0  0  0  0  0  0  0  0  0
  188.1430  176.2080  142.2970 N   0  0  0  0  0  0  0  0  0  0  0  0
  185.9180  176.6030  144.2190 C   0  0  0  0  0  2  0  0  0  0  0  0
  188.9750  176.3820  143.3570 C   0  0  0  0  0  0  0  0  0  0  0  0
  188.9620  173.6190  139.8110 C   0  0  0  0  0  3  0  0  0  0  0  0
  188.8420  177.4580  144.2860 N   0  0  0  0  0  2  0  0  0  0  0  0
  191.0930  175.2610  144.3310 C   0  0  0  0  0  0  0  0  0  0  0  0
  185.1310  178.4640  142.7160 C   0  0  0  0  0  3  0  0  0  0  0  0
  190.5640  173.7110  141.5860 C   0  0  0  0  0  3  0  0  0  0  0  0
  186.7390  177.2700  140.7680 O   0  0  0  0  0  0  0  0  0  0  0  0
  184.4420  178.4140  145.0460 C   0  0  0  0  0  0  0  0  0  0  0  0
  189.9700  177.9540  145.0550 C   0  0  0  0  0  2  0  0  0  0  0  0
  190.4400  176.9370  146.0420 C   0  0  0  0  0  3  0  0  0  0  0  0
  191.4140  175.2960  148.0280 O   0  0  0  0  0  1  0  0  0  0  0  0
  191.4630  174.9280  146.7400 O   0  0  0  0  0  0  0  0  0  0  0  0
  1  3  1  0  0  0  0
  1 13  1  0  0  0  0
  2 18  2  0  0  0  0
  3 10  1  0  0  0  0
  4  1  2  0  0  0  0
  5 24  2  0  0  0  0
  5 26  1  0  0  0  0
  6 20  1  0  0  0  0
  8 14  1  0  0  0  0
  9 22  1  0  0  0  0
 10 15  2  0  0  0  0
 10 18  1  0  0  0  0
 11 13  1  0  0  0  0
 11  8  1  0  0  0  0
 13 15  1  0  0  0  0
 14  7  1  0  0  0  0
 15 17  1  0  0  0  0
 16  4  1  0  0  0  0
 16  6  2  0  0  0  0
 17 23  1  0  0  0  0
 18  5  1  0  0  0  0
 19  8  1  0  0  0  0
 19  9  2  0  0  0  0
 20  3  2  0  0  0  0
 21 11  2  0  0  0  0
 22  7  2  0  0  0  0
 22 12  1  0  0  0  0
 23 24  1  0  0  0  0
 26 25  1  0  0  0  0
M  END
>  <MODEL>
4

>  <REMARK>
 VINA RESULT:      -7.6      3.393      5.881
  Name = 
  1 active torsions:
  status: ('A' for Active; 'I' for Inactive)
    1  A    between atoms: C_5  and  O_18
                            x       y       z     vdW  Elec       q    Type
                         _______ _______ _______ _____ _____    ______ ____

>  <TORSDO>
F 1

$$$$
=
 OpenBabel11072408353D

 26 29  0  0  0  0  0  0  0  0999 V2000
  190.7680  176.0260  145.2230 C   0  0  0  0  0  0  0  0  0  0  0  0
  187.4690  177.8910  147.1480 O   0  0  0  0  0  0  0  0  0  0  0  0
  189.9010  176.6270  146.1000 C   0  0  0  0  0  0  0  0  0  0  0  0
  192.0740  175.7090  145.5960 C   0  0  0  0  0  3  0  0  0  0  0  0
  186.1040  177.0210  145.4390 C   0  0  0  0  0  0  0  0  0  0  0  0
  191.5780  176.6310  147.7680 N   0  0  0  0  0  0  0  0  0  0  0  0
  188.0540  172.9530  141.4860 C   0  0  0  0  0  3  0  0  0  0  0  0
  190.0170  174.3580  141.9960 N   0  0  0  0  0  0  0  0  0  0  0  0
  189.7670  173.3910  139.8080 C   0  0  0  0  0  3  0  0  0  0  0  0
  188.6910  176.7950  145.4490 C   0  0  0  0  0  0  0  0  0  0  0  0
  190.7630  175.2270  142.8610 C   0  0  0  0  0  0  0  0  0  0  0  0
  187.6560  172.2750  139.2990 F   0  0  0  0  0  0  0  0  0  0  0  0
  190.1640  175.7880  144.0420 N   0  0  0  0  0  0  0  0  0  0  0  0
  188.9410  173.5290  142.5560 C   0  0  0  0  0  2  0  0  0  0  0  0
  188.9020  176.2720  144.1720 C   0  0  0  0  0  0  0  0  0  0  0  0
  192.4610  176.0350  146.9070 C   0  0  0  0  0  3  0  0  0  0  0  0
  187.9870  176.3750  143.0810 N   0  0  0  0  0  2  0  0  0  0  0  0
  187.4300  177.2980  146.0370 C   0  0  0  0  0  0  0  0  0  0  0  0
  190.4920  174.1140  140.6610 C   0  0  0  0  0  3  0  0  0  0  0  0
  190.3000  176.9340  147.3980 C   0  0  0  0  0  3  0  0  0  0  0  0
  191.9650  175.5000  142.5880 O   0  0  0  0  0  0  0  0  0  0  0  0
  188.4650  172.8470  140.2210 C   0  0  0  0  0  0  0  0  0  0  0  0
  186.8990  177.3370  143.0780 C   0  0  0  0  0  2  0  0  0  0  0  0
  185.8810  177.0050  144.1190 C   0  0  0  0  0  3  0  0  0  0  0  0
  184.1570  177.7420  146.6240 O   0  0  0  0  0  1  0  0  0  0  0  0
  185.0410  176.7830  146.3140 O   0  0  0  0  0  0  0  0  0  0  0  0
  1  4  2  0  0  0  0
  1  3  1  0  0  0  0
  3 20  2  0  0  0  0
  4 16  1  0  0  0  0
  5 18  1  0  0  0  0
  5 26  1  0  0  0  0
  7 14  1  0  0  0  0
  8 14  1  0  0  0  0
  8 11  1  0  0  0  0
  9 22  1  0  0  0  0
  9 19  2  0  0  0  0
 10 18  1  0  0  0  0
 10  3  1  0  0  0  0
 11 13  1  0  0  0  0
 12 22  1  0  0  0  0
 13 15  1  0  0  0  0
 13  1  1  0  0  0  0
 15 10  2  0  0  0  0
 16  6  2  0  0  0  0
 17 15  1  0  0  0  0
 18  2  2  0  0  0  0
 19  8  1  0  0  0  0
 20  6  1  0  0  0  0
 21 11  2  0  0  0  0
 22  7  2  0  0  0  0
 23 17  1  0  0  0  0
 23 24  1  0  0  0  0
 24  5  2  0  0  0  0
 26 25  1  0  0  0  0
M  END
>  <MODEL>
5

>  <REMARK>
 VINA RESULT:      -7.5      3.053      5.367
  Name = 
  1 active torsions:
  status: ('A' for Active; 'I' for Inactive)
    1  A    between atoms: C_5  and  O_18
                            x       y       z     vdW  Elec       q    Type
                         _______ _______ _______ _____ _____    ______ ____

>  <TORSDO>
F 1

$$$$
=
 OpenBabel11072408353D

 26 29  0  0  0  0  0  0  0  0999 V2000
  188.9780  175.2800  144.6810 C   0  0  0  0  0  0  0  0  0  0  0  0
  185.8110  178.1140  144.7720 O   0  0  0  0  0  0  0  0  0  0  0  0
  187.9640  176.1360  145.0270 C   0  0  0  0  0  0  0  0  0  0  0  0
  189.6970  174.5780  145.6470 C   0  0  0  0  0  3  0  0  0  0  0  0
  185.4910  177.6860  142.4800 C   0  0  0  0  0  0  0  0  0  0  0  0
  188.3190  175.6440  147.3140 N   0  0  0  0  0  0  0  0  0  0  0  0
  188.1780  173.1490  139.6220 C   0  0  0  0  0  3  0  0  0  0  0  0
  189.7880  173.8780  141.3430 N   0  0  0  0  0  0  0  0  0  0  0  0
  190.5820  173.0020  139.2490 C   0  0  0  0  0  3  0  0  0  0  0  0
  187.4380  176.6630  143.8610 C   0  0  0  0  0  0  0  0  0  0  0  0
  190.1070  174.4850  142.6040 C   0  0  0  0  0  0  0  0  0  0  0  0
  188.9330  172.5930  137.4950 F   0  0  0  0  0  0  0  0  0  0  0  0
  189.1170  175.2240  143.3410 N   0  0  0  0  0  0  0  0  0  0  0  0
  188.4110  173.4360  141.0800 C   0  0  0  0  0  2  0  0  0  0  0  0
  188.1900  176.0800  142.8400 C   0  0  0  0  0  0  0  0  0  0  0  0
  189.3390  174.7880  146.9890 C   0  0  0  0  0  3  0  0  0  0  0  0
  188.1270  176.4460  141.4620 N   0  0  0  0  0  2  0  0  0  0  0  0
  186.2550  177.5450  143.7390 C   0  0  0  0  0  0  0  0  0  0  0  0
  190.8530  173.4760  140.4650 C   0  0  0  0  0  3  0  0  0  0  0  0
  187.6160  176.3250  146.3630 C   0  0  0  0  0  3  0  0  0  0  0  0
  191.2690  174.3630  143.0800 O   0  0  0  0  0  0  0  0  0  0  0  0
  189.1900  172.8990  138.7890 C   0  0  0  0  0  0  0  0  0  0  0  0
  187.5370  177.7000  141.0250 C   0  0  0  0  0  2  0  0  0  0  0  0
  186.0650  177.7190  141.2700 C   0  0  0  0  0  3  0  0  0  0  0  0
  183.3410  178.0770  141.5090 O   0  0  0  0  0  1  0  0  0  0  0  0
  184.1030  177.8060  142.5800 O   0  0  0  0  0  0  0  0  0  0  0  0
  1  3  2  0  0  0  0
  1  4  1  0  0  0  0
  3 20  1  0  0  0  0
  4 16  2  0  0  0  0
  5 26  1  0  0  0  0
  5 18  1  0  0  0  0
  7 14  1  0  0  0  0
  8 11  1  0  0  0  0
  9 19  2  0  0  0  0
 10  3  1  0  0  0  0
 11 21  2  0  0  0  0
 11 13  1  0  0  0  0
 12 22  1  0  0  0  0
 13  1  1  0  0  0  0
 14  8  1  0  0  0  0
 15 13  1  0  0  0  0
 15 10  2  0  0  0  0
 16  6  1  0  0  0  0
 17 15  1  0  0  0  0
 18 10  1  0  0  0  0
 18  2  2  0  0  0  0
 19  8  1  0  0  0  0
 20  6  2  0  0  0  0
 22  9  1  0  0  0  0
 22  7  2  0  0  0  0
 23 24  1  0  0  0  0
 23 17  1  0  0  0  0
 24  5  2  0  0  0  0
 25 26  1  0  0  0  0
M  END
>  <MODEL>
6

>  <REMARK>
 VINA RESULT:      -7.3      3.176      5.365
  Name = 
  1 active torsions:
  status: ('A' for Active; 'I' for Inactive)
    1  A    between atoms: C_5  and  O_18
                            x       y       z     vdW  Elec       q    Type
                         _______ _______ _______ _____ _____    ______ ____

>  <TORSDO>
F 1

$$$$
=
 OpenBabel11072408353D

 26 29  0  0  0  0  0  0  0  0999 V2000
  189.1820  176.5270  145.5890 C   0  0  0  0  0  0  0  0  0  0  0  0
  191.8060  173.8650  143.5640 O   0  0  0  0  0  0  0  0  0  0  0  0
  190.2330  175.7500  145.1720 C   0  0  0  0  0  0  0  0  0  0  0  0
  189.2500  177.2670  146.7680 C   0  0  0  0  0  3  0  0  0  0  0  0
  190.4470  174.1260  141.6610 C   0  0  0  0  0  0  0  0  0  0  0  0
  191.4800  176.4030  147.0720 N   0  0  0  0  0  0  0  0  0  0  0  0
  186.1460  178.2910  141.2940 C   0  0  0  0  0  3  0  0  0  0  0  0
  186.2030  177.6220  143.6680 N   0  0  0  0  0  0  0  0  0  0  0  0
  184.1260  178.2910  142.6590 C   0  0  0  0  0  3  0  0  0  0  0  0
  189.8730  175.1590  143.9730 C   0  0  0  0  0  0  0  0  0  0  0  0
  186.8790  177.1010  144.8220 C   0  0  0  0  0  0  0  0  0  0  0  0
  184.1030  178.6400  140.2420 F   0  0  0  0  0  0  0  0  0  0  0  0
  188.1660  176.4710  144.7030 N   0  0  0  0  0  0  0  0  0  0  0  0
  186.9890  178.1070  142.5260 C   0  0  0  0  0  2  0  0  0  0  0  0
  188.5790  175.6230  143.7260 C   0  0  0  0  0  0  0  0  0  0  0  0
  190.4410  177.1810  147.5100 C   0  0  0  0  0  3  0  0  0  0  0  0
  187.7230  175.1540  142.6840 N   0  0  0  0  0  2  0  0  0  0  0  0
  190.7310  174.3290  143.0990 C   0  0  0  0  0  0  0  0  0  0  0  0
  184.7950  177.9020  143.7430 C   0  0  0  0  0  3  0  0  0  0  0  0
  191.4090  175.6840  145.9140 C   0  0  0  0  0  3  0  0  0  0  0  0
  186.3440  177.2030  145.9600 O   0  0  0  0  0  0  0  0  0  0  0  0
  184.8200  178.4250  141.3700 C   0  0  0  0  0  0  0  0  0  0  0  0
  187.9680  173.9000  141.9940 C   0  0  0  0  0  2  0  0  0  0  0  0
  189.2110  173.9710  141.1690 C   0  0  0  0  0  3  0  0  0  0  0  0
  191.5680  173.2450  139.7420 O   0  0  0  0  0  1  0  0  0  0  0  0
  191.5380  174.0820  140.7890 O   0  0  0  0  0  0  0  0  0  0  0  0
  1  4  1  0  0  0  0
  3  1  2  0  0  0  0
  3 20  1  0  0  0  0
  4 16  2  0  0  0  0
  5 18  1  0  0  0  0
  6 16  1  0  0  0  0
  7 22  2  0  0  0  0
  7 14  1  0  0  0  0
  8 19  1  0  0  0  0
  8 11  1  0  0  0  0
  9 19  2  0  0  0  0
 10  3  1  0  0  0  0
 11 21  2  0  0  0  0
 12 22  1  0  0  0  0
 13 11  1  0  0  0  0
 13  1  1  0  0  0  0
 14  8  1  0  0  0  0
 15 10  2  0  0  0  0
 15 13  1  0  0  0  0
 17 15  1  0  0  0  0
 18  2  2  0  0  0  0
 18 10  1  0  0  0  0
 20  6  2  0  0  0  0
 22  9  1  0  0  0  0
 23 17  1  0  0  0  0
 24  5  2  0  0  0  0
 24 23  1  0  0  0  0
 25 26  1  0  0  0  0
 26  5  1  0  0  0  0
M  END
>  <MODEL>
7

>  <REMARK>
 VINA RESULT:      -7.2      3.122      7.127
  Name = 
  1 active torsions:
  status: ('A' for Active; 'I' for Inactive)
    1  A    between atoms: C_5  and  O_18
                            x       y       z     vdW  Elec       q    Type
                         _______ _______ _______ _____ _____    ______ ____

>  <TORSDO>
F 1

$$$$
=
 OpenBabel11072408353D

 26 29  0  0  0  0  0  0  0  0999 V2000
  188.7340  174.7300  142.1400 C   0  0  0  0  0  0  0  0  0  0  0  0
  192.9710  175.0480  142.0250 O   0  0  0  0  0  0  0  0  0  0  0  0
  190.0780  174.5600  141.9320 C   0  0  0  0  0  0  0  0  0  0  0  0
  187.7960  173.8670  141.5750 C   0  0  0  0  0  3  0  0  0  0  0  0
  192.8190  176.4730  143.8920 C   0  0  0  0  0  0  0  0  0  0  0  0
  189.6380  172.6640  140.5890 N   0  0  0  0  0  0  0  0  0  0  0  0
  187.7440  177.2100  147.0030 C   0  0  0  0  0  3  0  0  0  0  0  0
  187.0290  176.8410  144.6710 N   0  0  0  0  0  0  0  0  0  0  0  0
  185.7370  178.2680  146.1110 C   0  0  0  0  0  3  0  0  0  0  0  0
  190.7440  175.5530  142.6300 C   0  0  0  0  0  0  0  0  0  0  0  0
  187.2280  176.3050  143.3540 C   0  0  0  0  0  0  0  0  0  0  0  0
  186.6760  178.8190  148.2970 F   0  0  0  0  0  0  0  0  0  0  0  0
  188.5060  175.7810  142.9540 N   0  0  0  0  0  0  0  0  0  0  0  0
  187.8270  176.3230  145.7910 C   0  0  0  0  0  2  0  0  0  0  0  0
  189.7300  176.2950  143.2390 C   0  0  0  0  0  0  0  0  0  0  0  0
  188.2910  172.8180  140.7810 C   0  0  0  0  0  3  0  0  0  0  0  0
  189.9190  177.5280  143.9330 N   0  0  0  0  0  2  0  0  0  0  0  0
  192.2080  175.6980  142.7890 C   0  0  0  0  0  0  0  0  0  0  0  0
  185.8890  177.6800  144.9260 C   0  0  0  0  0  3  0  0  0  0  0  0
  190.5510  173.5100  141.1490 C   0  0  0  0  0  3  0  0  0  0  0  0
  186.2680  176.2840  142.5360 O   0  0  0  0  0  0  0  0  0  0  0  0
  186.7420  178.0760  147.1670 C   0  0  0  0  0  0  0  0  0  0  0  0
  191.1250  178.3230  143.7750 C   0  0  0  0  0  2  0  0  0  0  0  0
  192.3120  177.6250  144.3510 C   0  0  0  0  0  3  0  0  0  0  0  0
  195.1560  176.6310  144.3720 O   0  0  0  0  0  1  0  0  0  0  0  0
  193.9920  175.9700  144.4600 O   0  0  0  0  0  0  0  0  0  0  0  0
  1 13  1  0  0  0  0
  2 18  2  0  0  0  0
  3  1  1  0  0  0  0
  3 10  1  0  0  0  0
  4  1  2  0  0  0  0
  5 24  2  0  0  0  0
  5 26  1  0  0  0  0
  6 16  2  0  0  0  0
  6 20  1  0  0  0  0
  7 22  2  0  0  0  0
  8 19  1  0  0  0  0
  8 14  1  0  0  0  0
  9 22  1  0  0  0  0
 10 18  1  0  0  0  0
 10 15  2  0  0  0  0
 11  8  1  0  0  0  0
 13 15  1  0  0  0  0
 13 11  1  0  0  0  0
 14  7  1  0  0  0  0
 15 17  1  0  0  0  0
 16  4  1  0  0  0  0
 18  5  1  0  0  0  0
 19  9  2  0  0  0  0
 20  3  2  0  0  0  0
 21 11  2  0  0  0  0
 22 12  1  0  0  0  0
 23 17  1  0  0  0  0
 23 24  1  0  0  0  0
 25 26  1  0  0  0  0
M  END
>  <MODEL>
8

>  <REMARK>
 VINA RESULT:      -7.0      3.144      6.260
  Name = 
  1 active torsions:
  status: ('A' for Active; 'I' for Inactive)
    1  A    between atoms: C_5  and  O_18
                            x       y       z     vdW  Elec       q    Type
                         _______ _______ _______ _____ _____    ______ ____

>  <TORSDO>
F 1

$$$$
=
 OpenBabel11072408353D

 26 29  0  0  0  0  0  0  0  0999 V2000
  187.0810  176.6350  143.6560 C   0  0  0  0  0  0  0  0  0  0  0  0
  187.2800  178.1350  147.6280 O   0  0  0  0  0  0  0  0  0  0  0  0
  186.8760  177.2760  144.8510 C   0  0  0  0  0  0  0  0  0  0  0  0
  186.1740  176.7540  142.6040 C   0  0  0  0  0  3  0  0  0  0  0  0
  189.5580  177.5460  147.6340 C   0  0  0  0  0  0  0  0  0  0  0  0
  184.8580  178.1910  144.0240 N   0  0  0  0  0  0  0  0  0  0  0  0
  192.4880  175.8710  142.6760 C   0  0  0  0  0  3  0  0  0  0  0  0
  190.1810  175.0470  142.3780 N   0  0  0  0  0  0  0  0  0  0  0  0
  192.0250  173.8190  141.4440 C   0  0  0  0  0  3  0  0  0  0  0  0
  187.9460  176.9800  145.6780 C   0  0  0  0  0  0  0  0  0  0  0  0
  188.7700  175.1120  142.6310 C   0  0  0  0  0  0  0  0  0  0  0  0
  194.2820  174.5350  142.0430 F   0  0  0  0  0  0  0  0  0  0  0  0
  188.2430  175.9510  143.6740 N   0  0  0  0  0  0  0  0  0  0  0  0
  191.0230  176.2150  142.6710 C   0  0  0  0  0  2  0  0  0  0  0  0
  188.7630  176.1470  144.9130 C   0  0  0  0  0  0  0  0  0  0  0  0
  185.0410  177.5560  142.8240 C   0  0  0  0  0  3  0  0  0  0  0  0
  189.9080  175.4460  145.4000 N   0  0  0  0  0  2  0  0  0  0  0  0
  188.2100  177.5400  147.0220 C   0  0  0  0  0  0  0  0  0  0  0  0
  190.7100  173.9540  141.6080 C   0  0  0  0  0  3  0  0  0  0  0  0
  185.7530  178.0740  145.0480 C   0  0  0  0  0  3  0  0  0  0  0  0
  187.9760  174.4300  141.9260 O   0  0  0  0  0  0  0  0  0  0  0  0
  192.9500  174.7810  142.0600 C   0  0  0  0  0  0  0  0  0  0  0  0
  190.1380  175.2420  146.8200 C   0  0  0  0  0  2  0  0  0  0  0  0
  190.4260  176.5340  147.5110 C   0  0  0  0  0  3  0  0  0  0  0  0
  190.9070  178.6170  149.2910 O   0  0  0  0  0  1  0  0  0  0  0  0
  189.9170  178.6660  148.3880 O   0  0  0  0  0  0  0  0  0  0  0  0
  1 13  1  0  0  0  0
  1  3  1  0  0  0  0
  3 20  2  0  0  0  0
  3 10  1  0  0  0  0
  4 16  1  0  0  0  0
  4  1  2  0  0  0  0
  5 26  1  0  0  0  0
  6 20  1  0  0  0  0
  8 11  1  0  0  0  0
  8 14  1  0  0  0  0
  9 19  2  0  0  0  0
  9 22  1  0  0  0  0
 10 18  1  0  0  0  0
 11 13  1  0  0  0  0
 12 22  1  0  0  0  0
 13 15  1  0  0  0  0
 14  7  1  0  0  0  0
 15 17  1  0  0  0  0
 15 10  2  0  0  0  0
 16  6  2  0  0  0  0
 17 23  1  0  0  0  0
 18  2  2  0  0  0  0
 18  5  1  0  0  0  0
 19  8  1  0  0  0  0
 21 11  2  0  0  0  0
 22  7  2  0  0  0  0
 23 24  1  0  0  0  0
 24  5  2  0  0  0  0
 26 25  1  0  0  0  0
M  END
>  <MODEL>
9

>  <REMARK>
 VINA RESULT:      -6.9      2.193      2.859
  Name = 
  1 active torsions:
  status: ('A' for Active; 'I' for Inactive)
    1  A    between atoms: C_5  and  O_18
                            x       y       z     vdW  Elec       q    Type
                         _______ _______ _______ _____ _____    ______ ____

>  <TORSDO>
F 1

$$$$
