=
 OpenBabel11062422563D

 29 33  0  0  1  0  0  0  0  0999 V2000
  189.1640  175.9960  143.8710 C   0  0  1  0  0  3  0  0  0  0  0  0
  187.8970  176.6760  143.5420 N   0  0  0  0  0  0  0  0  0  0  0  0
  189.2990  173.9940  140.6240 C   0  0  0  0  0  3  0  0  0  0  0  0
  189.1220  175.5150  145.1870 O   0  0  0  0  0  0  0  0  0  0  0  0
  190.7570  172.9380  142.1600 C   0  0  0  0  0  3  0  0  0  0  0  0
  190.2050  173.0300  140.9250 N   0  0  0  0  0  0  0  0  0  0  0  0
  192.3230  176.3290  146.8940 C   0  0  0  0  0  1  0  0  0  0  0  0
  191.9160  174.7400  144.9610 C   0  0  1  0  0  3  0  0  0  0  0  0
  188.9260  174.9360  141.5810 C   0  0  0  0  0  0  0  0  0  0  0  0
  190.9990  173.6090  144.5190 C   0  0  0  0  0  2  0  0  0  0  0  0
  190.4160  173.8490  143.1630 C   0  0  0  0  0  0  0  0  0  0  0  0
  191.3210  175.4100  146.2120 C   0  0  2  0  0  3  0  0  0  0  0  0
  189.4790  174.8760  142.8810 C   0  0  0  0  0  0  0  0  0  0  0  0
  187.8640  175.9270  141.2210 C   0  0  0  0  0  2  0  0  0  0  0  0
  190.0990  176.2550  145.8620 C   0  0  0  0  0  2  0  0  0  0  0  0
  187.9020  177.1280  142.1480 C   0  0  0  0  0  2  0  0  0  0  0  0
  194.4590  174.7920  144.4980 C   0  0  0  0  0  1  0  0  0  0  0  0
  193.2920  174.1810  145.1930 C   0  0  0  0  0  0  0  0  0  0  0  0
  193.4640  173.2330  145.9450 O   0  0  0  0  0  0  0  0  0  0  0  0
  187.6730  177.7790  144.4070 N   0  0  0  0  0  2  0  0  0  0  0  0
  185.3370  177.0350  144.7850 C   0  0  0  0  0  2  0  0  0  0  0  0
  186.0900  179.4440  145.3270 C   0  0  0  0  0  2  0  0  0  0  0  0
  186.2670  178.2130  144.4100 C   0  0  1  0  0  3  0  0  0  0  0  0
  184.5480  178.2000  146.8490 C   0  0  2  0  0  3  0  0  0  0  0  0
  185.0850  176.8930  146.3010 C   0  0  2  0  0  3  0  0  0  0  0  0
  183.4850  178.7040  146.0890 O   0  0  0  0  0  1  0  0  0  0  0  0
  185.7720  179.0910  146.7960 C   0  0  1  0  0  3  0  0  0  0  0  0
  186.4140  176.7530  147.0360 C   0  0  0  0  0  2  0  0  0  0  0  0
  186.8620  178.1830  147.3580 C   0  0  0  0  0  2  0  0  0  0  0  0
  1 13  1  6  0  0  0
  1  4  1  0  0  0  0
  2  1  1  0  0  0  0
  2 20  1  0  0  0  0
  3  6  2  0  0  0  0
  3  9  1  0  0  0  0
  4 15  1  0  0  0  0
  5 11  2  0  0  0  0
  6  5  1  0  0  0  0
  8 18  1  1  0  0  0
  8 12  1  0  0  0  0
  9 13  2  0  0  0  0
 10  8  1  0  0  0  0
 11 10  1  0  0  0  0
 12  7  1  6  0  0  0
 13 11  1  0  0  0  0
 14  9  1  0  0  0  0
 14 16  1  0  0  0  0
 15 12  1  0  0  0  0
 16  2  1  0  0  0  0
 17 18  1  0  0  0  0
 18 19  2  0  0  0  0
 23 20  1  1  0  0  0
 23 21  1  0  0  0  0
 23 22  1  0  0  0  0
 24 26  1  6  0  0  0
 25 21  1  6  0  0  0
 25 24  1  0  0  0  0
 25 28  1  0  0  0  0
 27 22  1  6  0  0  0
 27 24  1  0  0  0  0
 27 29  1  0  0  0  0
 28 29  1  0  0  0  0
M  END
>  <MODEL>
1

>  <REMARK>
 VINA RESULT:      -8.0      0.000      0.000
  Name = 
  3 active torsions:
  status: ('A' for Active; 'I' for Inactive)
    1  A    between atoms: N_2  and  N_18
    2  A    between atoms: C_7  and  N_18
    3  A    between atoms: C_12  and  C_19
                            x       y       z     vdW  Elec       q    Type
                         _______ _______ _______ _____ _____    ______ ____

>  <TORSDO>
F 3

$$$$
=
 OpenBabel11062422563D

 29 33  0  0  1  0  0  0  0  0999 V2000
  188.6790  176.4960  144.3410 C   0  0  1  0  0  3  0  0  0  0  0  0
  190.0030  175.9010  144.0800 N   0  0  0  0  0  0  0  0  0  0  0  0
  187.5250  176.3060  140.7080 C   0  0  0  0  0  3  0  0  0  0  0  0
  188.8150  177.6320  145.1510 O   0  0  0  0  0  0  0  0  0  0  0  0
  186.1230  177.8620  141.8090 C   0  0  0  0  0  3  0  0  0  0  0  0
  186.4710  177.1600  140.7020 N   0  0  0  0  0  0  0  0  0  0  0  0
  186.2370  177.5460  147.8300 C   0  0  0  0  0  1  0  0  0  0  0  0
  185.9180  177.8150  145.3290 C   0  0  1  0  0  3  0  0  0  0  0  0
  188.2700  176.1120  141.8700 C   0  0  0  0  0  0  0  0  0  0  0  0
  186.4430  178.6030  144.1370 C   0  0  0  0  0  2  0  0  0  0  0  0
  186.8370  177.7160  143.0010 C   0  0  0  0  0  0  0  0  0  0  0  0
  186.8570  178.0350  146.5290 C   0  0  2  0  0  3  0  0  0  0  0  0
  187.9400  176.8250  143.0460 C   0  0  0  0  0  0  0  0  0  0  0  0
  189.4700  175.2210  141.7980 C   0  0  0  0  0  2  0  0  0  0  0  0
  188.1750  177.2880  146.3480 C   0  0  0  0  0  2  0  0  0  0  0  0
  189.8820  174.7490  143.1820 C   0  0  0  0  0  2  0  0  0  0  0  0
  183.8250  179.1780  144.6640 C   0  0  0  0  0  1  0  0  0  0  0  0
  184.5030  178.2440  145.6040 C   0  0  0  0  0  0  0  0  0  0  0  0
  183.9050  177.8340  146.5870 O   0  0  0  0  0  0  0  0  0  0  0  0
  190.6310  175.5060  145.2900 N   0  0  0  0  0  2  0  0  0  0  0  0
  192.4640  175.9180  146.9100 C   0  0  0  0  0  2  0  0  0  0  0  0
  192.4270  177.0590  144.5950 C   0  0  0  0  0  2  0  0  0  0  0  0
  191.5960  176.5070  145.7730 C   0  0  1  0  0  3  0  0  0  0  0  0
  194.5530  176.1740  145.5640 C   0  0  2  0  0  3  0  0  0  0  0  0
  193.7480  175.2150  146.4180 C   0  0  2  0  0  3  0  0  0  0  0  0
  194.7260  177.4220  146.1760 O   0  0  0  0  0  1  0  0  0  0  0  0
  193.7140  176.2570  144.3050 C   0  0  1  0  0  3  0  0  0  0  0  0
  193.3870  174.1170  145.4230 C   0  0  0  0  0  2  0  0  0  0  0  0
  193.3660  174.7940  144.0480 C   0  0  0  0  0  2  0  0  0  0  0  0
  1 13  1  6  0  0  0
  1  4  1  0  0  0  0
  2  1  1  0  0  0  0
  2 20  1  0  0  0  0
  3  9  1  0  0  0  0
  4 15  1  0  0  0  0
  5 11  2  0  0  0  0
  6  3  2  0  0  0  0
  6  5  1  0  0  0  0
  8 18  1  1  0  0  0
  8 12  1  0  0  0  0
  9 13  2  0  0  0  0
 10  8  1  0  0  0  0
 11 13  1  0  0  0  0
 11 10  1  0  0  0  0
 12  7  1  1  0  0  0
 14  9  1  0  0  0  0
 14 16  1  0  0  0  0
 15 12  1  0  0  0  0
 16  2  1  0  0  0  0
 17 18  1  0  0  0  0
 18 19  2  0  0  0  0
 22 23  1  0  0  0  0
 23 20  1  6  0  0  0
 23 21  1  0  0  0  0
 24 26  1  1  0  0  0
 24 25  1  0  0  0  0
 25 28  1  6  0  0  0
 25 21  1  0  0  0  0
 27 29  1  1  0  0  0
 27 22  1  0  0  0  0
 27 24  1  0  0  0  0
 29 28  1  0  0  0  0
M  END
>  <MODEL>
2

>  <REMARK>
 VINA RESULT:      -7.6      1.802      6.723
  Name = 
  3 active torsions:
  status: ('A' for Active; 'I' for Inactive)
    1  A    between atoms: N_2  and  N_18
    2  A    between atoms: C_7  and  N_18
    3  A    between atoms: C_12  and  C_19
                            x       y       z     vdW  Elec       q    Type
                         _______ _______ _______ _____ _____    ______ ____

>  <TORSDO>
F 3

$$$$
=
 OpenBabel11062422563D

 29 33  0  0  1  0  0  0  0  0999 V2000
  188.5380  175.9530  143.6670 C   0  0  1  0  0  3  0  0  0  0  0  0
  189.7070  175.2070  143.1630 N   0  0  0  0  0  0  0  0  0  0  0  0
  187.0270  176.5420  140.2110 C   0  0  0  0  0  3  0  0  0  0  0  0
  188.9470  176.9060  144.6100 O   0  0  0  0  0  0  0  0  0  0  0  0
  186.0300  178.1000  141.6880 C   0  0  0  0  0  3  0  0  0  0  0  0
  186.1420  177.5420  140.4570 N   0  0  0  0  0  0  0  0  0  0  0  0
  186.6610  176.7930  147.5410 C   0  0  0  0  0  1  0  0  0  0  0  0
  186.1570  177.5130  145.1630 C   0  0  1  0  0  3  0  0  0  0  0  0
  187.8340  176.0470  141.2340 C   0  0  0  0  0  0  0  0  0  0  0  0
  186.6950  178.3920  144.0430 C   0  0  0  0  0  2  0  0  0  0  0  0
  186.8170  177.6500  142.7510 C   0  0  0  0  0  0  0  0  0  0  0  0
  187.2290  177.3830  146.2590 C   0  0  2  0  0  3  0  0  0  0  0  0
  187.7470  176.6010  142.5320 C   0  0  0  0  0  0  0  0  0  0  0  0
  188.8480  175.0010  140.8890 C   0  0  0  0  0  2  0  0  0  0  0  0
  188.3730  176.4770  145.8130 C   0  0  0  0  0  2  0  0  0  0  0  0
  189.3010  174.2510  142.1300 C   0  0  0  0  0  2  0  0  0  0  0  0
  184.4070  179.4160  145.1240 C   0  0  0  0  0  1  0  0  0  0  0  0
  184.8710  178.1090  145.6670 C   0  0  0  0  0  0  0  0  0  0  0  0
  184.2040  177.5330  146.5130 O   0  0  0  0  0  0  0  0  0  0  0  0
  190.3680  174.5270  144.2180 N   0  0  0  0  0  2  0  0  0  0  0  0
  192.5360  175.5260  143.5450 C   0  0  0  0  0  2  0  0  0  0  0  0
  192.4250  173.4350  145.0530 C   0  0  0  0  0  2  0  0  0  0  0  0
  191.7730  174.2280  143.9000 C   0  0  1  0  0  3  0  0  0  0  0  0
  194.0750  175.2580  145.4940 C   0  0  2  0  0  3  0  0  0  0  0  0
  193.1740  176.2310  144.7610 C   0  0  2  0  0  3  0  0  0  0  0  0
  194.9550  174.5910  144.6340 O   0  0  0  0  0  1  0  0  0  0  0  0
  193.0720  174.3220  146.1380 C   0  0  1  0  0  3  0  0  0  0  0  0
  192.1030  176.5320  145.8050 C   0  0  0  0  0  2  0  0  0  0  0  0
  192.0370  175.2910  146.7000 C   0  0  0  0  0  2  0  0  0  0  0  0
  1 13  1  6  0  0  0
  1  4  1  0  0  0  0
  2  1  1  0  0  0  0
  2 20  1  0  0  0  0
  3  6  2  0  0  0  0
  3  9  1  0  0  0  0
  4 15  1  0  0  0  0
  5 11  2  0  0  0  0
  6  5  1  0  0  0  0
  8 18  1  1  0  0  0
  8 12  1  0  0  0  0
  9 13  2  0  0  0  0
 10  8  1  0  0  0  0
 11 10  1  0  0  0  0
 12  7  1  1  0  0  0
 13 11  1  0  0  0  0
 14  9  1  0  0  0  0
 14 16  1  0  0  0  0
 15 12  1  0  0  0  0
 16  2  1  0  0  0  0
 17 18  1  0  0  0  0
 18 19  2  0  0  0  0
 21 23  1  0  0  0  0
 23 20  1  1  0  0  0
 23 22  1  0  0  0  0
 24 26  1  6  0  0  0
 24 27  1  0  0  0  0
 25 21  1  6  0  0  0
 25 24  1  0  0  0  0
 25 28  1  0  0  0  0
 27 22  1  6  0  0  0
 27 29  1  0  0  0  0
 28 29  1  0  0  0  0
M  END
>  <MODEL>
3

>  <REMARK>
 VINA RESULT:      -7.4      1.616      6.618
  Name = 
  3 active torsions:
  status: ('A' for Active; 'I' for Inactive)
    1  A    between atoms: N_2  and  N_18
    2  A    between atoms: C_7  and  N_18
    3  A    between atoms: C_12  and  C_19
                            x       y       z     vdW  Elec       q    Type
                         _______ _______ _______ _____ _____    ______ ____

>  <TORSDO>
F 3

$$$$
=
 OpenBabel11062422563D

 29 33  0  0  1  0  0  0  0  0999 V2000
  189.5920  175.5360  143.6150 C   0  0  1  0  0  3  0  0  0  0  0  0
  190.7930  174.7020  143.4140 N   0  0  0  0  0  0  0  0  0  0  0  0
  188.2140  174.9530  140.1030 C   0  0  0  0  0  3  0  0  0  0  0  0
  189.9470  176.7510  144.2180 O   0  0  0  0  0  0  0  0  0  0  0  0
  187.1330  176.8700  140.9720 C   0  0  0  0  0  3  0  0  0  0  0  0
  187.3040  175.9530  139.9880 N   0  0  0  0  0  0  0  0  0  0  0  0
  187.5450  177.5100  146.9540 C   0  0  0  0  0  1  0  0  0  0  0  0
  187.1270  177.4220  144.4550 C   0  0  1  0  0  3  0  0  0  0  0  0
  188.9870  174.8320  141.2570 C   0  0  0  0  0  0  0  0  0  0  0  0
  187.6960  177.9150  143.1320 C   0  0  0  0  0  2  0  0  0  0  0  0
  187.8830  176.8040  142.1480 C   0  0  0  0  0  0  0  0  0  0  0  0
  188.1560  177.6780  145.5710 C   0  0  2  0  0  3  0  0  0  0  0  0
  188.8380  175.7670  142.3070 C   0  0  0  0  0  0  0  0  0  0  0  0
  190.0310  173.7600  141.2970 C   0  0  0  0  0  2  0  0  0  0  0  0
  189.3320  176.7100  145.4750 C   0  0  0  0  0  2  0  0  0  0  0  0
  190.4450  173.4570  142.7260 C   0  0  0  0  0  2  0  0  0  0  0  0
  185.6810  179.5640  144.4040 C   0  0  0  0  0  1  0  0  0  0  0  0
  185.8130  178.1100  144.6990 C   0  0  0  0  0  0  0  0  0  0  0  0
  184.8530  177.4920  145.1340 O   0  0  0  0  0  0  0  0  0  0  0  0
  191.4210  174.4120  144.6530 N   0  0  0  0  0  2  0  0  0  0  0  0
  193.5450  174.9510  143.4890 C   0  0  0  0  0  2  0  0  0  0  0  0
  193.5270  173.9390  145.8630 C   0  0  0  0  0  2  0  0  0  0  0  0
  192.8280  174.0120  144.4880 C   0  0  1  0  0  3  0  0  0  0  0  0
  195.1310  175.7510  145.2450 C   0  0  2  0  0  3  0  0  0  0  0  0
  194.1860  176.1920  144.1450 C   0  0  2  0  0  3  0  0  0  0  0  0
  196.0130  174.7480  144.8240 O   0  0  0  0  0  1  0  0  0  0  0  0
  194.1700  175.2690  146.3120 C   0  0  1  0  0  3  0  0  0  0  0  0
  193.1290  176.9730  144.9180 C   0  0  0  0  0  2  0  0  0  0  0  0
  193.1180  176.3730  146.3270 C   0  0  0  0  0  2  0  0  0  0  0  0
  1 13  1  6  0  0  0
  1  4  1  0  0  0  0
  2  1  1  0  0  0  0
  2 20  1  0  0  0  0
  3  9  1  0  0  0  0
  4 15  1  0  0  0  0
  5 11  2  0  0  0  0
  6  3  2  0  0  0  0
  6  5  1  0  0  0  0
  8 18  1  1  0  0  0
  8 12  1  0  0  0  0
  9 14  1  0  0  0  0
  9 13  2  0  0  0  0
 10  8  1  0  0  0  0
 11 13  1  0  0  0  0
 11 10  1  0  0  0  0
 12  7  1  1  0  0  0
 14 16  1  0  0  0  0
 15 12  1  0  0  0  0
 16  2  1  0  0  0  0
 17 18  1  0  0  0  0
 18 19  2  0  0  0  0
 21 23  1  0  0  0  0
 23 20  1  1  0  0  0
 23 22  1  0  0  0  0
 24 26  1  6  0  0  0
 24 27  1  0  0  0  0
 25 21  1  1  0  0  0
 25 28  1  0  0  0  0
 25 24  1  0  0  0  0
 27 22  1  6  0  0  0
 27 29  1  0  0  0  0
 28 29  1  0  0  0  0
M  END
>  <MODEL>
4

>  <REMARK>
 VINA RESULT:      -7.3      1.856      6.662
  Name = 
  3 active torsions:
  status: ('A' for Active; 'I' for Inactive)
    1  A    between atoms: N_2  and  N_18
    2  A    between atoms: C_7  and  N_18
    3  A    between atoms: C_12  and  C_19
                            x       y       z     vdW  Elec       q    Type
                         _______ _______ _______ _____ _____    ______ ____

>  <TORSDO>
F 3

$$$$
=
 OpenBabel11062422563D

 29 33  0  0  1  0  0  0  0  0999 V2000
  189.4880  175.7570  143.8750 C   0  0  1  0  0  3  0  0  0  0  0  0
  188.2200  176.4570  143.5960 N   0  0  0  0  0  0  0  0  0  0  0  0
  189.4870  173.7870  140.6050 C   0  0  0  0  0  3  0  0  0  0  0  0
  189.4840  175.2630  145.1870 O   0  0  0  0  0  0  0  0  0  0  0  0
  190.9820  172.6970  142.0820 C   0  0  0  0  0  3  0  0  0  0  0  0
  190.3900  172.8080  140.8660 N   0  0  0  0  0  0  0  0  0  0  0  0
  192.7520  176.0190  146.7930 C   0  0  0  0  0  1  0  0  0  0  0  0
  192.2590  174.4550  144.8580 C   0  0  1  0  0  3  0  0  0  0  0  0
  189.1590  174.7240  141.5840 C   0  0  0  0  0  0  0  0  0  0  0  0
  191.3120  173.3400  144.4370 C   0  0  0  0  0  2  0  0  0  0  0  0
  190.6880  173.6020  143.1040 C   0  0  0  0  0  0  0  0  0  0  0  0
  191.7150  175.1200  146.1360 C   0  0  2  0  0  3  0  0  0  0  0  0
  189.7550  174.6430  142.8640 C   0  0  0  0  0  0  0  0  0  0  0  0
  188.0990  175.7320  141.2700 C   0  0  0  0  0  2  0  0  0  0  0  0
  190.4930  175.9840  145.8360 C   0  0  0  0  0  2  0  0  0  0  0  0
  188.1840  176.9240  142.2070 C   0  0  0  0  0  2  0  0  0  0  0  0
  194.7880  174.4920  144.3260 C   0  0  0  0  0  1  0  0  0  0  0  0
  193.6340  173.8760  145.0390 C   0  0  0  0  0  0  0  0  0  0  0  0
  193.8160  172.9090  145.7630 O   0  0  0  0  0  0  0  0  0  0  0  0
  188.0400  177.5540  144.4790 N   0  0  0  0  0  2  0  0  0  0  0  0
  186.6920  178.5800  146.2910 C   0  0  0  0  0  2  0  0  0  0  0  0
  185.7580  176.6660  144.8330 C   0  0  0  0  0  2  0  0  0  0  0  0
  187.0050  177.2930  145.4930 C   0  0  1  0  0  3  0  0  0  0  0  0
  184.3280  178.6080  145.4850 C   0  0  2  0  0  3  0  0  0  0  0  0
  185.5760  179.4470  145.6690 C   0  0  2  0  0  3  0  0  0  0  0  0
  183.9860  177.8950  146.6410 O   0  0  0  0  0  1  0  0  0  0  0  0
  184.7230  177.7000  144.3390 C   0  0  1  0  0  3  0  0  0  0  0  0
  185.9410  179.8080  144.2330 C   0  0  0  0  0  2  0  0  0  0  0  0
  185.3860  178.6720  143.3670 C   0  0  0  0  0  2  0  0  0  0  0  0
  1 13  1  6  0  0  0
  1  4  1  0  0  0  0
  2  1  1  0  0  0  0
  2 20  1  0  0  0  0
  3  6  2  0  0  0  0
  3  9  1  0  0  0  0
  4 15  1  0  0  0  0
  5 11  2  0  0  0  0
  6  5  1  0  0  0  0
  8 18  1  1  0  0  0
  8 12  1  0  0  0  0
  9 13  2  0  0  0  0
 10  8  1  0  0  0  0
 11 10  1  0  0  0  0
 12  7  1  6  0  0  0
 13 11  1  0  0  0  0
 14  9  1  0  0  0  0
 14 16  1  0  0  0  0
 15 12  1  0  0  0  0
 16  2  1  0  0  0  0
 17 18  1  0  0  0  0
 18 19  2  0  0  0  0
 22 23  1  0  0  0  0
 23 20  1  6  0  0  0
 23 21  1  0  0  0  0
 24 25  1  0  0  0  0
 24 26  1  1  0  0  0
 25 28  1  6  0  0  0
 25 21  1  0  0  0  0
 27 29  1  6  0  0  0
 27 22  1  0  0  0  0
 27 24  1  0  0  0  0
 29 28  1  0  0  0  0
M  END
>  <MODEL>
5

>  <REMARK>
 VINA RESULT:      -7.3      0.785      1.617
  Name = 
  3 active torsions:
  status: ('A' for Active; 'I' for Inactive)
    1  A    between atoms: N_2  and  N_18
    2  A    between atoms: C_7  and  N_18
    3  A    between atoms: C_12  and  C_19
                            x       y       z     vdW  Elec       q    Type
                         _______ _______ _______ _____ _____    ______ ____

>  <TORSDO>
F 3

$$$$
=
 OpenBabel11062422563D

 29 33  0  0  1  0  0  0  0  0999 V2000
  189.9320  176.2130  144.4650 C   0  0  1  0  0  3  0  0  0  0  0  0
  189.6040  177.4080  145.2660 N   0  0  0  0  0  0  0  0  0  0  0  0
  192.7310  175.0400  146.7810 C   0  0  0  0  0  3  0  0  0  0  0  0
  190.0130  176.5530  143.1080 O   0  0  0  0  0  0  0  0  0  0  0  0
  193.0310  173.9430  144.7050 C   0  0  0  0  0  3  0  0  0  0  0  0
  193.3960  174.1570  145.9940 N   0  0  0  0  0  0  0  0  0  0  0  0
  188.2020  174.0040  141.0940 C   0  0  0  0  0  1  0  0  0  0  0  0
  190.3260  173.7360  142.4530 C   0  0  1  0  0  3  0  0  0  0  0  0
  191.6320  175.7390  146.2840 C   0  0  0  0  0  0  0  0  0  0  0  0
  191.6780  174.3930  142.6960 C   0  0  0  0  0  2  0  0  0  0  0  0
  191.9430  174.6200  144.1500 C   0  0  0  0  0  0  0  0  0  0  0  0
  189.4370  174.7000  141.6470 C   0  0  2  0  0  3  0  0  0  0  0  0
  191.2190  175.5440  144.9460 C   0  0  0  0  0  0  0  0  0  0  0  0
  190.9860  176.7590  147.1690 C   0  0  0  0  0  2  0  0  0  0  0  0
  188.9520  175.8620  142.5100 C   0  0  0  0  0  2  0  0  0  0  0  0
  189.5800  177.0800  146.6940 C   0  0  0  0  0  2  0  0  0  0  0  0
  190.0630  171.1650  142.3890 C   0  0  0  0  0  1  0  0  0  0  0  0
  190.5490  172.4220  141.7560 C   0  0  0  0  0  0  0  0  0  0  0  0
  191.1220  172.3750  140.6780 O   0  0  0  0  0  0  0  0  0  0  0  0
  188.3550  177.9540  144.8740 N   0  0  0  0  0  2  0  0  0  0  0  0
  186.6210  178.7760  146.4460 C   0  0  0  0  0  2  0  0  0  0  0  0
  186.2380  176.6790  144.9910 C   0  0  0  0  0  2  0  0  0  0  0  0
  187.2580  177.5430  145.7650 C   0  0  1  0  0  3  0  0  0  0  0  0
  184.4160  178.3490  145.3540 C   0  0  2  0  0  3  0  0  0  0  0  0
  185.4620  179.4070  145.6450 C   0  0  2  0  0  3  0  0  0  0  0  0
  184.0560  177.6230  146.4960 O   0  0  0  0  0  1  0  0  0  0  0  0
  185.1120  177.4930  144.3170 C   0  0  1  0  0  3  0  0  0  0  0  0
  185.9430  179.7820  144.2470 C   0  0  0  0  0  2  0  0  0  0  0  0
  185.7150  178.5370  143.3830 C   0  0  0  0  0  2  0  0  0  0  0  0
  1  4  1  6  0  0  0
  1 13  1  0  0  0  0
  1  2  1  0  0  0  0
  2 16  1  0  0  0  0
  5  6  1  0  0  0  0
  6  3  2  0  0  0  0
  8 18  1  6  0  0  0
  8 10  1  0  0  0  0
  9  3  1  0  0  0  0
  9 14  1  0  0  0  0
 10 11  1  0  0  0  0
 11  5  2  0  0  0  0
 11 13  1  0  0  0  0
 12  7  1  1  0  0  0
 12  8  1  0  0  0  0
 12 15  1  0  0  0  0
 13  9  2  0  0  0  0
 15  4  1  0  0  0  0
 16 14  1  0  0  0  0
 18 17  1  0  0  0  0
 19 18  2  0  0  0  0
 20  2  1  0  0  0  0
 22 23  1  0  0  0  0
 23 20  1  6  0  0  0
 23 21  1  0  0  0  0
 24 25  1  0  0  0  0
 24 26  1  1  0  0  0
 25 28  1  6  0  0  0
 25 21  1  0  0  0  0
 27 29  1  6  0  0  0
 27 22  1  0  0  0  0
 27 24  1  0  0  0  0
 29 28  1  0  0  0  0
M  END
>  <MODEL>
6

>  <REMARK>
 VINA RESULT:      -7.2      1.983      4.152
  Name = 
  3 active torsions:
  status: ('A' for Active; 'I' for Inactive)
    1  A    between atoms: N_2  and  N_18
    2  A    between atoms: C_7  and  N_18
    3  A    between atoms: C_12  and  C_19
                            x       y       z     vdW  Elec       q    Type
                         _______ _______ _______ _____ _____    ______ ____

>  <TORSDO>
F 3

$$$$
=
 OpenBabel11062422563D

 29 33  0  0  1  0  0  0  0  0999 V2000
  189.0700  176.2340  143.6180 C   0  0  1  0  0  3  0  0  0  0  0  0
  190.2140  175.3560  143.3070 N   0  0  0  0  0  0  0  0  0  0  0  0
  190.3580  177.2130  147.0760 C   0  0  0  0  0  3  0  0  0  0  0  0
  187.8690  175.5910  143.2890 O   0  0  0  0  0  0  0  0  0  0  0  0
  188.0470  177.7210  147.0170 C   0  0  0  0  0  3  0  0  0  0  0  0
  189.2420  177.7210  147.6580 N   0  0  0  0  0  0  0  0  0  0  0  0
  185.6550  177.9760  141.4880 C   0  0  0  0  0  1  0  0  0  0  0  0
  186.4260  178.0410  143.9020 C   0  0  1  0  0  3  0  0  0  0  0  0
  190.3050  176.6950  145.7830 C   0  0  0  0  0  0  0  0  0  0  0  0
  186.5560  177.1600  145.1370 C   0  0  0  0  0  2  0  0  0  0  0  0
  187.9300  177.2080  145.7230 C   0  0  0  0  0  0  0  0  0  0  0  0
  186.1110  177.1540  142.6840 C   0  0  2  0  0  3  0  0  0  0  0  0
  189.0780  176.6780  145.0800 C   0  0  0  0  0  0  0  0  0  0  0  0
  191.5460  176.0750  145.2200 C   0  0  0  0  0  2  0  0  0  0  0  0
  187.3360  176.3580  142.2450 C   0  0  0  0  0  2  0  0  0  0  0  0
  191.4730  175.9900  143.7050 C   0  0  0  0  0  2  0  0  0  0  0  0
  184.0700  178.6680  144.7620 C   0  0  0  0  0  1  0  0  0  0  0  0
  185.3690  179.0780  144.1610 C   0  0  0  0  0  0  0  0  0  0  0  0
  185.5640  180.2530  143.8870 O   0  0  0  0  0  0  0  0  0  0  0  0
  190.2490  175.0400  141.9240 N   0  0  0  0  0  2  0  0  0  0  0  0
  190.8510  172.7440  142.6470 C   0  0  0  0  0  2  0  0  0  0  0  0
  190.9410  173.4440  140.1640 C   0  0  0  0  0  2  0  0  0  0  0  0
  191.1130  173.8830  141.6350 C   0  0  1  0  0  3  0  0  0  0  0  0
  190.0650  171.2050  140.8430 C   0  0  2  0  0  3  0  0  0  0  0  0
  189.7390  171.7640  142.2140 C   0  0  2  0  0  3  0  0  0  0  0  0
  191.3790  170.7280  140.7570 O   0  0  0  0  0  1  0  0  0  0  0  0
  189.8220  172.4020  139.9480 C   0  0  1  0  0  3  0  0  0  0  0  0
  188.4470  172.5300  141.9540 C   0  0  0  0  0  2  0  0  0  0  0  0
  188.5000  172.9450  140.4800 C   0  0  0  0  0  2  0  0  0  0  0  0
  1  4  1  1  0  0  0
  1 13  1  0  0  0  0
  2  1  1  0  0  0  0
  2 16  1  0  0  0  0
  3  6  1  0  0  0  0
  5  6  2  0  0  0  0
  8 18  1  1  0  0  0
  8 10  1  0  0  0  0
  9  3  2  0  0  0  0
 10 11  1  0  0  0  0
 11  5  1  0  0  0  0
 12  7  1  6  0  0  0
 12  8  1  0  0  0  0
 13 11  2  0  0  0  0
 13  9  1  0  0  0  0
 14  9  1  0  0  0  0
 15 12  1  0  0  0  0
 15  4  1  0  0  0  0
 16 14  1  0  0  0  0
 18 17  1  0  0  0  0
 19 18  2  0  0  0  0
 20  2  1  0  0  0  0
 22 23  1  0  0  0  0
 23 20  1  1  0  0  0
 23 21  1  0  0  0  0
 24 26  1  1  0  0  0
 24 25  1  0  0  0  0
 25 28  1  6  0  0  0
 25 21  1  0  0  0  0
 27 22  1  1  0  0  0
 27 29  1  0  0  0  0
 27 24  1  0  0  0  0
 29 28  1  0  0  0  0
M  END
>  <MODEL>
7

>  <REMARK>
 VINA RESULT:      -7.1      2.251      7.445
  Name = 
  3 active torsions:
  status: ('A' for Active; 'I' for Inactive)
    1  A    between atoms: N_2  and  N_18
    2  A    between atoms: C_7  and  N_18
    3  A    between atoms: C_12  and  C_19
                            x       y       z     vdW  Elec       q    Type
                         _______ _______ _______ _____ _____    ______ ____

>  <TORSDO>
F 3

$$$$
=
 OpenBabel11062422563D

 29 33  0  0  1  0  0  0  0  0999 V2000
  188.0560  176.5190  142.9870 C   0  0  1  0  0  3  0  0  0  0  0  0
  188.9530  176.0750  141.9030 N   0  0  0  0  0  0  0  0  0  0  0  0
  185.3720  177.8770  140.6370 C   0  0  0  0  0  3  0  0  0  0  0  0
  188.7880  177.2120  143.9610 O   0  0  0  0  0  0  0  0  0  0  0  0
  184.9980  178.8450  142.7640 C   0  0  0  0  0  3  0  0  0  0  0  0
  184.6440  178.6660  141.4670 N   0  0  0  0  0  0  0  0  0  0  0  0
  187.7540  176.0410  147.3360 C   0  0  0  0  0  1  0  0  0  0  0  0
  186.4040  177.3330  145.6220 C   0  0  1  0  0  3  0  0  0  0  0  0
  186.5000  177.2080  141.1080 C   0  0  0  0  0  0  0  0  0  0  0  0
  186.4900  178.5420  144.7010 C   0  0  0  0  0  2  0  0  0  0  0  0
  186.1220  178.2060  143.2920 C   0  0  0  0  0  0  0  0  0  0  0  0
  187.8070  177.0220  146.1750 C   0  0  2  0  0  3  0  0  0  0  0  0
  186.9020  177.3670  142.4550 C   0  0  0  0  0  0  0  0  0  0  0  0
  187.3120  176.4160  140.1310 C   0  0  0  0  0  2  0  0  0  0  0  0
  188.7010  176.4060  145.1030 C   0  0  0  0  0  2  0  0  0  0  0  0
  188.1910  175.4050  140.8460 C   0  0  0  0  0  2  0  0  0  0  0  0
  185.5650  178.8330  147.5540 C   0  0  0  0  0  1  0  0  0  0  0  0
  185.3990  177.6220  146.7020 C   0  0  0  0  0  0  0  0  0  0  0  0
  184.4480  176.8780  146.8880 O   0  0  0  0  0  0  0  0  0  0  0  0
  189.9580  175.2040  142.4010 N   0  0  0  0  0  2  0  0  0  0  0  0
  191.0640  173.2050  141.4350 C   0  0  0  0  0  2  0  0  0  0  0  0
  189.1360  172.9890  143.1370 C   0  0  0  0  0  2  0  0  0  0  0  0
  189.7490  173.8090  141.9800 C   0  0  1  0  0  3  0  0  0  0  0  0
  191.1280  171.4870  143.2460 C   0  0  2  0  0  3  0  0  0  0  0  0
  191.9410  172.5350  142.5130 C   0  0  2  0  0  3  0  0  0  0  0  0
  190.4540  170.6240  142.3740 O   0  0  0  0  0  1  0  0  0  0  0  0
  190.1820  172.3380  144.0670 C   0  0  1  0  0  3  0  0  0  0  0  0
  192.2550  173.5360  143.6200 C   0  0  0  0  0  2  0  0  0  0  0  0
  191.1110  173.4080  144.6310 C   0  0  0  0  0  2  0  0  0  0  0  0
  1 13  1  6  0  0  0
  1  4  1  0  0  0  0
  2 20  1  0  0  0  0
  2  1  1  0  0  0  0
  3  9  2  0  0  0  0
  3  6  1  0  0  0  0
  4 15  1  0  0  0  0
  5 11  1  0  0  0  0
  6  5  2  0  0  0  0
  8 12  1  0  0  0  0
  8 18  1  1  0  0  0
  9 13  1  0  0  0  0
 10  8  1  0  0  0  0
 11 10  1  0  0  0  0
 12  7  1  1  0  0  0
 13 11  2  0  0  0  0
 14 16  1  0  0  0  0
 14  9  1  0  0  0  0
 15 12  1  0  0  0  0
 16  2  1  0  0  0  0
 18 19  2  0  0  0  0
 18 17  1  0  0  0  0
 21 23  1  0  0  0  0
 23 20  1  1  0  0  0
 23 22  1  0  0  0  0
 24 26  1  6  0  0  0
 24 27  1  0  0  0  0
 25 21  1  6  0  0  0
 25 24  1  0  0  0  0
 25 28  1  0  0  0  0
 27 22  1  6  0  0  0
 27 29  1  0  0  0  0
 28 29  1  0  0  0  0
M  END
>  <MODEL>
8

>  <REMARK>
 VINA RESULT:      -7.1      2.030      6.676
  Name = 
  3 active torsions:
  status: ('A' for Active; 'I' for Inactive)
    1  A    between atoms: N_2  and  N_18
    2  A    between atoms: C_7  and  N_18
    3  A    between atoms: C_12  and  C_19
                            x       y       z     vdW  Elec       q    Type
                         _______ _______ _______ _____ _____    ______ ____

>  <TORSDO>
F 3

$$$$
=
 OpenBabel11062422563D

 29 33  0  0  1  0  0  0  0  0999 V2000
  188.8200  176.0180  143.2940 C   0  0  1  0  0  3  0  0  0  0  0  0
  189.8480  175.0980  142.7710 N   0  0  0  0  0  0  0  0  0  0  0  0
  190.7170  176.8150  146.5090 C   0  0  0  0  0  3  0  0  0  0  0  0
  187.5480  175.4460  143.1550 O   0  0  0  0  0  0  0  0  0  0  0  0
  188.4590  177.4350  146.8540 C   0  0  0  0  0  3  0  0  0  0  0  0
  189.7430  177.3550  147.2840 N   0  0  0  0  0  0  0  0  0  0  0  0
  185.1940  177.9940  141.8150 C   0  0  0  0  0  1  0  0  0  0  0  0
  186.3590  177.9390  144.0660 C   0  0  1  0  0  3  0  0  0  0  0  0
  190.4220  176.3440  145.2300 C   0  0  0  0  0  0  0  0  0  0  0  0
  186.6480  177.0110  145.2380 C   0  0  0  0  0  2  0  0  0  0  0  0
  188.1010  176.9730  145.5850 C   0  0  0  0  0  0  0  0  0  0  0  0
  185.7990  177.1110  142.8960 C   0  0  2  0  0  3  0  0  0  0  0  0
  189.0950  176.4100  144.7440 C   0  0  0  0  0  0  0  0  0  0  0  0
  191.5160  175.6860  144.4500 C   0  0  0  0  0  2  0  0  0  0  0  0
  186.8900  176.2720  142.2360 C   0  0  0  0  0  2  0  0  0  0  0  0
  191.1880  175.6570  142.9680 C   0  0  0  0  0  2  0  0  0  0  0  0
  184.2900  178.6660  145.4350 C   0  0  0  0  0  1  0  0  0  0  0  0
  185.4170  179.0160  144.5270 C   0  0  0  0  0  0  0  0  0  0  0  0
  185.5670  180.1740  144.1670 O   0  0  0  0  0  0  0  0  0  0  0  0
  189.6340  174.8280  141.3940 N   0  0  0  0  0  2  0  0  0  0  0  0
  189.1290  173.1580  139.6300 C   0  0  0  0  0  2  0  0  0  0  0  0
  190.2960  172.4840  141.8320 C   0  0  0  0  0  2  0  0  0  0  0  0
  189.2770  173.4220  141.1470 C   0  0  1  0  0  3  0  0  0  0  0  0
  191.0170  171.5230  139.6420 C   0  0  2  0  0  3  0  0  0  0  0  0
  190.4410  172.7350  138.9360 C   0  0  2  0  0  3  0  0  0  0  0  0
  190.0670  170.5140  139.8370 O   0  0  0  0  0  1  0  0  0  0  0  0
  191.5060  172.1190  140.9460 C   0  0  1  0  0  3  0  0  0  0  0  0
  191.5150  173.7910  139.1730 C   0  0  0  0  0  2  0  0  0  0  0  0
  192.2090  173.3910  140.4800 C   0  0  0  0  0  2  0  0  0  0  0  0
  1  4  1  1  0  0  0
  1 13  1  0  0  0  0
  2 16  1  0  0  0  0
  2  1  1  0  0  0  0
  3  6  1  0  0  0  0
  5  6  2  0  0  0  0
  8 18  1  1  0  0  0
  8 10  1  0  0  0  0
  9  3  2  0  0  0  0
 10 11  1  0  0  0  0
 11  5  1  0  0  0  0
 12  7  1  6  0  0  0
 12  8  1  0  0  0  0
 13  9  1  0  0  0  0
 13 11  2  0  0  0  0
 14  9  1  0  0  0  0
 15 12  1  0  0  0  0
 15  4  1  0  0  0  0
 16 14  1  0  0  0  0
 18 17  1  0  0  0  0
 19 18  2  0  0  0  0
 20  2  1  0  0  0  0
 21 23  1  0  0  0  0
 23 20  1  6  0  0  0
 23 22  1  0  0  0  0
 24 26  1  1  0  0  0
 24 27  1  0  0  0  0
 25 28  1  1  0  0  0
 25 21  1  0  0  0  0
 25 24  1  0  0  0  0
 27 29  1  6  0  0  0
 27 22  1  0  0  0  0
 28 29  1  0  0  0  0
M  END
>  <MODEL>
9

>  <REMARK>
 VINA RESULT:      -6.9      2.360      7.621
  Name = 
  3 active torsions:
  status: ('A' for Active; 'I' for Inactive)
    1  A    between atoms: N_2  and  N_18
    2  A    between atoms: C_7  and  N_18
    3  A    between atoms: C_12  and  C_19
                            x       y       z     vdW  Elec       q    Type
                         _______ _______ _______ _____ _____    ______ ____

>  <TORSDO>
F 3

$$$$
