=
 OpenBabel11062419493D

 46 51  0  0  1  0  0  0  0  0999 V2000
  187.6970  177.7960  144.0680 C   0  0  0  0  0  0  0  0  0  0  0  0
  187.2430  176.9380  140.0290 O   0  0  0  0  0  0  0  0  0  0  0  0
  188.5250  178.6550  141.6270 O   0  0  0  0  0  1  0  0  0  0  0  0
  186.5270  177.6850  140.7470 C   0  0  0  0  0  0  0  0  0  0  0  0
  191.7700  176.3830  143.2910 C   0  0  0  0  0  2  0  0  0  0  0  0
  190.3740  175.9340  146.8230 N   0  0  0  0  0  2  0  0  0  0  0  0
  185.3670  177.8270  143.5920 C   0  0  0  0  0  3  0  0  0  0  0  0
  188.4250  174.5560  146.0000 C   0  0  0  0  0  1  0  0  0  0  0  0
  186.7700  178.0520  143.1810 C   0  0  0  0  0  0  0  0  0  0  0  0
  188.2140  177.0860  146.3220 C   0  0  1  0  0  3  0  0  0  0  0  0
  185.1100  177.6730  140.5860 N   0  0  0  0  0  2  0  0  0  0  0  0
  192.6240  175.2780  143.4190 O   0  0  0  0  0  0  0  0  0  0  0  0
  188.6200  177.5330  144.9510 C   0  0  0  0  0  0  0  0  0  0  0  0
  192.5910  175.5830  145.8520 C   0  0  0  0  0  2  0  0  0  0  0  0
  190.6430  176.2930  144.3200 C   0  0  1  0  0  3  0  0  0  0  0  0
  191.0800  175.5300  145.6000 C   0  0  2  0  0  3  0  0  0  0  0  0
  187.1400  178.5530  141.8040 C   0  0  1  0  0  3  0  0  0  0  0  0
  184.2720  178.0060  142.8420 C   0  0  0  0  0  3  0  0  0  0  0  0
  184.2570  178.5080  141.4250 C   0  0  2  0  0  3  0  0  0  0  0  0
  193.4160  175.5390  144.5520 C   0  0  1  0  0  3  0  0  0  0  0  0
  190.0580  177.6730  144.5730 C   0  0  0  0  0  2  0  0  0  0  0  0
  188.9100  175.7900  146.7560 C   0  0  2  0  0  3  0  0  0  0  0  0
  196.7000  171.8420  146.2590 C   0  0  0  0  0  2  0  0  0  0  0  0
  197.6400  171.5190  145.1050 C   0  0  0  0  0  2  0  0  0  0  0  0
  196.9830  174.0470  145.0180 C   0  0  1  0  0  3  0  0  0  0  0  0
  195.7880  174.9630  144.9010 C   0  0  0  0  0  3  0  0  0  0  0  0
  194.1700  173.0780  144.6050 C   0  0  0  0  0  2  0  0  0  0  0  0
  196.5710  172.5770  144.9460 C   0  0  0  0  0  0  0  0  0  0  0  0
  195.3340  172.2060  144.1450 C   0  0  0  0  0  2  0  0  0  0  0  0
  194.5290  174.5430  144.6600 C   0  0  0  0  0  0  0  0  0  0  0  0
  193.6310  173.9220  139.4750 Cl  0  0  0  0  0  0  0  0  0  0  0  0
  197.4930  175.4880  139.2200 C   0  0  0  0  0  3  0  0  0  0  0  0
  197.5080  174.5310  142.7030 C   0  0  0  0  0  0  0  0  0  0  0  0
  196.1290  175.0620  138.8530 C   0  0  0  0  0  0  0  0  0  0  0  0
  197.9400  174.3710  143.9210 C   0  0  0  0  0  3  0  0  0  0  0  0
  197.0740  174.6940  141.4860 C   0  0  0  0  0  0  0  0  0  0  0  0
  195.2590  174.4390  139.8750 C   0  0  0  0  0  0  0  0  0  0  0  0
  195.7170  175.2290  137.6750 O   0  0  0  0  0  0  0  0  0  0  0  0
  197.9410  175.3140  140.4670 C   0  0  0  0  0  3  0  0  0  0  0  0
  195.7110  174.2670  141.1220 C   0  0  0  0  0  3  0  0  0  0  0  0
  182.8290  178.5220  140.8790 C   0  0  1  0  0  3  0  0  0  0  0  0
  182.6650  177.4880  139.8690 N   0  0  0  0  0  1  0  0  0  0  0  0
  181.8280  178.2760  141.9940 C   0  0  0  0  0  1  0  0  0  0  0  0
  188.4490  178.2080  147.3290 C   0  0  0  0  0  2  0  0  0  0  0  0
  186.0860  177.8810  147.5080 O   0  0  0  0  0  1  0  0  0  0  0  0
  187.1380  178.6970  147.9230 C   0  0  0  0  0  2  0  0  0  0  0  0
  1 13  2  0  0  0  0
  2  4  2  0  0  0  0
  4 17  1  0  0  0  0
  5 12  1  0  0  0  0
  9  7  1  0  0  0  0
  9  1  2  0  0  0  0
 10 22  1  0  0  0  0
 10 44  1  1  0  0  0
 11  4  1  0  0  0  0
 11 19  1  0  0  0  0
 12 20  1  0  0  0  0
 13 10  1  0  0  0  0
 15  5  1  6  0  0  0
 15 21  1  0  0  0  0
 15 16  1  0  0  0  0
 16 14  1  1  0  0  0
 16  6  1  0  0  0  0
 17  3  1  1  0  0  0
 17  9  1  0  0  0  0
 18  7  2  0  0  0  0
 19 41  1  6  0  0  0
 19 18  1  0  0  0  0
 20 30  1  1  0  0  0
 20 14  1  0  0  0  0
 21 13  1  0  0  0  0
 22  8  1  6  0  0  0
 22  6  1  0  0  0  0
 24 23  1  0  0  0  0
 25 35  1  6  0  0  0
 26 25  1  0  0  0  0
 27 30  1  0  0  0  0
 28 25  1  0  0  0  0
 28 24  1  0  0  0  0
 28 23  1  0  0  0  0
 29 27  1  0  0  0  0
 29 28  1  0  0  0  0
 30 26  2  0  0  0  0
 31 37  1  0  0  0  0
 32 39  2  0  0  0  0
 33 35  2  0  0  0  0
 34 32  1  0  0  0  0
 34 37  1  0  0  0  0
 36 33  2  0  0  0  0
 37 40  2  0  0  0  0
 38 34  2  0  0  0  0
 39 36  1  0  0  0  0
 40 36  1  0  0  0  0
 41 43  1  1  0  0  0
 42 41  1  0  0  0  0
 44 46  1  0  0  0  0
 45 46  1  0  0  0  0
M  END
>  <MODEL>
1

>  <REMARK>
 VINA RESULT:      -8.6      0.000      0.000
  Name = 
  5 active torsions:
  status: ('A' for Active; 'I' for Inactive)
    1  A    between atoms: C_10  and  C_19
    2  A    between atoms: C_10  and  C_44
    3  A    between atoms: C_14  and  C_21
    4  A    between atoms: C_27  and  C_40
    5  A    between atoms: C_33  and  C_41
                            x       y       z     vdW  Elec       q    Type
                         _______ _______ _______ _____ _____    ______ ____

>  <TORSDO>
F 5

$$$$
=
 OpenBabel11062419493D

 46 51  0  0  1  0  0  0  0  0999 V2000
  194.6620  173.7710  142.2070 C   0  0  0  0  0  0  0  0  0  0  0  0
  193.4550  175.0040  138.4290 O   0  0  0  0  0  0  0  0  0  0  0  0
  193.0040  173.0400  140.1840 O   0  0  0  0  0  1  0  0  0  0  0  0
  194.4390  174.2760  138.7280 C   0  0  0  0  0  0  0  0  0  0  0  0
  190.5310  174.8260  143.2110 C   0  0  0  0  0  2  0  0  0  0  0  0
  193.1620  175.1160  145.9700 N   0  0  0  0  0  2  0  0  0  0  0  0
  196.6210  174.0150  140.8790 C   0  0  0  0  0  3  0  0  0  0  0  0
  194.5490  176.7480  144.6330 C   0  0  0  0  0  1  0  0  0  0  0  0
  195.1850  173.6840  141.0110 C   0  0  0  0  0  0  0  0  0  0  0  0
  195.0230  174.2340  144.5540 C   0  0  1  0  0  3  0  0  0  0  0  0
  195.6780  174.4450  138.0420 N   0  0  0  0  0  2  0  0  0  0  0  0
  189.7290  175.8250  143.7810 O   0  0  0  0  0  0  0  0  0  0  0  0
  194.1430  173.8640  143.4000 C   0  0  0  0  0  0  0  0  0  0  0  0
  190.7260  175.3220  145.9650 C   0  0  0  0  0  2  0  0  0  0  0  0
  191.9620  174.9430  143.7350 C   0  0  1  0  0  3  0  0  0  0  0  0
  192.0130  175.5480  145.1650 C   0  0  2  0  0  3  0  0  0  0  0  0
  194.3400  173.2660  139.8310 C   0  0  1  0  0  3  0  0  0  0  0  0
  197.3470  174.0100  139.7530 C   0  0  0  0  0  3  0  0  0  0  0  0
  196.8390  173.6330  138.3890 C   0  0  2  0  0  3  0  0  0  0  0  0
  189.4580  175.3910  145.0920 C   0  0  1  0  0  3  0  0  0  0  0  0
  192.6830  173.6120  143.5840 C   0  0  0  0  0  2  0  0  0  0  0  0
  194.4730  175.4130  145.3680 C   0  0  2  0  0  3  0  0  0  0  0  0
  185.8680  177.3560  148.3490 C   0  0  0  0  0  2  0  0  0  0  0  0
  185.4570  178.7120  147.7880 C   0  0  0  0  0  2  0  0  0  0  0  0
  186.0300  177.0870  145.8220 C   0  0  1  0  0  3  0  0  0  0  0  0
  187.1520  176.2470  145.2610 C   0  0  0  0  0  3  0  0  0  0  0  0
  188.8070  177.0330  146.9640 C   0  0  0  0  0  2  0  0  0  0  0  0
  186.4760  177.8620  147.0620 C   0  0  0  0  0  0  0  0  0  0  0  0
  187.9350  178.2660  147.1820 C   0  0  0  0  0  2  0  0  0  0  0  0
  188.4170  176.2570  145.7300 C   0  0  0  0  0  0  0  0  0  0  0  0
  188.3480  174.8950  140.1840 Cl  0  0  0  0  0  0  0  0  0  0  0  0
  185.5200  177.9540  139.9110 C   0  0  0  0  0  3  0  0  0  0  0  0
  185.7890  177.7620  143.5090 C   0  0  0  0  0  0  0  0  0  0  0  0
  186.4810  176.9000  139.5350 C   0  0  0  0  0  0  0  0  0  0  0  0
  185.5640  178.0280  144.7630 C   0  0  0  0  0  3  0  0  0  0  0  0
  186.0110  177.4930  142.2530 C   0  0  0  0  0  0  0  0  0  0  0  0
  187.1990  176.1560  140.5940 C   0  0  0  0  0  0  0  0  0  0  0  0
  186.6850  176.6440  138.3200 O   0  0  0  0  0  0  0  0  0  0  0  0
  185.2970  178.2350  141.1980 C   0  0  0  0  0  3  0  0  0  0  0  0
  186.9730  176.4400  141.8810 C   0  0  0  0  0  3  0  0  0  0  0  0
  197.9390  173.8090  137.3430 C   0  0  1  0  0  3  0  0  0  0  0  0
  197.7390  172.8830  136.2400 N   0  0  0  0  0  1  0  0  0  0  0  0
  197.9350  175.2260  136.7970 C   0  0  0  0  0  1  0  0  0  0  0  0
  195.2670  173.0140  145.4370 C   0  0  0  0  0  2  0  0  0  0  0  0
  197.5400  173.5500  144.9210 O   0  0  0  0  0  1  0  0  0  0  0  0
  196.7230  172.9270  145.8640 C   0  0  0  0  0  2  0  0  0  0  0  0
  1 13  2  0  0  0  0
  2  4  2  0  0  0  0
  4 17  1  0  0  0  0
  5 12  1  0  0  0  0
  7  9  1  0  0  0  0
  9  1  2  0  0  0  0
 10 22  1  0  0  0  0
 10 44  1  1  0  0  0
 11 19  1  0  0  0  0
 11  4  1  0  0  0  0
 12 20  1  0  0  0  0
 13 21  1  0  0  0  0
 13 10  1  0  0  0  0
 15  5  1  1  0  0  0
 15 16  1  0  0  0  0
 16 14  1  1  0  0  0
 16  6  1  0  0  0  0
 17  3  1  1  0  0  0
 17  9  1  0  0  0  0
 18  7  2  0  0  0  0
 19 41  1  6  0  0  0
 19 18  1  0  0  0  0
 20 30  1  1  0  0  0
 20 14  1  0  0  0  0
 21 15  1  0  0  0  0
 22  8  1  6  0  0  0
 22  6  1  0  0  0  0
 24 23  1  0  0  0  0
 25 35  1  6  0  0  0
 25 28  1  0  0  0  0
 26 30  2  0  0  0  0
 26 25  1  0  0  0  0
 27 29  1  0  0  0  0
 28 29  1  0  0  0  0
 28 24  1  0  0  0  0
 28 23  1  0  0  0  0
 30 27  1  0  0  0  0
 31 37  1  0  0  0  0
 32 39  2  0  0  0  0
 33 35  2  0  0  0  0
 34 32  1  0  0  0  0
 34 37  1  0  0  0  0
 36 33  2  0  0  0  0
 37 40  2  0  0  0  0
 38 34  2  0  0  0  0
 39 36  1  0  0  0  0
 40 36  1  0  0  0  0
 41 43  1  6  0  0  0
 42 41  1  0  0  0  0
 44 46  1  0  0  0  0
 45 46  1  0  0  0  0
M  END
>  <MODEL>
2

>  <REMARK>
 VINA RESULT:      -8.0      3.182      9.936
  Name = 
  5 active torsions:
  status: ('A' for Active; 'I' for Inactive)
    1  A    between atoms: C_10  and  C_19
    2  A    between atoms: C_10  and  C_44
    3  A    between atoms: C_14  and  C_21
    4  A    between atoms: C_27  and  C_40
    5  A    between atoms: C_33  and  C_41
                            x       y       z     vdW  Elec       q    Type
                         _______ _______ _______ _____ _____    ______ ____

>  <TORSDO>
F 5

$$$$
=
 OpenBabel11062419493D

 46 51  0  0  1  0  0  0  0  0999 V2000
  189.9070  176.9390  144.4160 C   0  0  0  0  0  0  0  0  0  0  0  0
  187.5330  177.2790  141.0240 O   0  0  0  0  0  0  0  0  0  0  0  0
  189.7780  178.2910  142.0630 O   0  0  0  0  0  1  0  0  0  0  0  0
  187.4220  177.9030  142.1130 C   0  0  0  0  0  0  0  0  0  0  0  0
  192.7150  175.1980  141.5400 C   0  0  0  0  0  2  0  0  0  0  0  0
  192.9340  174.0270  145.1730 N   0  0  0  0  0  2  0  0  0  0  0  0
  187.6990  177.4440  145.1410 C   0  0  0  0  0  3  0  0  0  0  0  0
  190.5400  173.2270  145.1800 C   0  0  0  0  0  1  0  0  0  0  0  0
  188.7870  177.5600  144.1470 C   0  0  0  0  0  0  0  0  0  0  0  0
  191.1520  175.5790  145.9830 C   0  0  1  0  0  3  0  0  0  0  0  0
  186.1260  178.1460  142.6590 N   0  0  0  0  0  2  0  0  0  0  0  0
  193.2210  173.9850  141.0500 O   0  0  0  0  0  0  0  0  0  0  0  0
  191.0200  176.3130  144.6840 C   0  0  0  0  0  0  0  0  0  0  0  0
  194.3320  173.6240  143.2070 C   0  0  0  0  0  2  0  0  0  0  0  0
  192.1680  175.0030  142.9540 C   0  0  1  0  0  3  0  0  0  0  0  0
  192.9060  173.8670  143.7140 C   0  0  2  0  0  3  0  0  0  0  0  0
  188.6350  178.3520  142.8690 C   0  0  1  0  0  3  0  0  0  0  0  0
  186.4740  177.9790  145.0580 C   0  0  0  0  0  3  0  0  0  0  0  0
  185.9730  178.8410  143.9320 C   0  0  2  0  0  3  0  0  0  0  0  0
  194.4650  173.8110  141.6830 C   0  0  1  0  0  3  0  0  0  0  0  0
  192.1300  176.3350  143.6860 C   0  0  0  0  0  2  0  0  0  0  0  0
  191.6060  174.1250  145.8000 C   0  0  2  0  0  3  0  0  0  0  0  0
  197.2730  170.8010  138.4550 C   0  0  0  0  0  2  0  0  0  0  0  0
  197.5270  169.4880  139.1840 C   0  0  0  0  0  2  0  0  0  0  0  0
  195.1930  170.4380  139.8780 C   0  0  1  0  0  3  0  0  0  0  0  0
  194.5390  171.6420  140.5120 C   0  0  0  0  0  3  0  0  0  0  0  0
  196.7180  172.7690  141.0010 C   0  0  0  0  0  2  0  0  0  0  0  0
  196.7150  170.5810  139.8410 C   0  0  0  0  0  0  0  0  0  0  0  0
  197.3950  171.4030  140.9220 C   0  0  0  0  0  2  0  0  0  0  0  0
  195.2140  172.6680  141.0700 C   0  0  0  0  0  0  0  0  0  0  0  0
  196.6950  171.5760  146.0760 Cl  0  0  0  0  0  0  0  0  0  0  0  0
  194.3830  168.1720  145.3700 C   0  0  0  0  0  3  0  0  0  0  0  0
  194.8890  169.2220  141.9500 C   0  0  0  0  0  0  0  0  0  0  0  0
  195.1310  169.2350  146.0670 C   0  0  0  0  0  0  0  0  0  0  0  0
  194.8060  169.2230  140.6510 C   0  0  0  0  0  3  0  0  0  0  0  0
  194.9700  169.2230  143.2510 C   0  0  0  0  0  0  0  0  0  0  0  0
  195.7980  170.2950  145.2800 C   0  0  0  0  0  0  0  0  0  0  0  0
  195.1980  169.2300  147.3250 O   0  0  0  0  0  0  0  0  0  0  0  0
  194.3060  168.1660  144.0360 C   0  0  0  0  0  3  0  0  0  0  0  0
  195.7190  170.2860  143.9450 C   0  0  0  0  0  3  0  0  0  0  0  0
  184.5070  179.2130  144.1570 C   0  0  1  0  0  3  0  0  0  0  0  0
  183.6610  178.5470  143.1800 N   0  0  0  0  0  1  0  0  0  0  0  0
  184.0590  178.8030  145.5490 C   0  0  0  0  0  1  0  0  0  0  0  0
  192.0830  176.3390  146.9210 C   0  0  0  0  0  2  0  0  0  0  0  0
  190.2390  177.5770  147.8100 O   0  0  0  0  0  1  0  0  0  0  0  0
  191.3460  176.8080  148.1650 C   0  0  0  0  0  2  0  0  0  0  0  0
  1 13  2  0  0  0  0
  2  4  2  0  0  0  0
  4 11  1  0  0  0  0
  4 17  1  0  0  0  0
  6 22  1  0  0  0  0
  9  1  2  0  0  0  0
  9  7  1  0  0  0  0
 10 44  1  1  0  0  0
 11 19  1  0  0  0  0
 12  5  1  0  0  0  0
 12 20  1  0  0  0  0
 13 10  1  0  0  0  0
 15  5  1  6  0  0  0
 15 21  1  0  0  0  0
 15 16  1  0  0  0  0
 16 14  1  6  0  0  0
 16  6  1  0  0  0  0
 17  3  1  6  0  0  0
 17  9  1  0  0  0  0
 18  7  2  0  0  0  0
 19 41  1  1  0  0  0
 19 18  1  0  0  0  0
 20 30  1  6  0  0  0
 20 14  1  0  0  0  0
 21 13  1  0  0  0  0
 22  8  1  6  0  0  0
 22 10  1  0  0  0  0
 23 24  1  0  0  0  0
 23 28  1  0  0  0  0
 24 28  1  0  0  0  0
 25 26  1  0  0  0  0
 25 35  1  1  0  0  0
 26 30  2  0  0  0  0
 27 30  1  0  0  0  0
 28 25  1  0  0  0  0
 28 29  1  0  0  0  0
 29 27  1  0  0  0  0
 32 34  1  0  0  0  0
 33 36  2  0  0  0  0
 34 38  2  0  0  0  0
 35 33  2  0  0  0  0
 36 40  1  0  0  0  0
 36 39  1  0  0  0  0
 37 34  1  0  0  0  0
 37 31  1  0  0  0  0
 39 32  2  0  0  0  0
 40 37  2  0  0  0  0
 41 43  1  1  0  0  0
 42 41  1  0  0  0  0
 44 46  1  0  0  0  0
 45 46  1  0  0  0  0
M  END
>  <MODEL>
3

>  <REMARK>
 VINA RESULT:      -7.9      3.064      5.033
  Name = 
  5 active torsions:
  status: ('A' for Active; 'I' for Inactive)
    1  A    between atoms: C_10  and  C_19
    2  A    between atoms: C_10  and  C_44
    3  A    between atoms: C_14  and  C_21
    4  A    between atoms: C_27  and  C_40
    5  A    between atoms: C_33  and  C_41
                            x       y       z     vdW  Elec       q    Type
                         _______ _______ _______ _____ _____    ______ ____

>  <TORSDO>
F 5

$$$$
=
 OpenBabel11062419493D

 46 51  0  0  1  0  0  0  0  0999 V2000
  188.9480  177.4920  144.8910 C   0  0  0  0  0  0  0  0  0  0  0  0
  187.4950  176.2890  141.1900 O   0  0  0  0  0  0  0  0  0  0  0  0
  189.4260  177.8120  142.2360 O   0  0  0  0  0  1  0  0  0  0  0  0
  187.1260  177.2740  141.8840 C   0  0  0  0  0  0  0  0  0  0  0  0
  192.3560  175.0210  143.6810 C   0  0  0  0  0  2  0  0  0  0  0  0
  191.6510  175.3700  147.4230 N   0  0  0  0  0  2  0  0  0  0  0  0
  186.6360  178.0470  144.8200 C   0  0  0  0  0  3  0  0  0  0  0  0
  189.3190  174.4330  147.1870 C   0  0  0  0  0  1  0  0  0  0  0  0
  187.9390  177.8620  144.1450 C   0  0  0  0  0  0  0  0  0  0  0  0
  189.7460  176.9560  147.1110 C   0  0  1  0  0  3  0  0  0  0  0  0
  185.7390  177.5970  141.9710 N   0  0  0  0  0  2  0  0  0  0  0  0
  192.9510  173.7610  143.8440 O   0  0  0  0  0  0  0  0  0  0  0  0
  189.9500  177.1170  145.6360 C   0  0  0  0  0  0  0  0  0  0  0  0
  193.4870  174.3600  146.1620 C   0  0  0  0  0  2  0  0  0  0  0  0
  191.4740  175.3420  144.8860 C   0  0  1  0  0  3  0  0  0  0  0  0
  191.9840  174.6570  146.1830 C   0  0  2  0  0  3  0  0  0  0  0  0
  188.1200  178.0830  142.6610 C   0  0  1  0  0  3  0  0  0  0  0  0
  185.4780  178.4020  144.2480 C   0  0  0  0  0  3  0  0  0  0  0  0
  185.2840  178.7140  142.7910 C   0  0  2  0  0  3  0  0  0  0  0  0
  193.9970  173.9530  144.7660 C   0  0  1  0  0  3  0  0  0  0  0  0
  191.2740  176.8450  145.0000 C   0  0  0  0  0  2  0  0  0  0  0  0
  190.2110  175.5900  147.6310 C   0  0  2  0  0  3  0  0  0  0  0  0
  196.6650  169.7960  146.4870 C   0  0  0  0  0  2  0  0  0  0  0  0
  197.2440  169.1030  145.2590 C   0  0  0  0  0  2  0  0  0  0  0  0
  197.1600  171.6830  144.8510 C   0  0  1  0  0  3  0  0  0  0  0  0
  196.2010  172.8480  144.7880 C   0  0  0  0  0  3  0  0  0  0  0  0
  194.1810  171.4090  145.1140 C   0  0  0  0  0  2  0  0  0  0  0  0
  196.4270  170.3670  145.1090 C   0  0  0  0  0  0  0  0  0  0  0  0
  194.9980  170.2210  144.6150 C   0  0  0  0  0  2  0  0  0  0  0  0
  194.8580  172.7310  144.8490 C   0  0  0  0  0  0  0  0  0  0  0  0
  193.6210  174.8210  140.4230 Cl  0  0  0  0  0  0  0  0  0  0  0  0
  197.4970  173.8040  139.2520 C   0  0  0  0  0  3  0  0  0  0  0  0
  197.4810  172.2690  142.5220 C   0  0  0  0  0  0  0  0  0  0  0  0
  196.1330  174.3640  139.2360 C   0  0  0  0  0  0  0  0  0  0  0  0
  197.9100  171.6140  143.5640 C   0  0  0  0  0  3  0  0  0  0  0  0
  197.0540  172.9260  141.4820 C   0  0  0  0  0  0  0  0  0  0  0  0
  195.2490  174.1670  140.4070 C   0  0  0  0  0  0  0  0  0  0  0  0
  195.7310  175.0030  138.2290 O   0  0  0  0  0  0  0  0  0  0  0  0
  197.9340  173.1220  140.3160 C   0  0  0  0  0  3  0  0  0  0  0  0
  195.6900  173.4850  141.4690 C   0  0  0  0  0  3  0  0  0  0  0  0
  183.8140  179.0180  142.5010 C   0  0  1  0  0  3  0  0  0  0  0  0
  183.2530  178.0050  141.6210 N   0  0  0  0  0  1  0  0  0  0  0  0
  183.0100  179.0430  143.7890 C   0  0  0  0  0  1  0  0  0  0  0  0
  190.4260  178.0970  147.8610 C   0  0  0  0  0  2  0  0  0  0  0  0
  191.5670  178.2960  149.9540 O   0  0  0  0  0  1  0  0  0  0  0  0
  191.5370  177.5790  148.7590 C   0  0  0  0  0  2  0  0  0  0  0  0
  1 13  2  0  0  0  0
  2  4  2  0  0  0  0
  4 11  1  0  0  0  0
  4 17  1  0  0  0  0
  5 12  1  0  0  0  0
  6 22  1  0  0  0  0
  9  7  1  0  0  0  0
  9  1  2  0  0  0  0
 10 22  1  0  0  0  0
 10 44  1  1  0  0  0
 11 19  1  0  0  0  0
 12 20  1  0  0  0  0
 13 10  1  0  0  0  0
 15  5  1  6  0  0  0
 15 21  1  0  0  0  0
 15 16  1  0  0  0  0
 16 14  1  6  0  0  0
 16  6  1  0  0  0  0
 17  3  1  6  0  0  0
 17  9  1  0  0  0  0
 18  7  2  0  0  0  0
 19 41  1  1  0  0  0
 19 18  1  0  0  0  0
 20 30  1  1  0  0  0
 20 14  1  0  0  0  0
 21 13  1  0  0  0  0
 22  8  1  6  0  0  0
 24 23  1  0  0  0  0
 25 35  1  6  0  0  0
 25 28  1  0  0  0  0
 26 30  2  0  0  0  0
 26 25  1  0  0  0  0
 28 24  1  0  0  0  0
 28 23  1  0  0  0  0
 29 28  1  0  0  0  0
 29 27  1  0  0  0  0
 30 27  1  0  0  0  0
 32 39  2  0  0  0  0
 33 35  2  0  0  0  0
 34 32  1  0  0  0  0
 34 37  1  0  0  0  0
 36 33  2  0  0  0  0
 37 31  1  0  0  0  0
 37 40  2  0  0  0  0
 38 34  2  0  0  0  0
 39 36  1  0  0  0  0
 40 36  1  0  0  0  0
 41 43  1  1  0  0  0
 42 41  1  0  0  0  0
 44 46  1  0  0  0  0
 46 45  1  0  0  0  0
M  END
>  <MODEL>
4

>  <REMARK>
 VINA RESULT:      -7.8      1.743      2.038
  Name = 
  5 active torsions:
  status: ('A' for Active; 'I' for Inactive)
    1  A    between atoms: C_10  and  C_19
    2  A    between atoms: C_10  and  C_44
    3  A    between atoms: C_14  and  C_21
    4  A    between atoms: C_27  and  C_40
    5  A    between atoms: C_33  and  C_41
                            x       y       z     vdW  Elec       q    Type
                         _______ _______ _______ _____ _____    ______ ____

>  <TORSDO>
F 5

$$$$
=
 OpenBabel11062419493D

 46 51  0  0  1  0  0  0  0  0999 V2000
  188.8990  177.4040  144.7120 C   0  0  0  0  0  0  0  0  0  0  0  0
  187.3630  176.3450  141.0010 O   0  0  0  0  0  0  0  0  0  0  0  0
  189.3150  177.8310  142.0610 O   0  0  0  0  0  1  0  0  0  0  0  0
  187.0080  177.2990  141.7420 C   0  0  0  0  0  0  0  0  0  0  0  0
  192.2840  174.9950  143.3260 C   0  0  0  0  0  2  0  0  0  0  0  0
  191.6650  175.1930  147.0940 N   0  0  0  0  0  2  0  0  0  0  0  0
  186.5850  177.9540  144.7160 C   0  0  0  0  0  3  0  0  0  0  0  0
  189.3300  174.2590  146.8750 C   0  0  0  0  0  1  0  0  0  0  0  0
  187.8720  177.8000  144.0050 C   0  0  0  0  0  0  0  0  0  0  0  0
  189.7490  176.7840  146.8900 C   0  0  1  0  0  3  0  0  0  0  0  0
  185.6230  177.6140  141.8730 N   0  0  0  0  0  2  0  0  0  0  0  0
  192.8850  173.7310  143.4260 O   0  0  0  0  0  0  0  0  0  0  0  0
  189.9190  177.0030  145.4180 C   0  0  0  0  0  0  0  0  0  0  0  0
  193.4730  174.2390  145.7520 C   0  0  0  0  0  2  0  0  0  0  0  0
  191.4290  175.2650  144.5640 C   0  0  1  0  0  3  0  0  0  0  0  0
  191.9700  174.5300  145.8200 C   0  0  2  0  0  3  0  0  0  0  0  0
  188.0180  178.0800  142.5270 C   0  0  1  0  0  3  0  0  0  0  0  0
  185.4130  178.3280  144.1860 C   0  0  0  0  0  3  0  0  0  0  0  0
  185.1850  178.6970  142.7470 C   0  0  2  0  0  3  0  0  0  0  0  0
  193.9520  173.8890  144.3300 C   0  0  1  0  0  3  0  0  0  0  0  0
  191.2280  176.7610  144.7420 C   0  0  0  0  0  2  0  0  0  0  0  0
  190.2290  175.3990  147.3440 C   0  0  2  0  0  3  0  0  0  0  0  0
  197.5660  170.3090  145.5450 C   0  0  0  0  0  2  0  0  0  0  0  0
  197.3540  169.1290  144.6050 C   0  0  0  0  0  2  0  0  0  0  0  0
  196.7480  171.3530  143.3730 C   0  0  1  0  0  3  0  0  0  0  0  0
  195.8230  172.5450  143.4530 C   0  0  0  0  0  3  0  0  0  0  0  0
  194.5960  171.6600  145.4450 C   0  0  0  0  0  2  0  0  0  0  0  0
  196.4770  170.3570  144.5000 C   0  0  0  0  0  0  0  0  0  0  0  0
  195.0700  170.2610  145.0640 C   0  0  0  0  0  2  0  0  0  0  0  0
  194.8180  172.6680  144.3440 C   0  0  0  0  0  0  0  0  0  0  0  0
  190.3660  170.8260  142.3870 Cl  0  0  0  0  0  0  0  0  0  0  0  0
  192.7830  169.9790  139.0900 C   0  0  0  0  0  3  0  0  0  0  0  0
  195.3700  170.5710  141.5400 C   0  0  0  0  0  0  0  0  0  0  0  0
  191.5910  170.2010  139.9300 C   0  0  0  0  0  0  0  0  0  0  0  0
  196.5630  170.6960  142.0460 C   0  0  0  0  0  3  0  0  0  0  0  0
  194.1760  170.4490  141.0330 C   0  0  0  0  0  0  0  0  0  0  0  0
  191.7600  170.5540  141.3580 C   0  0  0  0  0  0  0  0  0  0  0  0
  190.4420  170.0860  139.4290 O   0  0  0  0  0  0  0  0  0  0  0  0
  194.0070  170.0960  139.6110 C   0  0  0  0  0  3  0  0  0  0  0  0
  192.9870  170.6710  141.8760 C   0  0  0  0  0  3  0  0  0  0  0  0
  183.7070  179.0070  142.5040 C   0  0  1  0  0  3  0  0  0  0  0  0
  183.1140  177.9940  141.6460 N   0  0  0  0  0  1  0  0  0  0  0  0
  182.9450  179.0410  143.8170 C   0  0  0  0  0  1  0  0  0  0  0  0
  190.4440  177.8960  147.6680 C   0  0  0  0  0  2  0  0  0  0  0  0
  191.5640  178.2910  149.7450 O   0  0  0  0  0  1  0  0  0  0  0  0
  191.3330  177.3280  148.7630 C   0  0  0  0  0  2  0  0  0  0  0  0
  1 13  2  0  0  0  0
  2  4  2  0  0  0  0
  4 11  1  0  0  0  0
  4 17  1  0  0  0  0
  5 12  1  0  0  0  0
  6 22  1  0  0  0  0
  9  1  2  0  0  0  0
  9  7  1  0  0  0  0
 10 22  1  0  0  0  0
 10 44  1  1  0  0  0
 11 19  1  0  0  0  0
 12 20  1  0  0  0  0
 13 10  1  0  0  0  0
 15  5  1  6  0  0  0
 15 21  1  0  0  0  0
 15 16  1  0  0  0  0
 16 14  1  6  0  0  0
 16  6  1  0  0  0  0
 17  3  1  6  0  0  0
 17  9  1  0  0  0  0
 18  7  2  0  0  0  0
 19 41  1  1  0  0  0
 19 18  1  0  0  0  0
 20 30  1  1  0  0  0
 20 14  1  0  0  0  0
 21 13  1  0  0  0  0
 22  8  1  6  0  0  0
 24 23  1  0  0  0  0
 25 35  1  6  0  0  0
 25 26  1  0  0  0  0
 25 28  1  0  0  0  0
 26 30  2  0  0  0  0
 28 24  1  0  0  0  0
 28 29  1  0  0  0  0
 28 23  1  0  0  0  0
 29 27  1  0  0  0  0
 30 27  1  0  0  0  0
 32 39  2  0  0  0  0
 32 34  1  0  0  0  0
 33 35  2  0  0  0  0
 34 37  1  0  0  0  0
 36 33  2  0  0  0  0
 36 40  1  0  0  0  0
 37 40  2  0  0  0  0
 37 31  1  0  0  0  0
 38 34  2  0  0  0  0
 39 36  1  0  0  0  0
 41 43  1  1  0  0  0
 42 41  1  0  0  0  0
 44 46  1  0  0  0  0
 46 45  1  0  0  0  0
M  END
>  <MODEL>
5

>  <REMARK>
 VINA RESULT:      -7.7      2.704      3.325
  Name = 
  5 active torsions:
  status: ('A' for Active; 'I' for Inactive)
    1  A    between atoms: C_10  and  C_19
    2  A    between atoms: C_10  and  C_44
    3  A    between atoms: C_14  and  C_21
    4  A    between atoms: C_27  and  C_40
    5  A    between atoms: C_33  and  C_41
                            x       y       z     vdW  Elec       q    Type
                         _______ _______ _______ _____ _____    ______ ____

>  <TORSDO>
F 5

$$$$
=
 OpenBabel11062419493D

 46 51  0  0  1  0  0  0  0  0999 V2000
  189.8710  176.4820  144.4570 C   0  0  0  0  0  0  0  0  0  0  0  0
  187.6530  177.5830  141.1210 O   0  0  0  0  0  0  0  0  0  0  0  0
  189.9280  178.2220  142.3710 O   0  0  0  0  0  1  0  0  0  0  0  0
  187.5490  178.0180  142.2990 C   0  0  0  0  0  0  0  0  0  0  0  0
  192.6450  175.0410  141.3880 C   0  0  0  0  0  2  0  0  0  0  0  0
  192.6450  173.2530  144.7680 N   0  0  0  0  0  2  0  0  0  0  0  0
  187.6810  177.0280  145.2070 C   0  0  0  0  0  3  0  0  0  0  0  0
  190.1990  172.6560  144.5810 C   0  0  0  0  0  1  0  0  0  0  0  0
  188.8110  177.2260  144.2740 C   0  0  0  0  0  0  0  0  0  0  0  0
  190.9540  174.7800  145.7930 C   0  0  1  0  0  3  0  0  0  0  0  0
  186.2560  178.2660  142.8490 N   0  0  0  0  0  2  0  0  0  0  0  0
  193.0770  173.8930  140.7080 O   0  0  0  0  0  0  0  0  0  0  0  0
  190.9240  175.7340  144.6380 C   0  0  0  0  0  0  0  0  0  0  0  0
  194.0790  173.0830  142.7950 C   0  0  0  0  0  2  0  0  0  0  0  0
  192.0340  174.6510  142.7340 C   0  0  1  0  0  3  0  0  0  0  0  0
  192.6580  173.3470  143.3030 C   0  0  2  0  0  3  0  0  0  0  0  0
  188.7640  178.2350  143.1490 C   0  0  1  0  0  3  0  0  0  0  0  0
  186.5030  177.6660  145.1900 C   0  0  0  0  0  3  0  0  0  0  0  0
  186.1080  178.7430  144.2190 C   0  0  2  0  0  3  0  0  0  0  0  0
  194.2810  173.5150  141.3300 C   0  0  1  0  0  3  0  0  0  0  0  0
  192.0680  175.8370  143.6850 C   0  0  0  0  0  2  0  0  0  0  0  0
  191.3060  173.3480  145.3720 C   0  0  2  0  0  3  0  0  0  0  0  0
  196.2320  168.9310  139.7350 C   0  0  0  0  0  2  0  0  0  0  0  0
  196.8140  169.1580  138.3450 C   0  0  0  0  0  2  0  0  0  0  0  0
  197.1030  171.3230  139.7790 C   0  0  1  0  0  3  0  0  0  0  0  0
  196.3120  172.3600  140.5430 C   0  0  0  0  0  3  0  0  0  0  0  0
  194.1020  171.4020  139.8710 C   0  0  0  0  0  2  0  0  0  0  0  0
  196.1840  170.3040  139.1060 C   0  0  0  0  0  0  0  0  0  0  0  0
  194.7940  170.7450  138.6810 C   0  0  0  0  0  2  0  0  0  0  0  0
  194.9650  172.4390  140.5460 C   0  0  0  0  0  0  0  0  0  0  0  0
  193.2370  175.4850  136.6630 Cl  0  0  0  0  0  0  0  0  0  0  0  0
  197.3210  175.8860  135.8950 C   0  0  0  0  0  3  0  0  0  0  0  0
  197.4420  173.0000  138.0650 C   0  0  0  0  0  0  0  0  0  0  0  0
  195.8650  176.1240  135.8820 C   0  0  0  0  0  0  0  0  0  0  0  0
  197.9410  172.0190  138.7610 C   0  0  0  0  0  3  0  0  0  0  0  0
  196.9430  173.9840  137.3710 C   0  0  0  0  0  0  0  0  0  0  0  0
  194.9730  175.2310  136.6550 C   0  0  0  0  0  0  0  0  0  0  0  0
  195.3940  177.0810  135.2130 O   0  0  0  0  0  0  0  0  0  0  0  0
  197.8320  174.8730  136.6000 C   0  0  0  0  0  3  0  0  0  0  0  0
  195.4880  174.2190  137.3590 C   0  0  0  0  0  3  0  0  0  0  0  0
  184.6670  179.1870  144.4710 C   0  0  1  0  0  3  0  0  0  0  0  0
  183.7890  178.6600  143.4390 N   0  0  0  0  0  1  0  0  0  0  0  0
  184.1840  178.6890  145.8220 C   0  0  0  0  0  1  0  0  0  0  0  0
  191.9040  175.2930  146.8700 C   0  0  0  0  0  2  0  0  0  0  0  0
  190.7250  177.1360  147.8380 O   0  0  0  0  0  1  0  0  0  0  0  0
  191.1380  175.8250  148.0700 C   0  0  0  0  0  2  0  0  0  0  0  0
  1 13  2  0  0  0  0
  2  4  2  0  0  0  0
  4 11  1  0  0  0  0
  4 17  1  0  0  0  0
  6 22  1  0  0  0  0
  9  1  2  0  0  0  0
  9  7  1  0  0  0  0
 10 44  1  1  0  0  0
 11 19  1  0  0  0  0
 12 20  1  0  0  0  0
 12  5  1  0  0  0  0
 13 10  1  0  0  0  0
 15  5  1  6  0  0  0
 15 16  1  0  0  0  0
 15 21  1  0  0  0  0
 16 14  1  1  0  0  0
 16  6  1  0  0  0  0
 17  3  1  6  0  0  0
 17  9  1  0  0  0  0
 18  7  2  0  0  0  0
 19 41  1  1  0  0  0
 19 18  1  0  0  0  0
 20 30  1  6  0  0  0
 20 14  1  0  0  0  0
 21 13  1  0  0  0  0
 22  8  1  6  0  0  0
 22 10  1  0  0  0  0
 24 28  1  0  0  0  0
 24 23  1  0  0  0  0
 25 35  1  6  0  0  0
 25 26  1  0  0  0  0
 26 30  2  0  0  0  0
 27 30  1  0  0  0  0
 28 23  1  0  0  0  0
 28 25  1  0  0  0  0
 29 28  1  0  0  0  0
 29 27  1  0  0  0  0
 32 39  2  0  0  0  0
 33 35  2  0  0  0  0
 34 32  1  0  0  0  0
 34 37  1  0  0  0  0
 36 33  2  0  0  0  0
 37 31  1  0  0  0  0
 37 40  2  0  0  0  0
 38 34  2  0  0  0  0
 39 36  1  0  0  0  0
 40 36  1  0  0  0  0
 41 43  1  1  0  0  0
 42 41  1  0  0  0  0
 44 46  1  0  0  0  0
 45 46  1  0  0  0  0
M  END
>  <MODEL>
6

>  <REMARK>
 VINA RESULT:      -7.7      2.729      4.057
  Name = 
  5 active torsions:
  status: ('A' for Active; 'I' for Inactive)
    1  A    between atoms: C_10  and  C_19
    2  A    between atoms: C_10  and  C_44
    3  A    between atoms: C_14  and  C_21
    4  A    between atoms: C_27  and  C_40
    5  A    between atoms: C_33  and  C_41
                            x       y       z     vdW  Elec       q    Type
                         _______ _______ _______ _____ _____    ______ ____

>  <TORSDO>
F 5

$$$$
=
 OpenBabel11062419493D

 46 51  0  0  1  0  0  0  0  0999 V2000
  187.4380  177.8950  143.9850 C   0  0  0  0  0  0  0  0  0  0  0  0
  187.0140  177.2680  139.9010 O   0  0  0  0  0  0  0  0  0  0  0  0
  188.1860  178.9630  141.6020 O   0  0  0  0  0  1  0  0  0  0  0  0
  186.2530  177.9160  140.6680 C   0  0  0  0  0  0  0  0  0  0  0  0
  191.5920  176.8200  143.1080 C   0  0  0  0  0  2  0  0  0  0  0  0
  190.2560  176.0510  146.6070 N   0  0  0  0  0  2  0  0  0  0  0  0
  185.1070  177.7950  143.5190 C   0  0  0  0  0  3  0  0  0  0  0  0
  188.4010  174.5960  145.7030 C   0  0  0  0  0  1  0  0  0  0  0  0
  186.4880  178.1430  143.1200 C   0  0  0  0  0  0  0  0  0  0  0  0
  188.0180  177.0800  146.1880 C   0  0  1  0  0  3  0  0  0  0  0  0
  184.8390  177.8160  140.5100 N   0  0  0  0  0  2  0  0  0  0  0  0
  192.5210  175.7700  143.1610 O   0  0  0  0  0  0  0  0  0  0  0  0
  188.3820  177.6410  144.8470 C   0  0  0  0  0  0  0  0  0  0  0  0
  192.4850  175.9170  145.6100 C   0  0  0  0  0  2  0  0  0  0  0  0
  190.4820  176.5870  144.1320 C   0  0  1  0  0  3  0  0  0  0  0  0
  190.9800  175.7760  145.3590 C   0  0  2  0  0  3  0  0  0  0  0  0
  186.8130  178.7550  141.7760 C   0  0  1  0  0  3  0  0  0  0  0  0
  183.9970  177.9450  142.7850 C   0  0  0  0  0  3  0  0  0  0  0  0
  183.9370  178.5340  141.4030 C   0  0  2  0  0  3  0  0  0  0  0  0
  193.3020  176.0140  144.3070 C   0  0  1  0  0  3  0  0  0  0  0  0
  189.8040  177.9040  144.4740 C   0  0  0  0  0  2  0  0  0  0  0  0
  188.8060  175.8100  146.5350 C   0  0  2  0  0  3  0  0  0  0  0  0
  197.8700  173.7510  145.4800 C   0  0  0  0  0  2  0  0  0  0  0  0
  197.9400  172.4570  144.6800 C   0  0  0  0  0  2  0  0  0  0  0  0
  196.6340  174.2610  143.3130 C   0  0  1  0  0  3  0  0  0  0  0  0
  195.4140  175.1490  143.3750 C   0  0  0  0  0  3  0  0  0  0  0  0
  194.6370  174.2010  145.5550 C   0  0  0  0  0  2  0  0  0  0  0  0
  196.7420  173.3700  144.5510 C   0  0  0  0  0  0  0  0  0  0  0  0
  195.4660  172.9540  145.2610 C   0  0  0  0  0  2  0  0  0  0  0  0
  194.4810  175.0920  144.3470 C   0  0  0  0  0  0  0  0  0  0  0  0
  190.6160  171.8800  143.0240 Cl  0  0  0  0  0  0  0  0  0  0  0  0
  192.9390  171.3470  139.5960 C   0  0  0  0  0  3  0  0  0  0  0  0
  195.4140  172.9170  141.7090 C   0  0  0  0  0  0  0  0  0  0  0  0
  191.7960  171.3300  140.5270 C   0  0  0  0  0  0  0  0  0  0  0  0
  196.5540  173.4260  142.0790 C   0  0  0  0  0  3  0  0  0  0  0  0
  194.2720  172.4110  141.3380 C   0  0  0  0  0  0  0  0  0  0  0  0
  191.9550  171.8830  141.8910 C   0  0  0  0  0  0  0  0  0  0  0  0
  190.6950  170.8440  140.1570 O   0  0  0  0  0  0  0  0  0  0  0  0
  194.1130  171.8590  139.9800 C   0  0  0  0  0  3  0  0  0  0  0  0
  193.1300  172.3950  142.2700 C   0  0  0  0  0  3  0  0  0  0  0  0
  182.5080  178.4840  140.8630 C   0  0  1  0  0  3  0  0  0  0  0  0
  182.3690  177.4000  139.9030 N   0  0  0  0  0  1  0  0  0  0  0  0
  181.5170  178.2630  141.9930 C   0  0  0  0  0  1  0  0  0  0  0  0
  188.1830  178.1490  147.2640 C   0  0  0  0  0  2  0  0  0  0  0  0
  185.9330  178.8630  146.8740 O   0  0  0  0  0  1  0  0  0  0  0  0
  186.8430  178.5240  147.8750 C   0  0  0  0  0  2  0  0  0  0  0  0
  1 13  2  0  0  0  0
  2  4  2  0  0  0  0
  4 17  1  0  0  0  0
  5 12  1  0  0  0  0
  9  7  1  0  0  0  0
  9  1  2  0  0  0  0
 10 22  1  0  0  0  0
 10 44  1  1  0  0  0
 11  4  1  0  0  0  0
 11 19  1  0  0  0  0
 12 20  1  0  0  0  0
 13 10  1  0  0  0  0
 15  5  1  6  0  0  0
 15 21  1  0  0  0  0
 15 16  1  0  0  0  0
 16 14  1  1  0  0  0
 16  6  1  0  0  0  0
 17  3  1  6  0  0  0
 17  9  1  0  0  0  0
 18  7  2  0  0  0  0
 19 41  1  6  0  0  0
 19 18  1  0  0  0  0
 20 30  1  1  0  0  0
 20 14  1  0  0  0  0
 21 13  1  0  0  0  0
 22  8  1  6  0  0  0
 22  6  1  0  0  0  0
 24 23  1  0  0  0  0
 25 35  1  6  0  0  0
 25 26  1  0  0  0  0
 25 28  1  0  0  0  0
 26 30  2  0  0  0  0
 28 24  1  0  0  0  0
 28 29  1  0  0  0  0
 28 23  1  0  0  0  0
 29 27  1  0  0  0  0
 30 27  1  0  0  0  0
 32 39  2  0  0  0  0
 32 34  1  0  0  0  0
 33 35  2  0  0  0  0
 34 37  1  0  0  0  0
 36 33  2  0  0  0  0
 36 40  1  0  0  0  0
 37 40  2  0  0  0  0
 37 31  1  0  0  0  0
 38 34  2  0  0  0  0
 39 36  1  0  0  0  0
 41 43  1  1  0  0  0
 42 41  1  0  0  0  0
 44 46  1  0  0  0  0
 45 46  1  0  0  0  0
M  END
>  <MODEL>
7

>  <REMARK>
 VINA RESULT:      -7.6      1.806      2.376
  Name = 
  5 active torsions:
  status: ('A' for Active; 'I' for Inactive)
    1  A    between atoms: C_10  and  C_19
    2  A    between atoms: C_10  and  C_44
    3  A    between atoms: C_14  and  C_21
    4  A    between atoms: C_27  and  C_40
    5  A    between atoms: C_33  and  C_41
                            x       y       z     vdW  Elec       q    Type
                         _______ _______ _______ _____ _____    ______ ____

>  <TORSDO>
F 5

$$$$
=
 OpenBabel11062419493D

 46 51  0  0  1  0  0  0  0  0999 V2000
  191.7290  171.3400  138.8380 C   0  0  0  0  0  0  0  0  0  0  0  0
  192.6520  174.1960  135.9670 O   0  0  0  0  0  0  0  0  0  0  0  0
  190.6450  172.5810  136.6780 O   0  0  0  0  0  1  0  0  0  0  0  0
  192.8820  172.9580  135.9300 C   0  0  0  0  0  0  0  0  0  0  0  0
  188.9240  174.4390  140.1490 C   0  0  0  0  0  2  0  0  0  0  0  0
  190.2680  172.0230  142.7910 N   0  0  0  0  0  2  0  0  0  0  0  0
  193.7440  170.6560  137.7770 C   0  0  0  0  0  3  0  0  0  0  0  0
  192.6650  172.6650  142.3220 C   0  0  0  0  0  1  0  0  0  0  0  0
  192.4270  171.3260  137.7320 C   0  0  0  0  0  0  0  0  0  0  0  0
  191.5780  170.6620  141.1560 C   0  0  1  0  0  3  0  0  0  0  0  0
  194.1200  172.4850  135.4020 N   0  0  0  0  0  2  0  0  0  0  0  0
  188.7320  175.4620  141.0880 O   0  0  0  0  0  0  0  0  0  0  0  0
  191.0380  171.3580  139.9440 C   0  0  0  0  0  0  0  0  0  0  0  0
  188.5470  173.7590  142.8450 C   0  0  0  0  0  2  0  0  0  0  0  0
  189.9190  173.4130  140.6900 C   0  0  1  0  0  3  0  0  0  0  0  0
  189.8890  173.3310  142.2410 C   0  0  2  0  0  3  0  0  0  0  0  0
  191.8910  171.9750  136.4770 C   0  0  1  0  0  3  0  0  0  0  0  0
  194.6230  170.5430  136.7720 C   0  0  0  0  0  3  0  0  0  0  0  0
  194.4220  171.0580  135.3740 C   0  0  2  0  0  3  0  0  0  0  0  0
  187.8860  174.9180  142.0730 C   0  0  1  0  0  3  0  0  0  0  0  0
  189.7320  172.0810  139.9810 C   0  0  0  0  0  2  0  0  0  0  0  0
  191.6100  171.5640  142.3960 C   0  0  2  0  0  3  0  0  0  0  0  0
  185.9340  179.3330  144.0880 C   0  0  0  0  0  2  0  0  0  0  0  0
  185.8950  179.1500  145.6000 C   0  0  0  0  0  2  0  0  0  0  0  0
  187.9490  177.8690  144.6140 C   0  0  1  0  0  3  0  0  0  0  0  0
  188.3130  176.7730  143.6400 C   0  0  0  0  0  3  0  0  0  0  0  0
  185.9290  176.2100  143.1350 C   0  0  0  0  0  2  0  0  0  0  0  0
  186.4340  178.0510  144.7110 C   0  0  0  0  0  0  0  0  0  0  0  0
  185.5390  176.8490  144.4640 C   0  0  0  0  0  2  0  0  0  0  0  0
  187.4160  175.9840  143.0130 C   0  0  0  0  0  0  0  0  0  0  0  0
  193.9580  175.6610  143.6150 Cl  0  0  0  0  0  0  0  0  0  0  0  0
  192.9450  176.4150  147.5940 C   0  0  0  0  0  3  0  0  0  0  0  0
  189.7630  177.1660  146.0570 C   0  0  0  0  0  0  0  0  0  0  0  0
  193.7190  176.0510  146.3930 C   0  0  0  0  0  0  0  0  0  0  0  0
  188.5160  177.5260  145.9500 C   0  0  0  0  0  3  0  0  0  0  0  0
  191.0110  176.8090  146.1640 C   0  0  0  0  0  0  0  0  0  0  0  0
  193.0660  176.0860  145.0650 C   0  0  0  0  0  0  0  0  0  0  0  0
  194.9270  175.7140  146.5060 O   0  0  0  0  0  0  0  0  0  0  0  0
  191.6620  176.7740  147.4870 C   0  0  0  0  0  3  0  0  0  0  0  0
  191.7830  176.4460  144.9610 C   0  0  0  0  0  3  0  0  0  0  0  0
  195.6660  170.7980  134.5250 C   0  0  1  0  0  3  0  0  0  0  0  0
  196.5820  171.9240  134.6120 N   0  0  0  0  0  1  0  0  0  0  0  0
  196.3850  169.5470  135.0010 C   0  0  0  0  0  1  0  0  0  0  0  0
  190.7900  169.3820  141.4190 C   0  0  0  0  0  2  0  0  0  0  0  0
  192.8920  168.3840  140.8630 O   0  0  0  0  0  1  0  0  0  0  0  0
  191.5140  168.1670  140.8630 C   0  0  0  0  0  2  0  0  0  0  0  0
  1 13  2  0  0  0  0
  4  2  2  0  0  0  0
  4 17  1  0  0  0  0
  5 15  1  0  0  0  0
  5 12  1  0  0  0  0
  9  7  1  0  0  0  0
  9  1  2  0  0  0  0
 10 44  1  1  0  0  0
 10 22  1  0  0  0  0
 11  4  1  0  0  0  0
 12 20  1  0  0  0  0
 13 21  1  0  0  0  0
 13 10  1  0  0  0  0
 15 21  1  6  0  0  0
 15 16  1  0  0  0  0
 16  6  1  0  0  0  0
 16 14  1  6  0  0  0
 17  3  1  1  0  0  0
 17  9  1  0  0  0  0
 18  7  2  0  0  0  0
 19 41  1  6  0  0  0
 19 11  1  0  0  0  0
 19 18  1  0  0  0  0
 20 14  1  0  0  0  0
 20 30  1  1  0  0  0
 22  8  1  6  0  0  0
 22  6  1  0  0  0  0
 23 28  1  0  0  0  0
 23 24  1  0  0  0  0
 25 28  1  0  0  0  0
 25 35  1  1  0  0  0
 26 25  1  0  0  0  0
 27 29  1  0  0  0  0
 28 24  1  0  0  0  0
 29 28  1  0  0  0  0
 30 27  1  0  0  0  0
 30 26  2  0  0  0  0
 31 37  1  0  0  0  0
 33 36  2  0  0  0  0
 34 38  2  0  0  0  0
 34 32  1  0  0  0  0
 35 33  2  0  0  0  0
 36 39  1  0  0  0  0
 37 34  1  0  0  0  0
 39 32  2  0  0  0  0
 40 37  2  0  0  0  0
 40 36  1  0  0  0  0
 41 42  1  0  0  0  0
 41 43  1  1  0  0  0
 45 46  1  0  0  0  0
 46 44  1  0  0  0  0
M  END
>  <MODEL>
8

>  <REMARK>
 VINA RESULT:      -7.6      4.804      9.939
  Name = 
  5 active torsions:
  status: ('A' for Active; 'I' for Inactive)
    1  A    between atoms: C_10  and  C_19
    2  A    between atoms: C_10  and  C_44
    3  A    between atoms: C_14  and  C_21
    4  A    between atoms: C_27  and  C_40
    5  A    between atoms: C_33  and  C_41
                            x       y       z     vdW  Elec       q    Type
                         _______ _______ _______ _____ _____    ______ ____

>  <TORSDO>
F 5

$$$$
=
 OpenBabel11062419493D

 46 51  0  0  1  0  0  0  0  0999 V2000
  189.9040  175.5330  144.2800 C   0  0  0  0  0  0  0  0  0  0  0  0
  186.2410  176.5460  142.6030 O   0  0  0  0  0  0  0  0  0  0  0  0
  188.8230  177.2160  142.4420 O   0  0  0  0  0  1  0  0  0  0  0  0
  186.7710  177.0120  143.6460 C   0  0  0  0  0  0  0  0  0  0  0  0
  190.6500  174.0080  140.2420 C   0  0  0  0  0  2  0  0  0  0  0  0
  192.4660  172.3120  143.1480 N   0  0  0  0  0  2  0  0  0  0  0  0
  188.4370  176.1010  146.0640 C   0  0  0  0  0  3  0  0  0  0  0  0
  190.3010  171.7110  144.3000 C   0  0  0  0  0  1  0  0  0  0  0  0
  188.8980  176.2730  144.6700 C   0  0  0  0  0  0  0  0  0  0  0  0
  191.5530  173.8670  144.8780 C   0  0  1  0  0  3  0  0  0  0  0  0
  185.9620  177.2760  144.7920 N   0  0  0  0  0  2  0  0  0  0  0  0
  190.6720  172.8420  139.4630 O   0  0  0  0  0  0  0  0  0  0  0  0
  190.9030  174.7890  143.8930 C   0  0  0  0  0  0  0  0  0  0  0  0
  192.6380  172.0880  140.7190 C   0  0  0  0  0  2  0  0  0  0  0  0
  190.8510  173.6550  141.7160 C   0  0  1  0  0  3  0  0  0  0  0  0
  191.6990  172.3670  141.8970 C   0  0  2  0  0  3  0  0  0  0  0  0
  188.2490  177.2510  143.7180 C   0  0  1  0  0  3  0  0  0  0  0  0
  187.4200  176.7380  146.6590 C   0  0  0  0  0  3  0  0  0  0  0  0
  186.5560  177.7900  146.0210 C   0  0  2  0  0  3  0  0  0  0  0  0
  192.0280  172.4810  139.3610 C   0  0  1  0  0  3  0  0  0  0  0  0
  191.3670  174.8670  142.4760 C   0  0  0  0  0  2  0  0  0  0  0  0
  191.6490  172.4240  144.3680 C   0  0  2  0  0  3  0  0  0  0  0  0
  191.3990  168.1660  136.4700 C   0  0  0  0  0  2  0  0  0  0  0  0
  192.5090  168.1670  135.4270 C   0  0  0  0  0  2  0  0  0  0  0  0
  193.3800  169.2620  137.6350 C   0  0  1  0  0  3  0  0  0  0  0  0
  193.1110  170.4070  138.5830 C   0  0  0  0  0  3  0  0  0  0  0  0
  191.2730  171.3520  137.1730 C   0  0  0  0  0  2  0  0  0  0  0  0
  192.4180  169.2800  136.4470 C   0  0  0  0  0  0  0  0  0  0  0  0
  191.8680  170.6160  135.9760 C   0  0  0  0  0  2  0  0  0  0  0  0
  192.2070  171.3830  138.3580 C   0  0  0  0  0  0  0  0  0  0  0  0
  194.6350  175.5430  136.6630 Cl  0  0  0  0  0  0  0  0  0  0  0  0
  197.9390  172.9950  136.5250 C   0  0  0  0  0  3  0  0  0  0  0  0
  195.3480  170.5230  136.9990 C   0  0  0  0  0  0  0  0  0  0  0  0
  197.1140  174.2180  136.5120 C   0  0  0  0  0  0  0  0  0  0  0  0
  194.7910  169.3570  137.1610 C   0  0  0  0  0  3  0  0  0  0  0  0
  195.9050  171.6900  136.8400 C   0  0  0  0  0  0  0  0  0  0  0  0
  195.6470  174.1100  136.6720 C   0  0  0  0  0  0  0  0  0  0  0  0
  197.6630  175.3410  136.3640 O   0  0  0  0  0  0  0  0  0  0  0  0
  197.3670  171.7980  136.6800 C   0  0  0  0  0  3  0  0  0  0  0  0
  195.0780  172.9100  136.8280 C   0  0  0  0  0  3  0  0  0  0  0  0
  185.4620  178.2410  146.9880 C   0  0  1  0  0  3  0  0  0  0  0  0
  185.8950  179.4160  147.7280 N   0  0  0  0  0  1  0  0  0  0  0  0
  184.1890  178.5820  146.2330 C   0  0  0  0  0  1  0  0  0  0  0  0
  192.9230  174.4080  145.2750 C   0  0  0  0  0  2  0  0  0  0  0  0
  193.6880  176.3900  146.3760 O   0  0  0  0  0  1  0  0  0  0  0  0
  192.8270  175.3010  146.5020 C   0  0  0  0  0  2  0  0  0  0  0  0
  1  9  2  0  0  0  0
  2  4  2  0  0  0  0
  4 17  1  0  0  0  0
  4 11  1  0  0  0  0
  6 22  1  0  0  0  0
  7 18  2  0  0  0  0
  9  7  1  0  0  0  0
 10 44  1  6  0  0  0
 11 19  1  0  0  0  0
 12  5  1  0  0  0  0
 13  1  2  0  0  0  0
 13 10  1  0  0  0  0
 15  5  1  6  0  0  0
 15 16  1  0  0  0  0
 15 21  1  0  0  0  0
 16 14  1  6  0  0  0
 16  6  1  0  0  0  0
 17  3  1  6  0  0  0
 17  9  1  0  0  0  0
 19 18  1  0  0  0  0
 19 41  1  1  0  0  0
 20 30  1  6  0  0  0
 20 12  1  0  0  0  0
 20 14  1  0  0  0  0
 21 13  1  0  0  0  0
 22  8  1  6  0  0  0
 22 10  1  0  0  0  0
 24 28  1  0  0  0  0
 24 23  1  0  0  0  0
 25 35  1  6  0  0  0
 25 26  1  0  0  0  0
 27 30  1  0  0  0  0
 28 23  1  0  0  0  0
 28 25  1  0  0  0  0
 29 28  1  0  0  0  0
 29 27  1  0  0  0  0
 30 26  2  0  0  0  0
 31 37  1  0  0  0  0
 32 39  2  0  0  0  0
 33 35  2  0  0  0  0
 34 32  1  0  0  0  0
 34 37  1  0  0  0  0
 36 33  2  0  0  0  0
 37 40  2  0  0  0  0
 38 34  2  0  0  0  0
 39 36  1  0  0  0  0
 40 36  1  0  0  0  0
 41 43  1  6  0  0  0
 41 42  1  0  0  0  0
 44 46  1  0  0  0  0
 45 46  1  0  0  0  0
M  END
>  <MODEL>
9

>  <REMARK>
 VINA RESULT:      -7.4      3.978      6.072
  Name = 
  5 active torsions:
  status: ('A' for Active; 'I' for Inactive)
    1  A    between atoms: C_10  and  C_19
    2  A    between atoms: C_10  and  C_44
    3  A    between atoms: C_14  and  C_21
    4  A    between atoms: C_27  and  C_40
    5  A    between atoms: C_33  and  C_41
                            x       y       z     vdW  Elec       q    Type
                         _______ _______ _______ _____ _____    ______ ____

>  <TORSDO>
F 5

$$$$
