=
 OpenBabel11072408463D

 36 39  0  0  1  0  0  0  0  0999 V2000
  187.1110  177.5070  142.6230 C   0  0  0  0  0  0  0  0  0  0  0  0
  188.2650  175.3490  141.2670 C   0  0  0  0  0  0  0  0  0  0  0  0
  187.2550  176.1290  140.6860 C   0  0  0  0  0  3  0  0  0  0  0  0
  186.7050  177.1730  141.3690 N   0  0  0  0  0  0  0  0  0  0  0  0
  186.5220  178.6300  143.2760 N   0  0  0  0  0  1  0  0  0  0  0  0
  188.6870  175.6840  142.5600 C   0  0  0  0  0  3  0  0  0  0  0  0
  188.1240  176.7650  143.2500 C   0  0  0  0  0  0  0  0  0  0  0  0
  188.4670  173.9160  139.2070 C   0  0  0  0  0  0  0  0  0  0  0  0
  190.0100  170.8320  138.1580 C   0  0  0  0  0  0  0  0  0  0  0  0
  188.3060  172.4730  138.8300 C   0  0  0  0  0  2  0  0  0  0  0  0
  191.6960  172.0160  139.4500 C   0  0  0  0  0  0  0  0  0  0  0  0
  192.1420  173.1640  139.8980 C   0  0  0  0  0  0  0  0  0  0  0  0
  193.4030  173.5930  139.4990 O   0  0  0  0  0  1  0  0  0  0  0  0
  188.1980  174.8090  138.3620 O   0  0  0  0  0  0  0  0  0  0  0  0
  189.5140  169.7160  137.8430 O   0  0  0  0  0  0  0  0  0  0  0  0
  191.3280  174.0410  140.8150 C   0  0  0  0  0  2  0  0  0  0  0  0
  188.8970  174.2770  140.5320 N   0  0  0  0  0  0  0  0  0  0  0  0
  191.2220  170.8810  138.9900 C   0  0  0  0  0  3  0  0  0  0  0  0
  189.3040  172.0850  137.7530 C   0  0  0  0  0  2  0  0  0  0  0  0
  189.9440  173.4790  141.1650 C   0  0  0  0  0  2  0  0  0  0  0  0
  190.0720  177.3810  144.6720 C   0  0  0  0  0  0  0  0  0  0  0  0
  189.6240  175.5880  145.9240 C   0  0  0  0  0  0  0  0  0  0  0  0
  190.7640  178.4470  143.8880 C   0  0  0  0  0  1  0  0  0  0  0  0
  188.5950  177.1090  144.6410 C   0  0  2  0  0  3  0  0  0  0  0  0
  189.8310  174.5220  146.7350 F   0  0  0  0  0  0  0  0  0  0  0  0
  188.4510  175.9490  145.5220 N   0  0  0  0  0  0  0  0  0  0  0  0
  190.6630  176.4630  145.4130 C   0  0  0  0  0  0  0  0  0  0  0  0
  191.9520  177.0150  147.8280 O   0  0  0  0  0  1  0  0  0  0  0  0
  192.8150  175.6400  144.4930 C   0  0  0  0  0  2  0  0  0  0  0  0
  194.2110  176.2520  144.3850 C   0  0  0  0  0  2  0  0  0  0  0  0
  194.9530  176.2010  145.7250 C   0  0  1  0  0  3  0  0  0  0  0  0
  194.1150  176.8800  146.8180 C   0  0  0  0  0  2  0  0  0  0  0  0
  192.7070  176.2830  146.9030 C   0  0  2  0  0  3  0  0  0  0  0  0
  192.0780  176.2830  145.5780 N   0  0  0  0  0  0  0  0  0  0  0  0
  196.2760  174.2150  145.6010 C   0  0  0  0  0  2  0  0  0  0  0  0
  195.2600  174.8340  146.0990 N   0  0  0  0  0  0  0  0  0  0  0  0
  1  7  1  0  0  0  0
  1  5  1  0  0  0  0
  2  6  1  0  0  0  0
  3  2  2  0  0  0  0
  3  4  1  0  0  0  0
  4  1  2  0  0  0  0
  6  7  2  0  0  0  0
  8 17  1  0  0  0  0
  9 18  1  0  0  0  0
 10  8  1  0  0  0  0
 11 12  2  0  0  0  0
 12 16  1  0  0  0  0
 13 12  1  0  0  0  0
 14  8  2  0  0  0  0
 15  9  2  0  0  0  0
 16 20  1  0  0  0  0
 17 20  1  0  0  0  0
 17  2  1  0  0  0  0
 18 11  2  0  0  0  0
 19  9  1  0  0  0  0
 19 10  1  0  0  0  0
 21 27  2  0  0  0  0
 22 25  1  0  0  0  0
 23 21  1  0  0  0  0
 24  7  1  6  0  0  0
 24 21  1  0  0  0  0
 24 26  1  0  0  0  0
 26 22  2  0  0  0  0
 27 34  1  0  0  0  0
 27 22  1  0  0  0  0
 29 34  1  0  0  0  0
 30 29  1  0  0  0  0
 30 31  1  0  0  0  0
 31 36  1  1  0  0  0
 31 32  1  0  0  0  0
 32 33  1  0  0  0  0
 33 28  1  1  0  0  0
 34 33  1  0  0  0  0
 35 36  2  0  0  0  0
M  END
>  <MODEL>
1

>  <REMARK>
 VINA RESULT:      -7.9      0.000      0.000
  Name = 
  4 active torsions:
  status: ('A' for Active; 'I' for Inactive)
    1  A    between atoms: C_11  and  N_36
    2  A    between atoms: C_19  and  N_25
    3  A    between atoms: C_21  and  C_35
    4  A    between atoms: C_31  and  N_34
                            x       y       z     vdW  Elec       q    Type
                         _______ _______ _______ _____ _____    ______ ____

>  <TORSDO>
F 4

$$$$
=
 OpenBabel11072408463D

 36 39  0  0  1  0  0  0  0  0999 V2000
  192.7760  174.2360  145.6710 C   0  0  0  0  0  0  0  0  0  0  0  0
  190.2650  175.4610  145.5190 C   0  0  0  0  0  0  0  0  0  0  0  0
  191.1480  175.7200  146.5780 C   0  0  0  0  0  3  0  0  0  0  0  0
  192.3650  175.1070  146.6310 N   0  0  0  0  0  0  0  0  0  0  0  0
  194.0730  173.6500  145.7630 N   0  0  0  0  0  1  0  0  0  0  0  0
  190.6790  174.5630  144.5280 C   0  0  0  0  0  3  0  0  0  0  0  0
  191.9350  173.9460  144.5860 C   0  0  0  0  0  0  0  0  0  0  0  0
  188.5400  177.0400  146.4520 C   0  0  0  0  0  0  0  0  0  0  0  0
  185.0990  177.9660  145.9110 C   0  0  0  0  0  0  0  0  0  0  0  0
  187.1170  176.9890  146.9220 C   0  0  0  0  0  2  0  0  0  0  0  0
  186.1090  177.8290  143.7030 C   0  0  0  0  0  0  0  0  0  0  0  0
  187.2010  177.8790  142.9810 C   0  0  0  0  0  0  0  0  0  0  0  0
  187.3180  178.8700  142.0130 O   0  0  0  0  0  1  0  0  0  0  0  0
  189.3380  177.8530  146.9870 O   0  0  0  0  0  0  0  0  0  0  0  0
  184.0660  177.7840  146.6110 O   0  0  0  0  0  0  0  0  0  0  0  0
  188.3410  176.9110  143.1760 C   0  0  0  0  0  2  0  0  0  0  0  0
  188.9970  176.1480  145.4200 N   0  0  0  0  0  0  0  0  0  0  0  0
  185.0320  177.7790  144.4530 C   0  0  0  0  0  3  0  0  0  0  0  0
  186.3940  178.2820  146.5870 C   0  0  0  0  0  2  0  0  0  0  0  0
  188.1110  175.8810  144.2900 C   0  0  0  0  0  2  0  0  0  0  0  0
  191.9760  173.4790  142.1410 C   0  0  0  0  0  0  0  0  0  0  0  0
  190.8950  171.5730  142.5670 C   0  0  0  0  0  0  0  0  0  0  0  0
  192.4270  174.7680  141.5380 C   0  0  0  0  0  1  0  0  0  0  0  0
  192.3610  172.9830  143.5050 C   0  0  2  0  0  3  0  0  0  0  0  0
  190.0660  170.5160  142.3880 F   0  0  0  0  0  0  0  0  0  0  0  0
  191.6160  171.7290  143.6270 N   0  0  0  0  0  0  0  0  0  0  0  0
  191.0950  172.6490  141.6140 C   0  0  0  0  0  0  0  0  0  0  0  0
  188.5160  173.7170  141.5680 O   0  0  0  0  0  1  0  0  0  0  0  0
  191.0860  172.6130  139.1330 C   0  0  0  0  0  2  0  0  0  0  0  0
  190.1320  172.0210  138.0980 C   0  0  0  0  0  2  0  0  0  0  0  0
  188.8800  172.8870  137.9260 C   0  0  1  0  0  3  0  0  0  0  0  0
  188.1920  173.0940  139.2830 C   0  0  0  0  0  2  0  0  0  0  0  0
  189.1600  173.6610  140.3270 C   0  0  2  0  0  3  0  0  0  0  0  0
  190.3730  172.8390  140.3890 N   0  0  0  0  0  0  0  0  0  0  0  0
  189.3620  174.2860  136.0510 C   0  0  0  0  0  2  0  0  0  0  0  0
  189.2080  174.1650  137.3250 N   0  0  0  0  0  0  0  0  0  0  0  0
  1  5  1  0  0  0  0
  1  4  1  0  0  0  0
  2  3  1  0  0  0  0
  3  4  2  0  0  0  0
  6  7  1  0  0  0  0
  6  2  2  0  0  0  0
  7  1  2  0  0  0  0
  8 10  1  0  0  0  0
  8 14  2  0  0  0  0
  9 19  1  0  0  0  0
  9 15  2  0  0  0  0
 11 18  2  0  0  0  0
 12 16  1  0  0  0  0
 12 11  2  0  0  0  0
 13 12  1  0  0  0  0
 16 20  1  0  0  0  0
 17  2  1  0  0  0  0
 17  8  1  0  0  0  0
 18  9  1  0  0  0  0
 19 10  1  0  0  0  0
 20 17  1  0  0  0  0
 21 24  1  0  0  0  0
 22 26  2  0  0  0  0
 23 21  1  0  0  0  0
 24 26  1  0  0  0  0
 24  7  1  1  0  0  0
 25 22  1  0  0  0  0
 27 21  2  0  0  0  0
 27 22  1  0  0  0  0
 29 34  1  0  0  0  0
 30 29  1  0  0  0  0
 31 36  1  1  0  0  0
 31 30  1  0  0  0  0
 31 32  1  0  0  0  0
 32 33  1  0  0  0  0
 33 34  1  0  0  0  0
 33 28  1  1  0  0  0
 34 27  1  0  0  0  0
 35 36  2  0  0  0  0
M  END
>  <MODEL>
2

>  <REMARK>
 VINA RESULT:      -7.6      2.833      8.035
  Name = 
  4 active torsions:
  status: ('A' for Active; 'I' for Inactive)
    1  A    between atoms: C_11  and  N_36
    2  A    between atoms: C_19  and  N_25
    3  A    between atoms: C_21  and  C_35
    4  A    between atoms: C_31  and  N_34
                            x       y       z     vdW  Elec       q    Type
                         _______ _______ _______ _____ _____    ______ ____

>  <TORSDO>
F 4

$$$$
=
 OpenBabel11072408463D

 36 39  0  0  1  0  0  0  0  0999 V2000
  194.2300  174.5150  144.9350 C   0  0  0  0  0  0  0  0  0  0  0  0
  192.9430  173.0940  142.8980 C   0  0  0  0  0  0  0  0  0  0  0  0
  194.2680  172.8170  143.2640 C   0  0  0  0  0  3  0  0  0  0  0  0
  194.8750  173.5280  144.2580 N   0  0  0  0  0  0  0  0  0  0  0  0
  194.9060  175.2010  145.9870 N   0  0  0  0  0  1  0  0  0  0  0  0
  192.2730  174.1120  143.5870 C   0  0  0  0  0  3  0  0  0  0  0  0
  192.9010  174.8290  144.6140 C   0  0  0  0  0  0  0  0  0  0  0  0
  191.9910  170.9110  142.0780 C   0  0  0  0  0  0  0  0  0  0  0  0
  190.8480  169.4030  139.0100 C   0  0  0  0  0  0  0  0  0  0  0  0
  192.2380  169.9320  140.9700 C   0  0  0  0  0  2  0  0  0  0  0  0
  189.9020  171.6440  139.0460 C   0  0  0  0  0  0  0  0  0  0  0  0
  189.5260  172.6740  139.7630 C   0  0  0  0  0  0  0  0  0  0  0  0
  188.1890  173.0560  139.7340 O   0  0  0  0  0  1  0  0  0  0  0  0
  191.5640  170.4960  143.1860 O   0  0  0  0  0  0  0  0  0  0  0  0
  191.3300  168.4730  138.3080 O   0  0  0  0  0  0  0  0  0  0  0  0
  190.4880  173.4470  140.6290 C   0  0  0  0  0  2  0  0  0  0  0  0
  192.2690  172.3100  141.8870 N   0  0  0  0  0  0  0  0  0  0  0  0
  190.2920  170.5970  138.3550 C   0  0  0  0  0  3  0  0  0  0  0  0
  190.9330  169.3130  140.5000 C   0  0  0  0  0  2  0  0  0  0  0  0
  191.9280  172.9180  140.6030 C   0  0  0  0  0  2  0  0  0  0  0  0
  190.6750  175.6920  145.3160 C   0  0  0  0  0  0  0  0  0  0  0  0
  191.1540  177.5840  144.2310 C   0  0  0  0  0  0  0  0  0  0  0  0
  189.9800  174.4890  145.8640 C   0  0  0  0  0  1  0  0  0  0  0  0
  192.1590  175.9200  145.3450 C   0  0  2  0  0  3  0  0  0  0  0  0
  190.9670  178.7200  143.5180 F   0  0  0  0  0  0  0  0  0  0  0  0
  192.3150  177.1930  144.6410 N   0  0  0  0  0  0  0  0  0  0  0  0
  190.1030  176.6690  144.6370 C   0  0  0  0  0  0  0  0  0  0  0  0
  188.1300  177.5430  146.4100 O   0  0  0  0  0  1  0  0  0  0  0  0
  188.3820  176.5150  142.8560 C   0  0  0  0  0  2  0  0  0  0  0  0
  187.0320  175.8060  142.7620 C   0  0  0  0  0  2  0  0  0  0  0  0
  185.9420  176.5690  143.5200 C   0  0  1  0  0  3  0  0  0  0  0  0
  186.3700  176.7900  144.9790 C   0  0  0  0  0  2  0  0  0  0  0  0
  187.7380  177.4750  145.0680 C   0  0  2  0  0  3  0  0  0  0  0  0
  188.7210  176.7470  144.2580 N   0  0  0  0  0  0  0  0  0  0  0  0
  184.4440  178.2760  142.7790 C   0  0  0  0  0  2  0  0  0  0  0  0
  185.6520  177.8380  142.8810 N   0  0  0  0  0  0  0  0  0  0  0  0
  1  5  1  0  0  0  0
  2  3  2  0  0  0  0
  2  6  1  0  0  0  0
  3  4  1  0  0  0  0
  4  1  2  0  0  0  0
  6  7  2  0  0  0  0
  7  1  1  0  0  0  0
  8 14  2  0  0  0  0
  9 19  1  0  0  0  0
 10  8  1  0  0  0  0
 11 12  2  0  0  0  0
 12 16  1  0  0  0  0
 13 12  1  0  0  0  0
 15  9  2  0  0  0  0
 17  8  1  0  0  0  0
 17  2  1  0  0  0  0
 18  9  1  0  0  0  0
 18 11  2  0  0  0  0
 19 10  1  0  0  0  0
 20 16  1  0  0  0  0
 20 17  1  0  0  0  0
 21 24  1  0  0  0  0
 21 23  1  0  0  0  0
 22 27  1  0  0  0  0
 22 26  2  0  0  0  0
 24  7  1  6  0  0  0
 25 22  1  0  0  0  0
 26 24  1  0  0  0  0
 27 21  2  0  0  0  0
 29 34  1  0  0  0  0
 30 29  1  0  0  0  0
 30 31  1  0  0  0  0
 31 36  1  6  0  0  0
 31 32  1  0  0  0  0
 32 33  1  0  0  0  0
 33 28  1  1  0  0  0
 34 27  1  0  0  0  0
 34 33  1  0  0  0  0
 35 36  2  0  0  0  0
M  END
>  <MODEL>
3

>  <REMARK>
 VINA RESULT:      -7.6      2.288      5.869
  Name = 
  4 active torsions:
  status: ('A' for Active; 'I' for Inactive)
    1  A    between atoms: C_11  and  N_36
    2  A    between atoms: C_19  and  N_25
    3  A    between atoms: C_21  and  C_35
    4  A    between atoms: C_31  and  N_34
                            x       y       z     vdW  Elec       q    Type
                         _______ _______ _______ _____ _____    ______ ____

>  <TORSDO>
F 4

$$$$
=
 OpenBabel11072408463D

 36 39  0  0  1  0  0  0  0  0999 V2000
  191.0920  176.7790  147.6120 C   0  0  0  0  0  0  0  0  0  0  0  0
  189.4160  176.9340  145.3780 C   0  0  0  0  0  0  0  0  0  0  0  0
  189.1360  177.6380  146.5570 C   0  0  0  0  0  3  0  0  0  0  0  0
  189.9670  177.5430  147.6350 N   0  0  0  0  0  0  0  0  0  0  0  0
  191.9410  176.7440  148.7580 N   0  0  0  0  0  1  0  0  0  0  0  0
  190.5700  176.1420  145.3470 C   0  0  0  0  0  3  0  0  0  0  0  0
  191.4240  176.0590  146.4540 C   0  0  0  0  0  0  0  0  0  0  0  0
  188.4410  176.0120  143.2470 C   0  0  0  0  0  0  0  0  0  0  0  0
  186.7060  177.1660  140.3060 C   0  0  0  0  0  0  0  0  0  0  0  0
  188.4820  176.3130  141.7780 C   0  0  0  0  0  2  0  0  0  0  0  0
  185.6520  178.2900  142.1870 C   0  0  0  0  0  0  0  0  0  0  0  0
  185.3890  178.2880  143.4710 C   0  0  0  0  0  0  0  0  0  0  0  0
  184.0620  178.2400  143.8820 O   0  0  0  0  0  1  0  0  0  0  0  0
  188.3150  174.8200  143.6300 O   0  0  0  0  0  0  0  0  0  0  0  0
  187.0670  177.2430  139.1000 O   0  0  0  0  0  0  0  0  0  0  0  0
  186.4760  178.3180  144.5160 C   0  0  0  0  0  2  0  0  0  0  0  0
  188.5750  177.0720  144.2100 N   0  0  0  0  0  0  0  0  0  0  0  0
  185.9340  178.2660  140.9050 C   0  0  0  0  0  3  0  0  0  0  0  0
  187.1460  175.9980  141.1280 C   0  0  0  0  0  2  0  0  0  0  0  0
  187.9010  178.3410  143.9450 C   0  0  0  0  0  2  0  0  0  0  0  0
  193.7410  175.8440  145.5730 C   0  0  0  0  0  0  0  0  0  0  0  0
  193.1120  173.9320  144.6070 C   0  0  0  0  0  0  0  0  0  0  0  0
  194.3550  177.1760  145.8520 C   0  0  0  0  0  1  0  0  0  0  0  0
  192.6630  175.2010  146.3980 C   0  0  2  0  0  3  0  0  0  0  0  0
  193.0640  172.9210  143.7070 F   0  0  0  0  0  0  0  0  0  0  0  0
  192.3840  173.9610  145.6730 N   0  0  0  0  0  0  0  0  0  0  0  0
  193.9760  175.0950  144.5120 C   0  0  0  0  0  0  0  0  0  0  0  0
  196.7570  174.9150  144.6830 O   0  0  0  0  0  1  0  0  0  0  0  0
  194.1980  175.7080  142.1180 C   0  0  0  0  0  2  0  0  0  0  0  0
  194.9880  176.7890  141.3830 C   0  0  0  0  0  2  0  0  0  0  0  0
  196.4680  176.4160  141.2550 C   0  0  1  0  0  3  0  0  0  0  0  0
  197.0590  176.1220  142.6420 C   0  0  0  0  0  2  0  0  0  0  0  0
  196.2480  175.0570  143.3870 C   0  0  2  0  0  3  0  0  0  0  0  0
  194.8280  175.4270  143.4060 N   0  0  0  0  0  0  0  0  0  0  0  0
  197.3110  175.3750  139.2770 C   0  0  0  0  0  2  0  0  0  0  0  0
  196.6450  175.2770  140.3770 N   0  0  0  0  0  0  0  0  0  0  0  0
  1  4  1  0  0  0  0
  1  5  1  0  0  0  0
  2  3  1  0  0  0  0
  3  4  2  0  0  0  0
  6  2  2  0  0  0  0
  6  7  1  0  0  0  0
  7  1  2  0  0  0  0
  8 14  2  0  0  0  0
  8 17  1  0  0  0  0
  9 18  1  0  0  0  0
  9 19  1  0  0  0  0
 10  8  1  0  0  0  0
 11 12  2  0  0  0  0
 12 13  1  0  0  0  0
 12 16  1  0  0  0  0
 15  9  2  0  0  0  0
 17  2  1  0  0  0  0
 18 11  2  0  0  0  0
 19 10  1  0  0  0  0
 20 17  1  0  0  0  0
 20 16  1  0  0  0  0
 21 23  1  0  0  0  0
 21 24  1  0  0  0  0
 22 26  2  0  0  0  0
 24  7  1  6  0  0  0
 25 22  1  0  0  0  0
 26 24  1  0  0  0  0
 27 22  1  0  0  0  0
 27 21  2  0  0  0  0
 29 34  1  0  0  0  0
 30 29  1  0  0  0  0
 31 36  1  6  0  0  0
 31 30  1  0  0  0  0
 31 32  1  0  0  0  0
 32 33  1  0  0  0  0
 33 34  1  0  0  0  0
 33 28  1  1  0  0  0
 34 27  1  0  0  0  0
 35 36  2  0  0  0  0
M  END
>  <MODEL>
4

>  <REMARK>
 VINA RESULT:      -7.4      3.588      6.049
  Name = 
  4 active torsions:
  status: ('A' for Active; 'I' for Inactive)
    1  A    between atoms: C_11  and  N_36
    2  A    between atoms: C_19  and  N_25
    3  A    between atoms: C_21  and  C_35
    4  A    between atoms: C_31  and  N_34
                            x       y       z     vdW  Elec       q    Type
                         _______ _______ _______ _____ _____    ______ ____

>  <TORSDO>
F 4

$$$$
=
 OpenBabel11072408463D

 36 39  0  0  1  0  0  0  0  0999 V2000
  193.0470  175.6760  144.0540 C   0  0  0  0  0  0  0  0  0  0  0  0
  190.3440  176.3770  144.2260 C   0  0  0  0  0  0  0  0  0  0  0  0
  191.3560  177.2290  144.6900 C   0  0  0  0  0  3  0  0  0  0  0  0
  192.6670  176.8620  144.5980 N   0  0  0  0  0  0  0  0  0  0  0  0
  194.4350  175.3620  143.9540 N   0  0  0  0  0  1  0  0  0  0  0  0
  190.7260  175.1510  143.6660 C   0  0  0  0  0  3  0  0  0  0  0  0
  192.0760  174.7880  143.5660 C   0  0  0  0  0  0  0  0  0  0  0  0
  187.9860  176.2260  143.3560 C   0  0  0  0  0  0  0  0  0  0  0  0
  184.8740  178.0350  143.5520 C   0  0  0  0  0  0  0  0  0  0  0  0
  186.9840  177.1170  142.6830 C   0  0  0  0  0  2  0  0  0  0  0  0
  185.7470  177.9580  145.8210 C   0  0  0  0  0  0  0  0  0  0  0  0
  186.5160  177.3490  146.6900 C   0  0  0  0  0  0  0  0  0  0  0  0
  185.9350  176.8020  147.8290 O   0  0  0  0  0  1  0  0  0  0  0  0
  187.9880  174.9940  143.0980 O   0  0  0  0  0  0  0  0  0  0  0  0
  184.2400  178.7000  142.6890 O   0  0  0  0  0  0  0  0  0  0  0  0
  188.0030  177.2080  146.4900 C   0  0  0  0  0  2  0  0  0  0  0  0
  188.9560  176.7780  144.2640 N   0  0  0  0  0  0  0  0  0  0  0  0
  184.9880  178.5480  144.9270 C   0  0  0  0  0  3  0  0  0  0  0  0
  185.5750  176.7810  143.1390 C   0  0  0  0  0  2  0  0  0  0  0  0
  188.5270  177.8270  145.1860 C   0  0  0  0  0  2  0  0  0  0  0  0
  192.3350  173.4850  141.4620 C   0  0  0  0  0  0  0  0  0  0  0  0
  190.9110  171.9880  142.3060 C   0  0  0  0  0  0  0  0  0  0  0  0
  193.0630  174.4180  140.5510 C   0  0  0  0  0  1  0  0  0  0  0  0
  192.4650  173.4640  142.9580 C   0  0  2  0  0  3  0  0  0  0  0  0
  189.9470  171.0370  142.3500 F   0  0  0  0  0  0  0  0  0  0  0  0
  191.5140  172.4270  143.3610 N   0  0  0  0  0  0  0  0  0  0  0  0
  191.4000  172.6270  141.0990 C   0  0  0  0  0  0  0  0  0  0  0  0
  189.2420  174.1270  140.1540 O   0  0  0  0  0  1  0  0  0  0  0  0
  191.6030  171.5750  138.8610 C   0  0  0  0  0  2  0  0  0  0  0  0
  190.6160  170.8380  137.9570 C   0  0  0  0  0  2  0  0  0  0  0  0
  189.6800  171.8110  137.2330 C   0  0  1  0  0  3  0  0  0  0  0  0
  188.9600  172.7070  138.2520 C   0  0  0  0  0  2  0  0  0  0  0  0
  189.9520  173.4220  139.1750 C   0  0  2  0  0  3  0  0  0  0  0  0
  190.8730  172.4510  139.7750 N   0  0  0  0  0  0  0  0  0  0  0  0
  189.8190  173.5370  135.5860 C   0  0  0  0  0  2  0  0  0  0  0  0
  190.4080  172.6200  136.2740 N   0  0  0  0  0  0  0  0  0  0  0  0
  1  4  1  0  0  0  0
  2 17  1  0  0  0  0
  2  3  1  0  0  0  0
  4  3  2  0  0  0  0
  5  1  1  0  0  0  0
  6  2  2  0  0  0  0
  7  6  1  0  0  0  0
  7  1  2  0  0  0  0
  8 17  1  0  0  0  0
  9 18  1  0  0  0  0
 10 19  1  0  0  0  0
 10  8  1  0  0  0  0
 11 12  2  0  0  0  0
 12 13  1  0  0  0  0
 14  8  2  0  0  0  0
 15  9  2  0  0  0  0
 16 12  1  0  0  0  0
 17 20  1  0  0  0  0
 18 11  2  0  0  0  0
 19  9  1  0  0  0  0
 20 16  1  0  0  0  0
 21 24  1  0  0  0  0
 22 25  1  0  0  0  0
 22 26  2  0  0  0  0
 23 21  1  0  0  0  0
 24 26  1  0  0  0  0
 24  7  1  1  0  0  0
 27 21  2  0  0  0  0
 27 22  1  0  0  0  0
 29 34  1  0  0  0  0
 30 29  1  0  0  0  0
 31 36  1  6  0  0  0
 31 30  1  0  0  0  0
 31 32  1  0  0  0  0
 32 33  1  0  0  0  0
 33 34  1  0  0  0  0
 33 28  1  1  0  0  0
 34 27  1  0  0  0  0
 35 36  2  0  0  0  0
M  END
>  <MODEL>
5

>  <REMARK>
 VINA RESULT:      -7.2      2.821      7.920
  Name = 
  4 active torsions:
  status: ('A' for Active; 'I' for Inactive)
    1  A    between atoms: C_11  and  N_36
    2  A    between atoms: C_19  and  N_25
    3  A    between atoms: C_21  and  C_35
    4  A    between atoms: C_31  and  N_34
                            x       y       z     vdW  Elec       q    Type
                         _______ _______ _______ _____ _____    ______ ____

>  <TORSDO>
F 4

$$$$
=
 OpenBabel11072408463D

 36 39  0  0  1  0  0  0  0  0999 V2000
  186.3290  177.8990  144.8830 C   0  0  0  0  0  0  0  0  0  0  0  0
  187.0500  176.6300  142.4970 C   0  0  0  0  0  0  0  0  0  0  0  0
  185.7750  177.1820  142.6800 C   0  0  0  0  0  3  0  0  0  0  0  0
  185.4460  177.7920  143.8550 N   0  0  0  0  0  0  0  0  0  0  0  0
  185.9390  178.5780  146.0760 N   0  0  0  0  0  1  0  0  0  0  0  0
  187.9650  176.7320  143.5520 C   0  0  0  0  0  3  0  0  0  0  0  0
  187.6220  177.3710  144.7510 C   0  0  0  0  0  0  0  0  0  0  0  0
  187.7680  174.6380  141.1350 C   0  0  0  0  0  0  0  0  0  0  0  0
  189.1810  173.8970  137.9020 C   0  0  0  0  0  0  0  0  0  0  0  0
  188.9580  174.2030  140.3320 C   0  0  0  0  0  2  0  0  0  0  0  0
  187.4510  175.5600  137.5090 C   0  0  0  0  0  0  0  0  0  0  0  0
  186.3410  176.1210  137.9240 C   0  0  0  0  0  0  0  0  0  0  0  0
  185.2060  176.0260  137.1270 O   0  0  0  0  0  1  0  0  0  0  0  0
  187.0810  173.7730  141.7390 O   0  0  0  0  0  0  0  0  0  0  0  0
  190.3140  173.4560  137.5680 O   0  0  0  0  0  0  0  0  0  0  0  0
  186.2510  176.8510  139.2400 C   0  0  0  0  0  2  0  0  0  0  0  0
  187.4300  176.0320  141.2370 N   0  0  0  0  0  0  0  0  0  0  0  0
  188.5640  174.9810  137.1220 C   0  0  0  0  0  3  0  0  0  0  0  0
  188.5260  173.3700  139.1380 C   0  0  0  0  0  2  0  0  0  0  0  0
  187.5570  176.8680  140.0450 C   0  0  0  0  0  2  0  0  0  0  0  0
  190.0260  177.2560  145.3830 C   0  0  0  0  0  0  0  0  0  0  0  0
  189.4900  175.6350  146.8220 C   0  0  0  0  0  0  0  0  0  0  0  0
  190.7090  178.0850  144.3450 C   0  0  0  0  0  1  0  0  0  0  0  0
  188.6240  177.4720  145.8740 C   0  0  2  0  0  3  0  0  0  0  0  0
  189.6110  174.5180  147.5780 F   0  0  0  0  0  0  0  0  0  0  0  0
  188.4300  176.3730  146.8220 N   0  0  0  0  0  0  0  0  0  0  0  0
  190.5110  176.1590  145.9330 C   0  0  0  0  0  0  0  0  0  0  0  0
  192.8620  176.7580  147.3170 O   0  0  0  0  0  1  0  0  0  0  0  0
  191.7480  174.4290  144.6540 C   0  0  0  0  0  2  0  0  0  0  0  0
  193.0290  174.4580  143.8220 C   0  0  0  0  0  2  0  0  0  0  0  0
  194.2770  174.4580  144.7100 C   0  0  1  0  0  3  0  0  0  0  0  0
  194.2170  175.6270  145.7050 C   0  0  0  0  0  2  0  0  0  0  0  0
  192.9170  175.6110  146.5170 C   0  0  2  0  0  3  0  0  0  0  0  0
  191.7610  175.5280  145.6170 N   0  0  0  0  0  0  0  0  0  0  0  0
  195.5340  172.5600  145.4360 C   0  0  0  0  0  2  0  0  0  0  0  0
  194.4140  173.1990  145.4170 N   0  0  0  0  0  0  0  0  0  0  0  0
  1  5  1  0  0  0  0
  2  3  2  0  0  0  0
  2  6  1  0  0  0  0
  3  4  1  0  0  0  0
  4  1  2  0  0  0  0
  6  7  2  0  0  0  0
  7  1  1  0  0  0  0
  8 17  1  0  0  0  0
  8 14  2  0  0  0  0
  9 19  1  0  0  0  0
 10  8  1  0  0  0  0
 11 12  2  0  0  0  0
 12 16  1  0  0  0  0
 13 12  1  0  0  0  0
 15  9  2  0  0  0  0
 16 20  1  0  0  0  0
 17  2  1  0  0  0  0
 18 11  2  0  0  0  0
 18  9  1  0  0  0  0
 19 10  1  0  0  0  0
 20 17  1  0  0  0  0
 21 24  1  0  0  0  0
 21 27  2  0  0  0  0
 22 25  1  0  0  0  0
 23 21  1  0  0  0  0
 24  7  1  6  0  0  0
 24 26  1  0  0  0  0
 26 22  2  0  0  0  0
 27 22  1  0  0  0  0
 29 34  1  0  0  0  0
 30 29  1  0  0  0  0
 30 31  1  0  0  0  0
 31 36  1  1  0  0  0
 31 32  1  0  0  0  0
 32 33  1  0  0  0  0
 33 28  1  6  0  0  0
 34 27  1  0  0  0  0
 34 33  1  0  0  0  0
 36 35  2  0  0  0  0
M  END
>  <MODEL>
6

>  <REMARK>
 VINA RESULT:      -7.2      1.917      3.209
  Name = 
  4 active torsions:
  status: ('A' for Active; 'I' for Inactive)
    1  A    between atoms: C_11  and  N_36
    2  A    between atoms: C_19  and  N_25
    3  A    between atoms: C_21  and  C_35
    4  A    between atoms: C_31  and  N_34
                            x       y       z     vdW  Elec       q    Type
                         _______ _______ _______ _____ _____    ______ ____

>  <TORSDO>
F 4

$$$$
=
 OpenBabel11072408463D

 36 39  0  0  1  0  0  0  0  0999 V2000
  193.7520  174.1280  144.8040 C   0  0  0  0  0  0  0  0  0  0  0  0
  192.5860  173.2350  142.4230 C   0  0  0  0  0  0  0  0  0  0  0  0
  193.7770  172.6800  142.9120 C   0  0  0  0  0  3  0  0  0  0  0  0
  194.3280  173.1370  144.0740 N   0  0  0  0  0  0  0  0  0  0  0  0
  194.3560  174.5410  146.0280 N   0  0  0  0  0  1  0  0  0  0  0  0
  191.9870  174.2590  143.1670 C   0  0  0  0  0  3  0  0  0  0  0  0
  192.5540  174.7140  144.3650 C   0  0  0  0  0  0  0  0  0  0  0  0
  192.1330  173.3650  139.9490 C   0  0  0  0  0  0  0  0  0  0  0  0
  189.8810  171.9740  137.5020 C   0  0  0  0  0  0  0  0  0  0  0  0
  190.9590  173.5650  139.0380 C   0  0  0  0  0  2  0  0  0  0  0  0
  190.5780  170.1120  138.9020 C   0  0  0  0  0  0  0  0  0  0  0  0
  191.4790  169.6150  139.7120 C   0  0  0  0  0  0  0  0  0  0  0  0
  192.1390  168.4470  139.3440 O   0  0  0  0  0  1  0  0  0  0  0  0
  193.2660  173.7880  139.6000 O   0  0  0  0  0  0  0  0  0  0  0  0
  188.9500  172.4990  136.8320 O   0  0  0  0  0  0  0  0  0  0  0  0
  191.8380  170.2740  141.0200 C   0  0  0  0  0  2  0  0  0  0  0  0
  191.9610  172.7210  141.2240 N   0  0  0  0  0  0  0  0  0  0  0  0
  189.6910  170.6390  138.0890 C   0  0  0  0  0  3  0  0  0  0  0  0
  191.1260  172.7590  137.7610 C   0  0  0  0  0  2  0  0  0  0  0  0
  191.0660  171.5690  141.3070 C   0  0  0  0  0  2  0  0  0  0  0  0
  190.3970  175.6630  145.1640 C   0  0  0  0  0  0  0  0  0  0  0  0
  190.9360  177.5610  144.1190 C   0  0  0  0  0  0  0  0  0  0  0  0
  189.6610  174.4790  145.6990 C   0  0  0  0  0  1  0  0  0  0  0  0
  191.8910  175.8160  145.1510 C   0  0  2  0  0  3  0  0  0  0  0  0
  190.7840  178.7270  143.4470 F   0  0  0  0  0  0  0  0  0  0  0  0
  192.0890  177.1020  144.4800 N   0  0  0  0  0  0  0  0  0  0  0  0
  189.8540  176.6870  144.5330 C   0  0  0  0  0  0  0  0  0  0  0  0
  187.9760  177.5550  146.4080 O   0  0  0  0  0  1  0  0  0  0  0  0
  188.0770  176.6990  142.8010 C   0  0  0  0  0  2  0  0  0  0  0  0
  186.6950  176.0550  142.7150 C   0  0  0  0  0  2  0  0  0  0  0  0
  185.6620  176.8250  143.5440 C   0  0  1  0  0  3  0  0  0  0  0  0
  186.1420  176.9520  144.9970 C   0  0  0  0  0  2  0  0  0  0  0  0
  187.5410  177.5720  145.0780 C   0  0  2  0  0  3  0  0  0  0  0  0
  188.4660  176.8450  144.2020 N   0  0  0  0  0  0  0  0  0  0  0  0
  184.7510  178.2760  141.8790 C   0  0  0  0  0  2  0  0  0  0  0  0
  185.4110  178.1360  142.9780 N   0  0  0  0  0  0  0  0  0  0  0  0
  1  5  1  0  0  0  0
  2  3  2  0  0  0  0
  2  6  1  0  0  0  0
  3  4  1  0  0  0  0
  4  1  2  0  0  0  0
  6  7  2  0  0  0  0
  7  1  1  0  0  0  0
  8 17  1  0  0  0  0
  9 19  1  0  0  0  0
  9 18  1  0  0  0  0
 10  8  1  0  0  0  0
 11 12  2  0  0  0  0
 12 16  1  0  0  0  0
 13 12  1  0  0  0  0
 14  8  2  0  0  0  0
 15  9  2  0  0  0  0
 16 20  1  0  0  0  0
 17 20  1  0  0  0  0
 17  2  1  0  0  0  0
 18 11  2  0  0  0  0
 19 10  1  0  0  0  0
 21 23  1  0  0  0  0
 22 26  2  0  0  0  0
 22 27  1  0  0  0  0
 24  7  1  6  0  0  0
 24 21  1  0  0  0  0
 25 22  1  0  0  0  0
 26 24  1  0  0  0  0
 27 21  2  0  0  0  0
 29 34  1  0  0  0  0
 30 29  1  0  0  0  0
 30 31  1  0  0  0  0
 31 36  1  6  0  0  0
 31 32  1  0  0  0  0
 32 33  1  0  0  0  0
 33 28  1  1  0  0  0
 34 27  1  0  0  0  0
 34 33  1  0  0  0  0
 35 36  2  0  0  0  0
M  END
>  <MODEL>
7

>  <REMARK>
 VINA RESULT:      -7.2      2.127      5.721
  Name = 
  4 active torsions:
  status: ('A' for Active; 'I' for Inactive)
    1  A    between atoms: C_11  and  N_36
    2  A    between atoms: C_19  and  N_25
    3  A    between atoms: C_21  and  C_35
    4  A    between atoms: C_31  and  N_34
                            x       y       z     vdW  Elec       q    Type
                         _______ _______ _______ _____ _____    ______ ____

>  <TORSDO>
F 4

$$$$
=
 OpenBabel11072408463D

 36 39  0  0  1  0  0  0  0  0999 V2000
  193.3940  173.4390  144.3510 C   0  0  0  0  0  0  0  0  0  0  0  0
  192.4970  173.4180  141.7010 C   0  0  0  0  0  0  0  0  0  0  0  0
  193.4250  172.4780  142.1710 C   0  0  0  0  0  3  0  0  0  0  0  0
  193.8500  172.5120  143.4670 N   0  0  0  0  0  0  0  0  0  0  0  0
  193.8490  173.4050  145.7020 N   0  0  0  0  0  1  0  0  0  0  0  0
  192.0240  174.3780  142.6030 C   0  0  0  0  0  3  0  0  0  0  0  0
  192.4570  174.3990  143.9350 C   0  0  0  0  0  0  0  0  0  0  0  0
  190.5850  173.3860  140.0630 C   0  0  0  0  0  0  0  0  0  0  0  0
  189.9610  172.6130  136.5970 C   0  0  0  0  0  0  0  0  0  0  0  0
  189.9960  172.4480  139.0510 C   0  0  0  0  0  2  0  0  0  0  0  0
  192.0120  173.9190  136.6320 C   0  0  0  0  0  0  0  0  0  0  0  0
  192.7540  174.7970  137.2610 C   0  0  0  0  0  0  0  0  0  0  0  0
  193.0240  176.0120  136.6410 O   0  0  0  0  0  1  0  0  0  0  0  0
  189.8300  174.1810  140.6800 O   0  0  0  0  0  0  0  0  0  0  0  0
  189.3190  171.6730  136.0550 O   0  0  0  0  0  0  0  0  0  0  0  0
  193.3100  174.5410  138.6390 C   0  0  0  0  0  2  0  0  0  0  0  0
  191.9950  173.3560  140.3460 N   0  0  0  0  0  0  0  0  0  0  0  0
  191.2490  173.0390  136.0260 C   0  0  0  0  0  3  0  0  0  0  0  0
  189.4440  173.2160  137.8630 C   0  0  0  0  0  2  0  0  0  0  0  0
  192.9250  173.1790  139.2330 C   0  0  0  0  0  2  0  0  0  0  0  0
  190.4400  175.3590  145.0300 C   0  0  0  0  0  0  0  0  0  0  0  0
  190.9920  177.3310  144.1400 C   0  0  0  0  0  0  0  0  0  0  0  0
  189.6870  174.1610  145.5090 C   0  0  0  0  0  1  0  0  0  0  0  0
  191.9330  175.4410  144.8910 C   0  0  2  0  0  3  0  0  0  0  0  0
  190.8480  178.5680  143.6090 F   0  0  0  0  0  0  0  0  0  0  0  0
  192.1440  176.7800  144.3390 N   0  0  0  0  0  0  0  0  0  0  0  0
  189.9020  176.4700  144.5630 C   0  0  0  0  0  0  0  0  0  0  0  0
  188.3240  177.5400  146.6030 O   0  0  0  0  0  1  0  0  0  0  0  0
  187.9450  176.5750  143.0420 C   0  0  0  0  0  2  0  0  0  0  0  0
  186.5160  176.0420  143.1360 C   0  0  0  0  0  2  0  0  0  0  0  0
  185.6480  176.9170  144.0460 C   0  0  1  0  0  3  0  0  0  0  0  0
  186.3000  177.0470  145.4310 C   0  0  0  0  0  2  0  0  0  0  0  0
  187.7420  177.5540  145.3300 C   0  0  2  0  0  3  0  0  0  0  0  0
  188.5020  176.7290  144.3840 N   0  0  0  0  0  0  0  0  0  0  0  0
  184.7120  178.3800  142.4060 C   0  0  0  0  0  2  0  0  0  0  0  0
  185.4340  178.2270  143.4630 N   0  0  0  0  0  0  0  0  0  0  0  0
  1  5  1  0  0  0  0
  2  3  2  0  0  0  0
  2  6  1  0  0  0  0
  3  4  1  0  0  0  0
  4  1  2  0  0  0  0
  6  7  2  0  0  0  0
  7  1  1  0  0  0  0
  8 17  1  0  0  0  0
  8 14  2  0  0  0  0
  9 19  1  0  0  0  0
 10  8  1  0  0  0  0
 11 12  2  0  0  0  0
 12 16  1  0  0  0  0
 13 12  1  0  0  0  0
 15  9  2  0  0  0  0
 16 20  1  0  0  0  0
 17  2  1  0  0  0  0
 18  9  1  0  0  0  0
 18 11  2  0  0  0  0
 19 10  1  0  0  0  0
 20 17  1  0  0  0  0
 21 23  1  0  0  0  0
 22 26  2  0  0  0  0
 22 27  1  0  0  0  0
 24  7  1  6  0  0  0
 24 21  1  0  0  0  0
 25 22  1  0  0  0  0
 26 24  1  0  0  0  0
 27 21  2  0  0  0  0
 29 30  1  0  0  0  0
 29 34  1  0  0  0  0
 30 31  1  0  0  0  0
 31 36  1  6  0  0  0
 31 32  1  0  0  0  0
 33 32  1  0  0  0  0
 33 28  1  1  0  0  0
 34 27  1  0  0  0  0
 34 33  1  0  0  0  0
 35 36  2  0  0  0  0
M  END
>  <MODEL>
8

>  <REMARK>
 VINA RESULT:      -7.2      2.336      5.568
  Name = 
  4 active torsions:
  status: ('A' for Active; 'I' for Inactive)
    1  A    between atoms: C_11  and  N_36
    2  A    between atoms: C_19  and  N_25
    3  A    between atoms: C_21  and  C_35
    4  A    between atoms: C_31  and  N_34
                            x       y       z     vdW  Elec       q    Type
                         _______ _______ _______ _____ _____    ______ ____

>  <TORSDO>
F 4

$$$$
=
 OpenBabel11072408463D

 36 39  0  0  1  0  0  0  0  0999 V2000
  191.1820  176.8300  147.6960 C   0  0  0  0  0  0  0  0  0  0  0  0
  189.9010  176.6070  145.2190 C   0  0  0  0  0  0  0  0  0  0  0  0
  189.3150  177.2950  146.2910 C   0  0  0  0  0  3  0  0  0  0  0  0
  189.9590  177.3860  147.4910 N   0  0  0  0  0  0  0  0  0  0  0  0
  191.8220  176.9870  148.9620 N   0  0  0  0  0  1  0  0  0  0  0  0
  191.1590  176.0280  145.4230 C   0  0  0  0  0  3  0  0  0  0  0  0
  191.8180  176.1360  146.6550 C   0  0  0  0  0  0  0  0  0  0  0  0
  189.1220  177.7240  143.1020 C   0  0  0  0  0  0  0  0  0  0  0  0
  186.9340  177.0770  140.3110 C   0  0  0  0  0  0  0  0  0  0  0  0
  187.8260  178.0130  142.4030 C   0  0  0  0  0  2  0  0  0  0  0  0
  188.1900  175.0250  140.6640 C   0  0  0  0  0  0  0  0  0  0  0  0
  189.2730  174.4580  141.1370 C   0  0  0  0  0  0  0  0  0  0  0  0
  190.1170  173.7910  140.2560 O   0  0  0  0  0  1  0  0  0  0  0  0
  190.0820  178.5280  142.9800 O   0  0  0  0  0  0  0  0  0  0  0  0
  185.8340  177.5950  139.9750 O   0  0  0  0  0  0  0  0  0  0  0  0
  189.6420  174.5200  142.5970 C   0  0  0  0  0  2  0  0  0  0  0  0
  189.2560  176.5530  143.9260 N   0  0  0  0  0  0  0  0  0  0  0  0
  187.1140  175.6210  140.2030 C   0  0  0  0  0  3  0  0  0  0  0  0
  188.0020  177.9430  140.8960 C   0  0  0  0  0  2  0  0  0  0  0  0
  188.6510  175.3050  143.4670 C   0  0  0  0  0  2  0  0  0  0  0  0
  194.1960  176.0980  145.9230 C   0  0  0  0  0  0  0  0  0  0  0  0
  193.9340  173.9320  145.4500 C   0  0  0  0  0  0  0  0  0  0  0  0
  194.5800  177.5410  145.8760 C   0  0  0  0  0  1  0  0  0  0  0  0
  193.1750  175.5070  146.8510 C   0  0  2  0  0  3  0  0  0  0  0  0
  194.1020  172.7390  144.8320 F   0  0  0  0  0  0  0  0  0  0  0  0
  193.1380  174.0990  146.4540 N   0  0  0  0  0  0  0  0  0  0  0  0
  194.6150  175.1630  145.0920 C   0  0  0  0  0  0  0  0  0  0  0  0
  197.3220  174.4810  145.1740 O   0  0  0  0  0  1  0  0  0  0  0  0
  194.8750  175.7600  142.6980 C   0  0  0  0  0  2  0  0  0  0  0  0
  195.8250  176.6920  141.9480 C   0  0  0  0  0  2  0  0  0  0  0  0
  197.2090  176.0600  141.7700 C   0  0  1  0  0  3  0  0  0  0  0  0
  197.7780  175.6430  143.1350 C   0  0  0  0  0  2  0  0  0  0  0  0
  196.8090  174.7320  143.8960 C   0  0  2  0  0  3  0  0  0  0  0  0
  195.4810  175.3520  143.9630 N   0  0  0  0  0  0  0  0  0  0  0  0
  196.9430  175.0680  139.6130 C   0  0  0  0  0  2  0  0  0  0  0  0
  197.1520  174.9190  140.8770 N   0  0  0  0  0  0  0  0  0  0  0  0
  1  5  1  0  0  0  0
  2  6  2  0  0  0  0
  2  3  1  0  0  0  0
  3  4  2  0  0  0  0
  4  1  1  0  0  0  0
  6  7  1  0  0  0  0
  7  1  2  0  0  0  0
  8 17  1  0  0  0  0
  9 19  1  0  0  0  0
 10  8  1  0  0  0  0
 11 12  2  0  0  0  0
 12 16  1  0  0  0  0
 13 12  1  0  0  0  0
 14  8  2  0  0  0  0
 15  9  2  0  0  0  0
 16 20  1  0  0  0  0
 17  2  1  0  0  0  0
 18  9  1  0  0  0  0
 18 11  2  0  0  0  0
 19 10  1  0  0  0  0
 20 17  1  0  0  0  0
 21 24  1  0  0  0  0
 22 26  2  0  0  0  0
 23 21  1  0  0  0  0
 24  7  1  6  0  0  0
 25 22  1  0  0  0  0
 26 24  1  0  0  0  0
 27 22  1  0  0  0  0
 27 21  2  0  0  0  0
 29 34  1  0  0  0  0
 30 29  1  0  0  0  0
 31 36  1  6  0  0  0
 31 30  1  0  0  0  0
 31 32  1  0  0  0  0
 32 33  1  0  0  0  0
 33 34  1  0  0  0  0
 33 28  1  1  0  0  0
 34 27  1  0  0  0  0
 35 36  2  0  0  0  0
M  END
>  <MODEL>
9

>  <REMARK>
 VINA RESULT:      -7.1      2.820      5.374
  Name = 
  4 active torsions:
  status: ('A' for Active; 'I' for Inactive)
    1  A    between atoms: C_11  and  N_36
    2  A    between atoms: C_19  and  N_25
    3  A    between atoms: C_21  and  C_35
    4  A    between atoms: C_31  and  N_34
                            x       y       z     vdW  Elec       q    Type
                         _______ _______ _______ _____ _____    ______ ____

>  <TORSDO>
F 4

$$$$
