=
 OpenBabel11062420273D

 49 54  0  0  1  0  0  0  0  0999 V2000
  192.2170  175.1860  146.2630 C   0  0  0  0  0  2  0  0  0  0  0  0
  190.5680  173.5920  145.5810 F   0  0  0  0  0  0  0  0  0  0  0  0
  192.7760  173.3690  144.7430 C   0  0  0  0  0  2  0  0  0  0  0  0
  191.6590  174.3200  145.1350 C   0  0  2  0  0  0  0  0  0  0  0  0
  193.7290  175.0420  146.2150 C   0  0  1  0  0  3  0  0  0  0  0  0
  195.2600  173.2630  145.2390 C   0  0  0  0  0  0  0  0  0  0  0  0
  196.2360  173.6790  145.9220 O   0  0  0  0  0  0  0  0  0  0  0  0
  193.9730  173.8790  145.3820 N   0  0  0  0  0  0  0  0  0  0  0  0
  196.5820  170.2230  146.4020 C   0  0  0  0  0  2  0  0  0  0  0  0
  197.3000  169.9350  145.2370 O   0  0  0  0  0  0  0  0  0  0  0  0
  195.0780  170.3030  146.1260 C   0  0  0  0  0  2  0  0  0  0  0  0
  196.8780  171.8660  143.9080 C   0  0  0  0  0  0  0  0  0  0  0  0
  197.2890  172.2970  142.8420 O   0  0  0  0  0  0  0  0  0  0  0  0
  197.8300  171.1660  144.8330 C   0  0  0  0  0  2  0  0  0  0  0  0
  195.4440  172.1070  144.2960 C   0  0  1  0  0  3  0  0  0  0  0  0
  194.7120  170.8300  144.7310 C   0  0  0  0  0  2  0  0  0  0  0  0
  194.3280  176.2610  145.5900 C   0  0  0  0  0  0  0  0  0  0  0  0
  194.5230  177.2880  146.2920 O   0  0  0  0  0  0  0  0  0  0  0  0
  194.6430  176.2570  144.2320 O   0  0  0  0  0  0  0  0  0  0  0  0
  195.9450  176.5610  143.7490 C   0  0  0  0  0  2  0  0  0  0  0  0
  194.8230  175.5210  140.2440 C   0  0  1  0  0  3  0  0  0  0  0  0
  197.4310  175.5480  140.3020 C   0  0  2  0  0  3  0  0  0  0  0  0
  196.0010  176.4090  142.2350 C   0  0  2  0  0  3  0  0  0  0  0  0
  196.9050  174.2620  140.0450 O   0  0  0  0  0  0  0  0  0  0  0  0
  194.8900  175.4990  141.7620 C   0  0  0  0  0  2  0  0  0  0  0  0
  197.3300  175.8110  141.8090 C   0  0  0  0  0  2  0  0  0  0  0  0
  196.1710  175.3370  139.5140 C   0  0  1  0  0  3  0  0  0  0  0  0
  193.8230  174.4790  139.7790 C   0  0  0  0  0  2  0  0  0  0  0  0
  193.3630  173.6090  140.9370 C   0  0  2  0  0  3  0  0  0  0  0  0
  190.7200  170.3050  139.9900 N   0  0  0  0  0  2  0  0  0  0  0  0
  193.8370  172.1990  140.7120 C   0  0  0  0  0  0  0  0  0  0  0  0
  191.0660  172.6530  140.7740 C   0  0  0  0  0  3  0  0  0  0  0  0
  190.1480  168.1680  139.2820 O   0  0  0  0  0  0  0  0  0  0  0  0
  195.0630  171.9280  140.8100 O   0  0  0  0  0  0  0  0  0  0  0  0
  191.0590  169.0180  139.4550 C   0  0  0  0  0  0  0  0  0  0  0  0
  192.4540  168.6590  139.0730 C   0  0  0  0  0  1  0  0  0  0  0  0
  192.9110  171.1660  140.3500 N   0  0  0  0  0  0  0  0  0  0  0  0
  191.8620  173.6830  141.0680 C   0  0  0  0  0  3  0  0  0  0  0  0
  191.6240  171.3590  140.3460 C   0  0  0  0  0  0  0  0  0  0  0  0
  191.2880  175.1720  143.9210 C   0  0  0  0  0  2  0  0  0  0  0  0
  190.5770  176.4780  144.2810 C   0  0  1  0  0  3  0  0  0  0  0  0
  191.8690  177.9240  142.8950 O   0  0  0  0  0  0  0  0  0  0  0  0
  189.5780  178.0020  142.5170 N   0  0  0  0  0  1  0  0  0  0  0  0
  190.7240  177.5020  143.2010 C   0  0  0  0  0  0  0  0  0  0  0  0
  189.2200  176.2250  144.4970 O   0  0  0  0  0  0  0  0  0  0  0  0
  188.5650  175.9300  146.7120 N   0  0  0  0  0  2  0  0  0  0  0  0
  188.9030  176.8950  145.6810 C   0  0  2  0  0  3  0  0  0  0  0  0
  187.2690  177.6680  145.5220 S   0  0  0  0  0  0  0  0  0  0  0  0
  187.1820  176.3660  146.7790 C   0  0  0  0  0  2  0  0  0  0  0  0
  3  4  1  0  0  0  0
  3  8  1  0  0  0  0
  4  2  1  1  0  0  0
  4  1  1  0  0  0  0
  5 17  1  6  0  0  0
  5  1  1  0  0  0  0
  6  8  1  0  0  0  0
  6  7  2  0  0  0  0
  8  5  1  0  0  0  0
 10  9  1  0  0  0  0
 11  9  1  0  0  0  0
 12 15  1  0  0  0  0
 12 14  1  0  0  0  0
 13 12  2  0  0  0  0
 14 10  1  0  0  0  0
 15 16  1  0  0  0  0
 15  6  1  1  0  0  0
 16 11  1  0  0  0  0
 17 18  2  0  0  0  0
 19 17  1  0  0  0  0
 20 19  1  0  0  0  0
 21 28  1  6  0  0  0
 21 25  1  0  0  0  0
 22 26  1  1  0  0  0
 23 20  1  1  0  0  0
 24 22  1  0  0  0  0
 25 23  1  0  0  0  0
 26 23  1  0  0  0  0
 27 24  1  1  0  0  0
 27 21  1  0  0  0  0
 27 22  1  0  0  0  0
 29 28  1  6  0  0  0
 29 38  1  0  0  0  0
 30 39  1  0  0  0  0
 31 34  2  0  0  0  0
 31 29  1  0  0  0  0
 32 38  2  0  0  0  0
 33 35  2  0  0  0  0
 35 30  1  0  0  0  0
 36 35  1  0  0  0  0
 37 31  1  0  0  0  0
 39 37  2  0  0  0  0
 39 32  1  0  0  0  0
 40  4  1  0  0  0  0
 41 40  1  6  0  0  0
 41 45  1  0  0  0  0
 42 44  2  0  0  0  0
 43 44  1  0  0  0  0
 44 41  1  0  0  0  0
 46 49  1  0  0  0  0
 47 45  1  6  0  0  0
 47 46  1  0  0  0  0
 48 47  1  0  0  0  0
 48 49  1  0  0  0  0
M  END
>  <MODEL>
1

>  <REMARK>
 VINA RESULT:      -6.5      0.000      0.000
  Name = 
  12 active torsions:
  status: ('A' for Active; 'I' for Inactive)
    1  A    between atoms: C_2  and  C_49
    2  A    between atoms: C_3  and  C_49
    3  A    between atoms: O_5  and  C_34
    4  A    between atoms: O_5  and  C_39
    5  A    between atoms: C_14  and  O_20
    6  A    between atoms: C_16  and  C_32
    7  A    between atoms: C_17  and  C_39
    8  A    between atoms: C_19  and  C_34
    9  A    between atoms: O_20  and  C_31
   10  A    between atoms: C_31  and  C_32
   11  A    between atoms: C_31  and  C_46
   12  A    between atoms: C_35  and  C_44
                            x       y       z     vdW  Elec       q    Type
                         _______ _______ _______ _____ _____    ______ ____

>  <TORSDO>
F 12

$$$$
=
 OpenBabel11062420273D

 49 54  0  0  1  0  0  0  0  0999 V2000
  187.5900  176.3620  140.8000 C   0  0  0  0  0  2  0  0  0  0  0  0
  187.2300  178.5500  141.6980 F   0  0  0  0  0  0  0  0  0  0  0  0
  188.4390  176.9760  142.9970 C   0  0  0  0  0  2  0  0  0  0  0  0
  187.2870  177.2080  142.0360 C   0  0  2  0  0  0  0  0  0  0  0  0
  188.6390  175.3440  141.2170 C   0  0  1  0  0  3  0  0  0  0  0  0
  190.3270  175.2890  143.1160 C   0  0  0  0  0  0  0  0  0  0  0  0
  190.9920  174.3810  142.5440 O   0  0  0  0  0  0  0  0  0  0  0  0
  189.1690  175.8380  142.4740 N   0  0  0  0  0  0  0  0  0  0  0  0
  193.7110  175.1380  144.0500 C   0  0  0  0  0  2  0  0  0  0  0  0
  193.4650  174.8720  145.4010 O   0  0  0  0  0  0  0  0  0  0  0  0
  193.1320  176.4930  143.6330 C   0  0  0  0  0  2  0  0  0  0  0  0
  191.0880  174.7240  145.4490 C   0  0  0  0  0  0  0  0  0  0  0  0
  190.2510  174.4090  146.2810 O   0  0  0  0  0  0  0  0  0  0  0  0
  192.3890  173.9780  145.3960 C   0  0  0  0  0  2  0  0  0  0  0  0
  190.7670  175.8090  144.4560 C   0  0  1  0  0  3  0  0  0  0  0  0
  191.8480  176.8950  144.3750 C   0  0  0  0  0  2  0  0  0  0  0  0
  187.9910  174.0110  141.4170 C   0  0  0  0  0  0  0  0  0  0  0  0
  187.2520  173.8240  142.4190 O   0  0  0  0  0  0  0  0  0  0  0  0
  188.2300  172.9830  140.5070 O   0  0  0  0  0  0  0  0  0  0  0  0
  188.6130  173.2280  139.1600 C   0  0  0  0  0  2  0  0  0  0  0  0
  191.3830  170.6080  139.4430 C   0  0  1  0  0  3  0  0  0  0  0  0
  191.6260  171.8200  137.1460 C   0  0  2  0  0  3  0  0  0  0  0  0
  189.6340  172.1960  138.7000 C   0  0  2  0  0  3  0  0  0  0  0  0
  192.7450  172.0150  137.9850 O   0  0  0  0  0  0  0  0  0  0  0  0
  190.5140  171.7830  139.8570 C   0  0  0  0  0  2  0  0  0  0  0  0
  190.5150  172.7720  137.6050 C   0  0  0  0  0  2  0  0  0  0  0  0
  192.1150  170.7630  138.0920 C   0  0  1  0  0  3  0  0  0  0  0  0
  192.3770  170.3130  140.5510 C   0  0  0  0  0  2  0  0  0  0  0  0
  192.2330  171.3080  141.6910 C   0  0  2  0  0  3  0  0  0  0  0  0
  194.8410  170.7750  145.1130 N   0  0  0  0  0  2  0  0  0  0  0  0
  193.5340  172.0410  141.8710 C   0  0  0  0  0  0  0  0  0  0  0  0
  192.6320  170.4380  143.9940 C   0  0  0  0  0  3  0  0  0  0  0  0
  196.7990  170.9510  146.3490 O   0  0  0  0  0  0  0  0  0  0  0  0
  193.9090  172.8740  141.0040 O   0  0  0  0  0  0  0  0  0  0  0  0
  196.2150  171.1580  145.2540 C   0  0  0  0  0  0  0  0  0  0  0  0
  196.9870  171.7730  144.1370 C   0  0  0  0  0  1  0  0  0  0  0  0
  194.3720  171.7750  143.0040 N   0  0  0  0  0  0  0  0  0  0  0  0
  191.8150  170.5890  142.9490 C   0  0  0  0  0  3  0  0  0  0  0  0
  193.9860  171.0160  143.9880 C   0  0  0  0  0  0  0  0  0  0  0  0
  185.9880  176.7570  142.7050 C   0  0  0  0  0  2  0  0  0  0  0  0
  185.3730  177.8110  143.6270 C   0  0  1  0  0  3  0  0  0  0  0  0
  183.3280  179.0220  143.8060 O   0  0  0  0  0  0  0  0  0  0  0  0
  183.7570  178.1390  141.7000 N   0  0  0  0  0  1  0  0  0  0  0  0
  184.1000  178.3600  143.0650 C   0  0  0  0  0  0  0  0  0  0  0  0
  185.1200  177.2440  144.8790 O   0  0  0  0  0  0  0  0  0  0  0  0
  186.7490  176.8450  146.4940 N   0  0  0  0  0  2  0  0  0  0  0  0
  186.0190  177.8590  145.7520 C   0  0  2  0  0  3  0  0  0  0  0  0
  185.1130  178.5810  147.1490 S   0  0  0  0  0  0  0  0  0  0  0  0
  186.1560  177.2310  147.7610 C   0  0  0  0  0  2  0  0  0  0  0  0
  1  5  1  0  0  0  0
  1  4  1  0  0  0  0
  4  2  1  6  0  0  0
  4 40  1  0  0  0  0
  4  3  1  0  0  0  0
  5 17  1  1  0  0  0
  5  8  1  0  0  0  0
  7  6  2  0  0  0  0
  8  3  1  0  0  0  0
  8  6  1  0  0  0  0
  9 10  1  0  0  0  0
 11  9  1  0  0  0  0
 11 16  1  0  0  0  0
 12 13  2  0  0  0  0
 14 10  1  0  0  0  0
 14 12  1  0  0  0  0
 15  6  1  6  0  0  0
 15 12  1  0  0  0  0
 16 15  1  0  0  0  0
 17 18  2  0  0  0  0
 19 17  1  0  0  0  0
 20 19  1  0  0  0  0
 21 25  1  0  0  0  0
 21 28  1  1  0  0  0
 22 26  1  1  0  0  0
 22 24  1  0  0  0  0
 22 27  1  0  0  0  0
 23 20  1  1  0  0  0
 23 25  1  0  0  0  0
 26 23  1  0  0  0  0
 27 24  1  1  0  0  0
 27 21  1  0  0  0  0
 29 28  1  6  0  0  0
 29 31  1  0  0  0  0
 29 38  1  0  0  0  0
 30 35  1  0  0  0  0
 31 37  1  0  0  0  0
 34 31  2  0  0  0  0
 35 33  2  0  0  0  0
 36 35  1  0  0  0  0
 37 39  2  0  0  0  0
 38 32  2  0  0  0  0
 39 32  1  0  0  0  0
 39 30  1  0  0  0  0
 41 40  1  6  0  0  0
 41 45  1  0  0  0  0
 43 44  1  0  0  0  0
 44 41  1  0  0  0  0
 44 42  2  0  0  0  0
 46 49  1  0  0  0  0
 47 45  1  6  0  0  0
 47 46  1  0  0  0  0
 47 48  1  0  0  0  0
 48 49  1  0  0  0  0
M  END
>  <MODEL>
2

>  <REMARK>
 VINA RESULT:      -6.4      3.110      6.287
  Name = 
  12 active torsions:
  status: ('A' for Active; 'I' for Inactive)
    1  A    between atoms: C_2  and  C_49
    2  A    between atoms: C_3  and  C_49
    3  A    between atoms: O_5  and  C_34
    4  A    between atoms: O_5  and  C_39
    5  A    between atoms: C_14  and  O_20
    6  A    between atoms: C_16  and  C_32
    7  A    between atoms: C_17  and  C_39
    8  A    between atoms: C_19  and  C_34
    9  A    between atoms: O_20  and  C_31
   10  A    between atoms: C_31  and  C_32
   11  A    between atoms: C_31  and  C_46
   12  A    between atoms: C_35  and  C_44
                            x       y       z     vdW  Elec       q    Type
                         _______ _______ _______ _____ _____    ______ ____

>  <TORSDO>
F 12

$$$$
=
 OpenBabel11062420273D

 49 54  0  0  1  0  0  0  0  0999 V2000
  189.3460  174.0790  143.5860 C   0  0  0  0  0  2  0  0  0  0  0  0
  190.5080  174.3870  145.6530 F   0  0  0  0  0  0  0  0  0  0  0  0
  189.1440  176.1510  144.8460 C   0  0  0  0  0  2  0  0  0  0  0  0
  190.1140  175.0360  144.4960 C   0  0  2  0  0  0  0  0  0  0  0  0
  188.1350  174.8420  143.0740 C   0  0  1  0  0  3  0  0  0  0  0  0
  186.8910  176.8810  143.9420 C   0  0  0  0  0  0  0  0  0  0  0  0
  185.8890  176.6200  143.2200 O   0  0  0  0  0  0  0  0  0  0  0  0
  188.0210  175.9990  143.9420 N   0  0  0  0  0  0  0  0  0  0  0  0
  184.5670  177.1660  146.5630 C   0  0  0  0  0  2  0  0  0  0  0  0
  184.3800  178.5460  146.4250 O   0  0  0  0  0  0  0  0  0  0  0  0
  186.0210  176.8330  146.9130 C   0  0  0  0  0  2  0  0  0  0  0  0
  185.7440  179.0430  144.5370 C   0  0  0  0  0  0  0  0  0  0  0  0
  185.9390  180.0240  143.8380 O   0  0  0  0  0  0  0  0  0  0  0  0
  184.3590  178.7650  145.0430 C   0  0  0  0  0  2  0  0  0  0  0  0
  186.8840  178.1020  144.8200 C   0  0  1  0  0  3  0  0  0  0  0  0
  187.0590  177.7930  146.3130 C   0  0  0  0  0  2  0  0  0  0  0  0
  188.3760  175.2760  141.6630 C   0  0  0  0  0  0  0  0  0  0  0  0
  188.7130  176.4670  141.4290 O   0  0  0  0  0  0  0  0  0  0  0  0
  188.2030  174.3670  140.6210 O   0  0  0  0  0  0  0  0  0  0  0  0
  189.2410  174.0490  139.7040 C   0  0  0  0  0  2  0  0  0  0  0  0
  190.4110  170.5530  140.7190 C   0  0  1  0  0  3  0  0  0  0  0  0
  190.2840  170.6570  138.1160 C   0  0  2  0  0  3  0  0  0  0  0  0
  189.4290  172.5400  139.6140 C   0  0  2  0  0  3  0  0  0  0  0  0
  191.5950  170.4230  138.5880 O   0  0  0  0  0  0  0  0  0  0  0  0
  190.3930  172.0720  140.6800 C   0  0  0  0  0  2  0  0  0  0  0  0
  189.9870  172.1540  138.2550 C   0  0  0  0  0  2  0  0  0  0  0  0
  190.5630  169.8520  139.3520 C   0  0  1  0  0  3  0  0  0  0  0  0
  191.5020  170.0960  141.6700 C   0  0  0  0  0  2  0  0  0  0  0  0
  192.2110  171.2850  142.2990 C   0  0  2  0  0  3  0  0  0  0  0  0
  195.4130  170.4210  145.0900 N   0  0  0  0  0  2  0  0  0  0  0  0
  193.6650  171.2500  141.9160 C   0  0  0  0  0  0  0  0  0  0  0  0
  193.0230  170.9950  144.6380 C   0  0  0  0  0  3  0  0  0  0  0  0
  197.5700  169.8770  145.7580 O   0  0  0  0  0  0  0  0  0  0  0  0
  194.0060  171.4950  140.7280 O   0  0  0  0  0  0  0  0  0  0  0  0
  196.7690  170.0530  144.8040 C   0  0  0  0  0  0  0  0  0  0  0  0
  197.2600  169.8470  143.4110 C   0  0  0  0  0  1  0  0  0  0  0  0
  194.6670  170.9040  142.8810 N   0  0  0  0  0  0  0  0  0  0  0  0
  192.0230  171.2610  143.7950 C   0  0  0  0  0  3  0  0  0  0  0  0
  194.3900  170.7560  144.1440 C   0  0  0  0  0  0  0  0  0  0  0  0
  191.3160  175.6390  143.7690 C   0  0  0  0  0  2  0  0  0  0  0  0
  192.4960  174.6750  143.6300 C   0  0  1  0  0  3  0  0  0  0  0  0
  192.4430  174.9150  141.2590 O   0  0  0  0  0  0  0  0  0  0  0  0
  194.5720  174.7790  142.1770 N   0  0  0  0  0  1  0  0  0  0  0  0
  193.1520  174.7970  142.2910 C   0  0  0  0  0  0  0  0  0  0  0  0
  193.4340  174.9410  144.6310 O   0  0  0  0  0  0  0  0  0  0  0  0
  194.4900  177.0030  144.8680 N   0  0  0  0  0  2  0  0  0  0  0  0
  193.2350  176.2790  144.9790 C   0  0  2  0  0  3  0  0  0  0  0  0
  193.0290  176.4160  146.7760 S   0  0  0  0  0  0  0  0  0  0  0  0
  194.5660  177.2490  146.2970 C   0  0  0  0  0  2  0  0  0  0  0  0
  1  4  1  0  0  0  0
  4  3  1  0  0  0  0
  4  2  1  1  0  0  0
  5 17  1  6  0  0  0
  5  1  1  0  0  0  0
  5  8  1  0  0  0  0
  7  6  2  0  0  0  0
  8  6  1  0  0  0  0
  8  3  1  0  0  0  0
  9 11  1  0  0  0  0
 10  9  1  0  0  0  0
 12 15  1  0  0  0  0
 12 14  1  0  0  0  0
 13 12  2  0  0  0  0
 14 10  1  0  0  0  0
 15  6  1  6  0  0  0
 15 16  1  0  0  0  0
 16 11  1  0  0  0  0
 18 17  2  0  0  0  0
 19 17  1  0  0  0  0
 20 19  1  0  0  0  0
 21 28  1  1  0  0  0
 22 26  1  1  0  0  0
 22 24  1  0  0  0  0
 22 27  1  0  0  0  0
 23 20  1  6  0  0  0
 23 25  1  0  0  0  0
 25 21  1  0  0  0  0
 26 23  1  0  0  0  0
 27 24  1  6  0  0  0
 27 21  1  0  0  0  0
 29 28  1  6  0  0  0
 29 38  1  0  0  0  0
 31 29  1  0  0  0  0
 31 37  1  0  0  0  0
 34 31  2  0  0  0  0
 35 30  1  0  0  0  0
 35 33  2  0  0  0  0
 36 35  1  0  0  0  0
 37 39  2  0  0  0  0
 38 32  2  0  0  0  0
 39 32  1  0  0  0  0
 39 30  1  0  0  0  0
 40  4  1  0  0  0  0
 41 40  1  6  0  0  0
 41 45  1  0  0  0  0
 42 44  2  0  0  0  0
 43 44  1  0  0  0  0
 44 41  1  0  0  0  0
 46 47  1  0  0  0  0
 46 49  1  0  0  0  0
 47 45  1  1  0  0  0
 47 48  1  0  0  0  0
 49 48  1  0  0  0  0
M  END
>  <MODEL>
3

>  <REMARK>
 VINA RESULT:      -6.3      2.723      7.774
  Name = 
  12 active torsions:
  status: ('A' for Active; 'I' for Inactive)
    1  A    between atoms: C_2  and  C_49
    2  A    between atoms: C_3  and  C_49
    3  A    between atoms: O_5  and  C_34
    4  A    between atoms: O_5  and  C_39
    5  A    between atoms: C_14  and  O_20
    6  A    between atoms: C_16  and  C_32
    7  A    between atoms: C_17  and  C_39
    8  A    between atoms: C_19  and  C_34
    9  A    between atoms: O_20  and  C_31
   10  A    between atoms: C_31  and  C_32
   11  A    between atoms: C_31  and  C_46
   12  A    between atoms: C_35  and  C_44
                            x       y       z     vdW  Elec       q    Type
                         _______ _______ _______ _____ _____    ______ ____

>  <TORSDO>
F 12

$$$$
=
 OpenBabel11062420273D

 49 54  0  0  1  0  0  0  0  0999 V2000
  191.4090  172.9790  144.0070 C   0  0  0  0  0  2  0  0  0  0  0  0
  190.0580  171.1080  143.3780 F   0  0  0  0  0  0  0  0  0  0  0  0
  192.4030  170.8040  143.5590 C   0  0  0  0  0  2  0  0  0  0  0  0
  191.2730  171.7280  143.1410 C   0  0  2  0  0  0  0  0  0  0  0  0
  192.8170  172.9630  144.5790 C   0  0  1  0  0  3  0  0  0  0  0  0
  194.5060  171.0990  144.9440 C   0  0  0  0  0  0  0  0  0  0  0  0
  195.1720  171.8120  145.7440 O   0  0  0  0  0  0  0  0  0  0  0  0
  193.2960  171.6090  144.3700 N   0  0  0  0  0  0  0  0  0  0  0  0
  196.3110  169.2310  147.3100 C   0  0  0  0  0  2  0  0  0  0  0  0
  197.1450  168.6050  146.3780 O   0  0  0  0  0  0  0  0  0  0  0  0
  194.8410  168.8750  147.0720 C   0  0  0  0  0  2  0  0  0  0  0  0
  196.4460  169.6130  144.3360 C   0  0  0  0  0  0  0  0  0  0  0  0
  196.8350  169.5960  143.1790 O   0  0  0  0  0  0  0  0  0  0  0  0
  197.4530  169.6060  145.4490 C   0  0  0  0  0  2  0  0  0  0  0  0
  194.9700  169.7070  144.6170 C   0  0  1  0  0  3  0  0  0  0  0  0
  194.4720  168.6390  145.6000 C   0  0  0  0  0  2  0  0  0  0  0  0
  193.6730  173.9340  143.8300 C   0  0  0  0  0  0  0  0  0  0  0  0
  193.8690  173.7680  142.5970 O   0  0  0  0  0  0  0  0  0  0  0  0
  194.2640  174.9990  144.5080 O   0  0  0  0  0  0  0  0  0  0  0  0
  193.5850  176.2250  144.7450 C   0  0  0  0  0  2  0  0  0  0  0  0
  189.9070  176.3260  145.7860 C   0  0  1  0  0  3  0  0  0  0  0  0
  191.3760  176.3780  147.9410 C   0  0  2  0  0  3  0  0  0  0  0  0
  192.3560  175.9940  145.6130 C   0  0  2  0  0  3  0  0  0  0  0  0
  190.5950  177.5450  147.7860 O   0  0  0  0  0  0  0  0  0  0  0  0
  191.1670  176.7300  145.0390 C   0  0  0  0  0  2  0  0  0  0  0  0
  192.6000  176.4990  147.0250 C   0  0  0  0  0  2  0  0  0  0  0  0
  190.0070  176.3550  147.3260 C   0  0  1  0  0  3  0  0  0  0  0  0
  188.7540  177.1940  145.3150 C   0  0  0  0  0  2  0  0  0  0  0  0
  187.5240  176.3530  145.0180 C   0  0  2  0  0  3  0  0  0  0  0  0
  184.5100  178.1100  142.4440 N   0  0  0  0  0  2  0  0  0  0  0  0
  187.4450  176.1060  143.5350 C   0  0  0  0  0  0  0  0  0  0  0  0
  185.3720  177.5780  144.7290 C   0  0  0  0  0  3  0  0  0  0  0  0
  183.5160  178.7260  140.4380 O   0  0  0  0  0  0  0  0  0  0  0  0
  188.2770  175.3390  142.9830 O   0  0  0  0  0  0  0  0  0  0  0  0
  184.5080  178.2100  141.0140 C   0  0  0  0  0  0  0  0  0  0  0  0
  185.6550  177.7460  140.1840 C   0  0  0  0  0  1  0  0  0  0  0  0
  186.4520  176.7630  142.7380 N   0  0  0  0  0  0  0  0  0  0  0  0
  186.2910  177.0460  145.5380 C   0  0  0  0  0  3  0  0  0  0  0  0
  185.4960  177.4720  143.2660 C   0  0  0  0  0  0  0  0  0  0  0  0
  191.4360  172.0660  141.6580 C   0  0  0  0  0  2  0  0  0  0  0  0
  190.2650  171.6010  140.7910 C   0  0  1  0  0  3  0  0  0  0  0  0
  188.1830  172.7300  141.0710 O   0  0  0  0  0  0  0  0  0  0  0  0
  189.6660  173.7680  139.6150 N   0  0  0  0  0  1  0  0  0  0  0  0
  189.3100  172.7180  140.5100 C   0  0  0  0  0  0  0  0  0  0  0  0
  190.7520  171.0960  139.5830 O   0  0  0  0  0  0  0  0  0  0  0  0
  192.7070  169.8500  139.3630 N   0  0  0  0  0  2  0  0  0  0  0  0
  191.3610  169.8820  139.9100 C   0  0  2  0  0  3  0  0  0  0  0  0
  190.6520  168.5540  138.8990 S   0  0  0  0  0  0  0  0  0  0  0  0
  192.3910  168.7740  138.4400 C   0  0  0  0  0  2  0  0  0  0  0  0
  1  5  1  0  0  0  0
  3  8  1  0  0  0  0
  4  2  1  1  0  0  0
  4  3  1  0  0  0  0
  4  1  1  0  0  0  0
  5 17  1  6  0  0  0
  6  7  2  0  0  0  0
  8  5  1  0  0  0  0
  8  6  1  0  0  0  0
 10  9  1  0  0  0  0
 11  9  1  0  0  0  0
 12 15  1  0  0  0  0
 12 14  1  0  0  0  0
 13 12  2  0  0  0  0
 14 10  1  0  0  0  0
 15  6  1  1  0  0  0
 15 16  1  0  0  0  0
 16 11  1  0  0  0  0
 17 19  1  0  0  0  0
 18 17  2  0  0  0  0
 19 20  1  0  0  0  0
 21 28  1  1  0  0  0
 21 27  1  0  0  0  0
 22 26  1  6  0  0  0
 23 20  1  6  0  0  0
 23 26  1  0  0  0  0
 24 22  1  0  0  0  0
 25 23  1  0  0  0  0
 25 21  1  0  0  0  0
 27 24  1  6  0  0  0
 27 22  1  0  0  0  0
 29 28  1  6  0  0  0
 29 38  1  0  0  0  0
 30 39  1  0  0  0  0
 31 29  1  0  0  0  0
 32 38  2  0  0  0  0
 33 35  2  0  0  0  0
 34 31  2  0  0  0  0
 35 30  1  0  0  0  0
 36 35  1  0  0  0  0
 37 39  2  0  0  0  0
 37 31  1  0  0  0  0
 39 32  1  0  0  0  0
 40  4  1  0  0  0  0
 41 40  1  1  0  0  0
 43 44  1  0  0  0  0
 44 41  1  0  0  0  0
 44 42  2  0  0  0  0
 45 41  1  0  0  0  0
 46 47  1  0  0  0  0
 47 45  1  6  0  0  0
 48 47  1  0  0  0  0
 49 48  1  0  0  0  0
 49 46  1  0  0  0  0
M  END
>  <MODEL>
4

>  <REMARK>
 VINA RESULT:      -6.3      3.237      6.956
  Name = 
  12 active torsions:
  status: ('A' for Active; 'I' for Inactive)
    1  A    between atoms: C_2  and  C_49
    2  A    between atoms: C_3  and  C_49
    3  A    between atoms: O_5  and  C_34
    4  A    between atoms: O_5  and  C_39
    5  A    between atoms: C_14  and  O_20
    6  A    between atoms: C_16  and  C_32
    7  A    between atoms: C_17  and  C_39
    8  A    between atoms: C_19  and  C_34
    9  A    between atoms: O_20  and  C_31
   10  A    between atoms: C_31  and  C_32
   11  A    between atoms: C_31  and  C_46
   12  A    between atoms: C_35  and  C_44
                            x       y       z     vdW  Elec       q    Type
                         _______ _______ _______ _____ _____    ______ ____

>  <TORSDO>
F 12

$$$$
=
 OpenBabel11062420273D

 49 54  0  0  1  0  0  0  0  0999 V2000
  191.6880  171.1060  141.6160 C   0  0  0  0  0  2  0  0  0  0  0  0
  191.0790  170.8550  139.3170 F   0  0  0  0  0  0  0  0  0  0  0  0
  192.7770  172.4130  139.8760 C   0  0  0  0  0  2  0  0  0  0  0  0
  191.4510  171.7880  140.2700 C   0  0  2  0  0  0  0  0  0  0  0  0
  192.9690  171.6950  142.1830 C   0  0  1  0  0  3  0  0  0  0  0  0
  194.9460  172.8760  141.1050 C   0  0  0  0  0  0  0  0  0  0  0  0
  195.6610  172.6860  142.1280 O   0  0  0  0  0  0  0  0  0  0  0  0
  193.6090  172.3610  141.0630 N   0  0  0  0  0  0  0  0  0  0  0  0
  197.6890  175.0340  141.5140 C   0  0  0  0  0  2  0  0  0  0  0  0
  197.2560  175.9790  140.5790 O   0  0  0  0  0  0  0  0  0  0  0  0
  197.9280  173.6700  140.8600 C   0  0  0  0  0  2  0  0  0  0  0  0
  195.1520  175.0830  139.9100 C   0  0  0  0  0  0  0  0  0  0  0  0
  194.2240  175.4650  139.2150 O   0  0  0  0  0  0  0  0  0  0  0  0
  195.8740  176.0700  140.7800 C   0  0  0  0  0  2  0  0  0  0  0  0
  195.5070  173.6200  139.9260 C   0  0  1  0  0  3  0  0  0  0  0  0
  196.9980  173.3560  139.6780 C   0  0  0  0  0  2  0  0  0  0  0  0
  192.6360  172.6870  143.2510 C   0  0  0  0  0  0  0  0  0  0  0  0
  192.1580  173.8070  142.9310 O   0  0  0  0  0  0  0  0  0  0  0  0
  192.8780  172.3720  144.5870 O   0  0  0  0  0  0  0  0  0  0  0  0
  194.1460  172.5670  145.2000 C   0  0  0  0  0  2  0  0  0  0  0  0
  192.9090  175.7750  146.8730 C   0  0  1  0  0  3  0  0  0  0  0  0
  195.0400  176.3410  145.4790 C   0  0  2  0  0  3  0  0  0  0  0  0
  194.2220  173.9470  145.8380 C   0  0  2  0  0  3  0  0  0  0  0  0
  193.8910  177.0200  145.0170 O   0  0  0  0  0  0  0  0  0  0  0  0
  192.8310  174.5000  146.0500 C   0  0  0  0  0  2  0  0  0  0  0  0
  194.9920  174.9040  144.9440 C   0  0  0  0  0  2  0  0  0  0  0  0
  193.9550  176.8090  146.4050 C   0  0  1  0  0  3  0  0  0  0  0  0
  191.5310  176.4080  146.9330 C   0  0  0  0  0  2  0  0  0  0  0  0
  190.5060  175.5540  146.2050 C   0  0  2  0  0  3  0  0  0  0  0  0
  186.3480  176.7320  146.5630 N   0  0  0  0  0  2  0  0  0  0  0  0
  189.7880  176.4040  145.1920 C   0  0  0  0  0  0  0  0  0  0  0  0
  188.2740  175.3140  147.2910 C   0  0  0  0  0  3  0  0  0  0  0  0
  184.4240  177.9360  146.0740 O   0  0  0  0  0  0  0  0  0  0  0  0
  190.3980  176.8010  144.1630 O   0  0  0  0  0  0  0  0  0  0  0  0
  185.6520  177.7680  145.8580 C   0  0  0  0  0  0  0  0  0  0  0  0
  186.3390  178.6710  144.8920 C   0  0  0  0  0  1  0  0  0  0  0  0
  188.4270  176.7990  145.4020 N   0  0  0  0  0  0  0  0  0  0  0  0
  189.5520  174.9400  147.1980 C   0  0  0  0  0  3  0  0  0  0  0  0
  187.7120  176.3280  146.3830 C   0  0  0  0  0  0  0  0  0  0  0  0
  190.4020  172.8940  140.3910 C   0  0  0  0  0  2  0  0  0  0  0  0
  188.9730  172.3700  140.5460 C   0  0  1  0  0  3  0  0  0  0  0  0
  187.2280  172.4790  142.1670 O   0  0  0  0  0  0  0  0  0  0  0  0
  188.7980  174.1850  142.3100 N   0  0  0  0  0  1  0  0  0  0  0  0
  188.2780  173.0000  141.7120 C   0  0  0  0  0  0  0  0  0  0  0  0
  188.2510  172.6350  139.3800 O   0  0  0  0  0  0  0  0  0  0  0  0
  187.9830  174.8470  138.7030 N   0  0  0  0  0  2  0  0  0  0  0  0
  188.8970  173.7200  138.7840 C   0  0  2  0  0  3  0  0  0  0  0  0
  189.0750  173.4190  137.0040 S   0  0  0  0  0  0  0  0  0  0  0  0
  187.9490  174.8180  137.2520 C   0  0  0  0  0  2  0  0  0  0  0  0
  1  5  1  0  0  0  0
  3  4  1  0  0  0  0
  3  8  1  0  0  0  0
  4  2  1  6  0  0  0
  4 40  1  0  0  0  0
  4  1  1  0  0  0  0
  5 17  1  1  0  0  0
  6  7  2  0  0  0  0
  8  6  1  0  0  0  0
  8  5  1  0  0  0  0
 10 14  1  0  0  0  0
 10  9  1  0  0  0  0
 11  9  1  0  0  0  0
 12 15  1  0  0  0  0
 12 14  1  0  0  0  0
 13 12  2  0  0  0  0
 15  6  1  1  0  0  0
 16 15  1  0  0  0  0
 16 11  1  0  0  0  0
 17 19  1  0  0  0  0
 18 17  2  0  0  0  0
 19 20  1  0  0  0  0
 21 28  1  6  0  0  0
 22 26  1  6  0  0  0
 22 27  1  0  0  0  0
 23 20  1  6  0  0  0
 23 25  1  0  0  0  0
 24 22  1  0  0  0  0
 25 21  1  0  0  0  0
 26 23  1  0  0  0  0
 27 24  1  6  0  0  0
 27 21  1  0  0  0  0
 29 28  1  1  0  0  0
 29 38  1  0  0  0  0
 31 37  1  0  0  0  0
 31 29  1  0  0  0  0
 34 31  2  0  0  0  0
 35 33  2  0  0  0  0
 35 30  1  0  0  0  0
 36 35  1  0  0  0  0
 37 39  2  0  0  0  0
 38 32  2  0  0  0  0
 39 30  1  0  0  0  0
 39 32  1  0  0  0  0
 41 40  1  6  0  0  0
 41 44  1  0  0  0  0
 44 42  2  0  0  0  0
 44 43  1  0  0  0  0
 45 41  1  0  0  0  0
 46 47  1  0  0  0  0
 47 45  1  1  0  0  0
 48 49  1  0  0  0  0
 48 47  1  0  0  0  0
 49 46  1  0  0  0  0
M  END
>  <MODEL>
5

>  <REMARK>
 VINA RESULT:      -6.3      2.978      7.042
  Name = 
  12 active torsions:
  status: ('A' for Active; 'I' for Inactive)
    1  A    between atoms: C_2  and  C_49
    2  A    between atoms: C_3  and  C_49
    3  A    between atoms: O_5  and  C_34
    4  A    between atoms: O_5  and  C_39
    5  A    between atoms: C_14  and  O_20
    6  A    between atoms: C_16  and  C_32
    7  A    between atoms: C_17  and  C_39
    8  A    between atoms: C_19  and  C_34
    9  A    between atoms: O_20  and  C_31
   10  A    between atoms: C_31  and  C_32
   11  A    between atoms: C_31  and  C_46
   12  A    between atoms: C_35  and  C_44
                            x       y       z     vdW  Elec       q    Type
                         _______ _______ _______ _____ _____    ______ ____

>  <TORSDO>
F 12

$$$$
=
 OpenBabel11062420273D

 49 54  0  0  1  0  0  0  0  0999 V2000
  191.3080  171.3440  141.6700 C   0  0  0  0  0  2  0  0  0  0  0  0
  190.5750  171.2770  139.3940 F   0  0  0  0  0  0  0  0  0  0  0  0
  191.9940  173.0500  140.0760 C   0  0  0  0  0  2  0  0  0  0  0  0
  190.8420  172.1340  140.4480 C   0  0  2  0  0  0  0  0  0  0  0  0
  192.4990  172.0940  142.2440 C   0  0  1  0  0  3  0  0  0  0  0  0
  194.1290  173.7650  141.2400 C   0  0  0  0  0  0  0  0  0  0  0  0
  194.9470  173.5880  142.1850 O   0  0  0  0  0  0  0  0  0  0  0  0
  192.9120  173.0100  141.1970 N   0  0  0  0  0  0  0  0  0  0  0  0
  197.2970  173.7640  139.7200 C   0  0  0  0  0  2  0  0  0  0  0  0
  197.3690  175.1520  139.5590 O   0  0  0  0  0  0  0  0  0  0  0  0
  196.1180  173.1730  138.9430 C   0  0  0  0  0  2  0  0  0  0  0  0
  195.3470  175.8730  140.5920 C   0  0  0  0  0  0  0  0  0  0  0  0
  194.8560  176.9510  140.8880 O   0  0  0  0  0  0  0  0  0  0  0  0
  196.8270  175.6740  140.7390 C   0  0  0  0  0  2  0  0  0  0  0  0
  194.4470  174.7500  140.1490 C   0  0  1  0  0  3  0  0  0  0  0  0
  194.8950  174.0970  138.8350 C   0  0  0  0  0  2  0  0  0  0  0  0
  192.0740  172.8550  143.4580 C   0  0  0  0  0  0  0  0  0  0  0  0
  191.3360  173.8680  143.3290 O   0  0  0  0  0  0  0  0  0  0  0  0
  192.5160  172.4520  144.7170 O   0  0  0  0  0  0  0  0  0  0  0  0
  193.8430  172.6840  145.1710 C   0  0  0  0  0  2  0  0  0  0  0  0
  192.6770  175.7980  147.0580 C   0  0  1  0  0  3  0  0  0  0  0  0
  194.6920  176.4600  145.5390 C   0  0  2  0  0  3  0  0  0  0  0  0
  193.9420  174.0390  145.8580 C   0  0  2  0  0  3  0  0  0  0  0  0
  193.5020  177.1350  145.1890 O   0  0  0  0  0  0  0  0  0  0  0  0
  192.5610  174.5560  146.1910 C   0  0  0  0  0  2  0  0  0  0  0  0
  194.6290  175.0460  144.9510 C   0  0  0  0  0  2  0  0  0  0  0  0
  193.6700  176.8700  146.5590 C   0  0  1  0  0  3  0  0  0  0  0  0
  191.2970  176.4020  147.2420 C   0  0  0  0  0  2  0  0  0  0  0  0
  190.2700  175.6890  146.3790 C   0  0  2  0  0  3  0  0  0  0  0  0
  186.1230  176.8470  146.8860 N   0  0  0  0  0  2  0  0  0  0  0  0
  189.5720  176.7000  145.5090 C   0  0  0  0  0  0  0  0  0  0  0  0
  188.0250  175.3070  147.3940 C   0  0  0  0  0  3  0  0  0  0  0  0
  184.2170  178.1380  146.5800 O   0  0  0  0  0  0  0  0  0  0  0  0
  190.1970  177.2480  144.5620 O   0  0  0  0  0  0  0  0  0  0  0  0
  185.4450  177.9910  146.3500 C   0  0  0  0  0  0  0  0  0  0  0  0
  186.1520  179.0290  145.5480 C   0  0  0  0  0  1  0  0  0  0  0  0
  188.2130  177.0730  145.7680 N   0  0  0  0  0  0  0  0  0  0  0  0
  189.2990  174.9360  147.2520 C   0  0  0  0  0  3  0  0  0  0  0  0
  187.4830  176.4600  146.6540 C   0  0  0  0  0  0  0  0  0  0  0  0
  189.6190  172.9890  140.7810 C   0  0  0  0  0  2  0  0  0  0  0  0
  189.4080  174.1610  139.8200 C   0  0  1  0  0  3  0  0  0  0  0  0
  190.0580  174.0880  137.5280 O   0  0  0  0  0  0  0  0  0  0  0  0
  188.1920  172.8070  138.0530 N   0  0  0  0  0  1  0  0  0  0  0  0
  189.2500  173.6930  138.4080 C   0  0  0  0  0  0  0  0  0  0  0  0
  188.2700  174.8760  140.2010 O   0  0  0  0  0  0  0  0  0  0  0  0
  187.4690  174.8210  142.3870 N   0  0  0  0  0  2  0  0  0  0  0  0
  188.5210  175.3020  141.5080 C   0  0  2  0  0  3  0  0  0  0  0  0
  188.1690  177.0760  141.6480 S   0  0  0  0  0  0  0  0  0  0  0  0
  186.9820  176.1600  142.6660 C   0  0  0  0  0  2  0  0  0  0  0  0
  1  5  1  0  0  0  0
  3  4  1  0  0  0  0
  3  8  1  0  0  0  0
  4  2  1  6  0  0  0
  4 40  1  0  0  0  0
  4  1  1  0  0  0  0
  5 17  1  1  0  0  0
  6  7  2  0  0  0  0
  8  6  1  0  0  0  0
  8  5  1  0  0  0  0
 10  9  1  0  0  0  0
 10 14  1  0  0  0  0
 11  9  1  0  0  0  0
 12 14  1  0  0  0  0
 12 13  2  0  0  0  0
 15 12  1  0  0  0  0
 15  6  1  1  0  0  0
 16 11  1  0  0  0  0
 16 15  1  0  0  0  0
 17 19  1  0  0  0  0
 18 17  2  0  0  0  0
 19 20  1  0  0  0  0
 21 28  1  6  0  0  0
 22 26  1  6  0  0  0
 22 27  1  0  0  0  0
 23 20  1  6  0  0  0
 23 25  1  0  0  0  0
 24 22  1  0  0  0  0
 25 21  1  0  0  0  0
 26 23  1  0  0  0  0
 27 24  1  6  0  0  0
 27 21  1  0  0  0  0
 29 28  1  1  0  0  0
 29 38  1  0  0  0  0
 31 37  1  0  0  0  0
 31 29  1  0  0  0  0
 34 31  2  0  0  0  0
 35 33  2  0  0  0  0
 35 30  1  0  0  0  0
 36 35  1  0  0  0  0
 37 39  2  0  0  0  0
 38 32  2  0  0  0  0
 39 30  1  0  0  0  0
 39 32  1  0  0  0  0
 41 45  1  0  0  0  0
 41 40  1  1  0  0  0
 42 44  2  0  0  0  0
 43 44  1  0  0  0  0
 44 41  1  0  0  0  0
 46 49  1  0  0  0  0
 47 45  1  6  0  0  0
 47 48  1  0  0  0  0
 47 46  1  0  0  0  0
 48 49  1  0  0  0  0
M  END
>  <MODEL>
6

>  <REMARK>
 VINA RESULT:      -6.2      2.689      6.914
  Name = 
  12 active torsions:
  status: ('A' for Active; 'I' for Inactive)
    1  A    between atoms: C_2  and  C_49
    2  A    between atoms: C_3  and  C_49
    3  A    between atoms: O_5  and  C_34
    4  A    between atoms: O_5  and  C_39
    5  A    between atoms: C_14  and  O_20
    6  A    between atoms: C_16  and  C_32
    7  A    between atoms: C_17  and  C_39
    8  A    between atoms: C_19  and  C_34
    9  A    between atoms: O_20  and  C_31
   10  A    between atoms: C_31  and  C_32
   11  A    between atoms: C_31  and  C_46
   12  A    between atoms: C_35  and  C_44
                            x       y       z     vdW  Elec       q    Type
                         _______ _______ _______ _____ _____    ______ ____

>  <TORSDO>
F 12

$$$$
=
 OpenBabel11062420273D

 49 54  0  0  1  0  0  0  0  0999 V2000
  189.3240  172.3750  143.1360 C   0  0  0  0  0  2  0  0  0  0  0  0
  188.2030  174.3910  142.5030 F   0  0  0  0  0  0  0  0  0  0  0  0
  189.9490  173.5810  141.1170 C   0  0  0  0  0  2  0  0  0  0  0  0
  189.4420  173.7750  142.5350 C   0  0  2  0  0  0  0  0  0  0  0  0
  190.1520  171.4520  142.2560 C   0  0  1  0  0  3  0  0  0  0  0  0
  190.9560  171.6290  139.8520 C   0  0  0  0  0  0  0  0  0  0  0  0
  191.1990  170.3910  139.8060 O   0  0  0  0  0  0  0  0  0  0  0  0
  190.3880  172.2020  141.0360 N   0  0  0  0  0  0  0  0  0  0  0  0
  190.7720  170.2820  136.6110 C   0  0  0  0  0  2  0  0  0  0  0  0
  191.8360  171.0290  136.0960 O   0  0  0  0  0  0  0  0  0  0  0  0
  189.6330  171.1880  137.0880 C   0  0  0  0  0  2  0  0  0  0  0  0
  192.5760  172.2250  138.0180 C   0  0  0  0  0  0  0  0  0  0  0  0
  193.5200  172.9540  138.2810 O   0  0  0  0  0  0  0  0  0  0  0  0
  192.7890  171.0420  137.1200 C   0  0  0  0  0  2  0  0  0  0  0  0
  191.2390  172.4930  138.6540 C   0  0  1  0  0  3  0  0  0  0  0  0
  190.0870  172.5470  137.6420 C   0  0  0  0  0  2  0  0  0  0  0  0
  191.4490  171.1450  142.9330 C   0  0  0  0  0  0  0  0  0  0  0  0
  191.9980  170.0270  142.7460 O   0  0  0  0  0  0  0  0  0  0  0  0
  192.0250  172.0870  143.7840 O   0  0  0  0  0  0  0  0  0  0  0  0
  193.2360  171.8430  144.4870 C   0  0  0  0  0  2  0  0  0  0  0  0
  192.6750  175.0660  146.4660 C   0  0  1  0  0  3  0  0  0  0  0  0
  195.1840  174.9560  145.7620 C   0  0  2  0  0  3  0  0  0  0  0  0
  193.5660  173.0130  145.4030 C   0  0  2  0  0  3  0  0  0  0  0  0
  194.5080  176.0620  145.1990 O   0  0  0  0  0  0  0  0  0  0  0  0
  192.4330  174.0140  145.3970 C   0  0  0  0  0  2  0  0  0  0  0  0
  194.8310  173.7120  144.9380 C   0  0  0  0  0  2  0  0  0  0  0  0
  194.0900  175.6840  146.4860 C   0  0  1  0  0  3  0  0  0  0  0  0
  191.6250  176.1540  146.3360 C   0  0  0  0  0  2  0  0  0  0  0  0
  190.6520  176.1140  147.5030 C   0  0  2  0  0  3  0  0  0  0  0  0
  186.9600  178.3460  147.0660 N   0  0  0  0  0  2  0  0  0  0  0  0
  189.3560  175.5030  147.0420 C   0  0  0  0  0  0  0  0  0  0  0  0
  189.3070  178.1740  147.9100 C   0  0  0  0  0  3  0  0  0  0  0  0
  184.7790  178.7450  146.3760 O   0  0  0  0  0  0  0  0  0  0  0  0
  189.3050  174.2740  146.7740 O   0  0  0  0  0  0  0  0  0  0  0  0
  185.7720  177.9720  146.3570 C   0  0  0  0  0  0  0  0  0  0  0  0
  185.6790  176.7070  145.5740 C   0  0  0  0  0  1  0  0  0  0  0  0
  188.1870  176.3140  146.8700 N   0  0  0  0  0  0  0  0  0  0  0  0
  190.4530  177.5040  148.0520 C   0  0  0  0  0  3  0  0  0  0  0  0
  188.1470  177.5610  147.2400 C   0  0  0  0  0  0  0  0  0  0  0  0
  190.4540  174.6200  143.3100 C   0  0  0  0  0  2  0  0  0  0  0  0
  191.1630  175.6690  142.4510 C   0  0  1  0  0  3  0  0  0  0  0  0
  189.4980  177.3750  142.4050 O   0  0  0  0  0  0  0  0  0  0  0  0
  191.5020  177.9960  143.4030 N   0  0  0  0  0  1  0  0  0  0  0  0
  190.6650  177.0490  142.7440 C   0  0  0  0  0  0  0  0  0  0  0  0
  192.5380  175.6140  142.6890 O   0  0  0  0  0  0  0  0  0  0  0  0
  193.6160  173.9370  141.4840 N   0  0  0  0  0  2  0  0  0  0  0  0
  193.1140  175.3010  141.4550 C   0  0  2  0  0  3  0  0  0  0  0  0
  194.7110  176.1480  141.2970 S   0  0  0  0  0  0  0  0  0  0  0  0
  195.0000  174.3600  141.3650 C   0  0  0  0  0  2  0  0  0  0  0  0
  3  4  1  0  0  0  0
  4  2  1  6  0  0  0
  4  1  1  0  0  0  0
  4 40  1  0  0  0  0
  5 17  1  1  0  0  0
  5  1  1  0  0  0  0
  6  8  1  0  0  0  0
  7  6  2  0  0  0  0
  8  3  1  0  0  0  0
  8  5  1  0  0  0  0
  9 11  1  0  0  0  0
 10  9  1  0  0  0  0
 10 14  1  0  0  0  0
 11 16  1  0  0  0  0
 12 13  2  0  0  0  0
 12 15  1  0  0  0  0
 14 12  1  0  0  0  0
 15  6  1  1  0  0  0
 16 15  1  0  0  0  0
 17 19  1  0  0  0  0
 18 17  2  0  0  0  0
 19 20  1  0  0  0  0
 21 28  1  6  0  0  0
 21 27  1  0  0  0  0
 22 26  1  6  0  0  0
 22 27  1  0  0  0  0
 23 20  1  6  0  0  0
 24 22  1  0  0  0  0
 25 23  1  0  0  0  0
 25 21  1  0  0  0  0
 26 23  1  0  0  0  0
 27 24  1  6  0  0  0
 29 28  1  6  0  0  0
 29 38  1  0  0  0  0
 30 39  1  0  0  0  0
 31 29  1  0  0  0  0
 32 38  2  0  0  0  0
 34 31  2  0  0  0  0
 35 33  2  0  0  0  0
 35 30  1  0  0  0  0
 36 35  1  0  0  0  0
 37 31  1  0  0  0  0
 37 39  2  0  0  0  0
 39 32  1  0  0  0  0
 41 45  1  0  0  0  0
 41 44  1  0  0  0  0
 41 40  1  1  0  0  0
 42 44  2  0  0  0  0
 44 43  1  0  0  0  0
 47 46  1  0  0  0  0
 47 45  1  1  0  0  0
 48 49  1  0  0  0  0
 48 47  1  0  0  0  0
 49 46  1  0  0  0  0
M  END
>  <MODEL>
7

>  <REMARK>
 VINA RESULT:      -6.2      2.821      7.627
  Name = 
  12 active torsions:
  status: ('A' for Active; 'I' for Inactive)
    1  A    between atoms: C_2  and  C_49
    2  A    between atoms: C_3  and  C_49
    3  A    between atoms: O_5  and  C_34
    4  A    between atoms: O_5  and  C_39
    5  A    between atoms: C_14  and  O_20
    6  A    between atoms: C_16  and  C_32
    7  A    between atoms: C_17  and  C_39
    8  A    between atoms: C_19  and  C_34
    9  A    between atoms: O_20  and  C_31
   10  A    between atoms: C_31  and  C_32
   11  A    between atoms: C_31  and  C_46
   12  A    between atoms: C_35  and  C_44
                            x       y       z     vdW  Elec       q    Type
                         _______ _______ _______ _____ _____    ______ ____

>  <TORSDO>
F 12

$$$$
=
 OpenBabel11062420273D

 49 54  0  0  1  0  0  0  0  0999 V2000
  191.0350  170.8620  142.1530 C   0  0  0  0  0  2  0  0  0  0  0  0
  191.9890  170.6670  139.9690 F   0  0  0  0  0  0  0  0  0  0  0  0
  193.1200  171.9820  141.5870 C   0  0  0  0  0  2  0  0  0  0  0  0
  191.7820  171.5530  141.0130 C   0  0  2  0  0  0  0  0  0  0  0  0
  191.7290  171.2750  143.4410 C   0  0  1  0  0  3  0  0  0  0  0  0
  194.0620  172.1560  143.9340 C   0  0  0  0  0  0  0  0  0  0  0  0
  193.9430  171.8810  145.1600 O   0  0  0  0  0  0  0  0  0  0  0  0
  193.0030  171.8310  143.0240 N   0  0  0  0  0  0  0  0  0  0  0  0
  196.7120  172.8330  146.1390 C   0  0  0  0  0  2  0  0  0  0  0  0
  197.0950  174.0300  145.5240 O   0  0  0  0  0  0  0  0  0  0  0  0
  196.8480  171.6450  145.1830 C   0  0  0  0  0  2  0  0  0  0  0  0
  195.4560  174.2500  143.8100 C   0  0  0  0  0  0  0  0  0  0  0  0
  195.1540  175.1110  142.9990 O   0  0  0  0  0  0  0  0  0  0  0  0
  195.8900  174.6570  145.1870 C   0  0  0  0  0  2  0  0  0  0  0  0
  195.3230  172.7990  143.4280 C   0  0  1  0  0  3  0  0  0  0  0  0
  196.5910  171.9810  143.7060 C   0  0  0  0  0  2  0  0  0  0  0  0
  190.9140  172.3170  144.1370 C   0  0  0  0  0  0  0  0  0  0  0  0
  189.7660  172.0260  144.5640 O   0  0  0  0  0  0  0  0  0  0  0  0
  191.4230  173.6070  144.2870 O   0  0  0  0  0  0  0  0  0  0  0  0
  191.3170  174.3330  145.5040 C   0  0  0  0  0  2  0  0  0  0  0  0
  189.6930  177.6400  144.4810 C   0  0  1  0  0  3  0  0  0  0  0  0
  192.2360  177.7580  143.9090 C   0  0  2  0  0  3  0  0  0  0  0  0
  191.2070  175.8260  145.2260 C   0  0  2  0  0  3  0  0  0  0  0  0
  191.4150  177.8550  142.7640 O   0  0  0  0  0  0  0  0  0  0  0  0
  189.8840  176.1350  144.5620 C   0  0  0  0  0  2  0  0  0  0  0  0
  192.3270  176.2790  144.3060 C   0  0  0  0  0  2  0  0  0  0  0  0
  190.8970  178.4370  143.9340 C   0  0  1  0  0  3  0  0  0  0  0  0
  188.4490  177.9370  143.6650 C   0  0  0  0  0  2  0  0  0  0  0  0
  187.2470  177.1840  144.2090 C   0  0  2  0  0  3  0  0  0  0  0  0
  183.3270  178.7700  143.2520 N   0  0  0  0  0  2  0  0  0  0  0  0
  186.4080  176.6980  143.0590 C   0  0  0  0  0  0  0  0  0  0  0  0
  185.2550  178.5500  144.8280 C   0  0  0  0  0  3  0  0  0  0  0  0
  181.4320  179.1340  141.9600 O   0  0  0  0  0  0  0  0  0  0  0  0
  186.8340  175.7700  142.3210 O   0  0  0  0  0  0  0  0  0  0  0  0
  182.5810  178.6270  142.0360 C   0  0  0  0  0  0  0  0  0  0  0  0
  183.1290  177.9160  140.8460 C   0  0  0  0  0  1  0  0  0  0  0  0
  185.1420  177.3060  142.7700 N   0  0  0  0  0  0  0  0  0  0  0  0
  186.4620  178.0740  145.1390 C   0  0  0  0  0  3  0  0  0  0  0  0
  184.5990  178.1860  143.5600 C   0  0  0  0  0  0  0  0  0  0  0  0
  191.0280  172.7950  140.5360 C   0  0  0  0  0  2  0  0  0  0  0  0
  189.7780  172.4770  139.7150 C   0  0  1  0  0  3  0  0  0  0  0  0
  188.1890  174.2520  139.6500 O   0  0  0  0  0  0  0  0  0  0  0  0
  187.8760  172.7280  141.3750 N   0  0  0  0  0  1  0  0  0  0  0  0
  188.5790  173.2070  140.2310 C   0  0  0  0  0  0  0  0  0  0  0  0
  189.9950  172.8300  138.3800 O   0  0  0  0  0  0  0  0  0  0  0  0
  189.6520  170.5430  138.1020 N   0  0  0  0  0  2  0  0  0  0  0  0
  189.3080  171.8730  137.6280 C   0  0  2  0  0  3  0  0  0  0  0  0
  190.0530  171.7480  135.9790 S   0  0  0  0  0  0  0  0  0  0  0  0
  190.3210  170.1890  136.8630 C   0  0  0  0  0  2  0  0  0  0  0  0
  1  5  1  0  0  0  0
  3  8  1  0  0  0  0
  4  2  1  6  0  0  0
  4  3  1  0  0  0  0
  4  1  1  0  0  0  0
  5 17  1  6  0  0  0
  6  7  2  0  0  0  0
  8  5  1  0  0  0  0
  8  6  1  0  0  0  0
 10  9  1  0  0  0  0
 11  9  1  0  0  0  0
 12 14  1  0  0  0  0
 13 12  2  0  0  0  0
 14 10  1  0  0  0  0
 15 16  1  0  0  0  0
 15 12  1  0  0  0  0
 15  6  1  1  0  0  0
 16 11  1  0  0  0  0
 17 19  1  0  0  0  0
 17 18  2  0  0  0  0
 19 20  1  0  0  0  0
 21 28  1  6  0  0  0
 21 25  1  0  0  0  0
 22 27  1  0  0  0  0
 22 26  1  1  0  0  0
 23 20  1  6  0  0  0
 24 22  1  0  0  0  0
 25 23  1  0  0  0  0
 26 23  1  0  0  0  0
 27 24  1  6  0  0  0
 27 21  1  0  0  0  0
 29 28  1  6  0  0  0
 29 38  1  0  0  0  0
 30 39  1  0  0  0  0
 31 29  1  0  0  0  0
 32 38  2  0  0  0  0
 33 35  2  0  0  0  0
 34 31  2  0  0  0  0
 35 30  1  0  0  0  0
 36 35  1  0  0  0  0
 37 31  1  0  0  0  0
 37 39  2  0  0  0  0
 39 32  1  0  0  0  0
 40  4  1  0  0  0  0
 41 44  1  0  0  0  0
 41 40  1  1  0  0  0
 42 44  2  0  0  0  0
 44 43  1  0  0  0  0
 45 41  1  0  0  0  0
 47 46  1  0  0  0  0
 47 45  1  1  0  0  0
 48 49  1  0  0  0  0
 48 47  1  0  0  0  0
 49 46  1  0  0  0  0
M  END
>  <MODEL>
8

>  <REMARK>
 VINA RESULT:      -6.1      3.736      7.391
  Name = 
  12 active torsions:
  status: ('A' for Active; 'I' for Inactive)
    1  A    between atoms: C_2  and  C_49
    2  A    between atoms: C_3  and  C_49
    3  A    between atoms: O_5  and  C_34
    4  A    between atoms: O_5  and  C_39
    5  A    between atoms: C_14  and  O_20
    6  A    between atoms: C_16  and  C_32
    7  A    between atoms: C_17  and  C_39
    8  A    between atoms: C_19  and  C_34
    9  A    between atoms: O_20  and  C_31
   10  A    between atoms: C_31  and  C_32
   11  A    between atoms: C_31  and  C_46
   12  A    between atoms: C_35  and  C_44
                            x       y       z     vdW  Elec       q    Type
                         _______ _______ _______ _____ _____    ______ ____

>  <TORSDO>
F 12

$$$$
=
 OpenBabel11062420273D

 49 54  0  0  1  0  0  0  0  0999 V2000
  190.9970  174.3280  144.6620 C   0  0  0  0  0  2  0  0  0  0  0  0
  190.9130  171.9430  144.4980 F   0  0  0  0  0  0  0  0  0  0  0  0
  192.7820  173.0770  143.5800 C   0  0  0  0  0  2  0  0  0  0  0  0
  191.2820  173.0890  143.8140 C   0  0  2  0  0  0  0  0  0  0  0  0
  192.2150  175.2290  144.5410 C   0  0  1  0  0  3  0  0  0  0  0  0
  194.6350  174.7770  143.9070 C   0  0  0  0  0  0  0  0  0  0  0  0
  195.0060  175.8780  144.4000 O   0  0  0  0  0  0  0  0  0  0  0  0
  193.2600  174.3830  143.9920 N   0  0  0  0  0  0  0  0  0  0  0  0
  196.7990  172.8280  145.8730 C   0  0  0  0  0  2  0  0  0  0  0  0
  197.8970  172.9410  145.0140 O   0  0  0  0  0  0  0  0  0  0  0  0
  195.6200  172.1350  145.1840 C   0  0  0  0  0  2  0  0  0  0  0  0
  197.0540  174.3890  143.3220 C   0  0  0  0  0  0  0  0  0  0  0  0
  197.5250  174.9660  142.3550 O   0  0  0  0  0  0  0  0  0  0  0  0
  197.8700  174.2690  144.5760 C   0  0  0  0  0  2  0  0  0  0  0  0
  195.6420  173.8710  143.2550 C   0  0  1  0  0  3  0  0  0  0  0  0
  195.5160  172.4000  143.6750 C   0  0  0  0  0  2  0  0  0  0  0  0
  191.9150  176.3530  143.6020 C   0  0  0  0  0  0  0  0  0  0  0  0
  191.8420  176.1280  142.3650 O   0  0  0  0  0  0  0  0  0  0  0  0
  191.7440  177.6440  144.1020 O   0  0  0  0  0  0  0  0  0  0  0  0
  190.4770  178.2870  144.1350 C   0  0  0  0  0  2  0  0  0  0  0  0
  187.1990  176.3830  144.6290 C   0  0  1  0  0  3  0  0  0  0  0  0
  188.0940  177.1040  146.9710 C   0  0  2  0  0  3  0  0  0  0  0  0
  189.4480  177.4030  144.8240 C   0  0  2  0  0  3  0  0  0  0  0  0
  186.8460  177.6890  146.6620 O   0  0  0  0  0  0  0  0  0  0  0  0
  188.1450  177.4250  144.0570 C   0  0  0  0  0  2  0  0  0  0  0  0
  189.1850  177.8950  146.2370 C   0  0  0  0  0  2  0  0  0  0  0  0
  187.0490  176.3890  146.1660 C   0  0  1  0  0  3  0  0  0  0  0  0
  185.8420  176.5310  143.9650 C   0  0  0  0  0  2  0  0  0  0  0  0
  185.7430  177.8490  143.2150 C   0  0  2  0  0  3  0  0  0  0  0  0
  182.2750  178.4150  140.6750 N   0  0  0  0  0  2  0  0  0  0  0  0
  184.4970  178.5710  143.6510 C   0  0  0  0  0  0  0  0  0  0  0  0
  184.6750  177.7770  140.9630 C   0  0  0  0  0  3  0  0  0  0  0  0
  180.0730  178.9440  140.1610 O   0  0  0  0  0  0  0  0  0  0  0  0
  184.4320  179.0630  144.8090 O   0  0  0  0  0  0  0  0  0  0  0  0
  180.9450  178.7920  141.0550 C   0  0  0  0  0  0  0  0  0  0  0  0
  180.5500  178.9880  142.4790 C   0  0  0  0  0  1  0  0  0  0  0  0
  183.3680  178.6750  142.7750 N   0  0  0  0  0  0  0  0  0  0  0  0
  185.7520  177.5940  141.7290 C   0  0  0  0  0  3  0  0  0  0  0  0
  183.4170  178.2900  141.5330 C   0  0  0  0  0  0  0  0  0  0  0  0
  190.5730  173.1740  142.4630 C   0  0  0  0  0  2  0  0  0  0  0  0
  189.3270  172.2920  142.3670 C   0  0  1  0  0  3  0  0  0  0  0  0
  187.4170  172.3390  140.9420 O   0  0  0  0  0  0  0  0  0  0  0  0
  188.0270  174.4010  141.8210 N   0  0  0  0  0  1  0  0  0  0  0  0
  188.2060  172.9950  141.6690 C   0  0  0  0  0  0  0  0  0  0  0  0
  189.6390  171.1180  141.6750 O   0  0  0  0  0  0  0  0  0  0  0  0
  190.1270  171.1350  139.3980 N   0  0  0  0  0  2  0  0  0  0  0  0
  190.5940  171.4910  140.7270 C   0  0  2  0  0  3  0  0  0  0  0  0
  192.0050  170.3540  140.8060 S   0  0  0  0  0  0  0  0  0  0  0  0
  191.1730  170.1470  139.2090 C   0  0  0  0  0  2  0  0  0  0  0  0
  3  4  1  0  0  0  0
  3  8  1  0  0  0  0
  4  2  1  1  0  0  0
  4  1  1  0  0  0  0
  5 17  1  6  0  0  0
  5  1  1  0  0  0  0
  6  8  1  0  0  0  0
  6  7  2  0  0  0  0
  8  5  1  0  0  0  0
 10  9  1  0  0  0  0
 11  9  1  0  0  0  0
 12 14  1  0  0  0  0
 13 12  2  0  0  0  0
 14 10  1  0  0  0  0
 15 12  1  0  0  0  0
 15 16  1  0  0  0  0
 15  6  1  1  0  0  0
 16 11  1  0  0  0  0
 17 19  1  0  0  0  0
 18 17  2  0  0  0  0
 19 20  1  0  0  0  0
 21 28  1  6  0  0  0
 21 27  1  0  0  0  0
 22 26  1  6  0  0  0
 23 20  1  6  0  0  0
 23 26  1  0  0  0  0
 24 22  1  0  0  0  0
 25 21  1  0  0  0  0
 25 23  1  0  0  0  0
 27 24  1  6  0  0  0
 27 22  1  0  0  0  0
 29 31  1  0  0  0  0
 29 28  1  1  0  0  0
 30 35  1  0  0  0  0
 30 39  1  0  0  0  0
 31 34  2  0  0  0  0
 32 39  1  0  0  0  0
 32 38  2  0  0  0  0
 33 35  2  0  0  0  0
 35 36  1  0  0  0  0
 37 31  1  0  0  0  0
 38 29  1  0  0  0  0
 39 37  2  0  0  0  0
 40  4  1  0  0  0  0
 41 40  1  6  0  0  0
 42 44  2  0  0  0  0
 44 43  1  0  0  0  0
 44 41  1  0  0  0  0
 45 41  1  0  0  0  0
 46 47  1  0  0  0  0
 47 48  1  0  0  0  0
 47 45  1  1  0  0  0
 49 46  1  0  0  0  0
 49 48  1  0  0  0  0
M  END
>  <MODEL>
9

>  <REMARK>
 VINA RESULT:      -6.1      4.053      7.898
  Name = 
  12 active torsions:
  status: ('A' for Active; 'I' for Inactive)
    1  A    between atoms: C_2  and  C_49
    2  A    between atoms: C_3  and  C_49
    3  A    between atoms: O_5  and  C_34
    4  A    between atoms: O_5  and  C_39
    5  A    between atoms: C_14  and  O_20
    6  A    between atoms: C_16  and  C_32
    7  A    between atoms: C_17  and  C_39
    8  A    between atoms: C_19  and  C_34
    9  A    between atoms: O_20  and  C_31
   10  A    between atoms: C_31  and  C_32
   11  A    between atoms: C_31  and  C_46
   12  A    between atoms: C_35  and  C_44
                            x       y       z     vdW  Elec       q    Type
                         _______ _______ _______ _____ _____    ______ ____

>  <TORSDO>
F 12

$$$$
