=
 OpenBabel11062420023D

 42 47  0  0  1  0  0  0  0  0999 V2000
  189.9440  177.3260  144.7170 C   0  0  0  0  0  0  0  0  0  0  0  0
  190.6500  178.2720  144.2730 O   0  0  0  0  0  0  0  0  0  0  0  0
  188.3340  175.8990  146.8620 F   0  0  0  0  0  0  0  0  0  0  0  0
  185.7840  177.1310  147.0110 C   0  0  0  0  0  2  0  0  0  0  0  0
  185.4550  176.6140  145.6070 C   0  0  0  0  0  2  0  0  0  0  0  0
  187.0750  177.9460  147.1510 C   0  0  0  0  0  2  0  0  0  0  0  0
  188.3220  177.2590  146.5930 C   0  0  2  0  0  3  0  0  0  0  0  0
  188.5170  177.5600  145.1000 C   0  0  2  0  0  3  0  0  0  0  0  0
  187.4810  176.8600  144.1980 C   0  0  1  0  0  3  0  0  0  0  0  0
  186.0860  177.4200  144.4860 C   0  0  0  0  0  2  0  0  0  0  0  0
  187.8130  176.9970  142.6990 C   0  0  0  0  0  2  0  0  0  0  0  0
  190.2980  171.3620  141.0900 C   0  0  0  0  0  0  0  0  0  0  0  0
  188.4840  174.3310  138.8310 O   0  0  0  0  0  0  0  0  0  0  0  0
  187.9770  175.6520  142.0610 C   0  0  0  0  0  0  0  0  0  0  0  0
  188.4160  174.3370  140.0860 C   0  0  0  0  0  0  0  0  0  0  0  0
  189.7060  172.2470  140.3420 N   0  0  0  0  0  0  0  0  0  0  0  0
  190.0280  171.3170  142.4910 N   0  0  0  0  0  2  0  0  0  0  0  0
  188.0850  175.5560  140.7680 N   0  0  0  0  0  0  0  0  0  0  0  0
  189.3290  172.4060  143.1050 C   0  0  0  0  0  3  0  0  0  0  0  0
  188.6050  173.0620  140.8580 C   0  0  1  0  0  3  0  0  0  0  0  0
  191.3500  170.4910  140.5080 C   0  0  0  0  0  1  0  0  0  0  0  0
  188.7300  173.3120  142.3370 C   0  0  0  0  0  0  0  0  0  0  0  0
  188.2340  174.5210  142.9020 N   0  0  0  0  0  2  0  0  0  0  0  0
  190.4500  176.0300  144.7620 O   0  0  0  0  0  0  0  0  0  0  0  0
  191.8450  175.7640  144.8770 C   0  0  2  0  0  3  0  0  0  0  0  0
  194.2660  173.7290  142.7380 N   0  0  0  0  0  0  0  0  0  0  0  0
  191.9340  175.3010  142.3960 C   0  0  0  0  0  2  0  0  0  0  0  0
  192.2870  174.7650  143.7940 C   0  0  1  0  0  3  0  0  0  0  0  0
  195.2650  172.7190  142.9000 C   0  0  0  0  0  0  0  0  0  0  0  0
  193.7990  174.4960  143.8930 C   0  0  0  0  0  2  0  0  0  0  0  0
  196.0020  172.4000  141.9220 O   0  0  0  0  0  0  0  0  0  0  0  0
  193.9030  174.1910  141.4000 C   0  0  0  0  0  2  0  0  0  0  0  0
  192.3960  174.3340  141.3180 C   0  0  0  0  0  2  0  0  0  0  0  0
  195.4000  172.0670  144.1310 O   0  0  0  0  0  0  0  0  0  0  0  0
  194.8810  169.5610  145.0830 C   0  0  0  0  0  1  0  0  0  0  0  0
  196.6040  171.3930  144.5100 C   0  0  1  0  0  3  0  0  0  0  0  0
  197.1960  169.7330  146.2650 C   0  0  2  0  0  3  0  0  0  0  0  0
  196.5780  171.0970  146.0000 C   0  0  2  0  0  3  0  0  0  0  0  0
  196.3570  169.9720  145.0040 C   0  0  2  0  0  0  0  0  0  0  0  0
  196.4410  169.0340  147.3850 C   0  0  0  0  0  1  0  0  0  0  0  0
  192.4030  176.2610  147.1610 O   0  0  0  0  0  1  0  0  0  0  0  0
  192.1130  175.2190  146.2740 C   0  0  0  0  0  2  0  0  0  0  0  0
  1 24  1  0  0  0  0
  2  1  2  0  0  0  0
  4  6  1  0  0  0  0
  5  4  1  0  0  0  0
  7  3  1  6  0  0  0
  7  6  1  0  0  0  0
  8  1  1  6  0  0  0
  8  7  1  0  0  0  0
  9 11  1  6  0  0  0
  9 10  1  0  0  0  0
  9  8  1  0  0  0  0
 10  5  1  0  0  0  0
 12 17  1  0  0  0  0
 13 15  2  0  0  0  0
 14 11  1  0  0  0  0
 14 23  1  0  0  0  0
 15 18  1  0  0  0  0
 16 20  1  0  0  0  0
 16 12  2  0  0  0  0
 17 19  1  0  0  0  0
 18 14  2  0  0  0  0
 20 15  1  6  0  0  0
 20 22  1  0  0  0  0
 21 12  1  0  0  0  0
 22 23  1  0  0  0  0
 22 19  2  0  0  0  0
 24 25  1  0  0  0  0
 25 42  1  1  0  0  0
 26 29  1  0  0  0  0
 26 30  1  0  0  0  0
 27 28  1  0  0  0  0
 28 30  1  0  0  0  0
 28 25  1  1  0  0  0
 29 34  1  0  0  0  0
 31 29  2  0  0  0  0
 32 26  1  0  0  0  0
 33 32  1  0  0  0  0
 33 27  1  0  0  0  0
 36 34  1  1  0  0  0
 36 39  1  0  0  0  0
 36 38  1  0  0  0  0
 37 40  1  1  0  0  0
 38 37  1  0  0  0  0
 39 35  1  0  0  0  0
 39 38  1  0  0  0  0
 39 37  1  0  0  0  0
 42 41  1  0  0  0  0
M  END
>  <MODEL>
1

>  <REMARK>
 VINA RESULT:      -7.7      0.000      0.000
  Name = 
  9 active torsions:
  status: ('A' for Active; 'I' for Inactive)
    1  A    between atoms: C_2  and  O_36
    2  A    between atoms: C_3  and  C_16
    3  A    between atoms: C_3  and  C_29
    4  A    between atoms: O_4  and  C_8
    5  A    between atoms: O_4  and  C_30
    6  A    between atoms: C_8  and  C_25
    7  A    between atoms: C_21  and  C_30
    8  A    between atoms: C_28  and  O_36
    9  A    between atoms: C_30  and  C_42
                            x       y       z     vdW  Elec       q    Type
                         _______ _______ _______ _____ _____    ______ ____

>  <TORSDO>
F 9

$$$$
=
 OpenBabel11062420023D

 42 47  0  0  1  0  0  0  0  0999 V2000
  191.7980  172.9490  141.3650 C   0  0  0  0  0  0  0  0  0  0  0  0
  192.0190  172.2030  142.3570 O   0  0  0  0  0  0  0  0  0  0  0  0
  191.5810  173.7800  138.4510 F   0  0  0  0  0  0  0  0  0  0  0  0
  189.2800  172.5380  137.3530 C   0  0  0  0  0  2  0  0  0  0  0  0
  188.3890  173.3910  138.2610 C   0  0  0  0  0  2  0  0  0  0  0  0
  190.3750  171.7200  138.0480 C   0  0  0  0  0  2  0  0  0  0  0  0
  191.2810  172.5320  138.9750 C   0  0  2  0  0  3  0  0  0  0  0  0
  190.7060  172.6190  140.3970 C   0  0  2  0  0  3  0  0  0  0  0  0
  189.4590  173.5190  140.4950 C   0  0  1  0  0  3  0  0  0  0  0  0
  188.3120  172.8970  139.6940 C   0  0  0  0  0  2  0  0  0  0  0  0
  189.0210  173.7670  141.9520 C   0  0  0  0  0  2  0  0  0  0  0  0
  185.9660  178.9110  144.1280 C   0  0  0  0  0  0  0  0  0  0  0  0
  187.0860  177.7730  140.3000 O   0  0  0  0  0  0  0  0  0  0  0  0
  188.6190  175.1960  142.1550 C   0  0  0  0  0  0  0  0  0  0  0  0
  187.5420  177.1840  141.3110 C   0  0  0  0  0  0  0  0  0  0  0  0
  186.3260  178.6170  142.9120 N   0  0  0  0  0  0  0  0  0  0  0  0
  186.6590  178.3340  145.2350 N   0  0  0  0  0  2  0  0  0  0  0  0
  188.1110  175.8730  141.1670 N   0  0  0  0  0  0  0  0  0  0  0  0
  187.5510  177.2370  145.0090 C   0  0  0  0  0  3  0  0  0  0  0  0
  187.5600  177.8770  142.6440 C   0  0  1  0  0  3  0  0  0  0  0  0
  184.7570  179.7400  144.3590 C   0  0  0  0  0  1  0  0  0  0  0  0
  187.9120  176.9350  143.7640 C   0  0  0  0  0  0  0  0  0  0  0  0
  188.6000  175.7200  143.4870 N   0  0  0  0  0  2  0  0  0  0  0  0
  192.4970  174.1430  141.2110 O   0  0  0  0  0  0  0  0  0  0  0  0
  193.9090  174.1770  141.0310 C   0  0  2  0  0  3  0  0  0  0  0  0
  194.8560  176.4040  143.9850 N   0  0  0  0  0  0  0  0  0  0  0  0
  196.1250  174.6700  142.1390 C   0  0  0  0  0  2  0  0  0  0  0  0
  194.6040  174.5730  142.3460 C   0  0  1  0  0  3  0  0  0  0  0  0
  194.2280  177.0580  145.0900 C   0  0  0  0  0  0  0  0  0  0  0  0
  194.0530  175.9110  142.8670 C   0  0  0  0  0  2  0  0  0  0  0  0
  194.8860  177.8820  145.7910 O   0  0  0  0  0  0  0  0  0  0  0  0
  196.3080  176.4610  143.8300 C   0  0  0  0  0  2  0  0  0  0  0  0
  196.8160  175.0920  143.4250 C   0  0  0  0  0  2  0  0  0  0  0  0
  192.8980  176.7610  145.4090 O   0  0  0  0  0  0  0  0  0  0  0  0
  191.4540  174.4430  145.3680 C   0  0  0  0  0  1  0  0  0  0  0  0
  192.4980  176.3710  146.7270 C   0  0  1  0  0  3  0  0  0  0  0  0
  190.5160  175.2060  147.6760 C   0  0  2  0  0  3  0  0  0  0  0  0
  190.9820  176.3770  146.8230 C   0  0  2  0  0  3  0  0  0  0  0  0
  191.7270  175.0560  146.7480 C   0  0  2  0  0  0  0  0  0  0  0  0
  189.2270  174.6340  147.1050 C   0  0  0  0  0  1  0  0  0  0  0  0
  194.7510  174.5080  138.8050 O   0  0  0  0  0  1  0  0  0  0  0  0
  194.2250  175.1700  139.9200 C   0  0  0  0  0  2  0  0  0  0  0  0
  1  2  2  0  0  0  0
  4  6  1  0  0  0  0
  4  5  1  0  0  0  0
  5 10  1  0  0  0  0
  6  7  1  0  0  0  0
  7  3  1  6  0  0  0
  7  8  1  0  0  0  0
  8  9  1  0  0  0  0
  8  1  1  1  0  0  0
  9 11  1  1  0  0  0
 10  9  1  0  0  0  0
 11 14  1  0  0  0  0
 12 21  1  0  0  0  0
 12 17  1  0  0  0  0
 13 15  2  0  0  0  0
 14 23  1  0  0  0  0
 16 12  2  0  0  0  0
 18 15  1  0  0  0  0
 18 14  2  0  0  0  0
 19 17  1  0  0  0  0
 20 15  1  6  0  0  0
 20 16  1  0  0  0  0
 20 22  1  0  0  0  0
 22 19  2  0  0  0  0
 23 22  1  0  0  0  0
 24  1  1  0  0  0  0
 25 42  1  6  0  0  0
 25 24  1  0  0  0  0
 26 29  1  0  0  0  0
 27 28  1  0  0  0  0
 27 33  1  0  0  0  0
 28 25  1  6  0  0  0
 28 30  1  0  0  0  0
 29 34  1  0  0  0  0
 29 31  2  0  0  0  0
 30 26  1  0  0  0  0
 32 26  1  0  0  0  0
 33 32  1  0  0  0  0
 35 39  1  0  0  0  0
 36 34  1  6  0  0  0
 36 39  1  0  0  0  0
 36 38  1  0  0  0  0
 37 40  1  6  0  0  0
 38 37  1  0  0  0  0
 39 38  1  0  0  0  0
 39 37  1  0  0  0  0
 41 42  1  0  0  0  0
M  END
>  <MODEL>
2

>  <REMARK>
 VINA RESULT:      -7.6      3.293      6.690
  Name = 
  9 active torsions:
  status: ('A' for Active; 'I' for Inactive)
    1  A    between atoms: C_2  and  O_36
    2  A    between atoms: C_3  and  C_16
    3  A    between atoms: C_3  and  C_29
    4  A    between atoms: O_4  and  C_8
    5  A    between atoms: O_4  and  C_30
    6  A    between atoms: C_8  and  C_25
    7  A    between atoms: C_21  and  C_30
    8  A    between atoms: C_28  and  O_36
    9  A    between atoms: C_30  and  C_42
                            x       y       z     vdW  Elec       q    Type
                         _______ _______ _______ _____ _____    ______ ____

>  <TORSDO>
F 9

$$$$
=
 OpenBabel11062420023D

 42 47  0  0  1  0  0  0  0  0999 V2000
  194.0970  175.6690  145.2510 C   0  0  0  0  0  0  0  0  0  0  0  0
  194.2060  175.8970  146.4860 O   0  0  0  0  0  0  0  0  0  0  0  0
  195.0050  176.5590  142.4910 F   0  0  0  0  0  0  0  0  0  0  0  0
  197.4220  175.2070  141.8840 C   0  0  0  0  0  2  0  0  0  0  0  0
  196.6630  173.8770  141.8370 C   0  0  0  0  0  2  0  0  0  0  0  0
  197.2690  176.0320  143.1660 C   0  0  0  0  0  2  0  0  0  0  0  0
  195.8210  176.2970  143.5810 C   0  0  2  0  0  3  0  0  0  0  0  0
  195.2680  175.1700  144.4650 C   0  0  2  0  0  3  0  0  0  0  0  0
  195.0210  173.8580  143.6950 C   0  0  1  0  0  3  0  0  0  0  0  0
  196.3550  173.2910  143.2030 C   0  0  0  0  0  2  0  0  0  0  0  0
  194.2730  172.8070  144.5400 C   0  0  0  0  0  2  0  0  0  0  0  0
  189.5680  172.3140  140.2810 C   0  0  0  0  0  0  0  0  0  0  0  0
  189.6170  171.8990  144.4080 O   0  0  0  0  0  0  0  0  0  0  0  0
  193.0700  172.2910  143.8110 C   0  0  0  0  0  0  0  0  0  0  0  0
  190.6850  171.9340  143.7470 C   0  0  0  0  0  0  0  0  0  0  0  0
  189.5370  172.1390  141.5700 N   0  0  0  0  0  0  0  0  0  0  0  0
  190.7960  172.1550  139.5700 N   0  0  0  0  0  2  0  0  0  0  0  0
  191.9170  172.2480  144.4130 N   0  0  0  0  0  0  0  0  0  0  0  0
  192.0250  172.0790  140.3020 C   0  0  0  0  0  3  0  0  0  0  0  0
  190.6810  171.5740  142.2880 C   0  0  1  0  0  3  0  0  0  0  0  0
  188.3580  172.8040  139.5740 C   0  0  0  0  0  1  0  0  0  0  0  0
  191.9890  171.9070  141.6210 C   0  0  0  0  0  0  0  0  0  0  0  0
  193.1690  172.0620  142.4010 N   0  0  0  0  0  2  0  0  0  0  0  0
  192.8620  175.7810  144.6200 O   0  0  0  0  0  0  0  0  0  0  0  0
  191.9240  176.7970  144.9620 C   0  0  2  0  0  3  0  0  0  0  0  0
  188.4570  176.5600  146.5430 N   0  0  0  0  0  0  0  0  0  0  0  0
  190.7600  174.9420  146.2210 C   0  0  0  0  0  2  0  0  0  0  0  0
  190.5640  176.1700  145.3150 C   0  0  1  0  0  3  0  0  0  0  0  0
  187.1950  177.2310  146.4870 C   0  0  0  0  0  0  0  0  0  0  0  0
  189.6570  177.2010  146.0070 C   0  0  0  0  0  2  0  0  0  0  0  0
  186.2910  176.9430  147.3260 O   0  0  0  0  0  0  0  0  0  0  0  0
  188.6140  175.3640  147.3680 C   0  0  0  0  0  2  0  0  0  0  0  0
  189.4180  174.3350  146.6000 C   0  0  0  0  0  2  0  0  0  0  0  0
  186.9560  178.1780  145.4860 O   0  0  0  0  0  0  0  0  0  0  0  0
  185.2310  179.7870  144.1090 C   0  0  0  0  0  1  0  0  0  0  0  0
  186.9100  177.8290  144.0990 C   0  0  1  0  0  3  0  0  0  0  0  0
  185.1450  177.8710  142.3470 C   0  0  2  0  0  3  0  0  0  0  0  0
  185.5090  177.3660  143.7340 C   0  0  2  0  0  3  0  0  0  0  0  0
  185.9900  178.7360  143.2890 C   0  0  2  0  0  0  0  0  0  0  0  0
  183.6740  178.2560  142.3090 C   0  0  0  0  0  1  0  0  0  0  0  0
  191.0380  177.1740  142.7610 O   0  0  0  0  0  1  0  0  0  0  0  0
  191.8020  177.7510  143.7810 C   0  0  0  0  0  2  0  0  0  0  0  0
  1  2  2  0  0  0  0
  4  6  1  0  0  0  0
  5  4  1  0  0  0  0
  5 10  1  0  0  0  0
  6  7  1  0  0  0  0
  7  3  1  6  0  0  0
  7  8  1  0  0  0  0
  8  1  1  6  0  0  0
  9  8  1  0  0  0  0
  9 11  1  1  0  0  0
 10  9  1  0  0  0  0
 12 16  2  0  0  0  0
 14 18  2  0  0  0  0
 14 11  1  0  0  0  0
 15 13  2  0  0  0  0
 15 18  1  0  0  0  0
 17 12  1  0  0  0  0
 17 19  1  0  0  0  0
 19 22  2  0  0  0  0
 20 16  1  6  0  0  0
 20 15  1  0  0  0  0
 21 12  1  0  0  0  0
 22 20  1  0  0  0  0
 22 23  1  0  0  0  0
 23 14  1  0  0  0  0
 24 25  1  0  0  0  0
 24  1  1  0  0  0  0
 25 42  1  6  0  0  0
 26 32  1  0  0  0  0
 27 33  1  0  0  0  0
 28 25  1  1  0  0  0
 28 30  1  0  0  0  0
 28 27  1  0  0  0  0
 29 26  1  0  0  0  0
 29 31  2  0  0  0  0
 30 26  1  0  0  0  0
 33 32  1  0  0  0  0
 34 29  1  0  0  0  0
 36 34  1  1  0  0  0
 37 40  1  1  0  0  0
 37 39  1  0  0  0  0
 37 38  1  0  0  0  0
 38 36  1  0  0  0  0
 39 38  1  0  0  0  0
 39 36  1  0  0  0  0
 39 35  1  0  0  0  0
 41 42  1  0  0  0  0
M  END
>  <MODEL>
3

>  <REMARK>
 VINA RESULT:      -7.6      2.901      8.376
  Name = 
  9 active torsions:
  status: ('A' for Active; 'I' for Inactive)
    1  A    between atoms: C_2  and  O_36
    2  A    between atoms: C_3  and  C_16
    3  A    between atoms: C_3  and  C_29
    4  A    between atoms: O_4  and  C_8
    5  A    between atoms: O_4  and  C_30
    6  A    between atoms: C_8  and  C_25
    7  A    between atoms: C_21  and  C_30
    8  A    between atoms: C_28  and  O_36
    9  A    between atoms: C_30  and  C_42
                            x       y       z     vdW  Elec       q    Type
                         _______ _______ _______ _____ _____    ______ ____

>  <TORSDO>
F 9

$$$$
=
 OpenBabel11062420023D

 42 47  0  0  1  0  0  0  0  0999 V2000
  188.2000  177.3830  145.7960 C   0  0  0  0  0  0  0  0  0  0  0  0
  187.9550  177.5340  147.0230 O   0  0  0  0  0  0  0  0  0  0  0  0
  185.1930  177.0000  145.5870 F   0  0  0  0  0  0  0  0  0  0  0  0
  184.2540  178.5850  143.4320 C   0  0  0  0  0  2  0  0  0  0  0  0
  185.0150  177.6930  142.4470 C   0  0  0  0  0  2  0  0  0  0  0  0
  185.0750  179.1950  144.5730 C   0  0  0  0  0  2  0  0  0  0  0  0
  185.8880  178.1820  145.3810 C   0  0  2  0  0  3  0  0  0  0  0  0
  187.2740  177.9430  144.7630 C   0  0  2  0  0  3  0  0  0  0  0  0
  187.2220  177.1530  143.4410 C   0  0  1  0  0  3  0  0  0  0  0  0
  186.5040  177.9820  142.3740 C   0  0  0  0  0  2  0  0  0  0  0  0
  188.6210  176.7390  142.9440 C   0  0  0  0  0  2  0  0  0  0  0  0
  190.4070  171.0620  140.6840 C   0  0  0  0  0  0  0  0  0  0  0  0
  188.2740  174.1760  138.9650 O   0  0  0  0  0  0  0  0  0  0  0  0
  188.5730  175.4090  142.2540 C   0  0  0  0  0  0  0  0  0  0  0  0
  188.4920  174.1440  140.2020 C   0  0  0  0  0  0  0  0  0  0  0  0
  189.7040  171.9950  140.1110 N   0  0  0  0  0  0  0  0  0  0  0  0
  190.4580  170.9810  142.1090 N   0  0  0  0  0  2  0  0  0  0  0  0
  188.3810  175.3520  140.9690 N   0  0  0  0  0  0  0  0  0  0  0  0
  189.9690  172.0770  142.8900 C   0  0  0  0  0  3  0  0  0  0  0  0
  188.7890  172.8370  140.8820 C   0  0  1  0  0  3  0  0  0  0  0  0
  191.2580  170.1670  139.8590 C   0  0  0  0  0  1  0  0  0  0  0  0
  189.2560  173.0330  142.2990 C   0  0  0  0  0  0  0  0  0  0  0  0
  188.9580  174.2420  142.9890 N   0  0  0  0  0  2  0  0  0  0  0  0
  189.3860  176.7830  145.3820 O   0  0  0  0  0  0  0  0  0  0  0  0
  190.2620  176.1280  146.2940 C   0  0  2  0  0  3  0  0  0  0  0  0
  193.6680  175.2030  144.8370 N   0  0  0  0  0  0  0  0  0  0  0  0
  192.6190  176.5490  147.0980 C   0  0  0  0  0  2  0  0  0  0  0  0
  191.7260  176.3310  145.8650 C   0  0  1  0  0  3  0  0  0  0  0  0
  194.2340  174.7830  143.5930 C   0  0  0  0  0  0  0  0  0  0  0  0
  192.2240  175.1220  145.0550 C   0  0  0  0  0  2  0  0  0  0  0  0
  195.4390  174.3970  143.5470 O   0  0  0  0  0  0  0  0  0  0  0  0
  194.5350  175.4570  145.9860 C   0  0  0  0  0  2  0  0  0  0  0  0
  194.0720  176.7190  146.6850 C   0  0  0  0  0  2  0  0  0  0  0  0
  193.4610  174.8300  142.4270 O   0  0  0  0  0  0  0  0  0  0  0  0
  194.5680  175.3040  139.9760 C   0  0  0  0  0  1  0  0  0  0  0  0
  193.3150  173.7000  141.5610 C   0  0  1  0  0  3  0  0  0  0  0  0
  193.0040  173.4080  139.1110 C   0  0  2  0  0  3  0  0  0  0  0  0
  192.4620  174.0810  140.3630 C   0  0  2  0  0  3  0  0  0  0  0  0
  193.9620  173.9120  140.1970 C   0  0  2  0  0  0  0  0  0  0  0  0
  192.8700  174.3490  137.9220 C   0  0  0  0  0  1  0  0  0  0  0  0
  189.0920  174.3670  147.4360 O   0  0  0  0  0  1  0  0  0  0  0  0
  189.8980  174.6500  146.3270 C   0  0  0  0  0  2  0  0  0  0  0  0
  1  2  2  0  0  0  0
  4  6  1  0  0  0  0
  5  4  1  0  0  0  0
  6  7  1  0  0  0  0
  7  3  1  6  0  0  0
  8  7  1  0  0  0  0
  8  1  1  1  0  0  0
  9 11  1  6  0  0  0
  9  8  1  0  0  0  0
 10  5  1  0  0  0  0
 10  9  1  0  0  0  0
 12 17  1  0  0  0  0
 13 15  2  0  0  0  0
 14 11  1  0  0  0  0
 14 23  1  0  0  0  0
 15 20  1  0  0  0  0
 15 18  1  0  0  0  0
 16 12  2  0  0  0  0
 17 19  1  0  0  0  0
 18 14  2  0  0  0  0
 20 16  1  6  0  0  0
 20 22  1  0  0  0  0
 21 12  1  0  0  0  0
 22 19  2  0  0  0  0
 22 23  1  0  0  0  0
 24  1  1  0  0  0  0
 24 25  1  0  0  0  0
 25 42  1  6  0  0  0
 26 30  1  0  0  0  0
 26 32  1  0  0  0  0
 28 25  1  1  0  0  0
 28 27  1  0  0  0  0
 29 26  1  0  0  0  0
 30 28  1  0  0  0  0
 31 29  2  0  0  0  0
 32 33  1  0  0  0  0
 33 27  1  0  0  0  0
 34 29  1  0  0  0  0
 35 39  1  0  0  0  0
 36 34  1  1  0  0  0
 37 40  1  6  0  0  0
 37 39  1  0  0  0  0
 37 38  1  0  0  0  0
 38 36  1  0  0  0  0
 39 38  1  0  0  0  0
 39 36  1  0  0  0  0
 42 41  1  0  0  0  0
M  END
>  <MODEL>
4

>  <REMARK>
 VINA RESULT:      -7.5      2.573      3.929
  Name = 
  9 active torsions:
  status: ('A' for Active; 'I' for Inactive)
    1  A    between atoms: C_2  and  O_36
    2  A    between atoms: C_3  and  C_16
    3  A    between atoms: C_3  and  C_29
    4  A    between atoms: O_4  and  C_8
    5  A    between atoms: O_4  and  C_30
    6  A    between atoms: C_8  and  C_25
    7  A    between atoms: C_21  and  C_30
    8  A    between atoms: C_28  and  O_36
    9  A    between atoms: C_30  and  C_42
                            x       y       z     vdW  Elec       q    Type
                         _______ _______ _______ _____ _____    ______ ____

>  <TORSDO>
F 9

$$$$
=
 OpenBabel11062420023D

 42 47  0  0  1  0  0  0  0  0999 V2000
  191.8910  175.2500  146.6100 C   0  0  0  0  0  0  0  0  0  0  0  0
  191.7980  175.2510  147.8670 O   0  0  0  0  0  0  0  0  0  0  0  0
  192.8140  177.2510  144.5180 F   0  0  0  0  0  0  0  0  0  0  0  0
  195.5560  176.7650  143.9880 C   0  0  0  0  0  2  0  0  0  0  0  0
  195.1940  175.4120  143.3670 C   0  0  0  0  0  2  0  0  0  0  0  0
  195.0510  177.0180  145.4120 C   0  0  0  0  0  2  0  0  0  0  0  0
  193.5500  176.7950  145.6020 C   0  0  2  0  0  3  0  0  0  0  0  0
  193.2310  175.3340  145.9490 C   0  0  2  0  0  3  0  0  0  0  0  0
  193.4300  174.3690  144.7640 C   0  0  1  0  0  3  0  0  0  0  0  0
  194.9120  174.3210  144.3840 C   0  0  0  0  0  2  0  0  0  0  0  0
  192.9080  172.9490  145.0610 C   0  0  0  0  0  2  0  0  0  0  0  0
  189.5330  172.8160  139.6660 C   0  0  0  0  0  0  0  0  0  0  0  0
  188.6500  171.5400  143.5120 O   0  0  0  0  0  0  0  0  0  0  0  0
  192.0250  172.4600  143.9550 C   0  0  0  0  0  0  0  0  0  0  0  0
  189.8240  171.8420  143.1830 C   0  0  0  0  0  0  0  0  0  0  0  0
  189.2200  172.3680  140.8470 N   0  0  0  0  0  0  0  0  0  0  0  0
  190.9050  172.9610  139.2990 N   0  0  0  0  0  2  0  0  0  0  0  0
  190.7850  172.1520  144.2030 N   0  0  0  0  0  0  0  0  0  0  0  0
  191.9140  172.8780  140.3120 C   0  0  0  0  0  3  0  0  0  0  0  0
  190.2350  171.8040  141.7380 C   0  0  1  0  0  3  0  0  0  0  0  0
  188.4650  173.2980  138.7530 C   0  0  0  0  0  1  0  0  0  0  0  0
  191.5890  172.4250  141.5210 C   0  0  0  0  0  0  0  0  0  0  0  0
  192.5000  172.5510  142.6070 N   0  0  0  0  0  2  0  0  0  0  0  0
  190.7600  175.0690  145.8190 O   0  0  0  0  0  0  0  0  0  0  0  0
  189.7220  176.0420  145.7460 C   0  0  2  0  0  3  0  0  0  0  0  0
  187.7010  176.7890  142.5940 N   0  0  0  0  0  0  0  0  0  0  0  0
  190.0470  175.3810  143.3300 C   0  0  0  0  0  2  0  0  0  0  0  0
  189.4710  176.4440  144.2820 C   0  0  1  0  0  3  0  0  0  0  0  0
  186.6960  177.7010  142.1460 C   0  0  0  0  0  0  0  0  0  0  0  0
  187.9660  176.6280  144.0230 C   0  0  0  0  0  2  0  0  0  0  0  0
  186.1320  177.5160  141.0270 O   0  0  0  0  0  0  0  0  0  0  0  0
  188.2770  175.8190  141.6640 C   0  0  0  0  0  2  0  0  0  0  0  0
  189.7750  175.7550  141.8820 C   0  0  0  0  0  2  0  0  0  0  0  0
  186.3640  178.8100  142.9310 O   0  0  0  0  0  0  0  0  0  0  0  0
  186.3110  179.4150  145.5940 C   0  0  0  0  0  1  0  0  0  0  0  0
  185.0290  179.0520  143.3860 C   0  0  1  0  0  3  0  0  0  0  0  0
  183.8160  178.6690  145.5230 C   0  0  2  0  0  3  0  0  0  0  0  0
  184.6480  178.0160  144.4300 C   0  0  2  0  0  3  0  0  0  0  0  0
  184.9650  179.4380  144.8590 C   0  0  2  0  0  0  0  0  0  0  0  0
  184.1770  178.0670  146.8730 C   0  0  0  0  0  1  0  0  0  0  0  0
  189.0280  177.7880  147.2450 O   0  0  0  0  0  1  0  0  0  0  0  0
  190.1360  177.2440  146.5850 C   0  0  0  0  0  2  0  0  0  0  0  0
  1  2  2  0  0  0  0
  4  6  1  0  0  0  0
  5  4  1  0  0  0  0
  5 10  1  0  0  0  0
  6  7  1  0  0  0  0
  7  3  1  6  0  0  0
  7  8  1  0  0  0  0
  8  1  1  6  0  0  0
  9 11  1  1  0  0  0
  9  8  1  0  0  0  0
 10  9  1  0  0  0  0
 12 16  2  0  0  0  0
 14 18  2  0  0  0  0
 14 11  1  0  0  0  0
 15 13  2  0  0  0  0
 15 18  1  0  0  0  0
 17 12  1  0  0  0  0
 17 19  1  0  0  0  0
 19 22  2  0  0  0  0
 20 16  1  6  0  0  0
 20 15  1  0  0  0  0
 21 12  1  0  0  0  0
 22 20  1  0  0  0  0
 22 23  1  0  0  0  0
 23 14  1  0  0  0  0
 24  1  1  0  0  0  0
 25 24  1  0  0  0  0
 25 42  1  1  0  0  0
 26 30  1  0  0  0  0
 27 28  1  0  0  0  0
 28 25  1  1  0  0  0
 29 26  1  0  0  0  0
 29 34  1  0  0  0  0
 30 28  1  0  0  0  0
 31 29  2  0  0  0  0
 32 33  1  0  0  0  0
 32 26  1  0  0  0  0
 33 27  1  0  0  0  0
 36 34  1  1  0  0  0
 36 38  1  0  0  0  0
 36 39  1  0  0  0  0
 37 40  1  1  0  0  0
 38 39  1  0  0  0  0
 38 37  1  0  0  0  0
 39 37  1  0  0  0  0
 39 35  1  0  0  0  0
 42 41  1  0  0  0  0
M  END
>  <MODEL>
5

>  <REMARK>
 VINA RESULT:      -7.3      2.922      7.818
  Name = 
  9 active torsions:
  status: ('A' for Active; 'I' for Inactive)
    1  A    between atoms: C_2  and  O_36
    2  A    between atoms: C_3  and  C_16
    3  A    between atoms: C_3  and  C_29
    4  A    between atoms: O_4  and  C_8
    5  A    between atoms: O_4  and  C_30
    6  A    between atoms: C_8  and  C_25
    7  A    between atoms: C_21  and  C_30
    8  A    between atoms: C_28  and  O_36
    9  A    between atoms: C_30  and  C_42
                            x       y       z     vdW  Elec       q    Type
                         _______ _______ _______ _____ _____    ______ ____

>  <TORSDO>
F 9

$$$$
=
 OpenBabel11062420023D

 42 47  0  0  1  0  0  0  0  0999 V2000
  189.9660  177.5200  144.8520 C   0  0  0  0  0  0  0  0  0  0  0  0
  190.6320  178.4270  144.2840 O   0  0  0  0  0  0  0  0  0  0  0  0
  188.2210  176.0680  146.8710 F   0  0  0  0  0  0  0  0  0  0  0  0
  185.6100  177.1650  146.7240 C   0  0  0  0  0  2  0  0  0  0  0  0
  185.4520  176.5930  145.3120 C   0  0  0  0  0  2  0  0  0  0  0  0
  186.8370  178.0520  146.9650 C   0  0  0  0  0  2  0  0  0  0  0  0
  188.1680  177.4180  146.5580 C   0  0  2  0  0  3  0  0  0  0  0  0
  188.4980  177.6870  145.0820 C   0  0  2  0  0  3  0  0  0  0  0  0
  187.5950  176.9080  144.1050 C   0  0  1  0  0  3  0  0  0  0  0  0
  186.1520  177.4010  144.2340 C   0  0  0  0  0  2  0  0  0  0  0  0
  188.0700  177.0210  142.6430 C   0  0  0  0  0  2  0  0  0  0  0  0
  190.3130  171.3750  140.7420 C   0  0  0  0  0  0  0  0  0  0  0  0
  188.1950  174.3250  138.7390 O   0  0  0  0  0  0  0  0  0  0  0  0
  188.1450  175.6700  141.9980 C   0  0  0  0  0  0  0  0  0  0  0  0
  188.3040  174.3410  139.9900 C   0  0  0  0  0  0  0  0  0  0  0  0
  189.6200  172.2540  140.0790 N   0  0  0  0  0  0  0  0  0  0  0  0
  190.2420  171.3400  142.1680 N   0  0  0  0  0  2  0  0  0  0  0  0
  188.0700  175.5650  140.7030 N   0  0  0  0  0  0  0  0  0  0  0  0
  189.6350  172.4330  142.8660 C   0  0  0  0  0  3  0  0  0  0  0  0
  188.6020  173.0720  140.7380 C   0  0  1  0  0  3  0  0  0  0  0  0
  191.2740  170.4990  140.0250 C   0  0  0  0  0  1  0  0  0  0  0  0
  188.9320  173.3340  142.1830 C   0  0  0  0  0  0  0  0  0  0  0  0
  188.5190  174.5470  142.8030 N   0  0  0  0  0  2  0  0  0  0  0  0
  190.5660  176.3070  145.1820 O   0  0  0  0  0  0  0  0  0  0  0  0
  191.6980  176.2300  146.0420 C   0  0  2  0  0  3  0  0  0  0  0  0
  194.7540  174.0380  145.3850 N   0  0  0  0  0  0  0  0  0  0  0  0
  194.0040  176.7600  145.1580 C   0  0  0  0  0  2  0  0  0  0  0  0
  192.9140  175.6820  145.2740 C   0  0  1  0  0  3  0  0  0  0  0  0
  195.0780  172.6550  145.2240 C   0  0  0  0  0  0  0  0  0  0  0  0
  193.4750  174.4320  145.9740 C   0  0  0  0  0  2  0  0  0  0  0  0
  196.2910  172.2920  145.1810 O   0  0  0  0  0  0  0  0  0  0  0  0
  195.7910  175.0560  145.2200 C   0  0  0  0  0  2  0  0  0  0  0  0
  195.2220  176.2160  144.4290 C   0  0  0  0  0  2  0  0  0  0  0  0
  194.0520  171.7130  145.0830 O   0  0  0  0  0  0  0  0  0  0  0  0
  193.9270  170.6150  142.5860 C   0  0  0  0  0  1  0  0  0  0  0  0
  194.2990  170.3040  145.1190 C   0  0  1  0  0  3  0  0  0  0  0  0
  193.4840  168.3560  143.8050 C   0  0  2  0  0  3  0  0  0  0  0  0
  193.0660  169.5570  144.6390 C   0  0  2  0  0  3  0  0  0  0  0  0
  194.2810  169.6640  143.7360 C   0  0  2  0  0  0  0  0  0  0  0  0
  192.5100  168.1660  142.6520 C   0  0  0  0  0  1  0  0  0  0  0  0
  191.1930  176.0960  148.3870 O   0  0  0  0  0  1  0  0  0  0  0  0
  191.3410  175.3360  147.2220 C   0  0  0  0  0  2  0  0  0  0  0  0
  1 24  1  0  0  0  0
  2  1  2  0  0  0  0
  4  6  1  0  0  0  0
  5  4  1  0  0  0  0
  7  3  1  6  0  0  0
  7  6  1  0  0  0  0
  8  1  1  1  0  0  0
  8  7  1  0  0  0  0
  9 11  1  6  0  0  0
  9 10  1  0  0  0  0
  9  8  1  0  0  0  0
 10  5  1  0  0  0  0
 12 17  1  0  0  0  0
 13 15  2  0  0  0  0
 14 11  1  0  0  0  0
 14 23  1  0  0  0  0
 15 18  1  0  0  0  0
 16 20  1  0  0  0  0
 16 12  2  0  0  0  0
 17 19  1  0  0  0  0
 18 14  2  0  0  0  0
 20 15  1  6  0  0  0
 20 22  1  0  0  0  0
 21 12  1  0  0  0  0
 22 23  1  0  0  0  0
 22 19  2  0  0  0  0
 24 25  1  0  0  0  0
 25 42  1  1  0  0  0
 26 30  1  0  0  0  0
 27 28  1  0  0  0  0
 28 30  1  0  0  0  0
 28 25  1  1  0  0  0
 29 26  1  0  0  0  0
 31 29  2  0  0  0  0
 32 26  1  0  0  0  0
 33 27  1  0  0  0  0
 33 32  1  0  0  0  0
 34 29  1  0  0  0  0
 35 39  1  0  0  0  0
 36 34  1  6  0  0  0
 37 40  1  6  0  0  0
 37 38  1  0  0  0  0
 38 36  1  0  0  0  0
 39 37  1  0  0  0  0
 39 38  1  0  0  0  0
 39 36  1  0  0  0  0
 42 41  1  0  0  0  0
M  END
>  <MODEL>
6

>  <REMARK>
 VINA RESULT:      -7.3      1.646      2.152
  Name = 
  9 active torsions:
  status: ('A' for Active; 'I' for Inactive)
    1  A    between atoms: C_2  and  O_36
    2  A    between atoms: C_3  and  C_16
    3  A    between atoms: C_3  and  C_29
    4  A    between atoms: O_4  and  C_8
    5  A    between atoms: O_4  and  C_30
    6  A    between atoms: C_8  and  C_25
    7  A    between atoms: C_21  and  C_30
    8  A    between atoms: C_28  and  O_36
    9  A    between atoms: C_30  and  C_42
                            x       y       z     vdW  Elec       q    Type
                         _______ _______ _______ _____ _____    ______ ____

>  <TORSDO>
F 9

$$$$
=
 OpenBabel11062420023D

 42 47  0  0  1  0  0  0  0  0999 V2000
  189.8070  173.4030  144.3470 C   0  0  0  0  0  0  0  0  0  0  0  0
  189.4430  172.3890  145.0020 O   0  0  0  0  0  0  0  0  0  0  0  0
  188.7590  174.5220  146.9690 F   0  0  0  0  0  0  0  0  0  0  0  0
  190.3100  176.8010  147.6340 C   0  0  0  0  0  2  0  0  0  0  0  0
  189.7350  177.5430  146.4230 C   0  0  0  0  0  2  0  0  0  0  0  0
  190.9640  175.4440  147.3530 C   0  0  0  0  0  2  0  0  0  0  0  0
  190.0860  174.4660  146.5710 C   0  0  2  0  0  3  0  0  0  0  0  0
  190.2460  174.6460  145.0540 C   0  0  2  0  0  3  0  0  0  0  0  0
  189.6170  175.9500  144.5260 C   0  0  1  0  0  3  0  0  0  0  0  0
  190.3690  177.1530  145.1000 C   0  0  0  0  0  2  0  0  0  0  0  0
  189.5990  176.0170  142.9850 C   0  0  0  0  0  2  0  0  0  0  0  0
  183.7280  178.3320  142.1500 C   0  0  0  0  0  0  0  0  0  0  0  0
  186.7850  177.5120  139.4690 O   0  0  0  0  0  0  0  0  0  0  0  0
  188.4690  176.8730  142.5000 C   0  0  0  0  0  0  0  0  0  0  0  0
  186.9970  177.5360  140.7070 C   0  0  0  0  0  0  0  0  0  0  0  0
  184.6670  178.1250  141.2730 N   0  0  0  0  0  0  0  0  0  0  0  0
  184.0670  178.5330  143.5220 N   0  0  0  0  0  2  0  0  0  0  0  0
  188.1630  176.8860  141.2350 N   0  0  0  0  0  0  0  0  0  0  0  0
  185.3950  178.2340  143.9670 C   0  0  0  0  0  3  0  0  0  0  0  0
  186.0780  178.3040  141.6150 C   0  0  1  0  0  3  0  0  0  0  0  0
  182.3040  178.2290  141.7440 C   0  0  0  0  0  1  0  0  0  0  0  0
  186.3510  178.0160  143.0670 C   0  0  0  0  0  0  0  0  0  0  0  0
  187.6120  177.4900  143.4670 N   0  0  0  0  0  2  0  0  0  0  0  0
  189.9020  173.3490  142.9590 O   0  0  0  0  0  0  0  0  0  0  0  0
  190.0690  172.1200  142.2580 C   0  0  2  0  0  3  0  0  0  0  0  0
  193.6930  172.9480  141.3890 N   0  0  0  0  0  0  0  0  0  0  0  0
  191.7370  171.0110  140.7200 C   0  0  0  0  0  2  0  0  0  0  0  0
  191.5610  171.8560  141.9930 C   0  0  1  0  0  3  0  0  0  0  0  0
  194.7770  173.7270  141.9020 C   0  0  0  0  0  0  0  0  0  0  0  0
  192.3290  173.1820  141.8600 C   0  0  0  0  0  2  0  0  0  0  0  0
  195.8240  173.8840  141.2070 O   0  0  0  0  0  0  0  0  0  0  0  0
  193.8900  172.1090  140.2090 C   0  0  0  0  0  2  0  0  0  0  0  0
  193.2110  170.7730  140.4330 C   0  0  0  0  0  2  0  0  0  0  0  0
  194.6860  174.2860  143.1820 O   0  0  0  0  0  0  0  0  0  0  0  0
  195.7010  174.8820  145.6460 C   0  0  0  0  0  1  0  0  0  0  0  0
  194.7250  175.6990  143.4020 C   0  0  1  0  0  3  0  0  0  0  0  0
  194.4640  177.1620  145.3970 C   0  0  2  0  0  3  0  0  0  0  0  0
  193.8210  176.0600  144.5690 C   0  0  2  0  0  3  0  0  0  0  0  0
  195.3280  176.0720  144.7520 C   0  0  2  0  0  0  0  0  0  0  0  0
  194.1800  176.9290  146.8740 C   0  0  0  0  0  1  0  0  0  0  0  0
  188.6240  173.4350  140.8570 O   0  0  0  0  0  1  0  0  0  0  0  0
  189.2840  172.2040  140.9550 C   0  0  0  0  0  2  0  0  0  0  0  0
  1  2  2  0  0  0  0
  5  4  1  0  0  0  0
  6  4  1  0  0  0  0
  7  3  1  1  0  0  0
  7  6  1  0  0  0  0
  8  1  1  6  0  0  0
  8  7  1  0  0  0  0
  9 11  1  6  0  0  0
  9  8  1  0  0  0  0
  9 10  1  0  0  0  0
 10  5  1  0  0  0  0
 12 17  1  0  0  0  0
 13 15  2  0  0  0  0
 14 11  1  0  0  0  0
 14 23  1  0  0  0  0
 15 18  1  0  0  0  0
 16 20  1  0  0  0  0
 16 12  2  0  0  0  0
 17 19  1  0  0  0  0
 18 14  2  0  0  0  0
 20 15  1  6  0  0  0
 20 22  1  0  0  0  0
 21 12  1  0  0  0  0
 22 23  1  0  0  0  0
 22 19  2  0  0  0  0
 24  1  1  0  0  0  0
 25 42  1  6  0  0  0
 25 24  1  0  0  0  0
 26 30  1  0  0  0  0
 26 29  1  0  0  0  0
 27 28  1  0  0  0  0
 28 25  1  6  0  0  0
 29 34  1  0  0  0  0
 30 28  1  0  0  0  0
 31 29  2  0  0  0  0
 32 33  1  0  0  0  0
 32 26  1  0  0  0  0
 33 27  1  0  0  0  0
 36 34  1  1  0  0  0
 36 38  1  0  0  0  0
 36 39  1  0  0  0  0
 37 40  1  1  0  0  0
 38 39  1  0  0  0  0
 38 37  1  0  0  0  0
 39 37  1  0  0  0  0
 39 35  1  0  0  0  0
 41 42  1  0  0  0  0
M  END
>  <MODEL>
7

>  <REMARK>
 VINA RESULT:      -7.3      2.879      5.297
  Name = 
  9 active torsions:
  status: ('A' for Active; 'I' for Inactive)
    1  A    between atoms: C_2  and  O_36
    2  A    between atoms: C_3  and  C_16
    3  A    between atoms: C_3  and  C_29
    4  A    between atoms: O_4  and  C_8
    5  A    between atoms: O_4  and  C_30
    6  A    between atoms: C_8  and  C_25
    7  A    between atoms: C_21  and  C_30
    8  A    between atoms: C_28  and  O_36
    9  A    between atoms: C_30  and  C_42
                            x       y       z     vdW  Elec       q    Type
                         _______ _______ _______ _____ _____    ______ ____

>  <TORSDO>
F 9

$$$$
=
 OpenBabel11062420023D

 42 47  0  0  1  0  0  0  0  0999 V2000
  191.5490  173.3520  141.2040 C   0  0  0  0  0  0  0  0  0  0  0  0
  191.9410  174.5500  141.2260 O   0  0  0  0  0  0  0  0  0  0  0  0
  191.5960  174.1580  138.2750 F   0  0  0  0  0  0  0  0  0  0  0  0
  189.6790  172.5840  136.9010 C   0  0  0  0  0  2  0  0  0  0  0  0
  188.5550  173.2850  137.6710 C   0  0  0  0  0  2  0  0  0  0  0  0
  190.7830  171.9400  137.7450 C   0  0  0  0  0  2  0  0  0  0  0  0
  191.4230  172.8750  138.7720 C   0  0  2  0  0  3  0  0  0  0  0  0
  190.6590  172.8650  140.1040 C   0  0  2  0  0  3  0  0  0  0  0  0
  189.2870  173.5620  140.0240 C   0  0  1  0  0  3  0  0  0  0  0  0
  188.3650  172.7760  139.0890 C   0  0  0  0  0  2  0  0  0  0  0  0
  188.6270  173.7310  141.4070 C   0  0  0  0  0  2  0  0  0  0  0  0
  185.9550  178.9270  143.9330 C   0  0  0  0  0  0  0  0  0  0  0  0
  186.7150  177.8410  140.0020 O   0  0  0  0  0  0  0  0  0  0  0  0
  188.2970  175.1680  141.6720 C   0  0  0  0  0  0  0  0  0  0  0  0
  187.2290  177.2120  140.9600 C   0  0  0  0  0  0  0  0  0  0  0  0
  186.2030  178.6490  142.6860 N   0  0  0  0  0  0  0  0  0  0  0  0
  186.7130  178.3000  144.9670 N   0  0  0  0  0  2  0  0  0  0  0  0
  187.7350  175.8860  140.7430 N   0  0  0  0  0  0  0  0  0  0  0  0
  187.5420  177.1780  144.6460 C   0  0  0  0  0  3  0  0  0  0  0  0
  187.3820  177.8720  142.3010 C   0  0  1  0  0  3  0  0  0  0  0  0
  184.7990  179.7930  144.2790 C   0  0  0  0  0  1  0  0  0  0  0  0
  187.7880  176.8930  143.3700 C   0  0  0  0  0  0  0  0  0  0  0  0
  188.4060  175.6610  143.0120 N   0  0  0  0  0  2  0  0  0  0  0  0
  192.0200  172.4390  142.1430 O   0  0  0  0  0  0  0  0  0  0  0  0
  191.3210  172.1700  143.3550 C   0  0  2  0  0  3  0  0  0  0  0  0
  192.1940  175.0480  145.7070 N   0  0  0  0  0  0  0  0  0  0  0  0
  190.0440  173.2650  145.2390 C   0  0  0  0  0  2  0  0  0  0  0  0
  191.1070  173.4720  144.1470 C   0  0  1  0  0  3  0  0  0  0  0  0
  193.1260  176.1290  145.7930 C   0  0  0  0  0  0  0  0  0  0  0  0
  192.4290  173.9460  144.7750 C   0  0  0  0  0  2  0  0  0  0  0  0
  193.2120  176.8040  146.8610 O   0  0  0  0  0  0  0  0  0  0  0  0
  191.1560  174.8950  146.7240 C   0  0  0  0  0  2  0  0  0  0  0  0
  189.8490  174.5380  146.0460 C   0  0  0  0  0  2  0  0  0  0  0  0
  193.9160  176.4560  144.6850 O   0  0  0  0  0  0  0  0  0  0  0  0
  195.0650  175.2660  142.5110 C   0  0  0  0  0  1  0  0  0  0  0  0
  195.3440  176.5100  144.7540 C   0  0  1  0  0  3  0  0  0  0  0  0
  197.1850  175.0150  144.0040 C   0  0  2  0  0  3  0  0  0  0  0  0
  195.9070  175.1000  144.8230 C   0  0  2  0  0  3  0  0  0  0  0  0
  196.0200  175.8940  143.5340 C   0  0  2  0  0  0  0  0  0  0  0  0
  197.2610  173.6660  143.3050 C   0  0  0  0  0  1  0  0  0  0  0  0
  192.2970  169.9750  143.4370 O   0  0  0  0  0  1  0  0  0  0  0  0
  192.1330  171.1630  144.1590 C   0  0  0  0  0  2  0  0  0  0  0  0
  1  2  2  0  0  0  0
  1 24  1  0  0  0  0
  4  5  1  0  0  0  0
  4  6  1  0  0  0  0
  5 10  1  0  0  0  0
  6  7  1  0  0  0  0
  7  3  1  6  0  0  0
  7  8  1  0  0  0  0
  8  1  1  1  0  0  0
  9  8  1  0  0  0  0
  9 11  1  1  0  0  0
 10  9  1  0  0  0  0
 11 14  1  0  0  0  0
 12 21  1  0  0  0  0
 12 17  1  0  0  0  0
 13 15  2  0  0  0  0
 14 23  1  0  0  0  0
 16 12  2  0  0  0  0
 18 15  1  0  0  0  0
 18 14  2  0  0  0  0
 19 17  1  0  0  0  0
 20 15  1  6  0  0  0
 20 16  1  0  0  0  0
 20 22  1  0  0  0  0
 22 19  2  0  0  0  0
 23 22  1  0  0  0  0
 24 25  1  0  0  0  0
 25 42  1  1  0  0  0
 26 29  1  0  0  0  0
 26 32  1  0  0  0  0
 27 33  1  0  0  0  0
 28 25  1  1  0  0  0
 28 30  1  0  0  0  0
 28 27  1  0  0  0  0
 29 31  2  0  0  0  0
 30 26  1  0  0  0  0
 33 32  1  0  0  0  0
 34 29  1  0  0  0  0
 35 39  1  0  0  0  0
 36 34  1  6  0  0  0
 36 38  1  0  0  0  0
 37 40  1  6  0  0  0
 37 38  1  0  0  0  0
 39 37  1  0  0  0  0
 39 36  1  0  0  0  0
 39 38  1  0  0  0  0
 41 42  1  0  0  0  0
M  END
>  <MODEL>
8

>  <REMARK>
 VINA RESULT:      -7.3      3.095      6.367
  Name = 
  9 active torsions:
  status: ('A' for Active; 'I' for Inactive)
    1  A    between atoms: C_2  and  O_36
    2  A    between atoms: C_3  and  C_16
    3  A    between atoms: C_3  and  C_29
    4  A    between atoms: O_4  and  C_8
    5  A    between atoms: O_4  and  C_30
    6  A    between atoms: C_8  and  C_25
    7  A    between atoms: C_21  and  C_30
    8  A    between atoms: C_28  and  O_36
    9  A    between atoms: C_30  and  C_42
                            x       y       z     vdW  Elec       q    Type
                         _______ _______ _______ _____ _____    ______ ____

>  <TORSDO>
F 9

$$$$
=
 OpenBabel11062420023D

 42 47  0  0  1  0  0  0  0  0999 V2000
  195.2210  175.2210  142.7580 C   0  0  0  0  0  0  0  0  0  0  0  0
  195.4020  176.4590  142.5990 O   0  0  0  0  0  0  0  0  0  0  0  0
  195.2950  172.2100  143.1570 F   0  0  0  0  0  0  0  0  0  0  0  0
  197.3790  171.6180  144.9850 C   0  0  0  0  0  2  0  0  0  0  0  0
  196.6000  172.3250  146.0990 C   0  0  0  0  0  2  0  0  0  0  0  0
  197.6400  172.4320  143.7140 C   0  0  0  0  0  2  0  0  0  0  0  0
  196.3900  173.0580  143.0940 C   0  0  2  0  0  3  0  0  0  0  0  0
  196.0900  174.4410  143.6930 C   0  0  2  0  0  3  0  0  0  0  0  0
  195.5850  174.3780  145.1470 C   0  0  1  0  0  3  0  0  0  0  0  0
  196.6940  173.8390  146.0540 C   0  0  0  0  0  2  0  0  0  0  0  0
  195.0900  175.7440  145.6620 C   0  0  0  0  0  2  0  0  0  0  0  0
  188.7360  175.8680  146.0170 C   0  0  0  0  0  0  0  0  0  0  0  0
  191.6760  177.3220  148.5560 O   0  0  0  0  0  0  0  0  0  0  0  0
  193.7000  175.6390  146.2090 C   0  0  0  0  0  0  0  0  0  0  0  0
  191.9580  176.5300  147.6230 C   0  0  0  0  0  0  0  0  0  0  0  0
  189.6190  176.3120  146.8640 N   0  0  0  0  0  0  0  0  0  0  0  0
  189.0850  174.8300  145.1010 N   0  0  0  0  0  2  0  0  0  0  0  0
  193.3140  176.4410  147.1590 N   0  0  0  0  0  0  0  0  0  0  0  0
  190.4630  174.4780  144.9320 C   0  0  0  0  0  3  0  0  0  0  0  0
  190.9000  175.6290  147.0510 C   0  0  1  0  0  3  0  0  0  0  0  0
  187.4110  176.5320  145.9170 C   0  0  0  0  0  1  0  0  0  0  0  0
  191.3640  174.9390  145.7970 C   0  0  0  0  0  0  0  0  0  0  0  0
  192.7550  174.8070  145.5270 N   0  0  0  0  0  2  0  0  0  0  0  0
  194.1480  174.5810  142.1440 O   0  0  0  0  0  0  0  0  0  0  0  0
  193.8610  174.7420  140.7580 C   0  0  2  0  0  3  0  0  0  0  0  0
  190.2760  173.5470  141.3030 N   0  0  0  0  0  0  0  0  0  0  0  0
  192.7050  172.5580  140.2320 C   0  0  0  0  0  2  0  0  0  0  0  0
  192.5180  174.0750  140.4120 C   0  0  1  0  0  3  0  0  0  0  0  0
  188.9840  174.0950  141.5750 C   0  0  0  0  0  0  0  0  0  0  0  0
  191.4770  174.3550  141.5090 C   0  0  0  0  0  2  0  0  0  0  0  0
  188.0210  173.3240  141.8650 O   0  0  0  0  0  0  0  0  0  0  0  0
  190.4300  172.1100  141.0820 C   0  0  0  0  0  2  0  0  0  0  0  0
  191.3770  171.8870  139.9200 C   0  0  0  0  0  2  0  0  0  0  0  0
  188.7830  175.4760  141.4880 O   0  0  0  0  0  0  0  0  0  0  0  0
  188.6850  178.1630  141.9680 C   0  0  0  0  0  1  0  0  0  0  0  0
  187.5460  176.0420  141.0430 C   0  0  1  0  0  3  0  0  0  0  0  0
  186.0970  177.9050  141.8260 C   0  0  2  0  0  3  0  0  0  0  0  0
  186.7870  176.6120  142.2300 C   0  0  2  0  0  3  0  0  0  0  0  0
  187.4740  177.5500  141.2530 C   0  0  2  0  0  0  0  0  0  0  0  0
  186.1460  178.8970  142.9800 C   0  0  0  0  0  1  0  0  0  0  0  0
  195.6850  175.1140  139.2390 O   0  0  0  0  0  1  0  0  0  0  0  0
  195.0040  174.1270  139.9610 C   0  0  0  0  0  2  0  0  0  0  0  0
  2  1  2  0  0  0  0
  4  5  1  0  0  0  0
  6  4  1  0  0  0  0
  7  3  1  1  0  0  0
  7  8  1  0  0  0  0
  7  6  1  0  0  0  0
  8  1  1  6  0  0  0
  8  9  1  0  0  0  0
  9 11  1  1  0  0  0
  9 10  1  0  0  0  0
 10  5  1  0  0  0  0
 11 14  1  0  0  0  0
 12 16  2  0  0  0  0
 14 18  2  0  0  0  0
 15 13  2  0  0  0  0
 16 20  1  0  0  0  0
 17 12  1  0  0  0  0
 18 15  1  0  0  0  0
 19 17  1  0  0  0  0
 19 22  2  0  0  0  0
 20 22  1  6  0  0  0
 20 15  1  0  0  0  0
 21 12  1  0  0  0  0
 23 22  1  0  0  0  0
 23 14  1  0  0  0  0
 24  1  1  0  0  0  0
 25 42  1  6  0  0  0
 25 24  1  0  0  0  0
 26 30  1  0  0  0  0
 26 29  1  0  0  0  0
 27 28  1  0  0  0  0
 28 25  1  1  0  0  0
 28 30  1  0  0  0  0
 29 31  2  0  0  0  0
 32 26  1  0  0  0  0
 33 27  1  0  0  0  0
 33 32  1  0  0  0  0
 34 29  1  0  0  0  0
 36 39  1  0  0  0  0
 36 34  1  1  0  0  0
 36 38  1  0  0  0  0
 37 38  1  0  0  0  0
 37 40  1  1  0  0  0
 39 37  1  0  0  0  0
 39 35  1  0  0  0  0
 39 38  1  0  0  0  0
 41 42  1  0  0  0  0
M  END
>  <MODEL>
9

>  <REMARK>
 VINA RESULT:      -7.2      2.622      8.502
  Name = 
  9 active torsions:
  status: ('A' for Active; 'I' for Inactive)
    1  A    between atoms: C_2  and  O_36
    2  A    between atoms: C_3  and  C_16
    3  A    between atoms: C_3  and  C_29
    4  A    between atoms: O_4  and  C_8
    5  A    between atoms: O_4  and  C_30
    6  A    between atoms: C_8  and  C_25
    7  A    between atoms: C_21  and  C_30
    8  A    between atoms: C_28  and  O_36
    9  A    between atoms: C_30  and  C_42
                            x       y       z     vdW  Elec       q    Type
                         _______ _______ _______ _____ _____    ______ ____

>  <TORSDO>
F 9

$$$$
