=
 OpenBabel11062422553D

 29 33  0  0  1  0  0  0  0  0999 V2000
  186.3010  178.4310  142.6950 C   0  0  0  0  0  0  0  0  0  0  0  0
  186.2880  179.6030  143.1590 O   0  0  0  0  0  0  0  0  0  0  0  0
  186.7570  177.3250  143.5060 N   0  0  0  0  0  0  0  0  0  0  0  0
  186.1630  177.3100  147.7010 N   0  0  0  0  0  0  0  0  0  0  0  0
  186.5660  177.3080  144.9460 C   0  0  0  0  0  0  0  0  0  0  0  0
  185.3620  176.8420  145.5010 C   0  0  0  0  0  3  0  0  0  0  0  0
  187.5560  177.7840  145.8210 C   0  0  0  0  0  3  0  0  0  0  0  0
  185.1790  176.8480  146.8860 C   0  0  0  0  0  3  0  0  0  0  0  0
  187.3370  177.7750  147.2000 C   0  0  0  0  0  3  0  0  0  0  0  0
  188.4080  176.4340  142.0680 O   0  0  0  0  0  0  0  0  0  0  0  0
  187.2720  176.1210  142.8410 C   0  0  1  0  0  3  0  0  0  0  0  0
  188.6490  175.8280  143.3100 C   0  0  1  0  0  3  0  0  0  0  0  0
  188.9340  174.4190  143.1130 N   0  0  0  0  0  2  0  0  0  0  0  0
  189.7130  173.9930  144.2620 C   0  0  0  0  0  2  0  0  0  0  0  0
  191.3280  176.3160  146.2400 C   0  0  1  0  0  3  0  0  0  0  0  0
  190.8460  174.8540  146.2840 C   0  0  1  0  0  0  0  0  0  0  0  0
  191.0910  175.6810  147.5500 C   0  0  0  0  0  2  0  0  0  0  0  0
  189.6530  175.0550  145.3370 C   0  0  2  0  0  3  0  0  0  0  0  0
  189.4200  174.4220  146.6450 C   0  0  0  0  0  2  0  0  0  0  0  0
  194.6450  176.2820  144.2220 C   0  0  0  0  0  1  0  0  0  0  0  0
  192.7910  176.3560  145.9310 C   0  0  0  0  0  0  0  0  0  0  0  0
  193.6280  176.4260  146.8710 O   0  0  0  0  0  0  0  0  0  0  0  0
  193.2350  176.2640  144.5740 N   0  0  0  0  0  2  0  0  0  0  0  0
  185.8190  178.2060  141.2920 C   0  0  0  0  0  2  0  0  0  0  0  0
  182.2930  178.1040  140.5230 N   0  0  0  0  0  0  0  0  0  0  0  0
  184.3660  178.1700  141.2480 N   0  0  0  0  0  0  0  0  0  0  0  0
  182.2520  178.2240  141.8420 N   0  0  0  0  0  0  0  0  0  0  0  0
  183.5220  178.2670  142.2870 C   0  0  0  0  0  3  0  0  0  0  0  0
  183.5880  178.0750  140.1570 C   0  0  0  0  0  3  0  0  0  0  0  0
  1  2  2  0  0  0  0
  1  3  1  0  0  0  0
  3  5  1  0  0  0  0
  5  6  2  0  0  0  0
  5  7  1  0  0  0  0
  6  8  1  0  0  0  0
  7  9  2  0  0  0  0
  8  4  2  0  0  0  0
  9  4  1  0  0  0  0
 10 11  1  0  0  0  0
 10 12  1  0  0  0  0
 11 12  1  0  0  0  0
 11  3  1  1  0  0  0
 12 13  1  6  0  0  0
 13 14  1  0  0  0  0
 15 21  1  1  0  0  0
 15 16  1  0  0  0  0
 15 17  1  0  0  0  0
 16 19  1  6  0  0  0
 16 17  1  0  0  0  0
 18 14  1  6  0  0  0
 18 16  1  0  0  0  0
 18 19  1  0  0  0  0
 20 23  1  0  0  0  0
 21 22  2  0  0  0  0
 23 21  1  0  0  0  0
 24  1  1  0  0  0  0
 25 27  1  0  0  0  0
 26 24  1  0  0  0  0
 26 28  1  0  0  0  0
 27 28  2  0  0  0  0
 29 25  2  0  0  0  0
 29 26  1  0  0  0  0
M  END
>  <MODEL>
1

>  <REMARK>
 VINA RESULT:      -6.8      0.000      0.000
  Name = 
  8 active torsions:
  status: ('A' for Active; 'I' for Inactive)
    1  A    between atoms: C_2  and  C_5
    2  A    between atoms: C_2  and  N_10
    3  A    between atoms: C_4  and  C_6
    4  A    between atoms: N_9  and  C_18
    5  A    between atoms: N_9  and  C_23
    6  A    between atoms: C_15  and  N_20
    7  A    between atoms: C_17  and  C_18
    8  A    between atoms: N_20  and  C_21
                            x       y       z     vdW  Elec       q    Type
                         _______ _______ _______ _____ _____    ______ ____

>  <TORSDO>
F 8

$$$$
=
 OpenBabel11062422553D

 29 33  0  0  1  0  0  0  0  0999 V2000
  191.0300  176.8570  143.5300 C   0  0  0  0  0  0  0  0  0  0  0  0
  191.9000  176.9240  142.6200 O   0  0  0  0  0  0  0  0  0  0  0  0
  191.2000  175.9500  144.6430 N   0  0  0  0  0  0  0  0  0  0  0  0
  195.0170  174.9500  146.1840 N   0  0  0  0  0  0  0  0  0  0  0  0
  192.5160  175.6180  145.1600 C   0  0  0  0  0  0  0  0  0  0  0  0
  193.0260  174.3150  145.0310 C   0  0  0  0  0  3  0  0  0  0  0  0
  193.3010  176.5710  145.8300 C   0  0  0  0  0  3  0  0  0  0  0  0
  194.2840  173.9990  145.5480 C   0  0  0  0  0  3  0  0  0  0  0  0
  194.5540  176.2180  146.3350 C   0  0  0  0  0  3  0  0  0  0  0  0
  190.3410  175.1730  146.7040 O   0  0  0  0  0  0  0  0  0  0  0  0
  190.0110  175.4880  145.3700 C   0  0  1  0  0  3  0  0  0  0  0  0
  189.7100  176.4080  146.4950 C   0  0  1  0  0  3  0  0  0  0  0  0
  188.3060  176.2990  146.8440 N   0  0  0  0  0  2  0  0  0  0  0  0
  187.8560  177.6420  147.1640 C   0  0  0  0  0  2  0  0  0  0  0  0
  184.7840  177.5820  145.5880 C   0  0  1  0  0  3  0  0  0  0  0  0
  185.8090  178.5860  146.1470 C   0  0  1  0  0  0  0  0  0  0  0  0
  184.3290  178.9350  145.9580 C   0  0  0  0  0  2  0  0  0  0  0  0
  186.3460  177.6630  147.2520 C   0  0  2  0  0  3  0  0  0  0  0  0
  185.8910  179.0140  147.6170 C   0  0  0  0  0  2  0  0  0  0  0  0
  184.2680  178.2030  141.7910 C   0  0  0  0  0  1  0  0  0  0  0  0
  184.9460  177.4670  144.1060 C   0  0  0  0  0  0  0  0  0  0  0  0
  185.7450  176.6170  143.6280 O   0  0  0  0  0  0  0  0  0  0  0  0
  184.1600  178.2870  143.2380 N   0  0  0  0  0  2  0  0  0  0  0  0
  189.8280  177.7490  143.4450 C   0  0  0  0  0  2  0  0  0  0  0  0
  187.8500  176.0430  140.9520 N   0  0  0  0  0  0  0  0  0  0  0  0
  188.9310  177.3050  142.3890 N   0  0  0  0  0  0  0  0  0  0  0  0
  187.4960  177.3000  140.7270 N   0  0  0  0  0  0  0  0  0  0  0  0
  188.1600  178.0750  141.6060 C   0  0  0  0  0  3  0  0  0  0  0  0
  188.7330  176.0450  141.9690 C   0  0  0  0  0  3  0  0  0  0  0  0
  1  3  1  0  0  0  0
  2  1  2  0  0  0  0
  3  5  1  0  0  0  0
  4  9  1  0  0  0  0
  5  7  1  0  0  0  0
  6  5  2  0  0  0  0
  6  8  1  0  0  0  0
  7  9  2  0  0  0  0
  8  4  2  0  0  0  0
 11  3  1  6  0  0  0
 11 12  1  0  0  0  0
 11 10  1  0  0  0  0
 12 10  1  0  0  0  0
 12 13  1  1  0  0  0
 13 14  1  0  0  0  0
 15 21  1  6  0  0  0
 15 17  1  0  0  0  0
 15 16  1  0  0  0  0
 16 17  1  1  0  0  0
 16 18  1  0  0  0  0
 16 19  1  0  0  0  0
 18 14  1  6  0  0  0
 18 19  1  0  0  0  0
 20 23  1  0  0  0  0
 22 21  2  0  0  0  0
 23 21  1  0  0  0  0
 24  1  1  0  0  0  0
 25 29  2  0  0  0  0
 26 24  1  0  0  0  0
 27 25  1  0  0  0  0
 27 28  2  0  0  0  0
 28 26  1  0  0  0  0
 29 26  1  0  0  0  0
M  END
>  <MODEL>
2

>  <REMARK>
 VINA RESULT:      -6.8      2.169      6.601
  Name = 
  8 active torsions:
  status: ('A' for Active; 'I' for Inactive)
    1  A    between atoms: C_2  and  C_5
    2  A    between atoms: C_2  and  N_10
    3  A    between atoms: C_4  and  C_6
    4  A    between atoms: N_9  and  C_18
    5  A    between atoms: N_9  and  C_23
    6  A    between atoms: C_15  and  N_20
    7  A    between atoms: C_17  and  C_18
    8  A    between atoms: N_20  and  C_21
                            x       y       z     vdW  Elec       q    Type
                         _______ _______ _______ _____ _____    ______ ____

>  <TORSDO>
F 8

$$$$
=
 OpenBabel11062422553D

 29 33  0  0  1  0  0  0  0  0999 V2000
  191.2590  176.3880  143.8010 C   0  0  0  0  0  0  0  0  0  0  0  0
  191.4060  176.3900  142.5490 O   0  0  0  0  0  0  0  0  0  0  0  0
  190.1840  175.6400  144.4130 N   0  0  0  0  0  0  0  0  0  0  0  0
  188.7020  172.0460  142.7320 N   0  0  0  0  0  0  0  0  0  0  0  0
  189.6920  174.4030  143.8330 C   0  0  0  0  0  0  0  0  0  0  0  0
  188.8900  174.4240  142.6790 C   0  0  0  0  0  3  0  0  0  0  0  0
  189.9710  173.1580  144.4200 C   0  0  0  0  0  3  0  0  0  0  0  0
  188.4050  173.2310  142.1390 C   0  0  0  0  0  3  0  0  0  0  0  0
  189.4670  171.9850  143.8530 C   0  0  0  0  0  3  0  0  0  0  0  0
  189.1450  177.3480  145.6740 O   0  0  0  0  0  0  0  0  0  0  0  0
  189.6960  176.0520  145.7350 C   0  0  1  0  0  3  0  0  0  0  0  0
  188.2310  176.2840  145.6890 C   0  0  1  0  0  3  0  0  0  0  0  0
  187.6790  176.1400  147.0230 N   0  0  0  0  0  2  0  0  0  0  0  0
  186.8430  177.3050  147.2510 C   0  0  0  0  0  2  0  0  0  0  0  0
  185.2120  177.7640  144.2430 C   0  0  1  0  0  3  0  0  0  0  0  0
  185.4360  178.4770  145.5890 C   0  0  1  0  0  0  0  0  0  0  0  0
  184.2410  178.7840  144.6810 C   0  0  0  0  0  2  0  0  0  0  0  0
  185.5820  177.1950  146.4220 C   0  0  2  0  0  3  0  0  0  0  0  0
  184.6150  178.2140  146.8570 C   0  0  0  0  0  2  0  0  0  0  0  0
  188.1970  178.0640  141.7790 C   0  0  0  0  0  1  0  0  0  0  0  0
  186.1380  178.3270  143.2130 C   0  0  0  0  0  0  0  0  0  0  0  0
  185.9530  179.4940  142.7760 O   0  0  0  0  0  0  0  0  0  0  0  0
  187.2580  177.5570  142.7660 N   0  0  0  0  0  2  0  0  0  0  0  0
  192.2300  177.1620  144.6410 C   0  0  0  0  0  2  0  0  0  0  0  0
  194.9200  175.4760  146.3630 N   0  0  0  0  0  0  0  0  0  0  0  0
  193.2750  176.2890  145.1550 N   0  0  0  0  0  0  0  0  0  0  0  0
  194.6960  174.6280  145.3690 N   0  0  0  0  0  0  0  0  0  0  0  0
  193.6900  175.1270  144.6260 C   0  0  0  0  0  3  0  0  0  0  0  0
  194.0520  176.4960  146.2300 C   0  0  0  0  0  3  0  0  0  0  0  0
  1  3  1  0  0  0  0
  1 24  1  0  0  0  0
  2  1  2  0  0  0  0
  4  9  1  0  0  0  0
  5  3  1  0  0  0  0
  5  7  1  0  0  0  0
  6  5  2  0  0  0  0
  8  6  1  0  0  0  0
  8  4  2  0  0  0  0
  9  7  2  0  0  0  0
 10 12  1  0  0  0  0
 10 11  1  0  0  0  0
 11  3  1  6  0  0  0
 12 11  1  0  0  0  0
 12 13  1  1  0  0  0
 13 14  1  0  0  0  0
 15 21  1  6  0  0  0
 15 17  1  0  0  0  0
 15 16  1  0  0  0  0
 16 17  1  6  0  0  0
 16 18  1  0  0  0  0
 16 19  1  0  0  0  0
 18 19  1  0  0  0  0
 18 14  1  1  0  0  0
 20 23  1  0  0  0  0
 22 21  2  0  0  0  0
 23 21  1  0  0  0  0
 24 26  1  0  0  0  0
 26 29  1  0  0  0  0
 27 25  1  0  0  0  0
 28 26  1  0  0  0  0
 28 27  2  0  0  0  0
 29 25  2  0  0  0  0
M  END
>  <MODEL>
3

>  <REMARK>
 VINA RESULT:      -6.7      2.433      7.513
  Name = 
  8 active torsions:
  status: ('A' for Active; 'I' for Inactive)
    1  A    between atoms: C_2  and  C_5
    2  A    between atoms: C_2  and  N_10
    3  A    between atoms: C_4  and  C_6
    4  A    between atoms: N_9  and  C_18
    5  A    between atoms: N_9  and  C_23
    6  A    between atoms: C_15  and  N_20
    7  A    between atoms: C_17  and  C_18
    8  A    between atoms: N_20  and  C_21
                            x       y       z     vdW  Elec       q    Type
                         _______ _______ _______ _____ _____    ______ ____

>  <TORSDO>
F 8

$$$$
=
 OpenBabel11062422553D

 29 33  0  0  1  0  0  0  0  0999 V2000
  190.6990  173.3530  144.6120 C   0  0  0  0  0  0  0  0  0  0  0  0
  191.7000  172.7670  144.1200 O   0  0  0  0  0  0  0  0  0  0  0  0
  190.8700  174.3860  145.6090 N   0  0  0  0  0  0  0  0  0  0  0  0
  194.2710  176.9100  145.5700 N   0  0  0  0  0  0  0  0  0  0  0  0
  192.0310  175.2580  145.6110 C   0  0  0  0  0  0  0  0  0  0  0  0
  192.1750  176.2570  144.6340 C   0  0  0  0  0  3  0  0  0  0  0  0
  193.0560  175.1100  146.5600 C   0  0  0  0  0  3  0  0  0  0  0  0
  193.3040  177.0790  144.6300 C   0  0  0  0  0  3  0  0  0  0  0  0
  194.1710  175.9500  146.5260 C   0  0  0  0  0  3  0  0  0  0  0  0
  190.0660  175.7910  147.3320 O   0  0  0  0  0  0  0  0  0  0  0  0
  189.7660  174.6670  146.5370 C   0  0  1  0  0  3  0  0  0  0  0  0
  189.1910  176.0050  146.2560 C   0  0  1  0  0  3  0  0  0  0  0  0
  187.8260  176.0550  146.7450 N   0  0  0  0  0  2  0  0  0  0  0  0
  187.4990  177.4600  146.9100 C   0  0  0  0  0  2  0  0  0  0  0  0
  184.8760  177.6830  144.6760 C   0  0  1  0  0  3  0  0  0  0  0  0
  185.8740  178.5860  145.4230 C   0  0  1  0  0  0  0  0  0  0  0  0
  184.5340  179.1020  144.8900 C   0  0  0  0  0  2  0  0  0  0  0  0
  186.0240  177.6720  146.6490 C   0  0  2  0  0  3  0  0  0  0  0  0
  185.6820  179.0870  146.8600 C   0  0  0  0  0  2  0  0  0  0  0  0
  185.4150  178.2150  140.8680 C   0  0  0  0  0  1  0  0  0  0  0  0
  185.3480  177.4610  143.2740 C   0  0  0  0  0  0  0  0  0  0  0  0
  186.0180  176.4300  142.9950 O   0  0  0  0  0  0  0  0  0  0  0  0
  184.9960  178.3930  142.2480 N   0  0  0  0  0  2  0  0  0  0  0  0
  189.3310  172.9710  144.1310 C   0  0  0  0  0  2  0  0  0  0  0  0
  188.7850  174.9990  141.1930 N   0  0  0  0  0  0  0  0  0  0  0  0
  189.0640  173.5540  142.8260 N   0  0  0  0  0  0  0  0  0  0  0  0
  188.4860  173.7970  140.7210 N   0  0  0  0  0  0  0  0  0  0  0  0
  188.6540  172.9110  141.7210 C   0  0  0  0  0  3  0  0  0  0  0  0
  189.1360  174.8510  142.4850 C   0  0  0  0  0  3  0  0  0  0  0  0
  1  3  1  0  0  0  0
  2  1  2  0  0  0  0
  3  5  1  0  0  0  0
  4  9  1  0  0  0  0
  5  7  1  0  0  0  0
  6  5  2  0  0  0  0
  8  6  1  0  0  0  0
  8  4  2  0  0  0  0
  9  7  2  0  0  0  0
 11  3  1  6  0  0  0
 11 10  1  0  0  0  0
 12 11  1  0  0  0  0
 12 13  1  1  0  0  0
 12 10  1  0  0  0  0
 13 14  1  0  0  0  0
 15 21  1  6  0  0  0
 15 17  1  0  0  0  0
 15 16  1  0  0  0  0
 16 17  1  1  0  0  0
 16 18  1  0  0  0  0
 16 19  1  0  0  0  0
 18 19  1  0  0  0  0
 18 14  1  1  0  0  0
 20 23  1  0  0  0  0
 22 21  2  0  0  0  0
 23 21  1  0  0  0  0
 24  1  1  0  0  0  0
 25 29  2  0  0  0  0
 26 24  1  0  0  0  0
 27 25  1  0  0  0  0
 27 28  2  0  0  0  0
 28 26  1  0  0  0  0
 29 26  1  0  0  0  0
M  END
>  <MODEL>
4

>  <REMARK>
 VINA RESULT:      -6.6      2.035      6.942
  Name = 
  8 active torsions:
  status: ('A' for Active; 'I' for Inactive)
    1  A    between atoms: C_2  and  C_5
    2  A    between atoms: C_2  and  N_10
    3  A    between atoms: C_4  and  C_6
    4  A    between atoms: N_9  and  C_18
    5  A    between atoms: N_9  and  C_23
    6  A    between atoms: C_15  and  N_20
    7  A    between atoms: C_17  and  C_18
    8  A    between atoms: N_20  and  C_21
                            x       y       z     vdW  Elec       q    Type
                         _______ _______ _______ _____ _____    ______ ____

>  <TORSDO>
F 8

$$$$
=
 OpenBabel11062422553D

 29 33  0  0  1  0  0  0  0  0999 V2000
  191.8450  176.6810  143.9370 C   0  0  0  0  0  0  0  0  0  0  0  0
  192.1720  177.1400  142.8100 O   0  0  0  0  0  0  0  0  0  0  0  0
  190.5100  176.1730  144.1650 N   0  0  0  0  0  0  0  0  0  0  0  0
  188.3310  174.3020  141.0510 N   0  0  0  0  0  0  0  0  0  0  0  0
  189.7490  175.5350  143.1050 C   0  0  0  0  0  0  0  0  0  0  0  0
  189.9100  174.1660  142.8350 C   0  0  0  0  0  3  0  0  0  0  0  0
  188.8580  176.2660  142.3020 C   0  0  0  0  0  3  0  0  0  0  0  0
  189.1890  173.5630  141.8020 C   0  0  0  0  0  3  0  0  0  0  0  0
  188.1540  175.6300  141.2780 C   0  0  0  0  0  3  0  0  0  0  0  0
  189.9760  177.4540  146.0780 O   0  0  0  0  0  0  0  0  0  0  0  0
  189.9820  176.1540  145.5350 C   0  0  1  0  0  3  0  0  0  0  0  0
  188.7440  176.9670  145.6160 C   0  0  1  0  0  3  0  0  0  0  0  0
  187.9480  176.5200  146.7440 N   0  0  0  0  0  2  0  0  0  0  0  0
  187.1860  177.6720  147.1920 C   0  0  0  0  0  2  0  0  0  0  0  0
  184.8330  177.8390  144.6710 C   0  0  1  0  0  3  0  0  0  0  0  0
  185.4240  178.7060  145.7980 C   0  0  1  0  0  0  0  0  0  0  0  0
  184.0410  178.9690  145.1940 C   0  0  0  0  0  2  0  0  0  0  0  0
  185.7480  177.5370  146.7400 C   0  0  2  0  0  3  0  0  0  0  0  0
  184.9590  178.6650  147.2580 C   0  0  0  0  0  2  0  0  0  0  0  0
  185.3510  178.2890  140.8500 C   0  0  0  0  0  1  0  0  0  0  0  0
  185.4710  178.2010  143.3680 C   0  0  0  0  0  0  0  0  0  0  0  0
  186.6420  178.6670  143.3530 O   0  0  0  0  0  0  0  0  0  0  0  0
  184.7690  177.9700  142.1430 N   0  0  0  0  0  2  0  0  0  0  0  0
  192.8710  176.6550  145.0310 C   0  0  0  0  0  2  0  0  0  0  0  0
  195.9810  175.0330  144.1720 N   0  0  0  0  0  0  0  0  0  0  0  0
  193.9770  175.7780  144.6770 N   0  0  0  0  0  0  0  0  0  0  0  0
  195.1390  174.0140  144.0780 N   0  0  0  0  0  0  0  0  0  0  0  0
  193.9100  174.4700  144.3850 C   0  0  0  0  0  3  0  0  0  0  0  0
  195.2690  176.1160  144.5350 C   0  0  0  0  0  3  0  0  0  0  0  0
  1  3  1  0  0  0  0
  1 24  1  0  0  0  0
  2  1  2  0  0  0  0
  4  9  2  0  0  0  0
  4  8  1  0  0  0  0
  5  3  1  0  0  0  0
  6  5  1  0  0  0  0
  7  5  2  0  0  0  0
  8  6  2  0  0  0  0
  9  7  1  0  0  0  0
 11  3  1  6  0  0  0
 11 12  1  0  0  0  0
 11 10  1  0  0  0  0
 12 10  1  0  0  0  0
 12 13  1  1  0  0  0
 13 14  1  0  0  0  0
 15 21  1  6  0  0  0
 15 17  1  0  0  0  0
 15 16  1  0  0  0  0
 16 17  1  1  0  0  0
 16 18  1  0  0  0  0
 16 19  1  0  0  0  0
 18 14  1  1  0  0  0
 18 19  1  0  0  0  0
 20 23  1  0  0  0  0
 22 21  2  0  0  0  0
 23 21  1  0  0  0  0
 25 29  2  0  0  0  0
 26 24  1  0  0  0  0
 27 25  1  0  0  0  0
 27 28  2  0  0  0  0
 28 26  1  0  0  0  0
 29 26  1  0  0  0  0
M  END
>  <MODEL>
5

>  <REMARK>
 VINA RESULT:      -6.3      1.978      7.859
  Name = 
  8 active torsions:
  status: ('A' for Active; 'I' for Inactive)
    1  A    between atoms: C_2  and  C_5
    2  A    between atoms: C_2  and  N_10
    3  A    between atoms: C_4  and  C_6
    4  A    between atoms: N_9  and  C_18
    5  A    between atoms: N_9  and  C_23
    6  A    between atoms: C_15  and  N_20
    7  A    between atoms: C_17  and  C_18
    8  A    between atoms: N_20  and  C_21
                            x       y       z     vdW  Elec       q    Type
                         _______ _______ _______ _____ _____    ______ ____

>  <TORSDO>
F 8

$$$$
=
 OpenBabel11062422553D

 29 33  0  0  1  0  0  0  0  0999 V2000
  191.3040  174.7680  142.9440 C   0  0  0  0  0  0  0  0  0  0  0  0
  191.9580  175.2840  141.9980 O   0  0  0  0  0  0  0  0  0  0  0  0
  190.0970  175.3970  143.4310 N   0  0  0  0  0  0  0  0  0  0  0  0
  187.5700  177.5750  140.8210 N   0  0  0  0  0  0  0  0  0  0  0  0
  189.2220  176.1510  142.5500 C   0  0  0  0  0  0  0  0  0  0  0  0
  188.3380  175.4860  141.6830 C   0  0  0  0  0  3  0  0  0  0  0  0
  189.2550  177.5540  142.5110 C   0  0  0  0  0  3  0  0  0  0  0  0
  187.5140  176.2180  140.8250 C   0  0  0  0  0  3  0  0  0  0  0  0
  188.4170  178.2520  141.6390 C   0  0  0  0  0  3  0  0  0  0  0  0
  190.6430  175.5500  145.7260 O   0  0  0  0  0  0  0  0  0  0  0  0
  189.6610  175.1270  144.8080 C   0  0  1  0  0  3  0  0  0  0  0  0
  189.5370  176.3980  145.5630 C   0  0  1  0  0  3  0  0  0  0  0  0
  188.6170  176.2120  146.6700 N   0  0  0  0  0  2  0  0  0  0  0  0
  188.1880  177.5380  147.0750 C   0  0  0  0  0  2  0  0  0  0  0  0
  184.9990  177.5430  145.7530 C   0  0  1  0  0  3  0  0  0  0  0  0
  186.0620  178.5230  146.2820 C   0  0  1  0  0  0  0  0  0  0  0  0
  184.5720  178.8710  146.2330 C   0  0  0  0  0  2  0  0  0  0  0  0
  186.6900  177.5440  147.2860 C   0  0  2  0  0  3  0  0  0  0  0  0
  186.2620  178.8690  147.7620 C   0  0  0  0  0  2  0  0  0  0  0  0
  184.0990  178.2870  142.0500 C   0  0  0  0  0  1  0  0  0  0  0  0
  185.0400  177.5120  144.2580 C   0  0  0  0  0  0  0  0  0  0  0  0
  185.8660  176.7620  143.6710 O   0  0  0  0  0  0  0  0  0  0  0  0
  184.1110  178.2950  143.5030 N   0  0  0  0  0  2  0  0  0  0  0  0
  191.7930  173.4820  143.5410 C   0  0  0  0  0  2  0  0  0  0  0  0
  191.3560  170.4280  141.6650 N   0  0  0  0  0  0  0  0  0  0  0  0
  191.3730  172.3480  142.7340 N   0  0  0  0  0  0  0  0  0  0  0  0
  190.2110  171.0420  141.4040 N   0  0  0  0  0  0  0  0  0  0  0  0
  190.2210  172.2200  142.0560 C   0  0  0  0  0  3  0  0  0  0  0  0
  192.0710  171.2300  142.4770 C   0  0  0  0  0  3  0  0  0  0  0  0
  1  3  1  0  0  0  0
  1 24  1  0  0  0  0
  2  1  2  0  0  0  0
  4  8  2  0  0  0  0
  4  9  1  0  0  0  0
  5  3  1  0  0  0  0
  6  5  2  0  0  0  0
  7  5  1  0  0  0  0
  8  6  1  0  0  0  0
  9  7  2  0  0  0  0
 11  3  1  6  0  0  0
 11 12  1  0  0  0  0
 11 10  1  0  0  0  0
 12 10  1  0  0  0  0
 12 13  1  1  0  0  0
 13 14  1  0  0  0  0
 15 21  1  6  0  0  0
 15 17  1  0  0  0  0
 15 16  1  0  0  0  0
 16 17  1  1  0  0  0
 16 18  1  0  0  0  0
 16 19  1  0  0  0  0
 18 14  1  6  0  0  0
 18 19  1  0  0  0  0
 20 23  1  0  0  0  0
 22 21  2  0  0  0  0
 23 21  1  0  0  0  0
 25 29  2  0  0  0  0
 26 24  1  0  0  0  0
 27 25  1  0  0  0  0
 27 28  2  0  0  0  0
 28 26  1  0  0  0  0
 29 26  1  0  0  0  0
M  END
>  <MODEL>
6

>  <REMARK>
 VINA RESULT:      -6.2      2.469      7.180
  Name = 
  8 active torsions:
  status: ('A' for Active; 'I' for Inactive)
    1  A    between atoms: C_2  and  C_5
    2  A    between atoms: C_2  and  N_10
    3  A    between atoms: C_4  and  C_6
    4  A    between atoms: N_9  and  C_18
    5  A    between atoms: N_9  and  C_23
    6  A    between atoms: C_15  and  N_20
    7  A    between atoms: C_17  and  C_18
    8  A    between atoms: N_20  and  C_21
                            x       y       z     vdW  Elec       q    Type
                         _______ _______ _______ _____ _____    ______ ____

>  <TORSDO>
F 8

$$$$
=
 OpenBabel11062422553D

 29 33  0  0  1  0  0  0  0  0999 V2000
  191.4870  173.1630  144.6620 C   0  0  0  0  0  0  0  0  0  0  0  0
  192.1960  172.2500  144.1600 O   0  0  0  0  0  0  0  0  0  0  0  0
  192.1030  174.3270  145.2590 N   0  0  0  0  0  0  0  0  0  0  0  0
  195.7660  175.9200  143.8490 N   0  0  0  0  0  0  0  0  0  0  0  0
  193.3590  174.8620  144.7630 C   0  0  0  0  0  0  0  0  0  0  0  0
  194.5320  174.7570  145.5290 C   0  0  0  0  0  3  0  0  0  0  0  0
  193.4350  175.5250  143.5270 C   0  0  0  0  0  3  0  0  0  0  0  0
  195.7320  175.2920  145.0530 C   0  0  0  0  0  3  0  0  0  0  0  0
  194.6510  176.0470  143.0840 C   0  0  0  0  0  3  0  0  0  0  0  0
  191.7370  176.4380  146.2570 O   0  0  0  0  0  0  0  0  0  0  0  0
  191.3600  175.0800  146.2780 C   0  0  1  0  0  3  0  0  0  0  0  0
  190.5220  176.1210  145.6320 C   0  0  1  0  0  3  0  0  0  0  0  0
  189.4210  176.4660  146.5130 N   0  0  0  0  0  2  0  0  0  0  0  0
  188.4720  177.2160  145.7100 C   0  0  0  0  0  2  0  0  0  0  0  0
  185.0610  177.4500  145.2290 C   0  0  1  0  0  3  0  0  0  0  0  0
  186.2090  178.1860  145.9440 C   0  0  1  0  0  0  0  0  0  0  0  0
  184.7450  178.3270  146.3720 C   0  0  0  0  0  2  0  0  0  0  0  0
  187.0660  176.9350  146.1920 C   0  0  2  0  0  3  0  0  0  0  0  0
  186.7480  177.8130  147.3300 C   0  0  0  0  0  2  0  0  0  0  0  0
  185.0510  178.2800  141.4360 C   0  0  0  0  0  1  0  0  0  0  0  0
  184.7500  178.1350  143.9370 C   0  0  0  0  0  0  0  0  0  0  0  0
  184.0300  179.1700  143.9340 O   0  0  0  0  0  0  0  0  0  0  0  0
  185.3090  177.6420  142.7160 N   0  0  0  0  0  2  0  0  0  0  0  0
  189.9950  173.0270  144.6130 C   0  0  0  0  0  2  0  0  0  0  0  0
  188.9970  174.0940  141.3100 N   0  0  0  0  0  0  0  0  0  0  0  0
  189.5070  173.2050  143.2540 N   0  0  0  0  0  0  0  0  0  0  0  0
  188.5340  172.8520  141.3170 N   0  0  0  0  0  0  0  0  0  0  0  0
  188.8440  172.3060  142.5080 C   0  0  0  0  0  3  0  0  0  0  0  0
  189.5900  174.3120  142.4990 C   0  0  0  0  0  3  0  0  0  0  0  0
  1  3  1  0  0  0  0
  2  1  2  0  0  0  0
  4  8  1  0  0  0  0
  5  3  1  0  0  0  0
  5  6  1  0  0  0  0
  7  5  2  0  0  0  0
  8  6  2  0  0  0  0
  9  7  1  0  0  0  0
  9  4  2  0  0  0  0
 10 11  1  0  0  0  0
 11  3  1  6  0  0  0
 12 10  1  0  0  0  0
 12 11  1  0  0  0  0
 12 13  1  1  0  0  0
 14 13  1  0  0  0  0
 15 21  1  6  0  0  0
 15 16  1  0  0  0  0
 15 17  1  0  0  0  0
 16 18  1  0  0  0  0
 16 17  1  1  0  0  0
 16 19  1  0  0  0  0
 18 14  1  6  0  0  0
 18 19  1  0  0  0  0
 20 23  1  0  0  0  0
 22 21  2  0  0  0  0
 23 21  1  0  0  0  0
 24  1  1  0  0  0  0
 25 27  1  0  0  0  0
 25 29  2  0  0  0  0
 26 24  1  0  0  0  0
 27 28  2  0  0  0  0
 28 26  1  0  0  0  0
 29 26  1  0  0  0  0
M  END
>  <MODEL>
7

>  <REMARK>
 VINA RESULT:      -6.2      2.158      7.513
  Name = 
  8 active torsions:
  status: ('A' for Active; 'I' for Inactive)
    1  A    between atoms: C_2  and  C_5
    2  A    between atoms: C_2  and  N_10
    3  A    between atoms: C_4  and  C_6
    4  A    between atoms: N_9  and  C_18
    5  A    between atoms: N_9  and  C_23
    6  A    between atoms: C_15  and  N_20
    7  A    between atoms: C_17  and  C_18
    8  A    between atoms: N_20  and  C_21
                            x       y       z     vdW  Elec       q    Type
                         _______ _______ _______ _____ _____    ______ ____

>  <TORSDO>
F 8

$$$$
=
 OpenBabel11062422553D

 29 33  0  0  1  0  0  0  0  0999 V2000
  191.8930  175.9500  142.6860 C   0  0  0  0  0  0  0  0  0  0  0  0
  192.8850  175.4730  142.0720 O   0  0  0  0  0  0  0  0  0  0  0  0
  190.5840  175.3530  142.5420 N   0  0  0  0  0  0  0  0  0  0  0  0
  190.1510  171.1870  141.9020 N   0  0  0  0  0  0  0  0  0  0  0  0
  190.4190  173.9260  142.3200 C   0  0  0  0  0  0  0  0  0  0  0  0
  190.7010  173.0070  143.3450 C   0  0  0  0  0  3  0  0  0  0  0  0
  190.0070  173.4220  141.0760 C   0  0  0  0  0  3  0  0  0  0  0  0
  190.5580  171.6370  143.1180 C   0  0  0  0  0  3  0  0  0  0  0  0
  189.8760  172.0450  140.8850 C   0  0  0  0  0  3  0  0  0  0  0  0
  188.3210  175.3750  143.2240 O   0  0  0  0  0  0  0  0  0  0  0  0
  189.3950  176.1780  142.7910 C   0  0  1  0  0  3  0  0  0  0  0  0
  189.0040  176.0900  144.2200 C   0  0  1  0  0  3  0  0  0  0  0  0
  188.2360  177.2680  144.5810 N   0  0  0  0  0  2  0  0  0  0  0  0
  188.2260  177.3230  146.0320 C   0  0  0  0  0  2  0  0  0  0  0  0
  184.8160  177.6340  145.5870 C   0  0  1  0  0  3  0  0  0  0  0  0
  185.9930  178.3580  146.2670 C   0  0  1  0  0  0  0  0  0  0  0  0
  184.5380  178.5500  146.7090 C   0  0  0  0  0  2  0  0  0  0  0  0
  186.8190  177.0920  146.5390 C   0  0  2  0  0  3  0  0  0  0  0  0
  186.5400  178.0080  147.6560 C   0  0  0  0  0  2  0  0  0  0  0  0
  184.6210  178.2640  141.7610 C   0  0  0  0  0  1  0  0  0  0  0  0
  184.5060  178.2920  144.2800 C   0  0  0  0  0  0  0  0  0  0  0  0
  183.9500  179.4240  144.2660 O   0  0  0  0  0  0  0  0  0  0  0  0
  184.8850  177.6590  143.0560 N   0  0  0  0  0  2  0  0  0  0  0  0
  192.1000  177.1350  143.5810 C   0  0  0  0  0  2  0  0  0  0  0  0
  193.1850  176.1030  146.8660 N   0  0  0  0  0  0  0  0  0  0  0  0
  192.7840  176.7440  144.8030 N   0  0  0  0  0  0  0  0  0  0  0  0
  194.3530  176.3410  146.2860 N   0  0  0  0  0  0  0  0  0  0  0  0
  194.1080  176.7360  145.0220 C   0  0  0  0  0  3  0  0  0  0  0  0
  192.2220  176.3530  145.9590 C   0  0  0  0  0  3  0  0  0  0  0  0
  1 24  1  0  0  0  0
  2  1  2  0  0  0  0
  3  1  1  0  0  0  0
  4  8  1  0  0  0  0
  5  3  1  0  0  0  0
  5  6  1  0  0  0  0
  7  5  2  0  0  0  0
  8  6  2  0  0  0  0
  9  7  1  0  0  0  0
  9  4  2  0  0  0  0
 10 12  1  0  0  0  0
 11  3  1  1  0  0  0
 11 10  1  0  0  0  0
 11 12  1  0  0  0  0
 12 13  1  6  0  0  0
 13 14  1  0  0  0  0
 15 21  1  6  0  0  0
 15 16  1  0  0  0  0
 15 17  1  0  0  0  0
 16 18  1  0  0  0  0
 16 17  1  1  0  0  0
 16 19  1  0  0  0  0
 18 14  1  6  0  0  0
 18 19  1  0  0  0  0
 20 23  1  0  0  0  0
 22 21  2  0  0  0  0
 23 21  1  0  0  0  0
 24 26  1  0  0  0  0
 26 28  1  0  0  0  0
 26 29  1  0  0  0  0
 27 25  1  0  0  0  0
 28 27  2  0  0  0  0
 29 25  2  0  0  0  0
M  END
>  <MODEL>
8

>  <REMARK>
 VINA RESULT:      -6.1      2.204      7.775
  Name = 
  8 active torsions:
  status: ('A' for Active; 'I' for Inactive)
    1  A    between atoms: C_2  and  C_5
    2  A    between atoms: C_2  and  N_10
    3  A    between atoms: C_4  and  C_6
    4  A    between atoms: N_9  and  C_18
    5  A    between atoms: N_9  and  C_23
    6  A    between atoms: C_15  and  N_20
    7  A    between atoms: C_17  and  C_18
    8  A    between atoms: N_20  and  C_21
                            x       y       z     vdW  Elec       q    Type
                         _______ _______ _______ _____ _____    ______ ____

>  <TORSDO>
F 8

$$$$
=
 OpenBabel11062422553D

 29 33  0  0  1  0  0  0  0  0999 V2000
  187.5800  176.8510  143.8590 C   0  0  0  0  0  0  0  0  0  0  0  0
  186.8950  176.0540  143.1620 O   0  0  0  0  0  0  0  0  0  0  0  0
  188.8620  176.4450  144.3900 N   0  0  0  0  0  0  0  0  0  0  0  0
  191.3780  173.7050  142.3650 N   0  0  0  0  0  0  0  0  0  0  0  0
  189.7190  175.5110  143.6800 C   0  0  0  0  0  0  0  0  0  0  0  0
  189.5320  174.1260  143.8180 C   0  0  0  0  0  3  0  0  0  0  0  0
  190.7730  175.9580  142.8670 C   0  0  0  0  0  3  0  0  0  0  0  0
  190.3730  173.2340  143.1480 C   0  0  0  0  0  3  0  0  0  0  0  0
  191.5940  175.0370  142.2130 C   0  0  0  0  0  3  0  0  0  0  0  0
  188.6750  176.6980  146.7330 O   0  0  0  0  0  0  0  0  0  0  0  0
  189.3800  177.1200  145.5870 C   0  0  1  0  0  3  0  0  0  0  0  0
  189.9390  176.1230  146.5330 C   0  0  1  0  0  3  0  0  0  0  0  0
  190.9070  176.7720  147.3990 N   0  0  0  0  0  2  0  0  0  0  0  0
  192.0670  175.9000  147.4430 C   0  0  0  0  0  2  0  0  0  0  0  0
  194.0710  174.5570  144.9730 C   0  0  1  0  0  3  0  0  0  0  0  0
  194.1860  175.2740  146.3300 C   0  0  1  0  0  0  0  0  0  0  0  0
  195.3200  175.2700  145.3010 C   0  0  0  0  0  2  0  0  0  0  0  0
  192.8900  176.0870  146.1870 C   0  0  2  0  0  3  0  0  0  0  0  0
  194.1380  176.7960  146.5140 C   0  0  0  0  0  2  0  0  0  0  0  0
  195.7510  171.1230  145.6490 C   0  0  0  0  0  1  0  0  0  0  0  0
  194.2400  173.0840  145.1640 C   0  0  0  0  0  0  0  0  0  0  0  0
  193.2520  172.3160  145.0130 O   0  0  0  0  0  0  0  0  0  0  0  0
  195.5300  172.5480  145.4690 N   0  0  0  0  0  2  0  0  0  0  0  0
  187.0470  178.2300  144.1100 C   0  0  0  0  0  2  0  0  0  0  0  0
  183.9480  178.6660  145.9120 N   0  0  0  0  0  0  0  0  0  0  0  0
  185.8670  178.1780  144.9590 N   0  0  0  0  0  0  0  0  0  0  0  0
  184.4310  177.5890  146.5130 N   0  0  0  0  0  0  0  0  0  0  0  0
  185.6090  177.2900  145.9320 C   0  0  0  0  0  3  0  0  0  0  0  0
  184.8300  179.0310  144.9620 C   0  0  0  0  0  3  0  0  0  0  0  0
  1 24  1  0  0  0  0
  1  3  1  0  0  0  0
  2  1  2  0  0  0  0
  4  8  1  0  0  0  0
  5  6  1  0  0  0  0
  5  3  1  0  0  0  0
  7  5  2  0  0  0  0
  8  6  2  0  0  0  0
  9  4  2  0  0  0  0
  9  7  1  0  0  0  0
 11  3  1  6  0  0  0
 11 12  1  0  0  0  0
 11 10  1  0  0  0  0
 12 10  1  0  0  0  0
 12 13  1  1  0  0  0
 13 14  1  0  0  0  0
 15 21  1  1  0  0  0
 15 17  1  0  0  0  0
 15 16  1  0  0  0  0
 16 17  1  6  0  0  0
 16 19  1  0  0  0  0
 18 16  1  0  0  0  0
 18 19  1  0  0  0  0
 18 14  1  1  0  0  0
 21 23  1  0  0  0  0
 22 21  2  0  0  0  0
 23 20  1  0  0  0  0
 24 26  1  0  0  0  0
 25 27  1  0  0  0  0
 26 29  1  0  0  0  0
 26 28  1  0  0  0  0
 28 27  2  0  0  0  0
 29 25  2  0  0  0  0
M  END
>  <MODEL>
9

>  <REMARK>
 VINA RESULT:      -6.1      2.682      4.755
  Name = 
  8 active torsions:
  status: ('A' for Active; 'I' for Inactive)
    1  A    between atoms: C_2  and  C_5
    2  A    between atoms: C_2  and  N_10
    3  A    between atoms: C_4  and  C_6
    4  A    between atoms: N_9  and  C_18
    5  A    between atoms: N_9  and  C_23
    6  A    between atoms: C_15  and  N_20
    7  A    between atoms: C_17  and  C_18
    8  A    between atoms: N_20  and  C_21
                            x       y       z     vdW  Elec       q    Type
                         _______ _______ _______ _____ _____    ______ ____

>  <TORSDO>
F 8

$$$$
