=
 OpenBabel11072408353D

 26 29  0  0  1  0  0  0  0  0999 V2000
  190.5560  175.8050  147.3520 C   0  0  0  0  0  2  0  0  0  0  0  0
  185.0160  177.5900  145.7030 C   0  0  1  0  0  3  0  0  0  0  0  0
  184.5470  178.2070  144.6320 C   0  0  0  0  0  0  0  0  0  0  0  0
  189.5520  177.6680  144.6080 C   0  0  0  0  0  2  0  0  0  0  0  0
  187.2920  176.3430  142.9580 C   0  0  0  0  0  2  0  0  0  0  0  0
  190.8550  174.7850  146.2530 C   0  0  0  0  0  2  0  0  0  0  0  0
  187.1900  177.3760  146.2520 C   0  0  1  0  0  3  0  0  0  0  0  0
  186.1400  176.7230  145.3620 C   0  0  2  0  0  3  0  0  0  0  0  0
  190.2640  177.6410  145.8250 O   0  0  0  0  0  0  0  0  0  0  0  0
  186.5210  177.9050  147.3870 O   0  0  0  0  0  0  0  0  0  0  0  0
  191.2730  174.8990  142.8940 O   0  0  0  0  0  0  0  0  0  0  0  0
  189.6230  176.9120  146.8700 C   0  0  1  0  0  3  0  0  0  0  0  0
  186.3000  176.9870  143.8880 C   0  0  2  0  0  3  0  0  0  0  0  0
  185.3050  178.2760  146.8980 N   0  0  0  0  0  2  0  0  0  0  0  0
  185.3250  177.7890  143.4840 C   0  0  0  0  0  0  0  0  0  0  0  0
  188.2130  176.3310  146.6490 C   0  0  0  0  0  2  0  0  0  0  0  0
  183.6270  179.2480  144.6480 O   0  0  0  0  0  1  0  0  0  0  0  0
  190.9170  175.5390  143.8730 C   0  0  0  0  0  0  0  0  0  0  0  0
  189.6810  176.4000  143.7410 C   0  0  1  0  0  3  0  0  0  0  0  0
  191.7020  175.4170  145.1570 C   0  0  2  0  0  3  0  0  0  0  0  0
  185.1170  178.2040  142.1740 O   0  0  0  0  0  1  0  0  0  0  0  0
  188.3970  175.5780  143.6840 C   0  0  0  0  0  2  0  0  0  0  0  0
  192.8660  174.6660  144.9710 O   0  0  0  0  0  0  0  0  0  0  0  0
  193.7840  175.1950  145.8820 C   0  0  0  0  0  2  0  0  0  0  0  0
  194.2200  177.1610  146.9000 O   0  0  0  0  0  1  0  0  0  0  0  0
  193.8820  176.6320  145.7010 N   0  0  0  0  0  2  0  0  0  0  0  0
  2  3  1  6  0  0  0
  2 14  1  0  0  0  0
  3 17  1  0  0  0  0
  4  9  1  0  0  0  0
  5 22  1  0  0  0  0
  5 13  1  0  0  0  0
  6  1  1  0  0  0  0
  7 16  1  1  0  0  0
  7 10  1  0  0  0  0
  8  2  1  0  0  0  0
  8  7  1  0  0  0  0
  9 12  1  0  0  0  0
 11 18  2  0  0  0  0
 12  1  1  0  0  0  0
 13  8  1  0  0  0  0
 14 10  1  0  0  0  0
 15 13  1  0  0  0  0
 15  3  2  0  0  0  0
 16 12  1  0  0  0  0
 18 20  1  0  0  0  0
 19 18  1  0  0  0  0
 19  4  1  0  0  0  0
 20  6  1  0  0  0  0
 21 15  1  0  0  0  0
 22 19  1  0  0  0  0
 23 20  1  0  0  0  0
 23 24  1  0  0  0  0
 26 24  1  0  0  0  0
 26 25  1  0  0  0  0
M  END
>  <MODEL>
1

>  <REMARK>
 VINA RESULT:      -7.5      0.000      0.000
  Name = 
  3 active torsions:
  status: ('A' for Active; 'I' for Inactive)
    1  A    between atoms: N_6  and  C_13
    2  A    between atoms: O_12  and  C_13
    3  A    between atoms: O_12  and  C_24
                            x       y       z     vdW  Elec       q    Type
                         _______ _______ _______ _____ _____    ______ ____

>  <TORSDO>
F 3

$$$$
=
 OpenBabel11072408353D

 26 29  0  0  1  0  0  0  0  0999 V2000
  184.6490  178.3250  144.0330 C   0  0  0  0  0  2  0  0  0  0  0  0
  190.1650  177.0300  146.1500 C   0  0  1  0  0  3  0  0  0  0  0  0
  191.1370  176.2450  145.7180 C   0  0  0  0  0  0  0  0  0  0  0  0
  186.9710  176.0160  142.9020 C   0  0  0  0  0  2  0  0  0  0  0  0
  189.7790  177.2140  142.3970 C   0  0  0  0  0  2  0  0  0  0  0  0
  185.0110  178.9880  142.7050 C   0  0  0  0  0  2  0  0  0  0  0  0
  188.0480  177.0470  145.3800 C   0  0  1  0  0  3  0  0  0  0  0  0
  189.4210  177.6100  145.0360 C   0  0  2  0  0  3  0  0  0  0  0  0
  185.7080  176.2350  143.4920 O   0  0  0  0  0  0  0  0  0  0  0  0
  187.9800  176.9190  146.7920 O   0  0  0  0  0  0  0  0  0  0  0  0
  186.5020  177.9930  139.8300 O   0  0  0  0  0  0  0  0  0  0  0  0
  185.6800  177.2850  144.4570 C   0  0  1  0  0  3  0  0  0  0  0  0
  190.0920  176.9720  143.8480 C   0  0  2  0  0  3  0  0  0  0  0  0
  189.2600  176.6220  147.1490 N   0  0  0  0  0  2  0  0  0  0  0  0
  191.1210  176.2490  144.2700 C   0  0  0  0  0  0  0  0  0  0  0  0
  186.9870  177.9950  144.8590 C   0  0  0  0  0  2  0  0  0  0  0  0
  191.8860  175.3880  146.5140 O   0  0  0  0  0  1  0  0  0  0  0  0
  186.2560  177.6730  140.9840 C   0  0  0  0  0  0  0  0  0  0  0  0
  187.3520  176.9980  141.7780 C   0  0  1  0  0  3  0  0  0  0  0  0
  184.8970  177.9890  141.5620 C   0  0  2  0  0  3  0  0  0  0  0  0
  192.0080  175.5600  143.4510 O   0  0  0  0  0  1  0  0  0  0  0  0
  188.4660  177.9620  142.1750 C   0  0  0  0  0  2  0  0  0  0  0  0
  184.0340  178.4910  140.5830 O   0  0  0  0  0  0  0  0  0  0  0  0
  182.8180  177.8400  140.8100 C   0  0  0  0  0  2  0  0  0  0  0  0
  181.2930  178.9860  142.0150 O   0  0  0  0  0  1  0  0  0  0  0  0
  181.7300  178.7990  140.7480 N   0  0  0  0  0  2  0  0  0  0  0  0
  1 12  1  0  0  0  0
  2  3  1  6  0  0  0
  2 14  1  0  0  0  0
  3 17  1  0  0  0  0
  4  9  1  0  0  0  0
  5 13  1  0  0  0  0
  6  1  1  0  0  0  0
  7 16  1  1  0  0  0
  7 10  1  0  0  0  0
  8  7  1  0  0  0  0
  8  2  1  0  0  0  0
  9 12  1  0  0  0  0
 10 14  1  0  0  0  0
 11 18  2  0  0  0  0
 12 16  1  0  0  0  0
 13 15  1  0  0  0  0
 13  8  1  0  0  0  0
 15  3  2  0  0  0  0
 18 20  1  0  0  0  0
 18 19  1  0  0  0  0
 19 22  1  0  0  0  0
 19  4  1  0  0  0  0
 20  6  1  0  0  0  0
 21 15  1  0  0  0  0
 22  5  1  0  0  0  0
 23 24  1  0  0  0  0
 23 20  1  0  0  0  0
 26 24  1  0  0  0  0
 26 25  1  0  0  0  0
M  END
>  <MODEL>
2

>  <REMARK>
 VINA RESULT:      -7.3      2.415      7.054
  Name = 
  3 active torsions:
  status: ('A' for Active; 'I' for Inactive)
    1  A    between atoms: N_6  and  C_13
    2  A    between atoms: O_12  and  C_13
    3  A    between atoms: O_12  and  C_24
                            x       y       z     vdW  Elec       q    Type
                         _______ _______ _______ _____ _____    ______ ____

>  <TORSDO>
F 3

$$$$
=
 OpenBabel11072408353D

 26 29  0  0  1  0  0  0  0  0999 V2000
  191.5470  176.5560  143.6350 C   0  0  0  0  0  2  0  0  0  0  0  0
  185.9990  178.9660  143.6950 C   0  0  1  0  0  3  0  0  0  0  0  0
  184.8600  178.5960  144.2540 C   0  0  0  0  0  0  0  0  0  0  0  0
  188.5960  175.2930  144.9380 C   0  0  0  0  0  2  0  0  0  0  0  0
  187.1420  177.2410  146.8540 C   0  0  0  0  0  2  0  0  0  0  0  0
  191.8960  176.6300  145.1200 C   0  0  0  0  0  2  0  0  0  0  0  0
  187.8450  177.6890  143.5040 C   0  0  1  0  0  3  0  0  0  0  0  0
  187.1400  178.5800  144.5180 C   0  0  2  0  0  3  0  0  0  0  0  0
  189.6120  175.1670  143.9680 O   0  0  0  0  0  0  0  0  0  0  0  0
  187.5510  178.1970  142.2110 O   0  0  0  0  0  0  0  0  0  0  0  0
  190.6990  175.2250  147.9610 O   0  0  0  0  0  0  0  0  0  0  0  0
  190.0480  176.4020  143.4030 C   0  0  1  0  0  3  0  0  0  0  0  0
  186.4720  177.8490  145.6530 C   0  0  2  0  0  3  0  0  0  0  0  0
  186.2920  178.6990  142.3430 N   0  0  0  0  0  2  0  0  0  0  0  0
  185.1570  177.9370  145.5090 C   0  0  0  0  0  0  0  0  0  0  0  0
  189.3350  177.7140  143.7820 C   0  0  0  0  0  2  0  0  0  0  0  0
  183.6170  178.6260  143.6330 O   0  0  0  0  0  1  0  0  0  0  0  0
  190.4870  175.3900  146.7680 C   0  0  0  0  0  0  0  0  0  0  0  0
  189.0730  175.7140  146.3410 C   0  0  1  0  0  3  0  0  0  0  0  0
  191.6380  175.2900  145.7950 C   0  0  2  0  0  3  0  0  0  0  0  0
  184.2160  177.4290  146.3970 O   0  0  0  0  0  1  0  0  0  0  0  0
  188.6600  177.1340  146.7150 C   0  0  0  0  0  2  0  0  0  0  0  0
  192.8030  174.8530  146.4320 O   0  0  0  0  0  0  0  0  0  0  0  0
  193.6610  175.9550  146.4040 C   0  0  0  0  0  2  0  0  0  0  0  0
  195.4430  176.0150  145.0200 O   0  0  0  0  0  1  0  0  0  0  0  0
  195.0280  175.5090  146.2050 N   0  0  0  0  0  2  0  0  0  0  0  0
  1  6  1  0  0  0  0
  2 14  1  6  0  0  0
  2  3  1  0  0  0  0
  2  8  1  0  0  0  0
  3 15  2  0  0  0  0
  4 19  1  0  0  0  0
  6 20  1  0  0  0  0
  7 16  1  1  0  0  0
  7  8  1  0  0  0  0
  8 13  1  0  0  0  0
  9  4  1  0  0  0  0
 10 14  1  0  0  0  0
 10  7  1  0  0  0  0
 12  1  1  0  0  0  0
 12 16  1  0  0  0  0
 12  9  1  0  0  0  0
 13  5  1  0  0  0  0
 15 13  1  0  0  0  0
 15 21  1  0  0  0  0
 17  3  1  0  0  0  0
 18 11  2  0  0  0  0
 19 22  1  0  0  0  0
 19 18  1  0  0  0  0
 20 23  1  0  0  0  0
 20 18  1  0  0  0  0
 22  5  1  0  0  0  0
 24 23  1  0  0  0  0
 25 26  1  0  0  0  0
 26 24  1  0  0  0  0
M  END
>  <MODEL>
3

>  <REMARK>
 VINA RESULT:      -7.3      1.767      3.059
  Name = 
  3 active torsions:
  status: ('A' for Active; 'I' for Inactive)
    1  A    between atoms: N_6  and  C_13
    2  A    between atoms: O_12  and  C_13
    3  A    between atoms: O_12  and  C_24
                            x       y       z     vdW  Elec       q    Type
                         _______ _______ _______ _____ _____    ______ ____

>  <TORSDO>
F 3

$$$$
=
 OpenBabel11072408353D

 26 29  0  0  1  0  0  0  0  0999 V2000
  191.2490  176.0780  146.3120 C   0  0  0  0  0  2  0  0  0  0  0  0
  185.3770  177.5290  146.3120 C   0  0  1  0  0  3  0  0  0  0  0  0
  184.5780  178.0600  145.4020 C   0  0  0  0  0  0  0  0  0  0  0  0
  189.3750  177.7290  143.9110 C   0  0  0  0  0  2  0  0  0  0  0  0
  186.8080  176.2160  143.0720 C   0  0  0  0  0  2  0  0  0  0  0  0
  191.2690  175.0070  145.2220 C   0  0  0  0  0  2  0  0  0  0  0  0
  187.6240  177.4390  146.1960 C   0  0  1  0  0  3  0  0  0  0  0  0
  186.3980  176.6910  145.6910 C   0  0  2  0  0  3  0  0  0  0  0  0
  190.4140  177.8050  144.8610 O   0  0  0  0  0  0  0  0  0  0  0  0
  187.2910  178.0060  147.4540 O   0  0  0  0  0  0  0  0  0  0  0  0
  190.6690  174.9370  141.8880 O   0  0  0  0  0  0  0  0  0  0  0  0
  190.1540  177.1140  146.0810 C   0  0  1  0  0  3  0  0  0  0  0  0
  186.1000  176.8720  144.2250 C   0  0  2  0  0  3  0  0  0  0  0  0
  185.9660  178.2970  147.3330 N   0  0  0  0  0  2  0  0  0  0  0  0
  185.0040  177.6070  144.0950 C   0  0  0  0  0  0  0  0  0  0  0  0
  188.7780  176.4630  146.3170 C   0  0  0  0  0  2  0  0  0  0  0  0
  183.6450  179.0610  145.6450 O   0  0  0  0  0  1  0  0  0  0  0  0
  190.5820  175.6190  142.8990 C   0  0  0  0  0  0  0  0  0  0  0  0
  189.3140  176.4190  143.1030 C   0  0  1  0  0  3  0  0  0  0  0  0
  191.7170  175.6070  143.8950 C   0  0  2  0  0  3  0  0  0  0  0  0
  184.3950  177.9340  142.8890 O   0  0  0  0  0  1  0  0  0  0  0  0
  188.1200  175.5420  143.4690 C   0  0  0  0  0  2  0  0  0  0  0  0
  192.8150  174.8950  143.4040 O   0  0  0  0  0  0  0  0  0  0  0  0
  192.8170  173.6990  144.1270 C   0  0  0  0  0  2  0  0  0  0  0  0
  191.6940  171.9680  143.2140 O   0  0  0  0  0  1  0  0  0  0  0  0
  192.9040  172.5740  143.2140 N   0  0  0  0  0  2  0  0  0  0  0  0
  2  3  1  6  0  0  0
  2 14  1  0  0  0  0
  3 17  1  0  0  0  0
  4  9  1  0  0  0  0
  5 22  1  0  0  0  0
  5 13  1  0  0  0  0
  6  1  1  0  0  0  0
  7 16  1  1  0  0  0
  7 10  1  0  0  0  0
  8  7  1  0  0  0  0
  8  2  1  0  0  0  0
  9 12  1  0  0  0  0
 11 18  2  0  0  0  0
 12  1  1  0  0  0  0
 12 16  1  0  0  0  0
 13  8  1  0  0  0  0
 14 10  1  0  0  0  0
 15 13  1  0  0  0  0
 15  3  2  0  0  0  0
 18 19  1  0  0  0  0
 18 20  1  0  0  0  0
 19 22  1  0  0  0  0
 19  4  1  0  0  0  0
 20  6  1  0  0  0  0
 21 15  1  0  0  0  0
 23 20  1  0  0  0  0
 23 24  1  0  0  0  0
 26 25  1  0  0  0  0
 26 24  1  0  0  0  0
M  END
>  <MODEL>
4

>  <REMARK>
 VINA RESULT:      -7.0      1.594      1.918
  Name = 
  3 active torsions:
  status: ('A' for Active; 'I' for Inactive)
    1  A    between atoms: N_6  and  C_13
    2  A    between atoms: O_12  and  C_13
    3  A    between atoms: O_12  and  C_24
                            x       y       z     vdW  Elec       q    Type
                         _______ _______ _______ _____ _____    ______ ____

>  <TORSDO>
F 3

$$$$
=
 OpenBabel11072408353D

 26 29  0  0  1  0  0  0  0  0999 V2000
  187.8700  175.7990  141.7300 C   0  0  0  0  0  2  0  0  0  0  0  0
  192.5540  174.9370  145.4600 C   0  0  1  0  0  3  0  0  0  0  0  0
  193.0320  175.6250  146.4820 C   0  0  0  0  0  0  0  0  0  0  0  0
  189.1460  177.8670  144.2000 C   0  0  0  0  0  2  0  0  0  0  0  0
  189.4480  176.4850  146.9530 C   0  0  0  0  0  2  0  0  0  0  0  0
  186.7100  175.7240  142.7210 C   0  0  0  0  0  2  0  0  0  0  0  0
  191.0160  175.6710  143.9860 C   0  0  1  0  0  3  0  0  0  0  0  0
  191.1010  175.0580  145.3780 C   0  0  2  0  0  3  0  0  0  0  0  0
  188.9260  177.6650  142.8220 O   0  0  0  0  0  0  0  0  0  0  0  0
  192.1180  175.1830  143.2350 O   0  0  0  0  0  0  0  0  0  0  0  0
  185.6680  177.5580  145.3720 O   0  0  0  0  0  0  0  0  0  0  0  0
  189.1460  176.3280  142.3770 C   0  0  1  0  0  3  0  0  0  0  0  0
  190.8030  176.0040  146.5110 C   0  0  2  0  0  3  0  0  0  0  0  0
  193.1010  175.0380  144.1670 N   0  0  0  0  0  2  0  0  0  0  0  0
  191.9250  176.2550  147.1710 C   0  0  0  0  0  0  0  0  0  0  0  0
  189.6970  175.2730  143.3560 C   0  0  0  0  0  2  0  0  0  0  0  0
  194.3780  175.8860  146.7110 O   0  0  0  0  0  1  0  0  0  0  0  0
  186.5850  177.3850  144.5820 C   0  0  0  0  0  0  0  0  0  0  0  0
  187.9970  177.4190  145.1230 C   0  0  1  0  0  3  0  0  0  0  0  0
  186.2670  177.1220  143.1300 C   0  0  2  0  0  3  0  0  0  0  0  0
  192.0270  177.0440  148.3110 O   0  0  0  0  0  1  0  0  0  0  0  0
  188.3380  176.1810  145.9480 C   0  0  0  0  0  2  0  0  0  0  0  0
  184.9010  177.2750  142.8740 O   0  0  0  0  0  0  0  0  0  0  0  0
  184.7970  178.4990  142.2070 C   0  0  0  0  0  2  0  0  0  0  0  0
  184.0220  178.0470  140.1370 O   0  0  0  0  0  1  0  0  0  0  0  0
  185.1610  178.3290  140.8120 N   0  0  0  0  0  2  0  0  0  0  0  0
  1 12  1  0  0  0  0
  1  6  1  0  0  0  0
  2 14  1  6  0  0  0
  2  3  1  0  0  0  0
  3 17  1  0  0  0  0
  3 15  2  0  0  0  0
  4 19  1  0  0  0  0
  6 20  1  0  0  0  0
  7 16  1  6  0  0  0
  7  8  1  0  0  0  0
  8  2  1  0  0  0  0
  8 13  1  0  0  0  0
  9  4  1  0  0  0  0
 10  7  1  0  0  0  0
 10 14  1  0  0  0  0
 12  9  1  0  0  0  0
 12 16  1  0  0  0  0
 13  5  1  0  0  0  0
 13 15  1  0  0  0  0
 15 21  1  0  0  0  0
 18 19  1  0  0  0  0
 18 11  2  0  0  0  0
 19 22  1  0  0  0  0
 20 18  1  0  0  0  0
 22  5  1  0  0  0  0
 23 20  1  0  0  0  0
 24 23  1  0  0  0  0
 25 26  1  0  0  0  0
 26 24  1  0  0  0  0
M  END
>  <MODEL>
5

>  <REMARK>
 VINA RESULT:      -7.0      1.911      7.127
  Name = 
  3 active torsions:
  status: ('A' for Active; 'I' for Inactive)
    1  A    between atoms: N_6  and  C_13
    2  A    between atoms: O_12  and  C_13
    3  A    between atoms: O_12  and  C_24
                            x       y       z     vdW  Elec       q    Type
                         _______ _______ _______ _____ _____    ______ ____

>  <TORSDO>
F 3

$$$$
=
 OpenBabel11072408353D

 26 29  0  0  1  0  0  0  0  0999 V2000
  190.1350  176.9410  143.1970 C   0  0  0  0  0  2  0  0  0  0  0  0
  185.0000  178.3380  140.3190 C   0  0  1  0  0  3  0  0  0  0  0  0
  183.7240  178.1880  140.6260 C   0  0  0  0  0  0  0  0  0  0  0  0
  186.8530  176.2170  144.0410 C   0  0  0  0  0  2  0  0  0  0  0  0
  184.9980  178.6940  144.0800 C   0  0  0  0  0  2  0  0  0  0  0  0
  190.0080  177.8300  144.4340 C   0  0  0  0  0  2  0  0  0  0  0  0
  186.7330  177.3840  141.3970 C   0  0  1  0  0  3  0  0  0  0  0  0
  185.8040  178.5850  141.5130 C   0  0  2  0  0  3  0  0  0  0  0  0
  188.1100  175.7190  143.6400 O   0  0  0  0  0  0  0  0  0  0  0  0
  186.8870  177.0940  140.0160 O   0  0  0  0  0  0  0  0  0  0  0  0
  187.9040  178.0070  147.0830 O   0  0  0  0  0  0  0  0  0  0  0  0
  188.7750  176.5110  142.6570 C   0  0  1  0  0  3  0  0  0  0  0  0
  184.7720  178.4910  142.6070 C   0  0  2  0  0  3  0  0  0  0  0  0
  185.6820  177.4350  139.4810 N   0  0  0  0  0  2  0  0  0  0  0  0
  183.5750  178.3320  142.0590 C   0  0  0  0  0  0  0  0  0  0  0  0
  188.0610  177.7300  142.0410 C   0  0  0  0  0  2  0  0  0  0  0  0
  182.7400  177.7370  139.7540 O   0  0  0  0  0  1  0  0  0  0  0  0
  188.0840  177.4900  145.9900 C   0  0  0  0  0  0  0  0  0  0  0  0
  186.8950  177.3690  145.0620 C   0  0  1  0  0  3  0  0  0  0  0  0
  189.4720  177.0290  145.6120 C   0  0  2  0  0  3  0  0  0  0  0  0
  182.3760  178.2620  142.7570 O   0  0  0  0  0  1  0  0  0  0  0  0
  186.4740  178.7110  144.4720 C   0  0  0  0  0  2  0  0  0  0  0  0
  190.3530  177.1360  146.6930 O   0  0  0  0  0  0  0  0  0  0  0  0
  191.0200  175.9090  146.7330 C   0  0  0  0  0  2  0  0  0  0  0  0
  189.3970  174.6260  147.6350 O   0  0  0  0  0  1  0  0  0  0  0  0
  190.6080  175.1650  147.9100 N   0  0  0  0  0  2  0  0  0  0  0  0
  1  6  1  0  0  0  0
  2 14  1  1  0  0  0
  2  3  1  0  0  0  0
  2  8  1  0  0  0  0
  3 15  2  0  0  0  0
  4 19  1  0  0  0  0
  5 22  1  0  0  0  0
  6 20  1  0  0  0  0
  7  8  1  0  0  0  0
  7 16  1  6  0  0  0
  8 13  1  0  0  0  0
  9  4  1  0  0  0  0
 10  7  1  0  0  0  0
 12  1  1  0  0  0  0
 12  9  1  0  0  0  0
 13  5  1  0  0  0  0
 14 10  1  0  0  0  0
 15 13  1  0  0  0  0
 15 21  1  0  0  0  0
 16 12  1  0  0  0  0
 17  3  1  0  0  0  0
 18 11  2  0  0  0  0
 19 18  1  0  0  0  0
 20 18  1  0  0  0  0
 20 23  1  0  0  0  0
 22 19  1  0  0  0  0
 23 24  1  0  0  0  0
 24 26  1  0  0  0  0
 25 26  1  0  0  0  0
M  END
>  <MODEL>
6

>  <REMARK>
 VINA RESULT:      -6.9      2.631      4.447
  Name = 
  3 active torsions:
  status: ('A' for Active; 'I' for Inactive)
    1  A    between atoms: N_6  and  C_13
    2  A    between atoms: O_12  and  C_13
    3  A    between atoms: O_12  and  C_24
                            x       y       z     vdW  Elec       q    Type
                         _______ _______ _______ _____ _____    ______ ____

>  <TORSDO>
F 3

$$$$
=
 OpenBabel11072408353D

 26 29  0  0  1  0  0  0  0  0999 V2000
  186.6890  177.3730  145.4350 C   0  0  0  0  0  2  0  0  0  0  0  0
  192.4890  176.0380  146.5170 C   0  0  1  0  0  3  0  0  0  0  0  0
  193.4520  175.5260  145.7700 C   0  0  0  0  0  0  0  0  0  0  0  0
  189.0070  175.7690  143.4200 C   0  0  0  0  0  2  0  0  0  0  0  0
  191.6530  177.3370  143.0700 C   0  0  0  0  0  2  0  0  0  0  0  0
  186.8490  178.4470  144.3600 C   0  0  0  0  0  2  0  0  0  0  0  0
  190.3000  176.0840  145.9890 C   0  0  1  0  0  3  0  0  0  0  0  0
  191.5830  176.8580  145.7190 C   0  0  2  0  0  3  0  0  0  0  0  0
  187.8120  175.6690  144.1620 O   0  0  0  0  0  0  0  0  0  0  0  0
  190.4060  175.5180  147.2860 O   0  0  0  0  0  0  0  0  0  0  0  0
  188.0520  178.5450  141.1950 O   0  0  0  0  0  0  0  0  0  0  0  0
  187.8290  176.3600  145.4090 C   0  0  1  0  0  3  0  0  0  0  0  0
  192.1500  176.6900  144.3330 C   0  0  2  0  0  3  0  0  0  0  0  0
  191.7360  175.2530  147.4120 N   0  0  0  0  0  2  0  0  0  0  0  0
  193.2650  175.9760  144.4070 C   0  0  0  0  0  0  0  0  0  0  0  0
  189.1240  177.0370  145.8960 C   0  0  0  0  0  2  0  0  0  0  0  0
  194.3440  174.5430  146.1800 O   0  0  0  0  0  1  0  0  0  0  0  0
  187.9650  177.8600  142.2040 C   0  0  0  0  0  0  0  0  0  0  0  0
  189.1890  177.0840  142.6380 C   0  0  1  0  0  3  0  0  0  0  0  0
  186.6660  177.8450  142.9740 C   0  0  2  0  0  3  0  0  0  0  0  0
  194.0930  175.6670  143.3340 O   0  0  0  0  0  1  0  0  0  0  0  0
  190.2770  177.9830  143.2180 C   0  0  0  0  0  2  0  0  0  0  0  0
  185.6630  178.5380  142.2890 O   0  0  0  0  0  0  0  0  0  0  0  0
  184.4780  177.8820  142.6320 C   0  0  0  0  0  2  0  0  0  0  0  0
  184.1170  178.5600  140.5100 O   0  0  0  0  0  1  0  0  0  0  0  0
  183.4690  178.1300  141.6170 N   0  0  0  0  0  2  0  0  0  0  0  0
  2  3  1  6  0  0  0
  2 14  1  0  0  0  0
  3 17  1  0  0  0  0
  4  9  1  0  0  0  0
  5 22  1  0  0  0  0
  5 13  1  0  0  0  0
  6  1  1  0  0  0  0
  7 16  1  1  0  0  0
  7 10  1  0  0  0  0
  8  7  1  0  0  0  0
  8  2  1  0  0  0  0
  9 12  1  0  0  0  0
 10 14  1  0  0  0  0
 11 18  2  0  0  0  0
 12  1  1  0  0  0  0
 12 16  1  0  0  0  0
 13 15  1  0  0  0  0
 13  8  1  0  0  0  0
 15  3  2  0  0  0  0
 18 19  1  0  0  0  0
 18 20  1  0  0  0  0
 19 22  1  0  0  0  0
 19  4  1  0  0  0  0
 20  6  1  0  0  0  0
 21 15  1  0  0  0  0
 23 24  1  0  0  0  0
 23 20  1  0  0  0  0
 25 26  1  0  0  0  0
 26 24  1  0  0  0  0
M  END
>  <MODEL>
7

>  <REMARK>
 VINA RESULT:      -6.9      2.199      6.878
  Name = 
  3 active torsions:
  status: ('A' for Active; 'I' for Inactive)
    1  A    between atoms: N_6  and  C_13
    2  A    between atoms: O_12  and  C_13
    3  A    between atoms: O_12  and  C_24
                            x       y       z     vdW  Elec       q    Type
                         _______ _______ _______ _____ _____    ______ ____

>  <TORSDO>
F 3

$$$$
=
 OpenBabel11072408353D

 26 29  0  0  1  0  0  0  0  0999 V2000
  187.9280  176.0510  142.2180 C   0  0  0  0  0  2  0  0  0  0  0  0
  193.6990  175.2970  143.8700 C   0  0  1  0  0  3  0  0  0  0  0  0
  194.4930  175.9500  144.7010 C   0  0  0  0  0  0  0  0  0  0  0  0
  189.9400  178.0410  144.2180 C   0  0  0  0  0  2  0  0  0  0  0  0
  191.3080  176.5070  146.5320 C   0  0  0  0  0  2  0  0  0  0  0  0
  187.2260  175.8250  143.5570 C   0  0  0  0  0  2  0  0  0  0  0  0
  191.6910  176.0100  143.1370 C   0  0  1  0  0  3  0  0  0  0  0  0
  192.3160  175.3140  144.3390 C   0  0  2  0  0  3  0  0  0  0  0  0
  189.2310  177.9140  143.0060 O   0  0  0  0  0  0  0  0  0  0  0  0
  192.4540  175.6550  141.9930 O   0  0  0  0  0  0  0  0  0  0  0  0
  187.1670  177.3980  146.5560 O   0  0  0  0  0  0  0  0  0  0  0  0
  189.3290  176.6290  142.3940 C   0  0  1  0  0  3  0  0  0  0  0  0
  192.4200  176.1590  145.5820 C   0  0  2  0  0  3  0  0  0  0  0  0
  193.7190  175.5230  142.4800 N   0  0  0  0  0  2  0  0  0  0  0  0
  193.6960  176.4490  145.8010 C   0  0  0  0  0  0  0  0  0  0  0  0
  190.2510  175.5560  143.0040 C   0  0  0  0  0  2  0  0  0  0  0  0
  195.8140  176.2940  144.4400 O   0  0  0  0  0  1  0  0  0  0  0  0
  187.7310  177.3460  145.4720 C   0  0  0  0  0  0  0  0  0  0  0  0
  189.2400  177.4490  145.4560 C   0  0  1  0  0  3  0  0  0  0  0  0
  186.9060  177.1560  144.2220 C   0  0  2  0  0  3  0  0  0  0  0  0
  194.1800  177.1660  146.8890 O   0  0  0  0  0  1  0  0  0  0  0  0
  189.9180  176.1890  145.9840 C   0  0  0  0  0  2  0  0  0  0  0  0
  185.5380  177.2240  144.5020 O   0  0  0  0  0  0  0  0  0  0  0  0
  185.0730  178.3100  143.7560 C   0  0  0  0  0  2  0  0  0  0  0  0
  184.0750  178.9250  145.6830 O   0  0  0  0  0  1  0  0  0  0  0  0
  184.7780  179.4230  144.6400 N   0  0  0  0  0  2  0  0  0  0  0  0
  1 12  1  0  0  0  0
  1  6  1  0  0  0  0
  2 14  1  6  0  0  0
  2  8  1  0  0  0  0
  2  3  1  0  0  0  0
  3 15  2  0  0  0  0
  4 19  1  0  0  0  0
  6 20  1  0  0  0  0
  7 16  1  6  0  0  0
  7  8  1  0  0  0  0
  8 13  1  0  0  0  0
  9  4  1  0  0  0  0
 10 14  1  0  0  0  0
 10  7  1  0  0  0  0
 12 16  1  0  0  0  0
 12  9  1  0  0  0  0
 13 15  1  0  0  0  0
 13  5  1  0  0  0  0
 15 21  1  0  0  0  0
 17  3  1  0  0  0  0
 18 11  2  0  0  0  0
 19 18  1  0  0  0  0
 19 22  1  0  0  0  0
 20 23  1  0  0  0  0
 20 18  1  0  0  0  0
 22  5  1  0  0  0  0
 24 23  1  0  0  0  0
 24 26  1  0  0  0  0
 26 25  1  0  0  0  0
M  END
>  <MODEL>
8

>  <REMARK>
 VINA RESULT:      -6.8      1.703      7.291
  Name = 
  3 active torsions:
  status: ('A' for Active; 'I' for Inactive)
    1  A    between atoms: N_6  and  C_13
    2  A    between atoms: O_12  and  C_13
    3  A    between atoms: O_12  and  C_24
                            x       y       z     vdW  Elec       q    Type
                         _______ _______ _______ _____ _____    ______ ____

>  <TORSDO>
F 3

$$$$
=
 OpenBabel11072408353D

 26 29  0  0  1  0  0  0  0  0999 V2000
  187.8060  176.5350  146.7440 C   0  0  0  0  0  2  0  0  0  0  0  0
  193.7140  176.0580  145.5340 C   0  0  1  0  0  3  0  0  0  0  0  0
  194.3910  175.7780  144.4340 C   0  0  0  0  0  0  0  0  0  0  0  0
  189.3990  175.5180  143.8400 C   0  0  0  0  0  2  0  0  0  0  0  0
  191.5310  177.5160  142.8190 C   0  0  0  0  0  2  0  0  0  0  0  0
  187.4360  177.7160  145.8460 C   0  0  0  0  0  2  0  0  0  0  0  0
  191.4940  175.7990  145.8140 C   0  0  1  0  0  3  0  0  0  0  0  0
  192.4900  176.7910  145.2280 C   0  0  2  0  0  3  0  0  0  0  0  0
  188.5780  175.1580  144.9280 O   0  0  0  0  0  0  0  0  0  0  0  0
  192.1330  175.1400  146.8980 O   0  0  0  0  0  0  0  0  0  0  0  0
  187.3790  178.2950  142.5090 O   0  0  0  0  0  0  0  0  0  0  0  0
  188.9680  175.7250  146.1780 C   0  0  1  0  0  3  0  0  0  0  0  0
  192.5270  176.8440  143.7230 C   0  0  2  0  0  3  0  0  0  0  0  0
  193.4380  175.0830  146.5130 N   0  0  0  0  0  2  0  0  0  0  0  0
  193.6680  176.3160  143.3010 C   0  0  0  0  0  0  0  0  0  0  0  0
  190.2630  176.5540  146.2740 C   0  0  0  0  0  2  0  0  0  0  0  0
  195.4800  174.9180  144.3610 O   0  0  0  0  0  1  0  0  0  0  0  0
  187.7480  177.5160  143.3760 C   0  0  0  0  0  0  0  0  0  0  0  0
  189.1270  176.9110  143.2410 C   0  0  1  0  0  3  0  0  0  0  0  0
  186.8310  177.2210  144.5390 C   0  0  2  0  0  3  0  0  0  0  0  0
  194.0760  176.2430  141.9740 O   0  0  0  0  0  1  0  0  0  0  0  0
  190.2390  177.9160  143.5280 C   0  0  0  0  0  2  0  0  0  0  0  0
  185.5730  177.8040  144.3540 O   0  0  0  0  0  0  0  0  0  0  0  0
  185.5290  178.8590  145.2690 C   0  0  0  0  0  2  0  0  0  0  0  0
  184.0660  178.2910  146.8900 O   0  0  0  0  0  1  0  0  0  0  0  0
  184.1730  179.0270  145.7600 N   0  0  0  0  0  2  0  0  0  0  0  0
  2  3  1  6  0  0  0
  2 14  1  0  0  0  0
  4  9  1  0  0  0  0
  5 22  1  0  0  0  0
  5 13  1  0  0  0  0
  6  1  1  0  0  0  0
  7 16  1  1  0  0  0
  7 10  1  0  0  0  0
  8  2  1  0  0  0  0
  8  7  1  0  0  0  0
  9 12  1  0  0  0  0
 11 18  2  0  0  0  0
 12 16  1  0  0  0  0
 12  1  1  0  0  0  0
 13  8  1  0  0  0  0
 14 10  1  0  0  0  0
 15 13  1  0  0  0  0
 15  3  2  0  0  0  0
 17  3  1  0  0  0  0
 18 20  1  0  0  0  0
 19 18  1  0  0  0  0
 19 22  1  0  0  0  0
 19  4  1  0  0  0  0
 20  6  1  0  0  0  0
 21 15  1  0  0  0  0
 23 20  1  0  0  0  0
 23 24  1  0  0  0  0
 24 26  1  0  0  0  0
 26 25  1  0  0  0  0
M  END
>  <MODEL>
9

>  <REMARK>
 VINA RESULT:      -6.8      1.858      6.823
  Name = 
  3 active torsions:
  status: ('A' for Active; 'I' for Inactive)
    1  A    between atoms: N_6  and  C_13
    2  A    between atoms: O_12  and  C_13
    3  A    between atoms: O_12  and  C_24
                            x       y       z     vdW  Elec       q    Type
                         _______ _______ _______ _____ _____    ______ ____

>  <TORSDO>
F 3

$$$$
