=
 OpenBabel11072409133D

 39 41  0  0  1  0  0  0  0  0999 V2000
  194.1760  170.0030  145.3260 C   0  0  0  0  0  1  0  0  0  0  0  0
  193.8130  172.5040  145.0970 C   0  0  0  0  0  0  0  0  0  0  0  0
  196.4990  172.9760  145.7610 C   0  0  0  0  0  3  0  0  0  0  0  0
  194.3130  173.8270  145.1380 C   0  0  0  0  0  0  0  0  0  0  0  0
  194.6720  171.4210  145.4020 C   0  0  0  0  0  0  0  0  0  0  0  0
  195.6570  174.0430  145.4570 C   0  0  0  0  0  3  0  0  0  0  0  0
  196.0140  171.6700  145.7430 C   0  0  0  0  0  0  0  0  0  0  0  0
  197.1370  170.3690  146.1300 Cl  0  0  0  0  0  0  0  0  0  0  0  0
  193.4250  175.6120  143.4310 C   0  0  2  0  0  3  0  0  0  0  0  0
  191.7590  176.6070  144.9850 C   0  0  2  0  0  3  0  0  0  0  0  0
  194.7240  176.3270  143.1150 C   0  0  0  0  0  1  0  0  0  0  0  0
  192.5350  175.2670  146.9830 O   0  0  0  0  0  1  0  0  0  0  0  0
  192.3400  176.6200  143.6140 C   0  0  0  0  0  0  0  0  0  0  0  0
  193.4760  175.0000  144.7920 C   0  0  0  0  0  0  0  0  0  0  0  0
  192.6260  175.5880  145.6320 C   0  0  0  0  0  0  0  0  0  0  0  0
  191.9540  177.3660  142.7280 O   0  0  0  0  0  0  0  0  0  0  0  0
  190.4040  176.0970  144.9010 N   0  0  0  0  0  2  0  0  0  0  0  0
  189.5910  176.8820  145.7330 N   0  0  0  0  0  2  0  0  0  0  0  0
  188.6300  176.2770  146.6040 C   0  0  0  0  0  0  0  0  0  0  0  0
  188.9440  174.8400  147.3220 S   0  0  0  0  0  0  0  0  0  0  0  0
  187.3950  176.9300  146.8850 N   0  0  0  0  0  2  0  0  0  0  0  0
  186.2380  176.7980  146.0190 C   0  0  0  0  0  2  0  0  0  0  0  0
  185.6070  178.6000  147.6070 C   0  0  0  0  0  1  0  0  0  0  0  0
  184.4230  178.3740  145.4470 C   0  0  0  0  0  1  0  0  0  0  0  0
  185.0900  177.6190  146.5750 C   0  0  0  0  0  3  0  0  0  0  0  0
  192.3990  172.2440  144.6370 C   0  0  0  0  0  2  0  0  0  0  0  0
  192.3120  172.1740  143.1130 C   0  0  0  0  0  2  0  0  0  0  0  0
  189.9690  172.6350  143.7770 C   0  0  0  0  0  1  0  0  0  0  0  0
  190.8720  172.2840  142.6080 C   0  0  2  0  0  0  0  0  0  0  0  0
  190.4490  170.9220  142.0530 C   0  0  0  0  0  2  0  0  0  0  0  0
  191.1270  170.6010  140.7280 C   0  0  0  0  0  1  0  0  0  0  0  0
  190.7520  173.3040  141.6080 O   0  0  0  0  0  0  0  0  0  0  0  0
  189.3310  175.2820  141.6880 N   0  0  0  0  0  2  0  0  0  0  0  0
  188.6780  173.3410  140.5650 O   0  0  0  0  0  0  0  0  0  0  0  0
  189.5510  173.9380  141.2550 C   0  0  0  0  0  0  0  0  0  0  0  0
  187.9880  177.1880  142.3960 C   0  0  1  0  0  3  0  0  0  0  0  0
  187.2290  175.9140  142.7090 C   0  0  0  0  0  2  0  0  0  0  0  0
  188.0840  175.9980  141.4590 C   0  0  2  0  0  3  0  0  0  0  0  0
  187.1110  178.1180  141.8540 O   0  0  0  0  0  1  0  0  0  0  0  0
  1  5  1  0  0  0  0
  2  4  2  0  0  0  0
  2  5  1  0  0  0  0
  4  6  1  0  0  0  0
  5  7  2  0  0  0  0
  6  3  2  0  0  0  0
  7  3  1  0  0  0  0
  7  8  1  0  0  0  0
  9 11  1  1  0  0  0
  9 13  1  0  0  0  0
  9 14  1  0  0  0  0
 10 17  1  6  0  0  0
 10 15  1  0  0  0  0
 13 10  1  0  0  0  0
 14  4  1  0  0  0  0
 14 15  2  0  0  0  0
 15 12  1  0  0  0  0
 16 13  2  0  0  0  0
 17 18  1  0  0  0  0
 18 19  1  0  0  0  0
 19 21  1  0  0  0  0
 19 20  2  0  0  0  0
 22 25  1  0  0  0  0
 22 21  1  0  0  0  0
 24 25  1  0  0  0  0
 25 23  1  0  0  0  0
 26  2  1  0  0  0  0
 27 26  1  0  0  0  0
 29 27  1  0  0  0  0
 29 28  1  1  0  0  0
 30 29  1  0  0  0  0
 31 30  1  0  0  0  0
 32 29  1  0  0  0  0
 34 35  2  0  0  0  0
 35 32  1  0  0  0  0
 35 33  1  0  0  0  0
 36 39  1  6  0  0  0
 36 37  1  0  0  0  0
 38 33  1  1  0  0  0
 38 36  1  0  0  0  0
 38 37  1  0  0  0  0
M  END
>  <MODEL>
1

>  <REMARK>
 VINA RESULT:      -6.4      0.000      0.000
  Name = 
  14 active torsions:
  status: ('A' for Active; 'I' for Inactive)
    1  A    between atoms: C_2  and  C_14
    2  A    between atoms: C_7  and  C_24
    3  A    between atoms: N_9  and  C_31
    4  A    between atoms: C_10  and  N_21
    5  A    between atoms: C_10  and  N_38
    6  A    between atoms: N_13  and  C_17
    7  A    between atoms: N_13  and  N_21
    8  A    between atoms: C_14  and  O_26
    9  A    between atoms: C_14  and  C_36
   10  A    between atoms: C_15  and  C_27
   11  A    between atoms: C_18  and  C_20
   12  A    between atoms: C_20  and  N_38
   13  A    between atoms: C_24  and  C_36
   14  A    between atoms: O_26  and  C_34
                            x       y       z     vdW  Elec       q    Type
                         _______ _______ _______ _____ _____    ______ ____

>  <TORSDO>
F 14

$$$$
=
 OpenBabel11072409133D

 39 41  0  0  1  0  0  0  0  0999 V2000
  193.6000  176.7510  146.7900 C   0  0  0  0  0  1  0  0  0  0  0  0
  191.7060  175.9060  145.3290 C   0  0  0  0  0  0  0  0  0  0  0  0
  189.8520  176.5110  147.3470 C   0  0  0  0  0  3  0  0  0  0  0  0
  190.3270  175.6630  145.1230 C   0  0  0  0  0  0  0  0  0  0  0  0
  192.1460  176.4460  146.5610 C   0  0  0  0  0  0  0  0  0  0  0  0
  189.4160  175.9830  146.1340 C   0  0  0  0  0  3  0  0  0  0  0  0
  191.2090  176.7360  147.5690 C   0  0  0  0  0  0  0  0  0  0  0  0
  191.6870  177.4120  149.1240 Cl  0  0  0  0  0  0  0  0  0  0  0  0
  189.4300  173.7050  143.6220 C   0  0  2  0  0  3  0  0  0  0  0  0
  188.8190  175.1540  141.6960 C   0  0  2  0  0  3  0  0  0  0  0  0
  190.6680  172.8310  143.5810 C   0  0  0  0  0  1  0  0  0  0  0  0
  189.8530  177.2380  142.6880 O   0  0  0  0  0  1  0  0  0  0  0  0
  188.8310  173.7750  142.2570 C   0  0  0  0  0  0  0  0  0  0  0  0
  189.8000  175.1350  143.8430 C   0  0  0  0  0  0  0  0  0  0  0  0
  189.5290  175.8870  142.7780 C   0  0  0  0  0  0  0  0  0  0  0  0
  188.3800  172.8060  141.6670 O   0  0  0  0  0  0  0  0  0  0  0  0
  187.4440  175.6100  141.6340 N   0  0  0  0  0  2  0  0  0  0  0  0
  187.4080  176.7810  140.8640 N   0  0  0  0  0  2  0  0  0  0  0  0
  186.5230  177.8550  141.2000 C   0  0  0  0  0  0  0  0  0  0  0  0
  185.1430  178.0930  140.3520 S   0  0  0  0  0  0  0  0  0  0  0  0
  186.8130  178.7180  142.2960 N   0  0  0  0  0  2  0  0  0  0  0  0
  185.8570  178.9580  143.3620 C   0  0  0  0  0  2  0  0  0  0  0  0
  185.7320  179.1010  145.8380 C   0  0  0  0  0  1  0  0  0  0  0  0
  186.1520  176.9260  144.7370 C   0  0  0  0  0  1  0  0  0  0  0  0
  186.4060  178.4160  144.6680 C   0  0  0  0  0  3  0  0  0  0  0  0
  192.6900  175.6810  144.2070 C   0  0  0  0  0  2  0  0  0  0  0  0
  193.4740  174.3830  144.4040 C   0  0  0  0  0  2  0  0  0  0  0  0
  195.2150  172.9460  143.3810 C   0  0  0  0  0  1  0  0  0  0  0  0
  194.8000  174.3840  143.6420 C   0  0  2  0  0  0  0  0  0  0  0  0
  195.8620  175.0500  144.5200 C   0  0  0  0  0  2  0  0  0  0  0  0
  196.1710  174.2370  145.7700 C   0  0  0  0  0  1  0  0  0  0  0  0
  194.6740  175.0640  142.3860 O   0  0  0  0  0  0  0  0  0  0  0  0
  193.0560  174.1010  140.8390 N   0  0  0  0  0  2  0  0  0  0  0  0
  195.3390  174.1660  140.3510 O   0  0  0  0  0  0  0  0  0  0  0  0
  194.4090  174.4340  141.1610 C   0  0  0  0  0  0  0  0  0  0  0  0
  191.1870  173.4790  139.4050 C   0  0  1  0  0  3  0  0  0  0  0  0
  191.7610  172.2230  140.0310 C   0  0  0  0  0  2  0  0  0  0  0  0
  192.6820  173.3620  139.6410 C   0  0  2  0  0  3  0  0  0  0  0  0
  190.9250  173.2380  138.0620 O   0  0  0  0  0  1  0  0  0  0  0  0
  2  5  1  0  0  0  0
  3  7  1  0  0  0  0
  4  2  2  0  0  0  0
  4  6  1  0  0  0  0
  5  1  1  0  0  0  0
  5  7  2  0  0  0  0
  6  3  2  0  0  0  0
  7  8  1  0  0  0  0
  9 11  1  6  0  0  0
  9 14  1  0  0  0  0
 10 17  1  1  0  0  0
 10 13  1  0  0  0  0
 10 15  1  0  0  0  0
 12 15  1  0  0  0  0
 13  9  1  0  0  0  0
 14  4  1  0  0  0  0
 15 14  2  0  0  0  0
 16 13  2  0  0  0  0
 18 19  1  0  0  0  0
 18 17  1  0  0  0  0
 19 21  1  0  0  0  0
 20 19  2  0  0  0  0
 21 22  1  0  0  0  0
 22 25  1  0  0  0  0
 25 24  1  0  0  0  0
 25 23  1  0  0  0  0
 26 27  1  0  0  0  0
 26  2  1  0  0  0  0
 29 28  1  6  0  0  0
 29 27  1  0  0  0  0
 29 30  1  0  0  0  0
 30 31  1  0  0  0  0
 32 29  1  0  0  0  0
 33 35  1  0  0  0  0
 34 35  2  0  0  0  0
 35 32  1  0  0  0  0
 36 39  1  6  0  0  0
 36 38  1  0  0  0  0
 36 37  1  0  0  0  0
 38 37  1  0  0  0  0
 38 33  1  1  0  0  0
M  END
>  <MODEL>
2

>  <REMARK>
 VINA RESULT:      -6.2      3.057      5.558
  Name = 
  14 active torsions:
  status: ('A' for Active; 'I' for Inactive)
    1  A    between atoms: C_2  and  C_14
    2  A    between atoms: C_7  and  C_24
    3  A    between atoms: N_9  and  C_31
    4  A    between atoms: C_10  and  N_21
    5  A    between atoms: C_10  and  N_38
    6  A    between atoms: N_13  and  C_17
    7  A    between atoms: N_13  and  N_21
    8  A    between atoms: C_14  and  O_26
    9  A    between atoms: C_14  and  C_36
   10  A    between atoms: C_15  and  C_27
   11  A    between atoms: C_18  and  C_20
   12  A    between atoms: C_20  and  N_38
   13  A    between atoms: C_24  and  C_36
   14  A    between atoms: O_26  and  C_34
                            x       y       z     vdW  Elec       q    Type
                         _______ _______ _______ _____ _____    ______ ____

>  <TORSDO>
F 14

$$$$
=
 OpenBabel11072409133D

 39 41  0  0  1  0  0  0  0  0999 V2000
  185.5380  177.3690  142.2630 C   0  0  0  0  0  1  0  0  0  0  0  0
  187.5670  176.8830  143.7080 C   0  0  0  0  0  0  0  0  0  0  0  0
  186.3150  178.0960  145.9080 C   0  0  0  0  0  3  0  0  0  0  0  0
  188.2260  176.9390  144.9590 C   0  0  0  0  0  0  0  0  0  0  0  0
  186.2770  177.4510  143.5700 C   0  0  0  0  0  0  0  0  0  0  0  0
  187.5820  177.5350  146.0470 C   0  0  0  0  0  3  0  0  0  0  0  0
  185.6630  178.0650  144.6770 C   0  0  0  0  0  0  0  0  0  0  0  0
  184.0600  178.7870  144.5760 Cl  0  0  0  0  0  0  0  0  0  0  0  0
  189.7670  174.9070  145.5810 C   0  0  2  0  0  3  0  0  0  0  0  0
  191.9020  176.0700  145.0620 C   0  0  2  0  0  3  0  0  0  0  0  0
  189.3260  174.6870  147.0150 C   0  0  0  0  0  1  0  0  0  0  0  0
  190.8070  178.3150  144.6640 O   0  0  0  0  0  1  0  0  0  0  0  0
  191.2530  174.8050  145.5020 C   0  0  0  0  0  0  0  0  0  0  0  0
  189.5590  176.3300  145.1780 C   0  0  0  0  0  0  0  0  0  0  0  0
  190.7140  176.9600  144.9680 C   0  0  0  0  0  0  0  0  0  0  0  0
  191.8740  173.7840  145.7540 O   0  0  0  0  0  0  0  0  0  0  0  0
  192.4490  175.8640  143.7350 N   0  0  0  0  0  2  0  0  0  0  0  0
  193.6980  176.5010  143.6750 N   0  0  0  0  0  2  0  0  0  0  0  0
  194.8960  175.7510  143.4500 C   0  0  0  0  0  0  0  0  0  0  0  0
  195.9970  176.2520  142.3470 S   0  0  0  0  0  0  0  0  0  0  0  0
  195.1660  174.5720  144.2030 N   0  0  0  0  0  2  0  0  0  0  0  0
  195.4410  174.6130  145.6280 C   0  0  0  0  0  2  0  0  0  0  0  0
  196.3290  172.3050  145.8590 C   0  0  0  0  0  1  0  0  0  0  0  0
  197.7530  174.0990  144.9250 C   0  0  0  0  0  1  0  0  0  0  0  0
  196.6710  173.7780  145.9320 C   0  0  0  0  0  3  0  0  0  0  0  0
  188.1940  176.1390  142.5550 C   0  0  0  0  0  2  0  0  0  0  0  0
  187.6190  174.7290  142.4220 C   0  0  0  0  0  2  0  0  0  0  0  0
  190.0100  174.4090  141.8510 C   0  0  0  0  0  1  0  0  0  0  0  0
  188.6550  173.7240  141.9150 C   0  0  2  0  0  0  0  0  0  0  0  0
  188.2580  173.2900  140.5020 C   0  0  0  0  0  2  0  0  0  0  0  0
  189.2510  173.7640  139.4500 C   0  0  0  0  0  1  0  0  0  0  0  0
  188.7500  172.5940  142.7910 O   0  0  0  0  0  0  0  0  0  0  0  0
  190.1700  170.9070  141.7540 N   0  0  0  0  0  2  0  0  0  0  0  0
  190.5770  171.7010  143.9120 O   0  0  0  0  0  0  0  0  0  0  0  0
  189.8590  171.7390  142.8740 C   0  0  0  0  0  0  0  0  0  0  0  0
  192.2130  170.1870  140.6390 C   0  0  1  0  0  3  0  0  0  0  0  0
  191.1700  169.0960  140.4970 C   0  0  0  0  0  2  0  0  0  0  0  0
  191.2380  169.9170  141.7700 C   0  0  2  0  0  3  0  0  0  0  0  0
  193.4360  169.6080  140.9520 O   0  0  0  0  0  1  0  0  0  0  0  0
  1  5  1  0  0  0  0
  2  4  1  0  0  0  0
  3  6  1  0  0  0  0
  4 14  1  0  0  0  0
  4  6  2  0  0  0  0
  5  2  2  0  0  0  0
  5  7  1  0  0  0  0
  7  3  2  0  0  0  0
  8  7  1  0  0  0  0
  9 11  1  1  0  0  0
 10 17  1  6  0  0  0
 10 13  1  0  0  0  0
 12 15  1  0  0  0  0
 13  9  1  0  0  0  0
 13 16  2  0  0  0  0
 14  9  1  0  0  0  0
 15 10  1  0  0  0  0
 15 14  2  0  0  0  0
 18 17  1  0  0  0  0
 19 18  1  0  0  0  0
 19 21  1  0  0  0  0
 20 19  2  0  0  0  0
 21 22  1  0  0  0  0
 22 25  1  0  0  0  0
 23 25  1  0  0  0  0
 24 25  1  0  0  0  0
 26  2  1  0  0  0  0
 27 26  1  0  0  0  0
 29 28  1  6  0  0  0
 29 27  1  0  0  0  0
 29 32  1  0  0  0  0
 30 29  1  0  0  0  0
 31 30  1  0  0  0  0
 32 35  1  0  0  0  0
 33 35  1  0  0  0  0
 35 34  2  0  0  0  0
 36 39  1  1  0  0  0
 36 38  1  0  0  0  0
 37 36  1  0  0  0  0
 37 38  1  0  0  0  0
 38 33  1  6  0  0  0
M  END
>  <MODEL>
3

>  <REMARK>
 VINA RESULT:      -6.1      3.602      7.793
  Name = 
  14 active torsions:
  status: ('A' for Active; 'I' for Inactive)
    1  A    between atoms: C_2  and  C_14
    2  A    between atoms: C_7  and  C_24
    3  A    between atoms: N_9  and  C_31
    4  A    between atoms: C_10  and  N_21
    5  A    between atoms: C_10  and  N_38
    6  A    between atoms: N_13  and  C_17
    7  A    between atoms: N_13  and  N_21
    8  A    between atoms: C_14  and  O_26
    9  A    between atoms: C_14  and  C_36
   10  A    between atoms: C_15  and  C_27
   11  A    between atoms: C_18  and  C_20
   12  A    between atoms: C_20  and  N_38
   13  A    between atoms: C_24  and  C_36
   14  A    between atoms: O_26  and  C_34
                            x       y       z     vdW  Elec       q    Type
                         _______ _______ _______ _____ _____    ______ ____

>  <TORSDO>
F 14

$$$$
=
 OpenBabel11072409133D

 39 41  0  0  1  0  0  0  0  0999 V2000
  188.4720  174.1390  140.1610 C   0  0  0  0  0  1  0  0  0  0  0  0
  189.9080  174.5920  142.2040 C   0  0  0  0  0  0  0  0  0  0  0  0
  192.0860  173.3080  140.9840 C   0  0  0  0  0  3  0  0  0  0  0  0
  191.1490  174.5020  142.8780 C   0  0  0  0  0  0  0  0  0  0  0  0
  189.7680  174.0220  140.9160 C   0  0  0  0  0  0  0  0  0  0  0  0
  192.2270  173.8710  142.2490 C   0  0  0  0  0  3  0  0  0  0  0  0
  190.8630  173.3720  140.3180 C   0  0  0  0  0  0  0  0  0  0  0  0
  190.7590  172.6450  138.7170 Cl  0  0  0  0  0  0  0  0  0  0  0  0
  191.2020  174.3760  145.4990 C   0  0  2  0  0  3  0  0  0  0  0  0
  192.1480  176.6530  145.8200 C   0  0  2  0  0  3  0  0  0  0  0  0
  189.7370  174.0930  145.7680 C   0  0  0  0  0  1  0  0  0  0  0  0
  191.9770  177.2780  143.3760 O   0  0  0  0  0  1  0  0  0  0  0  0
  191.6930  175.3940  146.4730 C   0  0  0  0  0  0  0  0  0  0  0  0
  191.3710  175.1120  144.2110 C   0  0  0  0  0  0  0  0  0  0  0  0
  191.8140  176.3520  144.4020 C   0  0  0  0  0  0  0  0  0  0  0  0
  191.7360  175.2100  147.6800 O   0  0  0  0  0  0  0  0  0  0  0  0
  193.5880  176.7460  145.9610 N   0  0  0  0  0  2  0  0  0  0  0  0
  194.1160  175.4470  145.9010 N   0  0  0  0  0  2  0  0  0  0  0  0
  195.1700  175.1240  144.9880 C   0  0  0  0  0  0  0  0  0  0  0  0
  195.7310  176.2430  143.9330 S   0  0  0  0  0  0  0  0  0  0  0  0
  195.7700  173.8320  145.0020 N   0  0  0  0  0  2  0  0  0  0  0  0
  195.1880  172.7040  144.2980 C   0  0  0  0  0  2  0  0  0  0  0  0
  193.1720  171.2800  144.5760 C   0  0  0  0  0  1  0  0  0  0  0  0
  195.2580  170.7320  145.7870 C   0  0  0  0  0  1  0  0  0  0  0  0
  194.3880  171.8570  145.2710 C   0  0  0  0  0  3  0  0  0  0  0  0
  188.7700  175.3740  142.8140 C   0  0  0  0  0  2  0  0  0  0  0  0
  188.7150  176.7990  142.2660 C   0  0  0  0  0  2  0  0  0  0  0  0
  186.3220  176.2690  142.6350 C   0  0  0  0  0  1  0  0  0  0  0  0
  187.2820  177.2710  142.0150 C   0  0  2  0  0  0  0  0  0  0  0  0
  187.0420  177.3100  140.5050 C   0  0  0  0  0  2  0  0  0  0  0  0
  185.6450  177.8020  140.1530 C   0  0  0  0  0  1  0  0  0  0  0  0
  187.0510  178.5570  142.6040 O   0  0  0  0  0  0  0  0  0  0  0  0
  186.7140  178.3710  145.0110 N   0  0  0  0  0  2  0  0  0  0  0  0
  185.1190  179.3540  143.6160 O   0  0  0  0  0  0  0  0  0  0  0  0
  186.2420  178.7870  143.7270 C   0  0  0  0  0  0  0  0  0  0  0  0
  186.2270  177.3140  147.1510 C   0  0  1  0  0  3  0  0  0  0  0  0
  184.9740  177.2880  146.2990 C   0  0  0  0  0  2  0  0  0  0  0  0
  185.9150  178.4740  146.2240 C   0  0  2  0  0  3  0  0  0  0  0  0
  185.8870  177.6710  148.4490 O   0  0  0  0  0  1  0  0  0  0  0  0
  1  5  1  0  0  0  0
  2 26  1  0  0  0  0
  2  4  1  0  0  0  0
  3  6  1  0  0  0  0
  4 14  1  0  0  0  0
  5  2  2  0  0  0  0
  6  4  2  0  0  0  0
  7  5  1  0  0  0  0
  7  3  2  0  0  0  0
  8  7  1  0  0  0  0
  9 11  1  1  0  0  0
  9 13  1  0  0  0  0
 10 17  1  6  0  0  0
 10 13  1  0  0  0  0
 12 15  1  0  0  0  0
 13 16  2  0  0  0  0
 14 15  2  0  0  0  0
 14  9  1  0  0  0  0
 15 10  1  0  0  0  0
 18 17  1  0  0  0  0
 19 21  1  0  0  0  0
 19 18  1  0  0  0  0
 20 19  2  0  0  0  0
 22 21  1  0  0  0  0
 22 25  1  0  0  0  0
 23 25  1  0  0  0  0
 25 24  1  0  0  0  0
 27 26  1  0  0  0  0
 29 27  1  0  0  0  0
 29 32  1  0  0  0  0
 29 28  1  1  0  0  0
 30 29  1  0  0  0  0
 31 30  1  0  0  0  0
 32 35  1  0  0  0  0
 34 35  2  0  0  0  0
 35 33  1  0  0  0  0
 36 39  1  1  0  0  0
 37 36  1  0  0  0  0
 38 33  1  6  0  0  0
 38 37  1  0  0  0  0
 38 36  1  0  0  0  0
M  END
>  <MODEL>
4

>  <REMARK>
 VINA RESULT:      -6.1      3.021      6.804
  Name = 
  14 active torsions:
  status: ('A' for Active; 'I' for Inactive)
    1  A    between atoms: C_2  and  C_14
    2  A    between atoms: C_7  and  C_24
    3  A    between atoms: N_9  and  C_31
    4  A    between atoms: C_10  and  N_21
    5  A    between atoms: C_10  and  N_38
    6  A    between atoms: N_13  and  C_17
    7  A    between atoms: N_13  and  N_21
    8  A    between atoms: C_14  and  O_26
    9  A    between atoms: C_14  and  C_36
   10  A    between atoms: C_15  and  C_27
   11  A    between atoms: C_18  and  C_20
   12  A    between atoms: C_20  and  N_38
   13  A    between atoms: C_24  and  C_36
   14  A    between atoms: O_26  and  C_34
                            x       y       z     vdW  Elec       q    Type
                         _______ _______ _______ _____ _____    ______ ____

>  <TORSDO>
F 14

$$$$
=
 OpenBabel11072409133D

 39 41  0  0  1  0  0  0  0  0999 V2000
  186.3540  177.0370  147.6970 C   0  0  0  0  0  1  0  0  0  0  0  0
  187.6690  176.6400  145.5640 C   0  0  0  0  0  0  0  0  0  0  0  0
  185.6750  177.9310  144.0690 C   0  0  0  0  0  3  0  0  0  0  0  0
  187.8110  176.7830  144.1630 C   0  0  0  0  0  0  0  0  0  0  0  0
  186.5110  177.1410  146.2050 C   0  0  0  0  0  0  0  0  0  0  0  0
  186.8150  177.4420  143.4370 C   0  0  0  0  0  3  0  0  0  0  0  0
  185.5140  177.7780  145.4450 C   0  0  0  0  0  0  0  0  0  0  0  0
  184.0510  178.4280  146.1800 Cl  0  0  0  0  0  0  0  0  0  0  0  0
  190.3540  176.9710  143.5380 C   0  0  2  0  0  3  0  0  0  0  0  0
  190.4270  174.8550  142.2350 C   0  0  2  0  0  3  0  0  0  0  0  0
  190.3430  178.3180  142.8410 C   0  0  0  0  0  1  0  0  0  0  0  0
  187.9310  174.4670  142.3580 O   0  0  0  0  0  1  0  0  0  0  0  0
  191.1950  176.0200  142.7560 C   0  0  0  0  0  0  0  0  0  0  0  0
  189.0160  176.3150  143.4380 C   0  0  0  0  0  0  0  0  0  0  0  0
  189.0560  175.2200  142.6830 C   0  0  0  0  0  0  0  0  0  0  0  0
  192.3940  176.1680  142.5750 O   0  0  0  0  0  0  0  0  0  0  0  0
  190.8610  173.6680  142.9450 N   0  0  0  0  0  2  0  0  0  0  0  0
  191.5570  172.8510  142.0420 N   0  0  0  0  0  2  0  0  0  0  0  0
  190.8810  171.8240  141.3080 C   0  0  0  0  0  0  0  0  0  0  0  0
  190.9070  170.2720  141.8300 S   0  0  0  0  0  0  0  0  0  0  0  0
  190.1500  172.1390  140.1270 N   0  0  0  0  0  2  0  0  0  0  0  0
  190.7420  172.8790  139.0280 C   0  0  0  0  0  2  0  0  0  0  0  0
  189.8480  172.8520  136.7110 C   0  0  0  0  0  1  0  0  0  0  0  0
  188.3020  172.9420  138.6400 C   0  0  0  0  0  1  0  0  0  0  0  0
  189.6460  173.3910  138.1110 C   0  0  0  0  0  3  0  0  0  0  0  0
  188.7880  176.0410  146.3800 C   0  0  0  0  0  2  0  0  0  0  0  0
  189.6840  177.1250  146.9800 C   0  0  0  0  0  2  0  0  0  0  0  0
  190.8740  175.1410  147.8700 C   0  0  0  0  0  1  0  0  0  0  0  0
  191.0460  176.5790  147.4130 C   0  0  2  0  0  0  0  0  0  0  0  0
  191.5470  177.4130  148.5940 C   0  0  0  0  0  2  0  0  0  0  0  0
  190.4710  178.3350  149.1490 C   0  0  0  0  0  1  0  0  0  0  0  0
  191.9830  176.6110  146.3290 O   0  0  0  0  0  0  0  0  0  0  0  0
  193.1070  174.5890  145.5640 N   0  0  0  0  0  2  0  0  0  0  0  0
  194.2240  176.2280  146.7970 O   0  0  0  0  0  0  0  0  0  0  0  0
  193.1510  175.8370  146.2600 C   0  0  0  0  0  0  0  0  0  0  0  0
  194.5090  173.2610  144.0780 C   0  0  1  0  0  3  0  0  0  0  0  0
  193.7480  172.3250  144.9970 C   0  0  0  0  0  2  0  0  0  0  0  0
  194.2320  173.6650  145.5150 C   0  0  2  0  0  3  0  0  0  0  0  0
  195.8250  172.8300  143.9790 O   0  0  0  0  0  1  0  0  0  0  0  0
  2  5  1  0  0  0  0
  2 26  1  0  0  0  0
  3  7  1  0  0  0  0
  4  2  2  0  0  0  0
  5  1  1  0  0  0  0
  6  3  2  0  0  0  0
  6  4  1  0  0  0  0
  7  8  1  0  0  0  0
  7  5  2  0  0  0  0
  9 11  1  6  0  0  0
 10 15  1  0  0  0  0
 10 13  1  0  0  0  0
 10 17  1  1  0  0  0
 12 15  1  0  0  0  0
 13  9  1  0  0  0  0
 14  9  1  0  0  0  0
 14  4  1  0  0  0  0
 15 14  2  0  0  0  0
 16 13  2  0  0  0  0
 18 17  1  0  0  0  0
 19 20  2  0  0  0  0
 19 18  1  0  0  0  0
 21 19  1  0  0  0  0
 22 21  1  0  0  0  0
 23 25  1  0  0  0  0
 25 24  1  0  0  0  0
 25 22  1  0  0  0  0
 26 27  1  0  0  0  0
 27 29  1  0  0  0  0
 29 28  1  1  0  0  0
 29 30  1  0  0  0  0
 30 31  1  0  0  0  0
 32 29  1  0  0  0  0
 33 35  1  0  0  0  0
 35 32  1  0  0  0  0
 35 34  2  0  0  0  0
 36 39  1  1  0  0  0
 36 37  1  0  0  0  0
 36 38  1  0  0  0  0
 37 38  1  0  0  0  0
 38 33  1  6  0  0  0
M  END
>  <MODEL>
5

>  <REMARK>
 VINA RESULT:      -6.0      3.600      8.167
  Name = 
  14 active torsions:
  status: ('A' for Active; 'I' for Inactive)
    1  A    between atoms: C_2  and  C_14
    2  A    between atoms: C_7  and  C_24
    3  A    between atoms: N_9  and  C_31
    4  A    between atoms: C_10  and  N_21
    5  A    between atoms: C_10  and  N_38
    6  A    between atoms: N_13  and  C_17
    7  A    between atoms: N_13  and  N_21
    8  A    between atoms: C_14  and  O_26
    9  A    between atoms: C_14  and  C_36
   10  A    between atoms: C_15  and  C_27
   11  A    between atoms: C_18  and  C_20
   12  A    between atoms: C_20  and  N_38
   13  A    between atoms: C_24  and  C_36
   14  A    between atoms: O_26  and  C_34
                            x       y       z     vdW  Elec       q    Type
                         _______ _______ _______ _____ _____    ______ ____

>  <TORSDO>
F 14

$$$$
=
 OpenBabel11072409133D

 39 41  0  0  1  0  0  0  0  0999 V2000
  193.6180  176.8250  146.9100 C   0  0  0  0  0  1  0  0  0  0  0  0
  191.8080  175.8560  145.4180 C   0  0  0  0  0  0  0  0  0  0  0  0
  189.8600  176.4860  147.3380 C   0  0  0  0  0  3  0  0  0  0  0  0
  190.4470  175.5590  145.1730 C   0  0  0  0  0  0  0  0  0  0  0  0
  192.1840  176.4620  146.6410 C   0  0  0  0  0  0  0  0  0  0  0  0
  189.4880  175.8930  146.1340 C   0  0  0  0  0  3  0  0  0  0  0  0
  191.2000  176.7660  147.6000 C   0  0  0  0  0  0  0  0  0  0  0  0
  191.5970  177.5240  149.1390 Cl  0  0  0  0  0  0  0  0  0  0  0  0
  189.6610  173.5110  143.7300 C   0  0  2  0  0  3  0  0  0  0  0  0
  189.0940  174.8540  141.7160 C   0  0  2  0  0  3  0  0  0  0  0  0
  190.9220  172.6700  143.7790 C   0  0  0  0  0  1  0  0  0  0  0  0
  190.0340  177.0080  142.6500 O   0  0  0  0  0  1  0  0  0  0  0  0
  189.1180  173.5030  142.3410 C   0  0  0  0  0  0  0  0  0  0  0  0
  189.9860  174.9590  143.8980 C   0  0  0  0  0  0  0  0  0  0  0  0
  189.7400  175.6550  142.7900 C   0  0  0  0  0  0  0  0  0  0  0  0
  188.7150  172.4950  141.7790 O   0  0  0  0  0  0  0  0  0  0  0  0
  187.7120  175.2690  141.5780 N   0  0  0  0  0  2  0  0  0  0  0  0
  187.6930  176.5150  140.9340 N   0  0  0  0  0  2  0  0  0  0  0  0
  186.7880  177.5440  141.3480 C   0  0  0  0  0  0  0  0  0  0  0  0
  185.4920  177.9330  140.4270 S   0  0  0  0  0  0  0  0  0  0  0  0
  186.9840  178.2270  142.5820 N   0  0  0  0  0  2  0  0  0  0  0  0
  186.6330  177.6310  143.8580 C   0  0  0  0  0  2  0  0  0  0  0  0
  185.1590  177.8910  145.8410 C   0  0  0  0  0  1  0  0  0  0  0  0
  185.5050  179.7870  144.2900 C   0  0  0  0  0  1  0  0  0  0  0  0
  185.3720  178.2840  144.3940 C   0  0  0  0  0  3  0  0  0  0  0  0
  192.8410  175.6140  144.3450 C   0  0  0  0  0  2  0  0  0  0  0  0
  193.6360  174.3360  144.6120 C   0  0  0  0  0  2  0  0  0  0  0  0
  195.5210  173.3020  143.3780 C   0  0  0  0  0  1  0  0  0  0  0  0
  195.1140  174.4820  144.2440 C   0  0  2  0  0  0  0  0  0  0  0  0
  195.9390  174.4530  145.5320 C   0  0  0  0  0  2  0  0  0  0  0  0
  197.1530  173.5420  145.4210 C   0  0  0  0  0  1  0  0  0  0  0  0
  195.3460  175.6940  143.5140 O   0  0  0  0  0  0  0  0  0  0  0  0
  196.3890  175.4680  141.3220 N   0  0  0  0  0  2  0  0  0  0  0  0
  197.4770  176.5190  143.1020 O   0  0  0  0  0  0  0  0  0  0  0  0
  196.4490  175.9220  142.6770 C   0  0  0  0  0  0  0  0  0  0  0  0
  197.0830  175.1230  139.0130 C   0  0  1  0  0  3  0  0  0  0  0  0
  197.8670  174.1800  139.9030 C   0  0  0  0  0  2  0  0  0  0  0  0
  197.5100  175.5680  140.3990 C   0  0  2  0  0  3  0  0  0  0  0  0
  197.9410  175.6840  138.0760 O   0  0  0  0  0  1  0  0  0  0  0  0
  2  5  1  0  0  0  0
  3  7  1  0  0  0  0
  4  2  2  0  0  0  0
  4  6  1  0  0  0  0
  5  1  1  0  0  0  0
  5  7  2  0  0  0  0
  6  3  2  0  0  0  0
  7  8  1  0  0  0  0
  9 11  1  6  0  0  0
  9 14  1  0  0  0  0
 10 17  1  1  0  0  0
 10 13  1  0  0  0  0
 10 15  1  0  0  0  0
 12 15  1  0  0  0  0
 13  9  1  0  0  0  0
 14  4  1  0  0  0  0
 15 14  2  0  0  0  0
 16 13  2  0  0  0  0
 18 19  1  0  0  0  0
 18 17  1  0  0  0  0
 19 21  1  0  0  0  0
 20 19  2  0  0  0  0
 21 22  1  0  0  0  0
 22 25  1  0  0  0  0
 24 25  1  0  0  0  0
 25 23  1  0  0  0  0
 26 27  1  0  0  0  0
 26  2  1  0  0  0  0
 29 28  1  6  0  0  0
 29 27  1  0  0  0  0
 29 30  1  0  0  0  0
 31 30  1  0  0  0  0
 32 29  1  0  0  0  0
 33 35  1  0  0  0  0
 35 34  2  0  0  0  0
 35 32  1  0  0  0  0
 36 39  1  6  0  0  0
 36 37  1  0  0  0  0
 36 38  1  0  0  0  0
 37 38  1  0  0  0  0
 38 33  1  1  0  0  0
M  END
>  <MODEL>
6

>  <REMARK>
 VINA RESULT:      -6.0      3.470      6.417
  Name = 
  14 active torsions:
  status: ('A' for Active; 'I' for Inactive)
    1  A    between atoms: C_2  and  C_14
    2  A    between atoms: C_7  and  C_24
    3  A    between atoms: N_9  and  C_31
    4  A    between atoms: C_10  and  N_21
    5  A    between atoms: C_10  and  N_38
    6  A    between atoms: N_13  and  C_17
    7  A    between atoms: N_13  and  N_21
    8  A    between atoms: C_14  and  O_26
    9  A    between atoms: C_14  and  C_36
   10  A    between atoms: C_15  and  C_27
   11  A    between atoms: C_18  and  C_20
   12  A    between atoms: C_20  and  N_38
   13  A    between atoms: C_24  and  C_36
   14  A    between atoms: O_26  and  C_34
                            x       y       z     vdW  Elec       q    Type
                         _______ _______ _______ _____ _____    ______ ____

>  <TORSDO>
F 14

$$$$
=
 OpenBabel11072409133D

 39 41  0  0  1  0  0  0  0  0999 V2000
  195.2770  175.8670  145.9590 C   0  0  0  0  0  1  0  0  0  0  0  0
  193.5700  174.6690  144.5140 C   0  0  0  0  0  0  0  0  0  0  0  0
  195.1950  172.3810  144.4560 C   0  0  0  0  0  3  0  0  0  0  0  0
  193.1470  173.5140  143.8140 C   0  0  0  0  0  0  0  0  0  0  0  0
  194.8220  174.6680  145.1750 C   0  0  0  0  0  0  0  0  0  0  0  0
  193.9620  172.3790  143.8080 C   0  0  0  0  0  3  0  0  0  0  0  0
  195.6320  173.5190  145.1320 C   0  0  0  0  0  0  0  0  0  0  0  0
  197.1980  173.4470  145.9350 Cl  0  0  0  0  0  0  0  0  0  0  0  0
  190.6590  172.6900  143.6740 C   0  0  2  0  0  3  0  0  0  0  0  0
  190.0910  174.0140  141.6480 C   0  0  2  0  0  3  0  0  0  0  0  0
  190.8930  171.1940  143.5900 C   0  0  0  0  0  1  0  0  0  0  0  0
  192.4640  174.7970  141.2590 O   0  0  0  0  0  1  0  0  0  0  0  0
  189.6010  173.0770  142.6970 C   0  0  0  0  0  0  0  0  0  0  0  0
  191.8320  173.4400  143.1340 C   0  0  0  0  0  0  0  0  0  0  0  0
  191.5310  174.0900  142.0120 C   0  0  0  0  0  0  0  0  0  0  0  0
  188.4460  172.6840  142.7590 O   0  0  0  0  0  0  0  0  0  0  0  0
  189.4750  175.3080  141.8680 N   0  0  0  0  0  2  0  0  0  0  0  0
  188.3900  175.4280  140.9870 N   0  0  0  0  0  2  0  0  0  0  0  0
  187.4260  176.4750  141.1460 C   0  0  0  0  0  0  0  0  0  0  0  0
  186.7050  177.1490  139.8400 S   0  0  0  0  0  0  0  0  0  0  0  0
  187.0550  176.9270  142.4450 N   0  0  0  0  0  2  0  0  0  0  0  0
  185.7410  176.6710  143.0050 C   0  0  0  0  0  2  0  0  0  0  0  0
  186.0170  179.1280  143.2450 C   0  0  0  0  0  1  0  0  0  0  0  0
  184.0130  178.2050  142.1280 C   0  0  0  0  0  1  0  0  0  0  0  0
  185.0210  177.9880  143.2350 C   0  0  0  0  0  3  0  0  0  0  0  0
  192.6520  175.8610  144.6340 C   0  0  0  0  0  2  0  0  0  0  0  0
  191.6700  175.6940  145.7930 C   0  0  0  0  0  2  0  0  0  0  0  0
  190.7110  177.5880  144.5140 C   0  0  0  0  0  1  0  0  0  0  0  0
  190.4950  176.6690  145.7050 C   0  0  2  0  0  0  0  0  0  0  0  0
  190.4690  177.5150  146.9800 C   0  0  0  0  0  2  0  0  0  0  0  0
  191.3050  176.9030  148.0960 C   0  0  0  0  0  1  0  0  0  0  0  0
  189.2560  175.9690  145.5290 O   0  0  0  0  0  0  0  0  0  0  0  0
  187.0890  176.8920  146.1520 N   0  0  0  0  0  2  0  0  0  0  0  0
  188.1670  175.2880  147.4630 O   0  0  0  0  0  0  0  0  0  0  0  0
  188.1810  176.0120  146.4290 C   0  0  0  0  0  0  0  0  0  0  0  0
  185.3000  178.4190  146.7910 C   0  0  1  0  0  3  0  0  0  0  0  0
  186.2600  178.2780  147.9560 C   0  0  0  0  0  2  0  0  0  0  0  0
  185.9710  177.0850  147.0660 C   0  0  2  0  0  3  0  0  0  0  0  0
  183.9970  178.3720  147.2680 O   0  0  0  0  0  1  0  0  0  0  0  0
  2 26  1  0  0  0  0
  2  5  1  0  0  0  0
  3  7  1  0  0  0  0
  4  2  2  0  0  0  0
  5  1  1  0  0  0  0
  6  4  1  0  0  0  0
  6  3  2  0  0  0  0
  7  5  2  0  0  0  0
  7  8  1  0  0  0  0
  9 11  1  6  0  0  0
 10 17  1  1  0  0  0
 10 15  1  0  0  0  0
 10 13  1  0  0  0  0
 12 15  1  0  0  0  0
 13 16  2  0  0  0  0
 13  9  1  0  0  0  0
 14  9  1  0  0  0  0
 14  4  1  0  0  0  0
 15 14  2  0  0  0  0
 18 19  1  0  0  0  0
 18 17  1  0  0  0  0
 19 21  1  0  0  0  0
 20 19  2  0  0  0  0
 21 22  1  0  0  0  0
 22 25  1  0  0  0  0
 24 25  1  0  0  0  0
 25 23  1  0  0  0  0
 26 27  1  0  0  0  0
 29 28  1  6  0  0  0
 29 27  1  0  0  0  0
 29 30  1  0  0  0  0
 30 31  1  0  0  0  0
 32 29  1  0  0  0  0
 32 35  1  0  0  0  0
 33 35  1  0  0  0  0
 35 34  2  0  0  0  0
 36 38  1  0  0  0  0
 36 39  1  1  0  0  0
 36 37  1  0  0  0  0
 38 33  1  6  0  0  0
 38 37  1  0  0  0  0
M  END
>  <MODEL>
7

>  <REMARK>
 VINA RESULT:      -6.0      2.497      5.067
  Name = 
  14 active torsions:
  status: ('A' for Active; 'I' for Inactive)
    1  A    between atoms: C_2  and  C_14
    2  A    between atoms: C_7  and  C_24
    3  A    between atoms: N_9  and  C_31
    4  A    between atoms: C_10  and  N_21
    5  A    between atoms: C_10  and  N_38
    6  A    between atoms: N_13  and  C_17
    7  A    between atoms: N_13  and  N_21
    8  A    between atoms: C_14  and  O_26
    9  A    between atoms: C_14  and  C_36
   10  A    between atoms: C_15  and  C_27
   11  A    between atoms: C_18  and  C_20
   12  A    between atoms: C_20  and  N_38
   13  A    between atoms: C_24  and  C_36
   14  A    between atoms: O_26  and  C_34
                            x       y       z     vdW  Elec       q    Type
                         _______ _______ _______ _____ _____    ______ ____

>  <TORSDO>
F 14

$$$$
=
 OpenBabel11072409133D

 39 41  0  0  1  0  0  0  0  0999 V2000
  188.4420  173.3180  140.8990 C   0  0  0  0  0  1  0  0  0  0  0  0
  189.8400  174.1210  142.8580 C   0  0  0  0  0  0  0  0  0  0  0  0
  191.9660  172.4820  142.0390 C   0  0  0  0  0  3  0  0  0  0  0  0
  191.0510  174.1090  143.5900 C   0  0  0  0  0  0  0  0  0  0  0  0
  189.7030  173.2940  141.7170 C   0  0  0  0  0  0  0  0  0  0  0  0
  192.1040  173.2980  143.1590 C   0  0  0  0  0  3  0  0  0  0  0  0
  190.7720  172.4700  141.3210 C   0  0  0  0  0  0  0  0  0  0  0  0
  190.6700  171.4200  139.9110 Cl  0  0  0  0  0  0  0  0  0  0  0  0
  190.9920  174.5590  146.1750 C   0  0  2  0  0  3  0  0  0  0  0  0
  192.1080  176.7770  146.0480 C   0  0  2  0  0  3  0  0  0  0  0  0
  189.4990  174.4480  146.4170 C   0  0  0  0  0  1  0  0  0  0  0  0
  192.0830  176.8600  143.5210 O   0  0  0  0  0  1  0  0  0  0  0  0
  191.5260  175.7290  146.9320 C   0  0  0  0  0  0  0  0  0  0  0  0
  191.2700  174.9790  144.7700 C   0  0  0  0  0  0  0  0  0  0  0  0
  191.8060  176.1970  144.7130 C   0  0  0  0  0  0  0  0  0  0  0  0
  191.5080  175.8120  148.1500 O   0  0  0  0  0  0  0  0  0  0  0  0
  193.5440  176.7950  146.2460 N   0  0  0  0  0  2  0  0  0  0  0  0
  194.0320  175.5000  146.0160 N   0  0  0  0  0  2  0  0  0  0  0  0
  195.2480  175.2910  145.2910 C   0  0  0  0  0  0  0  0  0  0  0  0
  196.2990  174.1220  145.7480 S   0  0  0  0  0  0  0  0  0  0  0  0
  195.5520  176.0760  144.1420 N   0  0  0  0  0  2  0  0  0  0  0  0
  196.3040  175.5450  143.0200 C   0  0  0  0  0  2  0  0  0  0  0  0
  196.9850  176.0130  140.6780 C   0  0  0  0  0  1  0  0  0  0  0  0
  194.5930  176.0310  141.3060 C   0  0  0  0  0  1  0  0  0  0  0  0
  195.9950  176.3510  141.7730 C   0  0  0  0  0  3  0  0  0  0  0  0
  188.7370  175.0790  143.2360 C   0  0  0  0  0  2  0  0  0  0  0  0
  188.8020  176.3610  142.4060 C   0  0  0  0  0  2  0  0  0  0  0  0
  186.3690  176.0480  142.7610 C   0  0  0  0  0  1  0  0  0  0  0  0
  187.4140  176.9110  142.0740 C   0  0  2  0  0  0  0  0  0  0  0  0
  187.2060  176.8210  140.5610 C   0  0  0  0  0  2  0  0  0  0  0  0
  185.9700  177.5820  140.1000 C   0  0  0  0  0  1  0  0  0  0  0  0
  187.2710  178.2620  142.5320 O   0  0  0  0  0  0  0  0  0  0  0  0
  186.8520  178.2310  144.9320 N   0  0  0  0  0  2  0  0  0  0  0  0
  185.4530  179.3750  143.4520 O   0  0  0  0  0  0  0  0  0  0  0  0
  186.4770  178.6560  143.6200 C   0  0  0  0  0  0  0  0  0  0  0  0
  186.2730  177.4200  147.1560 C   0  0  1  0  0  3  0  0  0  0  0  0
  185.0310  177.3910  146.2880 C   0  0  0  0  0  2  0  0  0  0  0  0
  186.0480  178.5020  146.1160 C   0  0  2  0  0  3  0  0  0  0  0  0
  185.9430  177.9230  148.4070 O   0  0  0  0  0  1  0  0  0  0  0  0
  1  5  1  0  0  0  0
  2 26  1  0  0  0  0
  2  4  1  0  0  0  0
  3  6  1  0  0  0  0
  4 14  1  0  0  0  0
  5  2  2  0  0  0  0
  6  4  2  0  0  0  0
  7  5  1  0  0  0  0
  7  3  2  0  0  0  0
  8  7  1  0  0  0  0
  9 11  1  6  0  0  0
  9 13  1  0  0  0  0
 10 17  1  1  0  0  0
 10 13  1  0  0  0  0
 12 15  1  0  0  0  0
 13 16  2  0  0  0  0
 14  9  1  0  0  0  0
 15 14  2  0  0  0  0
 15 10  1  0  0  0  0
 18 17  1  0  0  0  0
 19 20  2  0  0  0  0
 19 18  1  0  0  0  0
 21 19  1  0  0  0  0
 22 21  1  0  0  0  0
 23 25  1  0  0  0  0
 24 25  1  0  0  0  0
 25 22  1  0  0  0  0
 27 26  1  0  0  0  0
 29 27  1  0  0  0  0
 29 32  1  0  0  0  0
 29 28  1  1  0  0  0
 30 29  1  0  0  0  0
 31 30  1  0  0  0  0
 32 35  1  0  0  0  0
 34 35  2  0  0  0  0
 35 33  1  0  0  0  0
 36 39  1  1  0  0  0
 37 36  1  0  0  0  0
 38 33  1  6  0  0  0
 38 37  1  0  0  0  0
 38 36  1  0  0  0  0
M  END
>  <MODEL>
8

>  <REMARK>
 VINA RESULT:      -6.0      3.026      6.678
  Name = 
  14 active torsions:
  status: ('A' for Active; 'I' for Inactive)
    1  A    between atoms: C_2  and  C_14
    2  A    between atoms: C_7  and  C_24
    3  A    between atoms: N_9  and  C_31
    4  A    between atoms: C_10  and  N_21
    5  A    between atoms: C_10  and  N_38
    6  A    between atoms: N_13  and  C_17
    7  A    between atoms: N_13  and  N_21
    8  A    between atoms: C_14  and  O_26
    9  A    between atoms: C_14  and  C_36
   10  A    between atoms: C_15  and  C_27
   11  A    between atoms: C_18  and  C_20
   12  A    between atoms: C_20  and  N_38
   13  A    between atoms: C_24  and  C_36
   14  A    between atoms: O_26  and  C_34
                            x       y       z     vdW  Elec       q    Type
                         _______ _______ _______ _____ _____    ______ ____

>  <TORSDO>
F 14

$$$$
=
 OpenBabel11072409133D

 39 41  0  0  1  0  0  0  0  0999 V2000
  193.6080  176.8650  147.0950 C   0  0  0  0  0  1  0  0  0  0  0  0
  191.8540  175.6910  145.6860 C   0  0  0  0  0  0  0  0  0  0  0  0
  189.8570  176.4390  147.5110 C   0  0  0  0  0  3  0  0  0  0  0  0
  190.5070  175.3240  145.4550 C   0  0  0  0  0  0  0  0  0  0  0  0
  192.1900  176.4280  146.8470 C   0  0  0  0  0  0  0  0  0  0  0  0
  189.5230  175.7170  146.3680 C   0  0  0  0  0  3  0  0  0  0  0  0
  191.1830  176.7890  147.7590 C   0  0  0  0  0  0  0  0  0  0  0  0
  191.5310  177.7080  149.2210 Cl  0  0  0  0  0  0  0  0  0  0  0  0
  189.7570  173.1290  144.2250 C   0  0  2  0  0  3  0  0  0  0  0  0
  189.2680  174.2380  142.0550 C   0  0  2  0  0  3  0  0  0  0  0  0
  191.0090  172.2950  144.4120 C   0  0  0  0  0  1  0  0  0  0  0  0
  190.1900  176.4810  142.7720 O   0  0  0  0  0  1  0  0  0  0  0  0
  189.2610  172.9660  142.8280 C   0  0  0  0  0  0  0  0  0  0  0  0
  190.0850  174.5860  144.2410 C   0  0  0  0  0  0  0  0  0  0  0  0
  189.8820  175.1530  143.0530 C   0  0  0  0  0  0  0  0  0  0  0  0
  188.8710  171.9030  142.3690 O   0  0  0  0  0  0  0  0  0  0  0  0
  187.8930  174.6390  141.8230 N   0  0  0  0  0  2  0  0  0  0  0  0
  187.8980  175.7010  140.9060 N   0  0  0  0  0  2  0  0  0  0  0  0
  186.9910  176.7990  141.0470 C   0  0  0  0  0  0  0  0  0  0  0  0
  186.3940  177.5620  139.7270 S   0  0  0  0  0  0  0  0  0  0  0  0
  186.5690  177.2290  142.3380 N   0  0  0  0  0  2  0  0  0  0  0  0
  185.8970  178.4990  142.5470 C   0  0  0  0  0  2  0  0  0  0  0  0
  184.9310  179.2370  144.7130 C   0  0  0  0  0  1  0  0  0  0  0  0
  187.0800  178.0120  144.6620 C   0  0  0  0  0  1  0  0  0  0  0  0
  186.2130  179.0190  143.9380 C   0  0  0  0  0  3  0  0  0  0  0  0
  192.9100  175.3810  144.6530 C   0  0  0  0  0  2  0  0  0  0  0  0
  193.9090  174.3450  145.1690 C   0  0  0  0  0  2  0  0  0  0  0  0
  196.3190  174.4430  145.7380 C   0  0  0  0  0  1  0  0  0  0  0  0
  195.3140  174.5610  144.6050 C   0  0  2  0  0  0  0  0  0  0  0  0
  195.3910  175.9740  144.0240 C   0  0  0  0  0  2  0  0  0  0  0  0
  196.1060  176.0100  142.6800 C   0  0  0  0  0  1  0  0  0  0  0  0
  195.6260  173.5790  143.6080 O   0  0  0  0  0  0  0  0  0  0  0  0
  195.3870  171.3490  144.5600 N   0  0  0  0  0  2  0  0  0  0  0  0
  197.3590  172.0380  143.5160 O   0  0  0  0  0  0  0  0  0  0  0  0
  196.1820  172.3190  143.8740 C   0  0  0  0  0  0  0  0  0  0  0  0
  195.1300  169.5490  146.1820 C   0  0  1  0  0  3  0  0  0  0  0  0
  196.5020  170.1700  146.3560 C   0  0  0  0  0  2  0  0  0  0  0  0
  195.8970  170.0490  144.9710 C   0  0  2  0  0  3  0  0  0  0  0  0
  195.2450  168.1660  146.2470 O   0  0  0  0  0  1  0  0  0  0  0  0
  2  5  1  0  0  0  0
  3  7  1  0  0  0  0
  4  2  2  0  0  0  0
  4  6  1  0  0  0  0
  5  1  1  0  0  0  0
  5  7  2  0  0  0  0
  6  3  2  0  0  0  0
  7  8  1  0  0  0  0
  9 14  1  0  0  0  0
  9 11  1  6  0  0  0
 10 17  1  1  0  0  0
 10 13  1  0  0  0  0
 10 15  1  0  0  0  0
 12 15  1  0  0  0  0
 13  9  1  0  0  0  0
 14  4  1  0  0  0  0
 15 14  2  0  0  0  0
 16 13  2  0  0  0  0
 18 19  1  0  0  0  0
 18 17  1  0  0  0  0
 19 21  1  0  0  0  0
 20 19  2  0  0  0  0
 21 22  1  0  0  0  0
 22 25  1  0  0  0  0
 25 24  1  0  0  0  0
 25 23  1  0  0  0  0
 26 27  1  0  0  0  0
 26  2  1  0  0  0  0
 29 27  1  0  0  0  0
 29 28  1  1  0  0  0
 30 29  1  0  0  0  0
 31 30  1  0  0  0  0
 32 35  1  0  0  0  0
 32 29  1  0  0  0  0
 34 35  2  0  0  0  0
 35 33  1  0  0  0  0
 36 39  1  6  0  0  0
 36 37  1  0  0  0  0
 38 33  1  1  0  0  0
 38 36  1  0  0  0  0
 38 37  1  0  0  0  0
M  END
>  <MODEL>
9

>  <REMARK>
 VINA RESULT:      -6.0      3.366      6.701
  Name = 
  14 active torsions:
  status: ('A' for Active; 'I' for Inactive)
    1  A    between atoms: C_2  and  C_14
    2  A    between atoms: C_7  and  C_24
    3  A    between atoms: N_9  and  C_31
    4  A    between atoms: C_10  and  N_21
    5  A    between atoms: C_10  and  N_38
    6  A    between atoms: N_13  and  C_17
    7  A    between atoms: N_13  and  N_21
    8  A    between atoms: C_14  and  O_26
    9  A    between atoms: C_14  and  C_36
   10  A    between atoms: C_15  and  C_27
   11  A    between atoms: C_18  and  C_20
   12  A    between atoms: C_20  and  N_38
   13  A    between atoms: C_24  and  C_36
   14  A    between atoms: O_26  and  C_34
                            x       y       z     vdW  Elec       q    Type
                         _______ _______ _______ _____ _____    ______ ____

>  <TORSDO>
F 14

$$$$
