=
 OpenBabel11072408373D

 47 52  0  0  1  0  0  0  0  0999 V2000
  189.5010  176.1540  144.3660 C   0  0  1  0  0  3  0  0  0  0  0  0
  189.7060  173.7840  145.2090 C   0  0  0  0  0  3  0  0  0  0  0  0
  189.7620  172.4060  144.9890 C   0  0  0  0  0  3  0  0  0  0  0  0
  189.5440  174.6700  144.1320 C   0  0  0  0  0  0  0  0  0  0  0  0
  189.4450  174.1640  142.8230 C   0  0  0  0  0  0  0  0  0  0  0  0
  189.6590  171.9020  143.6910 C   0  0  0  0  0  3  0  0  0  0  0  0
  189.5020  172.7760  142.6140 C   0  0  0  0  0  3  0  0  0  0  0  0
  189.2900  175.0500  141.7500 O   0  0  0  0  0  0  0  0  0  0  0  0
  188.1540  175.0320  140.8940 C   0  0  0  0  0  1  0  0  0  0  0  0
  188.5780  176.5360  145.5230 C   0  0  0  0  0  2  0  0  0  0  0  0
  186.9370  177.6260  143.4600 S   0  0  0  0  0  0  0  0  0  0  0  0
  184.3900  178.8670  143.3120 N   0  0  0  0  0  0  0  0  0  0  0  0
  185.6440  178.5990  143.9020 C   0  0  0  0  0  0  0  0  0  0  0  0
  183.4600  179.1500  144.3470 N   0  0  0  0  0  2  0  0  0  0  0  0
  185.4980  178.6050  145.2170 C   0  0  0  0  0  0  0  0  0  0  0  0
  186.4710  177.8050  147.4270 C   0  0  0  0  0  1  0  0  0  0  0  0
  184.2060  178.9830  145.5150 O   0  0  0  0  0  0  0  0  0  0  0  0
  187.4440  177.4090  145.0820 C   0  0  0  0  0  0  0  0  0  0  0  0
  186.5020  177.9880  145.9480 C   0  0  0  0  0  0  0  0  0  0  0  0
  183.9980  178.2910  142.0950 N   0  0  0  0  0  2  0  0  0  0  0  0
  182.5440  178.3250  142.0430 C   0  0  0  0  0  2  0  0  0  0  0  0
  182.0710  178.1870  140.6060 C   0  0  0  0  0  2  0  0  0  0  0  0
  179.6410  177.9800  139.9540 N   0  0  0  0  0  1  0  0  0  0  0  0
  180.7150  178.7820  140.4350 C   0  0  0  0  0  0  0  0  0  0  0  0
  180.5120  179.9850  140.7410 O   0  0  0  0  0  0  0  0  0  0  0  0
  190.8990  176.7820  144.4360 C   0  0  0  0  0  2  0  0  0  0  0  0
  191.3400  177.4550  143.1380 C   0  0  0  0  0  2  0  0  0  0  0  0
  192.7240  176.9920  142.7040 C   0  0  0  0  0  2  0  0  0  0  0  0
  192.9150  174.5620  142.1950 C   0  0  0  0  0  1  0  0  0  0  0  0
  193.0830  175.6180  143.2770 C   0  0  1  0  0  3  0  0  0  0  0  0
  194.5030  176.7360  144.7840 F   0  0  0  0  0  0  0  0  0  0  0  0
  197.2850  172.7730  144.4000 O   0  0  0  0  0  1  0  0  0  0  0  0
  194.8830  173.0980  144.2580 C   0  0  1  0  0  3  0  0  0  0  0  0
  195.6690  175.6860  143.0540 C   0  0  1  0  0  3  0  0  0  0  0  0
  196.6030  174.4750  142.8760 C   0  0  1  0  0  3  0  0  0  0  0  0
  194.5550  174.3830  145.0420 C   0  0  1  0  0  0  0  0  0  0  0  0
  195.6550  174.6460  146.0760 C   0  0  0  0  0  1  0  0  0  0  0  0
  196.2460  173.1410  143.5430 C   0  0  1  0  0  3  0  0  0  0  0  0
  195.5800  174.8050  141.8130 C   0  0  0  0  0  2  0  0  0  0  0  0
  194.4540  175.5740  144.0290 C   0  0  2  0  0  0  0  0  0  0  0  0
  195.6020  171.4280  145.8730 O   0  0  0  0  0  1  0  0  0  0  0  0
  194.5800  171.7710  144.9850 C   0  0  2  0  0  3  0  0  0  0  0  0
  194.3380  170.6390  143.9980 C   0  0  0  0  0  3  0  0  0  0  0  0
  192.9470  170.0760  144.2110 C   0  0  0  0  0  2  0  0  0  0  0  0
  193.2130  171.0220  143.0570 C   0  0  0  0  0  2  0  0  0  0  0  0
  193.0930  175.1400  146.8340 O   0  0  0  0  0  1  0  0  0  0  0  0
  193.2300  174.2000  145.8100 C   0  0  0  0  0  2  0  0  0  0  0  0
  1 26  1  1  0  0  0
  1 10  1  0  0  0  0
  3  2  1  0  0  0  0
  4  1  1  0  0  0  0
  4  2  2  0  0  0  0
  5  4  1  0  0  0  0
  6  3  2  0  0  0  0
  7  5  2  0  0  0  0
  7  6  1  0  0  0  0
  8  5  1  0  0  0  0
  9  8  1  0  0  0  0
 11 13  1  0  0  0  0
 11 18  1  0  0  0  0
 12 13  1  0  0  0  0
 12 14  1  0  0  0  0
 13 15  2  0  0  0  0
 14 17  1  0  0  0  0
 15 17  1  0  0  0  0
 15 19  1  0  0  0  0
 18 10  1  0  0  0  0
 18 19  2  0  0  0  0
 19 16  1  0  0  0  0
 20 12  1  0  0  0  0
 21 20  1  0  0  0  0
 22 21  1  0  0  0  0
 23 24  1  0  0  0  0
 24 22  1  0  0  0  0
 24 25  2  0  0  0  0
 27 26  1  0  0  0  0
 28 27  1  0  0  0  0
 28 30  1  0  0  0  0
 30 29  1  6  0  0  0
 30 40  1  0  0  0  0
 33 42  1  1  0  0  0
 33 36  1  0  0  0  0
 34 39  1  6  0  0  0
 34 40  1  0  0  0  0
 35 39  1  6  0  0  0
 35 34  1  0  0  0  0
 35 38  1  0  0  0  0
 36 47  1  0  0  0  0
 36 37  1  1  0  0  0
 38 33  1  0  0  0  0
 38 32  1  1  0  0  0
 40 31  1  1  0  0  0
 40 36  1  0  0  0  0
 42 41  1  1  0  0  0
 43 44  1  0  0  0  0
 43 42  1  0  0  0  0
 45 43  1  0  0  0  0
 45 44  1  0  0  0  0
 47 46  1  0  0  0  0
M  END
>  <MODEL>
1

>  <REMARK>
 VINA RESULT:      -6.8      0.000      0.000
  Name = 
  16 active torsions:
  status: ('A' for Active; 'I' for Inactive)
    1  A    between atoms: N_2  and  N_24
    2  A    between atoms: C_7  and  C_37
    3  A    between atoms: C_10  and  C_11
    4  A    between atoms: C_10  and  C_28
    5  A    between atoms: C_11  and  N_24
    6  A    between atoms: C_12  and  C_37
    7  A    between atoms: C_17  and  C_40
    8  A    between atoms: C_20  and  C_44
    9  A    between atoms: C_25  and  C_41
   10  A    between atoms: C_25  and  C_44
   11  A    between atoms: C_26  and  O_27
   12  A    between atoms: C_35  and  C_43
   13  A    between atoms: C_41  and  C_45
   14  A    between atoms: C_43  and  C_44
   15  A    between atoms: C_45  and  C_46
   16  A    between atoms: C_46  and  C_47
                            x       y       z     vdW  Elec       q    Type
                         _______ _______ _______ _____ _____    ______ ____

>  <TORSDO>
F 16

$$$$
=
 OpenBabel11072408373D

 47 52  0  0  1  0  0  0  0  0999 V2000
  189.3210  175.9570  145.7880 C   0  0  1  0  0  3  0  0  0  0  0  0
  187.1720  176.5650  146.9640 C   0  0  0  0  0  3  0  0  0  0  0  0
  185.8420  176.9910  146.9430 C   0  0  0  0  0  3  0  0  0  0  0  0
  187.8950  176.4310  145.7680 C   0  0  0  0  0  0  0  0  0  0  0  0
  187.2700  176.7210  144.5410 C   0  0  0  0  0  0  0  0  0  0  0  0
  185.2220  177.2830  145.7270 C   0  0  0  0  0  3  0  0  0  0  0  0
  185.9320  177.1480  144.5320 C   0  0  0  0  0  3  0  0  0  0  0  0
  187.9910  176.5800  143.3490 O   0  0  0  0  0  0  0  0  0  0  0  0
  187.4930  177.0180  142.0910 C   0  0  0  0  0  1  0  0  0  0  0  0
  190.2910  177.0450  146.2490 C   0  0  0  0  0  2  0  0  0  0  0  0
  192.8770  175.9040  146.6330 S   0  0  0  0  0  0  0  0  0  0  0  0
  195.0890  175.2480  144.9830 N   0  0  0  0  0  0  0  0  0  0  0  0
  194.0020  176.0460  145.3960 C   0  0  0  0  0  0  0  0  0  0  0  0
  195.2480  175.3990  143.5790 N   0  0  0  0  0  2  0  0  0  0  0  0
  193.4420  176.5800  144.3220 C   0  0  0  0  0  0  0  0  0  0  0  0
  191.3210  177.6110  143.3700 C   0  0  0  0  0  1  0  0  0  0  0  0
  194.2010  176.2490  143.2200 O   0  0  0  0  0  0  0  0  0  0  0  0
  191.6910  176.7970  145.7780 C   0  0  0  0  0  0  0  0  0  0  0  0
  192.1520  177.0650  144.4800 C   0  0  0  0  0  0  0  0  0  0  0  0
  195.4470  174.0670  145.6490 N   0  0  0  0  0  2  0  0  0  0  0  0
  195.1350  172.9540  144.7660 C   0  0  0  0  0  2  0  0  0  0  0  0
  193.9860  172.1410  145.3390 C   0  0  0  0  0  2  0  0  0  0  0  0
  194.0570  169.9230  144.1370 N   0  0  0  0  0  1  0  0  0  0  0  0
  194.3030  170.6850  145.3140 C   0  0  0  0  0  0  0  0  0  0  0  0
  194.8130  170.1330  146.3230 O   0  0  0  0  0  0  0  0  0  0  0  0
  189.4870  174.6130  146.5080 C   0  0  0  0  0  2  0  0  0  0  0  0
  189.6800  173.4270  145.5650 C   0  0  0  0  0  2  0  0  0  0  0  0
  190.7230  173.7210  144.4950 C   0  0  0  0  0  2  0  0  0  0  0  0
  189.3510  171.9260  143.4470 C   0  0  0  0  0  1  0  0  0  0  0  0
  190.5940  172.7890  143.2870 C   0  0  1  0  0  3  0  0  0  0  0  0
  191.4270  174.6750  142.1530 F   0  0  0  0  0  0  0  0  0  0  0  0
  189.8040  172.4310  138.1630 O   0  0  0  0  0  1  0  0  0  0  0  0
  190.6670  171.5870  140.2700 C   0  0  1  0  0  3  0  0  0  0  0  0
  189.3360  173.9950  141.3630 C   0  0  1  0  0  3  0  0  0  0  0  0
  188.7510  173.3380  140.1000 C   0  0  1  0  0  3  0  0  0  0  0  0
  191.5600  172.6920  140.8660 C   0  0  1  0  0  0  0  0  0  0  0  0
  192.0620  173.6050  139.7420 C   0  0  0  0  0  1  0  0  0  0  0  0
  189.4590  172.1270  139.4820 C   0  0  1  0  0  3  0  0  0  0  0  0
  188.2100  172.9730  141.4640 C   0  0  0  0  0  2  0  0  0  0  0  0
  190.7180  173.5090  141.9040 C   0  0  2  0  0  0  0  0  0  0  0  0
  191.3770  170.5300  138.1980 O   0  0  0  0  0  1  0  0  0  0  0  0
  191.4080  170.4180  139.5900 C   0  0  2  0  0  3  0  0  0  0  0  0
  190.8400  169.0740  140.0210 C   0  0  0  0  0  3  0  0  0  0  0  0
  191.9020  168.2990  140.7750 C   0  0  0  0  0  2  0  0  0  0  0  0
  190.7990  169.0060  141.5350 C   0  0  0  0  0  2  0  0  0  0  0  0
  193.9100  172.8970  141.4650 O   0  0  0  0  0  1  0  0  0  0  0  0
  192.7960  172.0580  141.5360 C   0  0  0  0  0  2  0  0  0  0  0  0
  1 10  1  1  0  0  0
  1 26  1  0  0  0  0
  3  2  1  0  0  0  0
  4  1  1  0  0  0  0
  4  2  2  0  0  0  0
  5  4  1  0  0  0  0
  6  3  2  0  0  0  0
  7  5  2  0  0  0  0
  7  6  1  0  0  0  0
  8  5  1  0  0  0  0
  9  8  1  0  0  0  0
 12 13  1  0  0  0  0
 12 20  1  0  0  0  0
 13 11  1  0  0  0  0
 14 12  1  0  0  0  0
 15 19  1  0  0  0  0
 15 13  2  0  0  0  0
 16 19  1  0  0  0  0
 17 14  1  0  0  0  0
 17 15  1  0  0  0  0
 18 10  1  0  0  0  0
 18 11  1  0  0  0  0
 19 18  2  0  0  0  0
 21 22  1  0  0  0  0
 21 20  1  0  0  0  0
 23 24  1  0  0  0  0
 24 22  1  0  0  0  0
 24 25  2  0  0  0  0
 27 26  1  0  0  0  0
 28 27  1  0  0  0  0
 30 29  1  6  0  0  0
 30 28  1  0  0  0  0
 33 42  1  6  0  0  0
 33 36  1  0  0  0  0
 34 39  1  1  0  0  0
 34 40  1  0  0  0  0
 35 34  1  0  0  0  0
 35 39  1  1  0  0  0
 36 37  1  6  0  0  0
 36 47  1  0  0  0  0
 36 40  1  0  0  0  0
 38 32  1  6  0  0  0
 38 35  1  0  0  0  0
 38 33  1  0  0  0  0
 40 31  1  1  0  0  0
 40 30  1  0  0  0  0
 42 41  1  6  0  0  0
 42 43  1  0  0  0  0
 43 44  1  0  0  0  0
 43 45  1  0  0  0  0
 44 45  1  0  0  0  0
 46 47  1  0  0  0  0
M  END
>  <MODEL>
2

>  <REMARK>
 VINA RESULT:      -6.7      4.786      8.181
  Name = 
  16 active torsions:
  status: ('A' for Active; 'I' for Inactive)
    1  A    between atoms: N_2  and  N_24
    2  A    between atoms: C_7  and  C_37
    3  A    between atoms: C_10  and  C_11
    4  A    between atoms: C_10  and  C_28
    5  A    between atoms: C_11  and  N_24
    6  A    between atoms: C_12  and  C_37
    7  A    between atoms: C_17  and  C_40
    8  A    between atoms: C_20  and  C_44
    9  A    between atoms: C_25  and  C_41
   10  A    between atoms: C_25  and  C_44
   11  A    between atoms: C_26  and  O_27
   12  A    between atoms: C_35  and  C_43
   13  A    between atoms: C_41  and  C_45
   14  A    between atoms: C_43  and  C_44
   15  A    between atoms: C_45  and  C_46
   16  A    between atoms: C_46  and  C_47
                            x       y       z     vdW  Elec       q    Type
                         _______ _______ _______ _____ _____    ______ ____

>  <TORSDO>
F 16

$$$$
=
 OpenBabel11072408373D

 47 52  0  0  1  0  0  0  0  0999 V2000
  189.4160  176.0120  145.5810 C   0  0  1  0  0  3  0  0  0  0  0  0
  187.3200  176.4760  146.9080 C   0  0  0  0  0  3  0  0  0  0  0  0
  185.9740  176.8390  146.9850 C   0  0  0  0  0  3  0  0  0  0  0  0
  187.9720  176.4190  145.6650 C   0  0  0  0  0  0  0  0  0  0  0  0
  187.2590  176.7230  144.4910 C   0  0  0  0  0  0  0  0  0  0  0  0
  185.2660  177.1450  145.8210 C   0  0  0  0  0  3  0  0  0  0  0  0
  185.9050  177.0870  144.5800 C   0  0  0  0  0  3  0  0  0  0  0  0
  187.9100  176.6600  143.2530 O   0  0  0  0  0  0  0  0  0  0  0  0
  187.6610  177.5870  142.2040 C   0  0  0  0  0  1  0  0  0  0  0  0
  190.3670  177.1680  145.8920 C   0  0  0  0  0  2  0  0  0  0  0  0
  192.9970  176.2720  146.5420 S   0  0  0  0  0  0  0  0  0  0  0  0
  195.2440  175.3100  145.1050 N   0  0  0  0  0  0  0  0  0  0  0  0
  194.1220  176.1410  145.3050 C   0  0  0  0  0  0  0  0  0  0  0  0
  195.4060  175.1040  143.7080 N   0  0  0  0  0  2  0  0  0  0  0  0
  193.5470  176.3580  144.1330 C   0  0  0  0  0  0  0  0  0  0  0  0
  191.3900  177.0220  142.9590 C   0  0  0  0  0  1  0  0  0  0  0  0
  194.3260  175.7880  143.1480 O   0  0  0  0  0  0  0  0  0  0  0  0
  191.7790  176.8670  145.4930 C   0  0  0  0  0  0  0  0  0  0  0  0
  192.2370  176.8130  144.1670 C   0  0  0  0  0  0  0  0  0  0  0  0
  195.6470  174.3550  146.0490 N   0  0  0  0  0  2  0  0  0  0  0  0
  196.8760  173.7480  145.5630 C   0  0  0  0  0  2  0  0  0  0  0  0
  196.8990  172.2690  145.9100 C   0  0  0  0  0  2  0  0  0  0  0  0
  194.7650  170.9270  145.7860 N   0  0  0  0  0  1  0  0  0  0  0  0
  195.8750  171.5240  145.1240 C   0  0  0  0  0  0  0  0  0  0  0  0
  195.9760  171.4450  143.8730 O   0  0  0  0  0  0  0  0  0  0  0  0
  189.7130  174.7200  146.3540 C   0  0  0  0  0  2  0  0  0  0  0  0
  189.7110  173.4660  145.4830 C   0  0  0  0  0  2  0  0  0  0  0  0
  189.8660  173.8030  144.0060 C   0  0  0  0  0  2  0  0  0  0  0  0
  191.4980  171.9440  144.3020 C   0  0  0  0  0  1  0  0  0  0  0  0
  190.7840  172.8170  143.2790 C   0  0  1  0  0  3  0  0  0  0  0  0
  188.7500  171.9630  142.4610 F   0  0  0  0  0  0  0  0  0  0  0  0
  191.3570  170.7360  138.5510 O   0  0  0  0  0  1  0  0  0  0  0  0
  191.5560  172.5670  140.1330 C   0  0  1  0  0  3  0  0  0  0  0  0
  190.5570  170.5420  142.0490 C   0  0  1  0  0  3  0  0  0  0  0  0
  191.3860  170.0700  140.8400 C   0  0  1  0  0  3  0  0  0  0  0  0
  190.1600  172.7860  140.7460 C   0  0  1  0  0  0  0  0  0  0  0  0
  189.0910  172.2560  139.7850 C   0  0  0  0  0  1  0  0  0  0  0  0
  191.8610  171.0940  139.8030 C   0  0  1  0  0  3  0  0  0  0  0  0
  192.0620  170.3330  142.1660 C   0  0  0  0  0  2  0  0  0  0  0  0
  190.0910  172.0310  142.1170 C   0  0  2  0  0  0  0  0  0  0  0  0
  191.3060  173.3310  137.8380 O   0  0  0  0  0  1  0  0  0  0  0  0
  191.9760  173.5710  139.0400 C   0  0  2  0  0  3  0  0  0  0  0  0
  193.4810  173.5520  138.8160 C   0  0  0  0  0  3  0  0  0  0  0  0
  194.0310  174.9540  138.9850 C   0  0  0  0  0  2  0  0  0  0  0  0
  194.1860  173.9400  140.1000 C   0  0  0  0  0  2  0  0  0  0  0  0
  188.6020  174.6500  140.5800 O   0  0  0  0  0  1  0  0  0  0  0  0
  189.9060  174.2960  140.9360 C   0  0  0  0  0  2  0  0  0  0  0  0
  1  4  1  0  0  0  0
  1 10  1  1  0  0  0
  1 26  1  0  0  0  0
  2  3  1  0  0  0  0
  4  2  2  0  0  0  0
  5  7  2  0  0  0  0
  5  4  1  0  0  0  0
  6  3  2  0  0  0  0
  7  6  1  0  0  0  0
  8  5  1  0  0  0  0
  9  8  1  0  0  0  0
 12 13  1  0  0  0  0
 12 20  1  0  0  0  0
 13 11  1  0  0  0  0
 14 12  1  0  0  0  0
 15 19  1  0  0  0  0
 15 13  2  0  0  0  0
 16 19  1  0  0  0  0
 17 14  1  0  0  0  0
 17 15  1  0  0  0  0
 18 10  1  0  0  0  0
 18 11  1  0  0  0  0
 19 18  2  0  0  0  0
 21 22  1  0  0  0  0
 21 20  1  0  0  0  0
 24 23  1  0  0  0  0
 24 22  1  0  0  0  0
 25 24  2  0  0  0  0
 27 26  1  0  0  0  0
 28 27  1  0  0  0  0
 30 28  1  0  0  0  0
 30 29  1  1  0  0  0
 33 42  1  6  0  0  0
 33 36  1  0  0  0  0
 34 40  1  0  0  0  0
 34 39  1  1  0  0  0
 35 34  1  0  0  0  0
 35 39  1  1  0  0  0
 36 37  1  6  0  0  0
 36 47  1  0  0  0  0
 36 40  1  0  0  0  0
 38 32  1  6  0  0  0
 38 33  1  0  0  0  0
 38 35  1  0  0  0  0
 40 31  1  1  0  0  0
 40 30  1  0  0  0  0
 42 41  1  6  0  0  0
 43 44  1  0  0  0  0
 43 42  1  0  0  0  0
 43 45  1  0  0  0  0
 44 45  1  0  0  0  0
 46 47  1  0  0  0  0
M  END
>  <MODEL>
3

>  <REMARK>
 VINA RESULT:      -6.7      4.882      8.551
  Name = 
  16 active torsions:
  status: ('A' for Active; 'I' for Inactive)
    1  A    between atoms: N_2  and  N_24
    2  A    between atoms: C_7  and  C_37
    3  A    between atoms: C_10  and  C_11
    4  A    between atoms: C_10  and  C_28
    5  A    between atoms: C_11  and  N_24
    6  A    between atoms: C_12  and  C_37
    7  A    between atoms: C_17  and  C_40
    8  A    between atoms: C_20  and  C_44
    9  A    between atoms: C_25  and  C_41
   10  A    between atoms: C_25  and  C_44
   11  A    between atoms: C_26  and  O_27
   12  A    between atoms: C_35  and  C_43
   13  A    between atoms: C_41  and  C_45
   14  A    between atoms: C_43  and  C_44
   15  A    between atoms: C_45  and  C_46
   16  A    between atoms: C_46  and  C_47
                            x       y       z     vdW  Elec       q    Type
                         _______ _______ _______ _____ _____    ______ ____

>  <TORSDO>
F 16

$$$$
=
 OpenBabel11072408373D

 47 52  0  0  1  0  0  0  0  0999 V2000
  193.8130  175.2500  144.8010 C   0  0  1  0  0  3  0  0  0  0  0  0
  195.9080  176.4870  144.1290 C   0  0  0  0  0  3  0  0  0  0  0  0
  196.8440  176.8790  143.1690 C   0  0  0  0  0  3  0  0  0  0  0  0
  194.8300  175.6590  143.7740 C   0  0  0  0  0  0  0  0  0  0  0  0
  194.6910  175.2300  142.4400 C   0  0  0  0  0  0  0  0  0  0  0  0
  196.7100  176.4510  141.8470 C   0  0  0  0  0  3  0  0  0  0  0  0
  195.6390  175.6320  141.4840 C   0  0  0  0  0  3  0  0  0  0  0  0
  193.6130  174.4100  142.0880 O   0  0  0  0  0  0  0  0  0  0  0  0
  193.1790  174.2430  140.7440 C   0  0  0  0  0  1  0  0  0  0  0  0
  194.3180  174.1280  145.7080 C   0  0  0  0  0  2  0  0  0  0  0  0
  192.3550  172.4800  144.4550 S   0  0  0  0  0  0  0  0  0  0  0  0
  192.2800  169.8700  143.3470 N   0  0  0  0  0  0  0  0  0  0  0  0
  192.6790  170.8430  144.2880 C   0  0  0  0  0  0  0  0  0  0  0  0
  193.3160  168.9040  143.2350 N   0  0  0  0  0  2  0  0  0  0  0  0
  193.9190  170.5760  144.6660 C   0  0  0  0  0  0  0  0  0  0  0  0
  196.0450  171.5420  145.6750 C   0  0  0  0  0  1  0  0  0  0  0  0
  194.3100  169.3870  144.0870 O   0  0  0  0  0  0  0  0  0  0  0  0
  193.8310  172.7800  145.2730 C   0  0  0  0  0  0  0  0  0  0  0  0
  194.6130  171.6140  145.2700 C   0  0  0  0  0  0  0  0  0  0  0  0
  191.4230  170.1700  142.2790 N   0  0  0  0  0  2  0  0  0  0  0  0
  192.0050  169.5950  141.0750 C   0  0  0  0  0  2  0  0  0  0  0  0
  190.9050  169.1740  140.1150 C   0  0  0  0  0  2  0  0  0  0  0  0
  189.6180  170.1030  138.1530 N   0  0  0  0  0  1  0  0  0  0  0  0
  190.7380  170.1800  139.0280 C   0  0  0  0  0  0  0  0  0  0  0  0
  191.5720  171.1130  138.8990 O   0  0  0  0  0  0  0  0  0  0  0  0
  193.2120  176.4480  145.5490 C   0  0  0  0  0  2  0  0  0  0  0  0
  192.4780  176.0690  146.8330 C   0  0  0  0  0  2  0  0  0  0  0  0
  191.0380  176.5660  146.8270 C   0  0  0  0  0  2  0  0  0  0  0  0
  189.3620  174.8770  146.0890 C   0  0  0  0  0  1  0  0  0  0  0  0
  190.2440  176.0300  145.6320 C   0  0  1  0  0  3  0  0  0  0  0  0
  190.2610  178.2850  144.9600 F   0  0  0  0  0  0  0  0  0  0  0  0
  186.3990  177.0480  142.2870 O   0  0  0  0  0  1  0  0  0  0  0  0
  188.3550  175.7990  142.9980 C   0  0  1  0  0  3  0  0  0  0  0  0
  188.1110  177.4930  145.4140 C   0  0  1  0  0  3  0  0  0  0  0  0
  186.8350  177.1380  144.6290 C   0  0  1  0  0  3  0  0  0  0  0  0
  189.4710  176.8260  143.2710 C   0  0  1  0  0  0  0  0  0  0  0  0
  189.1960  178.1040  142.4710 C   0  0  0  0  0  1  0  0  0  0  0  0
  186.9450  176.3140  143.3410 C   0  0  1  0  0  3  0  0  0  0  0  0
  187.2540  176.2970  145.8130 C   0  0  0  0  0  2  0  0  0  0  0  0
  189.5040  177.1340  144.8060 C   0  0  2  0  0  0  0  0  0  0  0  0
  187.7330  175.6770  140.6510 O   0  0  0  0  0  1  0  0  0  0  0  0
  188.4550  175.0370  141.6610 C   0  0  2  0  0  3  0  0  0  0  0  0
  187.9900  173.5960  141.8070 C   0  0  0  0  0  3  0  0  0  0  0  0
  189.0620  172.6660  141.2720 C   0  0  0  0  0  2  0  0  0  0  0  0
  188.9070  172.8650  142.7670 C   0  0  0  0  0  2  0  0  0  0  0  0
  191.7590  177.2780  142.5740 O   0  0  0  0  0  1  0  0  0  0  0  0
  190.8250  176.2620  142.7940 C   0  0  0  0  0  2  0  0  0  0  0  0
  1 26  1  1  0  0  0
  1 10  1  0  0  0  0
  3  2  2  0  0  0  0
  4  2  1  0  0  0  0
  4  1  1  0  0  0  0
  5  4  2  0  0  0  0
  6  3  1  0  0  0  0
  7  6  2  0  0  0  0
  7  5  1  0  0  0  0
  8  5  1  0  0  0  0
  9  8  1  0  0  0  0
 11 18  1  0  0  0  0
 12 13  1  0  0  0  0
 13 11  1  0  0  0  0
 13 15  2  0  0  0  0
 14 12  1  0  0  0  0
 14 17  1  0  0  0  0
 15 19  1  0  0  0  0
 17 15  1  0  0  0  0
 18 10  1  0  0  0  0
 19 18  2  0  0  0  0
 19 16  1  0  0  0  0
 20 12  1  0  0  0  0
 21 20  1  0  0  0  0
 22 21  1  0  0  0  0
 23 24  1  0  0  0  0
 24 22  1  0  0  0  0
 25 24  2  0  0  0  0
 26 27  1  0  0  0  0
 28 27  1  0  0  0  0
 30 29  1  1  0  0  0
 30 28  1  0  0  0  0
 33 42  1  6  0  0  0
 33 36  1  0  0  0  0
 33 38  1  0  0  0  0
 34 39  1  1  0  0  0
 35 34  1  0  0  0  0
 35 39  1  1  0  0  0
 36 37  1  6  0  0  0
 36 40  1  0  0  0  0
 38 32  1  6  0  0  0
 38 35  1  0  0  0  0
 40 31  1  1  0  0  0
 40 34  1  0  0  0  0
 40 30  1  0  0  0  0
 42 41  1  6  0  0  0
 42 43  1  0  0  0  0
 43 45  1  0  0  0  0
 44 43  1  0  0  0  0
 44 45  1  0  0  0  0
 46 47  1  0  0  0  0
 47 36  1  0  0  0  0
M  END
>  <MODEL>
4

>  <REMARK>
 VINA RESULT:      -6.6      4.468      8.805
  Name = 
  16 active torsions:
  status: ('A' for Active; 'I' for Inactive)
    1  A    between atoms: N_2  and  N_24
    2  A    between atoms: C_7  and  C_37
    3  A    between atoms: C_10  and  C_11
    4  A    between atoms: C_10  and  C_28
    5  A    between atoms: C_11  and  N_24
    6  A    between atoms: C_12  and  C_37
    7  A    between atoms: C_17  and  C_40
    8  A    between atoms: C_20  and  C_44
    9  A    between atoms: C_25  and  C_41
   10  A    between atoms: C_25  and  C_44
   11  A    between atoms: C_26  and  O_27
   12  A    between atoms: C_35  and  C_43
   13  A    between atoms: C_41  and  C_45
   14  A    between atoms: C_43  and  C_44
   15  A    between atoms: C_45  and  C_46
   16  A    between atoms: C_46  and  C_47
                            x       y       z     vdW  Elec       q    Type
                         _______ _______ _______ _____ _____    ______ ____

>  <TORSDO>
F 16

$$$$
=
 OpenBabel11072408373D

 47 52  0  0  1  0  0  0  0  0999 V2000
  188.1220  176.0110  143.5320 C   0  0  1  0  0  3  0  0  0  0  0  0
  186.1170  177.2220  144.4720 C   0  0  0  0  0  3  0  0  0  0  0  0
  185.3730  177.7080  145.5500 C   0  0  0  0  0  3  0  0  0  0  0  0
  187.3130  176.5190  144.6920 C   0  0  0  0  0  0  0  0  0  0  0  0
  187.7660  176.3110  146.0080 C   0  0  0  0  0  0  0  0  0  0  0  0
  185.8200  177.4990  146.8560 C   0  0  0  0  0  3  0  0  0  0  0  0
  187.0100  176.8050  147.0840 C   0  0  0  0  0  3  0  0  0  0  0  0
  188.9610  175.6160  146.2240 O   0  0  0  0  0  0  0  0  0  0  0  0
  189.1100  174.6380  147.2460 C   0  0  0  0  0  1  0  0  0  0  0  0
  187.2910  175.1680  142.5650 C   0  0  0  0  0  2  0  0  0  0  0  0
  188.4990  174.4030  140.0970 S   0  0  0  0  0  0  0  0  0  0  0  0
  190.6150  172.6910  139.2990 N   0  0  0  0  0  0  0  0  0  0  0  0
  189.5030  173.0590  140.0840 C   0  0  0  0  0  0  0  0  0  0  0  0
  191.4770  171.8870  140.0910 N   0  0  0  0  0  2  0  0  0  0  0  0
  189.6940  172.6130  141.3160 C   0  0  0  0  0  0  0  0  0  0  0  0
  189.0570  172.9050  143.7610 C   0  0  0  0  0  1  0  0  0  0  0  0
  190.8500  171.8620  141.3380 O   0  0  0  0  0  0  0  0  0  0  0  0
  188.1330  174.2250  141.7610 C   0  0  0  0  0  0  0  0  0  0  0  0
  188.9200  173.1990  142.3070 C   0  0  0  0  0  0  0  0  0  0  0  0
  191.0990  173.5010  138.2610 N   0  0  0  0  0  2  0  0  0  0  0  0
  192.4520  173.9030  138.6120 C   0  0  0  0  0  2  0  0  0  0  0  0
  193.1360  174.5340  137.4110 C   0  0  0  0  0  2  0  0  0  0  0  0
  194.7510  175.3470  139.1730 N   0  0  0  0  0  1  0  0  0  0  0  0
  194.4480  175.1250  137.7990 C   0  0  0  0  0  0  0  0  0  0  0  0
  195.3000  175.4050  136.9160 O   0  0  0  0  0  0  0  0  0  0  0  0
  188.9510  177.1130  142.8610 C   0  0  0  0  0  2  0  0  0  0  0  0
  190.4280  176.7630  142.6990 C   0  0  0  0  0  2  0  0  0  0  0  0
  190.9800  176.0600  143.9320 C   0  0  0  0  0  2  0  0  0  0  0  0
  193.2200  176.0750  142.8420 C   0  0  0  0  0  1  0  0  0  0  0  0
  192.2230  175.2240  143.6160 C   0  0  1  0  0  3  0  0  0  0  0  0
  191.7790  173.7280  145.3770 F   0  0  0  0  0  0  0  0  0  0  0  0
  196.5390  174.0810  146.2770 O   0  0  0  0  0  1  0  0  0  0  0  0
  195.2550  174.2240  144.2220 C   0  0  1  0  0  3  0  0  0  0  0  0
  193.2290  175.4500  145.9980 C   0  0  1  0  0  3  0  0  0  0  0  0
  194.7180  175.6190  146.3500 C   0  0  1  0  0  3  0  0  0  0  0  0
  193.9430  173.4510  144.4550 C   0  0  1  0  0  0  0  0  0  0  0  0
  194.1490  172.4200  145.5710 C   0  0  0  0  0  1  0  0  0  0  0  0
  195.7810  174.9400  145.4780 C   0  0  1  0  0  3  0  0  0  0  0  0
  194.0030  176.6840  145.5500 C   0  0  0  0  0  2  0  0  0  0  0  0
  192.8230  174.4730  144.8500 C   0  0  2  0  0  0  0  0  0  0  0  0
  196.8710  172.4100  144.1130 O   0  0  0  0  0  1  0  0  0  0  0  0
  196.3330  173.4850  143.4030 C   0  0  2  0  0  3  0  0  0  0  0  0
  197.4410  174.4310  142.9620 C   0  0  0  0  0  3  0  0  0  0  0  0
  197.5760  174.3780  141.4530 C   0  0  0  0  0  2  0  0  0  0  0  0
  196.8510  175.5360  142.1080 C   0  0  0  0  0  2  0  0  0  0  0  0
  193.4360  171.3080  143.4160 O   0  0  0  0  0  1  0  0  0  0  0  0
  193.5580  172.6790  143.1760 C   0  0  0  0  0  2  0  0  0  0  0  0
  1 10  1  6  0  0  0
  1  4  1  0  0  0  0
  2  4  2  0  0  0  0
  2  3  1  0  0  0  0
  3  6  2  0  0  0  0
  4  5  1  0  0  0  0
  5  8  1  0  0  0  0
  5  7  2  0  0  0  0
  6  7  1  0  0  0  0
  8  9  1  0  0  0  0
 11 18  1  0  0  0  0
 12 13  1  0  0  0  0
 12 14  1  0  0  0  0
 13 11  1  0  0  0  0
 13 15  2  0  0  0  0
 14 17  1  0  0  0  0
 15 17  1  0  0  0  0
 15 19  1  0  0  0  0
 18 19  2  0  0  0  0
 18 10  1  0  0  0  0
 19 16  1  0  0  0  0
 20 21  1  0  0  0  0
 20 12  1  0  0  0  0
 22 24  1  0  0  0  0
 22 21  1  0  0  0  0
 24 23  1  0  0  0  0
 25 24  2  0  0  0  0
 26  1  1  0  0  0  0
 27 26  1  0  0  0  0
 27 28  1  0  0  0  0
 30 29  1  1  0  0  0
 30 28  1  0  0  0  0
 30 40  1  0  0  0  0
 33 42  1  1  0  0  0
 33 36  1  0  0  0  0
 33 38  1  0  0  0  0
 34 39  1  6  0  0  0
 34 35  1  0  0  0  0
 35 39  1  6  0  0  0
 36 40  1  0  0  0  0
 36 37  1  1  0  0  0
 38 32  1  1  0  0  0
 38 35  1  0  0  0  0
 40 31  1  1  0  0  0
 40 34  1  0  0  0  0
 42 41  1  1  0  0  0
 43 42  1  0  0  0  0
 44 45  1  0  0  0  0
 44 43  1  0  0  0  0
 45 43  1  0  0  0  0
 47 46  1  0  0  0  0
 47 36  1  0  0  0  0
M  END
>  <MODEL>
5

>  <REMARK>
 VINA RESULT:      -6.3      4.205      6.856
  Name = 
  16 active torsions:
  status: ('A' for Active; 'I' for Inactive)
    1  A    between atoms: N_2  and  N_24
    2  A    between atoms: C_7  and  C_37
    3  A    between atoms: C_10  and  C_11
    4  A    between atoms: C_10  and  C_28
    5  A    between atoms: C_11  and  N_24
    6  A    between atoms: C_12  and  C_37
    7  A    between atoms: C_17  and  C_40
    8  A    between atoms: C_20  and  C_44
    9  A    between atoms: C_25  and  C_41
   10  A    between atoms: C_25  and  C_44
   11  A    between atoms: C_26  and  O_27
   12  A    between atoms: C_35  and  C_43
   13  A    between atoms: C_41  and  C_45
   14  A    between atoms: C_43  and  C_44
   15  A    between atoms: C_45  and  C_46
   16  A    between atoms: C_46  and  C_47
                            x       y       z     vdW  Elec       q    Type
                         _______ _______ _______ _____ _____    ______ ____

>  <TORSDO>
F 16

$$$$
=
 OpenBabel11072408373D

 47 52  0  0  1  0  0  0  0  0999 V2000
  190.6810  172.6310  140.7750 C   0  0  1  0  0  3  0  0  0  0  0  0
  188.9440  172.9100  138.9650 C   0  0  0  0  0  3  0  0  0  0  0  0
  188.5660  173.3060  137.6800 C   0  0  0  0  0  3  0  0  0  0  0  0
  190.2700  173.0720  139.3990 C   0  0  0  0  0  0  0  0  0  0  0  0
  191.2230  173.6310  138.5280 C   0  0  0  0  0  0  0  0  0  0  0  0
  189.5100  173.8640  136.8170 C   0  0  0  0  0  3  0  0  0  0  0  0
  190.8320  174.0260  137.2380 C   0  0  0  0  0  3  0  0  0  0  0  0
  192.5450  173.7860  138.9600 O   0  0  0  0  0  0  0  0  0  0  0  0
  193.6530  173.2220  138.2690 C   0  0  0  0  0  1  0  0  0  0  0  0
  189.5150  172.6420  141.7640 C   0  0  0  0  0  2  0  0  0  0  0  0
  189.4230  175.4040  142.4720 S   0  0  0  0  0  0  0  0  0  0  0  0
  189.1680  176.8930  144.8730 N   0  0  0  0  0  0  0  0  0  0  0  0
  189.6330  175.8200  144.0840 C   0  0  0  0  0  0  0  0  0  0  0  0
  189.0270  176.4370  146.2110 N   0  0  0  0  0  2  0  0  0  0  0  0
  189.6810  174.7340  144.8390 C   0  0  0  0  0  0  0  0  0  0  0  0
  189.6920  172.1900  144.8360 C   0  0  0  0  0  1  0  0  0  0  0  0
  189.3690  175.0860  146.1360 O   0  0  0  0  0  0  0  0  0  0  0  0
  189.6420  173.7330  142.7830 C   0  0  0  0  0  0  0  0  0  0  0  0
  189.7320  173.5220  144.1670 C   0  0  0  0  0  0  0  0  0  0  0  0
  188.3670  177.9160  144.3470 N   0  0  0  0  0  2  0  0  0  0  0  0
  186.9940  177.6460  144.7440 C   0  0  0  0  0  2  0  0  0  0  0  0
  186.1630  178.9140  144.6440 C   0  0  0  0  0  2  0  0  0  0  0  0
  184.0360  178.6580  145.9790 N   0  0  0  0  0  1  0  0  0  0  0  0
  184.7080  178.6020  144.7250 C   0  0  0  0  0  0  0  0  0  0  0  0
  184.0650  178.3140  143.6820 O   0  0  0  0  0  0  0  0  0  0  0  0
  191.4880  171.3260  140.7620 C   0  0  0  0  0  2  0  0  0  0  0  0
  191.5360  170.6160  142.1130 C   0  0  0  0  0  2  0  0  0  0  0  0
  192.9470  170.5840  142.6830 C   0  0  0  0  0  2  0  0  0  0  0  0
  193.3960  171.6700  144.8800 C   0  0  0  0  0  1  0  0  0  0  0  0
  193.3240  171.8960  143.3760 C   0  0  1  0  0  3  0  0  0  0  0  0
  194.5170  172.3520  141.4000 F   0  0  0  0  0  0  0  0  0  0  0  0
  197.2990  175.1260  144.2570 O   0  0  0  0  0  1  0  0  0  0  0  0
  194.9460  174.5380  144.3500 C   0  0  1  0  0  3  0  0  0  0  0  0
  195.9150  171.9730  143.2330 C   0  0  1  0  0  3  0  0  0  0  0  0
  196.8570  172.7860  144.1390 C   0  0  1  0  0  3  0  0  0  0  0  0
  194.5150  174.1710  142.9170 C   0  0  1  0  0  0  0  0  0  0  0  0
  195.4560  174.8460  141.9130 C   0  0  0  0  0  1  0  0  0  0  0  0
  196.3980  174.1460  144.6780 C   0  0  1  0  0  3  0  0  0  0  0  0
  196.0020  171.6870  144.7280 C   0  0  0  0  0  2  0  0  0  0  0  0
  194.5710  172.6130  142.7610 C   0  0  2  0  0  0  0  0  0  0  0  0
  195.5440  176.8780  144.6220 O   0  0  0  0  0  1  0  0  0  0  0  0
  194.5320  175.9410  144.8380 C   0  0  2  0  0  3  0  0  0  0  0  0
  194.1350  175.9240  146.3060 C   0  0  0  0  0  3  0  0  0  0  0  0
  192.7050  176.4110  146.4450 C   0  0  0  0  0  2  0  0  0  0  0  0
  193.0110  174.9280  146.5130 C   0  0  0  0  0  2  0  0  0  0  0  0
  193.0810  175.6640  141.6370 O   0  0  0  0  0  1  0  0  0  0  0  0
  193.0920  174.7000  142.6490 C   0  0  0  0  0  2  0  0  0  0  0  0
  1 26  1  6  0  0  0
  1 10  1  0  0  0  0
  2  4  1  0  0  0  0
  3  2  2  0  0  0  0
  4  1  1  0  0  0  0
  5  8  1  0  0  0  0
  5  4  2  0  0  0  0
  6  7  2  0  0  0  0
  6  3  1  0  0  0  0
  7  5  1  0  0  0  0
  9  8  1  0  0  0  0
 10 18  1  0  0  0  0
 11 18  1  0  0  0  0
 11 13  1  0  0  0  0
 12 14  1  0  0  0  0
 13 15  2  0  0  0  0
 13 12  1  0  0  0  0
 15 17  1  0  0  0  0
 17 14  1  0  0  0  0
 18 19  2  0  0  0  0
 19 16  1  0  0  0  0
 19 15  1  0  0  0  0
 20 21  1  0  0  0  0
 20 12  1  0  0  0  0
 22 24  1  0  0  0  0
 22 21  1  0  0  0  0
 24 23  1  0  0  0  0
 25 24  2  0  0  0  0
 26 27  1  0  0  0  0
 27 28  1  0  0  0  0
 28 30  1  0  0  0  0
 30 29  1  1  0  0  0
 33 38  1  0  0  0  0
 33 42  1  6  0  0  0
 34 35  1  0  0  0  0
 34 39  1  1  0  0  0
 35 38  1  0  0  0  0
 35 39  1  1  0  0  0
 36 37  1  6  0  0  0
 36 33  1  0  0  0  0
 38 32  1  6  0  0  0
 40 31  1  6  0  0  0
 40 36  1  0  0  0  0
 40 34  1  0  0  0  0
 40 30  1  0  0  0  0
 42 41  1  1  0  0  0
 42 43  1  0  0  0  0
 43 44  1  0  0  0  0
 43 45  1  0  0  0  0
 44 45  1  0  0  0  0
 46 47  1  0  0  0  0
 47 36  1  0  0  0  0
M  END
>  <MODEL>
6

>  <REMARK>
 VINA RESULT:      -6.3      2.765      5.250
  Name = 
  16 active torsions:
  status: ('A' for Active; 'I' for Inactive)
    1  A    between atoms: N_2  and  N_24
    2  A    between atoms: C_7  and  C_37
    3  A    between atoms: C_10  and  C_11
    4  A    between atoms: C_10  and  C_28
    5  A    between atoms: C_11  and  N_24
    6  A    between atoms: C_12  and  C_37
    7  A    between atoms: C_17  and  C_40
    8  A    between atoms: C_20  and  C_44
    9  A    between atoms: C_25  and  C_41
   10  A    between atoms: C_25  and  C_44
   11  A    between atoms: C_26  and  O_27
   12  A    between atoms: C_35  and  C_43
   13  A    between atoms: C_41  and  C_45
   14  A    between atoms: C_43  and  C_44
   15  A    between atoms: C_45  and  C_46
   16  A    between atoms: C_46  and  C_47
                            x       y       z     vdW  Elec       q    Type
                         _______ _______ _______ _____ _____    ______ ____

>  <TORSDO>
F 16

$$$$
=
 OpenBabel11072408373D

 47 52  0  0  1  0  0  0  0  0999 V2000
  187.5020  176.9980  143.9680 C   0  0  1  0  0  3  0  0  0  0  0  0
  185.9550  178.5940  145.1650 C   0  0  0  0  0  3  0  0  0  0  0  0
  185.3060  179.0350  146.3200 C   0  0  0  0  0  3  0  0  0  0  0  0
  186.7890  177.4640  145.2060 C   0  0  0  0  0  0  0  0  0  0  0  0
  186.9750  176.7800  146.4220 C   0  0  0  0  0  0  0  0  0  0  0  0
  185.4860  178.3560  147.5250 C   0  0  0  0  0  3  0  0  0  0  0  0
  186.3170  177.2340  147.5770 C   0  0  0  0  0  3  0  0  0  0  0  0
  187.8120  175.6590  146.4610 O   0  0  0  0  0  0  0  0  0  0  0  0
  188.7040  175.4010  147.5380 C   0  0  0  0  0  1  0  0  0  0  0  0
  186.5380  176.6730  142.8270 C   0  0  0  0  0  2  0  0  0  0  0  0
  188.0760  174.5430  141.7160 S   0  0  0  0  0  0  0  0  0  0  0  0
  188.6110  173.5470  139.1150 N   0  0  0  0  0  0  0  0  0  0  0  0
  188.3890  174.5630  140.0680 C   0  0  0  0  0  0  0  0  0  0  0  0
  188.1370  174.0020  137.8550 N   0  0  0  0  0  2  0  0  0  0  0  0
  187.7260  175.5480  139.4830 C   0  0  0  0  0  0  0  0  0  0  0  0
  186.2070  177.5530  139.8630 C   0  0  0  0  0  1  0  0  0  0  0  0
  187.6040  175.2600  138.1400 O   0  0  0  0  0  0  0  0  0  0  0  0
  187.2280  176.0310  141.6630 C   0  0  0  0  0  0  0  0  0  0  0  0
  187.0820  176.4400  140.3280 C   0  0  0  0  0  0  0  0  0  0  0  0
  188.6210  172.1870  139.4590 N   0  0  0  0  0  2  0  0  0  0  0  0
  189.7410  171.5680  138.7660 C   0  0  0  0  0  2  0  0  0  0  0  0
  190.7010  170.9550  139.7720 C   0  0  0  0  0  2  0  0  0  0  0  0
  193.1900  171.1070  140.1640 N   0  0  0  0  0  1  0  0  0  0  0  0
  191.9570  171.7520  139.8580 C   0  0  0  0  0  0  0  0  0  0  0  0
  191.9360  172.9900  139.6340 O   0  0  0  0  0  0  0  0  0  0  0  0
  188.6650  177.9170  143.5730 C   0  0  0  0  0  2  0  0  0  0  0  0
  189.9640  177.6240  144.3190 C   0  0  0  0  0  2  0  0  0  0  0  0
  190.3570  176.1570  144.2140 C   0  0  0  0  0  2  0  0  0  0  0  0
  192.5370  177.3340  143.9560 C   0  0  0  0  0  1  0  0  0  0  0  0
  191.8670  175.9700  144.0470 C   0  0  1  0  0  3  0  0  0  0  0  0
  191.4590  174.2610  145.6120 F   0  0  0  0  0  0  0  0  0  0  0  0
  196.2970  174.0900  146.0130 O   0  0  0  0  0  1  0  0  0  0  0  0
  194.8340  174.6500  144.1570 C   0  0  1  0  0  3  0  0  0  0  0  0
  193.1210  175.7460  146.3090 C   0  0  1  0  0  3  0  0  0  0  0  0
  194.6480  175.7380  146.5120 C   0  0  1  0  0  3  0  0  0  0  0  0
  193.4840  173.9570  144.4230 C   0  0  1  0  0  0  0  0  0  0  0  0
  193.7000  172.7540  145.3470 C   0  0  0  0  0  1  0  0  0  0  0  0
  195.5490  175.1200  145.4370 C   0  0  1  0  0  3  0  0  0  0  0  0
  193.9620  176.9680  145.9600 C   0  0  0  0  0  2  0  0  0  0  0  0
  192.5120  174.9920  145.0840 C   0  0  2  0  0  0  0  0  0  0  0  0
  196.6620  173.1020  143.7380 O   0  0  0  0  0  1  0  0  0  0  0  0
  195.7500  173.9630  143.1240 C   0  0  2  0  0  3  0  0  0  0  0  0
  196.4850  174.9840  142.2680 C   0  0  0  0  0  3  0  0  0  0  0  0
  195.9070  174.9720  140.8660 C   0  0  0  0  0  2  0  0  0  0  0  0
  195.5190  176.0690  141.8360 C   0  0  0  0  0  2  0  0  0  0  0  0
  191.8830  172.4950  143.3160 O   0  0  0  0  0  1  0  0  0  0  0  0
  192.9010  173.4250  143.0970 C   0  0  0  0  0  2  0  0  0  0  0  0
  1 10  1  6  0  0  0
  1  4  1  0  0  0  0
  2  4  2  0  0  0  0
  2  3  1  0  0  0  0
  3  6  2  0  0  0  0
  4  5  1  0  0  0  0
  5  8  1  0  0  0  0
  5  7  2  0  0  0  0
  6  7  1  0  0  0  0
  8  9  1  0  0  0  0
 12 20  1  0  0  0  0
 12 13  1  0  0  0  0
 13 11  1  0  0  0  0
 14 17  1  0  0  0  0
 14 12  1  0  0  0  0
 15 13  2  0  0  0  0
 15 19  1  0  0  0  0
 16 19  1  0  0  0  0
 17 15  1  0  0  0  0
 18 11  1  0  0  0  0
 18 10  1  0  0  0  0
 19 18  2  0  0  0  0
 21 20  1  0  0  0  0
 21 22  1  0  0  0  0
 22 24  1  0  0  0  0
 24 23  1  0  0  0  0
 25 24  2  0  0  0  0
 26  1  1  0  0  0  0
 26 27  1  0  0  0  0
 28 27  1  0  0  0  0
 30 29  1  1  0  0  0
 30 28  1  0  0  0  0
 30 40  1  0  0  0  0
 33 42  1  1  0  0  0
 33 36  1  0  0  0  0
 33 38  1  0  0  0  0
 34 39  1  6  0  0  0
 34 35  1  0  0  0  0
 35 39  1  6  0  0  0
 36 40  1  0  0  0  0
 36 37  1  1  0  0  0
 38 32  1  1  0  0  0
 38 35  1  0  0  0  0
 40 31  1  1  0  0  0
 40 34  1  0  0  0  0
 42 41  1  1  0  0  0
 43 42  1  0  0  0  0
 44 45  1  0  0  0  0
 44 43  1  0  0  0  0
 45 43  1  0  0  0  0
 47 46  1  0  0  0  0
 47 36  1  0  0  0  0
M  END
>  <MODEL>
7

>  <REMARK>
 VINA RESULT:      -6.3      3.692      6.484
  Name = 
  16 active torsions:
  status: ('A' for Active; 'I' for Inactive)
    1  A    between atoms: N_2  and  N_24
    2  A    between atoms: C_7  and  C_37
    3  A    between atoms: C_10  and  C_11
    4  A    between atoms: C_10  and  C_28
    5  A    between atoms: C_11  and  N_24
    6  A    between atoms: C_12  and  C_37
    7  A    between atoms: C_17  and  C_40
    8  A    between atoms: C_20  and  C_44
    9  A    between atoms: C_25  and  C_41
   10  A    between atoms: C_25  and  C_44
   11  A    between atoms: C_26  and  O_27
   12  A    between atoms: C_35  and  C_43
   13  A    between atoms: C_41  and  C_45
   14  A    between atoms: C_43  and  C_44
   15  A    between atoms: C_45  and  C_46
   16  A    between atoms: C_46  and  C_47
                            x       y       z     vdW  Elec       q    Type
                         _______ _______ _______ _____ _____    ______ ____

>  <TORSDO>
F 16

$$$$
=
 OpenBabel11072408373D

 47 52  0  0  1  0  0  0  0  0999 V2000
  188.2700  175.7770  143.3900 C   0  0  1  0  0  3  0  0  0  0  0  0
  186.2560  177.1500  144.0490 C   0  0  0  0  0  3  0  0  0  0  0  0
  185.4730  177.7920  145.0100 C   0  0  0  0  0  3  0  0  0  0  0  0
  187.4170  176.4540  144.4260 C   0  0  0  0  0  0  0  0  0  0  0  0
  187.7930  176.4120  145.7810 C   0  0  0  0  0  0  0  0  0  0  0  0
  185.8420  177.7480  146.3550 C   0  0  0  0  0  3  0  0  0  0  0  0
  186.9970  177.0620  146.7390 C   0  0  0  0  0  3  0  0  0  0  0  0
  188.9530  175.7230  146.1540 O   0  0  0  0  0  0  0  0  0  0  0  0
  188.9870  174.8000  147.2350 C   0  0  0  0  0  1  0  0  0  0  0  0
  187.5070  174.6990  142.6200 C   0  0  0  0  0  2  0  0  0  0  0  0
  188.8310  174.1400  140.1560 S   0  0  0  0  0  0  0  0  0  0  0  0
  191.0400  172.5620  139.3330 N   0  0  0  0  0  0  0  0  0  0  0  0
  189.8870  172.8370  140.0970 C   0  0  0  0  0  0  0  0  0  0  0  0
  191.9050  171.7410  140.1050 N   0  0  0  0  0  2  0  0  0  0  0  0
  190.0520  172.3210  141.3050 C   0  0  0  0  0  0  0  0  0  0  0  0
  189.3180  172.4320  143.7380 C   0  0  0  0  0  1  0  0  0  0  0  0
  191.2350  171.6130  141.3230 O   0  0  0  0  0  0  0  0  0  0  0  0
  188.4130  173.8420  141.7910 C   0  0  0  0  0  0  0  0  0  0  0  0
  189.2210  172.8130  142.3000 C   0  0  0  0  0  0  0  0  0  0  0  0
  191.5270  173.4530  138.3660 N   0  0  0  0  0  2  0  0  0  0  0  0
  192.3750  172.6960  137.4590 C   0  0  0  0  0  2  0  0  0  0  0  0
  193.5340  173.5580  136.9870 C   0  0  0  0  0  2  0  0  0  0  0  0
  195.0340  173.1350  138.9720 N   0  0  0  0  0  1  0  0  0  0  0  0
  194.3300  174.0550  138.1440 C   0  0  0  0  0  0  0  0  0  0  0  0
  194.4030  175.2900  138.3760 O   0  0  0  0  0  0  0  0  0  0  0  0
  189.0270  176.7750  142.5040 C   0  0  0  0  0  2  0  0  0  0  0  0
  190.5310  176.8140  142.7640 C   0  0  0  0  0  2  0  0  0  0  0  0
  190.9770  175.6700  143.6650 C   0  0  0  0  0  2  0  0  0  0  0  0
  192.4510  175.1100  141.7360 C   0  0  0  0  0  1  0  0  0  0  0  0
  192.3400  175.1050  143.2540 C   0  0  1  0  0  3  0  0  0  0  0  0
  193.0530  176.8870  144.6160 F   0  0  0  0  0  0  0  0  0  0  0  0
  197.3040  174.5390  144.6870 O   0  0  0  0  0  1  0  0  0  0  0  0
  195.0120  173.7550  144.5160 C   0  0  1  0  0  3  0  0  0  0  0  0
  194.6430  176.2810  143.0160 C   0  0  1  0  0  3  0  0  0  0  0  0
  196.0200  175.5940  142.9770 C   0  0  1  0  0  3  0  0  0  0  0  0
  194.1170  174.8390  145.1460 C   0  0  1  0  0  0  0  0  0  0  0  0
  194.9400  175.6680  146.1380 C   0  0  0  0  0  1  0  0  0  0  0  0
  196.2510  174.3190  143.7960 C   0  0  1  0  0  3  0  0  0  0  0  0
  195.0090  175.3250  141.8860 C   0  0  0  0  0  2  0  0  0  0  0  0
  193.5540  175.7500  144.0020 C   0  0  2  0  0  0  0  0  0  0  0  0
  196.5460  172.5790  145.9910 O   0  0  0  0  0  1  0  0  0  0  0  0
  195.2860  172.5160  145.3940 C   0  0  2  0  0  3  0  0  0  0  0  0
  195.1460  171.2290  144.5960 C   0  0  0  0  0  3  0  0  0  0  0  0
  193.8110  170.5850  144.9120 C   0  0  0  0  0  2  0  0  0  0  0  0
  193.9910  171.3610  143.6230 C   0  0  0  0  0  2  0  0  0  0  0  0
  192.5140  174.9930  146.9710 O   0  0  0  0  0  1  0  0  0  0  0  0
  192.9700  174.1750  145.9340 C   0  0  0  0  0  2  0  0  0  0  0  0
  1 26  1  6  0  0  0
  1  4  1  0  0  0  0
  2  4  2  0  0  0  0
  2  3  1  0  0  0  0
  3  6  2  0  0  0  0
  4  5  1  0  0  0  0
  5  8  1  0  0  0  0
  5  7  2  0  0  0  0
  6  7  1  0  0  0  0
  8  9  1  0  0  0  0
 10  1  1  0  0  0  0
 11 18  1  0  0  0  0
 12 13  1  0  0  0  0
 12 14  1  0  0  0  0
 13 11  1  0  0  0  0
 13 15  2  0  0  0  0
 14 17  1  0  0  0  0
 15 17  1  0  0  0  0
 15 19  1  0  0  0  0
 18 19  2  0  0  0  0
 18 10  1  0  0  0  0
 19 16  1  0  0  0  0
 20 12  1  0  0  0  0
 21 20  1  0  0  0  0
 22 21  1  0  0  0  0
 22 24  1  0  0  0  0
 24 25  2  0  0  0  0
 24 23  1  0  0  0  0
 26 27  1  0  0  0  0
 27 28  1  0  0  0  0
 30 29  1  6  0  0  0
 30 28  1  0  0  0  0
 30 40  1  0  0  0  0
 33 36  1  0  0  0  0
 33 42  1  1  0  0  0
 34 39  1  6  0  0  0
 34 40  1  0  0  0  0
 35 39  1  6  0  0  0
 35 34  1  0  0  0  0
 35 38  1  0  0  0  0
 36 47  1  0  0  0  0
 36 37  1  1  0  0  0
 38 33  1  0  0  0  0
 38 32  1  1  0  0  0
 40 31  1  1  0  0  0
 40 36  1  0  0  0  0
 42 41  1  6  0  0  0
 43 44  1  0  0  0  0
 43 42  1  0  0  0  0
 45 43  1  0  0  0  0
 45 44  1  0  0  0  0
 47 46  1  0  0  0  0
M  END
>  <MODEL>
8

>  <REMARK>
 VINA RESULT:      -6.2      4.160      6.632
  Name = 
  16 active torsions:
  status: ('A' for Active; 'I' for Inactive)
    1  A    between atoms: N_2  and  N_24
    2  A    between atoms: C_7  and  C_37
    3  A    between atoms: C_10  and  C_11
    4  A    between atoms: C_10  and  C_28
    5  A    between atoms: C_11  and  N_24
    6  A    between atoms: C_12  and  C_37
    7  A    between atoms: C_17  and  C_40
    8  A    between atoms: C_20  and  C_44
    9  A    between atoms: C_25  and  C_41
   10  A    between atoms: C_25  and  C_44
   11  A    between atoms: C_26  and  O_27
   12  A    between atoms: C_35  and  C_43
   13  A    between atoms: C_41  and  C_45
   14  A    between atoms: C_43  and  C_44
   15  A    between atoms: C_45  and  C_46
   16  A    between atoms: C_46  and  C_47
                            x       y       z     vdW  Elec       q    Type
                         _______ _______ _______ _____ _____    ______ ____

>  <TORSDO>
F 16

$$$$
=
 OpenBabel11072408373D

 47 52  0  0  1  0  0  0  0  0999 V2000
  193.8500  175.1240  144.1560 C   0  0  1  0  0  3  0  0  0  0  0  0
  196.2850  174.8530  144.7640 C   0  0  0  0  0  3  0  0  0  0  0  0
  197.3410  174.1020  145.2860 C   0  0  0  0  0  3  0  0  0  0  0  0
  194.9840  174.3240  144.7320 C   0  0  0  0  0  0  0  0  0  0  0  0
  194.7480  173.0260  145.2220 C   0  0  0  0  0  0  0  0  0  0  0  0
  197.1070  172.8160  145.7760 C   0  0  0  0  0  3  0  0  0  0  0  0
  195.8180  172.2800  145.7440 C   0  0  0  0  0  3  0  0  0  0  0  0
  193.4520  172.4990  145.1820 O   0  0  0  0  0  0  0  0  0  0  0  0
  193.1550  171.2260  144.6230 C   0  0  0  0  0  1  0  0  0  0  0  0
  193.6900  176.4830  144.8370 C   0  0  0  0  0  2  0  0  0  0  0  0
  191.2580  177.6380  143.8920 S   0  0  0  0  0  0  0  0  0  0  0  0
  188.5150  177.4960  144.6000 N   0  0  0  0  0  0  0  0  0  0  0  0
  189.8990  177.5430  144.8710 C   0  0  0  0  0  0  0  0  0  0  0  0
  187.8830  176.7460  145.6280 N   0  0  0  0  0  2  0  0  0  0  0  0
  190.1440  176.7910  145.9320 C   0  0  0  0  0  0  0  0  0  0  0  0
  191.9220  175.4760  147.1890 C   0  0  0  0  0  1  0  0  0  0  0  0
  188.9440  176.3390  146.4380 O   0  0  0  0  0  0  0  0  0  0  0  0
  192.2520  176.8500  145.0450 C   0  0  0  0  0  0  0  0  0  0  0  0
  191.4630  176.4000  146.1140 C   0  0  0  0  0  0  0  0  0  0  0  0
  188.0060  177.5440  143.2940 N   0  0  0  0  0  2  0  0  0  0  0  0
  186.7670  176.7820  143.2780 C   0  0  0  0  0  2  0  0  0  0  0  0
  185.7760  177.4200  142.3200 C   0  0  0  0  0  2  0  0  0  0  0  0
  183.4060  178.2910  142.3460 N   0  0  0  0  0  1  0  0  0  0  0  0
  184.5920  177.9470  143.0560 C   0  0  0  0  0  0  0  0  0  0  0  0
  184.6280  178.0640  144.3090 O   0  0  0  0  0  0  0  0  0  0  0  0
  193.8870  175.1840  142.6230 C   0  0  0  0  0  2  0  0  0  0  0  0
  193.2680  173.9650  141.9430 C   0  0  0  0  0  2  0  0  0  0  0  0
  191.7710  174.1390  141.7280 C   0  0  0  0  0  2  0  0  0  0  0  0
  190.3550  173.8350  143.7540 C   0  0  0  0  0  1  0  0  0  0  0  0
  190.9480  173.1350  142.5400 C   0  0  1  0  0  3  0  0  0  0  0  0
  188.7660  172.2560  142.4570 F   0  0  0  0  0  0  0  0  0  0  0  0
  189.9730  170.8890  137.9550 O   0  0  0  0  0  1  0  0  0  0  0  0
  190.6570  172.7740  139.3240 C   0  0  1  0  0  3  0  0  0  0  0  0
  190.3550  170.8190  141.5270 C   0  0  1  0  0  3  0  0  0  0  0  0
  190.7510  170.3030  140.1310 C   0  0  1  0  0  3  0  0  0  0  0  0
  189.5340  173.0170  140.3500 C   0  0  1  0  0  0  0  0  0  0  0  0
  188.2160  172.4560  139.8070 C   0  0  0  0  0  1  0  0  0  0  0  0
  190.8530  171.2900  138.9630 C   0  0  1  0  0  3  0  0  0  0  0  0
  191.8190  170.6110  141.1560 C   0  0  0  0  0  2  0  0  0  0  0  0
  189.9220  172.3100  141.6930 C   0  0  2  0  0  0  0  0  0  0  0  0
  189.5760  173.5680  137.2960 O   0  0  0  0  0  1  0  0  0  0  0  0
  190.6890  173.7390  138.1210 C   0  0  2  0  0  3  0  0  0  0  0  0
  191.9700  173.5800  137.3150 C   0  0  0  0  0  3  0  0  0  0  0  0
  192.6750  174.9190  137.2250 C   0  0  0  0  0  2  0  0  0  0  0  0
  193.1640  173.8700  138.2030 C   0  0  0  0  0  2  0  0  0  0  0  0
  188.0400  174.9370  140.2510 O   0  0  0  0  0  1  0  0  0  0  0  0
  189.3410  174.5330  140.5620 C   0  0  0  0  0  2  0  0  0  0  0  0
  1 26  1  6  0  0  0
  1  4  1  0  0  0  0
  1 10  1  0  0  0  0
  2  3  1  0  0  0  0
  3  6  2  0  0  0  0
  4  2  2  0  0  0  0
  4  5  1  0  0  0  0
  5  7  2  0  0  0  0
  7  6  1  0  0  0  0
  8  5  1  0  0  0  0
  9  8  1  0  0  0  0
 10 18  1  0  0  0  0
 11 13  1  0  0  0  0
 11 18  1  0  0  0  0
 12 13  1  0  0  0  0
 12 14  1  0  0  0  0
 13 15  2  0  0  0  0
 14 17  1  0  0  0  0
 15 19  1  0  0  0  0
 15 17  1  0  0  0  0
 18 19  2  0  0  0  0
 19 16  1  0  0  0  0
 20 12  1  0  0  0  0
 21 20  1  0  0  0  0
 22 24  1  0  0  0  0
 22 21  1  0  0  0  0
 23 24  1  0  0  0  0
 24 25  2  0  0  0  0
 27 26  1  0  0  0  0
 28 27  1  0  0  0  0
 28 30  1  0  0  0  0
 30 29  1  1  0  0  0
 33 42  1  6  0  0  0
 33 36  1  0  0  0  0
 34 39  1  1  0  0  0
 34 40  1  0  0  0  0
 35 39  1  1  0  0  0
 35 34  1  0  0  0  0
 36 37  1  6  0  0  0
 36 47  1  0  0  0  0
 36 40  1  0  0  0  0
 38 32  1  6  0  0  0
 38 33  1  0  0  0  0
 38 35  1  0  0  0  0
 40 31  1  1  0  0  0
 40 30  1  0  0  0  0
 42 41  1  6  0  0  0
 43 42  1  0  0  0  0
 43 45  1  0  0  0  0
 44 43  1  0  0  0  0
 44 45  1  0  0  0  0
 46 47  1  0  0  0  0
M  END
>  <MODEL>
9

>  <REMARK>
 VINA RESULT:      -6.2      3.012      6.323
  Name = 
  16 active torsions:
  status: ('A' for Active; 'I' for Inactive)
    1  A    between atoms: N_2  and  N_24
    2  A    between atoms: C_7  and  C_37
    3  A    between atoms: C_10  and  C_11
    4  A    between atoms: C_10  and  C_28
    5  A    between atoms: C_11  and  N_24
    6  A    between atoms: C_12  and  C_37
    7  A    between atoms: C_17  and  C_40
    8  A    between atoms: C_20  and  C_44
    9  A    between atoms: C_25  and  C_41
   10  A    between atoms: C_25  and  C_44
   11  A    between atoms: C_26  and  O_27
   12  A    between atoms: C_35  and  C_43
   13  A    between atoms: C_41  and  C_45
   14  A    between atoms: C_43  and  C_44
   15  A    between atoms: C_45  and  C_46
   16  A    between atoms: C_46  and  C_47
                            x       y       z     vdW  Elec       q    Type
                         _______ _______ _______ _____ _____    ______ ____

>  <TORSDO>
F 16

$$$$
