=
 OpenBabel11062418423D

 43 48  0  0  1  0  0  0  0  0999 V2000
  191.5450  176.8720  143.2200 C   0  0  0  0  0  2  0  0  0  0  0  0
  193.3680  175.2410  143.9130 C   0  0  1  0  0  3  0  0  0  0  0  0
  193.9480  174.4600  145.0950 C   0  0  2  0  0  3  0  0  0  0  0  0
  194.8730  175.3040  145.9760 C   0  0  0  0  0  2  0  0  0  0  0  0
  191.2420  175.5640  142.6460 N   0  0  1  0  0  0  0  0  0  0  0  0
  191.8520  176.3930  145.7770 C   0  0  0  0  0  0  0  0  0  0  0  0
  194.2670  176.6260  146.4610 C   0  0  0  0  0  2  0  0  0  0  0  0
  191.8870  174.9410  143.8040 C   0  0  2  0  0  3  0  0  0  0  0  0
  192.8180  176.4880  146.9310 C   0  0  0  0  0  2  0  0  0  0  0  0
  190.6540  176.4220  146.0110 O   0  0  0  0  0  0  0  0  0  0  0  0
  192.3430  176.2810  144.3520 C   0  0  1  0  0  0  0  0  0  0  0  0
  189.3210  174.2500  141.8310 C   0  0  1  0  0  3  0  0  0  0  0  0
  189.0520  176.5460  142.2440 C   0  0  0  0  0  2  0  0  0  0  0  0
  188.0720  174.6070  141.2790 O   0  0  0  0  0  0  0  0  0  0  0  0
  189.7960  175.3540  142.7580 C   0  0  2  0  0  3  0  0  0  0  0  0
  187.8080  175.9420  141.6400 C   0  0  1  0  0  3  0  0  0  0  0  0
  189.2080  172.9370  142.6070 C   0  0  0  0  0  2  0  0  0  0  0  0
  190.2050  171.8630  142.1700 C   0  0  0  0  0  3  0  0  0  0  0  0
  190.9910  172.2930  140.9510 C   0  0  0  0  0  1  0  0  0  0  0  0
  191.1420  171.4510  143.2910 C   0  0  0  0  0  1  0  0  0  0  0  0
  186.6720  175.9690  142.6550 C   0  0  0  0  0  2  0  0  0  0  0  0
  186.2200  178.1240  144.8700 C   0  0  0  0  0  0  0  0  0  0  0  0
  185.9400  179.2530  145.5460 N   0  0  0  0  0  0  0  0  0  0  0  0
  185.2840  179.9970  144.6290 C   0  0  0  0  0  3  0  0  0  0  0  0
  187.0160  176.8670  145.5590 S   0  0  0  0  0  0  0  0  0  0  0  0
  185.7620  178.1760  143.5990 N   0  0  0  0  0  0  0  0  0  0  0  0
  185.2810  177.4560  141.4350 O   0  0  0  0  0  0  0  0  0  0  0  0
  185.1720  179.3500  143.4510 N   0  0  0  0  0  2  0  0  0  0  0  0
  185.8580  177.2180  142.5290 C   0  0  0  0  0  0  0  0  0  0  0  0
  194.7240  173.2530  144.5950 C   0  0  0  0  0  2  0  0  0  0  0  0
  196.2020  173.5760  144.4060 C   0  0  0  0  0  2  0  0  0  0  0  0
  195.5360  173.0470  142.1980 O   0  0  0  0  0  1  0  0  0  0  0  0
  196.6590  173.3410  142.9710 C   0  0  1  0  0  3  0  0  0  0  0  0
  197.3850  174.5760  142.4120 C   0  0  2  0  0  3  0  0  0  0  0  0
  197.6110  175.5640  143.4700 N   0  0  0  0  0  2  0  0  0  0  0  0
  196.5520  175.2290  141.3190 C   0  0  1  0  0  3  0  0  0  0  0  0
  196.9480  176.7970  143.0680 C   0  0  0  0  0  2  0  0  0  0  0  0
  195.9770  176.4600  141.9640 C   0  0  0  0  0  2  0  0  0  0  0  0
  197.4480  175.6430  140.1600 C   0  0  0  0  0  2  0  0  0  0  0  0
  196.9130  175.1180  138.8750 C   0  0  0  0  0  0  0  0  0  0  0  0
  196.0200  174.2270  138.8880 O   0  0  0  0  0  0  0  0  0  0  0  0
  196.5950  175.6520  136.4940 C   0  0  0  0  0  1  0  0  0  0  0  0
  197.3860  175.6460  137.6710 O   0  0  0  0  0  0  0  0  0  0  0  0
  1 11  1  0  0  0  0
  2 11  1  0  0  0  0
  2  3  1  0  0  0  0
  3  4  1  0  0  0  0
  4  7  1  0  0  0  0
  5 15  1  0  0  0  0
  5  1  1  0  0  0  0
  5  8  1  0  0  0  0
  6 10  2  0  0  0  0
  6  9  1  0  0  0  0
  7  9  1  0  0  0  0
  8  2  1  0  0  0  0
  8 11  1  0  0  0  0
 11  6  1  0  0  0  0
 12 17  1  0  0  0  0
 12 15  1  0  0  0  0
 13 15  1  0  0  0  0
 14 16  1  0  0  0  0
 14 12  1  0  0  0  0
 16 13  1  0  0  0  0
 16 21  1  0  0  0  0
 18 17  1  0  0  0  0
 18 20  1  0  0  0  0
 19 18  1  0  0  0  0
 22 23  1  0  0  0  0
 22 25  2  0  0  0  0
 24 23  2  0  0  0  0
 26 22  1  0  0  0  0
 27 29  2  0  0  0  0
 28 26  1  0  0  0  0
 28 24  1  0  0  0  0
 29 21  1  0  0  0  0
 29 26  1  0  0  0  0
 30  3  1  0  0  0  0
 31 30  1  0  0  0  0
 32 33  1  0  0  0  0
 33 31  1  0  0  0  0
 34 33  1  0  0  0  0
 34 35  1  0  0  0  0
 36 38  1  0  0  0  0
 36 34  1  0  0  0  0
 37 35  1  0  0  0  0
 38 37  1  0  0  0  0
 39 36  1  0  0  0  0
 40 41  2  0  0  0  0
 40 39  1  0  0  0  0
 42 43  1  0  0  0  0
 43 40  1  0  0  0  0
M  END
>  <MODEL>
1

>  <REMARK>
 VINA RESULT:      -7.1      0.000      0.000
  Name = 
  12 active torsions:
  status: ('A' for Active; 'I' for Inactive)
    1  A    between atoms: C_2  and  C_13
    2  A    between atoms: C_2  and  O_29
    3  A    between atoms: C_5  and  C_15
    4  A    between atoms: C_5  and  C_22
    5  A    between atoms: C_10  and  C_19
    6  A    between atoms: C_11  and  C_27
    7  A    between atoms: C_13  and  C_16
    8  A    between atoms: C_15  and  C_27
    9  A    between atoms: C_17  and  C_19
   10  A    between atoms: C_21  and  C_40
   11  A    between atoms: C_21  and  C_43
   12  A    between atoms: N_24  and  C_41
                            x       y       z     vdW  Elec       q    Type
                         _______ _______ _______ _____ _____    ______ ____

>  <TORSDO>
F 12

$$$$
=
 OpenBabel11062418423D

 43 48  0  0  1  0  0  0  0  0999 V2000
  191.0630  178.0800  143.9350 C   0  0  0  0  0  2  0  0  0  0  0  0
  193.1560  176.8590  143.1680 C   0  0  1  0  0  3  0  0  0  0  0  0
  194.1380  175.7380  143.5230 C   0  0  2  0  0  3  0  0  0  0  0  0
  195.2010  176.1710  144.5360 C   0  0  0  0  0  2  0  0  0  0  0  0
  190.7260  177.2670  142.7710 N   0  0  1  0  0  0  0  0  0  0  0  0
  192.1720  176.3880  145.5990 C   0  0  0  0  0  0  0  0  0  0  0  0
  194.6480  176.8140  145.8120 C   0  0  0  0  0  2  0  0  0  0  0  0
  191.7460  176.3030  143.1880 C   0  0  2  0  0  3  0  0  0  0  0  0
  193.4270  176.0830  146.3760 C   0  0  0  0  0  2  0  0  0  0  0  0
  191.1030  175.9820  146.0280 O   0  0  0  0  0  0  0  0  0  0  0  0
  192.2180  177.1950  144.3220 C   0  0  1  0  0  0  0  0  0  0  0  0
  188.9250  175.8870  141.8050 C   0  0  1  0  0  3  0  0  0  0  0  0
  188.3670  177.7390  143.1350 C   0  0  0  0  0  2  0  0  0  0  0  0
  187.5380  176.0870  141.6410 O   0  0  0  0  0  0  0  0  0  0  0  0
  189.4080  176.6720  143.0100 C   0  0  2  0  0  3  0  0  0  0  0  0
  187.1390  177.0940  142.5400 C   0  0  1  0  0  3  0  0  0  0  0  0
  189.2320  174.4010  142.0000 C   0  0  0  0  0  2  0  0  0  0  0  0
  188.3230  173.4630  141.2040 C   0  0  0  0  0  3  0  0  0  0  0  0
  189.1060  172.6460  140.2000 C   0  0  0  0  0  1  0  0  0  0  0  0
  187.4950  172.5590  142.0980 C   0  0  0  0  0  1  0  0  0  0  0  0
  186.2920  176.4720  143.6430 C   0  0  0  0  0  2  0  0  0  0  0  0
  186.5640  177.5190  146.5730 C   0  0  0  0  0  0  0  0  0  0  0  0
  186.4890  178.2390  147.7070 N   0  0  0  0  0  0  0  0  0  0  0  0
  185.5090  179.1270  147.4360 C   0  0  0  0  0  3  0  0  0  0  0  0
  187.6190  176.2770  146.3930 S   0  0  0  0  0  0  0  0  0  0  0  0
  185.6740  177.9490  145.6500 N   0  0  0  0  0  0  0  0  0  0  0  0
  184.4790  178.0040  143.6490 O   0  0  0  0  0  0  0  0  0  0  0  0
  185.0110  178.9540  146.1940 N   0  0  0  0  0  2  0  0  0  0  0  0
  185.4250  177.4940  144.3070 C   0  0  0  0  0  0  0  0  0  0  0  0
  194.8370  175.2370  142.2710 C   0  0  0  0  0  2  0  0  0  0  0  0
  194.9040  173.7140  142.2380 C   0  0  0  0  0  2  0  0  0  0  0  0
  193.7100  172.5650  140.5490 O   0  0  0  0  0  1  0  0  0  0  0  0
  193.5730  173.0930  141.8320 C   0  0  1  0  0  3  0  0  0  0  0  0
  193.1510  171.9940  142.8210 C   0  0  2  0  0  3  0  0  0  0  0  0
  191.7770  171.5580  142.5530 N   0  0  0  0  0  2  0  0  0  0  0  0
  193.2140  172.5160  144.2490 C   0  0  1  0  0  3  0  0  0  0  0  0
  190.9970  171.7940  143.7600 C   0  0  0  0  0  2  0  0  0  0  0  0
  191.7790  172.7420  144.6360 C   0  0  0  0  0  2  0  0  0  0  0  0
  193.8180  171.4590  145.1630 C   0  0  0  0  0  2  0  0  0  0  0  0
  195.2280  171.8020  145.4950 C   0  0  0  0  0  0  0  0  0  0  0  0
  195.5510  173.0070  145.6770 O   0  0  0  0  0  0  0  0  0  0  0  0
  197.4880  170.8980  145.1360 C   0  0  0  0  0  1  0  0  0  0  0  0
  196.1660  170.7760  145.6340 O   0  0  0  0  0  0  0  0  0  0  0  0
  1 11  1  0  0  0  0
  2  8  1  0  0  0  0
  2  3  1  0  0  0  0
  2 11  1  0  0  0  0
  3  4  1  0  0  0  0
  4  7  1  0  0  0  0
  5 15  1  0  0  0  0
  5  8  1  0  0  0  0
  5  1  1  0  0  0  0
  6 10  2  0  0  0  0
  6  9  1  0  0  0  0
  7  9  1  0  0  0  0
  8 11  1  0  0  0  0
 11  6  1  0  0  0  0
 12 17  1  0  0  0  0
 12 15  1  0  0  0  0
 14 12  1  0  0  0  0
 14 16  1  0  0  0  0
 15 13  1  0  0  0  0
 16 13  1  0  0  0  0
 16 21  1  0  0  0  0
 18 17  1  0  0  0  0
 18 20  1  0  0  0  0
 19 18  1  0  0  0  0
 21 29  1  0  0  0  0
 22 23  1  0  0  0  0
 24 23  2  0  0  0  0
 25 22  2  0  0  0  0
 26 28  1  0  0  0  0
 26 22  1  0  0  0  0
 27 29  2  0  0  0  0
 28 24  1  0  0  0  0
 29 26  1  0  0  0  0
 30  3  1  0  0  0  0
 31 30  1  0  0  0  0
 32 33  1  0  0  0  0
 33 31  1  0  0  0  0
 33 34  1  0  0  0  0
 34 36  1  0  0  0  0
 35 34  1  0  0  0  0
 35 37  1  0  0  0  0
 36 38  1  0  0  0  0
 36 39  1  0  0  0  0
 37 38  1  0  0  0  0
 39 40  1  0  0  0  0
 40 43  1  0  0  0  0
 40 41  2  0  0  0  0
 42 43  1  0  0  0  0
M  END
>  <MODEL>
2

>  <REMARK>
 VINA RESULT:      -6.9      2.449      4.001
  Name = 
  12 active torsions:
  status: ('A' for Active; 'I' for Inactive)
    1  A    between atoms: C_2  and  C_13
    2  A    between atoms: C_2  and  O_29
    3  A    between atoms: C_5  and  C_15
    4  A    between atoms: C_5  and  C_22
    5  A    between atoms: C_10  and  C_19
    6  A    between atoms: C_11  and  C_27
    7  A    between atoms: C_13  and  C_16
    8  A    between atoms: C_15  and  C_27
    9  A    between atoms: C_17  and  C_19
   10  A    between atoms: C_21  and  C_40
   11  A    between atoms: C_21  and  C_43
   12  A    between atoms: N_24  and  C_41
                            x       y       z     vdW  Elec       q    Type
                         _______ _______ _______ _____ _____    ______ ____

>  <TORSDO>
F 12

$$$$
=
 OpenBabel11062418423D

 43 48  0  0  1  0  0  0  0  0999 V2000
  192.3750  176.0800  142.6600 C   0  0  0  0  0  2  0  0  0  0  0  0
  189.8590  175.7520  142.8230 C   0  0  1  0  0  3  0  0  0  0  0  0
  188.7300  174.7270  142.6810 C   0  0  2  0  0  3  0  0  0  0  0  0
  188.2990  174.5070  141.2290 C   0  0  0  0  0  2  0  0  0  0  0  0
  191.9870  176.1480  144.0650 N   0  0  1  0  0  0  0  0  0  0  0  0
  191.3790  173.8020  141.8310 C   0  0  0  0  0  0  0  0  0  0  0  0
  189.4410  174.1740  140.2640 C   0  0  0  0  0  2  0  0  0  0  0  0
  190.9010  175.2090  143.7800 C   0  0  2  0  0  3  0  0  0  0  0  0
  190.4410  173.1680  140.8360 C   0  0  0  0  0  2  0  0  0  0  0  0
  192.3160  173.1430  142.2570 O   0  0  0  0  0  0  0  0  0  0  0  0
  191.1880  175.2290  142.2890 C   0  0  1  0  0  0  0  0  0  0  0  0
  193.0000  175.8760  146.2970 C   0  0  1  0  0  3  0  0  0  0  0  0
  194.3790  175.8510  144.3980 C   0  0  0  0  0  2  0  0  0  0  0  0
  194.3260  175.9570  146.7720 O   0  0  0  0  0  0  0  0  0  0  0  0
  193.0110  175.4440  144.8430 C   0  0  2  0  0  3  0  0  0  0  0  0
  195.1880  175.7910  145.6710 C   0  0  1  0  0  3  0  0  0  0  0  0
  192.1940  174.8760  147.1280 C   0  0  0  0  0  2  0  0  0  0  0  0
  191.0330  175.4980  147.9050 C   0  0  0  0  0  3  0  0  0  0  0  0
  191.1110  177.0090  147.9120 C   0  0  0  0  0  1  0  0  0  0  0  0
  189.6800  175.0360  147.3960 C   0  0  0  0  0  1  0  0  0  0  0  0
  195.8850  174.4410  145.7810 C   0  0  0  0  0  2  0  0  0  0  0  0
  195.4060  172.0690  143.8080 C   0  0  0  0  0  0  0  0  0  0  0  0
  195.3890  171.2500  142.7400 N   0  0  0  0  0  0  0  0  0  0  0  0
  196.3540  171.7690  141.9490 C   0  0  0  0  0  3  0  0  0  0  0  0
  194.4060  171.8540  145.0890 S   0  0  0  0  0  0  0  0  0  0  0  0
  196.3340  173.0430  143.6760 N   0  0  0  0  0  0  0  0  0  0  0  0
  197.6420  174.8850  144.2480 O   0  0  0  0  0  0  0  0  0  0  0  0
  196.9290  172.8510  142.5110 N   0  0  0  0  0  2  0  0  0  0  0  0
  196.6770  174.1340  144.5490 C   0  0  0  0  0  0  0  0  0  0  0  0
  187.5190  175.1670  143.4860 C   0  0  0  0  0  2  0  0  0  0  0  0
  187.4620  176.6840  143.6290 C   0  0  0  0  0  2  0  0  0  0  0  0
  188.4590  177.3940  145.6540 O   0  0  0  0  0  1  0  0  0  0  0  0
  187.2230  177.1130  145.0720 C   0  0  1  0  0  3  0  0  0  0  0  0
  186.3070  178.3460  145.1380 C   0  0  2  0  0  3  0  0  0  0  0  0
  186.4120  178.9970  146.4480 N   0  0  0  0  0  2  0  0  0  0  0  0
  184.8570  177.9380  144.9240 C   0  0  1  0  0  3  0  0  0  0  0  0
  185.0830  179.0030  147.0430 C   0  0  0  0  0  2  0  0  0  0  0  0
  184.2370  178.0040  146.2920 C   0  0  0  0  0  2  0  0  0  0  0  0
  184.1640  178.9410  144.0110 C   0  0  0  0  0  2  0  0  0  0  0  0
  184.0770  178.4090  142.6240 C   0  0  0  0  0  0  0  0  0  0  0  0
  182.9510  178.1190  142.1370 O   0  0  0  0  0  0  0  0  0  0  0  0
  185.2240  178.2720  140.4520 C   0  0  0  0  0  1  0  0  0  0  0  0
  185.2450  178.2730  141.8700 O   0  0  0  0  0  0  0  0  0  0  0  0
  1  5  1  0  0  0  0
  2  8  1  0  0  0  0
  3  2  1  0  0  0  0
  3 30  1  0  0  0  0
  4  3  1  0  0  0  0
  5 15  1  0  0  0  0
  6 10  2  0  0  0  0
  6 11  1  0  0  0  0
  7  9  1  0  0  0  0
  7  4  1  0  0  0  0
  8  5  1  0  0  0  0
  9  6  1  0  0  0  0
 11  1  1  0  0  0  0
 11  2  1  0  0  0  0
 11  8  1  0  0  0  0
 12 14  1  0  0  0  0
 12 17  1  0  0  0  0
 13 15  1  0  0  0  0
 13 16  1  0  0  0  0
 15 12  1  0  0  0  0
 16 21  1  0  0  0  0
 16 14  1  0  0  0  0
 17 18  1  0  0  0  0
 18 19  1  0  0  0  0
 20 18  1  0  0  0  0
 22 25  2  0  0  0  0
 23 22  1  0  0  0  0
 24 28  1  0  0  0  0
 24 23  2  0  0  0  0
 26 22  1  0  0  0  0
 26 29  1  0  0  0  0
 27 29  2  0  0  0  0
 28 26  1  0  0  0  0
 29 21  1  0  0  0  0
 30 31  1  0  0  0  0
 31 33  1  0  0  0  0
 33 34  1  0  0  0  0
 33 32  1  0  0  0  0
 34 35  1  0  0  0  0
 35 37  1  0  0  0  0
 36 34  1  0  0  0  0
 36 38  1  0  0  0  0
 38 37  1  0  0  0  0
 39 36  1  0  0  0  0
 40 39  1  0  0  0  0
 41 40  2  0  0  0  0
 42 43  1  0  0  0  0
 43 40  1  0  0  0  0
M  END
>  <MODEL>
3

>  <REMARK>
 VINA RESULT:      -6.9      3.009      9.637
  Name = 
  12 active torsions:
  status: ('A' for Active; 'I' for Inactive)
    1  A    between atoms: C_2  and  C_13
    2  A    between atoms: C_2  and  O_29
    3  A    between atoms: C_5  and  C_15
    4  A    between atoms: C_5  and  C_22
    5  A    between atoms: C_10  and  C_19
    6  A    between atoms: C_11  and  C_27
    7  A    between atoms: C_13  and  C_16
    8  A    between atoms: C_15  and  C_27
    9  A    between atoms: C_17  and  C_19
   10  A    between atoms: C_21  and  C_40
   11  A    between atoms: C_21  and  C_43
   12  A    between atoms: N_24  and  C_41
                            x       y       z     vdW  Elec       q    Type
                         _______ _______ _______ _____ _____    ______ ____

>  <TORSDO>
F 12

$$$$
=
 OpenBabel11062418423D

 43 48  0  0  1  0  0  0  0  0999 V2000
  193.0170  172.7220  144.8180 C   0  0  0  0  0  2  0  0  0  0  0  0
  191.9970  174.6550  146.1180 C   0  0  1  0  0  3  0  0  0  0  0  0
  191.9290  176.1810  146.2210 C   0  0  2  0  0  3  0  0  0  0  0  0
  193.1220  176.7850  146.9660 C   0  0  0  0  0  2  0  0  0  0  0  0
  191.5920  172.7900  144.5090 N   0  0  1  0  0  0  0  0  0  0  0  0
  193.8960  175.1380  144.3130 C   0  0  0  0  0  0  0  0  0  0  0  0
  194.4940  176.3510  146.4410 C   0  0  0  0  0  2  0  0  0  0  0  0
  191.6500  174.2400  144.7020 C   0  0  2  0  0  3  0  0  0  0  0  0
  194.5800  176.3400  144.9140 C   0  0  0  0  0  2  0  0  0  0  0  0
  194.0130  174.9340  143.1150 O   0  0  0  0  0  0  0  0  0  0  0  0
  193.0930  174.1850  145.1680 C   0  0  1  0  0  0  0  0  0  0  0  0
  190.0250  172.8250  142.6050 C   0  0  1  0  0  3  0  0  0  0  0  0
  191.5580  171.0590  142.7990 C   0  0  0  0  0  2  0  0  0  0  0  0
  189.6260  171.8520  141.6650 O   0  0  0  0  0  0  0  0  0  0  0  0
  191.4350  172.5230  143.0760 C   0  0  2  0  0  3  0  0  0  0  0  0
  190.6100  170.8450  141.6450 C   0  0  1  0  0  3  0  0  0  0  0  0
  189.9750  174.2230  141.9840 C   0  0  0  0  0  2  0  0  0  0  0  0
  189.0420  175.1960  142.7040 C   0  0  0  0  0  3  0  0  0  0  0  0
  189.4880  176.6310  142.5290 C   0  0  0  0  0  1  0  0  0  0  0  0
  187.5940  175.0330  142.2810 C   0  0  0  0  0  1  0  0  0  0  0  0
  191.3700  170.9160  140.3270 C   0  0  0  0  0  2  0  0  0  0  0  0
  190.5180  172.1470  137.5860 C   0  0  0  0  0  0  0  0  0  0  0  0
  190.1290  172.3370  136.3120 N   0  0  0  0  0  2  0  0  0  0  0  0
  189.6940  171.1120  135.9450 C   0  0  0  0  0  3  0  0  0  0  0  0
  191.1260  173.3610  138.5040 S   0  0  0  0  0  0  0  0  0  0  0  0
  190.3340  170.8660  137.9790 N   0  0  0  0  0  0  0  0  0  0  0  0
  190.2950  169.0160  139.3950 O   0  0  0  0  0  0  0  0  0  0  0  0
  189.8140  170.2200  136.9500 N   0  0  0  0  0  0  0  0  0  0  0  0
  190.6280  170.2190  139.2300 C   0  0  0  0  0  0  0  0  0  0  0  0
  190.6510  176.6020  146.9270 C   0  0  0  0  0  2  0  0  0  0  0  0
  189.7130  177.3510  145.9870 C   0  0  0  0  0  2  0  0  0  0  0  0
  188.1980  175.8860  147.0630 O   0  0  0  0  0  1  0  0  0  0  0  0
  188.3160  176.7410  145.9680 C   0  0  1  0  0  3  0  0  0  0  0  0
  187.2350  177.8320  146.0220 C   0  0  2  0  0  3  0  0  0  0  0  0
  186.8500  178.1100  147.4090 N   0  0  0  0  0  2  0  0  0  0  0  0
  185.9940  177.3830  145.2640 C   0  0  1  0  0  3  0  0  0  0  0  0
  185.4230  177.8480  147.5300 C   0  0  0  0  0  2  0  0  0  0  0  0
  185.0020  177.0260  146.3360 C   0  0  0  0  0  2  0  0  0  0  0  0
  185.4430  178.5370  144.4370 C   0  0  0  0  0  2  0  0  0  0  0  0
  185.7170  178.3180  142.9910 C   0  0  0  0  0  0  0  0  0  0  0  0
  186.8030  178.7220  142.4930 O   0  0  0  0  0  0  0  0  0  0  0  0
  183.5130  178.1980  141.9030 C   0  0  0  0  0  1  0  0  0  0  0  0
  184.7780  177.6360  142.2140 O   0  0  0  0  0  0  0  0  0  0  0  0
  1 11  1  0  0  0  0
  2  3  1  0  0  0  0
  3 30  1  0  0  0  0
  3  4  1  0  0  0  0
  5  8  1  0  0  0  0
  5  1  1  0  0  0  0
  6  9  1  0  0  0  0
  6 11  1  0  0  0  0
  7  4  1  0  0  0  0
  8 11  1  0  0  0  0
  8  2  1  0  0  0  0
  9  7  1  0  0  0  0
 10  6  2  0  0  0  0
 11  2  1  0  0  0  0
 12 15  1  0  0  0  0
 13 15  1  0  0  0  0
 14 12  1  0  0  0  0
 15  5  1  0  0  0  0
 16 14  1  0  0  0  0
 16 13  1  0  0  0  0
 17 12  1  0  0  0  0
 17 18  1  0  0  0  0
 19 18  1  0  0  0  0
 20 18  1  0  0  0  0
 21 16  1  0  0  0  0
 22 26  1  0  0  0  0
 22 25  2  0  0  0  0
 23 22  1  0  0  0  0
 24 23  1  0  0  0  0
 24 28  2  0  0  0  0
 26 29  1  0  0  0  0
 28 26  1  0  0  0  0
 29 27  2  0  0  0  0
 29 21  1  0  0  0  0
 31 30  1  0  0  0  0
 33 31  1  0  0  0  0
 33 34  1  0  0  0  0
 33 32  1  0  0  0  0
 34 35  1  0  0  0  0
 35 37  1  0  0  0  0
 36 34  1  0  0  0  0
 36 38  1  0  0  0  0
 38 37  1  0  0  0  0
 39 36  1  0  0  0  0
 40 39  1  0  0  0  0
 41 40  2  0  0  0  0
 42 43  1  0  0  0  0
 43 40  1  0  0  0  0
M  END
>  <MODEL>
4

>  <REMARK>
 VINA RESULT:      -6.9      3.366      8.420
  Name = 
  12 active torsions:
  status: ('A' for Active; 'I' for Inactive)
    1  A    between atoms: C_2  and  C_13
    2  A    between atoms: C_2  and  O_29
    3  A    between atoms: C_5  and  C_15
    4  A    between atoms: C_5  and  C_22
    5  A    between atoms: C_10  and  C_19
    6  A    between atoms: C_11  and  C_27
    7  A    between atoms: C_13  and  C_16
    8  A    between atoms: C_15  and  C_27
    9  A    between atoms: C_17  and  C_19
   10  A    between atoms: C_21  and  C_40
   11  A    between atoms: C_21  and  C_43
   12  A    between atoms: N_24  and  C_41
                            x       y       z     vdW  Elec       q    Type
                         _______ _______ _______ _____ _____    ______ ____

>  <TORSDO>
F 12

$$$$
=
 OpenBabel11062418423D

 43 48  0  0  1  0  0  0  0  0999 V2000
  190.7390  177.6410  143.4640 C   0  0  0  0  0  2  0  0  0  0  0  0
  191.8540  175.5140  144.3000 C   0  0  1  0  0  3  0  0  0  0  0  0
  191.9160  174.5230  145.4660 C   0  0  2  0  0  3  0  0  0  0  0  0
  192.8010  175.0070  146.6180 C   0  0  0  0  0  2  0  0  0  0  0  0
  190.2430  176.5160  142.6780 N   0  0  1  0  0  0  0  0  0  0  0  0
  190.3070  176.9270  145.9480 C   0  0  0  0  0  0  0  0  0  0  0  0
  192.4710  176.4120  147.1340 C   0  0  0  0  0  2  0  0  0  0  0  0
  190.4130  175.6600  143.8540 C   0  0  2  0  0  3  0  0  0  0  0  0
  190.9690  176.6650  147.2770 C   0  0  0  0  0  2  0  0  0  0  0  0
  189.1390  177.2820  145.9340 O   0  0  0  0  0  0  0  0  0  0  0  0
  191.0680  176.7730  144.6510 C   0  0  1  0  0  0  0  0  0  0  0  0
  188.2580  175.7700  141.4190 C   0  0  1  0  0  3  0  0  0  0  0  0
  188.5570  178.0590  141.8430 C   0  0  0  0  0  2  0  0  0  0  0  0
  187.3110  176.4460  140.6210 O   0  0  0  0  0  0  0  0  0  0  0  0
  188.8070  176.7220  142.4650 C   0  0  2  0  0  3  0  0  0  0  0  0
  187.3570  177.8110  140.9620 C   0  0  1  0  0  3  0  0  0  0  0  0
  187.6160  174.5630  142.1050 C   0  0  0  0  0  2  0  0  0  0  0  0
  188.1890  173.2150  141.6660 C   0  0  0  0  0  3  0  0  0  0  0  0
  188.9750  173.3330  140.3790 C   0  0  0  0  0  1  0  0  0  0  0  0
  189.0310  172.5630  142.7470 C   0  0  0  0  0  1  0  0  0  0  0  0
  186.0810  178.1840  141.7060 C   0  0  0  0  0  2  0  0  0  0  0  0
  183.1100  178.6670  142.5390 C   0  0  0  0  0  0  0  0  0  0  0  0
  181.7820  178.8860  142.5480 N   0  0  0  0  0  0  0  0  0  0  0  0
  181.4260  178.6230  141.2720 C   0  0  0  0  0  3  0  0  0  0  0  0
  184.0330  178.8400  143.8820 S   0  0  0  0  0  0  0  0  0  0  0  0
  183.5460  178.2910  141.3150 N   0  0  0  0  0  0  0  0  0  0  0  0
  185.0290  177.5770  139.6660 O   0  0  0  0  0  0  0  0  0  0  0  0
  182.4880  178.2610  140.5230 N   0  0  0  0  0  2  0  0  0  0  0  0
  184.8710  177.9830  140.8480 C   0  0  0  0  0  0  0  0  0  0  0  0
  192.4390  173.1800  144.9840 C   0  0  0  0  0  2  0  0  0  0  0  0
  193.4500  173.3450  143.8550 C   0  0  0  0  0  2  0  0  0  0  0  0
  194.1760  171.5140  142.5430 O   0  0  0  0  0  1  0  0  0  0  0  0
  194.3990  172.1560  143.7600 C   0  0  1  0  0  3  0  0  0  0  0  0
  195.8650  172.6080  143.8670 C   0  0  2  0  0  3  0  0  0  0  0  0
  196.6360  171.6670  144.6850 N   0  0  0  0  0  2  0  0  0  0  0  0
  195.9470  173.9820  144.5160 C   0  0  1  0  0  3  0  0  0  0  0  0
  197.1870  172.4120  145.8090 C   0  0  0  0  0  2  0  0  0  0  0  0
  196.4330  173.7140  145.9140 C   0  0  0  0  0  2  0  0  0  0  0  0
  196.9700  174.8410  143.7860 C   0  0  0  0  0  2  0  0  0  0  0  0
  196.3360  176.0870  143.2770 C   0  0  0  0  0  0  0  0  0  0  0  0
  196.9880  177.1670  143.2840 O   0  0  0  0  0  0  0  0  0  0  0  0
  194.7710  176.1790  141.3820 C   0  0  0  0  0  1  0  0  0  0  0  0
  195.0380  176.0340  142.7670 O   0  0  0  0  0  0  0  0  0  0  0  0
  1 11  1  0  0  0  0
  2 11  1  0  0  0  0
  2  3  1  0  0  0  0
  3  4  1  0  0  0  0
  4  7  1  0  0  0  0
  5  1  1  0  0  0  0
  5  8  1  0  0  0  0
  6  9  1  0  0  0  0
  7  9  1  0  0  0  0
  8  2  1  0  0  0  0
  8 11  1  0  0  0  0
 10  6  2  0  0  0  0
 11  6  1  0  0  0  0
 12 17  1  0  0  0  0
 12 15  1  0  0  0  0
 13 15  1  0  0  0  0
 14 16  1  0  0  0  0
 14 12  1  0  0  0  0
 15  5  1  0  0  0  0
 16 21  1  0  0  0  0
 16 13  1  0  0  0  0
 18 17  1  0  0  0  0
 18 20  1  0  0  0  0
 19 18  1  0  0  0  0
 22 23  1  0  0  0  0
 22 25  2  0  0  0  0
 24 23  2  0  0  0  0
 26 22  1  0  0  0  0
 27 29  2  0  0  0  0
 28 24  1  0  0  0  0
 28 26  1  0  0  0  0
 29 26  1  0  0  0  0
 29 21  1  0  0  0  0
 30  3  1  0  0  0  0
 31 30  1  0  0  0  0
 32 33  1  0  0  0  0
 33 31  1  0  0  0  0
 33 34  1  0  0  0  0
 34 36  1  0  0  0  0
 34 35  1  0  0  0  0
 35 37  1  0  0  0  0
 36 38  1  0  0  0  0
 37 38  1  0  0  0  0
 39 36  1  0  0  0  0
 40 41  2  0  0  0  0
 40 39  1  0  0  0  0
 42 43  1  0  0  0  0
 43 40  1  0  0  0  0
M  END
>  <MODEL>
5

>  <REMARK>
 VINA RESULT:      -6.8      2.500      3.182
  Name = 
  12 active torsions:
  status: ('A' for Active; 'I' for Inactive)
    1  A    between atoms: C_2  and  C_13
    2  A    between atoms: C_2  and  O_29
    3  A    between atoms: C_5  and  C_15
    4  A    between atoms: C_5  and  C_22
    5  A    between atoms: C_10  and  C_19
    6  A    between atoms: C_11  and  C_27
    7  A    between atoms: C_13  and  C_16
    8  A    between atoms: C_15  and  C_27
    9  A    between atoms: C_17  and  C_19
   10  A    between atoms: C_21  and  C_40
   11  A    between atoms: C_21  and  C_43
   12  A    between atoms: N_24  and  C_41
                            x       y       z     vdW  Elec       q    Type
                         _______ _______ _______ _____ _____    ______ ____

>  <TORSDO>
F 12

$$$$
=
 OpenBabel11062418423D

 43 48  0  0  1  0  0  0  0  0999 V2000
  192.0900  173.1860  144.8030 C   0  0  0  0  0  2  0  0  0  0  0  0
  190.4710  175.1090  145.1870 C   0  0  1  0  0  3  0  0  0  0  0  0
  190.3760  176.6040  145.5030 C   0  0  2  0  0  3  0  0  0  0  0  0
  190.5280  176.9140  146.9940 C   0  0  0  0  0  2  0  0  0  0  0  0
  191.4620  173.5260  143.5300 N   0  0  1  0  0  0  0  0  0  0  0  0
  193.0700  175.4590  145.6620 C   0  0  0  0  0  0  0  0  0  0  0  0
  191.7760  176.3130  147.6500 C   0  0  0  0  0  2  0  0  0  0  0  0
  191.3710  174.9160  143.9830 C   0  0  2  0  0  3  0  0  0  0  0  0
  193.0360  176.4550  146.7930 C   0  0  0  0  0  2  0  0  0  0  0  0
  194.0850  175.3700  144.9880 O   0  0  0  0  0  0  0  0  0  0  0  0
  191.8850  174.5680  145.3670 C   0  0  1  0  0  0  0  0  0  0  0  0
  192.0040  172.6790  141.2790 C   0  0  1  0  0  3  0  0  0  0  0  0
  193.6440  172.6140  142.9580 C   0  0  0  0  0  2  0  0  0  0  0  0
  193.0540  171.8830  140.7740 O   0  0  0  0  0  0  0  0  0  0  0  0
  192.4940  173.4490  142.4920 C   0  0  2  0  0  3  0  0  0  0  0  0
  194.1200  171.9460  141.6910 C   0  0  1  0  0  3  0  0  0  0  0  0
  191.5120  173.6570  140.2100 C   0  0  0  0  0  2  0  0  0  0  0  0
  190.2570  173.1970  139.4700 C   0  0  0  0  0  3  0  0  0  0  0  0
  190.5390  172.9210  138.0090 C   0  0  0  0  0  1  0  0  0  0  0  0
  189.6050  171.9930  140.1240 C   0  0  0  0  0  1  0  0  0  0  0  0
  195.2610  172.7490  141.0770 C   0  0  0  0  0  2  0  0  0  0  0  0
  195.9800  175.6790  141.8830 C   0  0  0  0  0  0  0  0  0  0  0  0
  196.4110  176.7820  142.5220 N   0  0  0  0  0  2  0  0  0  0  0  0
  197.1880  176.2760  143.5040 C   0  0  0  0  0  3  0  0  0  0  0  0
  194.9930  175.7550  140.5760 S   0  0  0  0  0  0  0  0  0  0  0  0
  196.4670  174.5520  142.4490 N   0  0  0  0  0  0  0  0  0  0  0  0
  196.8810  172.2780  142.7470 O   0  0  0  0  0  0  0  0  0  0  0  0
  197.2270  174.9290  143.4630 N   0  0  0  0  0  0  0  0  0  0  0  0
  196.2530  173.1690  142.1160 C   0  0  0  0  0  0  0  0  0  0  0  0
  189.0420  177.1560  145.0270 C   0  0  0  0  0  2  0  0  0  0  0  0
  187.9020  176.1830  145.3060 C   0  0  0  0  0  2  0  0  0  0  0  0
  186.3400  177.2130  146.7550 O   0  0  0  0  0  1  0  0  0  0  0  0
  186.5580  176.8950  145.4160 C   0  0  1  0  0  3  0  0  0  0  0  0
  186.5330  178.1660  144.5520 C   0  0  2  0  0  3  0  0  0  0  0  0
  185.9150  179.2750  145.2840 N   0  0  0  0  0  2  0  0  0  0  0  0
  185.7280  177.9260  143.2830 C   0  0  1  0  0  3  0  0  0  0  0  0
  184.7640  179.7230  144.5140 C   0  0  0  0  0  2  0  0  0  0  0  0
  184.4270  178.6420  143.5170 C   0  0  0  0  0  2  0  0  0  0  0  0
  186.4370  178.5530  142.0910 C   0  0  0  0  0  2  0  0  0  0  0  0
  187.6300  177.7490  141.7110 C   0  0  0  0  0  0  0  0  0  0  0  0
  188.7740  178.2780  141.7360 O   0  0  0  0  0  0  0  0  0  0  0  0
  188.4010  175.4130  141.7540 C   0  0  0  0  0  1  0  0  0  0  0  0
  187.4660  176.4060  141.3650 O   0  0  0  0  0  0  0  0  0  0  0  0
  1 11  1  0  0  0  0
  2 11  1  0  0  0  0
  2  3  1  0  0  0  0
  3  4  1  0  0  0  0
  4  7  1  0  0  0  0
  5  8  1  0  0  0  0
  5  1  1  0  0  0  0
  6  9  1  0  0  0  0
  8  2  1  0  0  0  0
  8 11  1  0  0  0  0
  9  7  1  0  0  0  0
 10  6  2  0  0  0  0
 11  6  1  0  0  0  0
 12 15  1  0  0  0  0
 14 12  1  0  0  0  0
 14 16  1  0  0  0  0
 15 13  1  0  0  0  0
 15  5  1  0  0  0  0
 16 13  1  0  0  0  0
 17 12  1  0  0  0  0
 18 20  1  0  0  0  0
 18 17  1  0  0  0  0
 19 18  1  0  0  0  0
 21 16  1  0  0  0  0
 21 29  1  0  0  0  0
 22 26  1  0  0  0  0
 22 23  1  0  0  0  0
 23 24  1  0  0  0  0
 25 22  2  0  0  0  0
 26 28  1  0  0  0  0
 28 24  2  0  0  0  0
 29 26  1  0  0  0  0
 29 27  2  0  0  0  0
 30 31  1  0  0  0  0
 30  3  1  0  0  0  0
 31 33  1  0  0  0  0
 33 32  1  0  0  0  0
 34 35  1  0  0  0  0
 34 33  1  0  0  0  0
 36 38  1  0  0  0  0
 36 34  1  0  0  0  0
 37 35  1  0  0  0  0
 38 37  1  0  0  0  0
 39 36  1  0  0  0  0
 40 41  2  0  0  0  0
 40 39  1  0  0  0  0
 43 40  1  0  0  0  0
 43 42  1  0  0  0  0
M  END
>  <MODEL>
6

>  <REMARK>
 VINA RESULT:      -6.7      2.634      8.412
  Name = 
  12 active torsions:
  status: ('A' for Active; 'I' for Inactive)
    1  A    between atoms: C_2  and  C_13
    2  A    between atoms: C_2  and  O_29
    3  A    between atoms: C_5  and  C_15
    4  A    between atoms: C_5  and  C_22
    5  A    between atoms: C_10  and  C_19
    6  A    between atoms: C_11  and  C_27
    7  A    between atoms: C_13  and  C_16
    8  A    between atoms: C_15  and  C_27
    9  A    between atoms: C_17  and  C_19
   10  A    between atoms: C_21  and  C_40
   11  A    between atoms: C_21  and  C_43
   12  A    between atoms: N_24  and  C_41
                            x       y       z     vdW  Elec       q    Type
                         _______ _______ _______ _____ _____    ______ ____

>  <TORSDO>
F 12

$$$$
=
 OpenBabel11062418423D

 43 48  0  0  1  0  0  0  0  0999 V2000
  189.2760  173.2550  143.4670 C   0  0  0  0  0  2  0  0  0  0  0  0
  191.4810  172.4040  142.5280 C   0  0  1  0  0  3  0  0  0  0  0  0
  192.3750  172.3880  141.2850 C   0  0  2  0  0  3  0  0  0  0  0  0
  191.9490  171.3390  140.2540 C   0  0  0  0  0  2  0  0  0  0  0  0
  190.3660  173.9860  144.1060 N   0  0  1  0  0  0  0  0  0  0  0  0
  189.7160  173.5630  140.9020 C   0  0  0  0  0  0  0  0  0  0  0  0
  190.4740  171.4040  139.8440 C   0  0  0  0  0  2  0  0  0  0  0  0
  191.1440  173.8410  142.8730 C   0  0  2  0  0  3  0  0  0  0  0  0
  189.9750  172.8310  139.6100 C   0  0  0  0  0  2  0  0  0  0  0  0
  189.1820  174.6610  140.8580 O   0  0  0  0  0  0  0  0  0  0  0  0
  190.0900  172.9560  142.2350 C   0  0  1  0  0  0  0  0  0  0  0  0
  190.5460  176.0380  145.4610 C   0  0  1  0  0  3  0  0  0  0  0  0
  188.4830  175.4770  144.4910 C   0  0  0  0  0  2  0  0  0  0  0  0
  189.5900  176.8970  146.0430 O   0  0  0  0  0  0  0  0  0  0  0  0
  189.9520  175.3860  144.2250 C   0  0  2  0  0  3  0  0  0  0  0  0
  188.3670  176.6950  145.3750 C   0  0  1  0  0  3  0  0  0  0  0  0
  191.8050  176.8190  145.0780 C   0  0  0  0  0  2  0  0  0  0  0  0
  193.1130  176.1240  145.4590 C   0  0  0  0  0  3  0  0  0  0  0  0
  194.1490  177.1130  145.9470 C   0  0  0  0  0  1  0  0  0  0  0  0
  192.9080  175.0200  146.4790 C   0  0  0  0  0  1  0  0  0  0  0  0
  188.0490  177.9220  144.5320 C   0  0  0  0  0  2  0  0  0  0  0  0
  186.1260  177.9850  142.0720 C   0  0  0  0  0  0  0  0  0  0  0  0
  185.0500  177.9780  141.2630 N   0  0  0  0  0  2  0  0  0  0  0  0
  184.0280  178.1810  142.1210 C   0  0  0  0  0  3  0  0  0  0  0  0
  187.6500  177.7870  141.5010 S   0  0  0  0  0  0  0  0  0  0  0  0
  185.7770  178.1800  143.3640 N   0  0  0  0  0  0  0  0  0  0  0  0
  186.0410  178.5060  145.6560 O   0  0  0  0  0  0  0  0  0  0  0  0
  184.4620  178.3060  143.3920 N   0  0  0  0  0  0  0  0  0  0  0  0
  186.5860  178.2350  144.5530 C   0  0  0  0  0  0  0  0  0  0  0  0
  193.8170  172.1210  141.6810 C   0  0  0  0  0  2  0  0  0  0  0  0
  193.9040  171.3180  142.9740 C   0  0  0  0  0  2  0  0  0  0  0  0
  194.0120  171.4750  145.3330 O   0  0  0  0  0  1  0  0  0  0  0  0
  194.2720  172.1940  144.1660 C   0  0  1  0  0  3  0  0  0  0  0  0
  195.7510  172.6090  144.1120 C   0  0  2  0  0  3  0  0  0  0  0  0
  196.5300  171.8760  145.1140 N   0  0  0  0  0  2  0  0  0  0  0  0
  195.8920  174.0980  144.3950 C   0  0  1  0  0  3  0  0  0  0  0  0
  197.1420  172.8570  145.9990 C   0  0  0  0  0  2  0  0  0  0  0  0
  196.4240  174.1700  145.7990 C   0  0  0  0  0  2  0  0  0  0  0  0
  196.9070  174.7150  143.4420 C   0  0  0  0  0  2  0  0  0  0  0  0
  196.4320  176.0400  142.9610 C   0  0  0  0  0  0  0  0  0  0  0  0
  196.7950  177.0890  143.5600 O   0  0  0  0  0  0  0  0  0  0  0  0
  194.2190  175.8650  141.9000 C   0  0  0  0  0  1  0  0  0  0  0  0
  195.6150  176.1030  141.8300 O   0  0  0  0  0  0  0  0  0  0  0  0
  1  5  1  0  0  0  0
  2  8  1  0  0  0  0
  3 30  1  0  0  0  0
  3  2  1  0  0  0  0
  4  3  1  0  0  0  0
  5 15  1  0  0  0  0
  6 11  1  0  0  0  0
  7  4  1  0  0  0  0
  8  5  1  0  0  0  0
  9  7  1  0  0  0  0
  9  6  1  0  0  0  0
 10  6  2  0  0  0  0
 11  2  1  0  0  0  0
 11  8  1  0  0  0  0
 11  1  1  0  0  0  0
 12 14  1  0  0  0  0
 13 16  1  0  0  0  0
 15 13  1  0  0  0  0
 15 12  1  0  0  0  0
 16 14  1  0  0  0  0
 17 18  1  0  0  0  0
 17 12  1  0  0  0  0
 18 19  1  0  0  0  0
 18 20  1  0  0  0  0
 21 29  1  0  0  0  0
 21 16  1  0  0  0  0
 22 26  1  0  0  0  0
 23 22  1  0  0  0  0
 23 24  1  0  0  0  0
 24 28  2  0  0  0  0
 25 22  2  0  0  0  0
 26 28  1  0  0  0  0
 26 29  1  0  0  0  0
 29 27  2  0  0  0  0
 30 31  1  0  0  0  0
 31 33  1  0  0  0  0
 33 32  1  0  0  0  0
 34 33  1  0  0  0  0
 34 36  1  0  0  0  0
 34 35  1  0  0  0  0
 35 37  1  0  0  0  0
 36 38  1  0  0  0  0
 38 37  1  0  0  0  0
 39 36  1  0  0  0  0
 40 39  1  0  0  0  0
 40 41  2  0  0  0  0
 43 42  1  0  0  0  0
 43 40  1  0  0  0  0
M  END
>  <MODEL>
7

>  <REMARK>
 VINA RESULT:      -6.7      2.358      4.642
  Name = 
  12 active torsions:
  status: ('A' for Active; 'I' for Inactive)
    1  A    between atoms: C_2  and  C_13
    2  A    between atoms: C_2  and  O_29
    3  A    between atoms: C_5  and  C_15
    4  A    between atoms: C_5  and  C_22
    5  A    between atoms: C_10  and  C_19
    6  A    between atoms: C_11  and  C_27
    7  A    between atoms: C_13  and  C_16
    8  A    between atoms: C_15  and  C_27
    9  A    between atoms: C_17  and  C_19
   10  A    between atoms: C_21  and  C_40
   11  A    between atoms: C_21  and  C_43
   12  A    between atoms: N_24  and  C_41
                            x       y       z     vdW  Elec       q    Type
                         _______ _______ _______ _____ _____    ______ ____

>  <TORSDO>
F 12

$$$$
=
 OpenBabel11062418423D

 43 48  0  0  1  0  0  0  0  0999 V2000
  192.6300  174.9580  141.6100 C   0  0  0  0  0  2  0  0  0  0  0  0
  190.9030  176.3500  142.8530 C   0  0  1  0  0  3  0  0  0  0  0  0
  189.6600  176.2760  143.7430 C   0  0  2  0  0  3  0  0  0  0  0  0
  188.3690  176.0420  142.9530 C   0  0  0  0  0  2  0  0  0  0  0  0
  193.2780  175.5880  142.7560 N   0  0  1  0  0  0  0  0  0  0  0  0
  190.5680  173.7140  142.6450 C   0  0  0  0  0  0  0  0  0  0  0  0
  188.4090  174.8430  142.0000 C   0  0  0  0  0  2  0  0  0  0  0  0
  192.0050  175.5160  143.4760 C   0  0  2  0  0  3  0  0  0  0  0  0
  189.0650  173.6050  142.6140 C   0  0  0  0  0  2  0  0  0  0  0  0
  191.2210  172.7380  142.9790 O   0  0  0  0  0  0  0  0  0  0  0  0
  191.2690  174.9960  142.2550 C   0  0  1  0  0  0  0  0  0  0  0  0
  195.1060  175.2440  144.3750 C   0  0  1  0  0  3  0  0  0  0  0  0
  195.1640  174.1140  142.3180 C   0  0  0  0  0  2  0  0  0  0  0  0
  196.3970  174.6830  144.2680 O   0  0  0  0  0  0  0  0  0  0  0  0
  194.1930  174.6060  143.3440 C   0  0  2  0  0  3  0  0  0  0  0  0
  196.4200  173.8710  143.1190 C   0  0  1  0  0  3  0  0  0  0  0  0
  194.5380  175.0190  145.7770 C   0  0  0  0  0  2  0  0  0  0  0  0
  194.2060  176.3060  146.5330 C   0  0  0  0  0  3  0  0  0  0  0  0
  194.5940  177.5350  145.7410 C   0  0  0  0  0  1  0  0  0  0  0  0
  192.7480  176.3760  146.9460 C   0  0  0  0  0  1  0  0  0  0  0  0
  196.4920  172.4100  143.5410 C   0  0  0  0  0  2  0  0  0  0  0  0
  194.1720  170.3700  143.0870 C   0  0  0  0  0  0  0  0  0  0  0  0
  193.2810  169.5120  142.5550 N   0  0  0  0  0  0  0  0  0  0  0  0
  193.8000  169.2580  141.3350 C   0  0  0  0  0  3  0  0  0  0  0  0
  194.0000  170.9830  144.5970 S   0  0  0  0  0  0  0  0  0  0  0  0
  195.1860  170.6300  142.2310 N   0  0  0  0  0  0  0  0  0  0  0  0
  197.1950  171.5200  141.4550 O   0  0  0  0  0  0  0  0  0  0  0  0
  194.9530  169.9290  141.1350 N   0  0  0  0  0  2  0  0  0  0  0  0
  196.3280  171.4940  142.3690 C   0  0  0  0  0  0  0  0  0  0  0  0
  189.5120  177.5590  144.5450 C   0  0  0  0  0  2  0  0  0  0  0  0
  189.1820  177.2720  146.0050 C   0  0  0  0  0  2  0  0  0  0  0  0
  187.5720  176.3460  147.4720 O   0  0  0  0  0  1  0  0  0  0  0  0
  187.7190  176.8850  146.1950 C   0  0  1  0  0  3  0  0  0  0  0  0
  186.7980  178.1030  146.0180 C   0  0  2  0  0  3  0  0  0  0  0  0
  186.2970  178.5640  147.3160 N   0  0  0  0  0  2  0  0  0  0  0  0
  185.6030  177.7390  145.1480 C   0  0  1  0  0  3  0  0  0  0  0  0
  184.8430  178.4960  147.2750 C   0  0  0  0  0  2  0  0  0  0  0  0
  184.4550  177.6180  146.1110 C   0  0  0  0  0  2  0  0  0  0  0  0
  185.3150  178.8640  144.1640 C   0  0  0  0  0  2  0  0  0  0  0  0
  184.3520  178.4120  143.1240 C   0  0  0  0  0  0  0  0  0  0  0  0
  183.1620  178.8290  143.1520 O   0  0  0  0  0  0  0  0  0  0  0  0
  185.7300  177.9760  141.1330 C   0  0  0  0  0  1  0  0  0  0  0  0
  184.7910  177.5580  142.1100 O   0  0  0  0  0  0  0  0  0  0  0  0
  1 11  1  0  0  0  0
  1  5  1  0  0  0  0
  2  8  1  0  0  0  0
  2  3  1  0  0  0  0
  3 30  1  0  0  0  0
  4  3  1  0  0  0  0
  5 15  1  0  0  0  0
  5  8  1  0  0  0  0
  6 10  2  0  0  0  0
  7  9  1  0  0  0  0
  7  4  1  0  0  0  0
  9  6  1  0  0  0  0
 11  6  1  0  0  0  0
 11  2  1  0  0  0  0
 11  8  1  0  0  0  0
 12 17  1  0  0  0  0
 13 16  1  0  0  0  0
 13 15  1  0  0  0  0
 14 12  1  0  0  0  0
 15 12  1  0  0  0  0
 16 21  1  0  0  0  0
 16 14  1  0  0  0  0
 17 18  1  0  0  0  0
 18 20  1  0  0  0  0
 19 18  1  0  0  0  0
 22 25  2  0  0  0  0
 23 22  1  0  0  0  0
 24 23  2  0  0  0  0
 26 29  1  0  0  0  0
 26 22  1  0  0  0  0
 27 29  2  0  0  0  0
 28 24  1  0  0  0  0
 28 26  1  0  0  0  0
 29 21  1  0  0  0  0
 30 31  1  0  0  0  0
 31 33  1  0  0  0  0
 33 32  1  0  0  0  0
 34 33  1  0  0  0  0
 34 35  1  0  0  0  0
 36 34  1  0  0  0  0
 36 38  1  0  0  0  0
 37 35  1  0  0  0  0
 38 37  1  0  0  0  0
 39 36  1  0  0  0  0
 40 41  2  0  0  0  0
 40 39  1  0  0  0  0
 42 43  1  0  0  0  0
 43 40  1  0  0  0  0
M  END
>  <MODEL>
8

>  <REMARK>
 VINA RESULT:      -6.6      2.894      9.643
  Name = 
  12 active torsions:
  status: ('A' for Active; 'I' for Inactive)
    1  A    between atoms: C_2  and  C_13
    2  A    between atoms: C_2  and  O_29
    3  A    between atoms: C_5  and  C_15
    4  A    between atoms: C_5  and  C_22
    5  A    between atoms: C_10  and  C_19
    6  A    between atoms: C_11  and  C_27
    7  A    between atoms: C_13  and  C_16
    8  A    between atoms: C_15  and  C_27
    9  A    between atoms: C_17  and  C_19
   10  A    between atoms: C_21  and  C_40
   11  A    between atoms: C_21  and  C_43
   12  A    between atoms: N_24  and  C_41
                            x       y       z     vdW  Elec       q    Type
                         _______ _______ _______ _____ _____    ______ ____

>  <TORSDO>
F 12

$$$$
=
 OpenBabel11062418423D

 43 48  0  0  1  0  0  0  0  0999 V2000
  193.0220  172.5940  144.6710 C   0  0  0  0  0  2  0  0  0  0  0  0
  192.0930  174.5090  146.0630 C   0  0  1  0  0  3  0  0  0  0  0  0
  192.0470  176.0330  146.2000 C   0  0  2  0  0  3  0  0  0  0  0  0
  193.2840  176.6110  146.8920 C   0  0  0  0  0  2  0  0  0  0  0  0
  191.5840  172.6810  144.4400 N   0  0  1  0  0  0  0  0  0  0  0  0
  193.8980  175.0120  144.1680 C   0  0  0  0  0  0  0  0  0  0  0  0
  194.6220  176.1740  146.2850 C   0  0  0  0  0  2  0  0  0  0  0  0
  191.6670  174.1270  144.6590 C   0  0  2  0  0  3  0  0  0  0  0  0
  194.6260  176.1950  144.7550 C   0  0  0  0  0  2  0  0  0  0  0  0
  193.9480  174.8320  142.9610 O   0  0  0  0  0  0  0  0  0  0  0  0
  193.1320  174.0490  145.0460 C   0  0  1  0  0  0  0  0  0  0  0  0
  190.0700  171.6590  142.7830 C   0  0  1  0  0  3  0  0  0  0  0  0
  192.3910  171.5330  142.4530 C   0  0  0  0  0  2  0  0  0  0  0  0
  190.2700  170.7390  141.7320 O   0  0  0  0  0  0  0  0  0  0  0  0
  191.3480  172.4460  143.0130 C   0  0  2  0  0  3  0  0  0  0  0  0
  191.6390  170.7520  141.4030 C   0  0  1  0  0  3  0  0  0  0  0  0
  188.9270  172.6180  142.4460 C   0  0  0  0  0  2  0  0  0  0  0  0
  189.3630  173.8760  141.6960 C   0  0  0  0  0  3  0  0  0  0  0  0
  188.9620  173.8260  140.2380 C   0  0  0  0  0  1  0  0  0  0  0  0
  188.8500  175.1470  142.3460 C   0  0  0  0  0  1  0  0  0  0  0  0
  191.8200  171.4060  140.0390 C   0  0  0  0  0  2  0  0  0  0  0  0
  194.2250  173.1060  139.0030 C   0  0  0  0  0  0  0  0  0  0  0  0
  195.4270  173.5260  138.5660 N   0  0  0  0  0  0  0  0  0  0  0  0
  196.0510  172.3720  138.2470 C   0  0  0  0  0  3  0  0  0  0  0  0
  193.0660  174.1490  139.5080 S   0  0  0  0  0  0  0  0  0  0  0  0
  194.1210  171.7590  138.9570 N   0  0  0  0  0  0  0  0  0  0  0  0
  193.1410  169.6520  139.1380 O   0  0  0  0  0  0  0  0  0  0  0  0
  195.2650  171.3010  138.4800 N   0  0  0  0  0  2  0  0  0  0  0  0
  193.0400  170.8900  139.3440 C   0  0  0  0  0  0  0  0  0  0  0  0
  190.8130  176.4510  146.9820 C   0  0  0  0  0  2  0  0  0  0  0  0
  189.9040  177.3520  146.1530 C   0  0  0  0  0  2  0  0  0  0  0  0
  188.3060  175.8180  146.9850 O   0  0  0  0  0  1  0  0  0  0  0  0
  188.5170  176.7470  145.9670 C   0  0  1  0  0  3  0  0  0  0  0  0
  187.4300  177.8340  146.0010 C   0  0  2  0  0  3  0  0  0  0  0  0
  186.8180  177.9110  147.3300 N   0  0  0  0  0  2  0  0  0  0  0  0
  186.3370  177.5190  144.9900 C   0  0  1  0  0  3  0  0  0  0  0  0
  185.3930  177.6540  147.1730 C   0  0  0  0  0  2  0  0  0  0  0  0
  185.1850  177.0230  145.8180 C   0  0  0  0  0  2  0  0  0  0  0  0
  185.9200  178.7900  144.2620 C   0  0  0  0  0  2  0  0  0  0  0  0
  185.3480  178.4620  142.9280 C   0  0  0  0  0  0  0  0  0  0  0  0
  184.1620  178.0430  142.8430 O   0  0  0  0  0  0  0  0  0  0  0  0
  186.3540  177.6170  140.8480 C   0  0  0  0  0  1  0  0  0  0  0  0
  186.1260  178.6570  141.7850 O   0  0  0  0  0  0  0  0  0  0  0  0
  1 11  1  0  0  0  0
  2  3  1  0  0  0  0
  3  4  1  0  0  0  0
  3 30  1  0  0  0  0
  5  8  1  0  0  0  0
  5  1  1  0  0  0  0
  6  9  1  0  0  0  0
  6 11  1  0  0  0  0
  7  4  1  0  0  0  0
  8 11  1  0  0  0  0
  8  2  1  0  0  0  0
  9  7  1  0  0  0  0
 10  6  2  0  0  0  0
 11  2  1  0  0  0  0
 12 15  1  0  0  0  0
 13 15  1  0  0  0  0
 14 12  1  0  0  0  0
 15  5  1  0  0  0  0
 16 14  1  0  0  0  0
 16 13  1  0  0  0  0
 17 12  1  0  0  0  0
 18 20  1  0  0  0  0
 18 17  1  0  0  0  0
 19 18  1  0  0  0  0
 21 16  1  0  0  0  0
 22 25  2  0  0  0  0
 23 22  1  0  0  0  0
 24 28  1  0  0  0  0
 24 23  2  0  0  0  0
 26 22  1  0  0  0  0
 26 29  1  0  0  0  0
 27 29  2  0  0  0  0
 28 26  1  0  0  0  0
 29 21  1  0  0  0  0
 31 30  1  0  0  0  0
 33 34  1  0  0  0  0
 33 31  1  0  0  0  0
 33 32  1  0  0  0  0
 34 35  1  0  0  0  0
 36 38  1  0  0  0  0
 36 34  1  0  0  0  0
 37 35  1  0  0  0  0
 38 37  1  0  0  0  0
 39 36  1  0  0  0  0
 40 39  1  0  0  0  0
 41 40  2  0  0  0  0
 42 43  1  0  0  0  0
 43 40  1  0  0  0  0
M  END
>  <MODEL>
9

>  <REMARK>
 VINA RESULT:      -6.6      3.091      8.550
  Name = 
  12 active torsions:
  status: ('A' for Active; 'I' for Inactive)
    1  A    between atoms: C_2  and  C_13
    2  A    between atoms: C_2  and  O_29
    3  A    between atoms: C_5  and  C_15
    4  A    between atoms: C_5  and  C_22
    5  A    between atoms: C_10  and  C_19
    6  A    between atoms: C_11  and  C_27
    7  A    between atoms: C_13  and  C_16
    8  A    between atoms: C_15  and  C_27
    9  A    between atoms: C_17  and  C_19
   10  A    between atoms: C_21  and  C_40
   11  A    between atoms: C_21  and  C_43
   12  A    between atoms: N_24  and  C_41
                            x       y       z     vdW  Elec       q    Type
                         _______ _______ _______ _____ _____    ______ ____

>  <TORSDO>
F 12

$$$$
