=
 OpenBabel11062420343D

 32 38  0  0  1  0  0  0  0  0999 V2000
  194.2290  175.1930  144.1800 C   0  0  1  0  0  3  0  0  0  0  0  0
  192.8620  175.8590  144.3340 C   0  0  1  0  0  3  0  0  0  0  0  0
  196.0590  176.6090  143.7080 C   0  0  1  0  0  3  0  0  0  0  0  0
  194.6350  174.9050  142.7450 C   0  0  0  0  0  2  0  0  0  0  0  0
  193.0670  176.8850  145.4210 C   0  0  2  0  0  3  0  0  0  0  0  0
  197.0060  175.5560  143.1670 C   0  0  0  0  0  2  0  0  0  0  0  0
  194.5530  177.1710  145.4180 C   0  0  0  0  0  2  0  0  0  0  0  0
  195.7320  175.8910  142.4120 C   0  0  2  0  0  3  0  0  0  0  0  0
  195.2470  176.0510  144.7870 N   0  0  1  0  0  0  0  0  0  0  0  0
  192.6630  176.2900  146.7620 C   0  0  0  0  0  2  0  0  0  0  0  0
  190.6660  174.7750  146.8130 C   0  0  0  0  0  3  0  0  0  0  0  0
  191.1840  176.0780  146.8070 C   0  0  0  0  0  0  0  0  0  0  0  0
  188.9230  176.9670  146.8270 C   0  0  0  0  0  3  0  0  0  0  0  0
  190.3100  177.1730  146.8090 C   0  0  0  0  0  3  0  0  0  0  0  0
  188.4090  175.6640  146.8380 C   0  0  0  0  0  3  0  0  0  0  0  0
  189.2800  174.5690  146.8280 C   0  0  0  0  0  3  0  0  0  0  0  0
  192.4560  176.5010  143.1570 O   0  0  0  0  0  0  0  0  0  0  0  0
  191.2340  177.0920  143.4880 C   0  0  0  0  0  2  0  0  0  0  0  0
  188.1540  175.6250  142.4700 C   0  0  0  0  0  0  0  0  0  0  0  0
  188.7940  174.4670  142.7290 N   0  0  0  0  0  0  0  0  0  0  0  0
  190.0620  174.8500  143.0350 C   0  0  0  0  0  3  0  0  0  0  0  0
  186.7890  177.4550  143.0260 C   0  0  1  0  0  3  0  0  0  0  0  0
  188.2150  177.8090  143.0160 N   0  0  0  0  0  2  0  0  0  0  0  0
  188.9180  176.6830  142.6100 N   0  0  0  0  0  0  0  0  0  0  0  0
  186.7210  175.9320  142.7120 C   0  0  0  0  0  2  0  0  0  0  0  0
  190.1120  176.2360  143.0090 C   0  0  0  0  0  0  0  0  0  0  0  0
  186.1630  177.7490  144.3580 C   0  0  0  0  0  0  0  0  0  0  0  0
  184.9750  178.3870  146.7870 C   0  0  0  0  0  3  0  0  0  0  0  0
  185.5080  179.3610  146.0000 N   0  0  0  0  0  0  0  0  0  0  0  0
  185.0130  177.0530  146.3760 C   0  0  0  0  0  3  0  0  0  0  0  0
  186.0930  179.0720  144.8050 C   0  0  0  0  0  3  0  0  0  0  0  0
  185.6060  176.7370  145.1530 C   0  0  0  0  0  3  0  0  0  0  0  0
  1  4  1  6  0  0  0
  1  2  1  0  0  0  0
  1  9  1  0  0  0  0
  2 17  1  6  0  0  0
  2  5  1  0  0  0  0
  3  6  1  1  0  0  0
  3  9  1  0  0  0  0
  5 10  1  1  0  0  0
  7  5  1  0  0  0  0
  8  4  1  1  0  0  0
  8  6  1  0  0  0  0
  8  3  1  0  0  0  0
  9  7  1  6  0  0  0
 10 12  1  0  0  0  0
 11 16  1  0  0  0  0
 12 14  1  0  0  0  0
 12 11  2  0  0  0  0
 13 15  1  0  0  0  0
 14 13  2  0  0  0  0
 16 15  2  0  0  0  0
 17 18  1  0  0  0  0
 19 24  1  0  0  0  0
 19 25  1  0  0  0  0
 19 20  2  0  0  0  0
 20 21  1  0  0  0  0
 22 27  1  1  0  0  0
 23 22  1  0  0  0  0
 24 26  1  0  0  0  0
 24 23  1  0  0  0  0
 25 22  1  0  0  0  0
 26 21  2  0  0  0  0
 26 18  1  0  0  0  0
 27 31  2  0  0  0  0
 27 32  1  0  0  0  0
 29 28  2  0  0  0  0
 30 28  1  0  0  0  0
 31 29  1  0  0  0  0
 32 30  2  0  0  0  0
M  END
>  <MODEL>
1

>  <REMARK>
 VINA RESULT:      -8.2      0.000      0.000
  Name = 
  6 active torsions:
  status: ('A' for Active; 'I' for Inactive)
    1  A    between atoms: C_2  and  C_11
    2  A    between atoms: C_9  and  C_16
    3  A    between atoms: C_10  and  O_30
    4  A    between atoms: C_16  and  C_21
    5  A    between atoms: C_18  and  C_23
    6  A    between atoms: C_18  and  O_30
                            x       y       z     vdW  Elec       q    Type
                         _______ _______ _______ _____ _____    ______ ____

>  <TORSDO>
F 6

$$$$
=
 OpenBabel11062420343D

 32 38  0  0  1  0  0  0  0  0999 V2000
  186.7950  178.4290  143.2180 C   0  0  1  0  0  3  0  0  0  0  0  0
  187.8370  177.3130  143.1450 C   0  0  1  0  0  3  0  0  0  0  0  0
  184.8250  177.9720  144.4370 C   0  0  1  0  0  3  0  0  0  0  0  0
  185.6760  178.3190  142.1980 C   0  0  0  0  0  2  0  0  0  0  0  0
  188.1370  176.9870  144.5870 C   0  0  2  0  0  3  0  0  0  0  0  0
  183.9530  179.0610  143.8420 C   0  0  0  0  0  2  0  0  0  0  0  0
  186.9190  177.4500  145.3580 C   0  0  0  0  0  2  0  0  0  0  0  0
  184.4400  177.9160  142.9700 C   0  0  2  0  0  3  0  0  0  0  0  0
  186.2040  178.4410  144.5560 N   0  0  1  0  0  0  0  0  0  0  0  0
  189.3590  177.7720  145.0410 C   0  0  0  0  0  2  0  0  0  0  0  0
  189.7180  176.0780  146.8530 C   0  0  0  0  0  3  0  0  0  0  0  0
  190.2590  176.8990  145.8540 C   0  0  0  0  0  0  0  0  0  0  0  0
  192.4860  176.1180  146.4310 C   0  0  0  0  0  3  0  0  0  0  0  0
  191.6450  176.9220  145.6480 C   0  0  0  0  0  3  0  0  0  0  0  0
  191.9420  175.2940  147.4250 C   0  0  0  0  0  3  0  0  0  0  0  0
  190.5590  175.2770  147.6380 C   0  0  0  0  0  3  0  0  0  0  0  0
  187.3380  176.1720  142.5030 O   0  0  0  0  0  0  0  0  0  0  0  0
  188.3320  175.8300  141.5830 C   0  0  0  0  0  2  0  0  0  0  0  0
  189.2680  172.4630  142.2610 C   0  0  0  0  0  0  0  0  0  0  0  0
  189.0420  172.2940  140.9420 N   0  0  0  0  0  0  0  0  0  0  0  0
  188.5550  173.4960  140.5330 C   0  0  0  0  0  3  0  0  0  0  0  0
  190.6120  172.9290  144.1310 C   0  0  1  0  0  3  0  0  0  0  0  0
  189.7760  174.0760  143.7480 N   0  0  0  0  0  2  0  0  0  0  0  0
  188.9780  173.6700  142.6870 N   0  0  0  0  0  0  0  0  0  0  0  0
  190.3260  171.8180  143.0800 C   0  0  0  0  0  2  0  0  0  0  0  0
  188.5700  174.3600  141.6180 C   0  0  0  0  0  0  0  0  0  0  0  0
  192.0680  173.2930  144.1340 C   0  0  0  0  0  0  0  0  0  0  0  0
  194.7360  174.0670  144.1110 C   0  0  0  0  0  3  0  0  0  0  0  0
  193.8390  174.6510  143.2700 N   0  0  0  0  0  0  0  0  0  0  0  0
  194.3220  173.0760  145.0010 C   0  0  0  0  0  3  0  0  0  0  0  0
  192.5260  174.2910  143.2660 C   0  0  0  0  0  3  0  0  0  0  0  0
  192.9800  172.6930  145.0140 C   0  0  0  0  0  3  0  0  0  0  0  0
  1  4  1  6  0  0  0
  1  9  1  0  0  0  0
  2 17  1  6  0  0  0
  2  1  1  0  0  0  0
  2  5  1  0  0  0  0
  3  6  1  1  0  0  0
  3  9  1  0  0  0  0
  5 10  1  1  0  0  0
  5  7  1  0  0  0  0
  8  4  1  6  0  0  0
  8  6  1  0  0  0  0
  8  3  1  0  0  0  0
  9  7  1  1  0  0  0
 10 12  1  0  0  0  0
 11 16  1  0  0  0  0
 12 11  2  0  0  0  0
 13 15  1  0  0  0  0
 14 12  1  0  0  0  0
 14 13  2  0  0  0  0
 15 16  2  0  0  0  0
 18 26  1  0  0  0  0
 18 17  1  0  0  0  0
 19 24  1  0  0  0  0
 19 25  1  0  0  0  0
 20 19  2  0  0  0  0
 21 20  1  0  0  0  0
 21 26  2  0  0  0  0
 22 27  1  6  0  0  0
 23 22  1  0  0  0  0
 24 23  1  0  0  0  0
 25 22  1  0  0  0  0
 26 24  1  0  0  0  0
 27 32  1  0  0  0  0
 28 30  1  0  0  0  0
 29 28  2  0  0  0  0
 30 32  2  0  0  0  0
 31 29  1  0  0  0  0
 31 27  2  0  0  0  0
M  END
>  <MODEL>
2

>  <REMARK>
 VINA RESULT:      -7.7      2.099      6.943
  Name = 
  6 active torsions:
  status: ('A' for Active; 'I' for Inactive)
    1  A    between atoms: C_2  and  C_11
    2  A    between atoms: C_9  and  C_16
    3  A    between atoms: C_10  and  O_30
    4  A    between atoms: C_16  and  C_21
    5  A    between atoms: C_18  and  C_23
    6  A    between atoms: C_18  and  O_30
                            x       y       z     vdW  Elec       q    Type
                         _______ _______ _______ _____ _____    ______ ____

>  <TORSDO>
F 6

$$$$
=
 OpenBabel11062420343D

 32 38  0  0  1  0  0  0  0  0999 V2000
  187.1070  178.3000  145.4040 C   0  0  1  0  0  3  0  0  0  0  0  0
  188.2230  177.4890  144.7470 C   0  0  1  0  0  3  0  0  0  0  0  0
  185.3380  177.0810  146.3850 C   0  0  1  0  0  3  0  0  0  0  0  0
  185.8890  178.5290  144.5260 C   0  0  0  0  0  2  0  0  0  0  0  0
  188.7170  176.5780  145.8420 C   0  0  2  0  0  3  0  0  0  0  0  0
  184.3140  178.1980  146.4310 C   0  0  0  0  0  2  0  0  0  0  0  0
  187.5630  176.4710  146.8160 C   0  0  0  0  0  2  0  0  0  0  0  0
  184.7910  177.6590  145.0930 C   0  0  2  0  0  3  0  0  0  0  0  0
  186.6770  177.6170  146.6230 N   0  0  1  0  0  0  0  0  0  0  0  0
  189.9130  177.2160  146.5330 C   0  0  0  0  0  2  0  0  0  0  0  0
  191.6690  175.4660  146.9050 C   0  0  0  0  0  3  0  0  0  0  0  0
  191.1730  176.5230  146.1280 C   0  0  0  0  0  0  0  0  0  0  0  0
  193.0760  176.3040  144.6330 C   0  0  0  0  0  3  0  0  0  0  0  0
  191.8810  176.9430  144.9940 C   0  0  0  0  0  3  0  0  0  0  0  0
  193.5660  175.2450  145.4080 C   0  0  0  0  0  3  0  0  0  0  0  0
  192.8640  174.8290  146.5450 C   0  0  0  0  0  3  0  0  0  0  0  0
  187.7510  176.7190  143.6750 O   0  0  0  0  0  0  0  0  0  0  0  0
  188.9080  176.2950  143.0180 C   0  0  0  0  0  2  0  0  0  0  0  0
  188.9670  172.7920  142.3830 C   0  0  0  0  0  0  0  0  0  0  0  0
  188.5120  173.1580  141.1670 N   0  0  0  0  0  0  0  0  0  0  0  0
  188.3220  174.5000  141.2750 C   0  0  0  0  0  3  0  0  0  0  0  0
  190.6450  172.2650  143.9400 C   0  0  1  0  0  3  0  0  0  0  0  0
  190.1120  173.6200  144.1360 N   0  0  0  0  0  2  0  0  0  0  0  0
  189.0870  173.7990  143.2170 N   0  0  0  0  0  0  0  0  0  0  0  0
  189.9140  171.6910  142.6930 C   0  0  0  0  0  2  0  0  0  0  0  0
  188.7330  174.8950  142.5390 C   0  0  0  0  0  0  0  0  0  0  0  0
  192.1290  172.2900  143.7180 C   0  0  0  0  0  0  0  0  0  0  0  0
  194.8670  172.4350  143.2620 C   0  0  0  0  0  3  0  0  0  0  0  0
  193.9920  173.0640  142.4300 N   0  0  0  0  0  0  0  0  0  0  0  0
  194.3950  171.7150  144.3610 C   0  0  0  0  0  3  0  0  0  0  0  0
  192.6470  173.0100  142.6350 C   0  0  0  0  0  3  0  0  0  0  0  0
  193.0200  171.6490  144.5910 C   0  0  0  0  0  3  0  0  0  0  0  0
  1  4  1  6  0  0  0
  1  9  1  0  0  0  0
  2 17  1  6  0  0  0
  2  1  1  0  0  0  0
  2  5  1  0  0  0  0
  3  6  1  1  0  0  0
  3  9  1  0  0  0  0
  5 10  1  1  0  0  0
  5  7  1  0  0  0  0
  8  4  1  6  0  0  0
  8  3  1  0  0  0  0
  8  6  1  0  0  0  0
  9  7  1  6  0  0  0
 12 10  1  0  0  0  0
 12 11  2  0  0  0  0
 13 14  2  0  0  0  0
 13 15  1  0  0  0  0
 14 12  1  0  0  0  0
 15 16  2  0  0  0  0
 16 11  1  0  0  0  0
 18 17  1  0  0  0  0
 19 25  1  0  0  0  0
 19 24  1  0  0  0  0
 20 21  1  0  0  0  0
 20 19  2  0  0  0  0
 21 26  2  0  0  0  0
 22 27  1  6  0  0  0
 22 23  1  0  0  0  0
 24 23  1  0  0  0  0
 25 22  1  0  0  0  0
 26 18  1  0  0  0  0
 26 24  1  0  0  0  0
 27 32  1  0  0  0  0
 28 30  1  0  0  0  0
 29 31  1  0  0  0  0
 29 28  2  0  0  0  0
 30 32  2  0  0  0  0
 31 27  2  0  0  0  0
M  END
>  <MODEL>
3

>  <REMARK>
 VINA RESULT:      -7.7      2.182      7.107
  Name = 
  6 active torsions:
  status: ('A' for Active; 'I' for Inactive)
    1  A    between atoms: C_2  and  C_11
    2  A    between atoms: C_9  and  C_16
    3  A    between atoms: C_10  and  O_30
    4  A    between atoms: C_16  and  C_21
    5  A    between atoms: C_18  and  C_23
    6  A    between atoms: C_18  and  O_30
                            x       y       z     vdW  Elec       q    Type
                         _______ _______ _______ _____ _____    ______ ____

>  <TORSDO>
F 6

$$$$
=
 OpenBabel11062420343D

 32 38  0  0  1  0  0  0  0  0999 V2000
  191.1830  175.0030  146.4840 C   0  0  1  0  0  3  0  0  0  0  0  0
  189.8680  174.8310  145.7240 C   0  0  1  0  0  3  0  0  0  0  0  0
  192.5100  176.8700  145.9100 C   0  0  1  0  0  3  0  0  0  0  0  0
  192.4040  174.4560  145.7670 C   0  0  0  0  0  2  0  0  0  0  0  0
  189.1320  176.1270  145.9520 C   0  0  2  0  0  3  0  0  0  0  0  0
  193.8240  176.3780  146.4840 C   0  0  0  0  0  2  0  0  0  0  0  0
  190.2090  177.1390  146.2830 C   0  0  0  0  0  2  0  0  0  0  0  0
  193.1950  175.6590  145.3030 C   0  0  2  0  0  3  0  0  0  0  0  0
  191.3970  176.4260  146.7470 N   0  0  1  0  0  0  0  0  0  0  0  0
  188.1910  175.9750  147.1380 C   0  0  0  0  0  2  0  0  0  0  0  0
  185.9480  176.5880  146.2010 C   0  0  0  0  0  3  0  0  0  0  0  0
  187.0430  176.9230  147.0100 C   0  0  0  0  0  0  0  0  0  0  0  0
  185.9990  179.0570  147.5210 C   0  0  0  0  0  3  0  0  0  0  0  0
  187.0680  178.1610  147.6660 C   0  0  0  0  0  3  0  0  0  0  0  0
  184.9030  178.7160  146.7170 C   0  0  0  0  0  3  0  0  0  0  0  0
  184.8800  177.4840  146.0540 C   0  0  0  0  0  3  0  0  0  0  0  0
  190.0760  174.6470  144.3510 O   0  0  0  0  0  0  0  0  0  0  0  0
  189.1210  173.6970  143.9800 C   0  0  0  0  0  2  0  0  0  0  0  0
  188.5000  174.4850  140.5640 C   0  0  0  0  0  0  0  0  0  0  0  0
  188.2320  173.1670  140.4660 N   0  0  0  0  0  0  0  0  0  0  0  0
  188.5360  172.6750  141.6970 C   0  0  0  0  0  3  0  0  0  0  0  0
  187.9280  176.7380  140.9090 C   0  0  1  0  0  3  0  0  0  0  0  0
  188.5650  176.1400  142.0900 N   0  0  0  0  0  2  0  0  0  0  0  0
  188.9230  174.8420  141.7550 N   0  0  0  0  0  0  0  0  0  0  0  0
  187.8130  175.5960  139.8580 C   0  0  0  0  0  2  0  0  0  0  0  0
  188.9140  173.7360  142.5050 C   0  0  0  0  0  0  0  0  0  0  0  0
  186.5720  177.2880  141.2420 C   0  0  0  0  0  0  0  0  0  0  0  0
  184.0310  178.2870  141.7580 C   0  0  0  0  0  3  0  0  0  0  0  0
  184.5750  178.3890  140.5150 N   0  0  0  0  0  0  0  0  0  0  0  0
  184.7430  177.6700  142.7880 C   0  0  0  0  0  3  0  0  0  0  0  0
  185.8170  177.9050  140.2380 C   0  0  0  0  0  3  0  0  0  0  0  0
  186.0170  177.1640  142.5240 C   0  0  0  0  0  3  0  0  0  0  0  0
  1  4  1  6  0  0  0
  1  9  1  0  0  0  0
  2 17  1  6  0  0  0
  2  5  1  0  0  0  0
  2  1  1  0  0  0  0
  3  6  1  1  0  0  0
  3  9  1  0  0  0  0
  5  7  1  0  0  0  0
  5 10  1  1  0  0  0
  8  4  1  1  0  0  0
  8  3  1  0  0  0  0
  8  6  1  0  0  0  0
  9  7  1  6  0  0  0
 11 12  1  0  0  0  0
 12 10  1  0  0  0  0
 12 14  2  0  0  0  0
 13 14  1  0  0  0  0
 15 13  2  0  0  0  0
 16 11  2  0  0  0  0
 16 15  1  0  0  0  0
 18 17  1  0  0  0  0
 19 24  1  0  0  0  0
 20 19  2  0  0  0  0
 20 21  1  0  0  0  0
 21 26  2  0  0  0  0
 22 27  1  1  0  0  0
 22 23  1  0  0  0  0
 24 23  1  0  0  0  0
 24 26  1  0  0  0  0
 25 19  1  0  0  0  0
 25 22  1  0  0  0  0
 26 18  1  0  0  0  0
 27 32  1  0  0  0  0
 28 30  1  0  0  0  0
 29 28  2  0  0  0  0
 31 29  1  0  0  0  0
 31 27  2  0  0  0  0
 32 30  2  0  0  0  0
M  END
>  <MODEL>
4

>  <REMARK>
 VINA RESULT:      -7.7      2.306      3.873
  Name = 
  6 active torsions:
  status: ('A' for Active; 'I' for Inactive)
    1  A    between atoms: C_2  and  C_11
    2  A    between atoms: C_9  and  C_16
    3  A    between atoms: C_10  and  O_30
    4  A    between atoms: C_16  and  C_21
    5  A    between atoms: C_18  and  C_23
    6  A    between atoms: C_18  and  O_30
                            x       y       z     vdW  Elec       q    Type
                         _______ _______ _______ _____ _____    ______ ____

>  <TORSDO>
F 6

$$$$
=
 OpenBabel11062420343D

 32 38  0  0  1  0  0  0  0  0999 V2000
  191.0070  176.3910  146.5400 C   0  0  1  0  0  3  0  0  0  0  0  0
  191.5730  177.0170  145.2660 C   0  0  1  0  0  3  0  0  0  0  0  0
  189.6250  174.4940  146.2740 C   0  0  1  0  0  3  0  0  0  0  0  0
  189.5980  176.8340  146.8920 C   0  0  0  0  0  2  0  0  0  0  0  0
  192.3050  175.8870  144.5870 C   0  0  2  0  0  3  0  0  0  0  0  0
  188.9400  174.5420  147.6250 C   0  0  0  0  0  2  0  0  0  0  0  0
  191.6700  174.6240  145.1290 C   0  0  0  0  0  2  0  0  0  0  0  0
  188.7010  175.6490  146.6130 C   0  0  2  0  0  3  0  0  0  0  0  0
  191.0130  174.9350  146.3970 N   0  0  1  0  0  0  0  0  0  0  0  0
  193.7750  175.9280  144.9750 C   0  0  0  0  0  2  0  0  0  0  0  0
  195.9270  176.5960  143.8760 C   0  0  0  0  0  3  0  0  0  0  0  0
  194.6260  176.0880  143.7570 C   0  0  0  0  0  0  0  0  0  0  0  0
  194.9140  175.9410  141.3490 C   0  0  0  0  0  3  0  0  0  0  0  0
  194.1190  175.7650  142.4910 C   0  0  0  0  0  3  0  0  0  0  0  0
  196.2160  176.4430  141.4720 C   0  0  0  0  0  3  0  0  0  0  0  0
  196.7210  176.7740  142.7340 C   0  0  0  0  0  3  0  0  0  0  0  0
  190.5610  177.4930  144.4220 O   0  0  0  0  0  0  0  0  0  0  0  0
  190.9230  177.0310  143.1530 C   0  0  0  0  0  2  0  0  0  0  0  0
  187.7330  176.3480  141.7280 C   0  0  0  0  0  0  0  0  0  0  0  0
  188.1920  175.0810  141.6860 N   0  0  0  0  0  0  0  0  0  0  0  0
  189.4820  175.1810  142.1050 C   0  0  0  0  0  3  0  0  0  0  0  0
  186.6030  178.1540  142.7210 C   0  0  1  0  0  3  0  0  0  0  0  0
  188.0630  178.2830  142.8310 N   0  0  0  0  0  2  0  0  0  0  0  0
  188.6270  177.2100  142.1560 N   0  0  0  0  0  0  0  0  0  0  0  0
  186.3450  176.7910  142.0160 C   0  0  0  0  0  2  0  0  0  0  0  0
  189.7240  176.5040  142.4450 C   0  0  0  0  0  0  0  0  0  0  0  0
  185.9500  178.1830  144.0720 C   0  0  0  0  0  0  0  0  0  0  0  0
  184.6730  178.3110  146.5360 C   0  0  0  0  0  3  0  0  0  0  0  0
  184.7440  179.4090  145.7350 N   0  0  0  0  0  0  0  0  0  0  0  0
  185.2370  177.1030  146.1220 C   0  0  0  0  0  3  0  0  0  0  0  0
  185.3620  179.3690  144.5220 C   0  0  0  0  0  3  0  0  0  0  0  0
  185.8730  177.0410  144.8810 C   0  0  0  0  0  3  0  0  0  0  0  0
  1  4  1  6  0  0  0
  2 17  1  6  0  0  0
  2  1  1  0  0  0  0
  3  9  1  0  0  0  0
  3  8  1  0  0  0  0
  3  6  1  1  0  0  0
  5 10  1  1  0  0  0
  5  7  1  0  0  0  0
  5  2  1  0  0  0  0
  8  4  1  1  0  0  0
  8  6  1  0  0  0  0
  9  7  1  6  0  0  0
  9  1  1  0  0  0  0
 12 11  1  0  0  0  0
 12 10  1  0  0  0  0
 13 15  2  0  0  0  0
 13 14  1  0  0  0  0
 14 12  2  0  0  0  0
 15 16  1  0  0  0  0
 16 11  2  0  0  0  0
 18 17  1  0  0  0  0
 19 25  1  0  0  0  0
 19 24  1  0  0  0  0
 20 19  2  0  0  0  0
 20 21  1  0  0  0  0
 21 26  2  0  0  0  0
 22 23  1  0  0  0  0
 22 27  1  1  0  0  0
 24 26  1  0  0  0  0
 24 23  1  0  0  0  0
 25 22  1  0  0  0  0
 26 18  1  0  0  0  0
 27 31  2  0  0  0  0
 27 32  1  0  0  0  0
 29 28  2  0  0  0  0
 30 28  1  0  0  0  0
 31 29  1  0  0  0  0
 32 30  2  0  0  0  0
M  END
>  <MODEL>
5

>  <REMARK>
 VINA RESULT:      -7.6      1.299      4.552
  Name = 
  6 active torsions:
  status: ('A' for Active; 'I' for Inactive)
    1  A    between atoms: C_2  and  C_11
    2  A    between atoms: C_9  and  C_16
    3  A    between atoms: C_10  and  O_30
    4  A    between atoms: C_16  and  C_21
    5  A    between atoms: C_18  and  C_23
    6  A    between atoms: C_18  and  O_30
                            x       y       z     vdW  Elec       q    Type
                         _______ _______ _______ _____ _____    ______ ____

>  <TORSDO>
F 6

$$$$
=
 OpenBabel11062420343D

 32 38  0  0  1  0  0  0  0  0999 V2000
  187.4610  178.0400  142.5630 C   0  0  1  0  0  3  0  0  0  0  0  0
  188.2450  176.9710  143.3230 C   0  0  1  0  0  3  0  0  0  0  0  0
  185.2950  177.4550  141.8270 C   0  0  1  0  0  3  0  0  0  0  0  0
  187.5380  177.9280  141.0510 C   0  0  0  0  0  2  0  0  0  0  0  0
  187.3480  176.5990  144.4760 C   0  0  2  0  0  3  0  0  0  0  0  0
  185.1340  178.5310  140.7710 C   0  0  0  0  0  2  0  0  0  0  0  0
  185.9530  176.9800  144.0290 C   0  0  0  0  0  2  0  0  0  0  0  0
  186.1800  177.4440  140.5950 C   0  0  2  0  0  3  0  0  0  0  0  0
  186.0560  177.9730  142.9620 N   0  0  1  0  0  0  0  0  0  0  0  0
  187.7330  177.4130  145.7030 C   0  0  0  0  0  2  0  0  0  0  0  0
  188.6660  175.3640  146.8060 C   0  0  0  0  0  3  0  0  0  0  0  0
  188.8130  176.7160  146.4650 C   0  0  0  0  0  0  0  0  0  0  0  0
  190.9560  176.7600  147.6090 C   0  0  0  0  0  3  0  0  0  0  0  0
  189.9580  177.4140  146.8730 C   0  0  0  0  0  3  0  0  0  0  0  0
  190.8090  175.4070  147.9420 C   0  0  0  0  0  3  0  0  0  0  0  0
  189.6630  174.7110  147.5440 C   0  0  0  0  0  3  0  0  0  0  0  0
  188.4870  175.8380  142.5340 O   0  0  0  0  0  0  0  0  0  0  0  0
  189.8790  175.7670  142.4470 C   0  0  0  0  0  2  0  0  0  0  0  0
  191.6110  173.6710  144.7460 C   0  0  0  0  0  0  0  0  0  0  0  0
  190.9770  172.6800  144.0870 N   0  0  0  0  0  0  0  0  0  0  0  0
  190.1600  173.3310  143.2160 C   0  0  0  0  0  3  0  0  0  0  0  0
  193.4070  175.1340  145.1420 C   0  0  1  0  0  3  0  0  0  0  0  0
  192.2890  175.7990  144.4570 N   0  0  0  0  0  2  0  0  0  0  0  0
  191.2650  174.8700  144.3390 N   0  0  0  0  0  0  0  0  0  0  0  0
  192.9890  173.6430  145.2990 C   0  0  0  0  0  2  0  0  0  0  0  0
  190.3880  174.6930  143.3460 C   0  0  0  0  0  0  0  0  0  0  0  0
  194.6760  175.2470  144.3500 C   0  0  0  0  0  0  0  0  0  0  0  0
  196.9900  175.3790  142.8170 C   0  0  0  0  0  3  0  0  0  0  0  0
  196.3190  174.2030  142.9570 N   0  0  0  0  0  0  0  0  0  0  0  0
  196.5170  176.5360  143.4380 C   0  0  0  0  0  3  0  0  0  0  0  0
  195.1810  174.1160  143.7010 C   0  0  0  0  0  3  0  0  0  0  0  0
  195.3510  176.4680  144.2020 C   0  0  0  0  0  3  0  0  0  0  0  0
  1  4  1  6  0  0  0
  1  9  1  0  0  0  0
  1  2  1  0  0  0  0
  2 17  1  6  0  0  0
  2  5  1  0  0  0  0
  3  6  1  6  0  0  0
  3  9  1  0  0  0  0
  5 10  1  1  0  0  0
  7  5  1  0  0  0  0
  8  6  1  6  0  0  0
  8  4  1  0  0  0  0
  8  3  1  0  0  0  0
  9  7  1  1  0  0  0
 10 12  1  0  0  0  0
 11 16  1  0  0  0  0
 12 11  2  0  0  0  0
 12 14  1  0  0  0  0
 13 15  1  0  0  0  0
 14 13  2  0  0  0  0
 16 15  2  0  0  0  0
 18 17  1  0  0  0  0
 18 26  1  0  0  0  0
 19 25  1  0  0  0  0
 20 19  2  0  0  0  0
 21 26  2  0  0  0  0
 21 20  1  0  0  0  0
 22 27  1  6  0  0  0
 22 25  1  0  0  0  0
 23 22  1  0  0  0  0
 24 23  1  0  0  0  0
 24 19  1  0  0  0  0
 26 24  1  0  0  0  0
 28 29  2  0  0  0  0
 28 30  1  0  0  0  0
 29 31  1  0  0  0  0
 30 32  2  0  0  0  0
 31 27  2  0  0  0  0
 32 27  1  0  0  0  0
M  END
>  <MODEL>
6

>  <REMARK>
 VINA RESULT:      -7.5      1.895      7.307
  Name = 
  6 active torsions:
  status: ('A' for Active; 'I' for Inactive)
    1  A    between atoms: C_2  and  C_11
    2  A    between atoms: C_9  and  C_16
    3  A    between atoms: C_10  and  O_30
    4  A    between atoms: C_16  and  C_21
    5  A    between atoms: C_18  and  C_23
    6  A    between atoms: C_18  and  O_30
                            x       y       z     vdW  Elec       q    Type
                         _______ _______ _______ _____ _____    ______ ____

>  <TORSDO>
F 6

$$$$
=
 OpenBabel11062420343D

 32 38  0  0  1  0  0  0  0  0999 V2000
  190.8290  176.7240  145.4370 C   0  0  1  0  0  3  0  0  0  0  0  0
  191.9210  175.6570  145.4050 C   0  0  1  0  0  3  0  0  0  0  0  0
  189.3350  176.6690  147.2650 C   0  0  1  0  0  3  0  0  0  0  0  0
  189.4880  176.2770  144.8820 C   0  0  0  0  0  2  0  0  0  0  0  0
  192.6440  175.8210  146.7180 C   0  0  2  0  0  3  0  0  0  0  0  0
  188.2220  177.4950  146.6530 C   0  0  0  0  0  2  0  0  0  0  0  0
  191.6460  176.4970  147.6340 C   0  0  0  0  0  2  0  0  0  0  0  0
  188.5660  176.1340  146.0720 C   0  0  2  0  0  3  0  0  0  0  0  0
  190.6350  177.1650  146.8180 N   0  0  1  0  0  0  0  0  0  0  0  0
  193.8530  176.7240  146.5220 C   0  0  0  0  0  2  0  0  0  0  0  0
  195.3160  176.5750  144.4920 C   0  0  0  0  0  3  0  0  0  0  0  0
  194.8930  176.0230  145.7090 C   0  0  0  0  0  0  0  0  0  0  0  0
  196.3810  174.1350  145.3580 C   0  0  0  0  0  3  0  0  0  0  0  0
  195.4230  174.7990  146.1380 C   0  0  0  0  0  3  0  0  0  0  0  0
  196.8060  174.6920  144.1450 C   0  0  0  0  0  3  0  0  0  0  0  0
  196.2710  175.9100  143.7110 C   0  0  0  0  0  3  0  0  0  0  0  0
  191.3880  174.3630  145.3240 O   0  0  0  0  0  0  0  0  0  0  0  0
  191.8220  173.8860  144.0850 C   0  0  0  0  0  2  0  0  0  0  0  0
  189.0410  172.8430  142.1220 C   0  0  0  0  0  0  0  0  0  0  0  0
  188.9410  171.8730  143.0530 N   0  0  0  0  0  0  0  0  0  0  0  0
  190.0280  172.0620  143.8470 C   0  0  0  0  0  3  0  0  0  0  0  0
  188.5540  174.9510  141.2050 C   0  0  1  0  0  3  0  0  0  0  0  0
  189.8730  174.9180  141.8510 N   0  0  0  0  0  2  0  0  0  0  0  0
  190.0870  173.6190  142.2910 N   0  0  0  0  0  0  0  0  0  0  0  0
  187.9280  173.5450  141.4330 C   0  0  0  0  0  2  0  0  0  0  0  0
  190.7050  173.1840  143.3930 C   0  0  0  0  0  0  0  0  0  0  0  0
  187.6830  176.0190  141.8000 C   0  0  0  0  0  0  0  0  0  0  0  0
  186.0760  178.0490  142.8090 C   0  0  0  0  0  3  0  0  0  0  0  0
  187.0190  178.3170  141.8650 N   0  0  0  0  0  0  0  0  0  0  0  0
  185.9000  176.7450  143.2750 C   0  0  0  0  0  3  0  0  0  0  0  0
  187.8160  177.3380  141.3540 C   0  0  0  0  0  3  0  0  0  0  0  0
  186.7050  175.7270  142.7620 C   0  0  0  0  0  3  0  0  0  0  0  0
  1  4  1  1  0  0  0
  1  9  1  0  0  0  0
  2 17  1  1  0  0  0
  2  1  1  0  0  0  0
  2  5  1  0  0  0  0
  3  6  1  6  0  0  0
  5 10  1  6  0  0  0
  5  7  1  0  0  0  0
  8  4  1  6  0  0  0
  8  6  1  0  0  0  0
  8  3  1  0  0  0  0
  9  3  1  0  0  0  0
  9  7  1  1  0  0  0
 11 12  1  0  0  0  0
 12 14  2  0  0  0  0
 12 10  1  0  0  0  0
 13 14  1  0  0  0  0
 15 13  2  0  0  0  0
 16 15  1  0  0  0  0
 16 11  2  0  0  0  0
 18 17  1  0  0  0  0
 19 24  1  0  0  0  0
 19 20  2  0  0  0  0
 20 21  1  0  0  0  0
 22 25  1  0  0  0  0
 22 27  1  1  0  0  0
 22 23  1  0  0  0  0
 23 24  1  0  0  0  0
 24 26  1  0  0  0  0
 25 19  1  0  0  0  0
 26 21  2  0  0  0  0
 26 18  1  0  0  0  0
 27 32  1  0  0  0  0
 28 30  1  0  0  0  0
 29 28  2  0  0  0  0
 31 27  2  0  0  0  0
 31 29  1  0  0  0  0
 32 30  2  0  0  0  0
M  END
>  <MODEL>
7

>  <REMARK>
 VINA RESULT:      -7.5      2.104      4.935
  Name = 
  6 active torsions:
  status: ('A' for Active; 'I' for Inactive)
    1  A    between atoms: C_2  and  C_11
    2  A    between atoms: C_9  and  C_16
    3  A    between atoms: C_10  and  O_30
    4  A    between atoms: C_16  and  C_21
    5  A    between atoms: C_18  and  C_23
    6  A    between atoms: C_18  and  O_30
                            x       y       z     vdW  Elec       q    Type
                         _______ _______ _______ _____ _____    ______ ____

>  <TORSDO>
F 6

$$$$
=
 OpenBabel11062420343D

 32 38  0  0  1  0  0  0  0  0999 V2000
  186.0990  176.9190  144.0410 C   0  0  1  0  0  3  0  0  0  0  0  0
  187.5090  176.3300  144.0110 C   0  0  1  0  0  3  0  0  0  0  0  0
  185.9280  179.2720  144.1440 C   0  0  1  0  0  3  0  0  0  0  0  0
  185.5810  177.2510  145.4290 C   0  0  0  0  0  2  0  0  0  0  0  0
  188.1630  176.9870  142.8220 C   0  0  2  0  0  3  0  0  0  0  0  0
  184.4990  179.3570  144.6440 C   0  0  0  0  0  2  0  0  0  0  0  0
  187.3880  178.2700  142.6050 C   0  0  0  0  0  2  0  0  0  0  0  0
  185.5790  178.7590  145.5290 C   0  0  2  0  0  3  0  0  0  0  0  0
  186.0760  178.1380  143.2340 N   0  0  1  0  0  0  0  0  0  0  0  0
  188.0190  176.0890  141.6020 C   0  0  0  0  0  2  0  0  0  0  0  0
  190.2020  174.9170  141.9870 C   0  0  0  0  0  3  0  0  0  0  0  0
  188.8160  174.8390  141.7860 C   0  0  0  0  0  0  0  0  0  0  0  0
  188.9510  172.4140  141.8750 C   0  0  0  0  0  3  0  0  0  0  0  0
  188.1930  173.5850  141.7260 C   0  0  0  0  0  3  0  0  0  0  0  0
  190.3340  172.4960  142.0820 C   0  0  0  0  0  3  0  0  0  0  0  0
  190.9590  173.7470  142.1340 C   0  0  0  0  0  3  0  0  0  0  0  0
  188.2310  176.6390  145.1710 O   0  0  0  0  0  0  0  0  0  0  0  0
  188.9460  175.4720  145.4550 C   0  0  0  0  0  2  0  0  0  0  0  0
  192.0260  176.3610  147.0040 C   0  0  0  0  0  0  0  0  0  0  0  0
  191.5460  175.6290  148.0310 N   0  0  0  0  0  0  0  0  0  0  0  0
  190.2890  175.2930  147.6380 C   0  0  0  0  0  3  0  0  0  0  0  0
  193.2450  176.6730  145.0190 C   0  0  1  0  0  3  0  0  0  0  0  0
  191.7980  176.5950  144.7760 N   0  0  0  0  0  2  0  0  0  0  0  0
  191.1750  176.4840  146.0120 N   0  0  0  0  0  0  0  0  0  0  0  0
  193.4370  176.4500  146.5480 C   0  0  0  0  0  2  0  0  0  0  0  0
  190.0890  175.7860  146.3570 C   0  0  0  0  0  0  0  0  0  0  0  0
  193.9850  175.6280  144.2360 C   0  0  0  0  0  0  0  0  0  0  0  0
  195.4410  173.7590  142.7840 C   0  0  0  0  0  3  0  0  0  0  0  0
  195.6560  175.0920  142.6090 N   0  0  0  0  0  0  0  0  0  0  0  0
  194.4880  173.3170  143.7030 C   0  0  0  0  0  3  0  0  0  0  0  0
  194.9570  176.0260  143.3120 C   0  0  0  0  0  3  0  0  0  0  0  0
  193.7630  174.2580  144.4350 C   0  0  0  0  0  3  0  0  0  0  0  0
  1  4  1  1  0  0  0
  2  1  1  0  0  0  0
  2 17  1  1  0  0  0
  3  6  1  6  0  0  0
  3  8  1  0  0  0  0
  4  8  1  0  0  0  0
  5 10  1  6  0  0  0
  5  2  1  0  0  0  0
  7  5  1  0  0  0  0
  8  6  1  6  0  0  0
  9  7  1  1  0  0  0
  9  1  1  0  0  0  0
  9  3  1  0  0  0  0
 10 12  1  0  0  0  0
 11 16  1  0  0  0  0
 12 11  2  0  0  0  0
 13 15  1  0  0  0  0
 14 12  1  0  0  0  0
 14 13  2  0  0  0  0
 15 16  2  0  0  0  0
 17 18  1  0  0  0  0
 18 26  1  0  0  0  0
 19 20  2  0  0  0  0
 21 20  1  0  0  0  0
 22 27  1  6  0  0  0
 22 25  1  0  0  0  0
 23 22  1  0  0  0  0
 23 24  1  0  0  0  0
 24 26  1  0  0  0  0
 24 19  1  0  0  0  0
 25 19  1  0  0  0  0
 26 21  2  0  0  0  0
 27 32  1  0  0  0  0
 28 30  1  0  0  0  0
 29 28  2  0  0  0  0
 29 31  1  0  0  0  0
 30 32  2  0  0  0  0
 31 27  2  0  0  0  0
M  END
>  <MODEL>
8

>  <REMARK>
 VINA RESULT:      -7.4      2.071      7.772
  Name = 
  6 active torsions:
  status: ('A' for Active; 'I' for Inactive)
    1  A    between atoms: C_2  and  C_11
    2  A    between atoms: C_9  and  C_16
    3  A    between atoms: C_10  and  O_30
    4  A    between atoms: C_16  and  C_21
    5  A    between atoms: C_18  and  C_23
    6  A    between atoms: C_18  and  O_30
                            x       y       z     vdW  Elec       q    Type
                         _______ _______ _______ _____ _____    ______ ____

>  <TORSDO>
F 6

$$$$
=
 OpenBabel11062420343D

 32 38  0  0  1  0  0  0  0  0999 V2000
  189.3280  176.9330  146.1660 C   0  0  1  0  0  3  0  0  0  0  0  0
  190.2740  175.9230  145.5190 C   0  0  1  0  0  3  0  0  0  0  0  0
  187.4050  176.0650  147.2290 C   0  0  1  0  0  3  0  0  0  0  0  0
  188.1430  177.3340  145.3040 C   0  0  0  0  0  2  0  0  0  0  0  0
  190.6360  174.9790  146.6380 C   0  0  2  0  0  3  0  0  0  0  0  0
  186.5850  177.3390  147.2520 C   0  0  0  0  0  2  0  0  0  0  0  0
  189.5060  175.1020  147.6380 C   0  0  0  0  0  2  0  0  0  0  0  0
  186.9290  176.6820  145.9270 C   0  0  2  0  0  3  0  0  0  0  0  0
  188.8210  176.3740  147.4190 N   0  0  1  0  0  0  0  0  0  0  0  0
  191.9400  175.4300  147.2800 C   0  0  0  0  0  2  0  0  0  0  0  0
  193.9720  176.2210  146.0440 C   0  0  0  0  0  3  0  0  0  0  0  0
  193.0850  175.1800  146.3530 C   0  0  0  0  0  0  0  0  0  0  0  0
  194.3200  173.7010  144.8740 C   0  0  0  0  0  3  0  0  0  0  0  0
  193.2580  173.9210  145.7620 C   0  0  0  0  0  3  0  0  0  0  0  0
  195.2080  174.7410  144.5720 C   0  0  0  0  0  3  0  0  0  0  0  0
  195.0320  176.0010  145.1540 C   0  0  0  0  0  3  0  0  0  0  0  0
  189.6520  175.2070  144.4870 O   0  0  0  0  0  0  0  0  0  0  0  0
  190.2980  175.6400  143.3260 C   0  0  0  0  0  2  0  0  0  0  0  0
  187.8550  176.2380  140.8070 C   0  0  0  0  0  0  0  0  0  0  0  0
  187.8160  174.8910  140.7390 N   0  0  0  0  0  0  0  0  0  0  0  0
  188.8000  174.4880  141.5860 C   0  0  0  0  0  3  0  0  0  0  0  0
  187.1540  178.3340  141.6040 C   0  0  1  0  0  3  0  0  0  0  0  0
  188.4100  177.8940  142.2280 N   0  0  0  0  0  2  0  0  0  0  0  0
  188.7660  176.6890  141.6380 N   0  0  0  0  0  0  0  0  0  0  0  0
  186.7140  177.1770  140.6610 C   0  0  0  0  0  2  0  0  0  0  0  0
  189.3480  175.6160  142.1790 C   0  0  0  0  0  0  0  0  0  0  0  0
  186.0990  178.6050  142.6370 C   0  0  0  0  0  0  0  0  0  0  0  0
  184.1290  179.0010  144.5560 C   0  0  0  0  0  3  0  0  0  0  0  0
  184.0660  177.9380  143.7090 N   0  0  0  0  0  0  0  0  0  0  0  0
  185.1920  179.9020  144.4740 C   0  0  0  0  0  3  0  0  0  0  0  0
  185.0210  177.7220  142.7620 C   0  0  0  0  0  3  0  0  0  0  0  0
  186.1830  179.6970  143.5130 C   0  0  0  0  0  3  0  0  0  0  0  0
  1  4  1  6  0  0  0
  1  9  1  0  0  0  0
  2 17  1  6  0  0  0
  2  1  1  0  0  0  0
  2  5  1  0  0  0  0
  3  6  1  1  0  0  0
  3  9  1  0  0  0  0
  5 10  1  1  0  0  0
  5  7  1  0  0  0  0
  8  4  1  6  0  0  0
  8  3  1  0  0  0  0
  8  6  1  0  0  0  0
  9  7  1  6  0  0  0
 11 12  1  0  0  0  0
 12 10  1  0  0  0  0
 13 14  1  0  0  0  0
 14 12  2  0  0  0  0
 15 13  2  0  0  0  0
 15 16  1  0  0  0  0
 16 11  2  0  0  0  0
 18 17  1  0  0  0  0
 19 24  1  0  0  0  0
 20 19  2  0  0  0  0
 20 21  1  0  0  0  0
 21 26  2  0  0  0  0
 22 23  1  0  0  0  0
 22 27  1  1  0  0  0
 24 26  1  0  0  0  0
 24 23  1  0  0  0  0
 25 19  1  0  0  0  0
 25 22  1  0  0  0  0
 26 18  1  0  0  0  0
 27 31  2  0  0  0  0
 27 32  1  0  0  0  0
 29 28  2  0  0  0  0
 30 28  1  0  0  0  0
 31 29  1  0  0  0  0
 32 30  2  0  0  0  0
M  END
>  <MODEL>
9

>  <REMARK>
 VINA RESULT:      -7.4      2.082      4.862
  Name = 
  6 active torsions:
  status: ('A' for Active; 'I' for Inactive)
    1  A    between atoms: C_2  and  C_11
    2  A    between atoms: C_9  and  C_16
    3  A    between atoms: C_10  and  O_30
    4  A    between atoms: C_16  and  C_21
    5  A    between atoms: C_18  and  C_23
    6  A    between atoms: C_18  and  O_30
                            x       y       z     vdW  Elec       q    Type
                         _______ _______ _______ _____ _____    ______ ____

>  <TORSDO>
F 6

$$$$
