=
 OpenBabel11072408553D

 45 47  0  0  1  0  0  0  0  0999 V2000
  188.1630  174.1140  137.2410 N   0  0  0  0  0  1  0  0  0  0  0  0
  186.7400  177.4600  140.3890 N   0  0  0  0  0  1  0  0  0  0  0  0
  187.4050  176.2230  140.1480 C   0  0  0  0  0  0  0  0  0  0  0  0
  187.9830  175.5030  141.2040 C   0  0  0  0  0  0  0  0  0  0  0  0
  188.1070  174.5670  138.5890 C   0  0  0  0  0  0  0  0  0  0  0  0
  188.6850  173.8080  139.6150 C   0  0  0  0  0  0  0  0  0  0  0  0
  187.4850  175.7420  138.8780 N   0  0  0  0  0  0  0  0  0  0  0  0
  188.6160  174.2900  140.9300 C   0  0  0  0  0  3  0  0  0  0  0  0
  187.9210  175.9960  142.6110 C   0  0  0  0  0  2  0  0  0  0  0  0
  189.2220  175.8580  143.2410 N   0  0  0  0  0  2  0  0  0  0  0  0
  187.4820  176.4530  145.6350 C   0  0  1  0  0  3  0  0  0  0  0  0
  189.7980  175.6810  146.2320 C   0  0  1  0  0  3  0  0  0  0  0  0
  188.0580  177.4840  144.6620 C   0  0  0  0  0  2  0  0  0  0  0  0
  188.4590  176.1730  146.7760 C   0  0  0  0  0  2  0  0  0  0  0  0
  191.5920  176.2430  144.7200 O   0  0  0  0  0  1  0  0  0  0  0  0
  190.3820  176.7040  145.2450 C   0  0  1  0  0  3  0  0  0  0  0  0
  189.4050  177.0170  144.1050 C   0  0  1  0  0  3  0  0  0  0  0  0
  191.4720  175.2990  148.2830 C   0  0  0  0  0  3  0  0  0  0  0  0
  190.7170  175.4720  147.3570 C   0  0  0  0  0  0  0  0  0  0  0  0
  186.1110  176.8870  146.1530 C   0  0  0  0  0  2  0  0  0  0  0  0
  185.9380  178.4010  146.1880 C   0  0  2  0  0  3  0  0  0  0  0  0
  185.3860  178.8250  147.5350 C   0  0  0  0  0  1  0  0  0  0  0  0
  184.7930  178.9080  144.8720 P   0  0  0  0  0  0  0  0  0  0  0  0
  184.6970  177.6930  143.7000 O   0  0  0  0  0  0  0  0  0  0  0  0
  185.3560  180.3340  144.1560 O   0  0  0  0  0  1  0  0  0  0  0  0
  183.4200  179.1530  145.4580 O   0  0  0  0  0  1  0  0  0  0  0  0
  189.3170  172.5980  139.3140 O   0  0  0  0  0  0  0  0  0  0  0  0
  190.7290  172.4460  139.3350 C   0  0  0  0  0  2  0  0  0  0  0  0
  191.1310  171.5920  140.5220 C   0  0  0  0  0  2  0  0  0  0  0  0
  192.5920  171.7500  142.5670 C   0  0  0  0  0  0  0  0  0  0  0  0
  194.1410  172.0380  144.5710 C   0  0  0  0  0  0  0  0  0  0  0  0
  194.0960  170.8170  144.8700 O   0  0  0  0  0  0  0  0  0  0  0  0
  194.9280  172.9180  145.3850 N   0  0  0  0  0  2  0  0  0  0  0  0
  191.9680  172.3640  141.4290 N   0  0  0  0  0  0  0  0  0  0  0  0
  192.2420  173.7540  141.1010 C   0  0  0  0  0  1  0  0  0  0  0  0
  192.3970  170.5260  142.8060 O   0  0  0  0  0  0  0  0  0  0  0  0
  193.4280  172.5320  143.4300 N   0  0  0  0  0  2  0  0  0  0  0  0
  195.6100  174.9750  144.1750 C   0  0  0  0  0  3  0  0  0  0  0  0
  195.1260  177.1450  145.1300 C   0  0  0  0  0  3  0  0  0  0  0  0
  194.4750  175.1290  146.3040 C   0  0  0  0  0  3  0  0  0  0  0  0
  194.5310  176.5250  146.2310 C   0  0  0  0  0  0  0  0  0  0  0  0
  195.6660  176.3700  144.1000 C   0  0  0  0  0  0  0  0  0  0  0  0
  194.0060  177.2750  147.2300 F   0  0  0  0  0  0  0  0  0  0  0  0
  196.2390  176.9680  143.0290 F   0  0  0  0  0  0  0  0  0  0  0  0
  195.0170  174.3460  145.2800 C   0  0  0  0  0  0  0  0  0  0  0  0
  1  5  1  0  0  0  0
  3  2  1  0  0  0  0
  3  4  1  0  0  0  0
  4  9  1  0  0  0  0
  5  7  1  0  0  0  0
  5  6  2  0  0  0  0
  6  8  1  0  0  0  0
  7  3  2  0  0  0  0
  8  4  2  0  0  0  0
  9 10  1  0  0  0  0
 11 20  1  1  0  0  0
 11 14  1  0  0  0  0
 12 14  1  0  0  0  0
 12 19  1  1  0  0  0
 13 11  1  0  0  0  0
 16 15  1  6  0  0  0
 16 12  1  0  0  0  0
 17 10  1  1  0  0  0
 17 13  1  0  0  0  0
 17 16  1  0  0  0  0
 19 18  3  0  0  0  0
 20 21  1  0  0  0  0
 21 22  1  1  0  0  0
 23 26  1  0  0  0  0
 23 21  1  0  0  0  0
 24 23  2  0  0  0  0
 25 23  1  0  0  0  0
 27 28  1  0  0  0  0
 27  6  1  0  0  0  0
 28 29  1  0  0  0  0
 29 34  1  0  0  0  0
 30 36  2  0  0  0  0
 30 37  1  0  0  0  0
 31 32  2  0  0  0  0
 31 33  1  0  0  0  0
 34 30  1  0  0  0  0
 35 34  1  0  0  0  0
 37 31  1  0  0  0  0
 38 45  1  0  0  0  0
 39 41  2  0  0  0  0
 41 40  1  0  0  0  0
 41 43  1  0  0  0  0
 42 38  2  0  0  0  0
 42 39  1  0  0  0  0
 44 42  1  0  0  0  0
 45 33  1  0  0  0  0
 45 40  2  0  0  0  0
M  END
>  <MODEL>
1

>  <REMARK>
 VINA RESULT:      -7.6      0.000      0.000
  Name = 
  12 active torsions:
  status: ('A' for Active; 'I' for Inactive)
    1  A    between atoms: C_5  and  C_18
    2  A    between atoms: C_6  and  C_12
    3  A    between atoms: C_6  and  C_21
    4  A    between atoms: P_9  and  C_21
    5  A    between atoms: C_13  and  C_40
    6  A    between atoms: N_14  and  C_43
    7  A    between atoms: C_17  and  O_22
    8  A    between atoms: C_18  and  N_27
    9  A    between atoms: N_19  and  C_42
   10  A    between atoms: O_22  and  C_37
   11  A    between atoms: N_27  and  C_36
   12  A    between atoms: C_37  and  C_42
                            x       y       z     vdW  Elec       q    Type
                         _______ _______ _______ _____ _____    ______ ____

>  <TORSDO>
F 12

$$$$
=
 OpenBabel11072408553D

 45 47  0  0  1  0  0  0  0  0999 V2000
  186.7070  176.0070  137.0260 N   0  0  0  0  0  1  0  0  0  0  0  0
  186.4210  178.2410  141.2750 N   0  0  0  0  0  1  0  0  0  0  0  0
  186.9070  177.1410  140.5110 C   0  0  0  0  0  0  0  0  0  0  0  0
  187.6940  176.1460  141.1100 C   0  0  0  0  0  0  0  0  0  0  0  0
  187.0460  176.0350  138.4080 C   0  0  0  0  0  0  0  0  0  0  0  0
  187.8220  175.0120  138.9680 C   0  0  0  0  0  0  0  0  0  0  0  0
  186.6090  177.0620  139.1860 N   0  0  0  0  0  0  0  0  0  0  0  0
  188.1420  175.0780  140.3300 C   0  0  0  0  0  3  0  0  0  0  0  0
  188.0460  176.1950  142.5590 C   0  0  0  0  0  2  0  0  0  0  0  0
  189.4820  176.3500  142.7140 N   0  0  0  0  0  2  0  0  0  0  0  0
  188.5650  176.6270  145.5770 C   0  0  1  0  0  3  0  0  0  0  0  0
  191.0540  176.3790  145.3280 C   0  0  1  0  0  3  0  0  0  0  0  0
  188.5520  177.7300  144.5160 C   0  0  0  0  0  2  0  0  0  0  0  0
  189.9050  176.5910  146.3110 C   0  0  0  0  0  2  0  0  0  0  0  0
  192.0760  177.2670  143.3310 O   0  0  0  0  0  1  0  0  0  0  0  0
  191.0450  177.4760  144.2510 C   0  0  1  0  0  3  0  0  0  0  0  0
  189.6990  177.5440  143.5200 C   0  0  1  0  0  3  0  0  0  0  0  0
  193.3610  176.4170  146.6820 C   0  0  0  0  0  3  0  0  0  0  0  0
  192.3200  176.4000  146.0700 C   0  0  0  0  0  0  0  0  0  0  0  0
  187.3900  176.7740  146.5430 C   0  0  0  0  0  2  0  0  0  0  0  0
  186.8300  178.1910  146.5900 C   0  0  2  0  0  3  0  0  0  0  0  0
  186.5690  178.5930  148.0290 C   0  0  0  0  0  1  0  0  0  0  0  0
  185.2810  178.2590  145.6460 P   0  0  0  0  0  0  0  0  0  0  0  0
  185.2700  179.6370  144.6660 O   0  0  0  0  0  0  0  0  0  0  0  0
  183.9730  178.3220  146.7170 O   0  0  0  0  0  1  0  0  0  0  0  0
  185.1570  177.0250  144.7800 O   0  0  0  0  0  1  0  0  0  0  0  0
  188.2630  173.9550  138.1650 O   0  0  0  0  0  0  0  0  0  0  0  0
  189.6240  173.7930  137.7920 C   0  0  0  0  0  2  0  0  0  0  0  0
  190.1240  172.4420  138.2670 C   0  0  0  0  0  2  0  0  0  0  0  0
  190.3400  172.3190  140.7730 C   0  0  0  0  0  0  0  0  0  0  0  0
  190.7180  172.1790  143.2900 C   0  0  0  0  0  0  0  0  0  0  0  0
  189.5650  171.7230  143.5080 O   0  0  0  0  0  0  0  0  0  0  0  0
  191.5960  172.3890  144.4040 N   0  0  0  0  0  2  0  0  0  0  0  0
  190.9070  172.6020  139.4840 N   0  0  0  0  0  0  0  0  0  0  0  0
  192.3110  172.9590  139.3600 C   0  0  0  0  0  1  0  0  0  0  0  0
  189.1370  171.9490  140.8630 O   0  0  0  0  0  0  0  0  0  0  0  0
  191.1430  172.4650  141.9520 N   0  0  0  0  0  2  0  0  0  0  0  0
  193.2110  174.0400  143.4900 C   0  0  0  0  0  3  0  0  0  0  0  0
  195.4460  174.1650  144.4070 C   0  0  0  0  0  3  0  0  0  0  0  0
  193.8640  172.5540  145.2820 C   0  0  0  0  0  3  0  0  0  0  0  0
  195.1370  173.1330  145.2960 C   0  0  0  0  0  0  0  0  0  0  0  0
  194.4820  174.6190  143.5020 C   0  0  0  0  0  0  0  0  0  0  0  0
  196.0700  172.6930  146.1740 F   0  0  0  0  0  0  0  0  0  0  0  0
  194.7780  175.6230  142.6420 F   0  0  0  0  0  0  0  0  0  0  0  0
  192.8940  173.0000  144.3770 C   0  0  0  0  0  0  0  0  0  0  0  0
  1  5  1  0  0  0  0
  3  4  1  0  0  0  0
  3  2  1  0  0  0  0
  4  9  1  0  0  0  0
  5  6  2  0  0  0  0
  5  7  1  0  0  0  0
  6  8  1  0  0  0  0
  7  3  2  0  0  0  0
  8  4  2  0  0  0  0
  9 10  1  0  0  0  0
 11 14  1  0  0  0  0
 11 20  1  1  0  0  0
 12 19  1  1  0  0  0
 12 14  1  0  0  0  0
 13 11  1  0  0  0  0
 16 15  1  6  0  0  0
 16 12  1  0  0  0  0
 17 10  1  1  0  0  0
 17 16  1  0  0  0  0
 17 13  1  0  0  0  0
 19 18  3  0  0  0  0
 20 21  1  0  0  0  0
 21 22  1  1  0  0  0
 23 21  1  0  0  0  0
 23 25  1  0  0  0  0
 24 23  2  0  0  0  0
 26 23  1  0  0  0  0
 27  6  1  0  0  0  0
 28 27  1  0  0  0  0
 28 29  1  0  0  0  0
 29 34  1  0  0  0  0
 30 36  2  0  0  0  0
 30 37  1  0  0  0  0
 31 32  2  0  0  0  0
 31 33  1  0  0  0  0
 34 30  1  0  0  0  0
 35 34  1  0  0  0  0
 37 31  1  0  0  0  0
 38 42  2  0  0  0  0
 38 45  1  0  0  0  0
 39 41  2  0  0  0  0
 40 41  1  0  0  0  0
 41 43  1  0  0  0  0
 42 39  1  0  0  0  0
 44 42  1  0  0  0  0
 45 33  1  0  0  0  0
 45 40  2  0  0  0  0
M  END
>  <MODEL>
2

>  <REMARK>
 VINA RESULT:      -7.4      1.860      2.414
  Name = 
  12 active torsions:
  status: ('A' for Active; 'I' for Inactive)
    1  A    between atoms: C_5  and  C_18
    2  A    between atoms: C_6  and  C_12
    3  A    between atoms: C_6  and  C_21
    4  A    between atoms: P_9  and  C_21
    5  A    between atoms: C_13  and  C_40
    6  A    between atoms: N_14  and  C_43
    7  A    between atoms: C_17  and  O_22
    8  A    between atoms: C_18  and  N_27
    9  A    between atoms: N_19  and  C_42
   10  A    between atoms: O_22  and  C_37
   11  A    between atoms: N_27  and  C_36
   12  A    between atoms: C_37  and  C_42
                            x       y       z     vdW  Elec       q    Type
                         _______ _______ _______ _____ _____    ______ ____

>  <TORSDO>
F 12

$$$$
=
 OpenBabel11072408553D

 45 47  0  0  1  0  0  0  0  0999 V2000
  188.9610  173.3460  136.8790 N   0  0  0  0  0  1  0  0  0  0  0  0
  187.0420  176.4900  139.9720 N   0  0  0  0  0  1  0  0  0  0  0  0
  187.7730  175.2850  139.7610 C   0  0  0  0  0  0  0  0  0  0  0  0
  188.2390  174.5300  140.8470 C   0  0  0  0  0  0  0  0  0  0  0  0
  188.7210  173.7300  138.2290 C   0  0  0  0  0  0  0  0  0  0  0  0
  189.1920  172.9370  139.2840 C   0  0  0  0  0  0  0  0  0  0  0  0
  188.0280  174.8710  138.4900 N   0  0  0  0  0  0  0  0  0  0  0  0
  188.9420  173.3500  140.5990 C   0  0  0  0  0  3  0  0  0  0  0  0
  187.9850  174.9500  142.2560 C   0  0  0  0  0  2  0  0  0  0  0  0
  189.0590  174.4820  143.1140 N   0  0  0  0  0  2  0  0  0  0  0  0
  188.2140  176.9920  144.5620 C   0  0  1  0  0  3  0  0  0  0  0  0
  189.7760  175.5340  145.8850 C   0  0  1  0  0  3  0  0  0  0  0  0
  189.1470  176.9210  143.3510 C   0  0  0  0  0  2  0  0  0  0  0  0
  188.9990  176.8480  145.8660 C   0  0  0  0  0  2  0  0  0  0  0  0
  191.4000  174.2330  144.6660 O   0  0  0  0  0  1  0  0  0  0  0  0
  190.7100  175.4480  144.6680 C   0  0  1  0  0  3  0  0  0  0  0  0
  189.9440  175.6150  143.3500 C   0  0  1  0  0  3  0  0  0  0  0  0
  191.1880  175.4040  148.1540 C   0  0  0  0  0  3  0  0  0  0  0  0
  190.5500  175.4630  147.1310 C   0  0  0  0  0  0  0  0  0  0  0  0
  187.3750  178.2680  144.5410 C   0  0  0  0  0  2  0  0  0  0  0  0
  185.8850  178.0000  144.3550 C   0  0  2  0  0  3  0  0  0  0  0  0
  185.3010  178.9980  143.3740 C   0  0  0  0  0  1  0  0  0  0  0  0
  185.0400  178.1520  145.9560 P   0  0  0  0  0  0  0  0  0  0  0  0
  185.9740  179.0920  147.0060 O   0  0  0  0  0  1  0  0  0  0  0  0
  184.8220  176.6140  146.6240 O   0  0  0  0  0  1  0  0  0  0  0  0
  183.6910  178.8060  145.7590 O   0  0  0  0  0  0  0  0  0  0  0  0
  189.8970  171.7610  139.0090 O   0  0  0  0  0  0  0  0  0  0  0  0
  190.5990  171.0390  140.0120 C   0  0  0  0  0  2  0  0  0  0  0  0
  192.0920  171.1580  139.7720 C   0  0  0  0  0  2  0  0  0  0  0  0
  193.6180  173.0840  140.3210 C   0  0  0  0  0  0  0  0  0  0  0  0
  195.0730  175.0620  141.0060 C   0  0  0  0  0  0  0  0  0  0  0  0
  195.4350  175.2940  139.8230 O   0  0  0  0  0  0  0  0  0  0  0  0
  195.5780  175.8950  142.0570 N   0  0  0  0  0  2  0  0  0  0  0  0
  192.6770  172.0810  140.7340 N   0  0  0  0  0  0  0  0  0  0  0  0
  192.2120  172.0310  142.1100 C   0  0  0  0  0  1  0  0  0  0  0  0
  193.9670  173.1580  139.1100 O   0  0  0  0  0  0  0  0  0  0  0  0
  194.1610  173.9930  141.2870 N   0  0  0  0  0  2  0  0  0  0  0  0
  194.3980  176.4430  144.1720 C   0  0  0  0  0  3  0  0  0  0  0  0
  195.0220  175.3160  146.2200 C   0  0  0  0  0  3  0  0  0  0  0  0
  196.1710  174.7990  144.1520 C   0  0  0  0  0  3  0  0  0  0  0  0
  195.9960  174.5960  145.5250 C   0  0  0  0  0  0  0  0  0  0  0  0
  194.2230  176.2410  145.5430 C   0  0  0  0  0  0  0  0  0  0  0  0
  196.7710  173.6980  146.1790 F   0  0  0  0  0  0  0  0  0  0  0  0
  193.2750  176.9380  146.2140 F   0  0  0  0  0  0  0  0  0  0  0  0
  195.3770  175.7260  143.4670 C   0  0  0  0  0  0  0  0  0  0  0  0
  1  5  1  0  0  0  0
  3  2  1  0  0  0  0
  3  4  1  0  0  0  0
  4  9  1  0  0  0  0
  5  7  1  0  0  0  0
  5  6  2  0  0  0  0
  6  8  1  0  0  0  0
  7  3  2  0  0  0  0
  8  4  2  0  0  0  0
  9 10  1  0  0  0  0
 11 20  1  1  0  0  0
 11 14  1  0  0  0  0
 12 19  1  1  0  0  0
 13 11  1  0  0  0  0
 14 12  1  0  0  0  0
 16 15  1  6  0  0  0
 16 12  1  0  0  0  0
 17 10  1  1  0  0  0
 17 13  1  0  0  0  0
 17 16  1  0  0  0  0
 19 18  3  0  0  0  0
 21 22  1  6  0  0  0
 21 20  1  0  0  0  0
 21 23  1  0  0  0  0
 23 25  1  0  0  0  0
 23 24  1  0  0  0  0
 26 23  2  0  0  0  0
 27  6  1  0  0  0  0
 27 28  1  0  0  0  0
 29 28  1  0  0  0  0
 29 34  1  0  0  0  0
 30 34  1  0  0  0  0
 30 37  1  0  0  0  0
 31 37  1  0  0  0  0
 31 33  1  0  0  0  0
 32 31  2  0  0  0  0
 33 45  1  0  0  0  0
 34 35  1  0  0  0  0
 36 30  2  0  0  0  0
 38 42  1  0  0  0  0
 40 41  2  0  0  0  0
 41 43  1  0  0  0  0
 41 39  1  0  0  0  0
 42 44  1  0  0  0  0
 42 39  2  0  0  0  0
 45 40  1  0  0  0  0
 45 38  2  0  0  0  0
M  END
>  <MODEL>
3

>  <REMARK>
 VINA RESULT:      -7.3      2.053      2.597
  Name = 
  12 active torsions:
  status: ('A' for Active; 'I' for Inactive)
    1  A    between atoms: C_5  and  C_18
    2  A    between atoms: C_6  and  C_12
    3  A    between atoms: C_6  and  C_21
    4  A    between atoms: P_9  and  C_21
    5  A    between atoms: C_13  and  C_40
    6  A    between atoms: N_14  and  C_43
    7  A    between atoms: C_17  and  O_22
    8  A    between atoms: C_18  and  N_27
    9  A    between atoms: N_19  and  C_42
   10  A    between atoms: O_22  and  C_37
   11  A    between atoms: N_27  and  C_36
   12  A    between atoms: C_37  and  C_42
                            x       y       z     vdW  Elec       q    Type
                         _______ _______ _______ _____ _____    ______ ____

>  <TORSDO>
F 12

$$$$
=
 OpenBabel11072408553D

 45 47  0  0  1  0  0  0  0  0999 V2000
  190.4620  173.3140  137.0690 N   0  0  0  0  0  1  0  0  0  0  0  0
  194.8440  175.2170  137.6260 N   0  0  0  0  0  1  0  0  0  0  0  0
  193.6770  174.6570  138.2230 C   0  0  0  0  0  0  0  0  0  0  0  0
  193.5870  174.5070  139.6150 C   0  0  0  0  0  0  0  0  0  0  0  0
  191.5080  173.7170  137.9460 C   0  0  0  0  0  0  0  0  0  0  0  0
  191.3700  173.5630  139.3320 C   0  0  0  0  0  0  0  0  0  0  0  0
  192.6460  174.2580  137.4310 N   0  0  0  0  0  0  0  0  0  0  0  0
  192.4240  173.9650  140.1630 C   0  0  0  0  0  3  0  0  0  0  0  0
  194.6960  174.9290  140.5200 C   0  0  0  0  0  2  0  0  0  0  0  0
  194.5230  174.3270  141.8300 N   0  0  0  0  0  2  0  0  0  0  0  0
  193.7670  175.1910  144.6210 C   0  0  1  0  0  3  0  0  0  0  0  0
  195.3440  173.2350  144.5570 C   0  0  1  0  0  3  0  0  0  0  0  0
  194.6610  175.9650  143.6500 C   0  0  0  0  0  2  0  0  0  0  0  0
  194.5890  174.2110  145.4570 C   0  0  0  0  0  2  0  0  0  0  0  0
  196.9060  173.1140  142.7230 O   0  0  0  0  0  1  0  0  0  0  0  0
  196.2380  174.0020  143.5700 C   0  0  1  0  0  3  0  0  0  0  0  0
  195.4340  175.0100  142.7390 C   0  0  1  0  0  3  0  0  0  0  0  0
  196.8230  171.6180  146.0910 C   0  0  0  0  0  3  0  0  0  0  0  0
  196.1540  172.3480  145.3990 C   0  0  0  0  0  0  0  0  0  0  0  0
  192.9490  176.1400  145.4970 C   0  0  0  0  0  2  0  0  0  0  0  0
  191.4540  176.0850  145.2020 C   0  0  2  0  0  3  0  0  0  0  0  0
  191.0040  177.3950  144.5850 C   0  0  0  0  0  1  0  0  0  0  0  0
  190.5440  175.7930  146.7470 P   0  0  0  0  0  0  0  0  0  0  0  0
  189.8440  177.2370  147.2780 O   0  0  0  0  0  1  0  0  0  0  0  0
  191.6120  175.2190  147.9270 O   0  0  0  0  0  1  0  0  0  0  0  0
  189.4610  174.7640  146.5120 O   0  0  0  0  0  0  0  0  0  0  0  0
  190.1960  173.0130  139.8560 O   0  0  0  0  0  0  0  0  0  0  0  0
  189.5160  173.5790  140.9680 C   0  0  0  0  0  2  0  0  0  0  0  0
  188.6940  174.7680  140.5100 C   0  0  0  0  0  2  0  0  0  0  0  0
  187.0640  176.4200  141.4870 C   0  0  0  0  0  0  0  0  0  0  0  0
  185.4140  178.0050  142.6100 C   0  0  0  0  0  0  0  0  0  0  0  0
  184.9140  178.3730  141.5160 O   0  0  0  0  0  0  0  0  0  0  0  0
  184.9030  178.5720  143.8250 N   0  0  0  0  0  2  0  0  0  0  0  0
  188.0790  175.4190  141.6570 N   0  0  0  0  0  0  0  0  0  0  0  0
  188.4450  174.9620  142.9880 C   0  0  0  0  0  1  0  0  0  0  0  0
  186.7090  176.7640  140.3250 O   0  0  0  0  0  0  0  0  0  0  0  0
  186.4610  177.0280  142.6370 N   0  0  0  0  0  2  0  0  0  0  0  0
  185.8470  177.1150  145.6000 C   0  0  0  0  0  3  0  0  0  0  0  0
  186.4150  178.0620  147.7530 C   0  0  0  0  0  3  0  0  0  0  0  0
  185.4860  179.4690  146.0140 C   0  0  0  0  0  3  0  0  0  0  0  0
  185.9860  179.3160  147.3120 C   0  0  0  0  0  0  0  0  0  0  0  0
  186.3460  176.9600  146.8960 C   0  0  0  0  0  0  0  0  0  0  0  0
  186.0530  180.3850  148.1410 F   0  0  0  0  0  0  0  0  0  0  0  0
  186.7660  175.7440  147.3190 F   0  0  0  0  0  0  0  0  0  0  0  0
  185.4090  178.3700  145.1520 C   0  0  0  0  0  0  0  0  0  0  0  0
  1  5  1  0  0  0  0
  2  3  1  0  0  0  0
  3  4  1  0  0  0  0
  4  8  2  0  0  0  0
  4  9  1  0  0  0  0
  5  6  2  0  0  0  0
  6 27  1  0  0  0  0
  6  8  1  0  0  0  0
  7  5  1  0  0  0  0
  7  3  2  0  0  0  0
  9 10  1  0  0  0  0
 11 14  1  0  0  0  0
 11 20  1  1  0  0  0
 12 19  1  1  0  0  0
 12 14  1  0  0  0  0
 13 11  1  0  0  0  0
 16 15  1  6  0  0  0
 16 12  1  0  0  0  0
 17 10  1  6  0  0  0
 17 16  1  0  0  0  0
 17 13  1  0  0  0  0
 19 18  3  0  0  0  0
 21 22  1  1  0  0  0
 21 20  1  0  0  0  0
 21 23  1  0  0  0  0
 23 24  1  0  0  0  0
 23 25  1  0  0  0  0
 26 23  2  0  0  0  0
 27 28  1  0  0  0  0
 29 28  1  0  0  0  0
 29 34  1  0  0  0  0
 30 34  1  0  0  0  0
 30 37  1  0  0  0  0
 31 37  1  0  0  0  0
 31 33  1  0  0  0  0
 32 31  2  0  0  0  0
 33 45  1  0  0  0  0
 34 35  1  0  0  0  0
 36 30  2  0  0  0  0
 38 42  1  0  0  0  0
 40 41  2  0  0  0  0
 41 39  1  0  0  0  0
 41 43  1  0  0  0  0
 42 44  1  0  0  0  0
 42 39  2  0  0  0  0
 45 38  2  0  0  0  0
 45 40  1  0  0  0  0
M  END
>  <MODEL>
4

>  <REMARK>
 VINA RESULT:      -7.3      3.109      7.422
  Name = 
  12 active torsions:
  status: ('A' for Active; 'I' for Inactive)
    1  A    between atoms: C_5  and  C_18
    2  A    between atoms: C_6  and  C_12
    3  A    between atoms: C_6  and  C_21
    4  A    between atoms: P_9  and  C_21
    5  A    between atoms: C_13  and  C_40
    6  A    between atoms: N_14  and  C_43
    7  A    between atoms: C_17  and  O_22
    8  A    between atoms: C_18  and  N_27
    9  A    between atoms: N_19  and  C_42
   10  A    between atoms: O_22  and  C_37
   11  A    between atoms: N_27  and  C_36
   12  A    between atoms: C_37  and  C_42
                            x       y       z     vdW  Elec       q    Type
                         _______ _______ _______ _____ _____    ______ ____

>  <TORSDO>
F 12

$$$$
=
 OpenBabel11072408553D

 45 47  0  0  1  0  0  0  0  0999 V2000
  192.5930  174.8610  137.4080 N   0  0  0  0  0  1  0  0  0  0  0  0
  197.1190  174.7600  139.0320 N   0  0  0  0  0  1  0  0  0  0  0  0
  195.7440  174.4540  139.2470 C   0  0  0  0  0  0  0  0  0  0  0  0
  195.3270  173.8210  140.4280 C   0  0  0  0  0  0  0  0  0  0  0  0
  193.5050  174.5070  138.4430 C   0  0  0  0  0  0  0  0  0  0  0  0
  193.0420  173.8880  139.6120 C   0  0  0  0  0  0  0  0  0  0  0  0
  194.8300  174.7740  138.2920 N   0  0  0  0  0  0  0  0  0  0  0  0
  193.9700  173.5480  140.6060 C   0  0  0  0  0  3  0  0  0  0  0  0
  196.2970  173.4500  141.4990 C   0  0  0  0  0  2  0  0  0  0  0  0
  195.6480  172.6000  142.4810 N   0  0  0  0  0  2  0  0  0  0  0  0
  193.9690  173.3230  144.8830 C   0  0  1  0  0  3  0  0  0  0  0  0
  195.0590  171.0650  145.0500 C   0  0  1  0  0  3  0  0  0  0  0  0
  195.3060  173.9580  144.4950 C   0  0  0  0  0  2  0  0  0  0  0  0
  194.1840  172.0930  145.7640 C   0  0  0  0  0  2  0  0  0  0  0  0
  197.1920  170.7650  143.9650 O   0  0  0  0  0  1  0  0  0  0  0  0
  196.4010  171.6940  144.6460 C   0  0  1  0  0  3  0  0  0  0  0  0
  196.2050  172.9460  143.7820 C   0  0  1  0  0  3  0  0  0  0  0  0
  195.4560  168.9880  146.6900 C   0  0  0  0  0  3  0  0  0  0  0  0
  195.2770  169.9260  145.9500 C   0  0  0  0  0  0  0  0  0  0  0  0
  193.0440  174.3430  145.5460 C   0  0  0  0  0  2  0  0  0  0  0  0
  193.3850  175.7840  145.1820 C   0  0  2  0  0  3  0  0  0  0  0  0
  193.2850  176.6630  146.4130 C   0  0  0  0  0  1  0  0  0  0  0  0
  192.2280  176.3760  143.9130 P   0  0  0  0  0  0  0  0  0  0  0  0
  192.9760  176.3390  142.3970 O   0  0  0  0  0  0  0  0  0  0  0  0
  191.7650  177.9620  144.2720 O   0  0  0  0  0  1  0  0  0  0  0  0
  191.0010  175.4920  143.8910 O   0  0  0  0  0  1  0  0  0  0  0  0
  191.6780  173.6220  139.7660 O   0  0  0  0  0  0  0  0  0  0  0  0
  191.1940  172.4190  140.3470 C   0  0  0  0  0  2  0  0  0  0  0  0
  189.6820  172.3750  140.2380 C   0  0  0  0  0  2  0  0  0  0  0  0
  188.4540  174.5170  140.7290 C   0  0  0  0  0  0  0  0  0  0  0  0
  187.1620  176.6210  141.3650 C   0  0  0  0  0  0  0  0  0  0  0  0
  186.9930  176.9640  140.1660 O   0  0  0  0  0  0  0  0  0  0  0  0
  186.6300  177.4570  142.4010 N   0  0  0  0  0  2  0  0  0  0  0  0
  189.0890  173.3120  141.1810 N   0  0  0  0  0  0  0  0  0  0  0  0
  189.0630  172.9500  142.5900 C   0  0  0  0  0  1  0  0  0  0  0  0
  188.4270  174.7900  139.4970 O   0  0  0  0  0  0  0  0  0  0  0  0
  187.8590  175.4100  141.6810 N   0  0  0  0  0  2  0  0  0  0  0  0
  185.7560  176.9390  144.6660 C   0  0  0  0  0  3  0  0  0  0  0  0
  187.2500  176.9860  146.5680 C   0  0  0  0  0  3  0  0  0  0  0  0
  188.0860  177.4990  144.3540 C   0  0  0  0  0  3  0  0  0  0  0  0
  188.3060  177.3440  145.7270 C   0  0  0  0  0  0  0  0  0  0  0  0
  185.9730  176.7830  146.0380 C   0  0  0  0  0  0  0  0  0  0  0  0
  189.5440  177.5400  146.2400 F   0  0  0  0  0  0  0  0  0  0  0  0
  184.9480  176.4320  146.8510 F   0  0  0  0  0  0  0  0  0  0  0  0
  186.8110  177.3020  143.8150 C   0  0  0  0  0  0  0  0  0  0  0  0
  1  5  1  0  0  0  0
  2  3  1  0  0  0  0
  3  4  1  0  0  0  0
  4  8  2  0  0  0  0
  4  9  1  0  0  0  0
  5  6  2  0  0  0  0
  6 27  1  0  0  0  0
  6  8  1  0  0  0  0
  7  5  1  0  0  0  0
  7  3  2  0  0  0  0
  9 10  1  0  0  0  0
 11 20  1  1  0  0  0
 11 14  1  0  0  0  0
 12 14  1  0  0  0  0
 12 19  1  1  0  0  0
 13 11  1  0  0  0  0
 16 15  1  6  0  0  0
 16 12  1  0  0  0  0
 17 10  1  6  0  0  0
 17 13  1  0  0  0  0
 17 16  1  0  0  0  0
 19 18  3  0  0  0  0
 21 20  1  0  0  0  0
 21 22  1  1  0  0  0
 23 25  1  0  0  0  0
 23 21  1  0  0  0  0
 24 23  2  0  0  0  0
 26 23  1  0  0  0  0
 27 28  1  0  0  0  0
 29 28  1  0  0  0  0
 29 34  1  0  0  0  0
 30 34  1  0  0  0  0
 30 37  1  0  0  0  0
 31 37  1  0  0  0  0
 31 33  1  0  0  0  0
 32 31  2  0  0  0  0
 33 45  1  0  0  0  0
 34 35  1  0  0  0  0
 36 30  2  0  0  0  0
 38 42  1  0  0  0  0
 40 41  2  0  0  0  0
 41 43  1  0  0  0  0
 41 39  1  0  0  0  0
 42 39  2  0  0  0  0
 42 44  1  0  0  0  0
 45 40  1  0  0  0  0
 45 38  2  0  0  0  0
M  END
>  <MODEL>
5

>  <REMARK>
 VINA RESULT:      -7.1      3.127      7.484
  Name = 
  12 active torsions:
  status: ('A' for Active; 'I' for Inactive)
    1  A    between atoms: C_5  and  C_18
    2  A    between atoms: C_6  and  C_12
    3  A    between atoms: C_6  and  C_21
    4  A    between atoms: P_9  and  C_21
    5  A    between atoms: C_13  and  C_40
    6  A    between atoms: N_14  and  C_43
    7  A    between atoms: C_17  and  O_22
    8  A    between atoms: C_18  and  N_27
    9  A    between atoms: N_19  and  C_42
   10  A    between atoms: O_22  and  C_37
   11  A    between atoms: N_27  and  C_36
   12  A    between atoms: C_37  and  C_42
                            x       y       z     vdW  Elec       q    Type
                         _______ _______ _______ _____ _____    ______ ____

>  <TORSDO>
F 12

$$$$
=
 OpenBabel11072408553D

 45 47  0  0  1  0  0  0  0  0999 V2000
  184.2310  178.6170  145.8900 N   0  0  0  0  0  1  0  0  0  0  0  0
  184.9390  177.9080  141.1860 N   0  0  0  0  0  1  0  0  0  0  0  0
  185.3490  177.6590  142.5280 C   0  0  0  0  0  0  0  0  0  0  0  0
  186.4560  176.8400  142.7970 C   0  0  0  0  0  0  0  0  0  0  0  0
  184.9990  178.0120  144.8550 C   0  0  0  0  0  0  0  0  0  0  0  0
  186.1060  177.2130  145.1700 C   0  0  0  0  0  0  0  0  0  0  0  0
  184.6530  178.2150  143.5550 N   0  0  0  0  0  0  0  0  0  0  0  0
  186.8330  176.6280  144.1250 C   0  0  0  0  0  3  0  0  0  0  0  0
  187.2450  176.2070  141.7010 C   0  0  0  0  0  2  0  0  0  0  0  0
  188.4690  175.6380  142.2370 N   0  0  0  0  0  2  0  0  0  0  0  0
  189.6690  173.5600  140.4040 C   0  0  1  0  0  3  0  0  0  0  0  0
  190.6960  173.6050  142.6980 C   0  0  1  0  0  3  0  0  0  0  0  0
  188.2660  173.5200  141.0160 C   0  0  0  0  0  2  0  0  0  0  0  0
  190.6890  172.9100  141.3380 C   0  0  0  0  0  2  0  0  0  0  0  0
  189.2840  174.2420  144.5470 O   0  0  0  0  0  1  0  0  0  0  0  0
  189.2890  173.5790  143.3170 C   0  0  1  0  0  3  0  0  0  0  0  0
  188.2460  174.2050  142.3840 C   0  0  1  0  0  3  0  0  0  0  0  0
  192.4400  172.3540  144.2950 C   0  0  0  0  0  3  0  0  0  0  0  0
  191.6530  172.9180  143.5730 C   0  0  0  0  0  0  0  0  0  0  0  0
  189.6850  172.9270  139.0140 C   0  0  0  0  0  2  0  0  0  0  0  0
  190.3820  173.7950  137.9710 C   0  0  2  0  0  3  0  0  0  0  0  0
  189.4030  174.1690  136.8750 C   0  0  0  0  0  1  0  0  0  0  0  0
  191.7770  172.8770  137.2570 P   0  0  0  0  0  0  0  0  0  0  0  0
  191.1960  171.6190  136.2880 O   0  0  0  0  0  0  0  0  0  0  0  0
  192.7220  172.2330  138.5040 O   0  0  0  0  0  1  0  0  0  0  0  0
  192.6250  173.8090  136.4200 O   0  0  0  0  0  1  0  0  0  0  0  0
  186.4620  177.0130  146.5070 O   0  0  0  0  0  0  0  0  0  0  0  0
  187.6570  176.3460  146.8900 C   0  0  0  0  0  2  0  0  0  0  0  0
  188.7440  177.3680  147.1620 C   0  0  0  0  0  2  0  0  0  0  0  0
  190.3400  177.2860  145.2160 C   0  0  0  0  0  0  0  0  0  0  0  0
  192.0740  177.1760  143.3510 C   0  0  0  0  0  0  0  0  0  0  0  0
  191.4030  177.9180  142.5880 O   0  0  0  0  0  0  0  0  0  0  0  0
  193.3320  176.6690  142.8860 N   0  0  0  0  0  2  0  0  0  0  0  0
  189.9970  176.9310  146.5640 N   0  0  0  0  0  0  0  0  0  0  0  0
  190.9450  176.2090  147.3980 C   0  0  0  0  0  1  0  0  0  0  0  0
  189.5350  177.9680  144.5220 O   0  0  0  0  0  0  0  0  0  0  0  0
  191.5910  176.8590  144.6630 N   0  0  0  0  0  2  0  0  0  0  0  0
  194.4310  175.7930  144.9330 C   0  0  0  0  0  3  0  0  0  0  0  0
  195.8390  173.8300  144.7920 C   0  0  0  0  0  3  0  0  0  0  0  0
  194.7680  174.7020  142.8030 C   0  0  0  0  0  3  0  0  0  0  0  0
  195.5950  173.7560  143.4190 C   0  0  0  0  0  0  0  0  0  0  0  0
  195.2570  174.8490  145.5510 C   0  0  0  0  0  0  0  0  0  0  0  0
  196.1580  172.7690  142.6830 F   0  0  0  0  0  0  0  0  0  0  0  0
  195.4880  174.9210  146.8830 F   0  0  0  0  0  0  0  0  0  0  0  0
  194.1850  175.7280  143.5530 C   0  0  0  0  0  0  0  0  0  0  0  0
  2  3  1  0  0  0  0
  3  4  2  0  0  0  0
  3  7  1  0  0  0  0
  4  8  1  0  0  0  0
  5  6  1  0  0  0  0
  5  1  1  0  0  0  0
  6 27  1  0  0  0  0
  7  5  2  0  0  0  0
  8  6  2  0  0  0  0
  9 10  1  0  0  0  0
  9  4  1  0  0  0  0
 11 20  1  6  0  0  0
 11 13  1  0  0  0  0
 11 14  1  0  0  0  0
 12 16  1  0  0  0  0
 12 19  1  1  0  0  0
 13 17  1  0  0  0  0
 14 12  1  0  0  0  0
 16 15  1  1  0  0  0
 17 10  1  6  0  0  0
 17 16  1  0  0  0  0
 19 18  3  0  0  0  0
 21 22  1  6  0  0  0
 21 20  1  0  0  0  0
 23 21  1  0  0  0  0
 23 25  1  0  0  0  0
 24 23  2  0  0  0  0
 26 23  1  0  0  0  0
 27 28  1  0  0  0  0
 28 29  1  0  0  0  0
 30 34  1  0  0  0  0
 31 37  1  0  0  0  0
 32 31  2  0  0  0  0
 33 31  1  0  0  0  0
 33 45  1  0  0  0  0
 34 29  1  0  0  0  0
 34 35  1  0  0  0  0
 36 30  2  0  0  0  0
 37 30  1  0  0  0  0
 38 42  1  0  0  0  0
 39 42  2  0  0  0  0
 40 41  2  0  0  0  0
 40 45  1  0  0  0  0
 41 39  1  0  0  0  0
 42 44  1  0  0  0  0
 43 41  1  0  0  0  0
 45 38  2  0  0  0  0
M  END
>  <MODEL>
6

>  <REMARK>
 VINA RESULT:      -7.0      3.190      6.980
  Name = 
  12 active torsions:
  status: ('A' for Active; 'I' for Inactive)
    1  A    between atoms: C_5  and  C_18
    2  A    between atoms: C_6  and  C_12
    3  A    between atoms: C_6  and  C_21
    4  A    between atoms: P_9  and  C_21
    5  A    between atoms: C_13  and  C_40
    6  A    between atoms: N_14  and  C_43
    7  A    between atoms: C_17  and  O_22
    8  A    between atoms: C_18  and  N_27
    9  A    between atoms: N_19  and  C_42
   10  A    between atoms: O_22  and  C_37
   11  A    between atoms: N_27  and  C_36
   12  A    between atoms: C_37  and  C_42
                            x       y       z     vdW  Elec       q    Type
                         _______ _______ _______ _____ _____    ______ ____

>  <TORSDO>
F 12

$$$$
=
 OpenBabel11072408553D

 45 47  0  0  1  0  0  0  0  0999 V2000
  189.2260  174.2480  140.8070 N   0  0  0  0  0  1  0  0  0  0  0  0
  191.2800  169.9680  140.0360 N   0  0  0  0  0  1  0  0  0  0  0  0
  191.3330  171.2450  140.6650 C   0  0  0  0  0  0  0  0  0  0  0  0
  192.4130  171.5930  141.4900 C   0  0  0  0  0  0  0  0  0  0  0  0
  190.3160  173.3630  141.0450 C   0  0  0  0  0  0  0  0  0  0  0  0
  191.3820  173.7580  141.8640 C   0  0  0  0  0  0  0  0  0  0  0  0
  190.3190  172.1310  140.4690 N   0  0  0  0  0  0  0  0  0  0  0  0
  192.4340  172.8570  142.0800 C   0  0  0  0  0  3  0  0  0  0  0  0
  193.5440  170.6510  141.7340 C   0  0  0  0  0  2  0  0  0  0  0  0
  193.8710  170.6260  143.1490 N   0  0  0  0  0  2  0  0  0  0  0  0
  196.3840  171.4220  144.6190 C   0  0  1  0  0  3  0  0  0  0  0  0
  194.9810  169.7380  145.8480 C   0  0  1  0  0  3  0  0  0  0  0  0
  196.3150  170.5760  143.3460 C   0  0  0  0  0  2  0  0  0  0  0  0
  196.2770  170.5440  145.8650 C   0  0  0  0  0  2  0  0  0  0  0  0
  193.6950  168.1760  144.5330 O   0  0  0  0  0  1  0  0  0  0  0  0
  194.8950  168.8910  144.5680 C   0  0  1  0  0  3  0  0  0  0  0  0
  195.0260  169.7530  143.3060 C   0  0  1  0  0  3  0  0  0  0  0  0
  194.9170  168.1680  148.0130 C   0  0  0  0  0  3  0  0  0  0  0  0
  194.9450  168.8760  147.0350 C   0  0  0  0  0  0  0  0  0  0  0  0
  197.6420  172.2890  144.6400 C   0  0  0  0  0  2  0  0  0  0  0  0
  197.3690  173.7270  145.0700 C   0  0  2  0  0  3  0  0  0  0  0  0
  196.9020  173.7530  146.5120 C   0  0  0  0  0  1  0  0  0  0  0  0
  196.0880  174.4430  144.0000 P   0  0  0  0  0  0  0  0  0  0  0  0
  194.5590  173.9870  144.5580 O   0  0  0  0  0  1  0  0  0  0  0  0
  196.2990  173.8810  142.4190 O   0  0  0  0  0  0  0  0  0  0  0  0
  196.2000  175.9510  144.0110 O   0  0  0  0  0  1  0  0  0  0  0  0
  191.3780  175.0290  142.4470 O   0  0  0  0  0  0  0  0  0  0  0  0
  192.5050  175.8930  142.4060 C   0  0  0  0  0  2  0  0  0  0  0  0
  192.6860  176.5560  143.7580 C   0  0  0  0  0  2  0  0  0  0  0  0
  190.7820  175.9180  145.2770 C   0  0  0  0  0  0  0  0  0  0  0  0
  188.8170  175.4280  146.8260 C   0  0  0  0  0  0  0  0  0  0  0  0
  189.3340  174.3650  147.2590 O   0  0  0  0  0  0  0  0  0  0  0  0
  187.5330  175.8220  147.3260 N   0  0  0  0  0  2  0  0  0  0  0  0
  191.3870  176.8350  144.3530 N   0  0  0  0  0  0  0  0  0  0  0  0
  190.7580  178.1150  144.0680 C   0  0  0  0  0  1  0  0  0  0  0  0
  191.3680  174.8380  145.5650 O   0  0  0  0  0  0  0  0  0  0  0  0
  189.5110  176.2310  145.8630 N   0  0  0  0  0  2  0  0  0  0  0  0
  185.9520  176.8600  145.7170 C   0  0  0  0  0  3  0  0  0  0  0  0
  185.1730  179.1210  146.0900 C   0  0  0  0  0  3  0  0  0  0  0  0
  186.7220  178.0980  147.6460 C   0  0  0  0  0  3  0  0  0  0  0  0
  185.9450  179.1930  147.2510 C   0  0  0  0  0  0  0  0  0  0  0  0
  185.1750  177.9530  145.3220 C   0  0  0  0  0  0  0  0  0  0  0  0
  185.9430  180.3240  147.9970 F   0  0  0  0  0  0  0  0  0  0  0  0
  184.4240  177.8780  144.1980 F   0  0  0  0  0  0  0  0  0  0  0  0
  186.7340  176.9270  146.8800 C   0  0  0  0  0  0  0  0  0  0  0  0
  1  5  1  0  0  0  0
  2  3  1  0  0  0  0
  3  4  1  0  0  0  0
  4  9  1  0  0  0  0
  4  8  2  0  0  0  0
  5  6  2  0  0  0  0
  6  8  1  0  0  0  0
  6 27  1  0  0  0  0
  7  3  2  0  0  0  0
  7  5  1  0  0  0  0
  9 10  1  0  0  0  0
 11 20  1  1  0  0  0
 11 14  1  0  0  0  0
 12 14  1  0  0  0  0
 12 19  1  1  0  0  0
 13 11  1  0  0  0  0
 16 15  1  6  0  0  0
 16 12  1  0  0  0  0
 17 10  1  1  0  0  0
 17 13  1  0  0  0  0
 17 16  1  0  0  0  0
 19 18  3  0  0  0  0
 20 21  1  0  0  0  0
 21 22  1  1  0  0  0
 23 26  1  0  0  0  0
 23 24  1  0  0  0  0
 23 21  1  0  0  0  0
 25 23  2  0  0  0  0
 28 27  1  0  0  0  0
 28 29  1  0  0  0  0
 29 34  1  0  0  0  0
 30 36  2  0  0  0  0
 30 37  1  0  0  0  0
 31 32  2  0  0  0  0
 31 33  1  0  0  0  0
 34 30  1  0  0  0  0
 35 34  1  0  0  0  0
 37 31  1  0  0  0  0
 38 45  1  0  0  0  0
 39 41  2  0  0  0  0
 41 40  1  0  0  0  0
 41 43  1  0  0  0  0
 42 38  2  0  0  0  0
 42 39  1  0  0  0  0
 44 42  1  0  0  0  0
 45 33  1  0  0  0  0
 45 40  2  0  0  0  0
M  END
>  <MODEL>
7

>  <REMARK>
 VINA RESULT:      -7.0      4.182      8.564
  Name = 
  12 active torsions:
  status: ('A' for Active; 'I' for Inactive)
    1  A    between atoms: C_5  and  C_18
    2  A    between atoms: C_6  and  C_12
    3  A    between atoms: C_6  and  C_21
    4  A    between atoms: P_9  and  C_21
    5  A    between atoms: C_13  and  C_40
    6  A    between atoms: N_14  and  C_43
    7  A    between atoms: C_17  and  O_22
    8  A    between atoms: C_18  and  N_27
    9  A    between atoms: N_19  and  C_42
   10  A    between atoms: O_22  and  C_37
   11  A    between atoms: N_27  and  C_36
   12  A    between atoms: C_37  and  C_42
                            x       y       z     vdW  Elec       q    Type
                         _______ _______ _______ _____ _____    ______ ____

>  <TORSDO>
F 12

$$$$
=
 OpenBabel11072408553D

 45 47  0  0  1  0  0  0  0  0999 V2000
  193.7150  176.4290  141.1750 N   0  0  0  0  0  1  0  0  0  0  0  0
  197.9410  174.2150  140.5710 N   0  0  0  0  0  1  0  0  0  0  0  0
  196.5710  174.1340  140.9520 C   0  0  0  0  0  0  0  0  0  0  0  0
  196.0160  172.9160  141.3710 C   0  0  0  0  0  0  0  0  0  0  0  0
  194.4800  175.2310  141.2530 C   0  0  0  0  0  0  0  0  0  0  0  0
  193.8880  174.0390  141.6910 C   0  0  0  0  0  0  0  0  0  0  0  0
  195.7950  175.2500  140.9000 N   0  0  0  0  0  0  0  0  0  0  0  0
  194.6720  172.8790  141.7470 C   0  0  0  0  0  3  0  0  0  0  0  0
  196.8310  171.6680  141.4390 C   0  0  0  0  0  2  0  0  0  0  0  0
  196.5830  170.9830  142.6950 N   0  0  0  0  0  2  0  0  0  0  0  0
  196.4030  172.7690  145.1220 C   0  0  1  0  0  3  0  0  0  0  0  0
  196.6400  170.3280  145.6740 C   0  0  1  0  0  3  0  0  0  0  0  0
  197.5840  172.6820  144.1540 C   0  0  0  0  0  2  0  0  0  0  0  0
  196.5400  171.7410  146.2450 C   0  0  0  0  0  2  0  0  0  0  0  0
  197.8940  168.9490  144.1430 O   0  0  0  0  0  1  0  0  0  0  0  0
  197.8180  170.2310  144.6920 C   0  0  1  0  0  3  0  0  0  0  0  0
  197.7110  171.2730  143.5710 C   0  0  1  0  0  3  0  0  0  0  0  0
  196.9670  168.6070  147.6960 C   0  0  0  0  0  3  0  0  0  0  0  0
  196.8190  169.3830  146.7830 C   0  0  0  0  0  0  0  0  0  0  0  0
  196.2360  174.1870  145.6660 C   0  0  0  0  0  2  0  0  0  0  0  0
  195.4830  175.1080  144.7120 C   0  0  2  0  0  3  0  0  0  0  0  0
  196.4060  176.2080  144.2230 C   0  0  0  0  0  1  0  0  0  0  0  0
  194.0630  175.8400  145.5740 P   0  0  0  0  0  0  0  0  0  0  0  0
  194.5660  177.1930  146.4550 O   0  0  0  0  0  1  0  0  0  0  0  0
  193.3980  174.6990  146.6310 O   0  0  0  0  0  1  0  0  0  0  0  0
  193.0140  176.2560  144.5660 O   0  0  0  0  0  0  0  0  0  0  0  0
  192.5390  174.0270  142.0590 O   0  0  0  0  0  0  0  0  0  0  0  0
  191.5760  173.2090  141.4090 C   0  0  0  0  0  2  0  0  0  0  0  0
  190.6270  172.6260  142.4390 C   0  0  0  0  0  2  0  0  0  0  0  0
  190.0000  174.0510  144.4170 C   0  0  0  0  0  0  0  0  0  0  0  0
  189.3140  175.6060  146.3180 C   0  0  0  0  0  0  0  0  0  0  0  0
  190.1630  175.1240  147.1120 O   0  0  0  0  0  0  0  0  0  0  0  0
  188.4590  176.6600  146.7810 N   0  0  0  0  0  2  0  0  0  0  0  0
  189.8320  173.6880  143.0390 N   0  0  0  0  0  0  0  0  0  0  0  0
  188.9320  174.4440  142.1830 C   0  0  0  0  0  1  0  0  0  0  0  0
  190.8320  173.4290  145.1350 O   0  0  0  0  0  0  0  0  0  0  0  0
  189.2180  175.1160  144.9740 N   0  0  0  0  0  2  0  0  0  0  0  0
  187.5350  177.8980  144.8370 C   0  0  0  0  0  3  0  0  0  0  0  0
  185.1650  178.3760  144.7360 C   0  0  0  0  0  3  0  0  0  0  0  0
  186.0820  177.1770  146.6300 C   0  0  0  0  0  3  0  0  0  0  0  0
  184.9860  177.7370  145.9640 C   0  0  0  0  0  0  0  0  0  0  0  0
  186.4410  178.4570  144.1710 C   0  0  0  0  0  0  0  0  0  0  0  0
  183.7500  177.6570  146.5120 F   0  0  0  0  0  0  0  0  0  0  0  0
  186.6170  179.0730  142.9770 F   0  0  0  0  0  0  0  0  0  0  0  0
  187.3630  177.2570  146.0740 C   0  0  0  0  0  0  0  0  0  0  0  0
  1  5  1  0  0  0  0
  2  3  1  0  0  0  0
  3  4  1  0  0  0  0
  4  9  1  0  0  0  0
  4  8  2  0  0  0  0
  5  6  2  0  0  0  0
  6  8  1  0  0  0  0
  6 27  1  0  0  0  0
  7  3  2  0  0  0  0
  7  5  1  0  0  0  0
  9 10  1  0  0  0  0
 11 20  1  1  0  0  0
 11 14  1  0  0  0  0
 12 14  1  0  0  0  0
 12 19  1  1  0  0  0
 13 11  1  0  0  0  0
 16 15  1  6  0  0  0
 16 12  1  0  0  0  0
 17 10  1  1  0  0  0
 17 13  1  0  0  0  0
 17 16  1  0  0  0  0
 19 18  3  0  0  0  0
 21 22  1  1  0  0  0
 21 23  1  0  0  0  0
 21 20  1  0  0  0  0
 23 24  1  0  0  0  0
 23 25  1  0  0  0  0
 26 23  2  0  0  0  0
 28 27  1  0  0  0  0
 28 29  1  0  0  0  0
 29 34  1  0  0  0  0
 30 37  1  0  0  0  0
 30 36  2  0  0  0  0
 31 33  1  0  0  0  0
 31 32  2  0  0  0  0
 34 30  1  0  0  0  0
 35 34  1  0  0  0  0
 37 31  1  0  0  0  0
 38 45  1  0  0  0  0
 39 41  2  0  0  0  0
 41 43  1  0  0  0  0
 41 40  1  0  0  0  0
 42 39  1  0  0  0  0
 42 38  2  0  0  0  0
 44 42  1  0  0  0  0
 45 40  2  0  0  0  0
 45 33  1  0  0  0  0
M  END
>  <MODEL>
8

>  <REMARK>
 VINA RESULT:      -7.0      4.021      8.481
  Name = 
  12 active torsions:
  status: ('A' for Active; 'I' for Inactive)
    1  A    between atoms: C_5  and  C_18
    2  A    between atoms: C_6  and  C_12
    3  A    between atoms: C_6  and  C_21
    4  A    between atoms: P_9  and  C_21
    5  A    between atoms: C_13  and  C_40
    6  A    between atoms: N_14  and  C_43
    7  A    between atoms: C_17  and  O_22
    8  A    between atoms: C_18  and  N_27
    9  A    between atoms: N_19  and  C_42
   10  A    between atoms: O_22  and  C_37
   11  A    between atoms: N_27  and  C_36
   12  A    between atoms: C_37  and  C_42
                            x       y       z     vdW  Elec       q    Type
                         _______ _______ _______ _____ _____    ______ ____

>  <TORSDO>
F 12

$$$$
=
 OpenBabel11072408553D

 45 47  0  0  1  0  0  0  0  0999 V2000
  191.7090  175.0140  141.4160 N   0  0  0  0  0  1  0  0  0  0  0  0
  196.4130  174.9130  140.4170 N   0  0  0  0  0  1  0  0  0  0  0  0
  195.2720  174.2560  140.9630 C   0  0  0  0  0  0  0  0  0  0  0  0
  195.3790  172.9660  141.5020 C   0  0  0  0  0  0  0  0  0  0  0  0
  192.9450  174.3080  141.4580 C   0  0  0  0  0  0  0  0  0  0  0  0
  193.0090  173.0260  142.0200 C   0  0  0  0  0  0  0  0  0  0  0  0
  194.0670  174.8870  140.9510 N   0  0  0  0  0  0  0  0  0  0  0  0
  194.2410  172.3590  142.0380 C   0  0  0  0  0  3  0  0  0  0  0  0
  196.6810  172.2370  141.5320 C   0  0  0  0  0  2  0  0  0  0  0  0
  196.6620  171.2330  142.5800 N   0  0  0  0  0  2  0  0  0  0  0  0
  196.3390  173.0500  144.9690 C   0  0  1  0  0  3  0  0  0  0  0  0
  196.5940  170.6220  145.5680 C   0  0  1  0  0  3  0  0  0  0  0  0
  197.5660  172.9700  144.0570 C   0  0  0  0  0  2  0  0  0  0  0  0
  196.4430  172.0400  146.1130 C   0  0  0  0  0  2  0  0  0  0  0  0
  197.9410  169.2440  144.1170 O   0  0  0  0  0  1  0  0  0  0  0  0
  197.8180  170.5320  144.6420 C   0  0  1  0  0  3  0  0  0  0  0  0
  197.7440  171.5550  143.5020 C   0  0  1  0  0  3  0  0  0  0  0  0
  196.8560  168.9350  147.6280 C   0  0  0  0  0  3  0  0  0  0  0  0
  196.7380  169.6960  146.6980 C   0  0  0  0  0  0  0  0  0  0  0  0
  196.1230  174.4720  145.4840 C   0  0  0  0  0  2  0  0  0  0  0  0
  195.3180  175.3390  144.5200 C   0  0  2  0  0  3  0  0  0  0  0  0
  196.2110  176.4100  143.9250 C   0  0  0  0  0  1  0  0  0  0  0  0
  193.9430  176.1180  145.4150 P   0  0  0  0  0  0  0  0  0  0  0  0
  192.6610  176.4060  144.3510 O   0  0  0  0  0  0  0  0  0  0  0  0
  194.4630  177.5850  146.0770 O   0  0  0  0  0  1  0  0  0  0  0  0
  193.4790  175.2060  146.5290 O   0  0  0  0  0  1  0  0  0  0  0  0
  191.8550  172.4390  142.5470 O   0  0  0  0  0  0  0  0  0  0  0  0
  191.7560  172.0270  143.9030 C   0  0  0  0  0  2  0  0  0  0  0  0
  190.2950  171.9220  144.2970 C   0  0  0  0  0  2  0  0  0  0  0  0
  189.7100  174.3380  144.6970 C   0  0  0  0  0  0  0  0  0  0  0  0
  189.0850  176.7970  144.9450 C   0  0  0  0  0  0  0  0  0  0  0  0
  189.8220  176.9550  145.9530 O   0  0  0  0  0  0  0  0  0  0  0  0
  188.3280  177.9150  144.4650 N   0  0  0  0  0  2  0  0  0  0  0  0
  189.5900  173.1380  143.9190 N   0  0  0  0  0  0  0  0  0  0  0  0
  188.8370  173.1400  142.6750 C   0  0  0  0  0  1  0  0  0  0  0  0
  190.4180  174.3410  145.7420 O   0  0  0  0  0  0  0  0  0  0  0  0
  189.0200  175.5260  144.2870 N   0  0  0  0  0  2  0  0  0  0  0  0
  187.7210  177.8730  142.0580 C   0  0  0  0  0  3  0  0  0  0  0  0
  185.3900  177.8750  141.4080 C   0  0  0  0  0  3  0  0  0  0  0  0
  185.9970  177.9250  143.7520 C   0  0  0  0  0  3  0  0  0  0  0  0
  185.0170  177.9090  142.7540 C   0  0  0  0  0  0  0  0  0  0  0  0
  186.7430  177.8570  141.0590 C   0  0  0  0  0  0  0  0  0  0  0  0
  183.7060  177.9260  143.0930 F   0  0  0  0  0  0  0  0  0  0  0  0
  187.1080  177.8200  139.7550 F   0  0  0  0  0  0  0  0  0  0  0  0
  187.3540  177.9120  143.4120 C   0  0  0  0  0  0  0  0  0  0  0  0
  1  5  1  0  0  0  0
  2  3  1  0  0  0  0
  3  4  1  0  0  0  0
  4  9  1  0  0  0  0
  4  8  2  0  0  0  0
  5  6  2  0  0  0  0
  6  8  1  0  0  0  0
  6 27  1  0  0  0  0
  7  3  2  0  0  0  0
  7  5  1  0  0  0  0
  9 10  1  0  0  0  0
 11 20  1  1  0  0  0
 11 14  1  0  0  0  0
 12 14  1  0  0  0  0
 12 19  1  1  0  0  0
 13 11  1  0  0  0  0
 16 15  1  6  0  0  0
 16 12  1  0  0  0  0
 17 10  1  6  0  0  0
 17 13  1  0  0  0  0
 17 16  1  0  0  0  0
 19 18  3  0  0  0  0
 21 22  1  1  0  0  0
 21 23  1  0  0  0  0
 21 20  1  0  0  0  0
 23 25  1  0  0  0  0
 23 26  1  0  0  0  0
 24 23  2  0  0  0  0
 27 28  1  0  0  0  0
 28 29  1  0  0  0  0
 30 36  2  0  0  0  0
 31 32  2  0  0  0  0
 33 31  1  0  0  0  0
 34 29  1  0  0  0  0
 34 30  1  0  0  0  0
 35 34  1  0  0  0  0
 37 30  1  0  0  0  0
 37 31  1  0  0  0  0
 38 45  1  0  0  0  0
 39 41  2  0  0  0  0
 41 43  1  0  0  0  0
 41 40  1  0  0  0  0
 42 39  1  0  0  0  0
 42 38  2  0  0  0  0
 44 42  1  0  0  0  0
 45 40  2  0  0  0  0
 45 33  1  0  0  0  0
M  END
>  <MODEL>
9

>  <REMARK>
 VINA RESULT:      -7.0      3.966      8.368
  Name = 
  12 active torsions:
  status: ('A' for Active; 'I' for Inactive)
    1  A    between atoms: C_5  and  C_18
    2  A    between atoms: C_6  and  C_12
    3  A    between atoms: C_6  and  C_21
    4  A    between atoms: P_9  and  C_21
    5  A    between atoms: C_13  and  C_40
    6  A    between atoms: N_14  and  C_43
    7  A    between atoms: C_17  and  O_22
    8  A    between atoms: C_18  and  N_27
    9  A    between atoms: N_19  and  C_42
   10  A    between atoms: O_22  and  C_37
   11  A    between atoms: N_27  and  C_36
   12  A    between atoms: C_37  and  C_42
                            x       y       z     vdW  Elec       q    Type
                         _______ _______ _______ _____ _____    ______ ____

>  <TORSDO>
F 12

$$$$
