=
 OpenBabel11062422073D

 27 28  0  0  1  0  0  0  0  0999 V2000
  189.1770  175.4370  145.9580 C   0  0  1  0  0  3  0  0  0  0  0  0
  191.3490  175.8670  142.8960 C   0  0  2  0  0  3  0  0  0  0  0  0
  190.2350  176.9180  142.7390 C   0  0  0  0  0  2  0  0  0  0  0  0
  186.7730  175.8010  142.8270 O   0  0  0  0  0  0  0  0  0  0  0  0
  188.4660  177.3330  144.4480 C   0  0  0  0  0  2  0  0  0  0  0  0
  189.1140  174.7330  147.3000 C   0  0  0  0  0  2  0  0  0  0  0  0
  192.7740  175.9460  145.6670 O   0  0  0  0  0  0  0  0  0  0  0  0
  188.0720  176.4560  145.6420 C   0  0  2  0  0  3  0  0  0  0  0  0
  188.0100  175.6960  142.6080 C   0  0  0  0  0  0  0  0  0  0  0  0
  191.5720  175.6860  145.3960 C   0  0  0  0  0  0  0  0  0  0  0  0
  191.3630  175.0010  141.8050 O   0  0  0  0  0  1  0  0  0  0  0  0
  190.4910  175.2880  147.6360 C   0  0  0  0  0  2  0  0  0  0  0  0
  188.9400  176.5360  143.3150 N   0  0  0  0  0  0  0  0  0  0  0  0
  191.2360  175.1090  144.1320 N   0  0  0  0  0  2  0  0  0  0  0  0
  190.4890  176.0900  146.3460 C   0  0  2  0  0  3  0  0  0  0  0  0
  188.4760  174.6400  141.6600 C   0  0  0  0  0  2  0  0  0  0  0  0
  188.1870  173.2570  142.2240 C   0  0  0  0  0  2  0  0  0  0  0  0
  189.2430  172.2600  141.7750 C   0  0  0  0  0  2  0  0  0  0  0  0
  189.4110  172.1560  144.1520 O   0  0  0  0  0  1  0  0  0  0  0  0
  190.0420  171.7710  142.9690 C   0  0  0  0  0  2  0  0  0  0  0  0
  187.6840  177.3500  146.8190 C   0  0  0  0  0  2  0  0  0  0  0  0
  185.8090  178.0370  148.1170 O   0  0  0  0  0  1  0  0  0  0  0  0
  186.3010  176.9910  147.3380 C   0  0  1  0  0  3  0  0  0  0  0  0
  185.3520  176.7270  146.1770 C   0  0  0  0  0  2  0  0  0  0  0  0
  184.5320  177.9710  145.8610 C   0  0  0  0  0  2  0  0  0  0  0  0
  185.5310  179.7300  144.3900 C   0  0  0  0  0  1  0  0  0  0  0  0
  184.7520  178.4280  144.4260 C   0  0  0  0  0  2  0  0  0  0  0  0
  1 15  1  0  0  0  0
  1  6  1  1  0  0  0
  2 11  1  6  0  0  0
  2 14  1  0  0  0  0
  3  2  1  0  0  0  0
  3 13  1  0  0  0  0
  5  8  1  0  0  0  0
  6 12  1  0  0  0  0
  8  1  1  0  0  0  0
  8 21  1  1  0  0  0
  9  4  2  0  0  0  0
  9 13  1  0  0  0  0
 10  7  2  0  0  0  0
 10 15  1  0  0  0  0
 13  5  1  0  0  0  0
 14 10  1  0  0  0  0
 15 12  1  1  0  0  0
 16 17  1  0  0  0  0
 16  9  1  0  0  0  0
 18 17  1  0  0  0  0
 18 20  1  0  0  0  0
 20 19  1  0  0  0  0
 21 23  1  0  0  0  0
 23 22  1  6  0  0  0
 24 23  1  0  0  0  0
 25 24  1  0  0  0  0
 26 27  1  0  0  0  0
 27 25  1  0  0  0  0
M  END
>  <MODEL>
1

>  <REMARK>
 VINA RESULT:      -6.6      0.000      0.000
  Name = 
  9 active torsions:
  status: ('A' for Active; 'I' for Inactive)
    1  A    between atoms: C_4  and  C_22
    2  A    between atoms: C_4  and  C_24
    3  A    between atoms: C_10  and  C_26
    4  A    between atoms: C_11  and  C_20
    5  A    between atoms: C_11  and  C_27
    6  A    between atoms: C_12  and  C_14
    7  A    between atoms: C_14  and  C_27
    8  A    between atoms: C_22  and  C_26
    9  A    between atoms: C_24  and  C_25
                            x       y       z     vdW  Elec       q    Type
                         _______ _______ _______ _____ _____    ______ ____

>  <TORSDO>
F 9

$$$$
=
 OpenBabel11062422073D

 27 28  0  0  1  0  0  0  0  0999 V2000
  189.1310  177.0190  144.7100 C   0  0  1  0  0  3  0  0  0  0  0  0
  190.2370  173.4060  144.6640 C   0  0  2  0  0  3  0  0  0  0  0  0
  189.7210  173.6410  146.0950 C   0  0  0  0  0  2  0  0  0  0  0  0
  191.1760  176.3510  148.0400 O   0  0  0  0  0  0  0  0  0  0  0  0
  188.6970  175.7800  146.8680 C   0  0  0  0  0  2  0  0  0  0  0  0
  188.8830  178.2130  143.8080 C   0  0  0  0  0  2  0  0  0  0  0  0
  188.2460  174.3070  142.4420 O   0  0  0  0  0  0  0  0  0  0  0  0
  188.7340  177.1540  146.1870 C   0  0  2  0  0  3  0  0  0  0  0  0
  191.1610  175.4400  147.1680 C   0  0  0  0  0  0  0  0  0  0  0  0
  188.8330  174.9990  143.3150 C   0  0  0  0  0  0  0  0  0  0  0  0
  191.5640  172.9820  144.6850 O   0  0  0  0  0  1  0  0  0  0  0  0
  187.9950  177.3440  142.9300 C   0  0  0  0  0  2  0  0  0  0  0  0
  189.9100  175.0050  146.6040 N   0  0  0  0  0  0  0  0  0  0  0  0
  190.1040  174.5810  143.8190 N   0  0  0  0  0  2  0  0  0  0  0  0
  188.1480  176.1900  143.9070 C   0  0  2  0  0  3  0  0  0  0  0  0
  192.4650  174.8880  146.6960 C   0  0  0  0  0  2  0  0  0  0  0  0
  193.3900  176.0140  146.2600 C   0  0  0  0  0  2  0  0  0  0  0  0
  193.1040  176.4220  144.8230 C   0  0  0  0  0  2  0  0  0  0  0  0
  195.4300  176.6470  144.3440 O   0  0  0  0  0  1  0  0  0  0  0  0
  194.2580  176.0170  143.9250 C   0  0  0  0  0  2  0  0  0  0  0  0
  187.4020  177.8670  146.4190 C   0  0  0  0  0  2  0  0  0  0  0  0
  185.9710  177.4140  148.2680 O   0  0  0  0  0  1  0  0  0  0  0  0
  186.3820  176.9210  147.0300 C   0  0  1  0  0  3  0  0  0  0  0  0
  185.1770  176.7770  146.1120 C   0  0  0  0  0  2  0  0  0  0  0  0
  184.5620  178.1390  145.8150 C   0  0  0  0  0  2  0  0  0  0  0  0
  185.3550  179.7630  144.0860 C   0  0  0  0  0  1  0  0  0  0  0  0
  184.6180  178.4580  144.3270 C   0  0  0  0  0  2  0  0  0  0  0  0
  1  6  1  6  0  0  0
  1  8  1  0  0  0  0
  2 11  1  1  0  0  0
  2  3  1  0  0  0  0
  3 13  1  0  0  0  0
  7 10  2  0  0  0  0
  8 21  1  6  0  0  0
  8  5  1  0  0  0  0
  9  4  2  0  0  0  0
 10 14  1  0  0  0  0
 10 15  1  0  0  0  0
 12  6  1  0  0  0  0
 13  5  1  0  0  0  0
 13  9  1  0  0  0  0
 14  2  1  0  0  0  0
 15 12  1  6  0  0  0
 15  1  1  0  0  0  0
 16  9  1  0  0  0  0
 17 16  1  0  0  0  0
 18 17  1  0  0  0  0
 20 19  1  0  0  0  0
 20 18  1  0  0  0  0
 21 23  1  0  0  0  0
 23 22  1  1  0  0  0
 24 23  1  0  0  0  0
 25 24  1  0  0  0  0
 26 27  1  0  0  0  0
 27 25  1  0  0  0  0
M  END
>  <MODEL>
2

>  <REMARK>
 VINA RESULT:      -6.5      1.763      4.280
  Name = 
  9 active torsions:
  status: ('A' for Active; 'I' for Inactive)
    1  A    between atoms: C_4  and  C_22
    2  A    between atoms: C_4  and  C_24
    3  A    between atoms: C_10  and  C_26
    4  A    between atoms: C_11  and  C_20
    5  A    between atoms: C_11  and  C_27
    6  A    between atoms: C_12  and  C_14
    7  A    between atoms: C_14  and  C_27
    8  A    between atoms: C_22  and  C_26
    9  A    between atoms: C_24  and  C_25
                            x       y       z     vdW  Elec       q    Type
                         _______ _______ _______ _____ _____    ______ ____

>  <TORSDO>
F 9

$$$$
=
 OpenBabel11062422073D

 27 28  0  0  1  0  0  0  0  0999 V2000
  189.2120  175.3950  145.9310 C   0  0  1  0  0  3  0  0  0  0  0  0
  191.4140  175.7540  142.8810 C   0  0  2  0  0  3  0  0  0  0  0  0
  190.2600  176.7480  142.6530 C   0  0  0  0  0  2  0  0  0  0  0  0
  186.8460  175.4940  142.7530 O   0  0  0  0  0  0  0  0  0  0  0  0
  188.4490  177.1780  144.3130 C   0  0  0  0  0  2  0  0  0  0  0  0
  189.1570  174.7600  147.3080 C   0  0  0  0  0  2  0  0  0  0  0  0
  192.7900  176.0370  145.6640 O   0  0  0  0  0  0  0  0  0  0  0  0
  188.0720  176.3490  145.5460 C   0  0  2  0  0  3  0  0  0  0  0  0
  188.0890  175.4290  142.5560 C   0  0  0  0  0  0  0  0  0  0  0  0
  191.6040  175.7140  145.3900 C   0  0  0  0  0  0  0  0  0  0  0  0
  191.4810  174.8330  141.8380 O   0  0  0  0  0  1  0  0  0  0  0  0
  190.5040  175.3880  147.6330 C   0  0  0  0  0  2  0  0  0  0  0  0
  188.9730  176.3440  143.2310 N   0  0  0  0  0  0  0  0  0  0  0  0
  191.3120  175.0580  144.1540 N   0  0  0  0  0  2  0  0  0  0  0  0
  190.4900  176.1220  146.3020 C   0  0  2  0  0  3  0  0  0  0  0  0
  188.6130  174.3460  141.6730 C   0  0  0  0  0  2  0  0  0  0  0  0
  188.3630  174.6870  140.2110 C   0  0  0  0  0  2  0  0  0  0  0  0
  188.3460  173.4280  139.3590 C   0  0  0  0  0  2  0  0  0  0  0  0
  190.6500  173.6660  138.7850 O   0  0  0  0  0  1  0  0  0  0  0  0
  189.3700  173.5390  138.2440 C   0  0  0  0  0  2  0  0  0  0  0  0
  187.6290  177.2870  146.6690 C   0  0  0  0  0  2  0  0  0  0  0  0
  185.8820  177.7580  148.2190 O   0  0  0  0  0  1  0  0  0  0  0  0
  186.2840  176.8580  147.2320 C   0  0  1  0  0  3  0  0  0  0  0  0
  185.2380  176.8110  146.1280 C   0  0  0  0  0  2  0  0  0  0  0  0
  184.4900  178.1340  146.0390 C   0  0  0  0  0  2  0  0  0  0  0  0
  185.6050  179.6990  144.4380 C   0  0  0  0  0  1  0  0  0  0  0  0
  184.4960  178.6790  144.6170 C   0  0  0  0  0  2  0  0  0  0  0  0
  1 15  1  0  0  0  0
  1  6  1  1  0  0  0
  2 11  1  6  0  0  0
  2 14  1  0  0  0  0
  3  2  1  0  0  0  0
  3 13  1  0  0  0  0
  5  8  1  0  0  0  0
  6 12  1  0  0  0  0
  8  1  1  0  0  0  0
  8 21  1  1  0  0  0
  9  4  2  0  0  0  0
  9 13  1  0  0  0  0
 10  7  2  0  0  0  0
 10 15  1  0  0  0  0
 13  5  1  0  0  0  0
 14 10  1  0  0  0  0
 15 12  1  1  0  0  0
 16  9  1  0  0  0  0
 17 16  1  0  0  0  0
 18 17  1  0  0  0  0
 20 19  1  0  0  0  0
 20 18  1  0  0  0  0
 21 23  1  0  0  0  0
 23 22  1  1  0  0  0
 24 23  1  0  0  0  0
 25 24  1  0  0  0  0
 26 27  1  0  0  0  0
 27 25  1  0  0  0  0
M  END
>  <MODEL>
3

>  <REMARK>
 VINA RESULT:      -6.3      1.137      1.651
  Name = 
  9 active torsions:
  status: ('A' for Active; 'I' for Inactive)
    1  A    between atoms: C_4  and  C_22
    2  A    between atoms: C_4  and  C_24
    3  A    between atoms: C_10  and  C_26
    4  A    between atoms: C_11  and  C_20
    5  A    between atoms: C_11  and  C_27
    6  A    between atoms: C_12  and  C_14
    7  A    between atoms: C_14  and  C_27
    8  A    between atoms: C_22  and  C_26
    9  A    between atoms: C_24  and  C_25
                            x       y       z     vdW  Elec       q    Type
                         _______ _______ _______ _____ _____    ______ ____

>  <TORSDO>
F 9

$$$$
=
 OpenBabel11062422073D

 27 28  0  0  1  0  0  0  0  0999 V2000
  189.6030  174.6660  143.0830 C   0  0  1  0  0  3  0  0  0  0  0  0
  187.2930  177.0630  141.2960 C   0  0  2  0  0  3  0  0  0  0  0  0
  188.4350  177.9440  141.8340 C   0  0  0  0  0  2  0  0  0  0  0  0
  189.1640  177.8540  145.3980 O   0  0  0  0  0  0  0  0  0  0  0  0
  190.4310  177.0520  143.0330 C   0  0  0  0  0  2  0  0  0  0  0  0
  189.8660  173.1880  143.3070 C   0  0  0  0  0  2  0  0  0  0  0  0
  188.2690  174.5750  139.6930 O   0  0  0  0  0  0  0  0  0  0  0  0
  190.6310  175.6600  143.6440 C   0  0  2  0  0  3  0  0  0  0  0  0
  188.4390  177.7710  144.3700 C   0  0  0  0  0  0  0  0  0  0  0  0
  188.4470  174.8620  140.9060 C   0  0  0  0  0  0  0  0  0  0  0  0
  186.0650  177.4980  141.7900 O   0  0  0  0  0  1  0  0  0  0  0  0
  189.8600  172.9770  141.7990 C   0  0  0  0  0  2  0  0  0  0  0  0
  189.0340  177.4810  143.0920 N   0  0  0  0  0  0  0  0  0  0  0  0
  187.4800  175.6540  141.6000 N   0  0  0  0  0  2  0  0  0  0  0  0
  189.7240  174.4750  141.5840 C   0  0  2  0  0  3  0  0  0  0  0  0
  186.9610  177.9090  144.5310 C   0  0  0  0  0  2  0  0  0  0  0  0
  186.3870  176.6820  145.2210 C   0  0  0  0  0  2  0  0  0  0  0  0
  185.2960  177.0770  146.2040 C   0  0  0  0  0  2  0  0  0  0  0  0
  183.7830  178.8820  145.8240 O   0  0  0  0  0  1  0  0  0  0  0  0
  185.0960  178.5810  146.1860 C   0  0  0  0  0  2  0  0  0  0  0  0
  192.0870  175.2320  143.4610 C   0  0  0  0  0  2  0  0  0  0  0  0
  193.0250  176.5930  145.1760 O   0  0  0  0  0  1  0  0  0  0  0  0
  192.8310  175.2680  144.7860 C   0  0  1  0  0  3  0  0  0  0  0  0
  192.0420  174.5300  145.8570 C   0  0  0  0  0  2  0  0  0  0  0  0
  192.0630  175.3040  147.1690 C   0  0  0  0  0  2  0  0  0  0  0  0
  189.6350  174.7140  147.0380 C   0  0  0  0  0  1  0  0  0  0  0  0
  190.6560  175.6800  147.6120 C   0  0  0  0  0  2  0  0  0  0  0  0
  1  6  1  1  0  0  0
  1  8  1  0  0  0  0
  2 14  1  0  0  0  0
  2 11  1  1  0  0  0
  2  3  1  0  0  0  0
  3 13  1  0  0  0  0
  5 13  1  0  0  0  0
  5  8  1  0  0  0  0
  7 10  2  0  0  0  0
  8 21  1  6  0  0  0
  9 16  1  0  0  0  0
  9  4  2  0  0  0  0
 10 15  1  0  0  0  0
 10 14  1  0  0  0  0
 12  6  1  0  0  0  0
 13  9  1  0  0  0  0
 15 12  1  1  0  0  0
 15  1  1  0  0  0  0
 16 17  1  0  0  0  0
 17 18  1  0  0  0  0
 19 20  1  0  0  0  0
 20 18  1  0  0  0  0
 21 23  1  0  0  0  0
 23 22  1  1  0  0  0
 23 24  1  0  0  0  0
 24 25  1  0  0  0  0
 25 27  1  0  0  0  0
 26 27  1  0  0  0  0
M  END
>  <MODEL>
4

>  <REMARK>
 VINA RESULT:      -6.3      1.981      5.889
  Name = 
  9 active torsions:
  status: ('A' for Active; 'I' for Inactive)
    1  A    between atoms: C_4  and  C_22
    2  A    between atoms: C_4  and  C_24
    3  A    between atoms: C_10  and  C_26
    4  A    between atoms: C_11  and  C_20
    5  A    between atoms: C_11  and  C_27
    6  A    between atoms: C_12  and  C_14
    7  A    between atoms: C_14  and  C_27
    8  A    between atoms: C_22  and  C_26
    9  A    between atoms: C_24  and  C_25
                            x       y       z     vdW  Elec       q    Type
                         _______ _______ _______ _____ _____    ______ ____

>  <TORSDO>
F 9

$$$$
=
 OpenBabel11062422073D

 27 28  0  0  1  0  0  0  0  0999 V2000
  189.3500  174.4280  145.3950 C   0  0  1  0  0  3  0  0  0  0  0  0
  187.7650  176.8510  142.9680 C   0  0  2  0  0  3  0  0  0  0  0  0
  188.1620  177.7120  144.1800 C   0  0  0  0  0  2  0  0  0  0  0  0
  186.9070  176.7670  147.4620 O   0  0  0  0  0  0  0  0  0  0  0  0
  189.3880  176.8340  146.1660 C   0  0  0  0  0  2  0  0  0  0  0  0
  189.8520  173.0020  145.5180 C   0  0  0  0  0  2  0  0  0  0  0  0
  190.0770  175.0650  141.8810 O   0  0  0  0  0  0  0  0  0  0  0  0
  189.6110  175.3740  146.5780 C   0  0  2  0  0  3  0  0  0  0  0  0
  186.8840  176.8600  146.2060 C   0  0  0  0  0  0  0  0  0  0  0  0
  189.5060  175.0350  143.0030 C   0  0  0  0  0  0  0  0  0  0  0  0
  186.3970  176.9490  142.7230 O   0  0  0  0  0  1  0  0  0  0  0  0
  190.6950  173.2090  144.2680 C   0  0  0  0  0  2  0  0  0  0  0  0
  188.1130  177.0190  145.4730 N   0  0  0  0  0  0  0  0  0  0  0  0
  188.1450  175.4560  143.1210 N   0  0  0  0  0  2  0  0  0  0  0  0
  190.2860  174.6720  144.2280 C   0  0  2  0  0  3  0  0  0  0  0  0
  185.5700  176.7290  145.5080 C   0  0  0  0  0  2  0  0  0  0  0  0
  184.6070  177.8060  145.9850 C   0  0  0  0  0  2  0  0  0  0  0  0
  185.1780  179.1920  145.7260 C   0  0  0  0  0  2  0  0  0  0  0  0
  183.6710  179.0710  143.8800 O   0  0  0  0  0  1  0  0  0  0  0  0
  184.8830  179.6200  144.3000 C   0  0  0  0  0  2  0  0  0  0  0  0
  190.9980  175.2320  147.2040 C   0  0  0  0  0  2  0  0  0  0  0  0
  191.6670  177.0590  148.5780 O   0  0  0  0  0  1  0  0  0  0  0  0
  191.7010  176.5780  147.2700 C   0  0  1  0  0  3  0  0  0  0  0  0
  193.1460  176.4440  146.8120 C   0  0  0  0  0  2  0  0  0  0  0  0
  193.4010  175.0580  146.2340 C   0  0  0  0  0  2  0  0  0  0  0  0
  194.8600  176.3300  144.6510 C   0  0  0  0  0  1  0  0  0  0  0  0
  193.9310  175.1420  144.8100 C   0  0  0  0  0  2  0  0  0  0  0  0
  1  6  1  1  0  0  0
  1  8  1  0  0  0  0
  2 11  1  1  0  0  0
  2 14  1  0  0  0  0
  2  3  1  0  0  0  0
  3 13  1  0  0  0  0
  5  8  1  0  0  0  0
  7 10  2  0  0  0  0
  8 21  1  6  0  0  0
  9  4  2  0  0  0  0
 10 14  1  0  0  0  0
 10 15  1  0  0  0  0
 12  6  1  0  0  0  0
 13  5  1  0  0  0  0
 13  9  1  0  0  0  0
 15 12  1  6  0  0  0
 15  1  1  0  0  0  0
 16 17  1  0  0  0  0
 16  9  1  0  0  0  0
 18 17  1  0  0  0  0
 19 20  1  0  0  0  0
 20 18  1  0  0  0  0
 21 23  1  0  0  0  0
 23 22  1  1  0  0  0
 24 23  1  0  0  0  0
 25 24  1  0  0  0  0
 26 27  1  0  0  0  0
 27 25  1  0  0  0  0
M  END
>  <MODEL>
5

>  <REMARK>
 VINA RESULT:      -6.2      1.963      5.853
  Name = 
  9 active torsions:
  status: ('A' for Active; 'I' for Inactive)
    1  A    between atoms: C_4  and  C_22
    2  A    between atoms: C_4  and  C_24
    3  A    between atoms: C_10  and  C_26
    4  A    between atoms: C_11  and  C_20
    5  A    between atoms: C_11  and  C_27
    6  A    between atoms: C_12  and  C_14
    7  A    between atoms: C_14  and  C_27
    8  A    between atoms: C_22  and  C_26
    9  A    between atoms: C_24  and  C_25
                            x       y       z     vdW  Elec       q    Type
                         _______ _______ _______ _____ _____    ______ ____

>  <TORSDO>
F 9

$$$$
=
 OpenBabel11062422073D

 27 28  0  0  1  0  0  0  0  0999 V2000
  189.5760  174.8620  144.1150 C   0  0  1  0  0  3  0  0  0  0  0  0
  186.7890  176.7640  142.4140 C   0  0  2  0  0  3  0  0  0  0  0  0
  187.5800  177.8340  143.1890 C   0  0  0  0  0  2  0  0  0  0  0  0
  188.0560  177.3850  146.7680 O   0  0  0  0  0  0  0  0  0  0  0  0
  189.6630  177.3610  144.4750 C   0  0  0  0  0  2  0  0  0  0  0  0
  190.2490  173.5030  144.1680 C   0  0  0  0  0  2  0  0  0  0  0  0
  188.5650  174.9420  140.6140 O   0  0  0  0  0  0  0  0  0  0  0  0
  190.2230  176.0030  144.9150 C   0  0  2  0  0  3  0  0  0  0  0  0
  187.4610  177.2660  145.6640 C   0  0  0  0  0  0  0  0  0  0  0  0
  188.5670  175.0700  141.8670 C   0  0  0  0  0  0  0  0  0  0  0  0
  185.4560  176.7500  142.8190 O   0  0  0  0  0  1  0  0  0  0  0  0
  190.4090  173.5420  142.6550 C   0  0  0  0  0  2  0  0  0  0  0  0
  188.2010  177.3640  144.4330 N   0  0  0  0  0  0  0  0  0  0  0  0
  187.3640  175.4350  142.5470 N   0  0  0  0  0  2  0  0  0  0  0  0
  189.8510  174.9560  142.6270 C   0  0  2  0  0  3  0  0  0  0  0  0
  186.0000  176.9540  145.6740 C   0  0  0  0  0  2  0  0  0  0  0  0
  185.3470  177.5200  146.9260 C   0  0  0  0  0  2  0  0  0  0  0  0
  184.5980  178.8050  146.6100 C   0  0  0  0  0  2  0  0  0  0  0  0
  184.7760  179.7900  144.4450 O   0  0  0  0  0  1  0  0  0  0  0  0
  184.1240  178.7920  145.1690 C   0  0  0  0  0  2  0  0  0  0  0  0
  191.7490  176.0380  144.8410 C   0  0  0  0  0  2  0  0  0  0  0  0
  191.4180  176.0940  147.1990 O   0  0  0  0  0  1  0  0  0  0  0  0
  192.3480  176.3720  146.1980 C   0  0  1  0  0  3  0  0  0  0  0  0
  193.6110  175.5570  146.4340 C   0  0  0  0  0  2  0  0  0  0  0  0
  193.4630  174.1560  145.8560 C   0  0  0  0  0  2  0  0  0  0  0  0
  195.9410  174.4940  145.8190 C   0  0  0  0  0  1  0  0  0  0  0  0
  194.7930  173.6300  145.3330 C   0  0  0  0  0  2  0  0  0  0  0  0
  1  6  1  1  0  0  0
  1  8  1  0  0  0  0
  2 14  1  0  0  0  0
  2 11  1  1  0  0  0
  2  3  1  0  0  0  0
  3 13  1  0  0  0  0
  5  8  1  0  0  0  0
  7 10  2  0  0  0  0
  8 21  1  6  0  0  0
  9 16  1  0  0  0  0
  9  4  2  0  0  0  0
 10 14  1  0  0  0  0
 10 15  1  0  0  0  0
 12  6  1  0  0  0  0
 13  5  1  0  0  0  0
 13  9  1  0  0  0  0
 15 12  1  6  0  0  0
 15  1  1  0  0  0  0
 16 17  1  0  0  0  0
 18 17  1  0  0  0  0
 19 20  1  0  0  0  0
 20 18  1  0  0  0  0
 21 23  1  0  0  0  0
 23 24  1  0  0  0  0
 23 22  1  1  0  0  0
 25 24  1  0  0  0  0
 27 26  1  0  0  0  0
 27 25  1  0  0  0  0
M  END
>  <MODEL>
6

>  <REMARK>
 VINA RESULT:      -6.0      2.154      6.410
  Name = 
  9 active torsions:
  status: ('A' for Active; 'I' for Inactive)
    1  A    between atoms: C_4  and  C_22
    2  A    between atoms: C_4  and  C_24
    3  A    between atoms: C_10  and  C_26
    4  A    between atoms: C_11  and  C_20
    5  A    between atoms: C_11  and  C_27
    6  A    between atoms: C_12  and  C_14
    7  A    between atoms: C_14  and  C_27
    8  A    between atoms: C_22  and  C_26
    9  A    between atoms: C_24  and  C_25
                            x       y       z     vdW  Elec       q    Type
                         _______ _______ _______ _____ _____    ______ ____

>  <TORSDO>
F 9

$$$$
=
 OpenBabel11062422073D

 27 28  0  0  1  0  0  0  0  0999 V2000
  188.3000  177.1660  142.6100 C   0  0  1  0  0  3  0  0  0  0  0  0
  190.3670  174.1500  143.5640 C   0  0  2  0  0  3  0  0  0  0  0  0
  189.6090  174.5290  144.8490 C   0  0  0  0  0  2  0  0  0  0  0  0
  189.9570  177.9160  146.1320 O   0  0  0  0  0  0  0  0  0  0  0  0
  187.9290  176.3680  144.9780 C   0  0  0  0  0  2  0  0  0  0  0  0
  187.8570  177.9940  141.4190 C   0  0  0  0  0  2  0  0  0  0  0  0
  188.5380  173.8780  141.0550 O   0  0  0  0  0  0  0  0  0  0  0  0
  187.6750  177.4990  143.9740 C   0  0  2  0  0  3  0  0  0  0  0  0
  190.3210  176.8750  145.5230 C   0  0  0  0  0  0  0  0  0  0  0  0
  188.7790  174.8940  141.7600 C   0  0  0  0  0  0  0  0  0  0  0  0
  191.7430  174.1680  143.7830 O   0  0  0  0  0  1  0  0  0  0  0  0
  187.3810  176.7210  140.7330 C   0  0  0  0  0  2  0  0  0  0  0  0
  189.3350  175.9630  145.0050 N   0  0  0  0  0  0  0  0  0  0  0  0
  190.0310  175.0080  142.4390 N   0  0  0  0  0  2  0  0  0  0  0  0
  187.7110  175.9190  141.9810 C   0  0  2  0  0  3  0  0  0  0  0  0
  191.7810  176.6570  145.2970 C   0  0  0  0  0  2  0  0  0  0  0  0
  192.4540  176.2020  146.5830 C   0  0  0  0  0  2  0  0  0  0  0  0
  193.9570  176.4160  146.5110 C   0  0  0  0  0  2  0  0  0  0  0  0
  195.6990  174.8300  146.1350 O   0  0  0  0  0  1  0  0  0  0  0  0
  194.5800  175.4220  145.5480 C   0  0  0  0  0  2  0  0  0  0  0  0
  186.1790  177.8030  143.9250 C   0  0  0  0  0  2  0  0  0  0  0  0
  185.5350  180.0680  144.2830 O   0  0  0  0  0  1  0  0  0  0  0  0
  185.8110  178.8710  144.9420 C   0  0  1  0  0  3  0  0  0  0  0  0
  184.5950  178.4380  145.7480 C   0  0  0  0  0  2  0  0  0  0  0  0
  184.8250  178.6680  147.2350 C   0  0  0  0  0  2  0  0  0  0  0  0
  187.0140  179.0500  148.3830 C   0  0  0  0  0  1  0  0  0  0  0  0
  186.1260  178.0280  147.6990 C   0  0  0  0  0  2  0  0  0  0  0  0
  1  6  1  6  0  0  0
  1  8  1  0  0  0  0
  2 11  1  1  0  0  0
  2  3  1  0  0  0  0
  3 13  1  0  0  0  0
  5 13  1  0  0  0  0
  7 10  2  0  0  0  0
  8 21  1  6  0  0  0
  8  5  1  0  0  0  0
  9  4  2  0  0  0  0
 10 15  1  0  0  0  0
 10 14  1  0  0  0  0
 12  6  1  0  0  0  0
 13  9  1  0  0  0  0
 14  2  1  0  0  0  0
 15 12  1  6  0  0  0
 15  1  1  0  0  0  0
 16  9  1  0  0  0  0
 16 17  1  0  0  0  0
 18 17  1  0  0  0  0
 20 19  1  0  0  0  0
 20 18  1  0  0  0  0
 21 23  1  0  0  0  0
 23 22  1  6  0  0  0
 23 24  1  0  0  0  0
 24 25  1  0  0  0  0
 25 27  1  0  0  0  0
 27 26  1  0  0  0  0
M  END
>  <MODEL>
7

>  <REMARK>
 VINA RESULT:      -5.9      2.113      4.677
  Name = 
  9 active torsions:
  status: ('A' for Active; 'I' for Inactive)
    1  A    between atoms: C_4  and  C_22
    2  A    between atoms: C_4  and  C_24
    3  A    between atoms: C_10  and  C_26
    4  A    between atoms: C_11  and  C_20
    5  A    between atoms: C_11  and  C_27
    6  A    between atoms: C_12  and  C_14
    7  A    between atoms: C_14  and  C_27
    8  A    between atoms: C_22  and  C_26
    9  A    between atoms: C_24  and  C_25
                            x       y       z     vdW  Elec       q    Type
                         _______ _______ _______ _____ _____    ______ ____

>  <TORSDO>
F 9

$$$$
=
 OpenBabel11062422073D

 27 28  0  0  1  0  0  0  0  0999 V2000
  190.3720  174.8480  145.4970 C   0  0  1  0  0  3  0  0  0  0  0  0
  193.6370  176.6000  146.2340 C   0  0  2  0  0  3  0  0  0  0  0  0
  193.1900  177.1590  144.8710 C   0  0  0  0  0  2  0  0  0  0  0  0
  192.5260  174.8140  142.1700 O   0  0  0  0  0  0  0  0  0  0  0  0
  191.0350  176.5650  143.7670 C   0  0  0  0  0  2  0  0  0  0  0  0
  189.3200  173.9500  146.1200 C   0  0  0  0  0  2  0  0  0  0  0  0
  191.4320  176.7280  148.4330 O   0  0  0  0  0  0  0  0  0  0  0  0
  190.0820  175.4090  144.0970 C   0  0  2  0  0  3  0  0  0  0  0  0
  193.0810  175.2260  143.2230 C   0  0  0  0  0  0  0  0  0  0  0  0
  191.4430  176.0830  147.3520 C   0  0  0  0  0  0  0  0  0  0  0  0
  194.8950  176.0090  146.1330 O   0  0  0  0  0  1  0  0  0  0  0  0
  189.2100  174.9180  147.2890 C   0  0  0  0  0  2  0  0  0  0  0  0
  192.4310  176.2190  144.0370 N   0  0  0  0  0  0  0  0  0  0  0  0
  192.6860  175.6520  146.7920 N   0  0  0  0  0  2  0  0  0  0  0  0
  190.1690  175.8720  146.5960 C   0  0  2  0  0  3  0  0  0  0  0  0
  194.3790  174.6100  143.6310 C   0  0  0  0  0  2  0  0  0  0  0  0
  194.2420  173.0980  143.7200 C   0  0  0  0  0  2  0  0  0  0  0  0
  193.2650  172.7080  144.8170 C   0  0  0  0  0  2  0  0  0  0  0  0
  192.6780  170.4790  144.2020 O   0  0  0  0  0  1  0  0  0  0  0  0
  192.1950  171.7870  144.2610 C   0  0  0  0  0  2  0  0  0  0  0  0
  188.6400  175.8680  143.8870 C   0  0  0  0  0  2  0  0  0  0  0  0
  188.1030  177.7760  142.5660 O   0  0  0  0  0  1  0  0  0  0  0  0
  188.5600  177.3850  143.8240 C   0  0  1  0  0  3  0  0  0  0  0  0
  187.6160  177.9100  144.8960 C   0  0  0  0  0  2  0  0  0  0  0  0
  186.6680  176.8130  145.3630 C   0  0  0  0  0  2  0  0  0  0  0  0
  185.7670  178.5250  146.9480 C   0  0  0  0  0  1  0  0  0  0  0  0
  186.1760  177.0730  146.7800 C   0  0  0  0  0  2  0  0  0  0  0  0
  1  6  1  1  0  0  0
  1 15  1  0  0  0  0
  2 11  1  6  0  0  0
  2 14  1  0  0  0  0
  3  2  1  0  0  0  0
  4  9  2  0  0  0  0
  5 13  1  0  0  0  0
  5  8  1  0  0  0  0
  6 12  1  0  0  0  0
  8 21  1  1  0  0  0
  8  1  1  0  0  0  0
  9 16  1  0  0  0  0
  9 13  1  0  0  0  0
 10  7  2  0  0  0  0
 13  3  1  0  0  0  0
 14 10  1  0  0  0  0
 15 12  1  1  0  0  0
 15 10  1  0  0  0  0
 16 17  1  0  0  0  0
 17 18  1  0  0  0  0
 19 20  1  0  0  0  0
 20 18  1  0  0  0  0
 23 22  1  6  0  0  0
 23 21  1  0  0  0  0
 23 24  1  0  0  0  0
 24 25  1  0  0  0  0
 25 27  1  0  0  0  0
 27 26  1  0  0  0  0
M  END
>  <MODEL>
8

>  <REMARK>
 VINA RESULT:      -5.8      2.336      3.855
  Name = 
  9 active torsions:
  status: ('A' for Active; 'I' for Inactive)
    1  A    between atoms: C_4  and  C_22
    2  A    between atoms: C_4  and  C_24
    3  A    between atoms: C_10  and  C_26
    4  A    between atoms: C_11  and  C_20
    5  A    between atoms: C_11  and  C_27
    6  A    between atoms: C_12  and  C_14
    7  A    between atoms: C_14  and  C_27
    8  A    between atoms: C_22  and  C_26
    9  A    between atoms: C_24  and  C_25
                            x       y       z     vdW  Elec       q    Type
                         _______ _______ _______ _____ _____    ______ ____

>  <TORSDO>
F 9

$$$$
=
 OpenBabel11062422073D

 27 28  0  0  1  0  0  0  0  0999 V2000
  190.5210  175.2000  144.2860 C   0  0  1  0  0  3  0  0  0  0  0  0
  187.1990  176.4910  143.0290 C   0  0  2  0  0  3  0  0  0  0  0  0
  187.8950  177.7220  143.6380 C   0  0  0  0  0  2  0  0  0  0  0  0
  189.0090  177.5500  147.0970 O   0  0  0  0  0  0  0  0  0  0  0  0
  190.2080  177.6900  144.5700 C   0  0  0  0  0  2  0  0  0  0  0  0
  191.4290  173.9850  144.2580 C   0  0  0  0  0  2  0  0  0  0  0  0
  188.9680  174.9180  141.0010 O   0  0  0  0  0  0  0  0  0  0  0  0
  191.0680  176.4770  144.9420 C   0  0  2  0  0  3  0  0  0  0  0  0
  188.2770  177.2720  146.1100 C   0  0  0  0  0  0  0  0  0  0  0  0
  189.1460  175.1090  142.2330 C   0  0  0  0  0  0  0  0  0  0  0  0
  185.9730  176.2630  143.6500 O   0  0  0  0  0  1  0  0  0  0  0  0
  191.3370  173.9730  142.7380 C   0  0  0  0  0  2  0  0  0  0  0  0
  188.7810  177.4340  144.7720 N   0  0  0  0  0  0  0  0  0  0  0  0
  188.0200  175.2920  143.0950 N   0  0  0  0  0  2  0  0  0  0  0  0
  190.5340  175.2630  142.7710 C   0  0  2  0  0  3  0  0  0  0  0  0
  186.9180  176.7090  146.3700 C   0  0  0  0  0  2  0  0  0  0  0  0
  186.0310  177.7510  147.0330 C   0  0  0  0  0  2  0  0  0  0  0  0
  184.6320  177.7250  146.4390 C   0  0  0  0  0  2  0  0  0  0  0  0
  184.0010  178.8090  144.4100 O   0  0  0  0  0  1  0  0  0  0  0  0
  184.3340  179.0410  145.7450 C   0  0  0  0  0  2  0  0  0  0  0  0
  192.5310  176.7760  144.6150 C   0  0  0  0  0  2  0  0  0  0  0  0
  192.6380  176.2340  146.9320 O   0  0  0  0  0  1  0  0  0  0  0  0
  193.3790  176.7650  145.8760 C   0  0  1  0  0  3  0  0  0  0  0  0
  194.6340  175.9310  145.6620 C   0  0  0  0  0  2  0  0  0  0  0  0
  194.8640  175.6760  144.1780 C   0  0  0  0  0  2  0  0  0  0  0  0
  197.1960  175.4970  143.2910 C   0  0  0  0  0  1  0  0  0  0  0  0
  196.0720  176.4460  143.6650 C   0  0  0  0  0  2  0  0  0  0  0  0
  1  6  1  6  0  0  0
  1  8  1  0  0  0  0
  2 14  1  0  0  0  0
  2  3  1  0  0  0  0
  2 11  1  1  0  0  0
  3 13  1  0  0  0  0
  5 13  1  0  0  0  0
  5  8  1  0  0  0  0
  7 10  2  0  0  0  0
  8 21  1  6  0  0  0
  9 16  1  0  0  0  0
  9  4  2  0  0  0  0
 10 15  1  0  0  0  0
 10 14  1  0  0  0  0
 12  6  1  0  0  0  0
 13  9  1  0  0  0  0
 15 12  1  6  0  0  0
 15  1  1  0  0  0  0
 16 17  1  0  0  0  0
 18 17  1  0  0  0  0
 19 20  1  0  0  0  0
 20 18  1  0  0  0  0
 21 23  1  0  0  0  0
 23 22  1  1  0  0  0
 24 23  1  0  0  0  0
 25 24  1  0  0  0  0
 26 27  1  0  0  0  0
 27 25  1  0  0  0  0
M  END
>  <MODEL>
9

>  <REMARK>
 VINA RESULT:      -5.8      2.394      6.607
  Name = 
  9 active torsions:
  status: ('A' for Active; 'I' for Inactive)
    1  A    between atoms: C_4  and  C_22
    2  A    between atoms: C_4  and  C_24
    3  A    between atoms: C_10  and  C_26
    4  A    between atoms: C_11  and  C_20
    5  A    between atoms: C_11  and  C_27
    6  A    between atoms: C_12  and  C_14
    7  A    between atoms: C_14  and  C_27
    8  A    between atoms: C_22  and  C_26
    9  A    between atoms: C_24  and  C_25
                            x       y       z     vdW  Elec       q    Type
                         _______ _______ _______ _____ _____    ______ ____

>  <TORSDO>
F 9

$$$$
