=
 OpenBabel11062421343D

 55 63  0  0  1  0  0  0  0  0999 V2000
  190.4860  176.3540  147.3230 C   0  0  0  0  0  0  0  0  0  0  0  0
  192.4140  175.3310  146.4100 C   0  0  0  0  0  3  0  0  0  0  0  0
  191.5570  174.2570  145.8580 C   0  0  0  0  0  0  0  0  0  0  0  0
  192.0750  173.3490  144.9300 C   0  0  0  0  0  3  0  0  0  0  0  0
  188.3490  175.6900  146.8970 N   0  0  0  0  0  0  0  0  0  0  0  0
  188.4560  176.9850  146.9870 C   0  0  0  0  0  0  0  0  0  0  0  0
  189.7910  177.4370  147.1980 N   0  0  0  0  0  0  0  0  0  0  0  0
  189.6420  175.1290  147.2360 C   0  0  1  0  0  3  0  0  0  0  0  0
  190.1830  174.2170  146.1730 C   0  0  0  0  0  0  0  0  0  0  0  0
  189.8740  172.4060  144.6850 C   0  0  0  0  0  3  0  0  0  0  0  0
  191.8960  176.3220  147.0850 N   0  0  0  0  0  0  0  0  0  0  0  0
  189.3870  173.2720  145.6100 N   0  0  0  0  0  0  0  0  0  0  0  0
  191.2220  172.4360  144.3160 C   0  0  0  0  0  0  0  0  0  0  0  0
  191.7300  171.6010  143.3140 O   0  0  0  0  0  0  0  0  0  0  0  0
  191.5970  171.8900  141.9230 C   0  0  2  0  0  3  0  0  0  0  0  0
  192.4320  171.1460  139.8490 C   0  0  2  0  0  3  0  0  0  0  0  0
  190.5070  171.0460  141.3210 C   0  0  0  0  0  2  0  0  0  0  0  0
  190.9280  170.8760  139.8830 C   0  0  0  0  0  2  0  0  0  0  0  0
  192.8250  171.5240  141.2270 N   0  0  0  0  0  0  0  0  0  0  0  0
  192.3340  172.6480  134.9640 N   0  0  0  0  0  1  0  0  0  0  0  0
  191.9030  172.3770  136.3240 C   0  0  2  0  0  3  0  0  0  0  0  0
  191.7700  173.2050  138.4800 C   0  0  0  0  0  2  0  0  0  0  0  0
  191.8390  173.6190  137.0890 N   0  0  0  0  0  2  0  0  0  0  0  0
  192.8380  172.1460  138.7330 C   0  0  2  0  0  3  0  0  0  0  0  0
  193.0840  171.2740  137.1390 S   0  0  0  0  0  0  0  0  0  0  0  0
  193.7510  172.6510  141.3330 C   0  0  0  0  0  2  0  0  0  0  0  0
  194.9090  172.2980  142.2590 C   0  0  0  0  0  2  0  0  0  0  0  0
  195.5160  174.7470  142.1000 C   0  0  0  0  0  2  0  0  0  0  0  0
  195.8580  173.4960  144.2550 C   0  0  0  0  0  3  0  0  0  0  0  0
  195.4490  173.5040  142.8760 N   0  0  0  0  0  0  0  0  0  0  0  0
  195.5090  175.9140  144.2820 C   0  0  0  0  0  0  0  0  0  0  0  0
  195.9050  174.6460  144.9350 C   0  0  0  0  0  3  0  0  0  0  0  0
  195.2290  175.9390  142.9730 C   0  0  0  0  0  3  0  0  0  0  0  0
  194.8390  177.9220  145.7800 N   0  0  0  0  0  0  0  0  0  0  0  0
  195.1410  177.0300  145.1070 C   0  0  0  0  0  0  0  0  0  0  0  0
  187.4030  177.8970  146.4730 C   0  0  0  0  0  2  0  0  0  0  0  0
  186.2140  177.1290  145.9050 C   0  0  0  0  0  2  0  0  0  0  0  0
  185.8940  177.5840  144.4870 C   0  0  2  0  0  3  0  0  0  0  0  0
  184.5550  177.9530  144.3940 O   0  0  0  0  0  1  0  0  0  0  0  0
  186.2190  176.5040  143.4560 C   0  0  0  0  0  2  0  0  0  0  0  0
  190.9670  177.4030  143.5070 C   0  0  0  0  0  0  0  0  0  0  0  0
  189.4660  177.5850  143.5440 C   0  0  0  0  0  2  0  0  0  0  0  0
  187.2720  176.9580  142.4510 C   0  0  1  0  0  3  0  0  0  0  0  0
  190.7570  175.1640  142.3230 C   0  0  0  0  0  2  0  0  0  0  0  0
  186.7380  176.8530  138.7450 C   0  0  0  0  0  3  0  0  0  0  0  0
  191.6560  176.3550  142.6560 C   0  0  0  0  0  2  0  0  0  0  0  0
  187.4950  175.5030  140.4290 C   0  0  0  0  0  0  0  0  0  0  0  0
  187.9790  174.8700  137.9330 C   0  0  0  0  0  1  0  0  0  0  0  0
  187.4000  175.7340  138.9960 C   0  0  0  0  0  0  0  0  0  0  0  0
  188.5660  174.7010  141.0870 C   0  0  0  0  0  2  0  0  0  0  0  0
  189.4460  175.7100  141.8050 C   0  0  1  0  0  3  0  0  0  0  0  0
  188.6570  176.4430  142.9080 C   0  0  1  0  0  3  0  0  0  0  0  0
  186.3130  177.4600  140.0480 C   0  0  0  0  0  2  0  0  0  0  0  0
  191.6630  178.1650  144.1580 O   0  0  0  0  0  0  0  0  0  0  0  0
  186.8850  176.5130  141.0550 C   0  0  0  0  0  0  0  0  0  0  0  0
  2 11  2  0  0  0  0
  3  9  1  0  0  0  0
  3  2  1  0  0  0  0
  4  3  2  0  0  0  0
  5  6  2  0  0  0  0
  5  8  1  0  0  0  0
  6  7  1  0  0  0  0
  7  1  2  0  0  0  0
  8  9  1  6  0  0  0
  8  1  1  0  0  0  0
 10 12  1  0  0  0  0
 11  1  1  0  0  0  0
 12  9  2  0  0  0  0
 13 10  2  0  0  0  0
 13  4  1  0  0  0  0
 14 13  1  0  0  0  0
 15 14  1  1  0  0  0
 16 18  1  1  0  0  0
 16 19  1  0  0  0  0
 17 15  1  0  0  0  0
 18 17  1  0  0  0  0
 19 26  1  0  0  0  0
 19 15  1  0  0  0  0
 21 20  1  6  0  0  0
 21 23  1  0  0  0  0
 21 25  1  0  0  0  0
 23 22  1  0  0  0  0
 24 22  1  6  0  0  0
 24 16  1  0  0  0  0
 25 24  1  0  0  0  0
 26 27  1  0  0  0  0
 27 30  1  0  0  0  0
 28 30  1  0  0  0  0
 28 33  1  0  0  0  0
 29 32  2  0  0  0  0
 30 29  1  0  0  0  0
 31 32  1  0  0  0  0
 31 35  1  0  0  0  0
 33 31  2  0  0  0  0
 35 34  3  0  0  0  0
 36  6  1  0  0  0  0
 37 36  1  0  0  0  0
 38 39  1  1  0  0  0
 38 37  1  0  0  0  0
 40 38  1  0  0  0  0
 41 42  1  0  0  0  0
 41 54  2  0  0  0  0
 43 52  1  0  0  0  0
 43 40  1  1  0  0  0
 44 46  1  0  0  0  0
 45 49  2  0  0  0  0
 45 53  1  0  0  0  0
 46 41  1  0  0  0  0
 47 55  2  0  0  0  0
 47 50  1  0  0  0  0
 48 49  1  0  0  0  0
 49 47  1  0  0  0  0
 51 50  1  1  0  0  0
 51 44  1  0  0  0  0
 51 52  1  0  0  0  0
 52 42  1  6  0  0  0
 53 55  1  0  0  0  0
 55 43  1  0  0  0  0
M  END
>  <MODEL>
1

>  <REMARK>
 VINA RESULT:      -7.1      0.000      0.000
  Name = 
  12 active torsions:
  status: ('A' for Active; 'I' for Inactive)
    1  A    between atoms: C_3  and  O_4
    2  A    between atoms: O_4  and  C_55
    3  A    between atoms: C_5  and  C_18
    4  A    between atoms: C_5  and  C_27
    5  A    between atoms: C_6  and  C_48
    6  A    between atoms: C_13  and  C_25
    7  A    between atoms: C_13  and  C_27
    8  A    between atoms: C_14  and  C_18
    9  A    between atoms: N_30  and  C_32
   10  A    between atoms: C_32  and  C_40
   11  A    between atoms: C_35  and  C_50
   12  A    between atoms: C_40  and  N_53
                            x       y       z     vdW  Elec       q    Type
                         _______ _______ _______ _____ _____    ______ ____

>  <TORSDO>
F 12

$$$$
=
 OpenBabel11062421343D

 55 63  0  0  1  0  0  0  0  0999 V2000
  197.4280  174.2950  143.5750 C   0  0  0  0  0  0  0  0  0  0  0  0
  196.0830  173.1200  145.1270 C   0  0  0  0  0  3  0  0  0  0  0  0
  195.1420  174.2640  145.1460 C   0  0  0  0  0  0  0  0  0  0  0  0
  193.8880  174.1350  145.7500 C   0  0  0  0  0  3  0  0  0  0  0  0
  196.8310  176.2520  142.5730 N   0  0  0  0  0  0  0  0  0  0  0  0
  197.4840  175.4640  141.7680 C   0  0  0  0  0  0  0  0  0  0  0  0
  197.8240  174.2070  142.3480 N   0  0  0  0  0  0  0  0  0  0  0  0
  196.8350  175.6290  143.8810 C   0  0  1  0  0  3  0  0  0  0  0  0
  195.4570  175.4510  144.4510 C   0  0  0  0  0  0  0  0  0  0  0  0
  193.3310  176.3430  144.9700 C   0  0  0  0  0  3  0  0  0  0  0  0
  197.1470  173.1400  144.3700 N   0  0  0  0  0  0  0  0  0  0  0  0
  194.5620  176.4700  144.4140 N   0  0  0  0  0  0  0  0  0  0  0  0
  192.9630  175.1700  145.6360 C   0  0  0  0  0  0  0  0  0  0  0  0
  191.6770  174.9900  146.1550 O   0  0  0  0  0  0  0  0  0  0  0  0
  190.6030  175.8940  145.8940 C   0  0  2  0  0  3  0  0  0  0  0  0
  188.3270  176.1800  146.4370 C   0  0  2  0  0  3  0  0  0  0  0  0
  190.5640  176.9680  146.9480 C   0  0  0  0  0  2  0  0  0  0  0  0
  189.1090  177.3580  147.0200 C   0  0  0  0  0  2  0  0  0  0  0  0
  189.3320  175.1860  145.9890 N   0  0  0  0  0  0  0  0  0  0  0  0
  184.1670  178.8280  145.0930 N   0  0  0  0  0  1  0  0  0  0  0  0
  185.5340  178.5250  145.4780 C   0  0  2  0  0  3  0  0  0  0  0  0
  187.6440  177.9530  144.7210 C   0  0  0  0  0  2  0  0  0  0  0  0
  186.4170  178.6200  144.3200 N   0  0  0  0  0  2  0  0  0  0  0  0
  187.2890  176.6180  145.3690 C   0  0  2  0  0  3  0  0  0  0  0  0
  185.6340  176.8370  146.1250 S   0  0  0  0  0  0  0  0  0  0  0  0
  189.0700  174.5630  144.6920 C   0  0  0  0  0  2  0  0  0  0  0  0
  189.9360  175.2040  143.6150 C   0  0  0  0  0  2  0  0  0  0  0  0
  190.8630  172.8650  143.3700 C   0  0  0  0  0  2  0  0  0  0  0  0
  190.8190  174.4210  141.3950 C   0  0  0  0  0  3  0  0  0  0  0  0
  190.5590  174.1760  142.7880 N   0  0  0  0  0  0  0  0  0  0  0  0
  190.7790  172.0020  141.0530 C   0  0  0  0  0  0  0  0  0  0  0  0
  190.9410  173.3870  140.5560 C   0  0  0  0  0  3  0  0  0  0  0  0
  190.6420  171.7690  142.3640 C   0  0  0  0  0  3  0  0  0  0  0  0
  190.2350  170.1290  139.3440 N   0  0  0  0  0  0  0  0  0  0  0  0
  190.4740  170.9630  140.1110 C   0  0  0  0  0  0  0  0  0  0  0  0
  197.4700  175.6580  140.2960 C   0  0  0  0  0  2  0  0  0  0  0  0
  197.9410  174.4110  139.5550 C   0  0  0  0  0  2  0  0  0  0  0  0
  196.8590  173.8870  138.6200 C   0  0  2  0  0  3  0  0  0  0  0  0
  197.3850  173.6730  137.3490 O   0  0  0  0  0  1  0  0  0  0  0  0
  195.6640  174.8370  138.5450 C   0  0  0  0  0  2  0  0  0  0  0  0
  191.2840  173.8970  136.7300 C   0  0  0  0  0  0  0  0  0  0  0  0
  192.4260  174.5600  137.4680 C   0  0  0  0  0  2  0  0  0  0  0  0
  194.3740  174.1900  139.0390 C   0  0  1  0  0  3  0  0  0  0  0  0
  192.4610  171.6440  136.7520 C   0  0  0  0  0  2  0  0  0  0  0  0
  194.2130  172.0350  142.0980 C   0  0  0  0  0  3  0  0  0  0  0  0
  191.1360  172.3930  136.6090 C   0  0  0  0  0  2  0  0  0  0  0  0
  194.6210  171.8400  139.8560 C   0  0  0  0  0  0  0  0  0  0  0  0
  194.1240  169.6990  141.2820 C   0  0  0  0  0  1  0  0  0  0  0  0
  194.3210  171.1630  141.1080 C   0  0  0  0  0  0  0  0  0  0  0  0
  194.2930  171.3040  138.5040 C   0  0  0  0  0  2  0  0  0  0  0  0
  193.1500  172.1640  137.9930 C   0  0  1  0  0  3  0  0  0  0  0  0
  193.5960  173.6300  137.8250 C   0  0  1  0  0  3  0  0  0  0  0  0
  194.4640  173.4090  141.5540 C   0  0  0  0  0  2  0  0  0  0  0  0
  190.4150  174.6020  136.2450 O   0  0  0  0  0  0  0  0  0  0  0  0
  194.6870  173.1510  140.0970 C   0  0  0  0  0  0  0  0  0  0  0  0
  1  8  1  0  0  0  0
  1 11  1  0  0  0  0
  2  3  1  0  0  0  0
  3  4  1  0  0  0  0
  6  7  1  0  0  0  0
  6  5  2  0  0  0  0
  7  1  2  0  0  0  0
  8  5  1  6  0  0  0
  8  9  1  0  0  0  0
  9  3  2  0  0  0  0
 10 13  1  0  0  0  0
 11  2  2  0  0  0  0
 12  9  1  0  0  0  0
 12 10  2  0  0  0  0
 13  4  2  0  0  0  0
 13 14  1  0  0  0  0
 15 19  1  0  0  0  0
 15 14  1  1  0  0  0
 15 17  1  0  0  0  0
 16 18  1  6  0  0  0
 17 18  1  0  0  0  0
 19 16  1  0  0  0  0
 21 20  1  6  0  0  0
 21 25  1  0  0  0  0
 23 22  1  0  0  0  0
 23 21  1  0  0  0  0
 24 22  1  1  0  0  0
 24 25  1  0  0  0  0
 24 16  1  0  0  0  0
 26 19  1  0  0  0  0
 27 26  1  0  0  0  0
 29 30  1  0  0  0  0
 30 28  1  0  0  0  0
 30 27  1  0  0  0  0
 31 33  2  0  0  0  0
 32 31  1  0  0  0  0
 32 29  2  0  0  0  0
 33 28  1  0  0  0  0
 34 35  3  0  0  0  0
 35 31  1  0  0  0  0
 36  6  1  0  0  0  0
 37 36  1  0  0  0  0
 38 39  1  6  0  0  0
 38 37  1  0  0  0  0
 40 38  1  0  0  0  0
 41 42  1  0  0  0  0
 43 40  1  6  0  0  0
 43 55  1  0  0  0  0
 46 41  1  0  0  0  0
 46 44  1  0  0  0  0
 47 55  2  0  0  0  0
 47 49  1  0  0  0  0
 49 48  1  0  0  0  0
 49 45  2  0  0  0  0
 50 47  1  0  0  0  0
 51 44  1  6  0  0  0
 51 50  1  0  0  0  0
 52 42  1  1  0  0  0
 52 51  1  0  0  0  0
 52 43  1  0  0  0  0
 53 45  1  0  0  0  0
 54 41  2  0  0  0  0
 55 53  1  0  0  0  0
M  END
>  <MODEL>
2

>  <REMARK>
 VINA RESULT:      -7.0      3.197      8.638
  Name = 
  12 active torsions:
  status: ('A' for Active; 'I' for Inactive)
    1  A    between atoms: C_3  and  O_4
    2  A    between atoms: O_4  and  C_55
    3  A    between atoms: C_5  and  C_18
    4  A    between atoms: C_5  and  C_27
    5  A    between atoms: C_6  and  C_48
    6  A    between atoms: C_13  and  C_25
    7  A    between atoms: C_13  and  C_27
    8  A    between atoms: C_14  and  C_18
    9  A    between atoms: N_30  and  C_32
   10  A    between atoms: C_32  and  C_40
   11  A    between atoms: C_35  and  C_50
   12  A    between atoms: C_40  and  N_53
                            x       y       z     vdW  Elec       q    Type
                         _______ _______ _______ _____ _____    ______ ____

>  <TORSDO>
F 12

$$$$
=
 OpenBabel11062421343D

 55 63  0  0  1  0  0  0  0  0999 V2000
  197.0300  174.8890  143.9890 C   0  0  0  0  0  0  0  0  0  0  0  0
  196.0400  174.5180  146.1060 C   0  0  0  0  0  3  0  0  0  0  0  0
  194.8590  175.2970  145.6670 C   0  0  0  0  0  0  0  0  0  0  0  0
  193.6870  175.2890  146.4290 C   0  0  0  0  0  3  0  0  0  0  0  0
  195.9640  175.8450  142.2170 N   0  0  0  0  0  0  0  0  0  0  0  0
  196.7620  174.8810  141.8530 C   0  0  0  0  0  0  0  0  0  0  0  0
  197.4020  174.2250  142.9440 N   0  0  0  0  0  0  0  0  0  0  0  0
  196.1500  176.0420  143.6410 C   0  0  1  0  0  3  0  0  0  0  0  0
  194.8690  175.9520  144.4180 C   0  0  0  0  0  0  0  0  0  0  0  0
  192.6080  176.5790  144.7070 C   0  0  0  0  0  3  0  0  0  0  0  0
  197.0490  174.3190  145.3010 N   0  0  0  0  0  0  0  0  0  0  0  0
  193.7600  176.6070  143.9890 N   0  0  0  0  0  0  0  0  0  0  0  0
  192.5430  175.9090  145.9320 C   0  0  0  0  0  0  0  0  0  0  0  0
  191.3490  175.8080  146.6540 O   0  0  0  0  0  0  0  0  0  0  0  0
  190.1930  176.5900  146.3520 C   0  0  2  0  0  3  0  0  0  0  0  0
  187.8580  176.5330  146.6630 C   0  0  2  0  0  3  0  0  0  0  0  0
  189.9060  177.5430  147.4810 C   0  0  0  0  0  2  0  0  0  0  0  0
  188.4120  177.7370  147.4250 C   0  0  0  0  0  2  0  0  0  0  0  0
  189.0270  175.7210  146.2480 N   0  0  0  0  0  0  0  0  0  0  0  0
  183.7020  179.0300  145.0450 N   0  0  0  0  0  1  0  0  0  0  0  0
  185.0500  178.7770  145.5230 C   0  0  2  0  0  3  0  0  0  0  0  0
  187.2270  178.2880  144.9100 C   0  0  0  0  0  2  0  0  0  0  0  0
  186.0070  178.9120  144.4280 N   0  0  0  0  0  2  0  0  0  0  0  0
  186.8800  176.9370  145.5280 C   0  0  2  0  0  3  0  0  0  0  0  0
  185.1690  177.0900  146.1690 S   0  0  0  0  0  0  0  0  0  0  0  0
  188.9810  175.1990  144.8820 C   0  0  0  0  0  2  0  0  0  0  0  0
  189.7230  173.8710  144.7990 C   0  0  0  0  0  2  0  0  0  0  0  0
  188.9400  172.2920  142.9870 C   0  0  0  0  0  2  0  0  0  0  0  0
  190.6200  174.0880  142.4610 C   0  0  0  0  0  3  0  0  0  0  0  0
  189.7840  173.4110  143.4160 N   0  0  0  0  0  0  0  0  0  0  0  0
  189.1660  173.2140  140.7020 C   0  0  0  0  0  0  0  0  0  0  0  0
  190.3430  173.9890  141.1570 C   0  0  0  0  0  3  0  0  0  0  0  0
  188.4510  172.4990  141.5790 C   0  0  0  0  0  3  0  0  0  0  0  0
  188.1900  173.6800  138.3460 N   0  0  0  0  0  0  0  0  0  0  0  0
  188.6330  173.4720  139.3950 C   0  0  0  0  0  0  0  0  0  0  0  0
  196.6620  174.2420  140.5170 C   0  0  0  0  0  2  0  0  0  0  0  0
  195.6760  174.9720  139.6110 C   0  0  0  0  0  2  0  0  0  0  0  0
  194.5580  174.0430  139.1570 C   0  0  2  0  0  3  0  0  0  0  0  0
  193.3260  174.5340  139.5820 O   0  0  0  0  0  1  0  0  0  0  0  0
  194.7620  172.6160  139.6650 C   0  0  0  0  0  2  0  0  0  0  0  0
  190.6830  170.1040  139.0250 C   0  0  0  0  0  0  0  0  0  0  0  0
  191.6610  171.2460  139.1870 C   0  0  0  0  0  2  0  0  0  0  0  0
  193.6060  172.1380  140.5370 C   0  0  1  0  0  3  0  0  0  0  0  0
  192.2620  168.4730  140.1690 C   0  0  0  0  0  2  0  0  0  0  0  0
  193.7800  172.0240  144.2770 C   0  0  0  0  0  3  0  0  0  0  0  0
  190.8230  168.7820  139.7530 C   0  0  0  0  0  2  0  0  0  0  0  0
  194.2710  170.7040  142.4750 C   0  0  0  0  0  0  0  0  0  0  0  0
  194.1520  169.6500  144.8710 C   0  0  0  0  0  1  0  0  0  0  0  0
  194.0730  170.7860  143.9140 C   0  0  2  0  0  3  0  0  0  0  0  0
  194.0820  169.4680  141.6640 C   0  0  0  0  0  2  0  0  0  0  0  0
  192.8110  169.6960  140.8650 C   0  0  1  0  0  3  0  0  0  0  0  0
  192.9770  170.8800  139.8920 C   0  0  1  0  0  3  0  0  0  0  0  0
  193.7810  172.8940  143.0560 C   0  0  0  0  0  3  0  0  0  0  0  0
  189.7090  170.2670  138.3090 O   0  0  0  0  0  0  0  0  0  0  0  0
  194.0830  171.9210  141.9600 C   0  0  0  0  0  0  0  0  0  0  0  0
  1 11  1  0  0  0  0
  3  2  1  0  0  0  0
  3  4  1  0  0  0  0
  6  5  2  0  0  0  0
  6  7  1  0  0  0  0
  7  1  2  0  0  0  0
  8  5  1  6  0  0  0
  8  1  1  0  0  0  0
  8  9  1  0  0  0  0
  9  3  2  0  0  0  0
 10 13  1  0  0  0  0
 11  2  2  0  0  0  0
 12  9  1  0  0  0  0
 12 10  2  0  0  0  0
 13  4  2  0  0  0  0
 13 14  1  0  0  0  0
 15 14  1  1  0  0  0
 15 17  1  0  0  0  0
 16 18  1  6  0  0  0
 18 17  1  0  0  0  0
 19 15  1  0  0  0  0
 19 16  1  0  0  0  0
 21 20  1  6  0  0  0
 21 25  1  0  0  0  0
 23 22  1  0  0  0  0
 23 21  1  0  0  0  0
 24 22  1  1  0  0  0
 24 25  1  0  0  0  0
 24 16  1  0  0  0  0
 26 19  1  0  0  0  0
 27 26  1  0  0  0  0
 28 30  1  0  0  0  0
 29 30  1  0  0  0  0
 30 27  1  0  0  0  0
 31 32  1  0  0  0  0
 31 33  2  0  0  0  0
 32 29  2  0  0  0  0
 33 28  1  0  0  0  0
 34 35  3  0  0  0  0
 35 31  1  0  0  0  0
 36  6  1  0  0  0  0
 37 36  1  0  0  0  0
 38 39  1  1  0  0  0
 38 37  1  0  0  0  0
 38 40  1  0  0  0  0
 41 42  1  0  0  0  0
 41 46  1  0  0  0  0
 43 40  1  6  0  0  0
 43 55  1  0  0  0  0
 46 44  1  0  0  0  0
 47 49  1  0  0  0  0
 49 45  1  0  0  0  0
 49 48  1  6  0  0  0
 50 47  1  0  0  0  0
 51 44  1  6  0  0  0
 51 50  1  0  0  0  0
 52 42  1  1  0  0  0
 52 43  1  0  0  0  0
 52 51  1  0  0  0  0
 53 45  2  0  0  0  0
 54 41  2  0  0  0  0
 55 47  2  0  0  0  0
 55 53  1  0  0  0  0
M  END
>  <MODEL>
3

>  <REMARK>
 VINA RESULT:      -6.9      3.152      8.669
  Name = 
  12 active torsions:
  status: ('A' for Active; 'I' for Inactive)
    1  A    between atoms: C_3  and  O_4
    2  A    between atoms: O_4  and  C_55
    3  A    between atoms: C_5  and  C_18
    4  A    between atoms: C_5  and  C_27
    5  A    between atoms: C_6  and  C_48
    6  A    between atoms: C_13  and  C_25
    7  A    between atoms: C_13  and  C_27
    8  A    between atoms: C_14  and  C_18
    9  A    between atoms: N_30  and  C_32
   10  A    between atoms: C_32  and  C_40
   11  A    between atoms: C_35  and  C_50
   12  A    between atoms: C_40  and  N_53
                            x       y       z     vdW  Elec       q    Type
                         _______ _______ _______ _____ _____    ______ ____

>  <TORSDO>
F 12

$$$$
=
 OpenBabel11062421343D

 55 63  0  0  1  0  0  0  0  0999 V2000
  195.3380  176.3490  144.6610 C   0  0  0  0  0  0  0  0  0  0  0  0
  195.8510  175.2420  142.6340 C   0  0  0  0  0  3  0  0  0  0  0  0
  195.7080  173.9430  143.3320 C   0  0  0  0  0  0  0  0  0  0  0  0
  195.6620  172.7520  142.6020 C   0  0  0  0  0  3  0  0  0  0  0  0
  194.6310  175.3050  146.5580 N   0  0  0  0  0  0  0  0  0  0  0  0
  194.0400  176.4510  146.3750 C   0  0  0  0  0  0  0  0  0  0  0  0
  194.4200  177.1050  145.1670 N   0  0  0  0  0  0  0  0  0  0  0  0
  195.6390  175.1720  145.5260 C   0  0  1  0  0  3  0  0  0  0  0  0
  195.4980  173.9090  144.7260 C   0  0  0  0  0  0  0  0  0  0  0  0
  195.2210  171.5620  144.6480 C   0  0  0  0  0  3  0  0  0  0  0  0
  195.6580  176.3670  143.2670 N   0  0  0  0  0  0  0  0  0  0  0  0
  195.2990  172.7210  145.3510 N   0  0  0  0  0  0  0  0  0  0  0  0
  195.3860  171.5560  143.2590 C   0  0  0  0  0  0  0  0  0  0  0  0
  195.2400  170.3850  142.5070 O   0  0  0  0  0  0  0  0  0  0  0  0
  194.4150  170.3090  141.3440 C   0  0  2  0  0  3  0  0  0  0  0  0
  192.9160  171.6520  140.1180 C   0  0  2  0  0  3  0  0  0  0  0  0
  195.1800  170.7800  140.1370 C   0  0  0  0  0  2  0  0  0  0  0  0
  194.1160  171.3360  139.2240 C   0  0  0  0  0  2  0  0  0  0  0  0
  193.2830  171.2170  141.4860 N   0  0  0  0  0  0  0  0  0  0  0  0
  189.3990  171.3460  136.4210 N   0  0  0  0  0  1  0  0  0  0  0  0
  190.6470  171.1730  137.1440 C   0  0  2  0  0  3  0  0  0  0  0  0
  191.8010  169.8640  138.6630 C   0  0  0  0  0  2  0  0  0  0  0  0
  190.7370  169.8160  137.6750 N   0  0  0  0  0  2  0  0  0  0  0  0
  191.5850  171.0790  139.5610 C   0  0  2  0  0  3  0  0  0  0  0  0
  190.7190  172.3280  138.5360 S   0  0  0  0  0  0  0  0  0  0  0  0
  192.2360  170.5120  142.2270 C   0  0  0  0  0  2  0  0  0  0  0  0
  191.8610  171.2910  143.4810 C   0  0  0  0  0  2  0  0  0  0  0  0
  190.9640  173.6510  143.3580 C   0  0  0  0  0  2  0  0  0  0  0  0
  189.5070  171.7080  142.7050 C   0  0  0  0  0  3  0  0  0  0  0  0
  190.7620  172.2070  143.1980 N   0  0  0  0  0  0  0  0  0  0  0  0
  189.1000  173.9210  141.7530 C   0  0  0  0  0  0  0  0  0  0  0  0
  188.6950  172.5230  142.0240 C   0  0  0  0  0  3  0  0  0  0  0  0
  190.2170  174.4160  142.2990 C   0  0  0  0  0  3  0  0  0  0  0  0
  187.9510  175.2110  139.8190 N   0  0  0  0  0  0  0  0  0  0  0  0
  188.4600  174.6290  140.6810 C   0  0  0  0  0  0  0  0  0  0  0  0
  192.7910  176.8140  147.0910 C   0  0  0  0  0  2  0  0  0  0  0  0
  191.5480  176.4450  146.2870 C   0  0  0  0  0  2  0  0  0  0  0  0
  190.3740  176.1340  147.2050 C   0  0  2  0  0  3  0  0  0  0  0  0
  190.6880  175.0650  148.0400 O   0  0  0  0  0  1  0  0  0  0  0  0
  189.0990  175.8330  146.4170 C   0  0  0  0  0  2  0  0  0  0  0  0
  188.5090  178.0510  142.1630 C   0  0  0  0  0  0  0  0  0  0  0  0
  189.0400  177.6680  143.5270 C   0  0  0  0  0  2  0  0  0  0  0  0
  188.4150  177.0990  145.9120 C   0  0  1  0  0  3  0  0  0  0  0  0
  186.2520  176.9840  142.6430 C   0  0  0  0  0  2  0  0  0  0  0  0
  185.8560  178.9700  147.9060 C   0  0  0  0  0  3  0  0  0  0  0  0
  187.0410  177.9830  141.7950 C   0  0  0  0  0  2  0  0  0  0  0  0
  185.9690  177.2440  146.4100 C   0  0  0  0  0  0  0  0  0  0  0  0
  183.6590  178.3640  146.9380 C   0  0  0  0  0  1  0  0  0  0  0  0
  185.1290  178.2080  147.1040 C   0  0  0  0  0  0  0  0  0  0  0  0
  185.6340  176.6210  145.0980 C   0  0  0  0  0  2  0  0  0  0  0  0
  186.5800  177.2560  144.0930 C   0  0  1  0  0  3  0  0  0  0  0  0
  188.0460  176.9100  144.4220 C   0  0  1  0  0  3  0  0  0  0  0  0
  187.2870  178.5360  147.8110 C   0  0  0  0  0  2  0  0  0  0  0  0
  189.2930  178.4780  141.3320 O   0  0  0  0  0  0  0  0  0  0  0  0
  187.2320  177.4380  146.7960 C   0  0  0  0  0  0  0  0  0  0  0  0
  1  7  2  0  0  0  0
  2 11  2  0  0  0  0
  2  3  1  0  0  0  0
  3  9  1  0  0  0  0
  4 13  1  0  0  0  0
  4  3  2  0  0  0  0
  6  5  2  0  0  0  0
  6 36  1  0  0  0  0
  7  6  1  0  0  0  0
  8  1  1  6  0  0  0
  8  5  1  0  0  0  0
  9 12  2  0  0  0  0
  9  8  1  0  0  0  0
 10 12  1  0  0  0  0
 11  1  1  0  0  0  0
 13 10  2  0  0  0  0
 14 13  1  0  0  0  0
 15 19  1  0  0  0  0
 15 14  1  1  0  0  0
 16 18  1  6  0  0  0
 16 19  1  0  0  0  0
 17 15  1  0  0  0  0
 18 17  1  0  0  0  0
 19 26  1  0  0  0  0
 21 20  1  1  0  0  0
 21 23  1  0  0  0  0
 21 25  1  0  0  0  0
 23 22  1  0  0  0  0
 24 22  1  6  0  0  0
 24 16  1  0  0  0  0
 25 24  1  0  0  0  0
 26 27  1  0  0  0  0
 29 30  1  0  0  0  0
 30 28  1  0  0  0  0
 30 27  1  0  0  0  0
 31 32  1  0  0  0  0
 31 33  2  0  0  0  0
 32 29  2  0  0  0  0
 33 28  1  0  0  0  0
 34 35  3  0  0  0  0
 35 31  1  0  0  0  0
 37 36  1  0  0  0  0
 37 38  1  0  0  0  0
 38 39  1  6  0  0  0
 40 38  1  0  0  0  0
 41 42  1  0  0  0  0
 43 40  1  1  0  0  0
 43 55  1  0  0  0  0
 46 41  1  0  0  0  0
 46 44  1  0  0  0  0
 47 55  2  0  0  0  0
 47 49  1  0  0  0  0
 48 49  1  0  0  0  0
 49 45  2  0  0  0  0
 50 47  1  0  0  0  0
 51 44  1  6  0  0  0
 51 52  1  0  0  0  0
 51 50  1  0  0  0  0
 52 42  1  6  0  0  0
 52 43  1  0  0  0  0
 53 45  1  0  0  0  0
 54 41  2  0  0  0  0
 55 53  1  0  0  0  0
M  END
>  <MODEL>
4

>  <REMARK>
 VINA RESULT:      -6.9      2.248      5.433
  Name = 
  12 active torsions:
  status: ('A' for Active; 'I' for Inactive)
    1  A    between atoms: C_3  and  O_4
    2  A    between atoms: O_4  and  C_55
    3  A    between atoms: C_5  and  C_18
    4  A    between atoms: C_5  and  C_27
    5  A    between atoms: C_6  and  C_48
    6  A    between atoms: C_13  and  C_25
    7  A    between atoms: C_13  and  C_27
    8  A    between atoms: C_14  and  C_18
    9  A    between atoms: N_30  and  C_32
   10  A    between atoms: C_32  and  C_40
   11  A    between atoms: C_35  and  C_50
   12  A    between atoms: C_40  and  N_53
                            x       y       z     vdW  Elec       q    Type
                         _______ _______ _______ _____ _____    ______ ____

>  <TORSDO>
F 12

$$$$
=
 OpenBabel11062421343D

 55 63  0  0  1  0  0  0  0  0999 V2000
  197.4220  174.9820  143.7150 C   0  0  0  0  0  0  0  0  0  0  0  0
  196.3640  174.1460  145.6590 C   0  0  0  0  0  3  0  0  0  0  0  0
  195.2330  175.0720  145.4160 C   0  0  0  0  0  0  0  0  0  0  0  0
  194.0440  174.9360  146.1390 C   0  0  0  0  0  3  0  0  0  0  0  0
  196.4480  176.4060  142.2280 N   0  0  0  0  0  0  0  0  0  0  0  0
  197.2060  175.5230  141.6430 C   0  0  0  0  0  0  0  0  0  0  0  0
  197.7870  174.5810  142.5410 N   0  0  0  0  0  0  0  0  0  0  0  0
  196.6090  176.2300  143.6570 C   0  0  1  0  0  3  0  0  0  0  0  0
  195.3060  176.0180  144.3730 C   0  0  0  0  0  0  0  0  0  0  0  0
  193.0710  176.6730  144.7840 C   0  0  0  0  0  3  0  0  0  0  0  0
  197.3810  174.1020  144.8420 N   0  0  0  0  0  0  0  0  0  0  0  0
  194.2410  176.8170  144.1090 N   0  0  0  0  0  0  0  0  0  0  0  0
  192.9440  175.7210  145.8000 C   0  0  0  0  0  0  0  0  0  0  0  0
  191.7290  175.5070  146.4600 O   0  0  0  0  0  0  0  0  0  0  0  0
  190.5760  176.3210  146.2440 C   0  0  2  0  0  3  0  0  0  0  0  0
  188.2920  176.3850  146.8210 C   0  0  2  0  0  3  0  0  0  0  0  0
  190.4580  177.3480  147.3380 C   0  0  0  0  0  2  0  0  0  0  0  0
  188.9760  177.6050  147.4390 C   0  0  0  0  0  2  0  0  0  0  0  0
  189.3740  175.5000  146.3260 N   0  0  0  0  0  0  0  0  0  0  0  0
  183.9090  178.7220  145.6160 N   0  0  0  0  0  1  0  0  0  0  0  0
  185.3030  178.5210  145.9740 C   0  0  2  0  0  3  0  0  0  0  0  0
  187.4390  178.1460  145.1700 C   0  0  0  0  0  2  0  0  0  0  0  0
  186.1560  178.7220  144.8070 N   0  0  0  0  0  2  0  0  0  0  0  0
  187.2050  176.7680  145.7810 C   0  0  2  0  0  3  0  0  0  0  0  0
  185.5490  176.8280  146.5660 S   0  0  0  0  0  0  0  0  0  0  0  0
  189.1500  174.9040  145.0090 C   0  0  0  0  0  2  0  0  0  0  0  0
  189.8890  175.6980  143.9390 C   0  0  0  0  0  2  0  0  0  0  0  0
  187.8630  175.1560  142.5260 C   0  0  0  0  0  2  0  0  0  0  0  0
  189.1380  177.2900  142.1440 C   0  0  0  0  0  3  0  0  0  0  0  0
  188.9800  176.0490  142.8520 N   0  0  0  0  0  0  0  0  0  0  0  0
  186.7720  177.1520  141.5510 C   0  0  0  0  0  0  0  0  0  0  0  0
  188.0910  177.8210  141.5040 C   0  0  0  0  0  3  0  0  0  0  0  0
  186.6480  175.9460  142.1200 C   0  0  0  0  0  3  0  0  0  0  0  0
  184.6500  178.5390  141.0080 N   0  0  0  0  0  0  0  0  0  0  0  0
  185.5970  177.9210  141.2570 C   0  0  0  0  0  0  0  0  0  0  0  0
  197.1080  175.2450  140.1880 C   0  0  0  0  0  2  0  0  0  0  0  0
  195.7300  174.7170  139.8030 C   0  0  0  0  0  2  0  0  0  0  0  0
  195.6670  173.2010  139.9400 C   0  0  2  0  0  3  0  0  0  0  0  0
  196.9410  172.6550  139.8110 O   0  0  0  0  0  1  0  0  0  0  0  0
  194.7170  172.5760  138.9180 C   0  0  0  0  0  2  0  0  0  0  0  0
  193.5260  170.8480  143.2710 C   0  0  0  0  0  0  0  0  0  0  0  0
  193.9640  170.9340  141.8260 C   0  0  0  0  0  2  0  0  0  0  0  0
  193.4790  171.9700  139.5700 C   0  0  1  0  0  3  0  0  0  0  0  0
  192.3920  173.1200  143.1570 C   0  0  0  0  0  2  0  0  0  0  0  0
  190.0460  172.2670  138.1000 C   0  0  0  0  0  3  0  0  0  0  0  0
  192.5010  171.7790  143.8850 C   0  0  0  0  0  2  0  0  0  0  0  0
  191.4390  173.4150  139.5040 C   0  0  0  0  0  0  0  0  0  0  0  0
  188.8910  174.0180  139.4140 C   0  0  0  0  0  1  0  0  0  0  0  0
  190.0890  173.2430  138.9930 C   0  0  2  0  0  3  0  0  0  0  0  0
  191.7720  173.9970  140.8360 C   0  0  0  0  0  2  0  0  0  0  0  0
  192.2520  172.8290  141.6810 C   0  0  1  0  0  3  0  0  0  0  0  0
  193.5410  172.2180  141.0950 C   0  0  1  0  0  3  0  0  0  0  0  0
  191.4280  171.7100  137.9350 C   0  0  0  0  0  3  0  0  0  0  0  0
  193.9860  169.9580  143.9680 O   0  0  0  0  0  0  0  0  0  0  0  0
  192.2260  172.5140  138.9120 C   0  0  0  0  0  0  0  0  0  0  0  0
  1 11  1  0  0  0  0
  3  2  1  0  0  0  0
  3  4  1  0  0  0  0
  6  5  2  0  0  0  0
  6  7  1  0  0  0  0
  7  1  2  0  0  0  0
  8  5  1  6  0  0  0
  8  1  1  0  0  0  0
  8  9  1  0  0  0  0
  9  3  2  0  0  0  0
 10 13  1  0  0  0  0
 11  2  2  0  0  0  0
 12  9  1  0  0  0  0
 12 10  2  0  0  0  0
 13  4  2  0  0  0  0
 13 14  1  0  0  0  0
 15 19  1  0  0  0  0
 15 14  1  1  0  0  0
 15 17  1  0  0  0  0
 16 18  1  6  0  0  0
 17 18  1  0  0  0  0
 19 16  1  0  0  0  0
 21 20  1  6  0  0  0
 21 25  1  0  0  0  0
 23 22  1  0  0  0  0
 23 21  1  0  0  0  0
 24 22  1  1  0  0  0
 24 25  1  0  0  0  0
 24 16  1  0  0  0  0
 26 19  1  0  0  0  0
 27 26  1  0  0  0  0
 28 30  1  0  0  0  0
 29 30  1  0  0  0  0
 30 27  1  0  0  0  0
 31 33  2  0  0  0  0
 32 31  1  0  0  0  0
 32 29  2  0  0  0  0
 33 28  1  0  0  0  0
 34 35  3  0  0  0  0
 35 31  1  0  0  0  0
 36  6  1  0  0  0  0
 37 38  1  0  0  0  0
 37 36  1  0  0  0  0
 38 39  1  6  0  0  0
 40 38  1  0  0  0  0
 41 46  1  0  0  0  0
 41 54  2  0  0  0  0
 42 41  1  0  0  0  0
 43 40  1  6  0  0  0
 43 52  1  0  0  0  0
 44 46  1  0  0  0  0
 45 49  1  0  0  0  0
 47 50  1  0  0  0  0
 49 48  1  1  0  0  0
 49 47  1  0  0  0  0
 51 50  1  6  0  0  0
 51 44  1  0  0  0  0
 52 51  1  0  0  0  0
 52 42  1  1  0  0  0
 53 45  2  0  0  0  0
 53 55  1  0  0  0  0
 55 47  2  0  0  0  0
 55 43  1  0  0  0  0
M  END
>  <MODEL>
5

>  <REMARK>
 VINA RESULT:      -6.8      3.217      8.398
  Name = 
  12 active torsions:
  status: ('A' for Active; 'I' for Inactive)
    1  A    between atoms: C_3  and  O_4
    2  A    between atoms: O_4  and  C_55
    3  A    between atoms: C_5  and  C_18
    4  A    between atoms: C_5  and  C_27
    5  A    between atoms: C_6  and  C_48
    6  A    between atoms: C_13  and  C_25
    7  A    between atoms: C_13  and  C_27
    8  A    between atoms: C_14  and  C_18
    9  A    between atoms: N_30  and  C_32
   10  A    between atoms: C_32  and  C_40
   11  A    between atoms: C_35  and  C_50
   12  A    between atoms: C_40  and  N_53
                            x       y       z     vdW  Elec       q    Type
                         _______ _______ _______ _____ _____    ______ ____

>  <TORSDO>
F 12

$$$$
=
 OpenBabel11062421343D

 55 63  0  0  1  0  0  0  0  0999 V2000
  190.0460  171.8860  138.6190 C   0  0  0  0  0  0  0  0  0  0  0  0
  192.0840  170.6980  138.4320 C   0  0  0  0  0  3  0  0  0  0  0  0
  192.8090  171.9190  138.8540 C   0  0  0  0  0  0  0  0  0  0  0  0
  194.1630  171.8510  139.1960 C   0  0  0  0  0  3  0  0  0  0  0  0
  189.8480  173.9780  139.4970 N   0  0  0  0  0  0  0  0  0  0  0  0
  188.8410  173.2130  139.8100 C   0  0  0  0  0  0  0  0  0  0  0  0
  188.9620  171.8790  139.3220 N   0  0  0  0  0  0  0  0  0  0  0  0
  190.6830  173.2330  138.5760 C   0  0  1  0  0  3  0  0  0  0  0  0
  192.1110  173.1320  139.0290 C   0  0  0  0  0  0  0  0  0  0  0  0
  194.0730  174.1680  139.8460 C   0  0  0  0  0  3  0  0  0  0  0  0
  190.7810  170.6910  138.3410 N   0  0  0  0  0  0  0  0  0  0  0  0
  192.7660  174.2310  139.4820 N   0  0  0  0  0  0  0  0  0  0  0  0
  194.7930  172.9750  139.7250 C   0  0  0  0  0  0  0  0  0  0  0  0
  196.1180  172.8690  140.1600 O   0  0  0  0  0  0  0  0  0  0  0  0
  196.5210  171.9950  141.2140 C   0  0  2  0  0  3  0  0  0  0  0  0
  195.6490  171.0430  143.1860 C   0  0  2  0  0  3  0  0  0  0  0  0
  196.1770  170.5730  140.8650 C   0  0  0  0  0  2  0  0  0  0  0  0
  195.9510  169.9120  142.2020 C   0  0  0  0  0  2  0  0  0  0  0  0
  195.7710  172.3090  142.4240 N   0  0  0  0  0  0  0  0  0  0  0  0
  196.6940  168.8340  147.6750 N   0  0  0  0  0  1  0  0  0  0  0  0
  196.5960  169.0470  146.2410 C   0  0  2  0  0  3  0  0  0  0  0  0
  197.6290  169.9380  144.3730 C   0  0  0  0  0  2  0  0  0  0  0  0
  197.9030  169.3950  145.6930 N   0  0  0  0  0  2  0  0  0  0  0  0
  196.4950  170.9520  144.4840 C   0  0  2  0  0  3  0  0  0  0  0  0
  195.4590  170.4140  145.8970 S   0  0  0  0  0  0  0  0  0  0  0  0
  196.4680  173.3960  143.1120 C   0  0  0  0  0  2  0  0  0  0  0  0
  195.7140  174.7070  142.9290 C   0  0  0  0  0  2  0  0  0  0  0  0
  193.2310  175.1840  142.9270 C   0  0  0  0  0  2  0  0  0  0  0  0
  194.2900  173.9980  144.8760 C   0  0  0  0  0  3  0  0  0  0  0  0
  194.4180  174.6420  143.5960 N   0  0  0  0  0  0  0  0  0  0  0  0
  191.9260  173.6510  144.3660 C   0  0  0  0  0  0  0  0  0  0  0  0
  193.0980  173.5320  145.2620 C   0  0  0  0  0  3  0  0  0  0  0  0
  192.0190  174.3420  143.2230 C   0  0  0  0  0  3  0  0  0  0  0  0
  189.8910  172.0890  144.7430 N   0  0  0  0  0  0  0  0  0  0  0  0
  190.8010  172.7860  144.5820 C   0  0  0  0  0  0  0  0  0  0  0  0
  187.9150  173.5490  140.9210 C   0  0  0  0  0  2  0  0  0  0  0  0
  188.5590  174.4920  141.9320 C   0  0  0  0  0  2  0  0  0  0  0  0
  187.9080  175.8680  141.8890 C   0  0  2  0  0  3  0  0  0  0  0  0
  187.2190  176.0350  140.6910 O   0  0  0  0  0  1  0  0  0  0  0  0
  188.9320  176.9880  142.0700 C   0  0  0  0  0  2  0  0  0  0  0  0
  185.5460  179.0900  144.8040 C   0  0  0  0  0  0  0  0  0  0  0  0
  186.7020  178.8790  143.8510 C   0  0  0  0  0  2  0  0  0  0  0  0
  188.8610  177.6220  143.4560 C   0  0  1  0  0  3  0  0  0  0  0  0
  185.8600  176.7900  145.8380 C   0  0  0  0  0  2  0  0  0  0  0  0
  191.4860  177.0990  146.0770 C   0  0  0  0  0  3  0  0  0  0  0  0
  185.2790  178.1950  145.9970 C   0  0  0  0  0  2  0  0  0  0  0  0
  189.5540  176.1250  145.3350 C   0  0  0  0  0  0  0  0  0  0  0  0
  190.5440  175.4510  147.6660 C   0  0  0  0  0  1  0  0  0  0  0  0
  190.5530  176.2130  146.3890 C   0  0  2  0  0  3  0  0  0  0  0  0
  188.1450  175.6810  145.5410 C   0  0  0  0  0  2  0  0  0  0  0  0
  187.3000  176.9350  145.4030 C   0  0  1  0  0  3  0  0  0  0  0  0
  187.4100  177.5200  143.9810 C   0  0  1  0  0  3  0  0  0  0  0  0
  191.1690  177.6730  144.7290 C   0  0  0  0  0  3  0  0  0  0  0  0
  184.8180  180.0540  144.6330 O   0  0  0  0  0  0  0  0  0  0  0  0
  189.8880  176.9860  144.3710 C   0  0  0  0  0  0  0  0  0  0  0  0
  1  7  2  0  0  0  0
  2  3  1  0  0  0  0
  3  9  2  0  0  0  0
  3  4  1  0  0  0  0
  4 13  2  0  0  0  0
  5  6  2  0  0  0  0
  6 36  1  0  0  0  0
  7  6  1  0  0  0  0
  8  1  1  1  0  0  0
  8  9  1  0  0  0  0
  8  5  1  0  0  0  0
  9 12  1  0  0  0  0
 11  2  2  0  0  0  0
 11  1  1  0  0  0  0
 12 10  2  0  0  0  0
 13 10  1  0  0  0  0
 13 14  1  0  0  0  0
 15 14  1  6  0  0  0
 15 19  1  0  0  0  0
 16 18  1  6  0  0  0
 16 24  1  0  0  0  0
 17 15  1  0  0  0  0
 17 18  1  0  0  0  0
 19 26  1  0  0  0  0
 19 16  1  0  0  0  0
 21 20  1  1  0  0  0
 22 23  1  0  0  0  0
 23 21  1  0  0  0  0
 24 22  1  6  0  0  0
 24 25  1  0  0  0  0
 25 21  1  0  0  0  0
 27 26  1  0  0  0  0
 27 30  1  0  0  0  0
 28 33  1  0  0  0  0
 28 30  1  0  0  0  0
 29 32  2  0  0  0  0
 30 29  1  0  0  0  0
 31 35  1  0  0  0  0
 31 32  1  0  0  0  0
 33 31  2  0  0  0  0
 35 34  3  0  0  0  0
 36 37  1  0  0  0  0
 38 39  1  6  0  0  0
 38 37  1  0  0  0  0
 38 40  1  0  0  0  0
 41 46  1  0  0  0  0
 42 41  1  0  0  0  0
 43 40  1  6  0  0  0
 43 52  1  0  0  0  0
 43 55  1  0  0  0  0
 44 46  1  0  0  0  0
 45 49  1  0  0  0  0
 47 50  1  0  0  0  0
 47 49  1  0  0  0  0
 49 48  1  1  0  0  0
 51 50  1  6  0  0  0
 51 44  1  0  0  0  0
 52 42  1  1  0  0  0
 52 51  1  0  0  0  0
 53 45  2  0  0  0  0
 54 41  2  0  0  0  0
 55 53  1  0  0  0  0
 55 47  2  0  0  0  0
M  END
>  <MODEL>
6

>  <REMARK>
 VINA RESULT:      -6.6      2.774      6.814
  Name = 
  12 active torsions:
  status: ('A' for Active; 'I' for Inactive)
    1  A    between atoms: C_3  and  O_4
    2  A    between atoms: O_4  and  C_55
    3  A    between atoms: C_5  and  C_18
    4  A    between atoms: C_5  and  C_27
    5  A    between atoms: C_6  and  C_48
    6  A    between atoms: C_13  and  C_25
    7  A    between atoms: C_13  and  C_27
    8  A    between atoms: C_14  and  C_18
    9  A    between atoms: N_30  and  C_32
   10  A    between atoms: C_32  and  C_40
   11  A    between atoms: C_35  and  C_50
   12  A    between atoms: C_40  and  N_53
                            x       y       z     vdW  Elec       q    Type
                         _______ _______ _______ _____ _____    ______ ____

>  <TORSDO>
F 12

$$$$
=
 OpenBabel11062421343D

 55 63  0  0  1  0  0  0  0  0999 V2000
  195.1820  176.2790  145.2140 C   0  0  0  0  0  0  0  0  0  0  0  0
  196.4680  176.5980  143.2540 C   0  0  0  0  0  3  0  0  0  0  0  0
  196.5330  175.1280  143.0830 C   0  0  0  0  0  0  0  0  0  0  0  0
  197.0070  174.5790  141.8880 C   0  0  0  0  0  3  0  0  0  0  0  0
  194.3580  174.2700  145.9030 N   0  0  0  0  0  0  0  0  0  0  0  0
  193.5300  175.2490  146.1320 C   0  0  0  0  0  0  0  0  0  0  0  0
  193.9920  176.5130  145.6620 N   0  0  0  0  0  0  0  0  0  0  0  0
  195.5830  174.8540  145.3960 C   0  0  1  0  0  3  0  0  0  0  0  0
  196.0070  174.2770  144.0760 C   0  0  0  0  0  0  0  0  0  0  0  0
  196.4350  172.3910  142.7150 C   0  0  0  0  0  3  0  0  0  0  0  0
  195.8150  177.1280  144.2530 N   0  0  0  0  0  0  0  0  0  0  0  0
  196.0060  172.9330  143.8840 N   0  0  0  0  0  0  0  0  0  0  0  0
  196.9290  173.2030  141.6890 C   0  0  0  0  0  0  0  0  0  0  0  0
  197.3110  172.6730  140.4510 O   0  0  0  0  0  0  0  0  0  0  0  0
  196.8630  173.2110  139.2070 C   0  0  2  0  0  3  0  0  0  0  0  0
  195.1790  174.6300  138.3690 C   0  0  2  0  0  3  0  0  0  0  0  0
  197.5330  174.5340  138.9470 C   0  0  0  0  0  2  0  0  0  0  0  0
  196.5320  175.2910  138.1100 C   0  0  0  0  0  2  0  0  0  0  0  0
  195.4330  173.4870  139.2780 N   0  0  0  0  0  0  0  0  0  0  0  0
  191.7010  175.8110  134.8140 N   0  0  0  0  0  1  0  0  0  0  0  0
  192.9260  175.8310  135.5940 C   0  0  2  0  0  3  0  0  0  0  0  0
  195.0470  174.9380  135.8310 C   0  0  0  0  0  2  0  0  0  0  0  0
  194.0080  175.1940  134.8480 N   0  0  0  0  0  2  0  0  0  0  0  0
  194.4140  174.2940  137.0600 C   0  0  2  0  0  3  0  0  0  0  0  0
  192.6910  174.9160  137.1370 S   0  0  0  0  0  0  0  0  0  0  0  0
  194.7240  172.2500  138.9520 C   0  0  0  0  0  2  0  0  0  0  0  0
  193.9620  171.7420  140.1700 C   0  0  0  0  0  2  0  0  0  0  0  0
  191.7010  172.5890  140.9190 C   0  0  0  0  0  2  0  0  0  0  0  0
  191.9230  171.3120  138.7640 C   0  0  0  0  0  3  0  0  0  0  0  0
  192.5240  171.8570  139.9510 N   0  0  0  0  0  0  0  0  0  0  0  0
  190.0960  172.9060  139.0630 C   0  0  0  0  0  0  0  0  0  0  0  0
  190.7520  171.7960  138.3370 C   0  0  0  0  0  3  0  0  0  0  0  0
  190.6000  173.3430  140.2240 C   0  0  0  0  0  3  0  0  0  0  0  0
  188.3160  174.3190  137.8140 N   0  0  0  0  0  0  0  0  0  0  0  0
  189.1110  173.6930  138.3770 C   0  0  0  0  0  0  0  0  0  0  0  0
  192.0930  175.0110  146.4230 C   0  0  0  0  0  2  0  0  0  0  0  0
  191.1860  175.7560  145.4490 C   0  0  0  0  0  2  0  0  0  0  0  0
  190.1930  176.6400  146.1930 C   0  0  2  0  0  3  0  0  0  0  0  0
  189.2520  175.8530  146.8510 O   0  0  0  0  0  1  0  0  0  0  0  0
  189.4960  177.6250  145.2550 C   0  0  0  0  0  2  0  0  0  0  0  0
  184.8240  178.3680  146.2420 C   0  0  0  0  0  0  0  0  0  0  0  0
  186.2140  177.7740  146.2190 C   0  0  0  0  0  2  0  0  0  0  0  0
  188.1580  177.0980  144.7480 C   0  0  1  0  0  3  0  0  0  0  0  0
  185.2110  179.5880  144.0460 C   0  0  0  0  0  2  0  0  0  0  0  0
  187.7850  175.2610  141.5050 C   0  0  0  0  0  3  0  0  0  0  0  0
  184.1880  179.0400  145.0420 C   0  0  0  0  0  2  0  0  0  0  0  0
  187.7650  177.4070  142.2980 C   0  0  0  0  0  0  0  0  0  0  0  0
  186.8350  176.8930  139.9030 C   0  0  0  0  0  1  0  0  0  0  0  0
  187.4580  176.5070  141.1970 C   0  0  0  0  0  0  0  0  0  0  0  0
  187.0830  178.7100  142.5400 C   0  0  0  0  0  2  0  0  0  0  0  0
  186.2100  178.4890  143.7640 C   0  0  1  0  0  3  0  0  0  0  0  0
  187.0680  178.1660  145.0020 C   0  0  1  0  0  3  0  0  0  0  0  0
  188.3740  175.2480  142.8820 C   0  0  0  0  0  2  0  0  0  0  0  0
  184.1610  178.2630  147.2610 O   0  0  0  0  0  0  0  0  0  0  0  0
  188.2800  176.6840  143.2950 C   0  0  0  0  0  0  0  0  0  0  0  0
  1  8  1  0  0  0  0
  1  7  2  0  0  0  0
  2 11  2  0  0  0  0
  3  2  1  0  0  0  0
  3  9  1  0  0  0  0
  4  3  2  0  0  0  0
  5  6  2  0  0  0  0
  6 36  1  0  0  0  0
  7  6  1  0  0  0  0
  8  9  1  6  0  0  0
  8  5  1  0  0  0  0
 10 12  1  0  0  0  0
 11  1  1  0  0  0  0
 12  9  2  0  0  0  0
 13  4  1  0  0  0  0
 13 10  2  0  0  0  0
 14 13  1  0  0  0  0
 15 19  1  0  0  0  0
 15 14  1  1  0  0  0
 16 18  1  6  0  0  0
 16 19  1  0  0  0  0
 17 15  1  0  0  0  0
 18 17  1  0  0  0  0
 21 20  1  6  0  0  0
 21 25  1  0  0  0  0
 23 21  1  0  0  0  0
 23 22  1  0  0  0  0
 24 22  1  6  0  0  0
 24 25  1  0  0  0  0
 24 16  1  0  0  0  0
 26 19  1  0  0  0  0
 26 27  1  0  0  0  0
 29 30  1  0  0  0  0
 30 27  1  0  0  0  0
 30 28  1  0  0  0  0
 31 33  2  0  0  0  0
 32 29  2  0  0  0  0
 32 31  1  0  0  0  0
 33 28  1  0  0  0  0
 34 35  3  0  0  0  0
 35 31  1  0  0  0  0
 37 38  1  0  0  0  0
 37 36  1  0  0  0  0
 38 39  1  6  0  0  0
 40 38  1  0  0  0  0
 41 54  2  0  0  0  0
 42 41  1  0  0  0  0
 43 52  1  0  0  0  0
 43 40  1  6  0  0  0
 44 46  1  0  0  0  0
 45 53  1  0  0  0  0
 46 41  1  0  0  0  0
 47 50  1  0  0  0  0
 47 55  2  0  0  0  0
 48 49  1  0  0  0  0
 49 45  2  0  0  0  0
 49 47  1  0  0  0  0
 51 50  1  6  0  0  0
 51 44  1  0  0  0  0
 51 52  1  0  0  0  0
 52 42  1  1  0  0  0
 53 55  1  0  0  0  0
 55 43  1  0  0  0  0
M  END
>  <MODEL>
7

>  <REMARK>
 VINA RESULT:      -6.6      2.403      5.643
  Name = 
  12 active torsions:
  status: ('A' for Active; 'I' for Inactive)
    1  A    between atoms: C_3  and  O_4
    2  A    between atoms: O_4  and  C_55
    3  A    between atoms: C_5  and  C_18
    4  A    between atoms: C_5  and  C_27
    5  A    between atoms: C_6  and  C_48
    6  A    between atoms: C_13  and  C_25
    7  A    between atoms: C_13  and  C_27
    8  A    between atoms: C_14  and  C_18
    9  A    between atoms: N_30  and  C_32
   10  A    between atoms: C_32  and  C_40
   11  A    between atoms: C_35  and  C_50
   12  A    between atoms: C_40  and  N_53
                            x       y       z     vdW  Elec       q    Type
                         _______ _______ _______ _____ _____    ______ ____

>  <TORSDO>
F 12

$$$$
=
 OpenBabel11062421343D

 55 63  0  0  1  0  0  0  0  0999 V2000
  196.6610  176.3650  141.4020 C   0  0  0  0  0  0  0  0  0  0  0  0
  195.7840  176.5020  143.5950 C   0  0  0  0  0  3  0  0  0  0  0  0
  194.4920  175.9860  143.0880 C   0  0  0  0  0  0  0  0  0  0  0  0
  193.4970  175.5780  143.9810 C   0  0  0  0  0  3  0  0  0  0  0  0
  195.5870  175.3990  139.6410 N   0  0  0  0  0  0  0  0  0  0  0  0
  196.8700  175.1750  139.6200 C   0  0  0  0  0  0  0  0  0  0  0  0
  197.5640  175.7200  140.7400 N   0  0  0  0  0  0  0  0  0  0  0  0
  195.3280  176.3100  140.7380 C   0  0  1  0  0  3  0  0  0  0  0  0
  194.3030  175.7900  141.7040 C   0  0  0  0  0  0  0  0  0  0  0  0
  192.1830  174.8240  142.1090 C   0  0  0  0  0  3  0  0  0  0  0  0
  196.8030  176.6610  142.7940 N   0  0  0  0  0  0  0  0  0  0  0  0
  193.1430  175.2520  141.2490 N   0  0  0  0  0  0  0  0  0  0  0  0
  192.3460  174.9650  143.4910 C   0  0  0  0  0  0  0  0  0  0  0  0
  191.4030  174.4680  144.3970 O   0  0  0  0  0  0  0  0  0  0  0  0
  190.6130  175.3120  145.2340 C   0  0  2  0  0  3  0  0  0  0  0  0
  188.3700  175.5820  145.9040 C   0  0  2  0  0  3  0  0  0  0  0  0
  190.5260  174.7300  146.6190 C   0  0  0  0  0  2  0  0  0  0  0  0
  189.1960  175.2180  147.1370 C   0  0  0  0  0  2  0  0  0  0  0  0
  189.2470  175.3640  144.7280 N   0  0  0  0  0  0  0  0  0  0  0  0
  184.6760  178.6620  147.6350 N   0  0  0  0  0  1  0  0  0  0  0  0
  185.8540  177.8110  147.6110 C   0  0  2  0  0  3  0  0  0  0  0  0
  188.1400  177.7340  147.2710 C   0  0  0  0  0  2  0  0  0  0  0  0
  187.0640  178.6240  147.6700 N   0  0  0  0  0  2  0  0  0  0  0  0
  187.7200  176.9880  146.0090 C   0  0  2  0  0  3  0  0  0  0  0  0
  185.8930  176.8540  146.0750 S   0  0  0  0  0  0  0  0  0  0  0  0
  189.1920  176.4010  143.6980 C   0  0  0  0  0  2  0  0  0  0  0  0
  188.4370  175.8910  142.4760 C   0  0  0  0  0  2  0  0  0  0  0  0
  187.3670  177.1130  140.5390 C   0  0  0  0  0  2  0  0  0  0  0  0
  186.7300  177.6870  142.9030 C   0  0  0  0  0  3  0  0  0  0  0  0
  187.5220  176.9150  141.9840 N   0  0  0  0  0  0  0  0  0  0  0  0
  185.1550  178.0820  141.0780 C   0  0  0  0  0  0  0  0  0  0  0  0
  185.6010  178.2630  142.4770 C   0  0  0  0  0  3  0  0  0  0  0  0
  185.9420  177.4540  140.1960 C   0  0  0  0  0  3  0  0  0  0  0  0
  182.6580  178.4950  140.5110 N   0  0  0  0  0  0  0  0  0  0  0  0
  183.7750  178.3140  140.7580 C   0  0  0  0  0  0  0  0  0  0  0  0
  197.4660  174.0990  138.7890 C   0  0  0  0  0  2  0  0  0  0  0  0
  197.4130  172.7460  139.4900 C   0  0  0  0  0  2  0  0  0  0  0  0
  196.8570  171.6710  138.5650 C   0  0  2  0  0  3  0  0  0  0  0  0
  196.5280  172.2250  137.3310 O   0  0  0  0  0  1  0  0  0  0  0  0
  195.6400  170.9720  139.1720 C   0  0  0  0  0  2  0  0  0  0  0  0
  191.8130  173.6670  137.9670 C   0  0  0  0  0  0  0  0  0  0  0  0
  193.2290  173.2300  138.2730 C   0  0  0  0  0  2  0  0  0  0  0  0
  194.7030  171.9460  139.8780 C   0  0  1  0  0  3  0  0  0  0  0  0
  190.8340  171.7230  139.2800 C   0  0  0  0  0  2  0  0  0  0  0  0
  194.4230  172.1690  143.6070 C   0  0  0  0  0  3  0  0  0  0  0  0
  190.6000  173.1120  138.6860 C   0  0  0  0  0  2  0  0  0  0  0  0
  193.5080  171.0050  141.8630 C   0  0  0  0  0  0  0  0  0  0  0  0
  192.3350  170.9810  144.2060 C   0  0  0  0  0  1  0  0  0  0  0  0
  193.4150  171.3820  143.2650 C   0  0  2  0  0  3  0  0  0  0  0  0
  192.3480  170.6100  141.0150 C   0  0  0  0  0  2  0  0  0  0  0  0
  192.1270  171.7710  140.0610 C   0  0  1  0  0  3  0  0  0  0  0  0
  193.3450  171.9640  139.1370 C   0  0  1  0  0  3  0  0  0  0  0  0
  195.3040  172.3640  142.4110 C   0  0  0  0  0  3  0  0  0  0  0  0
  191.6400  174.5410  137.1340 O   0  0  0  0  0  0  0  0  0  0  0  0
  194.5920  171.5880  141.3470 C   0  0  0  0  0  0  0  0  0  0  0  0
  1 11  1  0  0  0  0
  3  2  1  0  0  0  0
  3  4  1  0  0  0  0
  6  5  2  0  0  0  0
  6  7  1  0  0  0  0
  7  1  2  0  0  0  0
  8  5  1  6  0  0  0
  8  1  1  0  0  0  0
  8  9  1  0  0  0  0
  9  3  2  0  0  0  0
 10 13  1  0  0  0  0
 11  2  2  0  0  0  0
 12  9  1  0  0  0  0
 12 10  2  0  0  0  0
 13  4  2  0  0  0  0
 13 14  1  0  0  0  0
 15 14  1  6  0  0  0
 15 17  1  0  0  0  0
 16 24  1  0  0  0  0
 16 18  1  1  0  0  0
 17 18  1  0  0  0  0
 19 15  1  0  0  0  0
 19 16  1  0  0  0  0
 21 20  1  6  0  0  0
 21 23  1  0  0  0  0
 22 23  1  0  0  0  0
 24 25  1  0  0  0  0
 24 22  1  1  0  0  0
 25 21  1  0  0  0  0
 26 19  1  0  0  0  0
 27 26  1  0  0  0  0
 28 30  1  0  0  0  0
 30 27  1  0  0  0  0
 30 29  1  0  0  0  0
 31 32  1  0  0  0  0
 32 29  2  0  0  0  0
 33 28  1  0  0  0  0
 33 31  2  0  0  0  0
 34 35  3  0  0  0  0
 35 31  1  0  0  0  0
 36 37  1  0  0  0  0
 36  6  1  0  0  0  0
 38 39  1  6  0  0  0
 38 40  1  0  0  0  0
 38 37  1  0  0  0  0
 41 42  1  0  0  0  0
 41 46  1  0  0  0  0
 43 40  1  6  0  0  0
 43 55  1  0  0  0  0
 46 44  1  0  0  0  0
 47 49  1  0  0  0  0
 49 45  1  0  0  0  0
 49 48  1  6  0  0  0
 50 47  1  0  0  0  0
 51 44  1  6  0  0  0
 51 50  1  0  0  0  0
 52 42  1  1  0  0  0
 52 43  1  0  0  0  0
 52 51  1  0  0  0  0
 53 45  2  0  0  0  0
 54 41  2  0  0  0  0
 55 47  2  0  0  0  0
 55 53  1  0  0  0  0
M  END
>  <MODEL>
8

>  <REMARK>
 VINA RESULT:      -6.6      3.341      9.325
  Name = 
  12 active torsions:
  status: ('A' for Active; 'I' for Inactive)
    1  A    between atoms: C_3  and  O_4
    2  A    between atoms: O_4  and  C_55
    3  A    between atoms: C_5  and  C_18
    4  A    between atoms: C_5  and  C_27
    5  A    between atoms: C_6  and  C_48
    6  A    between atoms: C_13  and  C_25
    7  A    between atoms: C_13  and  C_27
    8  A    between atoms: C_14  and  C_18
    9  A    between atoms: N_30  and  C_32
   10  A    between atoms: C_32  and  C_40
   11  A    between atoms: C_35  and  C_50
   12  A    between atoms: C_40  and  N_53
                            x       y       z     vdW  Elec       q    Type
                         _______ _______ _______ _____ _____    ______ ____

>  <TORSDO>
F 12

$$$$
=
 OpenBabel11062421343D

 55 63  0  0  1  0  0  0  0  0999 V2000
  187.9670  176.8450  146.4810 C   0  0  0  0  0  0  0  0  0  0  0  0
  186.0370  176.4770  145.1640 C   0  0  0  0  0  3  0  0  0  0  0  0
  186.7850  176.9470  143.9750 C   0  0  0  0  0  0  0  0  0  0  0  0
  186.2560  176.7670  142.6930 C   0  0  0  0  0  3  0  0  0  0  0  0
  190.0160  177.3870  145.6450 N   0  0  0  0  0  0  0  0  0  0  0  0
  190.0960  176.5810  146.6650 C   0  0  0  0  0  0  0  0  0  0  0  0
  188.8280  176.1780  147.1780 N   0  0  0  0  0  0  0  0  0  0  0  0
  188.6210  177.7510  145.4940 C   0  0  1  0  0  3  0  0  0  0  0  0
  188.0870  177.4710  144.1200 C   0  0  0  0  0  0  0  0  0  0  0  0
  188.3030  177.6370  141.7710 C   0  0  0  0  0  3  0  0  0  0  0  0
  186.6110  176.4180  146.3360 N   0  0  0  0  0  0  0  0  0  0  0  0
  188.7950  177.8360  143.0210 N   0  0  0  0  0  0  0  0  0  0  0  0
  187.0320  177.0860  141.5810 C   0  0  0  0  0  0  0  0  0  0  0  0
  186.5340  176.8070  140.3040 O   0  0  0  0  0  0  0  0  0  0  0  0
  187.3690  176.4050  139.2180 C   0  0  2  0  0  3  0  0  0  0  0  0
  187.7520  174.5250  137.8500 C   0  0  2  0  0  3  0  0  0  0  0  0
  186.6920  176.7060  137.9080 C   0  0  0  0  0  2  0  0  0  0  0  0
  187.2360  175.6610  136.9670 C   0  0  0  0  0  2  0  0  0  0  0  0
  187.5590  174.9600  139.2540 N   0  0  0  0  0  0  0  0  0  0  0  0
  190.9420  171.2360  135.5840 N   0  0  0  0  0  1  0  0  0  0  0  0
  189.9480  172.2810  135.7620 C   0  0  2  0  0  3  0  0  0  0  0  0
  189.6040  174.5460  136.0820 C   0  0  0  0  0  2  0  0  0  0  0  0
  190.5470  173.5910  135.5270 N   0  0  0  0  0  2  0  0  0  0  0  0
  189.1900  174.0770  137.4740 C   0  0  2  0  0  3  0  0  0  0  0  0
  189.3160  172.2480  137.4580 S   0  0  0  0  0  0  0  0  0  0  0  0
  188.6720  174.6790  140.1610 C   0  0  0  0  0  2  0  0  0  0  0  0
  188.2670  173.6250  141.1830 C   0  0  0  0  0  2  0  0  0  0  0  0
  189.3150  171.9620  142.7740 C   0  0  0  0  0  2  0  0  0  0  0  0
  190.7360  173.7060  141.6500 C   0  0  0  0  0  3  0  0  0  0  0  0
  189.4440  173.1180  141.8810 N   0  0  0  0  0  0  0  0  0  0  0  0
  191.7290  171.5960  142.3770 C   0  0  0  0  0  0  0  0  0  0  0  0
  191.8390  172.9920  141.8980 C   0  0  0  0  0  3  0  0  0  0  0  0
  190.5330  171.0830  142.6910 C   0  0  0  0  0  3  0  0  0  0  0  0
  193.7570  170.0070  142.0790 N   0  0  0  0  0  0  0  0  0  0  0  0
  192.8550  170.7210  142.2160 C   0  0  0  0  0  0  0  0  0  0  0  0
  191.3310  175.8120  146.9640 C   0  0  0  0  0  2  0  0  0  0  0  0
  192.5160  176.7290  147.2440 C   0  0  0  0  0  2  0  0  0  0  0  0
  193.6810  176.4180  146.3130 C   0  0  2  0  0  3  0  0  0  0  0  0
  194.7090  177.3360  146.5090 O   0  0  0  0  0  1  0  0  0  0  0  0
  193.2510  176.4110  144.8460 C   0  0  0  0  0  2  0  0  0  0  0  0
  195.3810  175.5140  140.6020 C   0  0  0  0  0  0  0  0  0  0  0  0
  194.3370  175.6730  141.6840 C   0  0  0  0  0  2  0  0  0  0  0  0
  193.7590  175.1830  144.0980 C   0  0  1  0  0  3  0  0  0  0  0  0
  197.2480  175.2830  142.3110 C   0  0  0  0  0  2  0  0  0  0  0  0
  194.3640  171.8820  145.7630 C   0  0  0  0  0  3  0  0  0  0  0  0
  196.7920  175.0320  140.8730 C   0  0  0  0  0  2  0  0  0  0  0  0
  195.4710  173.8350  145.3250 C   0  0  0  0  0  0  0  0  0  0  0  0
  196.8150  171.7130  146.0700 C   0  0  0  0  0  1  0  0  0  0  0  0
  195.5630  172.4440  145.7390 C   0  0  2  0  0  3  0  0  0  0  0  0
  196.5780  174.6000  144.6830 C   0  0  0  0  0  2  0  0  0  0  0  0
  196.1640  174.7730  143.2310 C   0  0  1  0  0  3  0  0  0  0  0  0
  194.8780  175.6160  143.1220 C   0  0  1  0  0  3  0  0  0  0  0  0
  193.3470  172.9090  145.3670 C   0  0  0  0  0  3  0  0  0  0  0  0
  195.0620  175.7400  139.4460 O   0  0  0  0  0  0  0  0  0  0  0  0
  194.1880  174.1140  145.0830 C   0  0  0  0  0  0  0  0  0  0  0  0
  1  7  2  0  0  0  0
  2 11  2  0  0  0  0
  3  9  1  0  0  0  0
  3  2  1  0  0  0  0
  4  3  2  0  0  0  0
  5  6  2  0  0  0  0
  6 36  1  0  0  0  0
  6  7  1  0  0  0  0
  8  9  1  6  0  0  0
  8  5  1  0  0  0  0
  8  1  1  0  0  0  0
 10 12  1  0  0  0  0
 11  1  1  0  0  0  0
 12  9  2  0  0  0  0
 13 10  2  0  0  0  0
 13  4  1  0  0  0  0
 14 13  1  0  0  0  0
 15 19  1  0  0  0  0
 15 14  1  1  0  0  0
 16 18  1  6  0  0  0
 16 19  1  0  0  0  0
 17 15  1  0  0  0  0
 18 17  1  0  0  0  0
 19 26  1  0  0  0  0
 21 20  1  1  0  0  0
 21 25  1  0  0  0  0
 23 21  1  0  0  0  0
 23 22  1  0  0  0  0
 24 22  1  6  0  0  0
 24 16  1  0  0  0  0
 25 24  1  0  0  0  0
 26 27  1  0  0  0  0
 27 30  1  0  0  0  0
 29 30  1  0  0  0  0
 29 32  2  0  0  0  0
 30 28  1  0  0  0  0
 31 33  2  0  0  0  0
 32 31  1  0  0  0  0
 33 28  1  0  0  0  0
 34 35  3  0  0  0  0
 35 31  1  0  0  0  0
 36 37  1  0  0  0  0
 38 39  1  6  0  0  0
 38 37  1  0  0  0  0
 40 38  1  0  0  0  0
 41 46  1  0  0  0  0
 41 42  1  0  0  0  0
 43 40  1  1  0  0  0
 43 55  1  0  0  0  0
 46 44  1  0  0  0  0
 47 49  1  0  0  0  0
 49 45  1  0  0  0  0
 49 48  1  6  0  0  0
 50 47  1  0  0  0  0
 51 44  1  6  0  0  0
 51 50  1  0  0  0  0
 52 42  1  6  0  0  0
 52 51  1  0  0  0  0
 52 43  1  0  0  0  0
 53 45  2  0  0  0  0
 54 41  2  0  0  0  0
 55 47  2  0  0  0  0
 55 53  1  0  0  0  0
M  END
>  <MODEL>
9

>  <REMARK>
 VINA RESULT:      -6.6      2.312      6.681
  Name = 
  12 active torsions:
  status: ('A' for Active; 'I' for Inactive)
    1  A    between atoms: C_3  and  O_4
    2  A    between atoms: O_4  and  C_55
    3  A    between atoms: C_5  and  C_18
    4  A    between atoms: C_5  and  C_27
    5  A    between atoms: C_6  and  C_48
    6  A    between atoms: C_13  and  C_25
    7  A    between atoms: C_13  and  C_27
    8  A    between atoms: C_14  and  C_18
    9  A    between atoms: N_30  and  C_32
   10  A    between atoms: C_32  and  C_40
   11  A    between atoms: C_35  and  C_50
   12  A    between atoms: C_40  and  N_53
                            x       y       z     vdW  Elec       q    Type
                         _______ _______ _______ _____ _____    ______ ____

>  <TORSDO>
F 12

$$$$
