=
 OpenBabel11062422543D

 46 48  0  0  1  0  0  0  0  0999 V2000
  187.4840  178.0990  142.1120 C   0  0  1  0  0  3  0  0  0  0  0  0
  187.9120  177.1490  143.2240 C   0  0  1  0  0  0  0  0  0  0  0  0
  189.3110  177.5130  142.7370 C   0  0  1  0  0  3  0  0  0  0  0  0
  188.8160  178.3880  141.7530 O   0  0  0  0  0  0  0  0  0  0  0  0
  190.1840  178.2830  143.7240 C   0  0  0  0  0  2  0  0  0  0  0  0
  191.3870  177.5180  144.0100 N   0  0  0  0  0  2  0  0  0  0  0  0
  190.5790  176.6620  146.0280 O   0  0  0  0  0  0  0  0  0  0  0  0
  191.5200  176.7290  145.1910 C   0  0  0  0  0  0  0  0  0  0  0  0
  192.7730  175.9580  145.4270 C   0  0  0  0  0  2  0  0  0  0  0  0
  193.9910  176.7400  144.9510 C   0  0  0  0  0  2  0  0  0  0  0  0
  196.1670  176.6290  143.7530 C   0  0  0  0  0  2  0  0  0  0  0  0
  194.9290  175.8660  144.1300 C   0  0  2  0  0  3  0  0  0  0  0  0
  194.3070  175.5070  142.9390 O   0  0  0  0  0  0  0  0  0  0  0  0
  195.3120  175.6380  141.9710 C   0  0  1  0  0  3  0  0  0  0  0  0
  194.7190  176.0250  140.7050 N   0  0  0  0  0  1  0  0  0  0  0  0
  196.2510  176.6030  142.3630 O   0  0  0  0  0  0  0  0  0  0  0  0
  187.4940  177.7130  144.5940 C   0  0  0  0  0  2  0  0  0  0  0  0
  186.3250  176.9520  145.2060 C   0  0  0  0  0  2  0  0  0  0  0  0
  185.2650  177.9200  145.6960 C   0  0  0  0  0  2  0  0  0  0  0  0
  185.3410  178.0690  147.2040 C   0  0  0  0  0  2  0  0  0  0  0  0
  186.1450  177.0610  147.7300 O   0  0  0  0  0  1  0  0  0  0  0  0
  186.7600  177.4510  140.9300 C   0  0  0  0  0  2  0  0  0  0  0  0
  185.5100  178.2330  140.5610 C   0  0  0  0  0  2  0  0  0  0  0  0
  184.5310  178.1890  141.6520 C   0  0  0  0  0  0  0  0  0  0  0  0
  183.7590  178.1570  142.5120 N   0  0  0  0  0  0  0  0  0  0  0  0
  187.6220  175.6490  142.9980 C   0  0  0  0  0  2  0  0  0  0  0  0
  188.8690  174.8190  142.7000 C   0  0  0  0  0  2  0  0  0  0  0  0
  189.6550  172.6410  141.6690 C   0  0  1  0  0  3  0  0  0  0  0  0
  189.5360  173.7490  139.6250 C   0  0  0  0  0  2  0  0  0  0  0  0
  191.6680  173.9570  140.8580 C   0  0  0  0  0  1  0  0  0  0  0  0
  191.0540  171.7860  139.7990 C   0  0  0  0  0  1  0  0  0  0  0  0
  188.5770  173.7070  141.7000 C   0  0  2  0  0  3  0  0  0  0  0  0
  188.4760  174.2640  140.4090 O   0  0  0  0  0  0  0  0  0  0  0  0
  190.5250  173.0170  140.5040 C   0  0  0  0  0  0  0  0  0  0  0  0
  190.2980  172.2590  142.9850 C   0  0  0  0  0  0  0  0  0  0  0  0
  189.6120  171.7510  143.9110 O   0  0  0  0  0  0  0  0  0  0  0  0
  191.6720  172.4130  143.1690 O   0  0  0  0  0  0  0  0  0  0  0  0
  192.5460  171.3530  143.0310 N   0  0  0  0  0  2  0  0  0  0  0  0
  192.7680  170.7850  144.3540 C   0  0  0  0  0  2  0  0  0  0  0  0
  194.1960  171.0440  144.8030 C   0  0  0  0  0  2  0  0  0  0  0  0
  194.6680  172.2350  144.2260 O   0  0  0  0  0  0  0  0  0  0  0  0
  196.0390  172.0820  143.9250 C   0  0  2  0  0  3  0  0  0  0  0  0
  196.5180  170.3900  143.5670 Cl  0  0  0  0  0  0  0  0  0  0  0  0
  196.9350  172.3790  146.2380 O   0  0  0  0  0  1  0  0  0  0  0  0
  197.7370  173.6710  144.5250 O   0  0  0  0  0  0  0  0  0  0  0  0
  196.9400  172.7730  144.9070 C   0  0  0  0  0  0  0  0  0  0  0  0
  1 22  1  6  0  0  0
  1  2  1  0  0  0  0
  2 26  1  6  0  0  0
  2 17  1  0  0  0  0
  3  2  1  0  0  0  0
  3  5  1  1  0  0  0
  4  1  1  0  0  0  0
  4  3  1  0  0  0  0
  5  6  1  0  0  0  0
  6  8  1  0  0  0  0
  8  9  1  0  0  0  0
  8  7  2  0  0  0  0
 10  9  1  0  0  0  0
 11 12  1  0  0  0  0
 12 10  1  1  0  0  0
 13 12  1  0  0  0  0
 14 15  1  6  0  0  0
 14 16  1  0  0  0  0
 14 13  1  0  0  0  0
 16 11  1  0  0  0  0
 17 18  1  0  0  0  0
 18 19  1  0  0  0  0
 19 20  1  0  0  0  0
 20 21  1  0  0  0  0
 23 22  1  0  0  0  0
 23 24  1  0  0  0  0
 24 25  3  0  0  0  0
 27 26  1  0  0  0  0
 28 32  1  0  0  0  0
 28 35  1  1  0  0  0
 29 33  1  0  0  0  0
 29 34  1  0  0  0  0
 31 34  1  0  0  0  0
 32 27  1  1  0  0  0
 33 32  1  0  0  0  0
 34 30  1  0  0  0  0
 34 28  1  0  0  0  0
 35 37  1  0  0  0  0
 35 36  2  0  0  0  0
 38 37  1  0  0  0  0
 38 39  1  0  0  0  0
 39 40  1  0  0  0  0
 41 40  1  0  0  0  0
 42 43  1  1  0  0  0
 42 41  1  0  0  0  0
 42 46  1  0  0  0  0
 45 46  2  0  0  0  0
 46 44  1  0  0  0  0
M  END
>  <MODEL>
1

>  <REMARK>
 VINA RESULT:      -5.6      0.000      0.000
  Name = 
  23 active torsions:
  status: ('A' for Active; 'I' for Inactive)
    1  A    between atoms: C_2  and  C_9
    2  A    between atoms: C_2  and  C_18
    3  A    between atoms: N_3  and  C_25
    4  A    between atoms: C_4  and  C_13
    5  A    between atoms: C_4  and  C_24
    6  A    between atoms: C_6  and  C_17
    7  A    between atoms: C_6  and  C_27
    8  A    between atoms: C_7  and  C_21
    9  A    between atoms: C_7  and  C_39
   10  A    between atoms: C_8  and  C_31
   11  A    between atoms: C_14  and  N_16
   12  A    between atoms: C_14  and  C_43
   13  A    between atoms: C_15  and  C_39
   14  A    between atoms: N_16  and  O_45
   15  A    between atoms: C_17  and  C_29
   16  A    between atoms: C_18  and  C_23
   17  A    between atoms: C_21  and  C_27
   18  A    between atoms: C_24  and  C_36
   19  A    between atoms: C_25  and  C_30
   20  A    between atoms: C_26  and  C_33
   21  A    between atoms: C_26  and  O_42
   22  A    between atoms: C_31  and  O_45
   23  A    between atoms: O_42  and  C_43
                            x       y       z     vdW  Elec       q    Type
                         _______ _______ _______ _____ _____    ______ ____

>  <TORSDO>
F 23

$$$$
=
 OpenBabel11062422543D

 46 48  0  0  1  0  0  0  0  0999 V2000
  187.7660  178.0810  142.2210 C   0  0  1  0  0  3  0  0  0  0  0  0
  188.1850  177.1560  143.3560 C   0  0  1  0  0  0  0  0  0  0  0  0
  189.5880  177.5260  142.8860 C   0  0  1  0  0  3  0  0  0  0  0  0
  189.1010  178.3770  141.8780 O   0  0  0  0  0  0  0  0  0  0  0  0
  190.4370  178.3230  143.8720 C   0  0  0  0  0  2  0  0  0  0  0  0
  191.5870  177.5290  144.2770 N   0  0  0  0  0  2  0  0  0  0  0  0
  190.6560  176.8970  146.3240 O   0  0  0  0  0  0  0  0  0  0  0  0
  191.6310  176.8440  145.5270 C   0  0  0  0  0  0  0  0  0  0  0  0
  192.8330  176.0390  145.8850 C   0  0  0  0  0  2  0  0  0  0  0  0
  194.0770  176.5780  145.1910 C   0  0  0  0  0  2  0  0  0  0  0  0
  196.0610  175.3230  144.3730 C   0  0  0  0  0  2  0  0  0  0  0  0
  194.6020  175.6010  144.1470 C   0  0  2  0  0  3  0  0  0  0  0  0
  194.4980  176.1720  142.8830 O   0  0  0  0  0  0  0  0  0  0  0  0
  195.7020  175.8320  142.2510 C   0  0  1  0  0  3  0  0  0  0  0  0
  196.0730  176.8800  141.3190 N   0  0  0  0  0  1  0  0  0  0  0  0
  196.7250  175.6630  143.1960 O   0  0  0  0  0  0  0  0  0  0  0  0
  187.7400  177.7420  144.7090 C   0  0  0  0  0  2  0  0  0  0  0  0
  187.1480  176.6870  145.6350 C   0  0  0  0  0  2  0  0  0  0  0  0
  185.6460  176.8660  145.7470 C   0  0  0  0  0  2  0  0  0  0  0  0
  185.3200  178.1500  146.4840 C   0  0  0  0  0  2  0  0  0  0  0  0
  184.0450  178.5820  146.1220 O   0  0  0  0  0  1  0  0  0  0  0  0
  187.0680  177.4040  141.0390 C   0  0  0  0  0  2  0  0  0  0  0  0
  185.7700  178.1150  140.6930 C   0  0  0  0  0  2  0  0  0  0  0  0
  184.8400  178.0760  141.8270 C   0  0  0  0  0  0  0  0  0  0  0  0
  184.1070  178.0430  142.7200 N   0  0  0  0  0  0  0  0  0  0  0  0
  187.9140  175.6500  143.1540 C   0  0  0  0  0  2  0  0  0  0  0  0
  189.0790  174.8950  142.5190 C   0  0  0  0  0  2  0  0  0  0  0  0
  191.1470  173.5200  143.0310 C   0  0  1  0  0  3  0  0  0  0  0  0
  189.9140  172.6100  144.7830 C   0  0  0  0  0  2  0  0  0  0  0  0
  189.6880  171.4900  142.5920 C   0  0  0  0  0  1  0  0  0  0  0  0
  191.8110  171.2790  143.8800 C   0  0  0  0  0  1  0  0  0  0  0  0
  190.1360  174.5230  143.5520 C   0  0  2  0  0  3  0  0  0  0  0  0
  189.5010  173.9590  144.6780 O   0  0  0  0  0  0  0  0  0  0  0  0
  190.6550  172.1930  143.5330 C   0  0  0  0  0  0  0  0  0  0  0  0
  191.5840  173.6550  141.5880 C   0  0  0  0  0  0  0  0  0  0  0  0
  192.7840  173.4620  141.2600 O   0  0  0  0  0  0  0  0  0  0  0  0
  190.6480  173.9380  140.5920 O   0  0  0  0  0  0  0  0  0  0  0  0
  190.2770  172.9950  139.6550 N   0  0  0  0  0  2  0  0  0  0  0  0
  188.9870  173.3960  139.1090 C   0  0  0  0  0  2  0  0  0  0  0  0
  188.9770  173.2140  137.6010 C   0  0  0  0  0  2  0  0  0  0  0  0
  189.6940  174.2580  136.9910 O   0  0  0  0  0  0  0  0  0  0  0  0
  190.6310  173.7020  136.0930 C   0  0  2  0  0  3  0  0  0  0  0  0
  190.1700  172.0810  135.4770 Cl  0  0  0  0  0  0  0  0  0  0  0  0
  193.0110  172.9470  136.0450 O   0  0  0  0  0  0  0  0  0  0  0  0
  192.3740  174.6380  137.4540 O   0  0  0  0  0  1  0  0  0  0  0  0
  192.0450  173.7830  136.5880 C   0  0  0  0  0  0  0  0  0  0  0  0
  1 22  1  6  0  0  0
  1  2  1  0  0  0  0
  2 26  1  6  0  0  0
  2 17  1  0  0  0  0
  3  2  1  0  0  0  0
  3  5  1  1  0  0  0
  4  1  1  0  0  0  0
  4  3  1  0  0  0  0
  5  6  1  0  0  0  0
  6  8  1  0  0  0  0
  8  9  1  0  0  0  0
  8  7  2  0  0  0  0
 10  9  1  0  0  0  0
 12 11  1  0  0  0  0
 12 10  1  1  0  0  0
 13 12  1  0  0  0  0
 14 15  1  6  0  0  0
 14 13  1  0  0  0  0
 14 16  1  0  0  0  0
 16 11  1  0  0  0  0
 17 18  1  0  0  0  0
 18 19  1  0  0  0  0
 19 20  1  0  0  0  0
 21 20  1  0  0  0  0
 23 22  1  0  0  0  0
 23 24  1  0  0  0  0
 24 25  3  0  0  0  0
 27 26  1  0  0  0  0
 28 35  1  6  0  0  0
 28 34  1  0  0  0  0
 28 32  1  0  0  0  0
 30 34  1  0  0  0  0
 32 27  1  6  0  0  0
 32 33  1  0  0  0  0
 33 29  1  0  0  0  0
 34 31  1  0  0  0  0
 34 29  1  0  0  0  0
 36 35  2  0  0  0  0
 37 35  1  0  0  0  0
 38 37  1  0  0  0  0
 39 38  1  0  0  0  0
 40 39  1  0  0  0  0
 41 40  1  0  0  0  0
 42 43  1  1  0  0  0
 42 46  1  0  0  0  0
 42 41  1  0  0  0  0
 44 46  2  0  0  0  0
 46 45  1  0  0  0  0
M  END
>  <MODEL>
2

>  <REMARK>
 VINA RESULT:      -5.4      2.509      4.385
  Name = 
  23 active torsions:
  status: ('A' for Active; 'I' for Inactive)
    1  A    between atoms: C_2  and  C_9
    2  A    between atoms: C_2  and  C_18
    3  A    between atoms: N_3  and  C_25
    4  A    between atoms: C_4  and  C_13
    5  A    between atoms: C_4  and  C_24
    6  A    between atoms: C_6  and  C_17
    7  A    between atoms: C_6  and  C_27
    8  A    between atoms: C_7  and  C_21
    9  A    between atoms: C_7  and  C_39
   10  A    between atoms: C_8  and  C_31
   11  A    between atoms: C_14  and  N_16
   12  A    between atoms: C_14  and  C_43
   13  A    between atoms: C_15  and  C_39
   14  A    between atoms: N_16  and  O_45
   15  A    between atoms: C_17  and  C_29
   16  A    between atoms: C_18  and  C_23
   17  A    between atoms: C_21  and  C_27
   18  A    between atoms: C_24  and  C_36
   19  A    between atoms: C_25  and  C_30
   20  A    between atoms: C_26  and  C_33
   21  A    between atoms: C_26  and  O_42
   22  A    between atoms: C_31  and  O_45
   23  A    between atoms: O_42  and  C_43
                            x       y       z     vdW  Elec       q    Type
                         _______ _______ _______ _____ _____    ______ ____

>  <TORSDO>
F 23

$$$$
=
 OpenBabel11062422543D

 46 48  0  0  1  0  0  0  0  0999 V2000
  188.0430  177.8770  142.2850 C   0  0  1  0  0  3  0  0  0  0  0  0
  188.2520  176.8910  143.4270 C   0  0  1  0  0  0  0  0  0  0  0  0
  189.7250  177.1600  143.1380 C   0  0  1  0  0  3  0  0  0  0  0  0
  189.4280  178.0740  142.1110 O   0  0  0  0  0  0  0  0  0  0  0  0
  190.5090  177.8590  144.2450 C   0  0  0  0  0  2  0  0  0  0  0  0
  191.6050  177.0070  144.6780 N   0  0  0  0  0  2  0  0  0  0  0  0
  190.3560  175.9410  146.3400 O   0  0  0  0  0  0  0  0  0  0  0  0
  191.4590  176.0700  145.7430 C   0  0  0  0  0  0  0  0  0  0  0  0
  192.6150  175.2170  146.1400 C   0  0  0  0  0  2  0  0  0  0  0  0
  193.6150  175.0900  144.9980 C   0  0  0  0  0  2  0  0  0  0  0  0
  195.9120  175.7560  144.3170 C   0  0  0  0  0  2  0  0  0  0  0  0
  195.0390  175.3510  145.4700 C   0  0  2  0  0  3  0  0  0  0  0  0
  195.5800  174.1760  145.9830 O   0  0  0  0  0  0  0  0  0  0  0  0
  196.8900  174.1540  145.4850 C   0  0  1  0  0  3  0  0  0  0  0  0
  197.3090  172.7800  145.2850 N   0  0  0  0  0  1  0  0  0  0  0  0
  196.9670  174.8490  144.2690 O   0  0  0  0  0  0  0  0  0  0  0  0
  187.6940  177.4730  144.7390 C   0  0  0  0  0  2  0  0  0  0  0  0
  186.7920  176.4920  145.4760 C   0  0  0  0  0  2  0  0  0  0  0  0
  185.6590  177.2310  146.1630 C   0  0  0  0  0  2  0  0  0  0  0  0
  185.9390  178.7210  146.1910 C   0  0  0  0  0  2  0  0  0  0  0  0
  185.6870  179.2170  147.4680 O   0  0  0  0  0  1  0  0  0  0  0  0
  187.4420  177.2890  141.0060 C   0  0  0  0  0  2  0  0  0  0  0  0
  186.0820  177.9030  140.7120 C   0  0  0  0  0  2  0  0  0  0  0  0
  185.4340  178.3430  141.9510 C   0  0  0  0  0  0  0  0  0  0  0  0
  184.9200  178.6890  142.9280 N   0  0  0  0  0  0  0  0  0  0  0  0
  187.8930  175.4170  143.1400 C   0  0  0  0  0  2  0  0  0  0  0  0
  189.0840  174.4640  143.2300 C   0  0  0  0  0  2  0  0  0  0  0  0
  189.9670  172.2780  142.3000 C   0  0  1  0  0  3  0  0  0  0  0  0
  188.6690  172.7340  140.4230 C   0  0  0  0  0  2  0  0  0  0  0  0
  190.9530  173.6790  140.4280 C   0  0  0  0  0  1  0  0  0  0  0  0
  190.6250  171.2240  140.1460 C   0  0  0  0  0  1  0  0  0  0  0  0
  188.7410  173.0850  142.6810 C   0  0  2  0  0  3  0  0  0  0  0  0
  187.9410  173.2340  141.5290 O   0  0  0  0  0  0  0  0  0  0  0  0
  190.1050  172.4770  140.8180 C   0  0  0  0  0  0  0  0  0  0  0  0
  191.1880  172.4040  143.1850 C   0  0  0  0  0  0  0  0  0  0  0  0
  191.1270  172.1140  144.4090 O   0  0  0  0  0  0  0  0  0  0  0  0
  192.4140  172.7910  142.6430 O   0  0  0  0  0  0  0  0  0  0  0  0
  193.5040  171.9430  142.6340 N   0  0  0  0  0  2  0  0  0  0  0  0
  194.7060  172.7650  142.5950 C   0  0  0  0  0  2  0  0  0  0  0  0
  194.6570  173.7090  141.4060 C   0  0  0  0  0  2  0  0  0  0  0  0
  195.9370  173.8280  140.8400 O   0  0  0  0  0  0  0  0  0  0  0  0
  196.1090  175.1510  140.3780 C   0  0  2  0  0  3  0  0  0  0  0  0
  194.7470  176.2440  140.7880 Cl  0  0  0  0  0  0  0  0  0  0  0  0
  195.5760  175.2200  137.9390 O   0  0  0  0  0  0  0  0  0  0  0  0
  197.7540  175.3450  138.6390 O   0  0  0  0  0  1  0  0  0  0  0  0
  196.5370  175.2260  138.9420 C   0  0  0  0  0  0  0  0  0  0  0  0
  1 22  1  6  0  0  0
  1  2  1  0  0  0  0
  2 26  1  6  0  0  0
  2 17  1  0  0  0  0
  3  2  1  0  0  0  0
  3  5  1  1  0  0  0
  4  1  1  0  0  0  0
  4  3  1  0  0  0  0
  5  6  1  0  0  0  0
  6  8  1  0  0  0  0
  8  9  1  0  0  0  0
  8  7  2  0  0  0  0
 10  9  1  0  0  0  0
 11 12  1  0  0  0  0
 12 10  1  6  0  0  0
 12 13  1  0  0  0  0
 14 15  1  6  0  0  0
 14 13  1  0  0  0  0
 16 11  1  0  0  0  0
 16 14  1  0  0  0  0
 17 18  1  0  0  0  0
 18 19  1  0  0  0  0
 19 20  1  0  0  0  0
 20 21  1  0  0  0  0
 23 22  1  0  0  0  0
 23 24  1  0  0  0  0
 24 25  3  0  0  0  0
 26 27  1  0  0  0  0
 28 32  1  0  0  0  0
 28 35  1  1  0  0  0
 29 34  1  0  0  0  0
 29 33  1  0  0  0  0
 30 34  1  0  0  0  0
 31 34  1  0  0  0  0
 32 27  1  6  0  0  0
 33 32  1  0  0  0  0
 34 28  1  0  0  0  0
 35 36  2  0  0  0  0
 37 35  1  0  0  0  0
 38 37  1  0  0  0  0
 39 38  1  0  0  0  0
 40 39  1  0  0  0  0
 41 40  1  0  0  0  0
 42 43  1  6  0  0  0
 42 41  1  0  0  0  0
 44 46  2  0  0  0  0
 45 46  1  0  0  0  0
 46 42  1  0  0  0  0
M  END
>  <MODEL>
3

>  <REMARK>
 VINA RESULT:      -5.4      2.047      2.891
  Name = 
  23 active torsions:
  status: ('A' for Active; 'I' for Inactive)
    1  A    between atoms: C_2  and  C_9
    2  A    between atoms: C_2  and  C_18
    3  A    between atoms: N_3  and  C_25
    4  A    between atoms: C_4  and  C_13
    5  A    between atoms: C_4  and  C_24
    6  A    between atoms: C_6  and  C_17
    7  A    between atoms: C_6  and  C_27
    8  A    between atoms: C_7  and  C_21
    9  A    between atoms: C_7  and  C_39
   10  A    between atoms: C_8  and  C_31
   11  A    between atoms: C_14  and  N_16
   12  A    between atoms: C_14  and  C_43
   13  A    between atoms: C_15  and  C_39
   14  A    between atoms: N_16  and  O_45
   15  A    between atoms: C_17  and  C_29
   16  A    between atoms: C_18  and  C_23
   17  A    between atoms: C_21  and  C_27
   18  A    between atoms: C_24  and  C_36
   19  A    between atoms: C_25  and  C_30
   20  A    between atoms: C_26  and  C_33
   21  A    between atoms: C_26  and  O_42
   22  A    between atoms: C_31  and  O_45
   23  A    between atoms: O_42  and  C_43
                            x       y       z     vdW  Elec       q    Type
                         _______ _______ _______ _____ _____    ______ ____

>  <TORSDO>
F 23

$$$$
=
 OpenBabel11062422543D

 46 48  0  0  1  0  0  0  0  0999 V2000
  188.4290  177.7650  144.2530 C   0  0  1  0  0  3  0  0  0  0  0  0
  188.7020  176.3440  144.7290 C   0  0  1  0  0  0  0  0  0  0  0  0
  190.1480  176.8290  144.7380 C   0  0  1  0  0  3  0  0  0  0  0  0
  189.7910  178.1210  144.3160 O   0  0  0  0  0  0  0  0  0  0  0  0
  190.8240  176.8970  146.1040 C   0  0  0  0  0  2  0  0  0  0  0  0
  192.2670  176.8100  145.9390 N   0  0  0  0  0  2  0  0  0  0  0  0
  192.4180  174.6560  146.8310 O   0  0  0  0  0  0  0  0  0  0  0  0
  193.0050  175.6540  146.3330 C   0  0  0  0  0  0  0  0  0  0  0  0
  194.4810  175.6180  146.1330 C   0  0  0  0  0  2  0  0  0  0  0  0
  194.8560  176.1320  144.7490 C   0  0  0  0  0  2  0  0  0  0  0  0
  196.0780  175.2100  142.7890 C   0  0  0  0  0  2  0  0  0  0  0  0
  196.1590  175.5160  144.2580 C   0  0  2  0  0  3  0  0  0  0  0  0
  196.3730  174.3030  144.9040 O   0  0  0  0  0  0  0  0  0  0  0  0
  196.8350  173.4500  143.8930 C   0  0  1  0  0  3  0  0  0  0  0  0
  196.4100  172.0920  144.1730 N   0  0  0  0  0  1  0  0  0  0  0  0
  196.3350  173.8490  142.6450 O   0  0  0  0  0  0  0  0  0  0  0  0
  188.0500  176.1110  146.1040 C   0  0  0  0  0  2  0  0  0  0  0  0
  187.0240  177.1820  146.4520 C   0  0  0  0  0  2  0  0  0  0  0  0
  185.6200  176.6770  146.1760 C   0  0  0  0  0  2  0  0  0  0  0  0
  184.6070  177.7850  146.3900 C   0  0  0  0  0  2  0  0  0  0  0  0
  185.1690  178.7800  147.1880 O   0  0  0  0  0  1  0  0  0  0  0  0
  187.9280  177.8950  142.8130 C   0  0  0  0  0  2  0  0  0  0  0  0
  186.4110  177.9880  142.7690 C   0  0  0  0  0  2  0  0  0  0  0  0
  185.9380  178.0900  141.3850 C   0  0  0  0  0  0  0  0  0  0  0  0
  185.5660  178.1730  140.2930 N   0  0  0  0  0  0  0  0  0  0  0  0
  188.5030  175.2180  143.6910 C   0  0  0  0  0  2  0  0  0  0  0  0
  189.6820  174.2520  143.5970 C   0  0  0  0  0  2  0  0  0  0  0  0
  191.0510  172.9490  141.9090 C   0  0  1  0  0  3  0  0  0  0  0  0
  192.4420  174.8140  141.8330 C   0  0  0  0  0  2  0  0  0  0  0  0
  192.9560  173.1370  143.5750 C   0  0  0  0  0  1  0  0  0  0  0  0
  193.4050  172.6160  141.1790 C   0  0  0  0  0  1  0  0  0  0  0  0
  190.2650  174.2140  142.1900 C   0  0  2  0  0  3  0  0  0  0  0  0
  191.1320  175.3130  142.0210 O   0  0  0  0  0  0  0  0  0  0  0  0
  192.4840  173.3340  142.1430 C   0  0  0  0  0  0  0  0  0  0  0  0
  190.5240  171.6550  142.4920 C   0  0  0  0  0  0  0  0  0  0  0  0
  190.3350  171.5400  143.7310 O   0  0  0  0  0  0  0  0  0  0  0  0
  190.1880  170.5900  141.6550 O   0  0  0  0  0  0  0  0  0  0  0  0
  191.1480  169.7540  141.1220 N   0  0  0  0  0  2  0  0  0  0  0  0
  190.6140  169.1960  139.8870 C   0  0  0  0  0  2  0  0  0  0  0  0
  190.7650  170.1940  138.7530 C   0  0  0  0  0  2  0  0  0  0  0  0
  189.5030  170.6870  138.3810 O   0  0  0  0  0  0  0  0  0  0  0  0
  189.6330  172.0460  138.0210 C   0  0  2  0  0  3  0  0  0  0  0  0
  191.2830  172.7060  138.2660 Cl  0  0  0  0  0  0  0  0  0  0  0  0
  187.9910  172.6080  139.8170 O   0  0  0  0  0  1  0  0  0  0  0  0
  188.1600  173.9420  137.9620 O   0  0  0  0  0  0  0  0  0  0  0  0
  188.5430  172.9130  138.5800 C   0  0  0  0  0  0  0  0  0  0  0  0
  1 22  1  6  0  0  0
  1  4  1  0  0  0  0
  1  2  1  0  0  0  0
  2 26  1  6  0  0  0
  2  3  1  0  0  0  0
  2 17  1  0  0  0  0
  3  5  1  1  0  0  0
  4  3  1  0  0  0  0
  6  5  1  0  0  0  0
  6  8  1  0  0  0  0
  8  7  2  0  0  0  0
  9  8  1  0  0  0  0
 10  9  1  0  0  0  0
 11 12  1  0  0  0  0
 12 10  1  1  0  0  0
 12 13  1  0  0  0  0
 14 15  1  1  0  0  0
 14 13  1  0  0  0  0
 16 11  1  0  0  0  0
 16 14  1  0  0  0  0
 17 18  1  0  0  0  0
 19 20  1  0  0  0  0
 19 18  1  0  0  0  0
 20 21  1  0  0  0  0
 23 22  1  0  0  0  0
 24 23  1  0  0  0  0
 25 24  3  0  0  0  0
 27 26  1  0  0  0  0
 28 34  1  0  0  0  0
 28 32  1  0  0  0  0
 28 35  1  1  0  0  0
 29 33  1  0  0  0  0
 29 34  1  0  0  0  0
 31 34  1  0  0  0  0
 32 27  1  1  0  0  0
 33 32  1  0  0  0  0
 34 30  1  0  0  0  0
 35 36  2  0  0  0  0
 37 35  1  0  0  0  0
 38 37  1  0  0  0  0
 39 38  1  0  0  0  0
 40 39  1  0  0  0  0
 41 40  1  0  0  0  0
 42 43  1  1  0  0  0
 42 41  1  0  0  0  0
 42 46  1  0  0  0  0
 45 46  2  0  0  0  0
 46 44  1  0  0  0  0
M  END
>  <MODEL>
4

>  <REMARK>
 VINA RESULT:      -5.3      2.292      4.348
  Name = 
  23 active torsions:
  status: ('A' for Active; 'I' for Inactive)
    1  A    between atoms: C_2  and  C_9
    2  A    between atoms: C_2  and  C_18
    3  A    between atoms: N_3  and  C_25
    4  A    between atoms: C_4  and  C_13
    5  A    between atoms: C_4  and  C_24
    6  A    between atoms: C_6  and  C_17
    7  A    between atoms: C_6  and  C_27
    8  A    between atoms: C_7  and  C_21
    9  A    between atoms: C_7  and  C_39
   10  A    between atoms: C_8  and  C_31
   11  A    between atoms: C_14  and  N_16
   12  A    between atoms: C_14  and  C_43
   13  A    between atoms: C_15  and  C_39
   14  A    between atoms: N_16  and  O_45
   15  A    between atoms: C_17  and  C_29
   16  A    between atoms: C_18  and  C_23
   17  A    between atoms: C_21  and  C_27
   18  A    between atoms: C_24  and  C_36
   19  A    between atoms: C_25  and  C_30
   20  A    between atoms: C_26  and  C_33
   21  A    between atoms: C_26  and  O_42
   22  A    between atoms: C_31  and  O_45
   23  A    between atoms: O_42  and  C_43
                            x       y       z     vdW  Elec       q    Type
                         _______ _______ _______ _____ _____    ______ ____

>  <TORSDO>
F 23

$$$$
=
 OpenBabel11062422543D

 46 48  0  0  1  0  0  0  0  0999 V2000
  193.3820  175.7060  146.4130 C   0  0  1  0  0  3  0  0  0  0  0  0
  193.2870  175.4980  144.9070 C   0  0  1  0  0  0  0  0  0  0  0  0
  194.4350  176.5020  144.8880 C   0  0  1  0  0  3  0  0  0  0  0  0
  194.4570  176.6080  146.2900 O   0  0  0  0  0  0  0  0  0  0  0  0
  195.7760  175.9770  144.3860 C   0  0  0  0  0  2  0  0  0  0  0  0
  195.9790  176.3960  143.0080 N   0  0  0  0  0  2  0  0  0  0  0  0
  196.0120  174.2180  142.1620 O   0  0  0  0  0  0  0  0  0  0  0  0
  196.0950  175.4560  141.9410 C   0  0  0  0  0  0  0  0  0  0  0  0
  196.2940  175.9440  140.5460 C   0  0  0  0  0  2  0  0  0  0  0  0
  195.6410  175.0040  139.5420 C   0  0  0  0  0  2  0  0  0  0  0  0
  197.8350  175.3260  138.4180 C   0  0  0  0  0  2  0  0  0  0  0  0
  196.6670  174.3990  138.5930 C   0  0  2  0  0  3  0  0  0  0  0  0
  196.0960  174.2360  137.3350 O   0  0  0  0  0  0  0  0  0  0  0  0
  197.1000  174.6470  136.4460 C   0  0  1  0  0  3  0  0  0  0  0  0
  196.4920  175.2300  135.2660 N   0  0  0  0  0  1  0  0  0  0  0  0
  197.9410  175.5900  137.0540 O   0  0  0  0  0  0  0  0  0  0  0  0
  193.6430  174.0430  144.5500 C   0  0  0  0  0  2  0  0  0  0  0  0
  193.7710  173.1550  145.7800 C   0  0  0  0  0  2  0  0  0  0  0  0
  194.2860  171.7830  145.3890 C   0  0  0  0  0  2  0  0  0  0  0  0
  195.7560  171.8540  145.0220 C   0  0  0  0  0  2  0  0  0  0  0  0
  196.5100  171.2010  145.9950 O   0  0  0  0  0  1  0  0  0  0  0  0
  192.1880  176.4120  147.0600 C   0  0  0  0  0  2  0  0  0  0  0  0
  191.3080  175.4220  147.8060 C   0  0  0  0  0  2  0  0  0  0  0  0
  189.9620  175.3860  147.2240 C   0  0  0  0  0  0  0  0  0  0  0  0
  188.9000  175.3560  146.7660 N   0  0  0  0  0  0  0  0  0  0  0  0
  192.0360  176.0750  144.2090 C   0  0  0  0  0  2  0  0  0  0  0  0
  191.1450  175.0130  143.5670 C   0  0  0  0  0  2  0  0  0  0  0  0
  190.1860  174.1590  141.3820 C   0  0  1  0  0  3  0  0  0  0  0  0
  192.3830  173.6640  140.7940 C   0  0  0  0  0  2  0  0  0  0  0  0
  191.1640  171.9100  142.0380 C   0  0  0  0  0  1  0  0  0  0  0  0
  190.5620  172.3960  139.6690 C   0  0  0  0  0  1  0  0  0  0  0  0
  191.1480  175.1230  142.0470 C   0  0  2  0  0  3  0  0  0  0  0  0
  192.4450  174.8460  141.5680 O   0  0  0  0  0  0  0  0  0  0  0  0
  191.0400  172.9930  140.9760 C   0  0  0  0  0  0  0  0  0  0  0  0
  188.8620  173.9070  142.0710 C   0  0  0  0  0  0  0  0  0  0  0  0
  188.6560  172.8310  142.6920 O   0  0  0  0  0  0  0  0  0  0  0  0
  187.8710  174.8890  142.0750 O   0  0  0  0  0  0  0  0  0  0  0  0
  187.5910  175.6340  143.2030 N   0  0  0  0  0  2  0  0  0  0  0  0
  188.0620  176.9920  142.9670 C   0  0  0  0  0  2  0  0  0  0  0  0
  187.2160  177.9830  143.7470 C   0  0  0  0  0  2  0  0  0  0  0  0
  186.7270  177.3760  144.9160 O   0  0  0  0  0  0  0  0  0  0  0  0
  185.7590  178.2230  145.4970 C   0  0  2  0  0  3  0  0  0  0  0  0
  185.5660  179.7920  144.6490 Cl  0  0  0  0  0  0  0  0  0  0  0  0
  186.0730  177.2100  147.7590 O   0  0  0  0  0  1  0  0  0  0  0  0
  185.9210  179.4850  147.5340 O   0  0  0  0  0  0  0  0  0  0  0  0
  185.9030  178.3510  146.9850 C   0  0  0  0  0  0  0  0  0  0  0  0
  1 22  1  6  0  0  0
  2 26  1  6  0  0  0
  2  1  1  0  0  0  0
  3  5  1  1  0  0  0
  3  2  1  0  0  0  0
  3  4  1  0  0  0  0
  4  1  1  0  0  0  0
  6  5  1  0  0  0  0
  8  7  2  0  0  0  0
  8  6  1  0  0  0  0
  9  8  1  0  0  0  0
 10  9  1  0  0  0  0
 11 12  1  0  0  0  0
 12 10  1  1  0  0  0
 13 12  1  0  0  0  0
 14 15  1  6  0  0  0
 14 16  1  0  0  0  0
 14 13  1  0  0  0  0
 16 11  1  0  0  0  0
 17  2  1  0  0  0  0
 17 18  1  0  0  0  0
 19 18  1  0  0  0  0
 20 19  1  0  0  0  0
 20 21  1  0  0  0  0
 22 23  1  0  0  0  0
 24 23  1  0  0  0  0
 25 24  3  0  0  0  0
 27 26  1  0  0  0  0
 28 32  1  0  0  0  0
 28 35  1  1  0  0  0
 29 34  1  0  0  0  0
 29 33  1  0  0  0  0
 31 34  1  0  0  0  0
 32 27  1  1  0  0  0
 33 32  1  0  0  0  0
 34 28  1  0  0  0  0
 34 30  1  0  0  0  0
 35 37  1  0  0  0  0
 35 36  2  0  0  0  0
 37 38  1  0  0  0  0
 39 38  1  0  0  0  0
 39 40  1  0  0  0  0
 40 41  1  0  0  0  0
 41 42  1  0  0  0  0
 42 43  1  6  0  0  0
 42 46  1  0  0  0  0
 46 45  2  0  0  0  0
 46 44  1  0  0  0  0
M  END
>  <MODEL>
5

>  <REMARK>
 VINA RESULT:      -5.3      3.392      7.600
  Name = 
  23 active torsions:
  status: ('A' for Active; 'I' for Inactive)
    1  A    between atoms: C_2  and  C_9
    2  A    between atoms: C_2  and  C_18
    3  A    between atoms: N_3  and  C_25
    4  A    between atoms: C_4  and  C_13
    5  A    between atoms: C_4  and  C_24
    6  A    between atoms: C_6  and  C_17
    7  A    between atoms: C_6  and  C_27
    8  A    between atoms: C_7  and  C_21
    9  A    between atoms: C_7  and  C_39
   10  A    between atoms: C_8  and  C_31
   11  A    between atoms: C_14  and  N_16
   12  A    between atoms: C_14  and  C_43
   13  A    between atoms: C_15  and  C_39
   14  A    between atoms: N_16  and  O_45
   15  A    between atoms: C_17  and  C_29
   16  A    between atoms: C_18  and  C_23
   17  A    between atoms: C_21  and  C_27
   18  A    between atoms: C_24  and  C_36
   19  A    between atoms: C_25  and  C_30
   20  A    between atoms: C_26  and  C_33
   21  A    between atoms: C_26  and  O_42
   22  A    between atoms: C_31  and  O_45
   23  A    between atoms: O_42  and  C_43
                            x       y       z     vdW  Elec       q    Type
                         _______ _______ _______ _____ _____    ______ ____

>  <TORSDO>
F 23

$$$$
=
 OpenBabel11062422543D

 46 48  0  0  1  0  0  0  0  0999 V2000
  190.0090  174.7450  144.7240 C   0  0  1  0  0  3  0  0  0  0  0  0
  190.2620  173.8580  143.5120 C   0  0  1  0  0  0  0  0  0  0  0  0
  188.9560  174.4780  143.0240 C   0  0  1  0  0  3  0  0  0  0  0  0
  188.8250  175.2760  144.1750 O   0  0  0  0  0  0  0  0  0  0  0  0
  189.0570  175.3640  141.7860 C   0  0  0  0  0  2  0  0  0  0  0  0
  187.7860  176.0340  141.5620 N   0  0  0  0  0  2  0  0  0  0  0  0
  188.6890  178.1840  141.7100 O   0  0  0  0  0  0  0  0  0  0  0  0
  187.6730  177.4560  141.5430 C   0  0  0  0  0  0  0  0  0  0  0  0
  186.3450  178.0880  141.3000 C   0  0  0  0  0  2  0  0  0  0  0  0
  185.3180  177.6030  142.3140 C   0  0  0  0  0  2  0  0  0  0  0  0
  185.8690  179.5560  143.7510 C   0  0  0  0  0  2  0  0  0  0  0  0
  184.7560  178.7560  143.1360 C   0  0  2  0  0  3  0  0  0  0  0  0
  184.0020  178.2500  144.1890 O   0  0  0  0  0  0  0  0  0  0  0  0
  184.3560  179.0520  145.2830 C   0  0  1  0  0  3  0  0  0  0  0  0
  184.2800  178.2690  146.5020 N   0  0  0  0  0  1  0  0  0  0  0  0
  185.6580  179.5500  145.1280 O   0  0  0  0  0  0  0  0  0  0  0  0
  191.5450  174.3030  142.7860 C   0  0  0  0  0  2  0  0  0  0  0  0
  192.4620  175.1290  143.6790 C   0  0  0  0  0  2  0  0  0  0  0  0
  193.6240  175.6800  142.8740 C   0  0  0  0  0  2  0  0  0  0  0  0
  194.9210  175.0100  143.2890 C   0  0  0  0  0  2  0  0  0  0  0  0
  195.4820  175.7080  144.3570 O   0  0  0  0  0  1  0  0  0  0  0  0
  189.6890  174.0100  146.0270 C   0  0  0  0  0  2  0  0  0  0  0  0
  189.3260  174.9890  147.1310 C   0  0  0  0  0  2  0  0  0  0  0  0
  190.4870  175.8060  147.5000 C   0  0  0  0  0  0  0  0  0  0  0  0
  191.4020  176.4500  147.7940 N   0  0  0  0  0  0  0  0  0  0  0  0
  190.1050  172.3360  143.7260 C   0  0  0  0  0  2  0  0  0  0  0  0
  191.2550  171.5120  143.1520 C   0  0  0  0  0  2  0  0  0  0  0  0
  191.9640  170.1460  141.1390 C   0  0  1  0  0  3  0  0  0  0  0  0
  190.6740  171.6210  139.8820 C   0  0  0  0  0  2  0  0  0  0  0  0
  193.0200  172.2890  140.2810 C   0  0  0  0  0  1  0  0  0  0  0  0
  192.5120  170.4070  138.7270 C   0  0  0  0  0  1  0  0  0  0  0  0
  190.8060  170.6770  141.9600 C   0  0  2  0  0  3  0  0  0  0  0  0
  190.0020  171.4720  141.1180 O   0  0  0  0  0  0  0  0  0  0  0  0
  192.0940  171.1150  139.9990 C   0  0  0  0  0  0  0  0  0  0  0  0
  193.2050  169.7050  141.8850 C   0  0  0  0  0  0  0  0  0  0  0  0
  194.3410  170.1300  141.5490 O   0  0  0  0  0  0  0  0  0  0  0  0
  193.0990  168.8640  142.9930 O   0  0  0  0  0  0  0  0  0  0  0  0
  194.1970  168.5310  143.7600 N   0  0  0  0  0  2  0  0  0  0  0  0
  193.8390  168.7290  145.1590 C   0  0  0  0  0  2  0  0  0  0  0  0
  195.0040  169.3420  145.9170 C   0  0  0  0  0  2  0  0  0  0  0  0
  195.6210  170.3260  145.1260 O   0  0  0  0  0  0  0  0  0  0  0  0
  195.5040  171.5730  145.7780 C   0  0  2  0  0  3  0  0  0  0  0  0
  193.9100  172.3640  145.5460 Cl  0  0  0  0  0  0  0  0  0  0  0  0
  197.1250  173.3080  146.5530 O   0  0  0  0  0  1  0  0  0  0  0  0
  197.2810  172.4620  144.4300 O   0  0  0  0  0  0  0  0  0  0  0  0
  196.6740  172.4800  145.5330 C   0  0  0  0  0  0  0  0  0  0  0  0
  1 22  1  1  0  0  0
  2 17  1  6  0  0  0
  2 26  1  0  0  0  0
  2  1  1  0  0  0  0
  3  5  1  6  0  0  0
  3  2  1  0  0  0  0
  3  4  1  0  0  0  0
  4  1  1  0  0  0  0
  6  5  1  0  0  0  0
  8  6  1  0  0  0  0
  8  7  2  0  0  0  0
  9  8  1  0  0  0  0
  9 10  1  0  0  0  0
 11 16  1  0  0  0  0
 12 10  1  1  0  0  0
 12 11  1  0  0  0  0
 12 13  1  0  0  0  0
 13 14  1  0  0  0  0
 14 15  1  1  0  0  0
 16 14  1  0  0  0  0
 17 18  1  0  0  0  0
 19 20  1  0  0  0  0
 19 18  1  0  0  0  0
 20 21  1  0  0  0  0
 22 23  1  0  0  0  0
 23 24  1  0  0  0  0
 24 25  3  0  0  0  0
 27 26  1  0  0  0  0
 28 35  1  1  0  0  0
 28 32  1  0  0  0  0
 29 34  1  0  0  0  0
 29 33  1  0  0  0  0
 31 34  1  0  0  0  0
 32 27  1  1  0  0  0
 33 32  1  0  0  0  0
 34 30  1  0  0  0  0
 34 28  1  0  0  0  0
 35 37  1  0  0  0  0
 36 35  2  0  0  0  0
 37 38  1  0  0  0  0
 38 39  1  0  0  0  0
 39 40  1  0  0  0  0
 41 42  1  0  0  0  0
 41 40  1  0  0  0  0
 42 43  1  6  0  0  0
 45 46  2  0  0  0  0
 46 42  1  0  0  0  0
 46 44  1  0  0  0  0
M  END
>  <MODEL>
6

>  <REMARK>
 VINA RESULT:      -5.1      2.447      6.459
  Name = 
  23 active torsions:
  status: ('A' for Active; 'I' for Inactive)
    1  A    between atoms: C_2  and  C_9
    2  A    between atoms: C_2  and  C_18
    3  A    between atoms: N_3  and  C_25
    4  A    between atoms: C_4  and  C_13
    5  A    between atoms: C_4  and  C_24
    6  A    between atoms: C_6  and  C_17
    7  A    between atoms: C_6  and  C_27
    8  A    between atoms: C_7  and  C_21
    9  A    between atoms: C_7  and  C_39
   10  A    between atoms: C_8  and  C_31
   11  A    between atoms: C_14  and  N_16
   12  A    between atoms: C_14  and  C_43
   13  A    between atoms: C_15  and  C_39
   14  A    between atoms: N_16  and  O_45
   15  A    between atoms: C_17  and  C_29
   16  A    between atoms: C_18  and  C_23
   17  A    between atoms: C_21  and  C_27
   18  A    between atoms: C_24  and  C_36
   19  A    between atoms: C_25  and  C_30
   20  A    between atoms: C_26  and  C_33
   21  A    between atoms: C_26  and  O_42
   22  A    between atoms: C_31  and  O_45
   23  A    between atoms: O_42  and  C_43
                            x       y       z     vdW  Elec       q    Type
                         _______ _______ _______ _____ _____    ______ ____

>  <TORSDO>
F 23

$$$$
=
 OpenBabel11062422543D

 46 48  0  0  1  0  0  0  0  0999 V2000
  189.7070  175.0820  144.8910 C   0  0  1  0  0  3  0  0  0  0  0  0
  190.1040  174.4790  143.5500 C   0  0  1  0  0  0  0  0  0  0  0  0
  188.7220  174.9740  143.1340 C   0  0  1  0  0  3  0  0  0  0  0  0
  188.4590  175.5190  144.4030 O   0  0  0  0  0  0  0  0  0  0  0  0
  188.6950  176.0770  142.0800 C   0  0  0  0  0  2  0  0  0  0  0  0
  187.7470  177.1060  142.4760 N   0  0  0  0  0  2  0  0  0  0  0  0
  186.5870  177.0710  140.4480 O   0  0  0  0  0  0  0  0  0  0  0  0
  186.7160  177.5630  141.6020 C   0  0  0  0  0  0  0  0  0  0  0  0
  185.7670  178.6150  142.0650 C   0  0  0  0  0  2  0  0  0  0  0  0
  185.9330  178.8790  143.5550 C   0  0  0  0  0  2  0  0  0  0  0  0
  184.2420  178.9450  145.3770 C   0  0  0  0  0  2  0  0  0  0  0  0
  184.9430  178.0670  144.3810 C   0  0  2  0  0  3  0  0  0  0  0  0
  185.6300  177.1050  145.1130 O   0  0  0  0  0  0  0  0  0  0  0  0
  185.0180  177.1310  146.3750 C   0  0  1  0  0  3  0  0  0  0  0  0
  185.9950  176.7990  147.3940 N   0  0  0  0  0  1  0  0  0  0  0  0
  184.4820  178.4000  146.6360 O   0  0  0  0  0  0  0  0  0  0  0  0
  191.3080  175.2380  142.9630 C   0  0  0  0  0  2  0  0  0  0  0  0
  192.3250  175.6300  144.0280 C   0  0  0  0  0  2  0  0  0  0  0  0
  192.5710  177.1260  143.9970 C   0  0  0  0  0  2  0  0  0  0  0  0
  191.4710  177.8280  143.2250 C   0  0  0  0  0  2  0  0  0  0  0  0
  190.5840  178.4240  144.1190 O   0  0  0  0  0  1  0  0  0  0  0  0
  189.4930  174.0810  146.0290 C   0  0  0  0  0  2  0  0  0  0  0  0
  189.4620  174.7840  147.3760 C   0  0  0  0  0  2  0  0  0  0  0  0
  190.6440  175.6380  147.5410 C   0  0  0  0  0  0  0  0  0  0  0  0
  191.5760  176.3090  147.6730 N   0  0  0  0  0  0  0  0  0  0  0  0
  190.1830  172.9390  143.4820 C   0  0  0  0  0  2  0  0  0  0  0  0
  191.4270  172.4170  142.7660 C   0  0  0  0  0  2  0  0  0  0  0  0
  192.0710  171.2900  140.5890 C   0  0  1  0  0  3  0  0  0  0  0  0
  189.9780  171.9490  139.8120 C   0  0  0  0  0  2  0  0  0  0  0  0
  191.8110  173.5830  139.5320 C   0  0  0  0  0  1  0  0  0  0  0  0
  191.7610  171.5210  138.1320 C   0  0  0  0  0  1  0  0  0  0  0  0
  191.0740  171.3570  141.7290 C   0  0  2  0  0  3  0  0  0  0  0  0
  189.8070  171.6510  141.1840 O   0  0  0  0  0  0  0  0  0  0  0  0
  191.4470  172.1060  139.4930 C   0  0  0  0  0  0  0  0  0  0  0  0
  193.5320  171.4910  140.9260 C   0  0  0  0  0  0  0  0  0  0  0  0
  194.1440  172.5230  140.5430 O   0  0  0  0  0  0  0  0  0  0  0  0
  194.2080  170.5600  141.7160 O   0  0  0  0  0  0  0  0  0  0  0  0
  194.6070  170.8550  143.0050 N   0  0  0  0  0  2  0  0  0  0  0  0
  195.9570  171.3990  142.9380 C   0  0  0  0  0  2  0  0  0  0  0  0
  196.2500  172.2260  144.1780 C   0  0  0  0  0  2  0  0  0  0  0  0
  196.9480  173.3910  143.8180 O   0  0  0  0  0  0  0  0  0  0  0  0
  197.0230  174.2420  144.9420 C   0  0  2  0  0  3  0  0  0  0  0  0
  197.0860  173.3690  146.5080 Cl  0  0  0  0  0  0  0  0  0  0  0  0
  195.1620  175.5410  145.9870 O   0  0  0  0  0  1  0  0  0  0  0  0
  195.9770  176.1550  143.9350 O   0  0  0  0  0  0  0  0  0  0  0  0
  196.0170  175.3560  144.9080 C   0  0  0  0  0  0  0  0  0  0  0  0
  1 22  1  1  0  0  0
  2 17  1  6  0  0  0
  2  1  1  0  0  0  0
  3  5  1  6  0  0  0
  3  2  1  0  0  0  0
  3  4  1  0  0  0  0
  4  1  1  0  0  0  0
  5  6  1  0  0  0  0
  7  8  2  0  0  0  0
  8  9  1  0  0  0  0
  8  6  1  0  0  0  0
  9 10  1  0  0  0  0
 11 16  1  0  0  0  0
 12 10  1  1  0  0  0
 12 13  1  0  0  0  0
 12 11  1  0  0  0  0
 13 14  1  0  0  0  0
 14 16  1  0  0  0  0
 14 15  1  1  0  0  0
 17 18  1  0  0  0  0
 19 18  1  0  0  0  0
 20 19  1  0  0  0  0
 20 21  1  0  0  0  0
 22 23  1  0  0  0  0
 23 24  1  0  0  0  0
 24 25  3  0  0  0  0
 26  2  1  0  0  0  0
 27 26  1  0  0  0  0
 28 35  1  1  0  0  0
 28 32  1  0  0  0  0
 29 33  1  0  0  0  0
 31 34  1  0  0  0  0
 32 27  1  1  0  0  0
 33 32  1  0  0  0  0
 34 30  1  0  0  0  0
 34 29  1  0  0  0  0
 34 28  1  0  0  0  0
 35 37  1  0  0  0  0
 36 35  2  0  0  0  0
 37 38  1  0  0  0  0
 39 38  1  0  0  0  0
 39 40  1  0  0  0  0
 41 40  1  0  0  0  0
 41 42  1  0  0  0  0
 42 43  1  1  0  0  0
 45 46  2  0  0  0  0
 46 42  1  0  0  0  0
 46 44  1  0  0  0  0
M  END
>  <MODEL>
7

>  <REMARK>
 VINA RESULT:      -5.1      2.373      6.184
  Name = 
  23 active torsions:
  status: ('A' for Active; 'I' for Inactive)
    1  A    between atoms: C_2  and  C_9
    2  A    between atoms: C_2  and  C_18
    3  A    between atoms: N_3  and  C_25
    4  A    between atoms: C_4  and  C_13
    5  A    between atoms: C_4  and  C_24
    6  A    between atoms: C_6  and  C_17
    7  A    between atoms: C_6  and  C_27
    8  A    between atoms: C_7  and  C_21
    9  A    between atoms: C_7  and  C_39
   10  A    between atoms: C_8  and  C_31
   11  A    between atoms: C_14  and  N_16
   12  A    between atoms: C_14  and  C_43
   13  A    between atoms: C_15  and  C_39
   14  A    between atoms: N_16  and  O_45
   15  A    between atoms: C_17  and  C_29
   16  A    between atoms: C_18  and  C_23
   17  A    between atoms: C_21  and  C_27
   18  A    between atoms: C_24  and  C_36
   19  A    between atoms: C_25  and  C_30
   20  A    between atoms: C_26  and  C_33
   21  A    between atoms: C_26  and  O_42
   22  A    between atoms: C_31  and  O_45
   23  A    between atoms: O_42  and  C_43
                            x       y       z     vdW  Elec       q    Type
                         _______ _______ _______ _____ _____    ______ ____

>  <TORSDO>
F 23

$$$$
=
 OpenBabel11062422543D

 46 48  0  0  1  0  0  0  0  0999 V2000
  195.6060  175.9500  144.2100 C   0  0  1  0  0  3  0  0  0  0  0  0
  195.0510  175.2490  142.9770 C   0  0  1  0  0  0  0  0  0  0  0  0
  196.0960  176.0980  142.2590 C   0  0  1  0  0  3  0  0  0  0  0  0
  196.5530  176.6720  143.4580 O   0  0  0  0  0  0  0  0  0  0  0  0
  197.2300  175.3330  141.5830 C   0  0  0  0  0  2  0  0  0  0  0  0
  197.2920  175.6960  140.1760 N   0  0  0  0  0  2  0  0  0  0  0  0
  196.1150  173.8110  139.4550 O   0  0  0  0  0  0  0  0  0  0  0  0
  196.7140  174.8790  139.1590 C   0  0  0  0  0  0  0  0  0  0  0  0
  196.8010  175.3050  137.7330 C   0  0  0  0  0  2  0  0  0  0  0  0
  195.4350  175.2400  137.0620 C   0  0  0  0  0  2  0  0  0  0  0  0
  196.7780  176.4580  135.3600 C   0  0  0  0  0  2  0  0  0  0  0  0
  195.5010  175.7110  135.6150 C   0  0  2  0  0  3  0  0  0  0  0  0
  194.4630  176.6040  135.3700 O   0  0  0  0  0  0  0  0  0  0  0  0
  195.0550  177.6180  134.6040 C   0  0  1  0  0  3  0  0  0  0  0  0
  194.4020  178.8820  134.8860 N   0  0  0  0  0  1  0  0  0  0  0  0
  196.4220  177.7220  134.8960 O   0  0  0  0  0  0  0  0  0  0  0  0
  195.3320  173.7370  143.0540 C   0  0  0  0  0  2  0  0  0  0  0  0
  195.5500  173.2570  144.4820 C   0  0  0  0  0  2  0  0  0  0  0  0
  194.6290  172.0920  144.7940 C   0  0  0  0  0  2  0  0  0  0  0  0
  195.2470  171.1980  145.8520 C   0  0  0  0  0  2  0  0  0  0  0  0
  196.5720  171.5730  146.0610 O   0  0  0  0  0  1  0  0  0  0  0  0
  194.6500  176.9210  144.9060 C   0  0  0  0  0  2  0  0  0  0  0  0
  194.4630  176.5490  146.3680 C   0  0  0  0  0  2  0  0  0  0  0  0
  193.4430  175.5050  146.5100 C   0  0  0  0  0  0  0  0  0  0  0  0
  192.6380  174.6820  146.6200 N   0  0  0  0  0  0  0  0  0  0  0  0
  193.6230  175.6460  142.5420 C   0  0  0  0  0  2  0  0  0  0  0  0
  192.5760  174.5670  142.8090 C   0  0  0  0  0  2  0  0  0  0  0  0
  190.0550  174.3260  142.7150 C   0  0  1  0  0  3  0  0  0  0  0  0
  190.4010  173.1240  140.7520 C   0  0  0  0  0  2  0  0  0  0  0  0
  190.4670  171.8250  142.8530 C   0  0  0  0  0  1  0  0  0  0  0  0
  188.2960  172.7140  142.0110 C   0  0  0  0  0  1  0  0  0  0  0  0
  191.3040  174.8090  142.0050 C   0  0  2  0  0  3  0  0  0  0  0  0
  191.4000  174.1260  140.7760 O   0  0  0  0  0  0  0  0  0  0  0  0
  189.7840  172.9720  142.1240 C   0  0  0  0  0  0  0  0  0  0  0  0
  189.9890  174.5080  144.2160 C   0  0  0  0  0  0  0  0  0  0  0  0
  189.9040  173.5120  144.9810 O   0  0  0  0  0  0  0  0  0  0  0  0
  190.0790  175.7830  144.7760 O   0  0  0  0  0  0  0  0  0  0  0  0
  189.4140  176.1150  145.9390 N   0  0  0  0  0  2  0  0  0  0  0  0
  188.9920  177.5050  145.8280 C   0  0  0  0  0  2  0  0  0  0  0  0
  187.6730  177.5950  145.0810 C   0  0  0  0  0  2  0  0  0  0  0  0
  187.9110  177.9150  143.7330 O   0  0  0  0  0  0  0  0  0  0  0  0
  186.7420  178.4920  143.1900 C   0  0  2  0  0  3  0  0  0  0  0  0
  185.7760  179.4260  144.3780 Cl  0  0  0  0  0  0  0  0  0  0  0  0
  185.6260  177.8360  141.0540 O   0  0  0  0  0  0  0  0  0  0  0  0
  185.5740  176.4210  142.8550 O   0  0  0  0  0  1  0  0  0  0  0  0
  185.9330  177.5280  142.3730 C   0  0  0  0  0  0  0  0  0  0  0  0
  1 22  1  6  0  0  0
  2 26  1  6  0  0  0
  2 17  1  0  0  0  0
  2  1  1  0  0  0  0
  3  5  1  1  0  0  0
  3  2  1  0  0  0  0
  3  4  1  0  0  0  0
  4  1  1  0  0  0  0
  6  5  1  0  0  0  0
  8  7  2  0  0  0  0
  8  6  1  0  0  0  0
  9  8  1  0  0  0  0
 10  9  1  0  0  0  0
 11 12  1  0  0  0  0
 12 10  1  1  0  0  0
 13 12  1  0  0  0  0
 14 15  1  1  0  0  0
 14 16  1  0  0  0  0
 14 13  1  0  0  0  0
 16 11  1  0  0  0  0
 17 18  1  0  0  0  0
 18 19  1  0  0  0  0
 19 20  1  0  0  0  0
 20 21  1  0  0  0  0
 22 23  1  0  0  0  0
 23 24  1  0  0  0  0
 24 25  3  0  0  0  0
 26 27  1  0  0  0  0
 28 35  1  1  0  0  0
 29 33  1  0  0  0  0
 29 34  1  0  0  0  0
 31 34  1  0  0  0  0
 32 28  1  0  0  0  0
 32 27  1  1  0  0  0
 33 32  1  0  0  0  0
 34 28  1  0  0  0  0
 34 30  1  0  0  0  0
 35 37  1  0  0  0  0
 35 36  2  0  0  0  0
 37 38  1  0  0  0  0
 39 38  1  0  0  0  0
 40 39  1  0  0  0  0
 41 40  1  0  0  0  0
 42 41  1  0  0  0  0
 42 43  1  1  0  0  0
 44 46  2  0  0  0  0
 46 45  1  0  0  0  0
 46 42  1  0  0  0  0
M  END
>  <MODEL>
8

>  <REMARK>
 VINA RESULT:      -4.9      3.885      8.375
  Name = 
  23 active torsions:
  status: ('A' for Active; 'I' for Inactive)
    1  A    between atoms: C_2  and  C_9
    2  A    between atoms: C_2  and  C_18
    3  A    between atoms: N_3  and  C_25
    4  A    between atoms: C_4  and  C_13
    5  A    between atoms: C_4  and  C_24
    6  A    between atoms: C_6  and  C_17
    7  A    between atoms: C_6  and  C_27
    8  A    between atoms: C_7  and  C_21
    9  A    between atoms: C_7  and  C_39
   10  A    between atoms: C_8  and  C_31
   11  A    between atoms: C_14  and  N_16
   12  A    between atoms: C_14  and  C_43
   13  A    between atoms: C_15  and  C_39
   14  A    between atoms: N_16  and  O_45
   15  A    between atoms: C_17  and  C_29
   16  A    between atoms: C_18  and  C_23
   17  A    between atoms: C_21  and  C_27
   18  A    between atoms: C_24  and  C_36
   19  A    between atoms: C_25  and  C_30
   20  A    between atoms: C_26  and  C_33
   21  A    between atoms: C_26  and  O_42
   22  A    between atoms: C_31  and  O_45
   23  A    between atoms: O_42  and  C_43
                            x       y       z     vdW  Elec       q    Type
                         _______ _______ _______ _____ _____    ______ ____

>  <TORSDO>
F 23

$$$$
=
 OpenBabel11062422543D

 46 48  0  0  1  0  0  0  0  0999 V2000
  186.1890  176.5850  143.3680 C   0  0  1  0  0  3  0  0  0  0  0  0
  187.4000  177.2410  142.7170 C   0  0  1  0  0  0  0  0  0  0  0  0
  187.8300  175.7930  142.5040 C   0  0  1  0  0  3  0  0  0  0  0  0
  186.6640  175.2850  143.1030 O   0  0  0  0  0  0  0  0  0  0  0  0
  187.9140  175.3250  141.0530 C   0  0  0  0  0  2  0  0  0  0  0  0
  188.2750  173.9170  141.0150 N   0  0  0  0  0  2  0  0  0  0  0  0
  190.5530  174.3060  141.3580 O   0  0  0  0  0  0  0  0  0  0  0  0
  189.6230  173.4770  141.1700 C   0  0  0  0  0  0  0  0  0  0  0  0
  189.9330  172.0190  141.1300 C   0  0  0  0  0  2  0  0  0  0  0  0
  190.5880  171.6370  139.8100 C   0  0  0  0  0  2  0  0  0  0  0  0
  189.7170  170.2190  137.9620 C   0  0  0  0  0  2  0  0  0  0  0  0
  189.5640  171.5250  138.6890 C   0  0  2  0  0  3  0  0  0  0  0  0
  189.7890  172.5290  137.7520 O   0  0  0  0  0  0  0  0  0  0  0  0
  189.6270  171.8890  136.5160 C   0  0  1  0  0  3  0  0  0  0  0  0
  190.4950  172.5080  135.5320 N   0  0  0  0  0  1  0  0  0  0  0  0
  189.9370  170.5250  136.6220 O   0  0  0  0  0  0  0  0  0  0  0  0
  186.9700  178.0190  141.4600 C   0  0  0  0  0  2  0  0  0  0  0  0
  185.5270  178.5010  141.5370 C   0  0  0  0  0  2  0  0  0  0  0  0
  184.7140  177.9160  140.3980 C   0  0  0  0  0  2  0  0  0  0  0  0
  183.2590  178.3260  140.5210 C   0  0  0  0  0  2  0  0  0  0  0  0
  182.7710  177.9380  141.7670 O   0  0  0  0  0  1  0  0  0  0  0  0
  186.0590  176.7890  144.8780 C   0  0  0  0  0  2  0  0  0  0  0  0
  185.1400  177.9590  145.1930 C   0  0  0  0  0  2  0  0  0  0  0  0
  185.5950  178.6660  146.3950 C   0  0  0  0  0  0  0  0  0  0  0  0
  185.9520  179.2230  147.3430 N   0  0  0  0  0  0  0  0  0  0  0  0
  188.3770  177.9740  143.6610 C   0  0  0  0  0  2  0  0  0  0  0  0
  189.6490  177.1840  143.9640 C   0  0  0  0  0  2  0  0  0  0  0  0
  191.1990  176.5350  145.8620 C   0  0  1  0  0  3  0  0  0  0  0  0
  189.3400  176.7540  147.2450 C   0  0  0  0  0  2  0  0  0  0  0  0
  189.6650  174.5400  146.1950 C   0  0  0  0  0  1  0  0  0  0  0  0
  191.1970  175.2880  148.0140 C   0  0  0  0  0  1  0  0  0  0  0  0
  190.2430  177.5750  145.3120 C   0  0  2  0  0  3  0  0  0  0  0  0
  189.1980  177.7440  146.2440 O   0  0  0  0  0  0  0  0  0  0  0  0
  190.3710  175.7320  146.8240 C   0  0  0  0  0  0  0  0  0  0  0  0
  192.0950  175.8190  144.8740 C   0  0  0  0  0  0  0  0  0  0  0  0
  191.9680  174.5830  144.6700 O   0  0  0  0  0  0  0  0  0  0  0  0
  193.0380  176.5320  144.1330 O   0  0  0  0  0  0  0  0  0  0  0  0
  194.3940  176.3510  144.3170 N   0  0  0  0  0  2  0  0  0  0  0  0
  194.9850  176.0670  143.0160 C   0  0  0  0  0  2  0  0  0  0  0  0
  195.5930  174.6750  143.0080 C   0  0  0  0  0  2  0  0  0  0  0  0
  195.6030  174.1530  144.3130 O   0  0  0  0  0  0  0  0  0  0  0  0
  195.6930  172.7460  144.2390 C   0  0  2  0  0  3  0  0  0  0  0  0
  196.2240  171.9720  145.7680 Cl  0  0  0  0  0  0  0  0  0  0  0  0
  197.8210  172.3120  143.0050 O   0  0  0  0  0  1  0  0  0  0  0  0
  195.8120  171.7700  142.0480 O   0  0  0  0  0  0  0  0  0  0  0  0
  196.4340  172.2640  143.0260 C   0  0  0  0  0  0  0  0  0  0  0  0
  1 22  1  1  0  0  0
  2 17  1  6  0  0  0
  2  1  1  0  0  0  0
  2 26  1  0  0  0  0
  3  5  1  6  0  0  0
  3  2  1  0  0  0  0
  3  4  1  0  0  0  0
  4  1  1  0  0  0  0
  6  5  1  0  0  0  0
  6  8  1  0  0  0  0
  8  7  2  0  0  0  0
  9  8  1  0  0  0  0
 10  9  1  0  0  0  0
 11 12  1  0  0  0  0
 12 10  1  1  0  0  0
 13 12  1  0  0  0  0
 14 15  1  6  0  0  0
 14 16  1  0  0  0  0
 14 13  1  0  0  0  0
 16 11  1  0  0  0  0
 17 18  1  0  0  0  0
 19 20  1  0  0  0  0
 19 18  1  0  0  0  0
 20 21  1  0  0  0  0
 22 23  1  0  0  0  0
 23 24  1  0  0  0  0
 24 25  3  0  0  0  0
 26 27  1  0  0  0  0
 28 35  1  6  0  0  0
 28 34  1  0  0  0  0
 30 34  1  0  0  0  0
 32 27  1  6  0  0  0
 32 28  1  0  0  0  0
 32 33  1  0  0  0  0
 33 29  1  0  0  0  0
 34 29  1  0  0  0  0
 34 31  1  0  0  0  0
 36 35  2  0  0  0  0
 37 38  1  0  0  0  0
 37 35  1  0  0  0  0
 39 38  1  0  0  0  0
 40 39  1  0  0  0  0
 40 41  1  0  0  0  0
 42 41  1  0  0  0  0
 42 43  1  1  0  0  0
 44 46  1  0  0  0  0
 45 46  2  0  0  0  0
 46 42  1  0  0  0  0
M  END
>  <MODEL>
9

>  <REMARK>
 VINA RESULT:      -4.9      2.729      5.732
  Name = 
  23 active torsions:
  status: ('A' for Active; 'I' for Inactive)
    1  A    between atoms: C_2  and  C_9
    2  A    between atoms: C_2  and  C_18
    3  A    between atoms: N_3  and  C_25
    4  A    between atoms: C_4  and  C_13
    5  A    between atoms: C_4  and  C_24
    6  A    between atoms: C_6  and  C_17
    7  A    between atoms: C_6  and  C_27
    8  A    between atoms: C_7  and  C_21
    9  A    between atoms: C_7  and  C_39
   10  A    between atoms: C_8  and  C_31
   11  A    between atoms: C_14  and  N_16
   12  A    between atoms: C_14  and  C_43
   13  A    between atoms: C_15  and  C_39
   14  A    between atoms: N_16  and  O_45
   15  A    between atoms: C_17  and  C_29
   16  A    between atoms: C_18  and  C_23
   17  A    between atoms: C_21  and  C_27
   18  A    between atoms: C_24  and  C_36
   19  A    between atoms: C_25  and  C_30
   20  A    between atoms: C_26  and  C_33
   21  A    between atoms: C_26  and  O_42
   22  A    between atoms: C_31  and  O_45
   23  A    between atoms: O_42  and  C_43
                            x       y       z     vdW  Elec       q    Type
                         _______ _______ _______ _____ _____    ______ ____

>  <TORSDO>
F 23

$$$$
