=
 OpenBabel11062423113D

 28 33  0  0  1  0  0  0  0  0999 V2000
  190.4890  177.0060  146.8580 C   0  0  0  0  0  2  0  0  0  0  0  0
  193.3330  175.9510  145.3060 C   0  0  1  0  0  0  0  0  0  0  0  0
  190.8170  175.3990  144.9640 C   0  0  2  0  0  3  0  0  0  0  0  0
  193.7120  174.5430  145.5950 N   0  0  2  0  0  0  0  0  0  0  0  0
  189.2600  175.5560  142.9640 C   0  0  0  0  0  0  0  0  0  0  0  0
  190.6790  175.5320  146.4880 C   0  0  2  0  0  0  0  0  0  0  0  0
  193.2670  175.4440  146.6830 C   0  0  2  0  0  3  0  0  0  0  0  0
  189.4900  174.7120  146.9770 C   0  0  0  0  0  1  0  0  0  0  0  0
  195.8730  174.9650  144.6620 N   0  0  0  0  0  0  0  0  0  0  0  0
  195.1590  174.3690  145.7690 C   0  0  0  0  0  2  0  0  0  0  0  0
  194.4940  176.9060  144.9960 C   0  0  0  0  0  2  0  0  0  0  0  0
  188.1190  174.2440  139.1800 F   0  0  0  0  0  0  0  0  0  0  0  0
  188.2150  176.2060  142.2640 C   0  0  0  0  0  0  0  0  0  0  0  0
  187.9280  177.7460  144.1040 C   0  0  0  0  0  3  0  0  0  0  0  0
  191.9080  174.9510  147.1830 C   0  0  0  0  0  2  0  0  0  0  0  0
  189.5220  174.0250  141.0920 C   0  0  0  0  0  3  0  0  0  0  0  0
  187.5610  177.2950  142.8370 C   0  0  0  0  0  3  0  0  0  0  0  0
  195.5920  176.1620  144.2830 C   0  0  0  0  0  0  0  0  0  0  0  0
  192.0840  176.0760  144.4320 C   0  0  0  0  0  2  0  0  0  0  0  0
  188.4890  174.6720  140.4090 C   0  0  0  0  0  0  0  0  0  0  0  0
  187.8370  175.7610  140.9940 C   0  0  0  0  0  3  0  0  0  0  0  0
  189.2310  177.6050  146.2150 C   0  0  0  0  0  2  0  0  0  0  0  0
  189.6370  176.0160  144.2450 C   0  0  0  0  0  0  0  0  0  0  0  0
  188.9640  177.1270  144.8100 C   0  0  0  0  0  0  0  0  0  0  0  0
  189.9070  174.4640  142.3620 C   0  0  0  0  0  3  0  0  0  0  0  0
  196.3230  176.7390  143.1040 C   0  0  0  0  0  2  0  0  0  0  0  0
  194.5440  176.4880  141.5430 O   0  0  0  0  0  1  0  0  0  0  0  0
  195.8750  176.1480  141.7770 C   0  0  0  0  0  2  0  0  0  0  0  0
  2 19  1  6  0  0  0
  2  4  1  0  0  0  0
  2  7  1  0  0  0  0
  3 19  1  6  0  0  0
  3  6  1  0  0  0  0
  4 10  1  1  0  0  0
  4  7  1  0  0  0  0
  5 23  1  0  0  0  0
  6  1  1  0  0  0  0
  6  8  1  1  0  0  0
  6 15  1  0  0  0  0
  7 15  1  6  0  0  0
  9 10  1  0  0  0  0
 11  2  1  0  0  0  0
 12 20  1  0  0  0  0
 13 17  1  0  0  0  0
 13  5  2  0  0  0  0
 14 24  1  0  0  0  0
 16 25  2  0  0  0  0
 17 14  2  0  0  0  0
 18  9  2  0  0  0  0
 18 11  1  0  0  0  0
 20 21  2  0  0  0  0
 20 16  1  0  0  0  0
 21 13  1  0  0  0  0
 22  1  1  0  0  0  0
 23 24  2  0  0  0  0
 23  3  1  0  0  0  0
 24 22  1  0  0  0  0
 25  5  1  0  0  0  0
 26 18  1  0  0  0  0
 27 28  1  0  0  0  0
 28 26  1  0  0  0  0
M  END
>  <MODEL>
1

>  <REMARK>
 VINA RESULT:      -7.8      0.000      0.000
  Name = 
  2 active torsions:
  status: ('A' for Active; 'I' for Inactive)
    1  A    between atoms: C_5  and  C_16
    2  A    between atoms: C_5  and  C_21
                            x       y       z     vdW  Elec       q    Type
                         _______ _______ _______ _____ _____    ______ ____

>  <TORSDO>
F 2

$$$$
=
 OpenBabel11062423113D

 28 33  0  0  1  0  0  0  0  0999 V2000
  187.0370  178.3310  144.7390 C   0  0  0  0  0  2  0  0  0  0  0  0
  189.7300  176.5170  145.7690 C   0  0  1  0  0  0  0  0  0  0  0  0
  187.8090  176.0390  144.0860 C   0  0  2  0  0  3  0  0  0  0  0  0
  189.4010  175.3560  146.6380 N   0  0  2  0  0  0  0  0  0  0  0  0
  187.7700  175.4050  141.6280 C   0  0  0  0  0  0  0  0  0  0  0  0
  186.9050  176.8350  145.0400 C   0  0  2  0  0  0  0  0  0  0  0  0
  188.7540  176.6710  146.8550 C   0  0  2  0  0  3  0  0  0  0  0  0
  185.4550  176.3940  144.8730 C   0  0  0  0  0  1  0  0  0  0  0  0
  191.7120  175.1820  147.2280 N   0  0  0  0  0  0  0  0  0  0  0  0
  190.3590  175.1810  147.7370 C   0  0  0  0  0  2  0  0  0  0  0  0
  191.1050  177.1590  146.0030 C   0  0  0  0  0  2  0  0  0  0  0  0
  188.5540  172.6450  138.6090 F   0  0  0  0  0  0  0  0  0  0  0  0
  187.5670  175.7510  140.2690 C   0  0  0  0  0  0  0  0  0  0  0  0
  186.8350  177.9560  140.9290 C   0  0  0  0  0  3  0  0  0  0  0  0
  187.2740  176.5380  146.4910 C   0  0  0  0  0  2  0  0  0  0  0  0
  188.5030  173.1950  140.9270 C   0  0  0  0  0  3  0  0  0  0  0  0
  187.1050  177.0210  139.9320 C   0  0  0  0  0  3  0  0  0  0  0  0
  192.0970  176.1070  146.4220 C   0  0  0  0  0  0  0  0  0  0  0  0
  189.2960  176.3280  144.3150 C   0  0  0  0  0  2  0  0  0  0  0  0
  188.2990  173.5440  139.5890 C   0  0  0  0  0  0  0  0  0  0  0  0
  187.8320  174.8190  139.2610 C   0  0  0  0  0  3  0  0  0  0  0  0
  186.6230  178.6700  143.3000 C   0  0  0  0  0  2  0  0  0  0  0  0
  187.5020  176.3540  142.6390 C   0  0  0  0  0  0  0  0  0  0  0  0
  187.0370  177.6430  142.2760 C   0  0  0  0  0  0  0  0  0  0  0  0
  188.2410  174.1200  141.9400 C   0  0  0  0  0  3  0  0  0  0  0  0
  193.4970  176.0580  145.8790 C   0  0  0  0  0  2  0  0  0  0  0  0
  194.8550  178.0010  145.6680 O   0  0  0  0  0  1  0  0  0  0  0  0
  194.4400  177.0270  146.5740 C   0  0  0  0  0  2  0  0  0  0  0  0
  1  6  1  0  0  0  0
  2 19  1  6  0  0  0
  2 11  1  0  0  0  0
  2  4  1  0  0  0  0
  2  7  1  0  0  0  0
  3 19  1  1  0  0  0
  3  6  1  0  0  0  0
  4  7  1  0  0  0  0
  4 10  1  1  0  0  0
  5 25  1  0  0  0  0
  5 23  1  0  0  0  0
  6  8  1  6  0  0  0
  6 15  1  0  0  0  0
  7 15  1  6  0  0  0
  9 10  1  0  0  0  0
 11 18  1  0  0  0  0
 12 20  1  0  0  0  0
 13  5  2  0  0  0  0
 14 24  1  0  0  0  0
 16 25  2  0  0  0  0
 17 13  1  0  0  0  0
 17 14  2  0  0  0  0
 18  9  2  0  0  0  0
 20 16  1  0  0  0  0
 21 20  2  0  0  0  0
 21 13  1  0  0  0  0
 22  1  1  0  0  0  0
 23  3  1  0  0  0  0
 24 23  2  0  0  0  0
 24 22  1  0  0  0  0
 26 18  1  0  0  0  0
 26 28  1  0  0  0  0
 27 28  1  0  0  0  0
M  END
>  <MODEL>
2

>  <REMARK>
 VINA RESULT:      -7.1      2.211      3.669
  Name = 
  2 active torsions:
  status: ('A' for Active; 'I' for Inactive)
    1  A    between atoms: C_5  and  C_16
    2  A    between atoms: C_5  and  C_21
                            x       y       z     vdW  Elec       q    Type
                         _______ _______ _______ _____ _____    ______ ____

>  <TORSDO>
F 2

$$$$
=
 OpenBabel11062423113D

 28 33  0  0  1  0  0  0  0  0999 V2000
  194.4910  175.9340  143.9830 C   0  0  0  0  0  2  0  0  0  0  0  0
  193.6280  172.6680  144.4290 C   0  0  1  0  0  0  0  0  0  0  0  0
  192.8160  174.8820  145.5220 C   0  0  2  0  0  3  0  0  0  0  0  0
  194.0820  172.0750  145.7150 N   0  0  2  0  0  0  0  0  0  0  0  0
  190.5350  175.9710  145.7510 C   0  0  0  0  0  0  0  0  0  0  0  0
  194.2680  175.3670  145.3890 C   0  0  2  0  0  0  0  0  0  0  0  0
  194.9930  172.9200  144.9070 C   0  0  2  0  0  3  0  0  0  0  0  0
  194.5570  176.4360  146.4360 C   0  0  0  0  0  1  0  0  0  0  0  0
  193.5850  169.9010  144.8540 N   0  0  0  0  0  0  0  0  0  0  0  0
  194.5600  170.6960  145.5660 C   0  0  0  0  0  2  0  0  0  0  0  0
  193.4970  171.6910  143.2520 C   0  0  0  0  0  2  0  0  0  0  0  0
  186.6940  175.9780  147.3620 F   0  0  0  0  0  0  0  0  0  0  0  0
  189.5940  176.9540  145.3580 C   0  0  0  0  0  0  0  0  0  0  0  0
  191.2270  177.9420  143.8780 C   0  0  0  0  0  3  0  0  0  0  0  0
  195.2370  174.2230  145.6730 C   0  0  0  0  0  2  0  0  0  0  0  0
  188.8640  175.0030  147.2290 C   0  0  0  0  0  3  0  0  0  0  0  0
  189.9460  177.9280  144.4250 C   0  0  0  0  0  3  0  0  0  0  0  0
  193.0760  170.3360  143.7550 C   0  0  0  0  0  0  0  0  0  0  0  0
  192.5100  173.6980  144.5980 C   0  0  0  0  0  2  0  0  0  0  0  0
  187.9420  175.9770  146.8370 C   0  0  0  0  0  0  0  0  0  0  0  0
  188.3060  176.9510  145.9030 C   0  0  0  0  0  3  0  0  0  0  0  0
  193.5650  177.1210  143.6860 C   0  0  0  0  0  2  0  0  0  0  0  0
  191.8320  175.9820  145.1920 C   0  0  0  0  0  0  0  0  0  0  0  0
  192.1710  176.9760  144.2410 C   0  0  0  0  0  0  0  0  0  0  0  0
  190.1520  174.9990  146.6890 C   0  0  0  0  0  3  0  0  0  0  0  0
  192.0360  169.5060  143.0590 C   0  0  0  0  0  2  0  0  0  0  0  0
  190.1770  170.7960  142.3210 O   0  0  0  0  0  1  0  0  0  0  0  0
  191.3770  170.2290  141.8950 C   0  0  0  0  0  2  0  0  0  0  0  0
  1  6  1  0  0  0  0
  2 11  1  6  0  0  0
  2 19  1  0  0  0  0
  2  7  1  0  0  0  0
  2  4  1  0  0  0  0
  3 19  1  6  0  0  0
  4 10  1  6  0  0  0
  5 25  1  0  0  0  0
  6  3  1  0  0  0  0
  6 15  1  0  0  0  0
  6  8  1  1  0  0  0
  7 15  1  1  0  0  0
  7  4  1  0  0  0  0
  9 10  1  0  0  0  0
 11 18  1  0  0  0  0
 13  5  1  0  0  0  0
 13 21  1  0  0  0  0
 14 24  2  0  0  0  0
 14 17  1  0  0  0  0
 17 13  2  0  0  0  0
 18  9  2  0  0  0  0
 20 16  1  0  0  0  0
 20 12  1  0  0  0  0
 21 20  2  0  0  0  0
 22  1  1  0  0  0  0
 22 24  1  0  0  0  0
 23  3  1  0  0  0  0
 23  5  2  0  0  0  0
 24 23  1  0  0  0  0
 25 16  2  0  0  0  0
 26 18  1  0  0  0  0
 28 27  1  0  0  0  0
 28 26  1  0  0  0  0
M  END
>  <MODEL>
3

>  <REMARK>
 VINA RESULT:      -6.9      3.251      5.000
  Name = 
  2 active torsions:
  status: ('A' for Active; 'I' for Inactive)
    1  A    between atoms: C_5  and  C_16
    2  A    between atoms: C_5  and  C_21
                            x       y       z     vdW  Elec       q    Type
                         _______ _______ _______ _____ _____    ______ ____

>  <TORSDO>
F 2

$$$$
=
 OpenBabel11062423113D

 28 33  0  0  1  0  0  0  0  0999 V2000
  187.5120  175.8140  145.5730 C   0  0  0  0  0  2  0  0  0  0  0  0
  188.3120  174.8630  142.4010 C   0  0  1  0  0  0  0  0  0  0  0  0
  189.5570  176.2670  144.1980 C   0  0  2  0  0  3  0  0  0  0  0  0
  188.2950  175.9630  141.4000 N   0  0  2  0  0  0  0  0  0  0  0  0
  191.8310  176.0470  145.3060 C   0  0  0  0  0  0  0  0  0  0  0  0
  188.1730  176.7980  144.6030 C   0  0  2  0  0  0  0  0  0  0  0  0
  187.2070  175.8300  142.3960 C   0  0  2  0  0  3  0  0  0  0  0  0
  188.3130  178.1660  145.2610 C   0  0  0  0  0  1  0  0  0  0  0  0
  188.3600  174.3330  139.6520 N   0  0  0  0  0  0  0  0  0  0  0  0
  187.7280  175.5480  140.1110 C   0  0  0  0  0  2  0  0  0  0  0  0
  187.9840  173.4640  141.8610 C   0  0  0  0  0  2  0  0  0  0  0  0
  195.9860  176.1720  145.0520 F   0  0  0  0  0  0  0  0  0  0  0  0
  192.6290  175.6980  146.4230 C   0  0  0  0  0  0  0  0  0  0  0  0
  190.6380  175.2620  147.7210 C   0  0  0  0  0  3  0  0  0  0  0  0
  187.3040  177.0090  143.3670 C   0  0  0  0  0  2  0  0  0  0  0  0
  193.8560  176.4760  144.0300 C   0  0  0  0  0  3  0  0  0  0  0  0
  192.0270  175.3070  147.6180 C   0  0  0  0  0  3  0  0  0  0  0  0
  188.4830  173.3290  140.4470 C   0  0  0  0  0  0  0  0  0  0  0  0
  189.4700  174.9650  143.3950 C   0  0  0  0  0  2  0  0  0  0  0  0
  194.6350  176.1310  145.1360 C   0  0  0  0  0  0  0  0  0  0  0  0
  194.0230  175.7420  146.3310 C   0  0  0  0  0  3  0  0  0  0  0  0
  188.3380  175.6200  146.8520 C   0  0  0  0  0  2  0  0  0  0  0  0
  190.4230  175.9970  145.4080 C   0  0  0  0  0  0  0  0  0  0  0  0
  189.8290  175.5910  146.6300 C   0  0  0  0  0  0  0  0  0  0  0  0
  192.4620  176.4340  144.1130 C   0  0  0  0  0  3  0  0  0  0  0  0
  189.1810  172.0940  139.9540 C   0  0  0  0  0  2  0  0  0  0  0  0
  191.2420  172.9760  140.7530 O   0  0  0  0  0  1  0  0  0  0  0  0
  190.4810  171.8100  140.6890 C   0  0  0  0  0  2  0  0  0  0  0  0
  1 22  1  0  0  0  0
  2 11  1  6  0  0  0
  2 19  1  0  0  0  0
  3 19  1  1  0  0  0
  3  6  1  0  0  0  0
  3 23  1  0  0  0  0
  4 10  1  6  0  0  0
  4  7  1  0  0  0  0
  4  2  1  0  0  0  0
  5 23  2  0  0  0  0
  5 13  1  0  0  0  0
  6  8  1  1  0  0  0
  6  1  1  0  0  0  0
  7  2  1  0  0  0  0
  7 15  1  1  0  0  0
  9 10  1  0  0  0  0
  9 18  2  0  0  0  0
 12 20  1  0  0  0  0
 13 17  2  0  0  0  0
 15  6  1  0  0  0  0
 16 25  2  0  0  0  0
 16 20  1  0  0  0  0
 17 14  1  0  0  0  0
 18 11  1  0  0  0  0
 20 21  2  0  0  0  0
 21 13  1  0  0  0  0
 23 24  1  0  0  0  0
 24 22  1  0  0  0  0
 24 14  2  0  0  0  0
 25  5  1  0  0  0  0
 26 18  1  0  0  0  0
 26 28  1  0  0  0  0
 28 27  1  0  0  0  0
M  END
>  <MODEL>
4

>  <REMARK>
 VINA RESULT:      -6.9      3.184      6.286
  Name = 
  2 active torsions:
  status: ('A' for Active; 'I' for Inactive)
    1  A    between atoms: C_5  and  C_16
    2  A    between atoms: C_5  and  C_21
                            x       y       z     vdW  Elec       q    Type
                         _______ _______ _______ _____ _____    ______ ____

>  <TORSDO>
F 2

$$$$
=
 OpenBabel11062423113D

 28 33  0  0  1  0  0  0  0  0999 V2000
  189.2570  175.6730  145.3340 C   0  0  0  0  0  2  0  0  0  0  0  0
  189.8090  173.5370  142.7380 C   0  0  1  0  0  0  0  0  0  0  0  0
  191.0140  175.6920  143.5480 C   0  0  2  0  0  3  0  0  0  0  0  0
  189.4880  174.0930  141.3970 N   0  0  2  0  0  0  0  0  0  0  0  0
  193.4110  176.1950  144.2170 C   0  0  0  0  0  0  0  0  0  0  0  0
  189.6220  176.2060  143.9450 C   0  0  2  0  0  0  0  0  0  0  0  0
  188.5670  174.2940  142.5390 C   0  0  2  0  0  3  0  0  0  0  0  0
  189.6120  177.7300  143.9500 C   0  0  0  0  0  1  0  0  0  0  0  0
  189.6080  171.8850  140.4860 N   0  0  0  0  0  0  0  0  0  0  0  0
  188.8440  173.1110  140.5160 C   0  0  0  0  0  2  0  0  0  0  0  0
  189.6550  172.0170  142.8860 C   0  0  0  0  0  2  0  0  0  0  0  0
  197.4250  176.6080  143.1860 F   0  0  0  0  0  0  0  0  0  0  0  0
  194.3870  176.4390  145.2140 C   0  0  0  0  0  0  0  0  0  0  0  0
  192.6710  176.4090  146.9150 C   0  0  0  0  0  3  0  0  0  0  0  0
  188.5850  175.7790  142.9100 C   0  0  0  0  0  2  0  0  0  0  0  0
  195.1650  176.2310  142.5330 C   0  0  0  0  0  3  0  0  0  0  0  0
  194.0100  176.5410  146.5520 C   0  0  0  0  0  3  0  0  0  0  0  0
  189.9930  171.3380  141.5850 C   0  0  0  0  0  0  0  0  0  0  0  0
  191.0470  174.1700  143.3760 C   0  0  0  0  0  2  0  0  0  0  0  0
  196.1210  176.4730  143.5230 C   0  0  0  0  0  0  0  0  0  0  0  0
  195.7320  176.5770  144.8620 C   0  0  0  0  0  3  0  0  0  0  0  0
  190.2540  176.1290  146.4080 C   0  0  0  0  0  2  0  0  0  0  0  0
  192.0550  176.0540  144.5850 C   0  0  0  0  0  0  0  0  0  0  0  0
  191.6910  176.1560  145.9500 C   0  0  0  0  0  0  0  0  0  0  0  0
  193.8190  176.0920  142.8770 C   0  0  0  0  0  3  0  0  0  0  0  0
  190.8200  170.0860  141.5210 C   0  0  0  0  0  2  0  0  0  0  0  0
  192.9130  171.1680  141.8580 O   0  0  0  0  0  1  0  0  0  0  0  0
  192.0860  170.1640  142.3600 C   0  0  0  0  0  2  0  0  0  0  0  0
  1 22  1  0  0  0  0
  2 11  1  1  0  0  0
  2 19  1  0  0  0  0
  3 19  1  1  0  0  0
  3  6  1  0  0  0  0
  3 23  1  0  0  0  0
  4 10  1  6  0  0  0
  4  7  1  0  0  0  0
  4  2  1  0  0  0  0
  5 23  2  0  0  0  0
  5 13  1  0  0  0  0
  6  8  1  1  0  0  0
  6  1  1  0  0  0  0
  7  2  1  0  0  0  0
  7 15  1  1  0  0  0
  9 10  1  0  0  0  0
  9 18  2  0  0  0  0
 12 20  1  0  0  0  0
 13 17  2  0  0  0  0
 15  6  1  0  0  0  0
 16 25  2  0  0  0  0
 16 20  1  0  0  0  0
 17 14  1  0  0  0  0
 18 11  1  0  0  0  0
 20 21  2  0  0  0  0
 21 13  1  0  0  0  0
 23 24  1  0  0  0  0
 24 22  1  0  0  0  0
 24 14  2  0  0  0  0
 25  5  1  0  0  0  0
 26 18  1  0  0  0  0
 26 28  1  0  0  0  0
 27 28  1  0  0  0  0
M  END
>  <MODEL>
5

>  <REMARK>
 VINA RESULT:      -6.8      3.306      6.170
  Name = 
  2 active torsions:
  status: ('A' for Active; 'I' for Inactive)
    1  A    between atoms: C_5  and  C_16
    2  A    between atoms: C_5  and  C_21
                            x       y       z     vdW  Elec       q    Type
                         _______ _______ _______ _____ _____    ______ ____

>  <TORSDO>
F 2

$$$$
=
 OpenBabel11062423113D

 28 33  0  0  1  0  0  0  0  0999 V2000
  191.7640  173.2680  143.8510 C   0  0  0  0  0  2  0  0  0  0  0  0
  190.6060  173.0040  140.6580 C   0  0  1  0  0  0  0  0  0  0  0  0
  189.5200  173.8080  142.8770 C   0  0  2  0  0  3  0  0  0  0  0  0
  189.6170  171.9150  140.4440 N   0  0  2  0  0  0  0  0  0  0  0  0
  188.3900  175.9730  143.5730 C   0  0  0  0  0  0  0  0  0  0  0  0
  190.3600  172.7240  143.5690 C   0  0  2  0  0  0  0  0  0  0  0  0
  190.8420  171.6770  141.2420 C   0  0  2  0  0  3  0  0  0  0  0  0
  189.6910  172.3010  144.8720 C   0  0  0  0  0  1  0  0  0  0  0  0
  189.9010  172.1610  138.0830 N   0  0  0  0  0  0  0  0  0  0  0  0
  189.8120  171.2130  139.1700 C   0  0  0  0  0  2  0  0  0  0  0  0
  191.4730  173.3670  139.4440 C   0  0  0  0  0  2  0  0  0  0  0  0
  185.2040  178.6350  143.2510 F   0  0  0  0  0  0  0  0  0  0  0  0
  188.4130  177.2070  144.2680 C   0  0  0  0  0  0  0  0  0  0  0  0
  190.5800  176.6610  145.1860 C   0  0  0  0  0  3  0  0  0  0  0  0
  190.4270  171.4710  142.7000 C   0  0  0  0  0  2  0  0  0  0  0  0
  186.2100  176.5570  142.6670 C   0  0  0  0  0  3  0  0  0  0  0  0
  189.5060  177.5410  145.0650 C   0  0  0  0  0  3  0  0  0  0  0  0
  190.6830  173.1780  138.1750 C   0  0  0  0  0  0  0  0  0  0  0  0
  190.0590  174.1660  141.4880 C   0  0  0  0  0  2  0  0  0  0  0  0
  186.2400  177.7710  143.3570 C   0  0  0  0  0  0  0  0  0  0  0  0
  187.3400  178.0960  144.1560 C   0  0  0  0  0  3  0  0  0  0  0  0
  191.7330  174.5000  144.7660 C   0  0  0  0  0  2  0  0  0  0  0  0
  189.4810  175.0830  143.6900 C   0  0  0  0  0  0  0  0  0  0  0  0
  190.5860  175.4420  144.5010 C   0  0  0  0  0  0  0  0  0  0  0  0
  187.2780  175.6630  142.7730 C   0  0  0  0  0  3  0  0  0  0  0  0
  190.7230  174.1680  137.0460 C   0  0  0  0  0  2  0  0  0  0  0  0
  188.5730  174.9180  136.3560 O   0  0  0  0  0  1  0  0  0  0  0  0
  189.5770  173.9970  136.0620 C   0  0  0  0  0  2  0  0  0  0  0  0
  1 22  1  0  0  0  0
  2 11  1  6  0  0  0
  2  7  1  0  0  0  0
  2 19  1  0  0  0  0
  3 19  1  6  0  0  0
  3  6  1  0  0  0  0
  3 23  1  0  0  0  0
  4 10  1  6  0  0  0
  4  2  1  0  0  0  0
  4  7  1  0  0  0  0
  5 23  2  0  0  0  0
  5 13  1  0  0  0  0
  6  1  1  0  0  0  0
  6  8  1  1  0  0  0
  7 15  1  1  0  0  0
  9 18  2  0  0  0  0
  9 10  1  0  0  0  0
 12 20  1  0  0  0  0
 13 17  2  0  0  0  0
 15  6  1  0  0  0  0
 16 25  2  0  0  0  0
 16 20  1  0  0  0  0
 17 14  1  0  0  0  0
 18 11  1  0  0  0  0
 20 21  2  0  0  0  0
 21 13  1  0  0  0  0
 23 24  1  0  0  0  0
 24 22  1  0  0  0  0
 24 14  2  0  0  0  0
 25  5  1  0  0  0  0
 26 18  1  0  0  0  0
 28 27  1  0  0  0  0
 28 26  1  0  0  0  0
M  END
>  <MODEL>
6

>  <REMARK>
 VINA RESULT:      -6.8      3.679      5.725
  Name = 
  2 active torsions:
  status: ('A' for Active; 'I' for Inactive)
    1  A    between atoms: C_5  and  C_16
    2  A    between atoms: C_5  and  C_21
                            x       y       z     vdW  Elec       q    Type
                         _______ _______ _______ _____ _____    ______ ____

>  <TORSDO>
F 2

$$$$
=
 OpenBabel11062423113D

 28 33  0  0  1  0  0  0  0  0999 V2000
  187.0350  176.0080  143.2110 C   0  0  0  0  0  2  0  0  0  0  0  0
  189.1190  173.7160  141.7930 C   0  0  1  0  0  0  0  0  0  0  0  0
  189.5360  175.9230  143.0980 C   0  0  2  0  0  3  0  0  0  0  0  0
  189.8150  174.1850  140.5650 N   0  0  2  0  0  0  0  0  0  0  0  0
  190.8590  176.4790  145.1930 C   0  0  0  0  0  0  0  0  0  0  0  0
  188.2650  176.4540  142.4160 C   0  0  2  0  0  0  0  0  0  0  0  0
  188.3710  174.4520  140.7650 C   0  0  2  0  0  3  0  0  0  0  0  0
  188.3140  177.9750  142.3380 C   0  0  0  0  0  1  0  0  0  0  0  0
  190.4350  171.9250  140.0900 N   0  0  0  0  0  0  0  0  0  0  0  0
  189.9020  173.1470  139.5310 C   0  0  0  0  0  2  0  0  0  0  0  0
  188.8460  172.2070  141.8710 C   0  0  0  0  0  2  0  0  0  0  0  0
  194.5190  176.8470  147.1470 F   0  0  0  0  0  0  0  0  0  0  0  0
  190.9070  176.7910  146.5730 C   0  0  0  0  0  0  0  0  0  0  0  0
  188.4940  176.8580  146.6520 C   0  0  0  0  0  3  0  0  0  0  0  0
  188.1910  175.9580  140.9750 C   0  0  0  0  0  2  0  0  0  0  0  0
  193.2900  176.4190  145.1510 C   0  0  0  0  0  3  0  0  0  0  0  0
  189.7270  176.9740  147.2910 C   0  0  0  0  0  3  0  0  0  0  0  0
  189.9500  171.4500  141.1820 C   0  0  0  0  0  0  0  0  0  0  0  0
  189.6170  174.3930  143.0700 C   0  0  0  0  0  2  0  0  0  0  0  0
  193.3280  176.7270  146.5130 C   0  0  0  0  0  0  0  0  0  0  0  0
  192.1390  176.9130  147.2230 C   0  0  0  0  0  3  0  0  0  0  0  0
  187.0550  176.5350  144.6520 C   0  0  0  0  0  2  0  0  0  0  0  0
  189.6100  176.3550  144.5460 C   0  0  0  0  0  0  0  0  0  0  0  0
  188.4200  176.5400  145.2930 C   0  0  0  0  0  0  0  0  0  0  0  0
  192.0640  176.2940  144.4940 C   0  0  0  0  0  3  0  0  0  0  0  0
  190.5520  170.2010  141.7600 C   0  0  0  0  0  2  0  0  0  0  0  0
  191.6420  171.1650  143.6430 O   0  0  0  0  0  1  0  0  0  0  0  0
  191.8730  170.4480  142.4700 C   0  0  0  0  0  2  0  0  0  0  0  0
  1 22  1  0  0  0  0
  2 11  1  1  0  0  0
  2 19  1  0  0  0  0
  3 19  1  1  0  0  0
  3 23  1  0  0  0  0
  4 10  1  6  0  0  0
  4  7  1  0  0  0  0
  4  2  1  0  0  0  0
  5 13  1  0  0  0  0
  6  8  1  6  0  0  0
  6  3  1  0  0  0  0
  6  1  1  0  0  0  0
  7 15  1  1  0  0  0
  7  2  1  0  0  0  0
  9 18  2  0  0  0  0
 10  9  1  0  0  0  0
 13 21  1  0  0  0  0
 13 17  2  0  0  0  0
 14 17  1  0  0  0  0
 15  6  1  0  0  0  0
 16 20  1  0  0  0  0
 18 26  1  0  0  0  0
 18 11  1  0  0  0  0
 20 12  1  0  0  0  0
 20 21  2  0  0  0  0
 22 24  1  0  0  0  0
 23  5  2  0  0  0  0
 23 24  1  0  0  0  0
 24 14  2  0  0  0  0
 25 16  2  0  0  0  0
 25  5  1  0  0  0  0
 26 28  1  0  0  0  0
 28 27  1  0  0  0  0
M  END
>  <MODEL>
7

>  <REMARK>
 VINA RESULT:      -6.7      3.365      6.185
  Name = 
  2 active torsions:
  status: ('A' for Active; 'I' for Inactive)
    1  A    between atoms: C_5  and  C_16
    2  A    between atoms: C_5  and  C_21
                            x       y       z     vdW  Elec       q    Type
                         _______ _______ _______ _____ _____    ______ ____

>  <TORSDO>
F 2

$$$$
=
 OpenBabel11062423113D

 28 33  0  0  1  0  0  0  0  0999 V2000
  187.4030  177.9370  147.5630 C   0  0  0  0  0  2  0  0  0  0  0  0
  190.1000  176.4580  146.0980 C   0  0  1  0  0  0  0  0  0  0  0  0
  187.6110  176.7000  145.3940 C   0  0  2  0  0  3  0  0  0  0  0  0
  190.0670  174.9710  146.0930 N   0  0  2  0  0  0  0  0  0  0  0  0
  186.4720  177.6660  143.3400 C   0  0  0  0  0  0  0  0  0  0  0  0
  187.2760  176.5680  146.8880 C   0  0  2  0  0  0  0  0  0  0  0  0
  189.6980  175.7330  147.3090 C   0  0  2  0  0  3  0  0  0  0  0  0
  185.8590  176.0320  147.0580 C   0  0  0  0  0  1  0  0  0  0  0  0
  192.3820  174.9520  145.4970 N   0  0  0  0  0  0  0  0  0  0  0  0
  191.3800  174.3740  146.3640 C   0  0  0  0  0  2  0  0  0  0  0  0
  191.4970  177.0950  146.1280 C   0  0  0  0  0  2  0  0  0  0  0  0
  185.6410  177.4790  139.2640 F   0  0  0  0  0  0  0  0  0  0  0  0
  185.7430  178.7020  142.7080 C   0  0  0  0  0  0  0  0  0  0  0  0
  185.5670  179.8750  144.8130 C   0  0  0  0  0  3  0  0  0  0  0  0
  188.1980  175.5480  147.5490 C   0  0  0  0  0  2  0  0  0  0  0  0
  186.6310  176.5140  141.2040 C   0  0  0  0  0  3  0  0  0  0  0  0
  185.3000  179.7980  143.4480 C   0  0  0  0  0  3  0  0  0  0  0  0
  192.4720  176.2290  145.3750 C   0  0  0  0  0  0  0  0  0  0  0  0
  189.0730  177.0900  145.1570 C   0  0  0  0  0  2  0  0  0  0  0  0
  185.9100  177.5410  140.5890 C   0  0  0  0  0  0  0  0  0  0  0  0
  185.4670  178.6330  141.3400 C   0  0  0  0  0  3  0  0  0  0  0  0
  186.4500  178.9740  146.9530 C   0  0  0  0  0  2  0  0  0  0  0  0
  186.7480  177.7460  144.7230 C   0  0  0  0  0  0  0  0  0  0  0  0
  186.2930  178.8700  145.4580 C   0  0  0  0  0  0  0  0  0  0  0  0
  186.9110  176.5750  142.5710 C   0  0  0  0  0  3  0  0  0  0  0  0
  193.4960  176.7980  144.4360 C   0  0  0  0  0  2  0  0  0  0  0  0
  194.9410  177.5940  146.1510 O   0  0  0  0  0  1  0  0  0  0  0  0
  194.9030  176.7910  145.0130 C   0  0  0  0  0  2  0  0  0  0  0  0
  2 19  1  6  0  0  0
  2 11  1  0  0  0  0
  2  7  1  0  0  0  0
  3 19  1  1  0  0  0
  3  6  1  0  0  0  0
  4  2  1  0  0  0  0
  4 10  1  1  0  0  0
  4  7  1  0  0  0  0
  5 23  1  0  0  0  0
  6  8  1  1  0  0  0
  6 15  1  0  0  0  0
  6  1  1  0  0  0  0
  7 15  1  6  0  0  0
  9 10  1  0  0  0  0
 12 20  1  0  0  0  0
 13  5  1  0  0  0  0
 13 17  1  0  0  0  0
 14 24  1  0  0  0  0
 16 25  1  0  0  0  0
 17 14  2  0  0  0  0
 18  9  2  0  0  0  0
 18 11  1  0  0  0  0
 20 16  2  0  0  0  0
 20 21  1  0  0  0  0
 21 13  2  0  0  0  0
 22  1  1  0  0  0  0
 23  3  1  0  0  0  0
 23 24  2  0  0  0  0
 24 22  1  0  0  0  0
 25  5  2  0  0  0  0
 26 28  1  0  0  0  0
 26 18  1  0  0  0  0
 28 27  1  0  0  0  0
M  END
>  <MODEL>
8

>  <REMARK>
 VINA RESULT:      -6.6      2.375      3.586
  Name = 
  2 active torsions:
  status: ('A' for Active; 'I' for Inactive)
    1  A    between atoms: C_5  and  C_16
    2  A    between atoms: C_5  and  C_21
                            x       y       z     vdW  Elec       q    Type
                         _______ _______ _______ _____ _____    ______ ____

>  <TORSDO>
F 2

$$$$
=
 OpenBabel11062423113D

 28 33  0  0  1  0  0  0  0  0999 V2000
  189.0660  175.4820  145.6540 C   0  0  0  0  0  2  0  0  0  0  0  0
  188.9040  174.7810  142.3230 C   0  0  1  0  0  0  0  0  0  0  0  0
  190.6330  176.0550  143.7850 C   0  0  2  0  0  3  0  0  0  0  0  0
  188.6150  175.9530  141.4550 N   0  0  2  0  0  0  0  0  0  0  0  0
  193.1270  175.7710  144.1700 C   0  0  0  0  0  0  0  0  0  0  0  0
  189.4330  176.5420  144.6110 C   0  0  2  0  0  0  0  0  0  0  0  0
  187.8580  175.7360  142.7100 C   0  0  2  0  0  3  0  0  0  0  0  0
  189.7750  177.8580  145.3010 C   0  0  0  0  0  1  0  0  0  0  0  0
  188.1500  174.4610  139.6460 N   0  0  0  0  0  0  0  0  0  0  0  0
  187.6940  175.6330  140.3580 C   0  0  0  0  0  2  0  0  0  0  0  0
  188.4150  173.4240  141.7980 C   0  0  0  0  0  2  0  0  0  0  0  0
  197.0340  175.9500  142.7390 F   0  0  0  0  0  0  0  0  0  0  0  0
  194.2080  175.3450  144.9800 C   0  0  0  0  0  0  0  0  0  0  0  0
  192.6710  174.7950  146.7600 C   0  0  0  0  0  3  0  0  0  0  0  0
  188.2470  176.8390  143.6970 C   0  0  0  0  0  2  0  0  0  0  0  0
  194.7030  176.3120  142.4000 C   0  0  0  0  0  3  0  0  0  0  0  0
  193.9710  174.8590  146.2650 C   0  0  0  0  0  3  0  0  0  0  0  0
  188.4840  173.4010  140.2940 C   0  0  0  0  0  0  0  0  0  0  0  0
  190.3000  174.8170  142.9460 C   0  0  0  0  0  2  0  0  0  0  0  0
  195.7640  175.8910  143.2050 C   0  0  0  0  0  0  0  0  0  0  0  0
  195.5170  175.4080  144.4930 C   0  0  0  0  0  3  0  0  0  0  0  0
  190.2230  175.1980  146.6210 C   0  0  0  0  0  2  0  0  0  0  0  0
  191.8080  175.7010  144.6700 C   0  0  0  0  0  0  0  0  0  0  0  0
  191.5860  175.1990  145.9770 C   0  0  0  0  0  0  0  0  0  0  0  0
  193.3920  176.2530  142.8780 C   0  0  0  0  0  3  0  0  0  0  0  0
  188.9920  172.2120  139.5300 C   0  0  0  0  0  2  0  0  0  0  0  0
  191.2430  172.9410  139.7920 O   0  0  0  0  0  1  0  0  0  0  0  0
  190.3290  172.4670  138.8520 C   0  0  0  0  0  2  0  0  0  0  0  0
  1 22  1  0  0  0  0
  2 11  1  6  0  0  0
  2  7  1  0  0  0  0
  2 19  1  0  0  0  0
  3 19  1  1  0  0  0
  3  6  1  0  0  0  0
  3 23  1  0  0  0  0
  4 10  1  6  0  0  0
  4  2  1  0  0  0  0
  4  7  1  0  0  0  0
  5 23  2  0  0  0  0
  5 13  1  0  0  0  0
  6  8  1  1  0  0  0
  6  1  1  0  0  0  0
  7 15  1  1  0  0  0
  9 18  2  0  0  0  0
  9 10  1  0  0  0  0
 12 20  1  0  0  0  0
 13 17  2  0  0  0  0
 15  6  1  0  0  0  0
 16 25  2  0  0  0  0
 16 20  1  0  0  0  0
 17 14  1  0  0  0  0
 18 11  1  0  0  0  0
 20 21  2  0  0  0  0
 21 13  1  0  0  0  0
 23 24  1  0  0  0  0
 24 22  1  0  0  0  0
 24 14  2  0  0  0  0
 25  5  1  0  0  0  0
 26 18  1  0  0  0  0
 28 26  1  0  0  0  0
 28 27  1  0  0  0  0
M  END
>  <MODEL>
9

>  <REMARK>
 VINA RESULT:      -6.6      3.127      6.307
  Name = 
  2 active torsions:
  status: ('A' for Active; 'I' for Inactive)
    1  A    between atoms: C_5  and  C_16
    2  A    between atoms: C_5  and  C_21
                            x       y       z     vdW  Elec       q    Type
                         _______ _______ _______ _____ _____    ______ ____

>  <TORSDO>
F 2

$$$$
