=
 OpenBabel11062422083D

 27 31  0  0  1  0  0  0  0  0999 V2000
  186.1760  177.8240  140.4780 N   0  0  0  0  0  0  0  0  0  0  0  0
  185.8800  177.8070  142.8650 C   0  0  0  0  0  0  0  0  0  0  0  0
  185.7780  179.5840  145.4200 O   0  0  0  0  0  1  0  0  0  0  0  0
  187.5310  177.6780  140.6020 C   0  0  0  0  0  3  0  0  0  0  0  0
  185.3460  177.8800  141.5690 C   0  0  0  0  0  3  0  0  0  0  0  0
  187.2480  177.6520  142.9880 C   0  0  0  0  0  0  0  0  0  0  0  0
  187.8750  177.6970  146.7110 C   0  0  0  0  0  1  0  0  0  0  0  0
  185.0230  177.7450  144.0950 C   0  0  0  0  0  2  0  0  0  0  0  0
  188.0660  177.5860  141.8820 C   0  0  0  0  0  0  0  0  0  0  0  0
  187.9000  177.5620  144.2050 C   0  0  0  0  0  0  0  0  0  0  0  0
  185.7620  178.1850  145.3870 C   0  0  1  0  0  0  0  0  0  0  0  0
  189.2830  177.4030  144.0440 C   0  0  0  0  0  0  0  0  0  0  0  0
  189.6610  177.3970  142.3830 S   0  0  0  0  0  0  0  0  0  0  0  0
  187.1630  177.6940  145.4370 N   0  0  0  0  0  0  0  0  0  0  0  0
  184.5330  178.5410  147.6790 C   0  0  0  0  0  1  0  0  0  0  0  0
  184.6830  176.4640  146.6090 O   0  0  0  0  0  0  0  0  0  0  0  0
  184.9700  177.6500  146.5610 C   0  0  0  0  0  0  0  0  0  0  0  0
  190.2380  177.3110  145.1020 N   0  0  0  0  0  2  0  0  0  0  0  0
  192.3380  174.1300  145.2510 C   0  0  0  0  0  2  0  0  0  0  0  0
  191.3490  175.1940  145.6780 C   0  0  2  0  0  0  0  0  0  0  0  0
  191.4660  176.5390  144.9810 C   0  0  2  0  0  3  0  0  0  0  0  0
  193.6900  174.5410  145.8000 C   0  0  0  0  0  2  0  0  0  0  0  0
  193.5600  175.9710  146.3000 C   0  0  1  0  0  3  0  0  0  0  0  0
  194.2470  176.8430  145.4510 O   0  0  0  0  0  1  0  0  0  0  0  0
  192.0780  176.3250  146.3680 C   0  0  2  0  0  3  0  0  0  0  0  0
  190.0400  174.7930  146.3500 C   0  0  0  0  0  2  0  0  0  0  0  0
  190.1170  175.0110  147.7270 O   0  0  0  0  0  1  0  0  0  0  0  0
  1  4  2  0  0  0  0
  1  5  1  0  0  0  0
  2  6  1  0  0  0  0
  2  8  1  0  0  0  0
  4  9  1  0  0  0  0
  5  2  2  0  0  0  0
  6 10  1  0  0  0  0
  8 11  1  0  0  0  0
  9 13  1  0  0  0  0
  9  6  2  0  0  0  0
 10 14  1  0  0  0  0
 11  3  1  1  0  0  0
 11 14  1  0  0  0  0
 11 17  1  0  0  0  0
 12 10  2  0  0  0  0
 12 18  1  0  0  0  0
 13 12  1  0  0  0  0
 14  7  1  0  0  0  0
 17 16  2  0  0  0  0
 17 15  1  0  0  0  0
 19 20  1  0  0  0  0
 19 22  1  0  0  0  0
 20 26  1  1  0  0  0
 20 25  1  0  0  0  0
 21 18  1  1  0  0  0
 21 20  1  0  0  0  0
 21 25  1  0  0  0  0
 22 23  1  0  0  0  0
 23 24  1  6  0  0  0
 23 25  1  0  0  0  0
 26 27  1  0  0  0  0
M  END
>  <MODEL>
1

>  <REMARK>
 VINA RESULT:      -7.3      0.000      0.000
  Name = 
  4 active torsions:
  status: ('A' for Active; 'I' for Inactive)
    1  A    between atoms: C_4  and  C_15
    2  A    between atoms: C_7  and  N_23
    3  A    between atoms: C_19  and  C_27
    4  A    between atoms: C_20  and  N_23
                            x       y       z     vdW  Elec       q    Type
                         _______ _______ _______ _____ _____    ______ ____

>  <TORSDO>
F 4

$$$$
=
 OpenBabel11062422083D

 27 31  0  0  1  0  0  0  0  0999 V2000
  190.0190  171.5630  143.0810 N   0  0  0  0  0  0  0  0  0  0  0  0
  190.4800  173.3840  144.5830 C   0  0  0  0  0  0  0  0  0  0  0  0
  189.5930  174.7840  147.2190 O   0  0  0  0  0  1  0  0  0  0  0  0
  189.1500  172.3280  142.3520 C   0  0  0  0  0  3  0  0  0  0  0  0
  190.6890  172.0580  144.1710 C   0  0  0  0  0  3  0  0  0  0  0  0
  189.6090  174.1580  143.8400 C   0  0  0  0  0  0  0  0  0  0  0  0
  189.4930  177.4650  145.6590 C   0  0  0  0  0  1  0  0  0  0  0  0
  191.2640  174.0240  145.6910 C   0  0  0  0  0  2  0  0  0  0  0  0
  188.9530  173.6480  142.7420 C   0  0  0  0  0  0  0  0  0  0  0  0
  189.3190  175.4780  144.1350 C   0  0  0  0  0  0  0  0  0  0  0  0
  190.5570  175.2530  146.3200 C   0  0  1  0  0  0  0  0  0  0  0  0
  188.4110  176.0280  143.2200 C   0  0  0  0  0  0  0  0  0  0  0  0
  187.9770  174.8450  142.0750 S   0  0  0  0  0  0  0  0  0  0  0  0
  189.8830  176.1030  145.3040 N   0  0  0  0  0  0  0  0  0  0  0  0
  192.9420  176.3430  146.4470 C   0  0  0  0  0  1  0  0  0  0  0  0
  191.3830  176.4530  148.1900 O   0  0  0  0  0  0  0  0  0  0  0  0
  191.6120  176.0470  147.0620 C   0  0  0  0  0  0  0  0  0  0  0  0
  187.8870  177.3560  143.2660 N   0  0  0  0  0  2  0  0  0  0  0  0
  184.1520  178.0100  142.8480 C   0  0  0  0  0  2  0  0  0  0  0  0
  185.6430  178.1170  142.6070 C   0  0  2  0  0  0  0  0  0  0  0  0
  186.5420  177.6500  143.7400 C   0  0  2  0  0  3  0  0  0  0  0  0
  183.7940  179.0770  143.8620 C   0  0  0  0  0  2  0  0  0  0  0  0
  185.0950  179.6200  144.4290 C   0  0  1  0  0  3  0  0  0  0  0  0
  185.2630  179.1900  145.7490 O   0  0  0  0  0  1  0  0  0  0  0  0
  186.2420  179.1390  143.5470 C   0  0  2  0  0  3  0  0  0  0  0  0
  186.1820  178.1870  141.1820 C   0  0  0  0  0  2  0  0  0  0  0  0
  185.1280  178.2030  140.2670 O   0  0  0  0  0  1  0  0  0  0  0  0
  1  5  1  0  0  0  0
  2  8  1  0  0  0  0
  4  9  1  0  0  0  0
  4  1  2  0  0  0  0
  5  2  2  0  0  0  0
  6 10  1  0  0  0  0
  6  2  1  0  0  0  0
  8 11  1  0  0  0  0
  9  6  2  0  0  0  0
 10 14  1  0  0  0  0
 11 17  1  0  0  0  0
 11  3  1  1  0  0  0
 12 18  1  0  0  0  0
 12 10  2  0  0  0  0
 13  9  1  0  0  0  0
 13 12  1  0  0  0  0
 14  7  1  0  0  0  0
 14 11  1  0  0  0  0
 15 17  1  0  0  0  0
 17 16  2  0  0  0  0
 19 22  1  0  0  0  0
 20 26  1  6  0  0  0
 20 19  1  0  0  0  0
 20 25  1  0  0  0  0
 20 21  1  0  0  0  0
 21 18  1  6  0  0  0
 22 23  1  0  0  0  0
 23 24  1  1  0  0  0
 25 21  1  0  0  0  0
 25 23  1  0  0  0  0
 27 26  1  0  0  0  0
M  END
>  <MODEL>
2

>  <REMARK>
 VINA RESULT:      -7.1      2.516      6.781
  Name = 
  4 active torsions:
  status: ('A' for Active; 'I' for Inactive)
    1  A    between atoms: C_4  and  C_15
    2  A    between atoms: C_7  and  N_23
    3  A    between atoms: C_19  and  C_27
    4  A    between atoms: C_20  and  N_23
                            x       y       z     vdW  Elec       q    Type
                         _______ _______ _______ _____ _____    ______ ____

>  <TORSDO>
F 4

$$$$
=
 OpenBabel11062422083D

 27 31  0  0  1  0  0  0  0  0999 V2000
  189.5640  172.4170  141.3180 N   0  0  0  0  0  0  0  0  0  0  0  0
  190.6520  173.8810  142.8860 C   0  0  0  0  0  0  0  0  0  0  0  0
  191.1750  174.4220  145.9080 O   0  0  0  0  0  1  0  0  0  0  0  0
  188.4150  173.1590  141.3570 C   0  0  0  0  0  3  0  0  0  0  0  0
  190.6750  172.7540  142.0490 C   0  0  0  0  0  3  0  0  0  0  0  0
  189.4930  174.6340  142.9180 C   0  0  0  0  0  0  0  0  0  0  0  0
  190.1870  177.3300  145.4690 C   0  0  0  0  0  1  0  0  0  0  0  0
  191.8650  174.3720  143.6210 C   0  0  0  0  0  2  0  0  0  0  0  0
  188.3910  174.2880  142.1700 C   0  0  0  0  0  0  0  0  0  0  0  0
  189.3410  175.7680  143.6960 C   0  0  0  0  0  0  0  0  0  0  0  0
  191.5270  175.2620  144.8460 C   0  0  1  0  0  0  0  0  0  0  0  0
  188.0730  176.3420  143.5360 C   0  0  0  0  0  0  0  0  0  0  0  0
  187.1640  175.4070  142.4400 S   0  0  0  0  0  0  0  0  0  0  0  0
  190.3970  176.1900  144.5820 N   0  0  0  0  0  0  0  0  0  0  0  0
  193.3660  175.9960  146.5700 C   0  0  0  0  0  1  0  0  0  0  0  0
  193.3260  176.7220  144.3450 O   0  0  0  0  0  0  0  0  0  0  0  0
  192.7800  176.0380  145.1960 C   0  0  0  0  0  0  0  0  0  0  0  0
  187.5930  177.5000  144.2210 N   0  0  0  0  0  2  0  0  0  0  0  0
  184.1490  178.3810  145.6070 C   0  0  0  0  0  2  0  0  0  0  0  0
  185.5220  178.5760  144.9980 C   0  0  2  0  0  0  0  0  0  0  0  0
  186.5120  177.4390  145.1950 C   0  0  2  0  0  3  0  0  0  0  0  0
  184.3150  178.4960  147.1090 C   0  0  0  0  0  2  0  0  0  0  0  0
  185.8060  178.4740  147.4040 C   0  0  1  0  0  3  0  0  0  0  0  0
  186.1610  177.2630  148.0040 O   0  0  0  0  0  1  0  0  0  0  0  0
  186.5590  178.6780  146.0930 C   0  0  2  0  0  3  0  0  0  0  0  0
  185.7160  179.5700  143.8580 C   0  0  0  0  0  2  0  0  0  0  0  0
  185.1990  179.0490  142.6700 O   0  0  0  0  0  1  0  0  0  0  0  0
  1  4  2  0  0  0  0
  1  5  1  0  0  0  0
  2  6  1  0  0  0  0
  2  8  1  0  0  0  0
  4  9  1  0  0  0  0
  5  2  2  0  0  0  0
  6 10  1  0  0  0  0
  8 11  1  0  0  0  0
  9 13  1  0  0  0  0
  9  6  2  0  0  0  0
 10 14  1  0  0  0  0
 11 17  1  0  0  0  0
 11  3  1  1  0  0  0
 12 10  2  0  0  0  0
 12 18  1  0  0  0  0
 13 12  1  0  0  0  0
 14 11  1  0  0  0  0
 14  7  1  0  0  0  0
 16 17  2  0  0  0  0
 17 15  1  0  0  0  0
 19 22  1  0  0  0  0
 20 26  1  6  0  0  0
 20 21  1  0  0  0  0
 20 19  1  0  0  0  0
 20 25  1  0  0  0  0
 21 18  1  6  0  0  0
 21 25  1  0  0  0  0
 22 23  1  0  0  0  0
 23 24  1  6  0  0  0
 25 23  1  0  0  0  0
 27 26  1  0  0  0  0
M  END
>  <MODEL>
3

>  <REMARK>
 VINA RESULT:      -6.9      2.429      6.575
  Name = 
  4 active torsions:
  status: ('A' for Active; 'I' for Inactive)
    1  A    between atoms: C_4  and  C_15
    2  A    between atoms: C_7  and  N_23
    3  A    between atoms: C_19  and  C_27
    4  A    between atoms: C_20  and  N_23
                            x       y       z     vdW  Elec       q    Type
                         _______ _______ _______ _____ _____    ______ ____

>  <TORSDO>
F 4

$$$$
=
 OpenBabel11062422083D

 27 31  0  0  1  0  0  0  0  0999 V2000
  193.7630  175.7110  146.4910 N   0  0  0  0  0  0  0  0  0  0  0  0
  192.4200  174.7150  144.7630 C   0  0  0  0  0  0  0  0  0  0  0  0
  191.3900  175.0460  141.8430 O   0  0  0  0  0  1  0  0  0  0  0  0
  192.6940  176.4150  146.9760 C   0  0  0  0  0  3  0  0  0  0  0  0
  193.6530  174.8660  145.4160 C   0  0  0  0  0  3  0  0  0  0  0  0
  191.3390  175.4190  145.2580 C   0  0  0  0  0  0  0  0  0  0  0  0
  188.5090  174.5950  142.9000 C   0  0  0  0  0  1  0  0  0  0  0  0
  192.2020  173.7230  143.6580 C   0  0  0  0  0  2  0  0  0  0  0  0
  191.4650  176.2550  146.3450 C   0  0  0  0  0  0  0  0  0  0  0  0
  190.0710  175.3560  144.7110 C   0  0  0  0  0  0  0  0  0  0  0  0
  190.9890  174.0620  142.7520 C   0  0  1  0  0  0  0  0  0  0  0  0
  189.1620  176.1630  145.4090 C   0  0  0  0  0  0  0  0  0  0  0  0
  189.9710  176.9510  146.6840 S   0  0  0  0  0  0  0  0  0  0  0  0
  189.8280  174.5750  143.5240 N   0  0  0  0  0  0  0  0  0  0  0  0
  190.3360  171.5200  142.7360 C   0  0  0  0  0  1  0  0  0  0  0  0
  190.5450  172.8060  140.7910 O   0  0  0  0  0  0  0  0  0  0  0  0
  190.6150  172.7960  142.0100 C   0  0  0  0  0  0  0  0  0  0  0  0
  187.7840  176.3400  145.0790 N   0  0  0  0  0  2  0  0  0  0  0  0
  185.5800  179.4140  145.5830 C   0  0  0  0  0  2  0  0  0  0  0  0
  185.9810  177.9550  145.5190 C   0  0  2  0  0  0  0  0  0  0  0  0
  187.2300  177.6360  144.7120 C   0  0  2  0  0  3  0  0  0  0  0  0
  185.0520  179.7850  144.2120 C   0  0  0  0  0  2  0  0  0  0  0  0
  185.4010  178.6460  143.2680 C   0  0  1  0  0  3  0  0  0  0  0  0
  186.4110  179.0400  142.3880 O   0  0  0  0  0  1  0  0  0  0  0  0
  185.8380  177.4460  144.1020 C   0  0  2  0  0  3  0  0  0  0  0  0
  185.4910  176.9820  146.5850 C   0  0  0  0  0  2  0  0  0  0  0  0
  185.9470  177.3750  147.8440 O   0  0  0  0  0  1  0  0  0  0  0  0
  1  4  1  0  0  0  0
  2  6  2  0  0  0  0
  2  5  1  0  0  0  0
  5  1  2  0  0  0  0
  6  9  1  0  0  0  0
  7 14  1  0  0  0  0
  8  2  1  0  0  0  0
  9 13  1  0  0  0  0
  9  4  2  0  0  0  0
 10  6  1  0  0  0  0
 10 12  2  0  0  0  0
 11  3  1  6  0  0  0
 11 14  1  0  0  0  0
 11  8  1  0  0  0  0
 12 13  1  0  0  0  0
 14 10  1  0  0  0  0
 16 17  2  0  0  0  0
 17 15  1  0  0  0  0
 17 11  1  0  0  0  0
 18 12  1  0  0  0  0
 20 19  1  0  0  0  0
 20 26  1  1  0  0  0
 21 18  1  1  0  0  0
 21 20  1  0  0  0  0
 22 19  1  0  0  0  0
 23 24  1  6  0  0  0
 23 25  1  0  0  0  0
 23 22  1  0  0  0  0
 25 21  1  0  0  0  0
 25 20  1  0  0  0  0
 26 27  1  0  0  0  0
M  END
>  <MODEL>
4

>  <REMARK>
 VINA RESULT:      -6.8      2.779      7.190
  Name = 
  4 active torsions:
  status: ('A' for Active; 'I' for Inactive)
    1  A    between atoms: C_4  and  C_15
    2  A    between atoms: C_7  and  N_23
    3  A    between atoms: C_19  and  C_27
    4  A    between atoms: C_20  and  N_23
                            x       y       z     vdW  Elec       q    Type
                         _______ _______ _______ _____ _____    ______ ____

>  <TORSDO>
F 4

$$$$
=
 OpenBabel11062422083D

 27 31  0  0  1  0  0  0  0  0999 V2000
  185.6140  178.8030  147.1040 N   0  0  0  0  0  0  0  0  0  0  0  0
  186.4180  178.2360  144.9090 C   0  0  0  0  0  0  0  0  0  0  0  0
  186.3110  176.1040  142.6410 O   0  0  0  0  0  1  0  0  0  0  0  0
  186.6590  178.1530  147.7020 C   0  0  0  0  0  3  0  0  0  0  0  0
  185.4790  178.8660  145.7400 C   0  0  0  0  0  3  0  0  0  0  0  0
  187.4770  177.5860  145.5140 C   0  0  0  0  0  0  0  0  0  0  0  0
  189.4130  176.0630  142.6530 C   0  0  0  0  0  1  0  0  0  0  0  0
  186.3950  178.3630  143.4140 C   0  0  0  0  0  2  0  0  0  0  0  0
  187.6040  177.5420  146.8840 C   0  0  0  0  0  0  0  0  0  0  0  0
  188.4720  176.9310  144.8120 C   0  0  0  0  0  0  0  0  0  0  0  0
  187.1510  177.2220  142.6840 C   0  0  1  0  0  0  0  0  0  0  0  0
  189.4260  176.3640  145.6680 C   0  0  0  0  0  0  0  0  0  0  0  0
  188.9920  176.6800  147.2840 S   0  0  0  0  0  0  0  0  0  0  0  0
  188.4110  176.8410  143.3750 N   0  0  0  0  0  0  0  0  0  0  0  0
  186.6960  177.1660  140.1000 C   0  0  0  0  0  1  0  0  0  0  0  0
  188.3080  178.5440  141.0920 O   0  0  0  0  0  0  0  0  0  0  0  0
  187.4420  177.7030  141.2780 C   0  0  0  0  0  0  0  0  0  0  0  0
  190.5590  175.5970  145.2580 N   0  0  0  0  0  2  0  0  0  0  0  0
  194.1770  175.8340  144.0700 C   0  0  0  0  0  2  0  0  0  0  0  0
  192.8820  175.2100  144.5470 C   0  0  2  0  0  0  0  0  0  0  0  0
  191.9110  176.1400  145.2560 C   0  0  2  0  0  3  0  0  0  0  0  0
  195.0100  176.1160  145.3050 C   0  0  0  0  0  2  0  0  0  0  0  0
  194.1070  175.9280  146.5130 C   0  0  1  0  0  3  0  0  0  0  0  0
  193.8130  177.1640  147.0930 O   0  0  0  0  0  1  0  0  0  0  0  0
  192.8350  175.2200  146.0580 C   0  0  2  0  0  3  0  0  0  0  0  0
  192.3790  173.9180  143.9140 C   0  0  0  0  0  2  0  0  0  0  0  0
  192.6680  172.8310  144.7410 O   0  0  0  0  0  1  0  0  0  0  0  0
  1  4  1  0  0  0  0
  2  6  2  0  0  0  0
  2  5  1  0  0  0  0
  5  1  2  0  0  0  0
  6  9  1  0  0  0  0
  7 14  1  0  0  0  0
  8  2  1  0  0  0  0
  9 13  1  0  0  0  0
  9  4  2  0  0  0  0
 10  6  1  0  0  0  0
 10 12  2  0  0  0  0
 11  3  1  6  0  0  0
 11 14  1  0  0  0  0
 11  8  1  0  0  0  0
 12 13  1  0  0  0  0
 14 10  1  0  0  0  0
 15 17  1  0  0  0  0
 16 17  2  0  0  0  0
 17 11  1  0  0  0  0
 18 12  1  0  0  0  0
 19 20  1  0  0  0  0
 19 22  1  0  0  0  0
 20 26  1  6  0  0  0
 20 21  1  0  0  0  0
 20 25  1  0  0  0  0
 21 18  1  6  0  0  0
 21 25  1  0  0  0  0
 22 23  1  0  0  0  0
 23 24  1  6  0  0  0
 25 23  1  0  0  0  0
 26 27  1  0  0  0  0
M  END
>  <MODEL>
5

>  <REMARK>
 VINA RESULT:      -6.7      2.269      4.059
  Name = 
  4 active torsions:
  status: ('A' for Active; 'I' for Inactive)
    1  A    between atoms: C_4  and  C_15
    2  A    between atoms: C_7  and  N_23
    3  A    between atoms: C_19  and  C_27
    4  A    between atoms: C_20  and  N_23
                            x       y       z     vdW  Elec       q    Type
                         _______ _______ _______ _____ _____    ______ ____

>  <TORSDO>
F 4

$$$$
=
 OpenBabel11062422083D

 27 31  0  0  1  0  0  0  0  0999 V2000
  185.5980  177.6690  147.3060 N   0  0  0  0  0  0  0  0  0  0  0  0
  186.4250  177.5600  145.0500 C   0  0  0  0  0  0  0  0  0  0  0  0
  186.3160  175.9560  142.3840 O   0  0  0  0  0  1  0  0  0  0  0  0
  186.6230  176.8880  147.7650 C   0  0  0  0  0  3  0  0  0  0  0  0
  185.4840  178.0210  145.9850 C   0  0  0  0  0  3  0  0  0  0  0  0
  187.4640  176.7780  145.5170 C   0  0  0  0  0  0  0  0  0  0  0  0
  189.4170  175.8520  142.4200 C   0  0  0  0  0  1  0  0  0  0  0  0
  186.4270  178.0000  143.6150 C   0  0  0  0  0  2  0  0  0  0  0  0
  187.5700  176.4440  146.8480 C   0  0  0  0  0  0  0  0  0  0  0  0
  188.4590  176.2650  144.7030 C   0  0  0  0  0  0  0  0  0  0  0  0
  187.1740  177.0220  142.6700 C   0  0  1  0  0  0  0  0  0  0  0  0
  189.3900  175.5130  145.4310 C   0  0  0  0  0  0  0  0  0  0  0  0
  188.9380  175.4910  147.0730 S   0  0  0  0  0  0  0  0  0  0  0  0
  188.4170  176.4810  143.2790 N   0  0  0  0  0  0  0  0  0  0  0  0
  186.7360  177.5410  140.1340 C   0  0  0  0  0  1  0  0  0  0  0  0
  188.3930  178.6090  141.3980 O   0  0  0  0  0  0  0  0  0  0  0  0
  187.4940  177.7830  141.4000 C   0  0  0  0  0  0  0  0  0  0  0  0
  190.5160  174.8270  144.8810 N   0  0  0  0  0  2  0  0  0  0  0  0
  193.7160  176.2090  146.4330 C   0  0  0  0  0  2  0  0  0  0  0  0
  192.6190  175.9870  145.4120 C   0  0  2  0  0  0  0  0  0  0  0  0
  191.7880  174.7260  145.5840 C   0  0  2  0  0  3  0  0  0  0  0  0
  194.8020  175.1940  146.1380 C   0  0  0  0  0  2  0  0  0  0  0  0
  194.2320  174.1980  145.1410 C   0  0  1  0  0  3  0  0  0  0  0  0
  194.0060  172.9670  145.7640 O   0  0  0  0  0  1  0  0  0  0  0  0
  192.9380  174.7710  144.5730 C   0  0  2  0  0  3  0  0  0  0  0  0
  192.0650  177.1660  144.6190 C   0  0  0  0  0  2  0  0  0  0  0  0
  192.5080  177.1090  143.2970 O   0  0  0  0  0  1  0  0  0  0  0  0
  1  4  1  0  0  0  0
  2  6  2  0  0  0  0
  2  5  1  0  0  0  0
  5  1  2  0  0  0  0
  6  9  1  0  0  0  0
  7 14  1  0  0  0  0
  8  2  1  0  0  0  0
  9 13  1  0  0  0  0
  9  4  2  0  0  0  0
 10 12  2  0  0  0  0
 10  6  1  0  0  0  0
 11  3  1  6  0  0  0
 11 14  1  0  0  0  0
 11  8  1  0  0  0  0
 12 13  1  0  0  0  0
 14 10  1  0  0  0  0
 15 17  1  0  0  0  0
 16 17  2  0  0  0  0
 17 11  1  0  0  0  0
 18 12  1  0  0  0  0
 20 26  1  6  0  0  0
 20 21  1  0  0  0  0
 20 19  1  0  0  0  0
 21 18  1  6  0  0  0
 22 19  1  0  0  0  0
 23 24  1  1  0  0  0
 23 22  1  0  0  0  0
 25 23  1  0  0  0  0
 25 20  1  0  0  0  0
 25 21  1  0  0  0  0
 27 26  1  0  0  0  0
M  END
>  <MODEL>
6

>  <REMARK>
 VINA RESULT:      -6.6      2.389      4.266
  Name = 
  4 active torsions:
  status: ('A' for Active; 'I' for Inactive)
    1  A    between atoms: C_4  and  C_15
    2  A    between atoms: C_7  and  N_23
    3  A    between atoms: C_19  and  C_27
    4  A    between atoms: C_20  and  N_23
                            x       y       z     vdW  Elec       q    Type
                         _______ _______ _______ _____ _____    ______ ____

>  <TORSDO>
F 4

$$$$
=
 OpenBabel11062422083D

 27 31  0  0  1  0  0  0  0  0999 V2000
  184.7750  178.0650  144.3680 N   0  0  0  0  0  0  0  0  0  0  0  0
  186.7330  177.0490  145.3270 C   0  0  0  0  0  0  0  0  0  0  0  0
  189.6920  177.5380  146.1660 O   0  0  0  0  0  1  0  0  0  0  0  0
  185.1640  177.7210  143.1020 C   0  0  0  0  0  3  0  0  0  0  0  0
  185.5200  177.7390  145.4740 C   0  0  0  0  0  3  0  0  0  0  0  0
  187.1200  176.6950  144.0480 C   0  0  0  0  0  0  0  0  0  0  0  0
  190.4870  175.0450  144.5000 C   0  0  0  0  0  1  0  0  0  0  0  0
  187.5370  176.5600  146.4960 C   0  0  0  0  0  2  0  0  0  0  0  0
  186.3550  177.0200  142.9500 C   0  0  0  0  0  0  0  0  0  0  0  0
  188.2880  176.0100  143.7660 C   0  0  0  0  0  0  0  0  0  0  0  0
  189.0300  176.3060  146.1580 C   0  0  1  0  0  0  0  0  0  0  0  0
  188.4350  175.7750  142.3920 C   0  0  0  0  0  0  0  0  0  0  0  0
  187.1090  176.4460  141.5600 S   0  0  0  0  0  0  0  0  0  0  0  0
  189.2120  175.6800  144.8220 N   0  0  0  0  0  0  0  0  0  0  0  0
  190.9340  175.6640  147.8460 C   0  0  0  0  0  1  0  0  0  0  0  0
  188.9400  174.4560  147.6370 O   0  0  0  0  0  0  0  0  0  0  0  0
  189.5900  175.4120  147.2440 C   0  0  0  0  0  0  0  0  0  0  0  0
  189.5450  175.1210  141.7750 N   0  0  0  0  0  2  0  0  0  0  0  0
  190.8820  171.6900  140.7750 C   0  0  0  0  0  2  0  0  0  0  0  0
  190.8170  173.1960  140.9220 C   0  0  2  0  0  0  0  0  0  0  0  0
  189.4440  173.7840  141.2040 C   0  0  2  0  0  3  0  0  0  0  0  0
  190.2250  171.3490  139.4530 C   0  0  0  0  0  2  0  0  0  0  0  0
  189.5250  172.6040  138.9570 C   0  0  1  0  0  3  0  0  0  0  0  0
  188.1400  172.4580  139.0630 O   0  0  0  0  0  1  0  0  0  0  0  0
  190.0170  173.7880  139.7840 C   0  0  2  0  0  3  0  0  0  0  0  0
  192.0730  173.9820  141.2780 C   0  0  0  0  0  2  0  0  0  0  0  0
  192.7430  173.3690  142.3380 O   0  0  0  0  0  1  0  0  0  0  0  0
  1  5  1  0  0  0  0
  2  5  2  0  0  0  0
  2  8  1  0  0  0  0
  4  1  2  0  0  0  0
  6  2  1  0  0  0  0
  7 14  1  0  0  0  0
  9  4  1  0  0  0  0
  9  6  2  0  0  0  0
 10  6  1  0  0  0  0
 10 14  1  0  0  0  0
 11  3  1  1  0  0  0
 11  8  1  0  0  0  0
 11 17  1  0  0  0  0
 12 10  2  0  0  0  0
 13 12  1  0  0  0  0
 13  9  1  0  0  0  0
 14 11  1  0  0  0  0
 17 16  2  0  0  0  0
 17 15  1  0  0  0  0
 18 12  1  0  0  0  0
 19 20  1  0  0  0  0
 20 21  1  0  0  0  0
 20 26  1  1  0  0  0
 21 18  1  1  0  0  0
 22 19  1  0  0  0  0
 23 24  1  1  0  0  0
 23 22  1  0  0  0  0
 23 25  1  0  0  0  0
 25 20  1  0  0  0  0
 25 21  1  0  0  0  0
 26 27  1  0  0  0  0
M  END
>  <MODEL>
7

>  <REMARK>
 VINA RESULT:      -6.6      3.660      5.135
  Name = 
  4 active torsions:
  status: ('A' for Active; 'I' for Inactive)
    1  A    between atoms: C_4  and  C_15
    2  A    between atoms: C_7  and  N_23
    3  A    between atoms: C_19  and  C_27
    4  A    between atoms: C_20  and  N_23
                            x       y       z     vdW  Elec       q    Type
                         _______ _______ _______ _____ _____    ______ ____

>  <TORSDO>
F 4

$$$$
=
 OpenBabel11062422083D

 27 31  0  0  1  0  0  0  0  0999 V2000
  190.7590  173.3920  140.0240 N   0  0  0  0  0  0  0  0  0  0  0  0
  191.5610  174.3450  142.0810 C   0  0  0  0  0  0  0  0  0  0  0  0
  192.0360  173.8060  145.1110 O   0  0  0  0  0  1  0  0  0  0  0  0
  189.4830  173.8190  140.2730 C   0  0  0  0  0  3  0  0  0  0  0  0
  191.7950  173.6450  140.8880 C   0  0  0  0  0  3  0  0  0  0  0  0
  190.2740  174.7840  142.3280 C   0  0  0  0  0  0  0  0  0  0  0  0
  190.4620  176.4060  145.7320 C   0  0  0  0  0  1  0  0  0  0  0  0
  192.6650  174.7560  143.0110 C   0  0  0  0  0  2  0  0  0  0  0  0
  189.2480  174.5320  141.4450 C   0  0  0  0  0  0  0  0  0  0  0  0
  189.9110  175.4880  143.4610 C   0  0  0  0  0  0  0  0  0  0  0  0
  192.1820  175.0350  144.4590 C   0  0  1  0  0  0  0  0  0  0  0  0
  188.5490  175.8150  143.4580 C   0  0  0  0  0  0  0  0  0  0  0  0
  187.8250  175.1980  142.0440 S   0  0  0  0  0  0  0  0  0  0  0  0
  190.8790  175.7490  144.4970 N   0  0  0  0  0  0  0  0  0  0  0  0
  193.7520  175.5130  146.5080 C   0  0  0  0  0  1  0  0  0  0  0  0
  193.7310  176.8270  144.5710 O   0  0  0  0  0  0  0  0  0  0  0  0
  193.2570  175.8560  145.1400 C   0  0  0  0  0  0  0  0  0  0  0  0
  187.8580  176.5110  144.4960 N   0  0  0  0  0  2  0  0  0  0  0  0
  185.5670  179.4030  145.4690 C   0  0  0  0  0  2  0  0  0  0  0  0
  186.1570  178.0080  145.4540 C   0  0  2  0  0  0  0  0  0  0  0  0
  186.9760  177.6390  144.2280 C   0  0  2  0  0  3  0  0  0  0  0  0
  184.4470  179.4160  144.4480 C   0  0  0  0  0  2  0  0  0  0  0  0
  184.5570  178.1360  143.6360 C   0  0  1  0  0  3  0  0  0  0  0  0
  185.0060  178.4210  142.3440 O   0  0  0  0  0  1  0  0  0  0  0  0
  185.5170  177.1920  144.3530 C   0  0  2  0  0  3  0  0  0  0  0  0
  186.3540  177.2490  146.7610 C   0  0  0  0  0  2  0  0  0  0  0  0
  185.9370  178.0300  147.8410 O   0  0  0  0  0  1  0  0  0  0  0  0
  1  4  2  0  0  0  0
  1  5  1  0  0  0  0
  2  6  1  0  0  0  0
  2  8  1  0  0  0  0
  4  9  1  0  0  0  0
  5  2  2  0  0  0  0
  6 10  1  0  0  0  0
  8 11  1  0  0  0  0
  9 13  1  0  0  0  0
  9  6  2  0  0  0  0
 10 14  1  0  0  0  0
 11 14  1  0  0  0  0
 11  3  1  1  0  0  0
 11 17  1  0  0  0  0
 12 10  2  0  0  0  0
 12 18  1  0  0  0  0
 13 12  1  0  0  0  0
 14  7  1  0  0  0  0
 16 17  2  0  0  0  0
 17 15  1  0  0  0  0
 20 19  1  0  0  0  0
 20 26  1  1  0  0  0
 21 25  1  0  0  0  0
 21 18  1  1  0  0  0
 21 20  1  0  0  0  0
 22 19  1  0  0  0  0
 23 24  1  6  0  0  0
 23 25  1  0  0  0  0
 23 22  1  0  0  0  0
 25 20  1  0  0  0  0
 26 27  1  0  0  0  0
M  END
>  <MODEL>
8

>  <REMARK>
 VINA RESULT:      -6.6      2.605      6.731
  Name = 
  4 active torsions:
  status: ('A' for Active; 'I' for Inactive)
    1  A    between atoms: C_4  and  C_15
    2  A    between atoms: C_7  and  N_23
    3  A    between atoms: C_19  and  C_27
    4  A    between atoms: C_20  and  N_23
                            x       y       z     vdW  Elec       q    Type
                         _______ _______ _______ _____ _____    ______ ____

>  <TORSDO>
F 4

$$$$
=
 OpenBabel11062422083D

 27 31  0  0  1  0  0  0  0  0999 V2000
  192.9910  175.1850  146.2480 N   0  0  0  0  0  0  0  0  0  0  0  0
  191.7720  174.2450  144.4000 C   0  0  0  0  0  0  0  0  0  0  0  0
  191.6080  174.0740  141.2940 O   0  0  0  0  0  1  0  0  0  0  0  0
  192.2040  176.3040  146.2530 C   0  0  0  0  0  3  0  0  0  0  0  0
  192.7940  174.1590  145.3580 C   0  0  0  0  0  3  0  0  0  0  0  0
  190.9730  175.3730  144.4120 C   0  0  0  0  0  0  0  0  0  0  0  0
  188.6250  174.9030  141.4920 C   0  0  0  0  0  1  0  0  0  0  0  0
  191.4270  173.1150  143.4750 C   0  0  0  0  0  2  0  0  0  0  0  0
  191.1770  176.3880  145.3190 C   0  0  0  0  0  0  0  0  0  0  0  0
  189.9300  175.5800  143.5270 C   0  0  0  0  0  0  0  0  0  0  0  0
  190.6690  173.5680  142.1990 C   0  0  1  0  0  0  0  0  0  0  0  0
  189.2820  176.8000  143.7620 C   0  0  0  0  0  0  0  0  0  0  0  0
  190.0390  177.6000  145.0610 S   0  0  0  0  0  0  0  0  0  0  0  0
  189.6640  174.6250  142.4800 N   0  0  0  0  0  0  0  0  0  0  0  0
  190.2060  171.9420  140.1900 C   0  0  0  0  0  1  0  0  0  0  0  0
  189.2660  171.6600  142.3160 O   0  0  0  0  0  0  0  0  0  0  0  0
  189.9990  172.3410  141.6160 C   0  0  0  0  0  0  0  0  0  0  0  0
  188.1880  177.3200  143.0040 N   0  0  0  0  0  2  0  0  0  0  0  0
  184.4160  177.8930  142.9980 C   0  0  0  0  0  2  0  0  0  0  0  0
  185.8620  177.9830  142.5560 C   0  0  2  0  0  0  0  0  0  0  0  0
  186.9080  177.6560  143.6100 C   0  0  2  0  0  3  0  0  0  0  0  0
  184.1660  179.0680  143.9220 C   0  0  0  0  0  2  0  0  0  0  0  0
  185.5170  179.6820  144.2510 C   0  0  1  0  0  3  0  0  0  0  0  0
  185.8600  179.4100  145.5780 O   0  0  0  0  0  1  0  0  0  0  0  0
  186.5530  179.1110  143.2890 C   0  0  2  0  0  3  0  0  0  0  0  0
  186.2150  177.8900  141.0760 C   0  0  0  0  0  2  0  0  0  0  0  0
  185.1700  178.3940  140.2990 O   0  0  0  0  0  1  0  0  0  0  0  0
  1  4  1  0  0  0  0
  2  6  2  0  0  0  0
  2  5  1  0  0  0  0
  5  1  2  0  0  0  0
  6  9  1  0  0  0  0
  7 14  1  0  0  0  0
  8  2  1  0  0  0  0
  9  4  2  0  0  0  0
 10 12  2  0  0  0  0
 10  6  1  0  0  0  0
 11  3  1  6  0  0  0
 11 14  1  0  0  0  0
 11  8  1  0  0  0  0
 12 13  1  0  0  0  0
 13  9  1  0  0  0  0
 14 10  1  0  0  0  0
 15 17  1  0  0  0  0
 17 11  1  0  0  0  0
 17 16  2  0  0  0  0
 18 12  1  0  0  0  0
 19 22  1  0  0  0  0
 20 26  1  6  0  0  0
 20 19  1  0  0  0  0
 20 25  1  0  0  0  0
 20 21  1  0  0  0  0
 21 18  1  6  0  0  0
 22 23  1  0  0  0  0
 23 24  1  1  0  0  0
 25 21  1  0  0  0  0
 25 23  1  0  0  0  0
 27 26  1  0  0  0  0
M  END
>  <MODEL>
9

>  <REMARK>
 VINA RESULT:      -6.4      3.012      7.442
  Name = 
  4 active torsions:
  status: ('A' for Active; 'I' for Inactive)
    1  A    between atoms: C_4  and  C_15
    2  A    between atoms: C_7  and  N_23
    3  A    between atoms: C_19  and  C_27
    4  A    between atoms: C_20  and  N_23
                            x       y       z     vdW  Elec       q    Type
                         _______ _______ _______ _____ _____    ______ ____

>  <TORSDO>
F 4

$$$$
