=
 OpenBabel11062421463D

 70 80  0  0  1  0  0  0  0  0999 V2000
  192.1450  171.9580  142.2770 C   0  0  2  0  0  3  0  0  0  0  0  0
  191.0130  174.9580  144.0900 C   0  0  2  0  0  0  0  0  0  0  0  0
  193.0200  174.8320  141.3190 C   0  0  1  0  0  3  0  0  0  0  0  0
  196.1800  171.6410  139.9040 C   0  0  0  0  0  2  0  0  0  0  0  0
  191.4030  173.0160  141.7530 O   0  0  0  0  0  0  0  0  0  0  0  0
  194.4390  171.6770  143.4750 C   0  0  1  0  0  0  0  0  0  0  0  0
  190.8730  173.8580  145.0890 C   0  0  2  0  0  0  0  0  0  0  0  0
  190.5440  172.5580  144.2910 C   0  0  1  0  0  3  0  0  0  0  0  0
  197.1060  175.5690  140.0640 O   0  0  0  0  0  0  0  0  0  0  0  0
  190.6910  177.2790  143.3830 C   0  0  1  0  0  3  0  0  0  0  0  0
  195.6980  173.3100  141.7450 C   0  0  1  0  0  3  0  0  0  0  0  0
  195.7130  169.3260  145.9040 C   0  0  0  0  0  0  0  0  0  0  0  0
  190.2940  174.8450  142.8780 O   0  0  0  0  0  0  0  0  0  0  0  0
  195.7490  170.2910  140.4260 C   0  0  1  0  0  3  0  0  0  0  0  0
  195.5750  172.6890  143.1520 C   0  0  0  0  0  2  0  0  0  0  0  0
  192.6780  175.6610  142.5760 C   0  0  0  0  0  2  0  0  0  0  0  0
  196.0470  174.6770  141.9450 O   0  0  0  0  0  0  0  0  0  0  0  0
  191.8570  170.4240  144.1460 O   0  0  0  0  0  1  0  0  0  0  0  0
  194.6750  175.1330  139.8590 C   0  0  0  0  0  2  0  0  0  0  0  0
  195.1940  168.1660  143.7830 C   0  0  0  0  0  2  0  0  0  0  0  0
  194.0610  169.0540  143.2590 C   0  0  1  0  0  3  0  0  0  0  0  0
  194.4140  170.4660  141.1140 C   0  0  0  0  0  2  0  0  0  0  0  0
  192.1520  173.6690  140.7710 C   0  0  0  0  0  2  0  0  0  0  0  0
  195.8860  175.5000  140.7810 C   0  0  2  0  0  0  0  0  0  0  0  0
  196.7870  172.5140  141.0010 C   0  0  2  0  0  3  0  0  0  0  0  0
  194.6110  170.3590  142.6310 C   0  0  1  0  0  3  0  0  0  0  0  0
  195.3190  168.2700  145.2450 N   0  0  0  0  0  0  0  0  0  0  0  0
  190.9660  177.5450  144.8890 C   0  0  0  0  0  2  0  0  0  0  0  0
  191.7700  171.7580  143.7510 C   0  0  1  0  0  0  0  0  0  0  0  0
  193.4490  175.6750  140.2940 O   0  0  0  0  0  0  0  0  0  0  0  0
  191.2250  175.8930  142.9760 C   0  0  2  0  0  0  0  0  0  0  0  0
  194.6570  171.3590  144.9630 C   0  0  0  0  0  2  0  0  0  0  0  0
  189.5340  171.7030  145.0460 C   0  0  0  0  0  1  0  0  0  0  0  0
  193.0830  172.4660  143.3690 C   0  0  2  0  0  3  0  0  0  0  0  0
  197.9390  173.3410  140.4210 C   0  0  0  0  0  2  0  0  0  0  0  0
  195.9780  170.6260  145.2110 C   0  0  0  0  0  2  0  0  0  0  0  0
  190.3120  176.4980  145.8520 C   0  0  1  0  0  0  0  0  0  0  0  0
  197.4010  174.3510  139.4200 C   0  0  0  0  0  2  0  0  0  0  0  0
  189.9430  175.1360  145.1240 C   0  0  1  0  0  3  0  0  0  0  0  0
  191.2290  176.2430  146.8720 O   0  0  0  0  0  1  0  0  0  0  0  0
  193.2510  168.3300  142.3730 O   0  0  0  0  0  1  0  0  0  0  0  0
  195.6570  176.9290  141.2750 C   0  0  0  0  0  1  0  0  0  0  0  0
  191.9510  173.8870  146.0050 O   0  0  0  0  0  0  0  0  0  0  0  0
  192.9910  174.3970  145.3820 O   0  0  0  0  0  1  0  0  0  0  0  0
  196.9290  168.5010  147.9000 C   0  0  0  0  0  1  0  0  0  0  0  0
  195.8660  169.2260  147.2910 O   0  0  0  0  0  0  0  0  0  0  0  0
  195.5880  169.3850  139.2920 N   0  0  0  0  0  2  0  0  0  0  0  0
  195.5100  169.7120  136.8960 C   0  0  0  0  0  2  0  0  0  0  0  0
  194.4010  169.2520  135.9970 C   0  0  0  0  0  2  0  0  0  0  0  0
  193.5210  169.5320  138.1620 O   0  0  0  0  0  0  0  0  0  0  0  0
  193.1560  169.5110  136.8000 C   0  0  1  0  0  0  0  0  0  0  0  0
  194.8330  170.0310  138.2120 C   0  0  1  0  0  3  0  0  0  0  0  0
  192.5480  170.8880  136.4240 C   0  0  2  0  0  3  0  0  0  0  0  0
  192.0460  171.5390  137.5560 O   0  0  0  0  0  1  0  0  0  0  0  0
  191.5530  170.7890  135.4400 O   0  0  0  0  0  0  0  0  0  0  0  0
  191.0050  172.0750  135.3450 C   0  0  0  0  0  1  0  0  0  0  0  0
  192.1650  168.3660  136.5850 C   0  0  0  0  0  2  0  0  0  0  0  0
  191.2120  168.2960  137.6180 O   0  0  0  0  0  1  0  0  0  0  0  0
  189.2040  177.1630  146.4520 O   0  0  0  0  0  0  0  0  0  0  0  0
  187.0780  176.8760  145.6290 O   0  0  0  0  0  0  0  0  0  0  0  0
  188.0530  176.3640  146.5120 C   0  0  2  0  0  3  0  0  0  0  0  0
  186.9140  177.1590  146.9950 C   0  0  0  0  0  2  0  0  0  0  0  0
  189.2930  177.3020  143.1520 O   0  0  0  0  0  0  0  0  0  0  0  0
  189.2920  178.9280  141.5190 O   0  0  0  0  0  0  0  0  0  0  0  0
  188.6920  177.9850  142.0970 C   0  0  0  0  0  0  0  0  0  0  0  0
  187.4010  177.6300  141.7040 O   0  0  0  0  0  0  0  0  0  0  0  0
  186.2600  178.5190  141.8120 C   0  0  2  0  0  3  0  0  0  0  0  0
  186.1700  179.0740  143.2340 C   0  0  0  0  0  1  0  0  0  0  0  0
  185.0010  177.9300  141.4720 O   0  0  0  0  0  0  0  0  0  0  0  0
  184.8100  177.9310  140.0690 C   0  0  0  0  0  1  0  0  0  0  0  0
  1  5  1  6  0  0  0
  1 34  1  0  0  0  0
  1 29  1  0  0  0  0
  2 13  1  6  0  0  0
  2  7  1  0  0  0  0
  2 39  1  0  0  0  0
  3 23  1  6  0  0  0
  3 16  1  0  0  0  0
  4 14  1  0  0  0  0
  6 15  1  6  0  0  0
  6 32  1  0  0  0  0
  7 39  1  0  0  0  0
  7 43  1  1  0  0  0
  8 33  1  1  0  0  0
  8  7  1  0  0  0  0
  9 24  1  0  0  0  0
 10 63  1  1  0  0  0
 10 28  1  0  0  0  0
 11 17  1  0  0  0  0
 11 15  1  1  0  0  0
 12 46  1  0  0  0  0
 13 31  1  0  0  0  0
 14 47  1  6  0  0  0
 14 22  1  0  0  0  0
 19 30  1  0  0  0  0
 19 24  1  0  0  0  0
 20 27  1  0  0  0  0
 21 41  1  6  0  0  0
 21 20  1  0  0  0  0
 23  5  1  0  0  0  0
 24 42  1  1  0  0  0
 24 17  1  0  0  0  0
 25  4  1  6  0  0  0
 25 11  1  0  0  0  0
 26 22  1  6  0  0  0
 26 21  1  0  0  0  0
 26  6  1  0  0  0  0
 27 12  2  0  0  0  0
 28 37  1  0  0  0  0
 29 18  1  1  0  0  0
 29  8  1  0  0  0  0
 30  3  1  0  0  0  0
 31 16  1  6  0  0  0
 31 10  1  0  0  0  0
 31  2  1  0  0  0  0
 32 36  1  0  0  0  0
 34  6  1  0  0  0  0
 34 29  1  0  0  0  0
 35 25  1  0  0  0  0
 36 12  1  0  0  0  0
 37 59  1  0  0  0  0
 37 40  1  0  0  0  0
 38  9  1  0  0  0  0
 38 35  1  0  0  0  0
 39 37  1  0  0  0  0
 44 43  1  0  0  0  0
 46 45  1  0  0  0  0
 48 52  1  0  0  0  0
 49 51  1  0  0  0  0
 49 48  1  0  0  0  0
 50 52  1  0  0  0  0
 51 50  1  0  0  0  0
 52 47  1  0  0  0  0
 53 51  1  0  0  0  0
 53 54  1  0  0  0  0
 55 53  1  0  0  0  0
 56 55  1  0  0  0  0
 57 51  1  0  0  0  0
 57 58  1  0  0  0  0
 59 61  1  0  0  0  0
 60 61  1  0  0  0  0
 60 62  1  0  0  0  0
 61 62  1  0  0  0  0
 64 65  2  0  0  0  0
 65 63  1  0  0  0  0
 66 67  1  0  0  0  0
 66 65  1  0  0  0  0
 67 68  1  0  0  0  0
 69 67  1  0  0  0  0
 70 69  1  0  0  0  0
M  END
>  <MODEL>
1

>  <REMARK>
 VINA RESULT:      -6.5      0.000      0.000
  Name = 
  14 active torsions:
  status: ('A' for Active; 'I' for Inactive)
    1  A    between atoms: O_2  and  C_16
    2  A    between atoms: C_3  and  C_40
    3  A    between atoms: C_3  and  O_51
    4  A    between atoms: N_8  and  C_27
    5  A    between atoms: N_8  and  C_41
    6  A    between atoms: O_13  and  C_50
    7  A    between atoms: O_13  and  C_65
    8  A    between atoms: O_14  and  C_15
    9  A    between atoms: C_16  and  O_22
   10  A    between atoms: C_20  and  O_22
   11  A    between atoms: C_20  and  O_28
   12  A    between atoms: C_23  and  O_28
   13  A    between atoms: C_25  and  O_49
   14  A    between atoms: C_33  and  C_40
                            x       y       z     vdW  Elec       q    Type
                         _______ _______ _______ _____ _____    ______ ____

>  <TORSDO>
F 14

$$$$
=
 OpenBabel11062421463D

 70 80  0  0  1  0  0  0  0  0999 V2000
  192.2430  171.5140  143.0970 C   0  0  2  0  0  3  0  0  0  0  0  0
  195.1370  170.9900  140.8800 C   0  0  2  0  0  0  0  0  0  0  0  0
  194.9220  173.1140  143.5560 C   0  0  1  0  0  3  0  0  0  0  0  0
  191.2900  175.5280  145.3320 C   0  0  0  0  0  2  0  0  0  0  0  0
  193.5150  171.0860  143.4760 O   0  0  0  0  0  0  0  0  0  0  0  0
  191.2400  173.5790  141.8710 C   0  0  1  0  0  0  0  0  0  0  0  0
  193.9740  170.5190  140.0720 C   0  0  2  0  0  0  0  0  0  0  0  0
  192.9220  169.9520  141.0770 C   0  0  1  0  0  3  0  0  0  0  0  0
  194.8070  177.3410  144.5200 O   0  0  0  0  0  0  0  0  0  0  0  0
  197.5430  171.2790  141.2240 C   0  0  1  0  0  3  0  0  0  0  0  0
  192.7450  175.3160  143.2710 C   0  0  1  0  0  3  0  0  0  0  0  0
  188.3250  174.0740  139.7940 C   0  0  0  0  0  0  0  0  0  0  0  0
  195.3790  170.3580  142.1210 O   0  0  0  0  0  0  0  0  0  0  0  0
  190.0270  174.7520  145.0460 C   0  0  1  0  0  3  0  0  0  0  0  0
  191.9770  174.9430  141.9850 C   0  0  0  0  0  2  0  0  0  0  0  0
  195.6200  172.8830  142.1980 C   0  0  0  0  0  2  0  0  0  0  0  0
  193.9420  175.9620  142.8450 O   0  0  0  0  0  0  0  0  0  0  0  0
  190.5750  170.7310  141.5060 O   0  0  0  0  0  1  0  0  0  0  0  0
  195.0140  174.8990  144.8840 C   0  0  0  0  0  2  0  0  0  0  0  0
  187.6440  173.4580  142.0900 C   0  0  0  0  0  2  0  0  0  0  0  0
  188.8490  172.6100  142.5110 C   0  0  1  0  0  3  0  0  0  0  0  0
  190.4230  173.4480  144.3920 C   0  0  0  0  0  2  0  0  0  0  0  0
  194.0990  172.0400  144.3130 C   0  0  0  0  0  2  0  0  0  0  0  0
  194.9370  176.0890  143.8700 C   0  0  2  0  0  0  0  0  0  0  0  0
  191.8210  176.2390  144.0890 C   0  0  2  0  0  3  0  0  0  0  0  0
  190.0550  173.4990  142.9040 C   0  0  1  0  0  3  0  0  0  0  0  0
  187.5040  173.4920  140.6260 N   0  0  0  0  0  0  0  0  0  0  0  0
  197.5150  171.4950  139.6850 C   0  0  0  0  0  2  0  0  0  0  0  0
  191.9330  170.9920  141.6890 C   0  0  1  0  0  0  0  0  0  0  0  0
  195.7720  173.8070  144.4180 O   0  0  0  0  0  0  0  0  0  0  0  0
  196.1420  171.5010  141.8230 C   0  0  2  0  0  0  0  0  0  0  0  0
  190.6670  173.6020  140.4440 C   0  0  0  0  0  2  0  0  0  0  0  0
  192.2420  168.7150  140.5060 C   0  0  0  0  0  1  0  0  0  0  0  0
  192.3430  172.4610  141.9030 C   0  0  2  0  0  3  0  0  0  0  0  0
  192.4150  177.5950  144.4860 C   0  0  0  0  0  2  0  0  0  0  0  0
  189.6060  174.6900  140.2630 C   0  0  0  0  0  2  0  0  0  0  0  0
  196.5330  170.5410  138.9250 C   0  0  1  0  0  0  0  0  0  0  0  0
  193.6590  177.3880  145.3350 C   0  0  0  0  0  2  0  0  0  0  0  0
  195.4220  169.9170  139.8730 C   0  0  1  0  0  3  0  0  0  0  0  0
  195.9170  171.2910  137.9240 O   0  0  0  0  0  1  0  0  0  0  0  0
  188.4800  171.7210  143.5310 O   0  0  0  0  0  1  0  0  0  0  0  0
  196.2920  176.1680  143.1660 C   0  0  0  0  0  1  0  0  0  0  0  0
  193.6060  171.5000  139.1220 O   0  0  0  0  0  0  0  0  0  0  0  0
  193.0100  170.8840  138.1240 O   0  0  0  0  0  1  0  0  0  0  0  0
  188.9650  174.2210  137.4050 C   0  0  0  0  0  1  0  0  0  0  0  0
  187.9920  174.0930  138.4360 O   0  0  0  0  0  0  0  0  0  0  0  0
  189.3600  174.4680  146.3140 N   0  0  0  0  0  2  0  0  0  0  0  0
  189.0290  176.6260  147.3580 C   0  0  0  0  0  2  0  0  0  0  0  0
  188.5800  177.8690  146.6500 C   0  0  0  0  0  2  0  0  0  0  0  0
  187.8080  176.0100  145.4280 O   0  0  0  0  0  0  0  0  0  0  0  0
  187.5480  177.3740  145.6740 C   0  0  1  0  0  0  0  0  0  0  0  0
  188.3540  175.4920  146.6150 C   0  0  1  0  0  3  0  0  0  0  0  0
  186.1250  177.5120  146.2780 C   0  0  2  0  0  3  0  0  0  0  0  0
  185.2590  176.5550  145.7400 O   0  0  0  0  0  1  0  0  0  0  0  0
  185.5900  178.7980  146.1150 O   0  0  0  0  0  0  0  0  0  0  0  0
  184.2010  178.6190  146.1260 C   0  0  0  0  0  1  0  0  0  0  0  0
  187.6890  178.1350  144.3550 C   0  0  0  0  0  2  0  0  0  0  0  0
  188.7110  177.6030  143.5480 O   0  0  0  0  0  1  0  0  0  0  0  0
  197.3560  169.5800  138.2710 O   0  0  0  0  0  0  0  0  0  0  0  0
  196.1920  168.4660  136.6320 O   0  0  0  0  0  0  0  0  0  0  0  0
  197.1160  169.5010  136.8910 C   0  0  2  0  0  3  0  0  0  0  0  0
  197.5460  168.1910  136.3800 C   0  0  0  0  0  2  0  0  0  0  0  0
  197.9410  169.9490  141.5030 O   0  0  0  0  0  0  0  0  0  0  0  0
  196.9930  168.1700  142.6200 O   0  0  0  0  0  0  0  0  0  0  0  0
  197.6080  169.2670  142.6710 C   0  0  0  0  0  0  0  0  0  0  0  0
  197.9410  169.8270  143.9050 O   0  0  0  0  0  0  0  0  0  0  0  0
  197.1180  169.6950  145.0910 C   0  0  2  0  0  3  0  0  0  0  0  0
  197.0350  171.0400  145.8150 C   0  0  0  0  0  1  0  0  0  0  0  0
  197.5550  168.7020  146.0230 O   0  0  0  0  0  0  0  0  0  0  0  0
  196.5020  168.3380  146.8980 C   0  0  0  0  0  1  0  0  0  0  0  0
  1  5  1  6  0  0  0
  2 31  1  0  0  0  0
  2 13  1  1  0  0  0
  3 16  1  6  0  0  0
  3 23  1  0  0  0  0
  3 30  1  0  0  0  0
  5 23  1  0  0  0  0
  6 32  1  6  0  0  0
  6 34  1  0  0  0  0
  6 15  1  0  0  0  0
  6 26  1  0  0  0  0
  7 43  1  6  0  0  0
  7  2  1  0  0  0  0
  7  8  1  0  0  0  0
  8 33  1  6  0  0  0
  8 29  1  0  0  0  0
  9 38  1  0  0  0  0
 10 63  1  6  0  0  0
 10 31  1  0  0  0  0
 11 15  1  6  0  0  0
 11 25  1  0  0  0  0
 12 36  1  0  0  0  0
 12 27  2  0  0  0  0
 14  4  1  0  0  0  0
 14 47  1  1  0  0  0
 17 11  1  0  0  0  0
 17 24  1  0  0  0  0
 20 21  1  0  0  0  0
 21 26  1  0  0  0  0
 21 41  1  1  0  0  0
 22 14  1  0  0  0  0
 24 42  1  6  0  0  0
 24  9  1  0  0  0  0
 24 19  1  0  0  0  0
 25 35  1  1  0  0  0
 25  4  1  0  0  0  0
 26 22  1  1  0  0  0
 27 20  1  0  0  0  0
 28 10  1  0  0  0  0
 29 18  1  6  0  0  0
 29 34  1  0  0  0  0
 29  1  1  0  0  0  0
 30 19  1  0  0  0  0
 31 13  1  0  0  0  0
 31 16  1  1  0  0  0
 34  1  1  0  0  0  0
 35 38  1  0  0  0  0
 36 32  1  0  0  0  0
 37 28  1  0  0  0  0
 37 39  1  0  0  0  0
 39  7  1  0  0  0  0
 39  2  1  0  0  0  0
 40 37  1  0  0  0  0
 44 43  1  0  0  0  0
 45 46  1  0  0  0  0
 46 12  1  0  0  0  0
 47 52  1  0  0  0  0
 49 48  1  0  0  0  0
 50 51  1  0  0  0  0
 50 52  1  0  0  0  0
 51 53  1  0  0  0  0
 51 49  1  0  0  0  0
 52 48  1  0  0  0  0
 54 53  1  0  0  0  0
 55 56  1  0  0  0  0
 55 53  1  0  0  0  0
 57 51  1  0  0  0  0
 58 57  1  0  0  0  0
 59 37  1  0  0  0  0
 60 61  1  0  0  0  0
 61 59  1  0  0  0  0
 62 60  1  0  0  0  0
 62 61  1  0  0  0  0
 63 65  1  0  0  0  0
 64 65  2  0  0  0  0
 65 66  1  0  0  0  0
 66 67  1  0  0  0  0
 67 68  1  0  0  0  0
 67 69  1  0  0  0  0
 69 70  1  0  0  0  0
M  END
>  <MODEL>
2

>  <REMARK>
 VINA RESULT:      -5.5      2.758      9.948
  Name = 
  14 active torsions:
  status: ('A' for Active; 'I' for Inactive)
    1  A    between atoms: O_2  and  C_16
    2  A    between atoms: C_3  and  C_40
    3  A    between atoms: C_3  and  O_51
    4  A    between atoms: N_8  and  C_27
    5  A    between atoms: N_8  and  C_41
    6  A    between atoms: O_13  and  C_50
    7  A    between atoms: O_13  and  C_65
    8  A    between atoms: O_14  and  C_15
    9  A    between atoms: C_16  and  O_22
   10  A    between atoms: C_20  and  O_22
   11  A    between atoms: C_20  and  O_28
   12  A    between atoms: C_23  and  O_28
   13  A    between atoms: C_25  and  O_49
   14  A    between atoms: C_33  and  C_40
                            x       y       z     vdW  Elec       q    Type
                         _______ _______ _______ _____ _____    ______ ____

>  <TORSDO>
F 14

$$$$
=
 OpenBabel11062421463D

 70 80  0  0  1  0  0  0  0  0999 V2000
  194.2740  173.4550  140.9120 C   0  0  2  0  0  3  0  0  0  0  0  0
  194.5530  171.3950  137.8720 C   0  0  2  0  0  0  0  0  0  0  0  0
  191.8440  173.2090  138.9170 C   0  0  1  0  0  3  0  0  0  0  0  0
  190.2750  174.2570  143.2320 C   0  0  0  0  0  2  0  0  0  0  0  0
  194.1190  173.8890  139.5960 O   0  0  0  0  0  0  0  0  0  0  0  0
  193.1760  171.6600  142.4440 C   0  0  1  0  0  0  0  0  0  0  0  0
  195.6140  170.8550  138.7720 C   0  0  2  0  0  0  0  0  0  0  0  0
  196.1160  172.0460  139.6480 C   0  0  1  0  0  3  0  0  0  0  0  0
  187.8120  172.7000  140.4340 O   0  0  0  0  0  0  0  0  0  0  0  0
  193.4100  171.4960  135.7100 C   0  0  1  0  0  3  0  0  0  0  0  0
  190.6860  172.3150  141.6610 C   0  0  1  0  0  3  0  0  0  0  0  0
  194.3680  169.6940  145.2320 C   0  0  0  0  0  0  0  0  0  0  0  0
  194.6200  172.7620  137.5170 O   0  0  0  0  0  0  0  0  0  0  0  0
  191.4640  174.3150  144.1610 C   0  0  1  0  0  3  0  0  0  0  0  0
  191.6930  171.2710  142.1890 C   0  0  0  0  0  2  0  0  0  0  0  0
  192.2790  171.9740  138.1000 C   0  0  0  0  0  2  0  0  0  0  0  0
  189.8730  171.6340  140.7090 O   0  0  0  0  0  0  0  0  0  0  0  0
  196.0350  172.3090  142.1430 O   0  0  0  0  0  1  0  0  0  0  0  0
  189.7880  173.8530  139.4820 C   0  0  0  0  0  2  0  0  0  0  0  0
  194.3640  172.0960  145.8200 C   0  0  0  0  0  2  0  0  0  0  0  0
  194.5880  172.7140  144.4360 C   0  0  1  0  0  3  0  0  0  0  0  0
  192.7110  174.1180  143.3300 C   0  0  0  0  0  2  0  0  0  0  0  0
  192.8060  174.3250  139.4000 C   0  0  0  0  0  2  0  0  0  0  0  0
  189.0980  172.5030  139.8720 C   0  0  2  0  0  0  0  0  0  0  0  0
  189.8910  172.8210  142.8800 C   0  0  2  0  0  3  0  0  0  0  0  0
  193.2820  172.7210  143.6030 C   0  0  1  0  0  3  0  0  0  0  0  0
  194.8680  170.7140  145.8740 N   0  0  0  0  0  0  0  0  0  0  0  0
  193.7430  169.9780  135.7110 C   0  0  0  0  0  2  0  0  0  0  0  0
  195.3080  172.3230  140.9530 C   0  0  1  0  0  0  0  0  0  0  0  0
  190.6690  173.7420  138.3870 O   0  0  0  0  0  0  0  0  0  0  0  0
  193.4630  172.0580  137.1420 C   0  0  2  0  0  0  0  0  0  0  0  0
  193.8170  170.3410  142.9060 C   0  0  0  0  0  2  0  0  0  0  0  0
  197.6220  171.9600  139.8610 C   0  0  0  0  0  1  0  0  0  0  0  0
  193.8030  172.0090  141.0460 C   0  0  2  0  0  3  0  0  0  0  0  0
  188.3660  172.7080  142.7750 C   0  0  0  0  0  2  0  0  0  0  0  0
  193.2540  169.8610  144.2460 C   0  0  0  0  0  2  0  0  0  0  0  0
  195.1570  169.6350  136.2880 C   0  0  1  0  0  0  0  0  0  0  0  0
  187.8660  173.5110  141.5840 C   0  0  0  0  0  2  0  0  0  0  0  0
  195.7500  170.7950  137.1980 C   0  0  1  0  0  3  0  0  0  0  0  0
  195.0250  168.4740  137.0480 O   0  0  0  0  0  1  0  0  0  0  0  0
  195.1530  173.9910  144.5640 O   0  0  0  0  0  1  0  0  0  0  0  0
  188.8290  171.7440  138.5720 C   0  0  0  0  0  1  0  0  0  0  0  0
  195.1800  169.6510  139.3750 O   0  0  0  0  0  0  0  0  0  0  0  0
  196.2010  169.1450  140.0330 O   0  0  0  0  0  1  0  0  0  0  0  0
  195.8280  168.1660  146.5260 C   0  0  0  0  0  1  0  0  0  0  0  0
  194.9120  168.4270  145.4690 O   0  0  0  0  0  0  0  0  0  0  0  0
  191.5050  175.6380  144.7790 N   0  0  0  0  0  2  0  0  0  0  0  0
  189.9440  174.9690  146.5030 C   0  0  0  0  0  2  0  0  0  0  0  0
  189.5500  175.8050  147.6840 C   0  0  0  0  0  2  0  0  0  0  0  0
  190.2510  177.2510  145.9630 O   0  0  0  0  0  0  0  0  0  0  0  0
  189.4490  177.1960  147.1210 C   0  0  1  0  0  0  0  0  0  0  0  0
  190.2150  175.9660  145.3960 C   0  0  1  0  0  3  0  0  0  0  0  0
  187.9820  177.5140  146.7280 C   0  0  2  0  0  3  0  0  0  0  0  0
  187.3340  178.2230  147.7440 O   0  0  0  0  0  1  0  0  0  0  0  0
  187.2490  176.3650  146.3940 O   0  0  0  0  0  0  0  0  0  0  0  0
  185.9120  176.6990  146.6440 C   0  0  0  0  0  1  0  0  0  0  0  0
  190.0010  178.1970  148.1370 C   0  0  0  0  0  2  0  0  0  0  0  0
  191.1110  177.6810  148.8320 O   0  0  0  0  0  1  0  0  0  0  0  0
  195.9640  169.3010  135.1630 O   0  0  0  0  0  0  0  0  0  0  0  0
  197.6330  170.6920  135.9110 O   0  0  0  0  0  0  0  0  0  0  0  0
  197.3380  169.4000  135.4250 C   0  0  2  0  0  3  0  0  0  0  0  0
  197.9410  170.4300  134.5660 C   0  0  0  0  0  2  0  0  0  0  0  0
  194.3680  172.1840  134.9260 O   0  0  0  0  0  0  0  0  0  0  0  0
  195.3610  174.2270  134.5340 O   0  0  0  0  0  0  0  0  0  0  0  0
  194.3070  173.5470  134.6450 C   0  0  0  0  0  0  0  0  0  0  0  0
  193.0600  174.1610  134.5130 O   0  0  0  0  0  0  0  0  0  0  0  0
  192.3980  174.8660  135.5930 C   0  0  2  0  0  3  0  0  0  0  0  0
  191.0530  175.4090  135.1070 C   0  0  0  0  0  1  0  0  0  0  0  0
  193.1470  175.9440  136.1610 O   0  0  0  0  0  0  0  0  0  0  0  0
  193.3790  176.9540  135.1960 C   0  0  0  0  0  1  0  0  0  0  0  0
  1  5  1  6  0  0  0
  1 29  1  0  0  0  0
  1 34  1  0  0  0  0
  2 13  1  1  0  0  0
  2  7  1  0  0  0  0
  3 16  1  6  0  0  0
  3 23  1  0  0  0  0
  4 14  1  0  0  0  0
  6 15  1  6  0  0  0
  6 32  1  0  0  0  0
  6 26  1  0  0  0  0
  7 43  1  1  0  0  0
  7  8  1  0  0  0  0
  8 33  1  1  0  0  0
  8 29  1  0  0  0  0
  9 38  1  0  0  0  0
 10 63  1  6  0  0  0
 10 28  1  0  0  0  0
 10 31  1  0  0  0  0
 11 15  1  1  0  0  0
 11 25  1  0  0  0  0
 12 46  1  0  0  0  0
 12 27  2  0  0  0  0
 14 47  1  6  0  0  0
 17 11  1  0  0  0  0
 19 24  1  0  0  0  0
 20 27  1  0  0  0  0
 21 41  1  1  0  0  0
 21 20  1  0  0  0  0
 22 14  1  0  0  0  0
 23  5  1  0  0  0  0
 24 42  1  6  0  0  0
 24  9  1  0  0  0  0
 24 17  1  0  0  0  0
 25 35  1  6  0  0  0
 25  4  1  0  0  0  0
 26 22  1  6  0  0  0
 26 21  1  0  0  0  0
 28 37  1  0  0  0  0
 29 34  1  0  0  0  0
 29 18  1  1  0  0  0
 30  3  1  0  0  0  0
 30 19  1  0  0  0  0
 31 13  1  0  0  0  0
 31  2  1  0  0  0  0
 31 16  1  1  0  0  0
 32 36  1  0  0  0  0
 34  6  1  0  0  0  0
 36 12  1  0  0  0  0
 37 40  1  0  0  0  0
 37 39  1  0  0  0  0
 38 35  1  0  0  0  0
 39  2  1  0  0  0  0
 39  7  1  0  0  0  0
 43 44  1  0  0  0  0
 46 45  1  0  0  0  0
 47 52  1  0  0  0  0
 48 49  1  0  0  0  0
 50 51  1  0  0  0  0
 51 49  1  0  0  0  0
 51 57  1  0  0  0  0
 52 50  1  0  0  0  0
 52 48  1  0  0  0  0
 53 51  1  0  0  0  0
 53 54  1  0  0  0  0
 55 56  1  0  0  0  0
 55 53  1  0  0  0  0
 57 58  1  0  0  0  0
 59 61  1  0  0  0  0
 59 37  1  0  0  0  0
 61 60  1  0  0  0  0
 62 61  1  0  0  0  0
 62 60  1  0  0  0  0
 64 65  2  0  0  0  0
 65 63  1  0  0  0  0
 66 65  1  0  0  0  0
 66 67  1  0  0  0  0
 67 69  1  0  0  0  0
 68 67  1  0  0  0  0
 70 69  1  0  0  0  0
M  END
>  <MODEL>
3

>  <REMARK>
 VINA RESULT:      -4.5      2.648      9.308
  Name = 
  14 active torsions:
  status: ('A' for Active; 'I' for Inactive)
    1  A    between atoms: O_2  and  C_16
    2  A    between atoms: C_3  and  C_40
    3  A    between atoms: C_3  and  O_51
    4  A    between atoms: N_8  and  C_27
    5  A    between atoms: N_8  and  C_41
    6  A    between atoms: O_13  and  C_50
    7  A    between atoms: O_13  and  C_65
    8  A    between atoms: O_14  and  C_15
    9  A    between atoms: C_16  and  O_22
   10  A    between atoms: C_20  and  O_22
   11  A    between atoms: C_20  and  O_28
   12  A    between atoms: C_23  and  O_28
   13  A    between atoms: C_25  and  O_49
   14  A    between atoms: C_33  and  C_40
                            x       y       z     vdW  Elec       q    Type
                         _______ _______ _______ _____ _____    ______ ____

>  <TORSDO>
F 14

$$$$
=
 OpenBabel11062421463D

 70 80  0  0  1  0  0  0  0  0999 V2000
  194.4860  175.1640  142.0180 C   0  0  2  0  0  3  0  0  0  0  0  0
  195.1500  173.8990  138.6240 C   0  0  2  0  0  0  0  0  0  0  0  0
  192.1230  174.1220  140.2080 C   0  0  1  0  0  3  0  0  0  0  0  0
  190.9500  173.7340  144.7520 C   0  0  0  0  0  2  0  0  0  0  0  0
  193.9550  175.6580  140.8270 O   0  0  0  0  0  0  0  0  0  0  0  0
  194.5270  172.8720  143.2530 C   0  0  1  0  0  0  0  0  0  0  0  0
  196.4660  173.7790  139.3170 C   0  0  2  0  0  0  0  0  0  0  0  0
  196.5340  174.9330  140.3650 C   0  0  1  0  0  3  0  0  0  0  0  0
  189.0000  171.6350  141.9040 O   0  0  0  0  0  0  0  0  0  0  0  0
  193.7540  173.7690  136.6180 C   0  0  1  0  0  3  0  0  0  0  0  0
  191.9100  172.4280  142.8070 C   0  0  1  0  0  3  0  0  0  0  0  0
  196.8710  171.2950  145.5050 C   0  0  0  0  0  0  0  0  0  0  0  0
  194.5630  175.1820  138.5370 O   0  0  0  0  0  0  0  0  0  0  0  0
  192.1250  174.1950  145.5800 C   0  0  1  0  0  3  0  0  0  0  0  0
  193.3380  171.8930  143.0430 C   0  0  0  0  0  2  0  0  0  0  0  0
  192.9160  173.3450  139.1350 C   0  0  0  0  0  2  0  0  0  0  0  0
  191.3340  171.5920  141.8070 O   0  0  0  0  0  0  0  0  0  0  0  0
  196.7370  174.7830  142.8630 O   0  0  0  0  0  1  0  0  0  0  0  0
  190.1070  173.6780  141.0440 C   0  0  0  0  0  2  0  0  0  0  0  0
  195.9200  173.3260  146.5470 C   0  0  0  0  0  2  0  0  0  0  0  0
  195.6350  174.1640  145.2960 C   0  0  1  0  0  3  0  0  0  0  0  0
  193.1880  174.7020  144.6330 C   0  0  0  0  0  2  0  0  0  0  0  0
  192.5700  175.4740  140.8220 C   0  0  0  0  0  2  0  0  0  0  0  0
  190.1390  172.1220  141.2160 C   0  0  2  0  0  0  0  0  0  0  0  0
  191.1750  172.3440  144.1580 C   0  0  2  0  0  3  0  0  0  0  0  0
  194.3420  173.6930  144.5840 C   0  0  1  0  0  3  0  0  0  0  0  0
  196.9740  172.3310  146.2920 N   0  0  0  0  0  0  0  0  0  0  0  0
  194.7060  172.5830  136.2980 C   0  0  0  0  0  2  0  0  0  0  0  0
  195.9000  174.6300  141.7580 C   0  0  1  0  0  0  0  0  0  0  0  0
  190.7660  174.1320  139.8840 O   0  0  0  0  0  0  0  0  0  0  0  0
  193.7810  174.0890  138.1230 C   0  0  2  0  0  0  0  0  0  0  0  0
  195.7390  171.9370  143.3980 C   0  0  0  0  0  2  0  0  0  0  0  0
  197.9410  175.5120  140.4410 C   0  0  0  0  0  1  0  0  0  0  0  0
  194.7140  173.6580  141.9050 C   0  0  2  0  0  3  0  0  0  0  0  0
  189.8540  171.5680  144.1520 C   0  0  0  0  0  2  0  0  0  0  0  0
  195.6560  171.0730  144.6590 C   0  0  0  0  0  2  0  0  0  0  0  0
  196.2010  172.8430  136.6860 C   0  0  1  0  0  0  0  0  0  0  0  0
  188.8770  172.2140  143.1820 C   0  0  0  0  0  2  0  0  0  0  0  0
  196.3670  174.0060  137.7560 C   0  0  1  0  0  3  0  0  0  0  0  0
  196.7040  171.6550  137.2140 O   0  0  0  0  0  1  0  0  0  0  0  0
  195.6040  175.5260  145.6250 O   0  0  0  0  0  1  0  0  0  0  0  0
  190.0260  171.5130  139.8190 C   0  0  0  0  0  1  0  0  0  0  0  0
  196.6960  172.4390  139.7060 O   0  0  0  0  0  0  0  0  0  0  0  0
  197.8730  172.3910  140.2910 O   0  0  0  0  0  1  0  0  0  0  0  0
  197.7990  169.0590  144.9750 C   0  0  0  0  0  1  0  0  0  0  0  0
  197.9390  170.3930  145.4490 O   0  0  0  0  0  0  0  0  0  0  0  0
  191.6860  175.2920  146.4380 N   0  0  0  0  0  2  0  0  0  0  0  0
  189.3500  174.8870  146.9230 C   0  0  0  0  0  2  0  0  0  0  0  0
  188.4020  175.8910  147.5070 C   0  0  0  0  0  2  0  0  0  0  0  0
  190.1230  177.0620  146.4070 O   0  0  0  0  0  0  0  0  0  0  0  0
  188.7850  177.1810  146.8340 C   0  0  1  0  0  0  0  0  0  0  0  0
  190.3200  175.7050  146.0970 C   0  0  1  0  0  3  0  0  0  0  0  0
  187.8850  177.4310  145.5940 C   0  0  2  0  0  3  0  0  0  0  0  0
  186.9090  178.3930  145.8710 O   0  0  0  0  0  1  0  0  0  0  0  0
  187.2870  176.2560  145.1140 O   0  0  0  0  0  0  0  0  0  0  0  0
  187.5860  176.2280  143.7460 C   0  0  0  0  0  1  0  0  0  0  0  0
  188.7020  178.3260  147.8440 C   0  0  0  0  0  2  0  0  0  0  0  0
  189.9610  178.6330  148.3940 O   0  0  0  0  0  1  0  0  0  0  0  0
  196.8860  173.0710  135.4580 O   0  0  0  0  0  0  0  0  0  0  0  0
  197.4160  175.2740  135.8410 O   0  0  0  0  0  0  0  0  0  0  0  0
  197.9400  173.9890  135.5810 C   0  0  2  0  0  3  0  0  0  0  0  0
  197.8410  175.0110  134.5290 C   0  0  0  0  0  2  0  0  0  0  0  0
  194.1840  174.9190  135.9110 O   0  0  0  0  0  0  0  0  0  0  0  0
  193.6760  176.9310  134.9090 O   0  0  0  0  0  0  0  0  0  0  0  0
  193.3310  175.7540  135.1930 C   0  0  0  0  0  0  0  0  0  0  0  0
  192.0740  175.2820  134.8140 O   0  0  0  0  0  0  0  0  0  0  0  0
  190.8410  175.6810  135.4640 C   0  0  2  0  0  3  0  0  0  0  0  0
  190.2150  174.4760  136.1690 C   0  0  0  0  0  1  0  0  0  0  0  0
  189.8610  176.2620  134.5980 O   0  0  0  0  0  0  0  0  0  0  0  0
  188.5550  176.0250  135.0910 C   0  0  0  0  0  1  0  0  0  0  0  0
  1  5  1  6  0  0  0
  2 13  1  1  0  0  0
  2  7  1  0  0  0  0
  3 16  1  6  0  0  0
  3 23  1  0  0  0  0
  4 14  1  0  0  0  0
  6 15  1  6  0  0  0
  6 32  1  0  0  0  0
  6 26  1  0  0  0  0
  7 43  1  1  0  0  0
  7  8  1  0  0  0  0
  8 33  1  1  0  0  0
  8 29  1  0  0  0  0
  9 38  1  0  0  0  0
 10 63  1  6  0  0  0
 10 31  1  0  0  0  0
 11 15  1  1  0  0  0
 11 25  1  0  0  0  0
 12 27  2  0  0  0  0
 14 47  1  1  0  0  0
 17 11  1  0  0  0  0
 19 24  1  0  0  0  0
 21 41  1  1  0  0  0
 21 20  1  0  0  0  0
 22 14  1  0  0  0  0
 23  5  1  0  0  0  0
 24 42  1  6  0  0  0
 24 17  1  0  0  0  0
 24  9  1  0  0  0  0
 25 35  1  6  0  0  0
 25  4  1  0  0  0  0
 26 22  1  6  0  0  0
 26 21  1  0  0  0  0
 27 20  1  0  0  0  0
 28 10  1  0  0  0  0
 28 37  1  0  0  0  0
 29 34  1  0  0  0  0
 29  1  1  0  0  0  0
 29 18  1  1  0  0  0
 30  3  1  0  0  0  0
 30 19  1  0  0  0  0
 31 13  1  0  0  0  0
 31  2  1  0  0  0  0
 31 16  1  1  0  0  0
 32 36  1  0  0  0  0
 34  1  1  0  0  0  0
 34  6  1  0  0  0  0
 36 12  1  0  0  0  0
 37 40  1  0  0  0  0
 37 39  1  0  0  0  0
 38 35  1  0  0  0  0
 39  2  1  0  0  0  0
 39  7  1  0  0  0  0
 43 44  1  0  0  0  0
 45 46  1  0  0  0  0
 46 12  1  0  0  0  0
 48 49  1  0  0  0  0
 50 51  1  0  0  0  0
 51 49  1  0  0  0  0
 51 57  1  0  0  0  0
 52 50  1  0  0  0  0
 52 47  1  0  0  0  0
 52 48  1  0  0  0  0
 53 54  1  0  0  0  0
 53 51  1  0  0  0  0
 55 53  1  0  0  0  0
 56 55  1  0  0  0  0
 57 58  1  0  0  0  0
 59 61  1  0  0  0  0
 59 37  1  0  0  0  0
 61 60  1  0  0  0  0
 62 61  1  0  0  0  0
 62 60  1  0  0  0  0
 64 65  2  0  0  0  0
 65 63  1  0  0  0  0
 66 65  1  0  0  0  0
 66 67  1  0  0  0  0
 67 68  1  0  0  0  0
 69 70  1  0  0  0  0
 69 67  1  0  0  0  0
M  END
>  <MODEL>
4

>  <REMARK>
 VINA RESULT:      -4.5      2.828      8.757
  Name = 
  14 active torsions:
  status: ('A' for Active; 'I' for Inactive)
    1  A    between atoms: O_2  and  C_16
    2  A    between atoms: C_3  and  C_40
    3  A    between atoms: C_3  and  O_51
    4  A    between atoms: N_8  and  C_27
    5  A    between atoms: N_8  and  C_41
    6  A    between atoms: O_13  and  C_50
    7  A    between atoms: O_13  and  C_65
    8  A    between atoms: O_14  and  C_15
    9  A    between atoms: C_16  and  O_22
   10  A    between atoms: C_20  and  O_22
   11  A    between atoms: C_20  and  O_28
   12  A    between atoms: C_23  and  O_28
   13  A    between atoms: C_25  and  O_49
   14  A    between atoms: C_33  and  C_40
                            x       y       z     vdW  Elec       q    Type
                         _______ _______ _______ _____ _____    ______ ____

>  <TORSDO>
F 14

$$$$
=
 OpenBabel11062421463D

 70 80  0  0  1  0  0  0  0  0999 V2000
  192.6490  171.9560  141.4950 C   0  0  2  0  0  3  0  0  0  0  0  0
  192.2640  172.7270  137.9140 C   0  0  2  0  0  0  0  0  0  0  0  0
  195.1220  172.9150  139.7890 C   0  0  1  0  0  3  0  0  0  0  0  0
  195.8060  173.9610  144.3290 C   0  0  0  0  0  2  0  0  0  0  0  0
  193.3250  171.3500  140.4360 O   0  0  0  0  0  0  0  0  0  0  0  0
  192.3570  174.3790  142.4020 C   0  0  1  0  0  0  0  0  0  0  0  0
  190.8800  172.8450  138.4600 C   0  0  2  0  0  0  0  0  0  0  0  0
  190.7700  171.8330  139.6430 C   0  0  1  0  0  3  0  0  0  0  0  0
  197.9160  175.8050  141.4200 O   0  0  0  0  0  0  0  0  0  0  0  0
  193.8470  172.6930  136.0480 C   0  0  1  0  0  3  0  0  0  0  0  0
  194.9770  174.9390  142.1460 C   0  0  1  0  0  3  0  0  0  0  0  0
  189.7140  176.0700  144.1930 C   0  0  0  0  0  0  0  0  0  0  0  0
  192.9270  171.4860  138.0560 O   0  0  0  0  0  0  0  0  0  0  0  0
  194.5800  173.5320  145.0990 C   0  0  1  0  0  3  0  0  0  0  0  0
  193.5050  175.4020  142.1730 C   0  0  0  0  0  2  0  0  0  0  0  0
  194.4010  173.4920  138.5520 C   0  0  0  0  0  2  0  0  0  0  0  0
  195.6050  175.6760  141.1010 O   0  0  0  0  0  0  0  0  0  0  0  0
  190.3060  172.2890  142.0670 O   0  0  0  0  0  1  0  0  0  0  0  0
  197.0160  173.5980  140.7420 C   0  0  0  0  0  2  0  0  0  0  0  0
  190.6650  174.2580  145.5830 C   0  0  0  0  0  2  0  0  0  0  0  0
  191.1200  173.2880  144.4870 C   0  0  1  0  0  3  0  0  0  0  0  0
  193.6480  172.8360  144.1330 C   0  0  0  0  0  2  0  0  0  0  0  0
  194.6910  171.6260  140.5350 C   0  0  0  0  0  2  0  0  0  0  0  0
  196.8810  175.1570  140.7010 C   0  0  2  0  0  0  0  0  0  0  0  0
  195.5660  175.2450  143.5370 C   0  0  2  0  0  3  0  0  0  0  0  0
  192.4510  173.7500  143.8420 C   0  0  1  0  0  3  0  0  0  0  0  0
  189.5890  175.1380  145.0990 N   0  0  0  0  0  0  0  0  0  0  0  0
  192.8680  173.7600  135.4850 C   0  0  0  0  0  2  0  0  0  0  0  0
  191.2420  172.3550  141.0350 C   0  0  1  0  0  0  0  0  0  0  0  0
  196.5040  172.9560  139.5980 O   0  0  0  0  0  0  0  0  0  0  0  0
  193.6850  172.5670  137.5740 C   0  0  2  0  0  0  0  0  0  0  0  0
  191.0870  175.2400  142.3060 C   0  0  0  0  0  2  0  0  0  0  0  0
  189.3960  171.1750  139.6640 C   0  0  0  0  0  1  0  0  0  0  0  0
  192.3510  173.4160  141.1600 C   0  0  2  0  0  3  0  0  0  0  0  0
  196.8360  176.1020  143.5490 C   0  0  0  0  0  2  0  0  0  0  0  0
  190.9940  176.2620  143.4420 C   0  0  0  0  0  2  0  0  0  0  0  0
  191.3590  173.4520  135.7630 C   0  0  1  0  0  0  0  0  0  0  0  0
  197.9400  175.4050  142.7710 C   0  0  0  0  0  2  0  0  0  0  0  0
  191.1490  172.4270  136.9590 C   0  0  1  0  0  3  0  0  0  0  0  0
  190.7400  174.6610  136.0780 O   0  0  0  0  0  1  0  0  0  0  0  0
  191.1930  171.9840  144.9980 O   0  0  0  0  0  1  0  0  0  0  0  0
  197.1010  175.5880  139.2510 C   0  0  0  0  0  1  0  0  0  0  0  0
  190.5380  174.2060  138.6420 O   0  0  0  0  0  0  0  0  0  0  0  0
  189.3000  174.2490  139.0840 O   0  0  0  0  0  1  0  0  0  0  0  0
  187.2850  176.3720  143.8040 C   0  0  0  0  0  1  0  0  0  0  0  0
  188.6090  176.8820  143.9170 O   0  0  0  0  0  0  0  0  0  0  0  0
  194.9900  172.5860  146.1340 N   0  0  0  0  0  2  0  0  0  0  0  0
  196.8540  171.0440  146.1830 C   0  0  0  0  0  2  0  0  0  0  0  0
  196.7670  169.5940  146.5570 C   0  0  0  0  0  2  0  0  0  0  0  0
  194.6550  170.2770  145.7730 O   0  0  0  0  0  0  0  0  0  0  0  0
  195.4730  169.1410  145.9390 C   0  0  1  0  0  0  0  0  0  0  0  0
  195.5220  171.3570  145.5350 C   0  0  1  0  0  3  0  0  0  0  0  0
  195.7330  168.5030  144.5480 C   0  0  2  0  0  3  0  0  0  0  0  0
  197.0850  168.1840  144.3900 O   0  0  0  0  0  1  0  0  0  0  0  0
  195.2980  169.3160  143.4910 O   0  0  0  0  0  0  0  0  0  0  0  0
  196.4000  169.4150  142.6310 C   0  0  0  0  0  1  0  0  0  0  0  0
  194.7670  168.1740  146.8910 C   0  0  0  0  0  2  0  0  0  0  0  0
  194.4730  168.7770  148.1290 O   0  0  0  0  0  1  0  0  0  0  0  0
  190.8150  173.0230  134.5190 O   0  0  0  0  0  0  0  0  0  0  0  0
  189.3110  171.8040  135.7570 O   0  0  0  0  0  0  0  0  0  0  0  0
  189.4750  172.6200  134.6160 C   0  0  2  0  0  3  0  0  0  0  0  0
  189.3810  171.1560  134.5130 C   0  0  0  0  0  2  0  0  0  0  0  0
  193.5550  171.4360  135.4650 O   0  0  0  0  0  0  0  0  0  0  0  0
  194.1610  169.2300  135.7440 O   0  0  0  0  0  0  0  0  0  0  0  0
  194.4720  170.3910  135.3690 C   0  0  0  0  0  0  0  0  0  0  0  0
  195.7520  170.6510  134.8780 O   0  0  0  0  0  0  0  0  0  0  0  0
  196.9460  170.6120  135.6990 C   0  0  2  0  0  3  0  0  0  0  0  0
  197.0360  169.2640  136.4170 C   0  0  0  0  0  1  0  0  0  0  0  0
  197.0450  171.6550  136.6720 O   0  0  0  0  0  0  0  0  0  0  0  0
  197.3360  172.8940  136.0500 C   0  0  0  0  0  1  0  0  0  0  0  0
  1  5  1  6  0  0  0
  2 13  1  1  0  0  0
  2  7  1  0  0  0  0
  3 16  1  6  0  0  0
  3 23  1  0  0  0  0
  4 14  1  0  0  0  0
  5 23  1  0  0  0  0
  6 15  1  6  0  0  0
  6 26  1  0  0  0  0
  7 43  1  1  0  0  0
  7  8  1  0  0  0  0
  8 33  1  1  0  0  0
  8 29  1  0  0  0  0
  9 38  1  0  0  0  0
 10 63  1  6  0  0  0
 10 31  1  0  0  0  0
 11 15  1  1  0  0  0
 11 25  1  0  0  0  0
 12 27  2  0  0  0  0
 14 47  1  1  0  0  0
 17 11  1  0  0  0  0
 21 41  1  1  0  0  0
 21 20  1  0  0  0  0
 22 14  1  0  0  0  0
 24 42  1  6  0  0  0
 24 19  1  0  0  0  0
 24 17  1  0  0  0  0
 24  9  1  0  0  0  0
 25 35  1  6  0  0  0
 25  4  1  0  0  0  0
 26 22  1  6  0  0  0
 26 21  1  0  0  0  0
 27 20  1  0  0  0  0
 28 37  1  0  0  0  0
 28 10  1  0  0  0  0
 29 34  1  0  0  0  0
 29  1  1  0  0  0  0
 29 18  1  1  0  0  0
 30  3  1  0  0  0  0
 30 19  1  0  0  0  0
 31  2  1  0  0  0  0
 31 13  1  0  0  0  0
 31 16  1  1  0  0  0
 32  6  1  0  0  0  0
 32 36  1  0  0  0  0
 34  1  1  0  0  0  0
 34  6  1  0  0  0  0
 36 12  1  0  0  0  0
 37 40  1  0  0  0  0
 37 39  1  0  0  0  0
 38 35  1  0  0  0  0
 39  2  1  0  0  0  0
 39  7  1  0  0  0  0
 43 44  1  0  0  0  0
 45 46  1  0  0  0  0
 46 12  1  0  0  0  0
 48 49  1  0  0  0  0
 50 51  1  0  0  0  0
 51 49  1  0  0  0  0
 51 57  1  0  0  0  0
 52 50  1  0  0  0  0
 52 47  1  0  0  0  0
 52 48  1  0  0  0  0
 53 51  1  0  0  0  0
 54 53  1  0  0  0  0
 55 53  1  0  0  0  0
 56 55  1  0  0  0  0
 57 58  1  0  0  0  0
 59 61  1  0  0  0  0
 59 37  1  0  0  0  0
 61 60  1  0  0  0  0
 62 61  1  0  0  0  0
 62 60  1  0  0  0  0
 65 63  1  0  0  0  0
 65 64  2  0  0  0  0
 66 65  1  0  0  0  0
 66 67  1  0  0  0  0
 67 68  1  0  0  0  0
 67 69  1  0  0  0  0
 70 69  1  0  0  0  0
M  END
>  <MODEL>
5

>  <REMARK>
 VINA RESULT:      -4.3      2.436      8.382
  Name = 
  14 active torsions:
  status: ('A' for Active; 'I' for Inactive)
    1  A    between atoms: O_2  and  C_16
    2  A    between atoms: C_3  and  C_40
    3  A    between atoms: C_3  and  O_51
    4  A    between atoms: N_8  and  C_27
    5  A    between atoms: N_8  and  C_41
    6  A    between atoms: O_13  and  C_50
    7  A    between atoms: O_13  and  C_65
    8  A    between atoms: O_14  and  C_15
    9  A    between atoms: C_16  and  O_22
   10  A    between atoms: C_20  and  O_22
   11  A    between atoms: C_20  and  O_28
   12  A    between atoms: C_23  and  O_28
   13  A    between atoms: C_25  and  O_49
   14  A    between atoms: C_33  and  C_40
                            x       y       z     vdW  Elec       q    Type
                         _______ _______ _______ _____ _____    ______ ____

>  <TORSDO>
F 14

$$$$
=
 OpenBabel11062421463D

 70 80  0  0  1  0  0  0  0  0999 V2000
  191.0440  172.0280  142.0560 C   0  0  2  0  0  3  0  0  0  0  0  0
  193.2150  171.5960  139.1120 C   0  0  2  0  0  0  0  0  0  0  0  0
  194.1190  172.7080  142.2210 C   0  0  1  0  0  3  0  0  0  0  0  0
  191.7560  175.1870  145.4520 C   0  0  0  0  0  2  0  0  0  0  0  0
  192.1710  171.2120  141.9660 O   0  0  0  0  0  0  0  0  0  0  0  0
  190.5210  174.5570  141.7290 C   0  0  1  0  0  0  0  0  0  0  0  0
  191.8430  171.7060  138.5360 C   0  0  2  0  0  0  0  0  0  0  0  0
  190.8580  171.1050  139.5880 C   0  0  1  0  0  3  0  0  0  0  0  0
  195.4620  176.2820  144.2790 O   0  0  0  0  0  0  0  0  0  0  0  0
  195.6160  171.1800  138.8900 C   0  0  1  0  0  3  0  0  0  0  0  0
  192.7000  175.3280  143.1080 C   0  0  1  0  0  3  0  0  0  0  0  0
  187.5820  176.3810  140.6850 C   0  0  0  0  0  0  0  0  0  0  0  0
  193.4630  170.5520  140.0330 O   0  0  0  0  0  0  0  0  0  0  0  0
  190.2870  174.8700  145.3040 C   0  0  1  0  0  3  0  0  0  0  0  0
  191.6460  175.5920  142.0120 C   0  0  0  0  0  2  0  0  0  0  0  0
  194.4700  172.7790  140.7190 C   0  0  0  0  0  2  0  0  0  0  0  0
  193.9440  175.7770  142.5770 O   0  0  0  0  0  0  0  0  0  0  0  0
  188.9690  172.2300  140.7990 O   0  0  0  0  0  1  0  0  0  0  0  0
  194.9770  173.8810  143.9100 C   0  0  0  0  0  2  0  0  0  0  0  0
  187.1520  175.2220  142.8270 C   0  0  0  0  0  2  0  0  0  0  0  0
  188.0960  174.0240  142.6800 C   0  0  1  0  0  3  0  0  0  0  0  0
  190.1490  173.7990  144.2450 C   0  0  0  0  0  2  0  0  0  0  0  0
  193.1520  171.6710  142.8490 C   0  0  0  0  0  2  0  0  0  0  0  0
  195.0920  175.3210  143.3060 C   0  0  2  0  0  0  0  0  0  0  0  0
  192.2550  176.1210  144.3520 C   0  0  2  0  0  3  0  0  0  0  0  0
  189.5640  174.4230  142.9720 C   0  0  1  0  0  3  0  0  0  0  0  0
  186.7790  175.7690  141.5120 N   0  0  0  0  0  0  0  0  0  0  0  0
  195.3900  171.8900  137.5260 C   0  0  0  0  0  2  0  0  0  0  0  0
  190.3520  172.0870  140.6890 C   0  0  1  0  0  0  0  0  0  0  0  0
  195.2750  172.8570  142.9880 O   0  0  0  0  0  0  0  0  0  0  0  0
  194.4740  171.5150  139.8660 C   0  0  2  0  0  0  0  0  0  0  0  0
  189.7460  175.1830  140.5580 C   0  0  0  0  0  2  0  0  0  0  0  0
  189.7470  170.3220  138.9020 C   0  0  0  0  0  1  0  0  0  0  0  0
  191.2200  173.2630  141.1760 C   0  0  2  0  0  3  0  0  0  0  0  0
  193.2920  177.0900  144.9310 C   0  0  0  0  0  2  0  0  0  0  0  0
  189.0500  176.4870  140.9560 C   0  0  0  0  0  2  0  0  0  0  0  0
  194.0500  171.5000  136.8180 C   0  0  1  0  0  0  0  0  0  0  0  0
  194.5410  176.3270  145.3440 C   0  0  0  0  0  2  0  0  0  0  0  0
  192.9820  170.8790  137.8170 C   0  0  1  0  0  3  0  0  0  0  0  0
  193.5290  172.6610  136.2480 O   0  0  0  0  0  1  0  0  0  0  0  0
  187.6560  172.9620  143.4840 O   0  0  0  0  0  1  0  0  0  0  0  0
  196.2640  175.3040  142.3250 C   0  0  0  0  0  1  0  0  0  0  0  0
  191.6320  173.0030  138.0110 O   0  0  0  0  0  0  0  0  0  0  0  0
  190.4690  173.0000  137.3970 O   0  0  0  0  0  1  0  0  0  0  0  0
  186.7460  176.1400  138.3640 C   0  0  0  0  0  1  0  0  0  0  0  0
  187.0420  176.9240  139.5140 O   0  0  0  0  0  0  0  0  0  0  0  0
  189.7940  174.3500  146.5770 N   0  0  0  0  0  2  0  0  0  0  0  0
  189.5610  176.4380  147.7770 C   0  0  0  0  0  2  0  0  0  0  0  0
  188.8450  177.6530  147.2660 C   0  0  0  0  0  2  0  0  0  0  0  0
  187.9450  175.7640  146.1870 O   0  0  0  0  0  0  0  0  0  0  0  0
  187.6430  177.0910  146.5580 C   0  0  1  0  0  0  0  0  0  0  0  0
  188.8160  175.2670  147.1710 C   0  0  1  0  0  3  0  0  0  0  0  0
  186.4150  177.0790  147.5050 C   0  0  2  0  0  3  0  0  0  0  0  0
  185.3140  176.4750  146.8900 O   0  0  0  0  0  1  0  0  0  0  0  0
  186.0730  178.3600  147.9650 O   0  0  0  0  0  0  0  0  0  0  0  0
  184.7380  178.5400  147.5810 C   0  0  0  0  0  1  0  0  0  0  0  0
  187.3800  177.8970  145.2850 C   0  0  0  0  0  2  0  0  0  0  0  0
  188.4840  177.8770  144.4120 O   0  0  0  0  0  1  0  0  0  0  0  0
  194.4170  170.6420  135.7420 O   0  0  0  0  0  0  0  0  0  0  0  0
  194.7320  168.3680  135.6320 O   0  0  0  0  0  0  0  0  0  0  0  0
  193.7760  169.3950  135.7930 C   0  0  2  0  0  3  0  0  0  0  0  0
  193.9460  168.6900  134.5140 C   0  0  0  0  0  2  0  0  0  0  0  0
  195.6330  169.7780  138.6900 O   0  0  0  0  0  0  0  0  0  0  0  0
  197.6570  168.6770  138.6580 O   0  0  0  0  0  0  0  0  0  0  0  0
  196.5770  168.9230  139.2550 C   0  0  0  0  0  0  0  0  0  0  0  0
  196.3010  168.3190  140.4820 O   0  0  0  0  0  0  0  0  0  0  0  0
  196.3480  169.0230  141.7490 C   0  0  2  0  0  3  0  0  0  0  0  0
  197.4230  170.1090  141.6960 C   0  0  0  0  0  1  0  0  0  0  0  0
  196.5910  168.1960  142.8910 O   0  0  0  0  0  0  0  0  0  0  0  0
  195.5280  168.3020  143.8210 C   0  0  0  0  0  1  0  0  0  0  0  0
  1  5  1  6  0  0  0
  2 31  1  0  0  0  0
  2 13  1  1  0  0  0
  3 16  1  6  0  0  0
  3 23  1  0  0  0  0
  3 30  1  0  0  0  0
  5 23  1  0  0  0  0
  6 32  1  6  0  0  0
  6 15  1  0  0  0  0
  6 26  1  0  0  0  0
  7 43  1  6  0  0  0
  7  2  1  0  0  0  0
  7  8  1  0  0  0  0
  8 33  1  6  0  0  0
  8 29  1  0  0  0  0
  9 38  1  0  0  0  0
 10 63  1  6  0  0  0
 10 31  1  0  0  0  0
 11 15  1  6  0  0  0
 11 25  1  0  0  0  0
 12 36  1  0  0  0  0
 12 27  2  0  0  0  0
 14  4  1  0  0  0  0
 14 47  1  1  0  0  0
 17 11  1  0  0  0  0
 17 24  1  0  0  0  0
 21 20  1  0  0  0  0
 21 26  1  0  0  0  0
 21 41  1  1  0  0  0
 22 14  1  0  0  0  0
 24 42  1  6  0  0  0
 24 19  1  0  0  0  0
 24  9  1  0  0  0  0
 25 35  1  1  0  0  0
 25  4  1  0  0  0  0
 26 22  1  1  0  0  0
 27 20  1  0  0  0  0
 28 10  1  0  0  0  0
 29 18  1  1  0  0  0
 29 34  1  0  0  0  0
 29  1  1  0  0  0  0
 30 19  1  0  0  0  0
 31 13  1  0  0  0  0
 31 16  1  1  0  0  0
 32 36  1  0  0  0  0
 34  6  1  0  0  0  0
 34  1  1  0  0  0  0
 35 38  1  0  0  0  0
 37 28  1  0  0  0  0
 37 39  1  0  0  0  0
 39  7  1  0  0  0  0
 39  2  1  0  0  0  0
 40 37  1  0  0  0  0
 44 43  1  0  0  0  0
 45 46  1  0  0  0  0
 46 12  1  0  0  0  0
 47 52  1  0  0  0  0
 49 48  1  0  0  0  0
 50 51  1  0  0  0  0
 50 52  1  0  0  0  0
 51 49  1  0  0  0  0
 51 53  1  0  0  0  0
 52 48  1  0  0  0  0
 53 55  1  0  0  0  0
 54 53  1  0  0  0  0
 56 55  1  0  0  0  0
 57 51  1  0  0  0  0
 58 57  1  0  0  0  0
 59 61  1  0  0  0  0
 59 37  1  0  0  0  0
 60 61  1  0  0  0  0
 62 60  1  0  0  0  0
 62 61  1  0  0  0  0
 63 65  1  0  0  0  0
 64 65  2  0  0  0  0
 65 66  1  0  0  0  0
 66 67  1  0  0  0  0
 67 69  1  0  0  0  0
 68 67  1  0  0  0  0
 69 70  1  0  0  0  0
M  END
>  <MODEL>
6

>  <REMARK>
 VINA RESULT:      -4.2      2.807     10.090
  Name = 
  14 active torsions:
  status: ('A' for Active; 'I' for Inactive)
    1  A    between atoms: O_2  and  C_16
    2  A    between atoms: C_3  and  C_40
    3  A    between atoms: C_3  and  O_51
    4  A    between atoms: N_8  and  C_27
    5  A    between atoms: N_8  and  C_41
    6  A    between atoms: O_13  and  C_50
    7  A    between atoms: O_13  and  C_65
    8  A    between atoms: O_14  and  C_15
    9  A    between atoms: C_16  and  O_22
   10  A    between atoms: C_20  and  O_22
   11  A    between atoms: C_20  and  O_28
   12  A    between atoms: C_23  and  O_28
   13  A    between atoms: C_25  and  O_49
   14  A    between atoms: C_33  and  C_40
                            x       y       z     vdW  Elec       q    Type
                         _______ _______ _______ _____ _____    ______ ____

>  <TORSDO>
F 14

$$$$
=
 OpenBabel11062421463D

 70 80  0  0  1  0  0  0  0  0999 V2000
  194.3180  174.5090  140.4690 C   0  0  2  0  0  3  0  0  0  0  0  0
  194.7470  171.6760  138.1540 C   0  0  2  0  0  0  0  0  0  0  0  0
  191.8550  173.3630  138.8680 C   0  0  1  0  0  3  0  0  0  0  0  0
  190.3650  175.4630  142.8100 C   0  0  0  0  0  2  0  0  0  0  0  0
  194.0340  174.5000  139.1030 O   0  0  0  0  0  0  0  0  0  0  0  0
  193.5770  173.1400  142.5550 C   0  0  1  0  0  0  0  0  0  0  0  0
  195.9200  171.5740  139.0710 C   0  0  2  0  0  0  0  0  0  0  0  0
  196.2830  173.0280  139.5090 C   0  0  1  0  0  3  0  0  0  0  0  0
  188.0240  172.8320  140.8330 O   0  0  0  0  0  0  0  0  0  0  0  0
  193.4950  170.9700  136.1740 C   0  0  1  0  0  3  0  0  0  0  0  0
  190.9810  173.2040  141.8480 C   0  0  1  0  0  3  0  0  0  0  0  0
  195.1860  172.2800  145.6740 C   0  0  0  0  0  0  0  0  0  0  0  0
  194.5920  172.8680  137.4100 O   0  0  0  0  0  0  0  0  0  0  0  0
  191.5770  175.9510  143.5680 C   0  0  1  0  0  3  0  0  0  0  0  0
  192.1570  172.5070  142.5630 C   0  0  0  0  0  2  0  0  0  0  0  0
  192.4270  172.0030  138.4120 C   0  0  0  0  0  2  0  0  0  0  0  0
  190.2310  172.1690  141.2170 O   0  0  0  0  0  0  0  0  0  0  0  0
  196.2890  174.0240  141.8130 O   0  0  0  0  0  1  0  0  0  0  0  0
  189.7560  173.8820  139.4060 C   0  0  0  0  0  2  0  0  0  0  0  0
  194.8540  174.7260  145.5300 C   0  0  0  0  0  2  0  0  0  0  0  0
  194.9150  174.9180  144.0100 C   0  0  1  0  0  3  0  0  0  0  0  0
  192.7960  175.6710  142.7200 C   0  0  0  0  0  2  0  0  0  0  0  0
  192.6630  174.6860  138.9100 C   0  0  0  0  0  2  0  0  0  0  0  0
  189.2950  172.6380  140.2370 C   0  0  2  0  0  0  0  0  0  0  0  0
  190.1810  173.9520  142.9320 C   0  0  2  0  0  3  0  0  0  0  0  0
  193.5820  174.5060  143.3360 C   0  0  1  0  0  3  0  0  0  0  0  0
  195.5610  173.5020  145.9390 N   0  0  0  0  0  0  0  0  0  0  0  0
  194.0490  169.5790  136.5890 C   0  0  0  0  0  2  0  0  0  0  0  0
  195.5090  173.5830  140.7440 C   0  0  1  0  0  0  0  0  0  0  0  0
  190.5880  173.5570  138.3160 O   0  0  0  0  0  0  0  0  0  0  0  0
  193.5350  171.9430  137.3670 C   0  0  2  0  0  0  0  0  0  0  0  0
  194.4290  172.1150  143.3220 C   0  0  0  0  0  2  0  0  0  0  0  0
  197.7940  173.2030  139.5980 C   0  0  0  0  0  1  0  0  0  0  0  0
  194.0740  173.1240  141.0640 C   0  0  2  0  0  3  0  0  0  0  0  0
  188.6880  173.6200  143.0070 C   0  0  0  0  0  2  0  0  0  0  0  0
  194.0120  171.9970  144.7890 C   0  0  0  0  0  2  0  0  0  0  0  0
  195.5260  169.6100  137.1080 C   0  0  1  0  0  0  0  0  0  0  0  0
  188.0150  173.9530  141.6850 C   0  0  0  0  0  2  0  0  0  0  0  0
  195.9840  171.0560  137.5790 C   0  0  1  0  0  3  0  0  0  0  0  0
  195.6060  168.7270  138.1840 O   0  0  0  0  0  1  0  0  0  0  0  0
  195.2890  176.2350  143.7050 O   0  0  0  0  0  1  0  0  0  0  0  0
  189.0780  171.4930  139.2470 C   0  0  0  0  0  1  0  0  0  0  0  0
  195.7010  170.5650  140.0390 O   0  0  0  0  0  0  0  0  0  0  0  0
  196.7550  170.5310  140.8240 O   0  0  0  0  0  1  0  0  0  0  0  0
  197.2580  170.9290  145.8240 C   0  0  0  0  0  1  0  0  0  0  0  0
  195.9240  171.2250  146.2210 O   0  0  0  0  0  0  0  0  0  0  0  0
  191.4520  177.3930  143.7640 N   0  0  0  0  0  2  0  0  0  0  0  0
  189.3050  177.6240  144.8570 C   0  0  0  0  0  2  0  0  0  0  0  0
  188.8140  176.7680  145.9860 C   0  0  0  0  0  2  0  0  0  0  0  0
  191.1680  176.7370  146.0140 O   0  0  0  0  0  0  0  0  0  0  0  0
  190.0370  176.5580  146.8360 C   0  0  1  0  0  0  0  0  0  0  0  0
  190.8060  177.6910  145.0470 C   0  0  1  0  0  3  0  0  0  0  0  0
  190.0830  177.6010  147.9840 C   0  0  2  0  0  3  0  0  0  0  0  0
  189.5810  178.8340  147.5590 O   0  0  0  0  0  1  0  0  0  0  0  0
  191.3690  177.7580  148.5220 O   0  0  0  0  0  0  0  0  0  0  0  0
  191.1980  178.5810  149.6420 C   0  0  0  0  0  1  0  0  0  0  0  0
  190.0490  175.1220  147.3630 C   0  0  0  0  0  2  0  0  0  0  0  0
  191.3210  174.7450  147.8340 O   0  0  0  0  0  1  0  0  0  0  0  0
  196.3160  169.0550  136.0610 O   0  0  0  0  0  0  0  0  0  0  0  0
  197.4200  170.9180  135.2930 O   0  0  0  0  0  0  0  0  0  0  0  0
  197.5710  169.6710  135.9360 C   0  0  2  0  0  3  0  0  0  0  0  0
  197.9020  169.8530  134.5150 C   0  0  0  0  0  2  0  0  0  0  0  0
  194.2990  171.5040  135.1370 O   0  0  0  0  0  0  0  0  0  0  0  0
  193.1820  173.4370  134.5680 O   0  0  0  0  0  0  0  0  0  0  0  0
  194.2760  172.8410  134.7460 C   0  0  0  0  0  0  0  0  0  0  0  0
  195.4820  173.5080  134.5260 O   0  0  0  0  0  0  0  0  0  0  0  0
  195.8090  174.7860  135.1270 C   0  0  2  0  0  3  0  0  0  0  0  0
  196.9070  174.5980  136.1750 C   0  0  0  0  0  1  0  0  0  0  0  0
  194.7090  175.4670  135.7370 O   0  0  0  0  0  0  0  0  0  0  0  0
  194.3680  176.6280  135.0000 C   0  0  0  0  0  1  0  0  0  0  0  0
  1  5  1  6  0  0  0
  1 29  1  0  0  0  0
  1 34  1  0  0  0  0
  2 13  1  6  0  0  0
  2  7  1  0  0  0  0
  3 16  1  6  0  0  0
  3 23  1  0  0  0  0
  4 14  1  0  0  0  0
  6 15  1  1  0  0  0
  6 32  1  0  0  0  0
  6 26  1  0  0  0  0
  7  8  1  0  0  0  0
  7 43  1  1  0  0  0
  8 33  1  1  0  0  0
  8 29  1  0  0  0  0
  9 38  1  0  0  0  0
 10 63  1  6  0  0  0
 10 28  1  0  0  0  0
 10 31  1  0  0  0  0
 11 15  1  1  0  0  0
 11 25  1  0  0  0  0
 12 27  2  0  0  0  0
 12 46  1  0  0  0  0
 14 47  1  6  0  0  0
 17 11  1  0  0  0  0
 19 24  1  0  0  0  0
 20 27  1  0  0  0  0
 21 41  1  1  0  0  0
 21 20  1  0  0  0  0
 22 14  1  0  0  0  0
 23  5  1  0  0  0  0
 24 42  1  6  0  0  0
 24  9  1  0  0  0  0
 24 17  1  0  0  0  0
 25  4  1  6  0  0  0
 25 35  1  0  0  0  0
 26 22  1  6  0  0  0
 26 21  1  0  0  0  0
 28 37  1  0  0  0  0
 29 34  1  0  0  0  0
 29 18  1  1  0  0  0
 30  3  1  0  0  0  0
 30 19  1  0  0  0  0
 31 13  1  0  0  0  0
 31  2  1  0  0  0  0
 31 16  1  1  0  0  0
 32 36  1  0  0  0  0
 34  6  1  0  0  0  0
 36 12  1  0  0  0  0
 37 39  1  0  0  0  0
 37 40  1  0  0  0  0
 38 35  1  0  0  0  0
 39  2  1  0  0  0  0
 39  7  1  0  0  0  0
 43 44  1  0  0  0  0
 45 46  1  0  0  0  0
 47 52  1  0  0  0  0
 48 52  1  0  0  0  0
 48 49  1  0  0  0  0
 49 51  1  0  0  0  0
 50 51  1  0  0  0  0
 51 57  1  0  0  0  0
 51 53  1  0  0  0  0
 52 50  1  0  0  0  0
 53 55  1  0  0  0  0
 54 53  1  0  0  0  0
 55 56  1  0  0  0  0
 57 58  1  0  0  0  0
 59 37  1  0  0  0  0
 60 61  1  0  0  0  0
 61 59  1  0  0  0  0
 62 60  1  0  0  0  0
 62 61  1  0  0  0  0
 64 65  2  0  0  0  0
 65 63  1  0  0  0  0
 66 65  1  0  0  0  0
 66 67  1  0  0  0  0
 67 69  1  0  0  0  0
 67 68  1  0  0  0  0
 70 69  1  0  0  0  0
M  END
>  <MODEL>
7

>  <REMARK>
 VINA RESULT:      -4.0      2.830      9.510
  Name = 
  14 active torsions:
  status: ('A' for Active; 'I' for Inactive)
    1  A    between atoms: O_2  and  C_16
    2  A    between atoms: C_3  and  C_40
    3  A    between atoms: C_3  and  O_51
    4  A    between atoms: N_8  and  C_27
    5  A    between atoms: N_8  and  C_41
    6  A    between atoms: O_13  and  C_50
    7  A    between atoms: O_13  and  C_65
    8  A    between atoms: O_14  and  C_15
    9  A    between atoms: C_16  and  O_22
   10  A    between atoms: C_20  and  O_22
   11  A    between atoms: C_20  and  O_28
   12  A    between atoms: C_23  and  O_28
   13  A    between atoms: C_25  and  O_49
   14  A    between atoms: C_33  and  C_40
                            x       y       z     vdW  Elec       q    Type
                         _______ _______ _______ _____ _____    ______ ____

>  <TORSDO>
F 14

$$$$
=
 OpenBabel11062421463D

 70 80  0  0  1  0  0  0  0  0999 V2000
  194.2680  174.7990  140.7300 C   0  0  2  0  0  3  0  0  0  0  0  0
  195.3510  172.3240  138.2260 C   0  0  2  0  0  0  0  0  0  0  0  0
  192.1420  173.1330  139.1010 C   0  0  1  0  0  3  0  0  0  0  0  0
  190.2870  174.5250  143.1990 C   0  0  0  0  0  2  0  0  0  0  0  0
  193.9490  174.7940  139.3720 O   0  0  0  0  0  0  0  0  0  0  0  0
  193.9890  173.1610  142.7340 C   0  0  1  0  0  0  0  0  0  0  0  0
  196.5400  172.4850  139.1130 C   0  0  2  0  0  0  0  0  0  0  0  0
  196.5210  173.9540  139.6390 C   0  0  1  0  0  3  0  0  0  0  0  0
  188.6600  171.4850  141.0950 O   0  0  0  0  0  0  0  0  0  0  0  0
  194.2630  171.4270  136.2260 C   0  0  1  0  0  3  0  0  0  0  0  0
  191.4460  172.5730  142.0800 C   0  0  1  0  0  3  0  0  0  0  0  0
  195.8770  172.5800  145.7600 C   0  0  0  0  0  0  0  0  0  0  0  0
  194.8600  173.4730  137.5650 O   0  0  0  0  0  0  0  0  0  0  0  0
  191.3520  175.2730  143.9660 C   0  0  1  0  0  3  0  0  0  0  0  0
  192.7890  172.1730  142.7260 C   0  0  0  0  0  2  0  0  0  0  0  0
  193.0380  172.0040  138.5460 C   0  0  0  0  0  2  0  0  0  0  0  0
  190.9760  171.4140  141.3950 O   0  0  0  0  0  0  0  0  0  0  0  0
  196.3430  174.7790  142.0030 O   0  0  0  0  0  1  0  0  0  0  0  0
  190.0010  173.0410  139.7090 C   0  0  0  0  0  2  0  0  0  0  0  0
  194.9030  174.8540  145.7830 C   0  0  0  0  0  2  0  0  0  0  0  0
  194.8580  175.1440  144.2790 C   0  0  1  0  0  3  0  0  0  0  0  0
  192.5720  175.3780  143.0790 C   0  0  0  0  0  2  0  0  0  0  0  0
  192.5720  174.6190  139.2160 C   0  0  0  0  0  2  0  0  0  0  0  0
  189.9150  171.6730  140.4650 C   0  0  2  0  0  0  0  0  0  0  0  0
  190.5150  173.0150  143.2250 C   0  0  2  0  0  3  0  0  0  0  0  0
  193.6590  174.4320  143.6030 C   0  0  1  0  0  3  0  0  0  0  0  0
  195.9230  173.8400  146.0980 N   0  0  0  0  0  0  0  0  0  0  0  0
  195.1800  170.2120  136.5390 C   0  0  0  0  0  2  0  0  0  0  0  0
  195.6700  174.2100  140.9220 C   0  0  1  0  0  0  0  0  0  0  0  0
  190.8510  173.0140  138.5860 O   0  0  0  0  0  0  0  0  0  0  0  0
  194.0850  172.3030  137.4800 C   0  0  2  0  0  0  0  0  0  0  0  0
  195.1090  172.3580  143.4160 C   0  0  0  0  0  2  0  0  0  0  0  0
  197.9330  174.5200  139.7120 C   0  0  0  0  0  1  0  0  0  0  0  0
  194.4210  173.3670  141.2370 C   0  0  2  0  0  3  0  0  0  0  0  0
  189.1660  172.2930  143.3040 C   0  0  0  0  0  2  0  0  0  0  0  0
  194.7890  172.0470  144.8800 C   0  0  0  0  0  2  0  0  0  0  0  0
  196.6130  170.6050  137.0320 C   0  0  1  0  0  0  0  0  0  0  0  0
  188.3830  172.5120  142.0190 C   0  0  0  0  0  2  0  0  0  0  0  0
  196.6880  172.0910  137.5890 C   0  0  1  0  0  3  0  0  0  0  0  0
  196.9620  169.7140  138.0460 O   0  0  0  0  0  1  0  0  0  0  0  0
  194.8580  176.5270  144.0550 O   0  0  0  0  0  1  0  0  0  0  0  0
  189.9750  170.5710  139.4070 C   0  0  0  0  0  1  0  0  0  0  0  0
  196.6310  171.3980  140.0160 O   0  0  0  0  0  0  0  0  0  0  0  0
  197.8830  171.3120  140.4100 O   0  0  0  0  0  1  0  0  0  0  0  0
  197.5230  170.7650  145.3930 C   0  0  0  0  0  1  0  0  0  0  0  0
  196.8860  171.7300  146.2230 O   0  0  0  0  0  0  0  0  0  0  0  0
  190.8560  176.6150  144.2580 N   0  0  0  0  0  2  0  0  0  0  0  0
  189.3660  177.5280  145.9320 C   0  0  0  0  0  2  0  0  0  0  0  0
  188.1280  178.3250  145.6450 C   0  0  0  0  0  2  0  0  0  0  0  0
  188.5710  176.9600  143.7780 O   0  0  0  0  0  0  0  0  0  0  0  0
  187.5320  177.6430  144.4430 C   0  0  1  0  0  0  0  0  0  0  0  0
  189.4820  176.5630  144.7700 C   0  0  1  0  0  3  0  0  0  0  0  0
  186.4590  176.6140  144.8850 C   0  0  2  0  0  3  0  0  0  0  0  0
  185.1870  177.0010  144.4530 O   0  0  0  0  0  1  0  0  0  0  0  0
  186.4560  176.3950  146.2710 O   0  0  0  0  0  0  0  0  0  0  0  0
  185.1640  176.7350  146.6900 C   0  0  0  0  0  1  0  0  0  0  0  0
  186.9620  178.6970  143.4920 C   0  0  0  0  0  2  0  0  0  0  0  0
  187.8790  179.0430  142.4820 O   0  0  0  0  0  1  0  0  0  0  0  0
  197.4850  170.3430  135.9370 O   0  0  0  0  0  0  0  0  0  0  0  0
  196.8980  168.1660  135.4950 O   0  0  0  0  0  0  0  0  0  0  0  0
  196.9220  169.4810  134.9830 C   0  0  2  0  0  3  0  0  0  0  0  0
  197.9110  168.4730  134.5720 C   0  0  0  0  0  2  0  0  0  0  0  0
  194.8600  172.2160  135.2130 O   0  0  0  0  0  0  0  0  0  0  0  0
  195.0610  174.4060  134.5240 O   0  0  0  0  0  0  0  0  0  0  0  0
  194.3220  173.4100  134.7390 C   0  0  0  0  0  0  0  0  0  0  0  0
  192.9450  173.5010  134.5290 O   0  0  0  0  0  0  0  0  0  0  0  0
  192.1340  174.6010  135.0140 C   0  0  2  0  0  3  0  0  0  0  0  0
  192.9990  175.5600  135.8320 C   0  0  0  0  0  1  0  0  0  0  0  0
  191.0060  174.2170  135.8050 O   0  0  0  0  0  0  0  0  0  0  0  0
  189.8340  174.8780  135.3600 C   0  0  0  0  0  1  0  0  0  0  0  0
  1  5  1  6  0  0  0
  1 29  1  0  0  0  0
  1 34  1  0  0  0  0
  2 13  1  6  0  0  0
  2  7  1  0  0  0  0
  3 16  1  6  0  0  0
  3 23  1  0  0  0  0
  4 14  1  0  0  0  0
  6 15  1  6  0  0  0
  6 32  1  0  0  0  0
  6 26  1  0  0  0  0
  7  8  1  0  0  0  0
  7 43  1  1  0  0  0
  8 33  1  1  0  0  0
  8 29  1  0  0  0  0
  9 38  1  0  0  0  0
 10 63  1  6  0  0  0
 10 28  1  0  0  0  0
 10 31  1  0  0  0  0
 11 15  1  1  0  0  0
 11 25  1  0  0  0  0
 12 27  2  0  0  0  0
 12 46  1  0  0  0  0
 14 47  1  6  0  0  0
 17 11  1  0  0  0  0
 19 24  1  0  0  0  0
 20 27  1  0  0  0  0
 21 41  1  1  0  0  0
 21 20  1  0  0  0  0
 22 14  1  0  0  0  0
 23  5  1  0  0  0  0
 24 42  1  6  0  0  0
 24  9  1  0  0  0  0
 24 17  1  0  0  0  0
 25  4  1  6  0  0  0
 25 35  1  0  0  0  0
 26 22  1  6  0  0  0
 26 21  1  0  0  0  0
 28 37  1  0  0  0  0
 29 34  1  0  0  0  0
 29 18  1  1  0  0  0
 30  3  1  0  0  0  0
 30 19  1  0  0  0  0
 31 13  1  0  0  0  0
 31  2  1  0  0  0  0
 31 16  1  1  0  0  0
 32 36  1  0  0  0  0
 34  6  1  0  0  0  0
 36 12  1  0  0  0  0
 37 39  1  0  0  0  0
 37 40  1  0  0  0  0
 38 35  1  0  0  0  0
 39  2  1  0  0  0  0
 39  7  1  0  0  0  0
 43 44  1  0  0  0  0
 45 46  1  0  0  0  0
 47 52  1  0  0  0  0
 49 48  1  0  0  0  0
 50 51  1  0  0  0  0
 50 52  1  0  0  0  0
 51 53  1  0  0  0  0
 51 49  1  0  0  0  0
 52 48  1  0  0  0  0
 53 55  1  0  0  0  0
 54 53  1  0  0  0  0
 55 56  1  0  0  0  0
 57 51  1  0  0  0  0
 58 57  1  0  0  0  0
 59 37  1  0  0  0  0
 61 60  1  0  0  0  0
 61 59  1  0  0  0  0
 62 61  1  0  0  0  0
 62 60  1  0  0  0  0
 64 65  2  0  0  0  0
 65 63  1  0  0  0  0
 66 65  1  0  0  0  0
 66 67  1  0  0  0  0
 67 69  1  0  0  0  0
 67 68  1  0  0  0  0
 70 69  1  0  0  0  0
M  END
>  <MODEL>
8

>  <REMARK>
 VINA RESULT:      -4.0      2.764      9.249
  Name = 
  14 active torsions:
  status: ('A' for Active; 'I' for Inactive)
    1  A    between atoms: O_2  and  C_16
    2  A    between atoms: C_3  and  C_40
    3  A    between atoms: C_3  and  O_51
    4  A    between atoms: N_8  and  C_27
    5  A    between atoms: N_8  and  C_41
    6  A    between atoms: O_13  and  C_50
    7  A    between atoms: O_13  and  C_65
    8  A    between atoms: O_14  and  C_15
    9  A    between atoms: C_16  and  O_22
   10  A    between atoms: C_20  and  O_22
   11  A    between atoms: C_20  and  O_28
   12  A    between atoms: C_23  and  O_28
   13  A    between atoms: C_25  and  O_49
   14  A    between atoms: C_33  and  C_40
                            x       y       z     vdW  Elec       q    Type
                         _______ _______ _______ _____ _____    ______ ____

>  <TORSDO>
F 14

$$$$
