=
 OpenBabel11062421563D

 37 42  0  0  1  0  0  0  0  0999 V2000
  185.9500  177.3570  143.2960 C   0  0  0  0  0  0  0  0  0  0  0  0
  184.6000  176.6400  146.6460 O   0  0  0  0  0  0  0  0  0  0  0  0
  186.9900  176.7790  140.2110 N   0  0  0  0  0  1  0  0  0  0  0  0
  188.8700  178.1650  141.6610 C   0  0  0  0  0  2  0  0  0  0  0  0
  188.3280  177.5920  143.8620 C   0  0  0  0  0  3  0  0  0  0  0  0
  186.3810  177.7570  141.1020 C   0  0  2  0  0  3  0  0  0  0  0  0
  187.4150  178.5860  141.8940 C   0  0  1  0  0  3  0  0  0  0  0  0
  185.5760  177.0780  142.0970 N   0  0  0  0  0  0  0  0  0  0  0  0
  187.1110  178.2900  143.3680 C   0  0  1  0  0  3  0  0  0  0  0  0
  189.2710  177.5420  142.9400 C   0  0  0  0  0  0  0  0  0  0  0  0
  185.2190  176.8460  144.4210 N   0  0  0  0  0  2  0  0  0  0  0  0
  185.4110  177.1260  145.8140 C   0  0  0  0  0  0  0  0  0  0  0  0
  186.5270  177.9960  146.3070 C   0  0  1  0  0  3  0  0  0  0  0  0
  186.3720  179.5890  148.0610 F   0  0  0  0  0  0  0  0  0  0  0  0
  185.9730  179.3340  146.7620 C   0  0  0  0  0  2  0  0  0  0  0  0
  187.2270  177.3730  147.3840 O   0  0  0  0  0  0  0  0  0  0  0  0
  188.4950  175.3390  147.1210 C   0  0  0  0  0  3  0  0  0  0  0  0
  188.4640  176.7330  147.2410 C   0  0  0  0  0  0  0  0  0  0  0  0
  189.6710  177.4520  147.2130 C   0  0  0  0  0  3  0  0  0  0  0  0
  189.7140  174.6700  146.9770 C   0  0  0  0  0  3  0  0  0  0  0  0
  190.9110  175.3910  146.9500 C   0  0  0  0  0  3  0  0  0  0  0  0
  190.8880  176.7830  147.0670 C   0  0  0  0  0  3  0  0  0  0  0  0
  190.5290  176.9640  143.1340 O   0  0  0  0  0  0  0  0  0  0  0  0
  189.3140  173.4410  143.4830 C   0  0  0  0  0  2  0  0  0  0  0  0
  192.5130  173.9170  144.0200 C   0  0  0  0  0  1  0  0  0  0  0  0
  188.3510  172.8940  139.8870 C   0  0  2  0  0  3  0  0  0  0  0  0
  193.7430  174.6700  141.4950 O   0  0  0  0  0  1  0  0  0  0  0  0
  192.4130  175.0180  141.7350 C   0  0  1  0  0  3  0  0  0  0  0  0
  188.6940  172.5320  142.4300 C   0  0  0  0  0  2  0  0  0  0  0  0
  190.7090  175.5980  143.5000 C   0  0  1  0  0  3  0  0  0  0  0  0
  189.5620  172.2220  140.1700 O   0  0  0  0  0  0  0  0  0  0  0  0
  188.5830  173.8810  138.9280 O   0  0  0  0  0  1  0  0  0  0  0  0
  189.1210  173.1570  141.1240 C   0  0  1  0  0  0  0  0  0  0  0  0
  191.4850  173.9690  141.1420 C   0  0  0  0  0  2  0  0  0  0  0  0
  189.6760  174.7360  142.7580 C   0  0  1  0  0  3  0  0  0  0  0  0
  192.1590  175.1720  143.2350 C   0  0  1  0  0  3  0  0  0  0  0  0
  190.0140  174.3720  141.3080 C   0  0  2  0  0  3  0  0  0  0  0  0
  1  9  1  0  0  0  0
  1 11  1  0  0  0  0
  4 10  1  0  0  0  0
  6  3  1  6  0  0  0
  6  7  1  0  0  0  0
  6  8  1  0  0  0  0
  7  4  1  6  0  0  0
  7  9  1  0  0  0  0
  8  1  2  0  0  0  0
  9  5  1  6  0  0  0
 10 23  1  0  0  0  0
 10  5  2  0  0  0  0
 11 12  1  0  0  0  0
 12 13  1  0  0  0  0
 12  2  2  0  0  0  0
 13 15  1  1  0  0  0
 13 16  1  0  0  0  0
 15 14  1  0  0  0  0
 17 18  1  0  0  0  0
 18 16  1  0  0  0  0
 19 18  2  0  0  0  0
 20 17  2  0  0  0  0
 21 20  1  0  0  0  0
 21 22  2  0  0  0  0
 22 19  1  0  0  0  0
 26 32  1  6  0  0  0
 26 31  1  0  0  0  0
 26 33  1  0  0  0  0
 28 27  1  1  0  0  0
 28 36  1  0  0  0  0
 29 24  1  0  0  0  0
 30 23  1  6  0  0  0
 31 33  1  0  0  0  0
 33 37  1  0  0  0  0
 33 29  1  1  0  0  0
 34 28  1  0  0  0  0
 35 24  1  1  0  0  0
 35 30  1  0  0  0  0
 36 30  1  0  0  0  0
 36 25  1  1  0  0  0
 37 34  1  1  0  0  0
 37 35  1  0  0  0  0
M  END
>  <MODEL>
1

>  <REMARK>
 VINA RESULT:      -8.1      0.000      0.000
  Name = 
  6 active torsions:
  status: ('A' for Active; 'I' for Inactive)
    1  A    between atoms: C_8  and  O_20
    2  A    between atoms: C_8  and  C_24
    3  A    between atoms: C_8  and  C_34
    4  A    between atoms: C_9  and  O_20
    5  A    between atoms: O_16  and  C_17
    6  A    between atoms: O_16  and  C_29
                            x       y       z     vdW  Elec       q    Type
                         _______ _______ _______ _____ _____    ______ ____

>  <TORSDO>
F 6

$$$$
=
 OpenBabel11062421563D

 37 42  0  0  1  0  0  0  0  0999 V2000
  191.5840  173.7380  140.6860 C   0  0  0  0  0  0  0  0  0  0  0  0
  194.4340  174.9260  142.6930 O   0  0  0  0  0  0  0  0  0  0  0  0
  189.1540  173.8190  138.4450 N   0  0  0  0  0  1  0  0  0  0  0  0
  188.2260  173.0080  140.9030 C   0  0  0  0  0  2  0  0  0  0  0  0
  189.8000  173.9340  142.3630 C   0  0  0  0  0  3  0  0  0  0  0  0
  190.1110  172.9680  139.1370 C   0  0  2  0  0  3  0  0  0  0  0  0
  189.5980  172.4560  140.5000 C   0  0  1  0  0  3  0  0  0  0  0  0
  191.3150  173.7210  139.4280 N   0  0  0  0  0  0  0  0  0  0  0  0
  190.6000  172.9980  141.5280 C   0  0  1  0  0  3  0  0  0  0  0  0
  188.5250  173.9210  142.0270 C   0  0  0  0  0  0  0  0  0  0  0  0
  192.7850  174.3640  141.1610 N   0  0  0  0  0  2  0  0  0  0  0  0
  193.3080  174.3950  142.4960 C   0  0  0  0  0  0  0  0  0  0  0  0
  192.5750  173.7940  143.6560 C   0  0  1  0  0  3  0  0  0  0  0  0
  192.1670  171.5880  144.4320 F   0  0  0  0  0  0  0  0  0  0  0  0
  193.1650  172.4370  143.9910 C   0  0  0  0  0  2  0  0  0  0  0  0
  192.6390  174.6440  144.8010 O   0  0  0  0  0  0  0  0  0  0  0  0
  191.5850  176.1260  146.3840 C   0  0  0  0  0  3  0  0  0  0  0  0
  191.5290  174.9780  145.5860 C   0  0  0  0  0  0  0  0  0  0  0  0
  190.3640  174.1930  145.5930 C   0  0  0  0  0  3  0  0  0  0  0  0
  190.4930  176.4880  147.1800 C   0  0  0  0  0  3  0  0  0  0  0  0
  189.3370  175.7020  147.1800 C   0  0  0  0  0  3  0  0  0  0  0  0
  189.2720  174.5550  146.3860 C   0  0  0  0  0  3  0  0  0  0  0  0
  187.5390  174.6850  142.6580 O   0  0  0  0  0  0  0  0  0  0  0  0
  185.2020  177.6010  142.4330 C   0  0  0  0  0  2  0  0  0  0  0  0
  188.3010  178.1710  141.5260 C   0  0  0  0  0  1  0  0  0  0  0  0
  184.5120  177.9640  146.1140 C   0  0  2  0  0  3  0  0  0  0  0  0
  189.9790  177.9730  143.8930 O   0  0  0  0  0  1  0  0  0  0  0  0
  188.8190  177.1990  143.8140 C   0  0  1  0  0  3  0  0  0  0  0  0
  184.4370  178.3050  143.5460 C   0  0  0  0  0  2  0  0  0  0  0  0
  187.2190  176.0180  142.2650 C   0  0  1  0  0  3  0  0  0  0  0  0
  185.3960  178.9810  145.6860 O   0  0  0  0  0  0  0  0  0  0  0  0
  185.1590  177.1500  147.0450 O   0  0  0  0  0  1  0  0  0  0  0  0
  185.1860  177.9110  144.7970 C   0  0  1  0  0  0  0  0  0  0  0  0
  187.6690  177.9140  144.5050 C   0  0  0  0  0  2  0  0  0  0  0  0
  186.0470  176.5290  143.1180 C   0  0  1  0  0  3  0  0  0  0  0  0
  188.4670  176.9050  142.3550 C   0  0  1  0  0  3  0  0  0  0  0  0
  186.4030  177.0470  144.5170 C   0  0  2  0  0  3  0  0  0  0  0  0
  1 11  1  0  0  0  0
  1  9  1  0  0  0  0
  4 10  1  0  0  0  0
  6  3  1  1  0  0  0
  6  8  1  0  0  0  0
  6  7  1  0  0  0  0
  7  4  1  1  0  0  0
  7  9  1  0  0  0  0
  8  1  2  0  0  0  0
  9  5  1  1  0  0  0
 10  5  2  0  0  0  0
 10 23  1  0  0  0  0
 11 12  1  0  0  0  0
 12  2  2  0  0  0  0
 12 13  1  0  0  0  0
 13 15  1  1  0  0  0
 13 16  1  0  0  0  0
 15 14  1  0  0  0  0
 16 18  1  0  0  0  0
 17 20  1  0  0  0  0
 18 19  1  0  0  0  0
 18 17  2  0  0  0  0
 19 22  2  0  0  0  0
 21 20  2  0  0  0  0
 22 21  1  0  0  0  0
 24 29  1  0  0  0  0
 26 32  1  1  0  0  0
 28 27  1  6  0  0  0
 28 34  1  0  0  0  0
 30 36  1  0  0  0  0
 30 23  1  1  0  0  0
 30 35  1  0  0  0  0
 31 26  1  0  0  0  0
 33 29  1  6  0  0  0
 33 31  1  0  0  0  0
 33 26  1  0  0  0  0
 35 24  1  6  0  0  0
 35 37  1  0  0  0  0
 36 25  1  6  0  0  0
 36 28  1  0  0  0  0
 37 34  1  6  0  0  0
 37 33  1  0  0  0  0
M  END
>  <MODEL>
2

>  <REMARK>
 VINA RESULT:      -8.0      2.884      6.544
  Name = 
  6 active torsions:
  status: ('A' for Active; 'I' for Inactive)
    1  A    between atoms: C_8  and  O_20
    2  A    between atoms: C_8  and  C_24
    3  A    between atoms: C_8  and  C_34
    4  A    between atoms: C_9  and  O_20
    5  A    between atoms: O_16  and  C_17
    6  A    between atoms: O_16  and  C_29
                            x       y       z     vdW  Elec       q    Type
                         _______ _______ _______ _____ _____    ______ ____

>  <TORSDO>
F 6

$$$$
=
 OpenBabel11062421563D

 37 42  0  0  1  0  0  0  0  0999 V2000
  185.8740  177.7890  143.3390 C   0  0  0  0  0  0  0  0  0  0  0  0
  184.0060  177.7980  146.5120 O   0  0  0  0  0  0  0  0  0  0  0  0
  186.8630  176.7650  140.3550 N   0  0  0  0  0  1  0  0  0  0  0  0
  189.0010  177.1870  142.0310 C   0  0  0  0  0  2  0  0  0  0  0  0
  188.0350  176.9470  144.1460 C   0  0  0  0  0  3  0  0  0  0  0  0
  186.6640  177.9240  141.2130 C   0  0  2  0  0  3  0  0  0  0  0  0
  187.8700  178.2160  142.1310 C   0  0  1  0  0  3  0  0  0  0  0  0
  185.5420  177.6890  142.1000 N   0  0  0  0  0  0  0  0  0  0  0  0
  187.3150  178.1080  143.5580 C   0  0  1  0  0  3  0  0  0  0  0  0
  188.9470  176.4690  143.3220 C   0  0  0  0  0  0  0  0  0  0  0  0
  184.8800  177.6740  144.3670 N   0  0  0  0  0  2  0  0  0  0  0  0
  185.0300  177.8580  145.7820 C   0  0  0  0  0  0  0  0  0  0  0  0
  186.3580  178.1470  146.4130 C   0  0  1  0  0  3  0  0  0  0  0  0
  186.7550  179.0860  148.5560 F   0  0  0  0  0  0  0  0  0  0  0  0
  186.2500  179.3720  147.3010 C   0  0  0  0  0  2  0  0  0  0  0  0
  186.8160  177.0340  147.1800 O   0  0  0  0  0  0  0  0  0  0  0  0
  188.3720  175.1920  147.2020 C   0  0  0  0  0  3  0  0  0  0  0  0
  188.1380  176.5710  147.1680 C   0  0  0  0  0  0  0  0  0  0  0  0
  189.2300  177.4530  147.1230 C   0  0  0  0  0  3  0  0  0  0  0  0
  189.6800  174.6970  147.1910 C   0  0  0  0  0  3  0  0  0  0  0  0
  190.7620  175.5800  147.1460 C   0  0  0  0  0  3  0  0  0  0  0  0
  190.5370  176.9580  147.1110 C   0  0  0  0  0  3  0  0  0  0  0  0
  189.7900  175.3940  143.6200 O   0  0  0  0  0  0  0  0  0  0  0  0
  193.1980  175.8550  142.1420 C   0  0  0  0  0  2  0  0  0  0  0  0
  191.7390  172.9860  141.5190 C   0  0  0  0  0  1  0  0  0  0  0  0
  195.1180  176.0130  145.3750 C   0  0  2  0  0  3  0  0  0  0  0  0
  191.5460  171.5160  144.0210 O   0  0  0  0  0  1  0  0  0  0  0  0
  191.5070  172.9110  144.0470 C   0  0  1  0  0  3  0  0  0  0  0  0
  194.5300  176.0630  142.8520 C   0  0  0  0  0  2  0  0  0  0  0  0
  190.8630  174.9900  142.7730 C   0  0  1  0  0  3  0  0  0  0  0  0
  195.3130  174.7560  144.7590 O   0  0  0  0  0  0  0  0  0  0  0  0
  194.4710  175.8330  146.5980 O   0  0  0  0  0  1  0  0  0  0  0  0
  194.2720  175.5540  144.2500 C   0  0  1  0  0  0  0  0  0  0  0  0
  192.8990  173.4670  144.3060 C   0  0  0  0  0  2  0  0  0  0  0  0
  192.1620  175.6590  143.2480 C   0  0  1  0  0  3  0  0  0  0  0  0
  190.9490  173.4580  142.7320 C   0  0  1  0  0  3  0  0  0  0  0  0
  192.8720  174.9960  144.4330 C   0  0  2  0  0  3  0  0  0  0  0  0
  1  9  1  0  0  0  0
  1 11  1  0  0  0  0
  4 10  1  0  0  0  0
  6  3  1  1  0  0  0
  6  8  1  0  0  0  0
  6  7  1  0  0  0  0
  7  4  1  1  0  0  0
  7  9  1  0  0  0  0
  8  1  2  0  0  0  0
  9  5  1  1  0  0  0
 10 23  1  0  0  0  0
 10  5  2  0  0  0  0
 11 12  1  0  0  0  0
 12 13  1  0  0  0  0
 12  2  2  0  0  0  0
 13 16  1  0  0  0  0
 13 15  1  1  0  0  0
 15 14  1  0  0  0  0
 18 16  1  0  0  0  0
 18 17  2  0  0  0  0
 19 18  1  0  0  0  0
 20 17  1  0  0  0  0
 21 20  2  0  0  0  0
 22 19  2  0  0  0  0
 22 21  1  0  0  0  0
 24 29  1  0  0  0  0
 26 32  1  1  0  0  0
 28 27  1  6  0  0  0
 28 34  1  0  0  0  0
 30 35  1  0  0  0  0
 30 23  1  1  0  0  0
 31 26  1  0  0  0  0
 33 29  1  6  0  0  0
 33 37  1  0  0  0  0
 33 31  1  0  0  0  0
 33 26  1  0  0  0  0
 35 24  1  6  0  0  0
 35 37  1  0  0  0  0
 36 25  1  6  0  0  0
 36 30  1  0  0  0  0
 36 28  1  0  0  0  0
 37 34  1  6  0  0  0
M  END
>  <MODEL>
3

>  <REMARK>
 VINA RESULT:      -7.5      1.717      3.490
  Name = 
  6 active torsions:
  status: ('A' for Active; 'I' for Inactive)
    1  A    between atoms: C_8  and  O_20
    2  A    between atoms: C_8  and  C_24
    3  A    between atoms: C_8  and  C_34
    4  A    between atoms: C_9  and  O_20
    5  A    between atoms: O_16  and  C_17
    6  A    between atoms: O_16  and  C_29
                            x       y       z     vdW  Elec       q    Type
                         _______ _______ _______ _____ _____    ______ ____

>  <TORSDO>
F 6

$$$$
=
 OpenBabel11062421563D

 37 42  0  0  1  0  0  0  0  0999 V2000
  191.5450  173.3370  140.2000 C   0  0  0  0  0  0  0  0  0  0  0  0
  194.7400  175.1420  139.8980 O   0  0  0  0  0  0  0  0  0  0  0  0
  188.3290  172.6870  139.7920 N   0  0  0  0  0  1  0  0  0  0  0  0
  189.0410  172.6070  142.4470 C   0  0  0  0  0  2  0  0  0  0  0  0
  190.9430  173.9650  142.4970 C   0  0  0  0  0  3  0  0  0  0  0  0
  189.6490  172.1040  139.9870 C   0  0  2  0  0  3  0  0  0  0  0  0
  190.0560  172.0000  141.4720 C   0  0  1  0  0  3  0  0  0  0  0  0
  190.6520  172.9430  139.3620 N   0  0  0  0  0  0  0  0  0  0  0  0
  191.3290  172.8480  141.5930 C   0  0  1  0  0  3  0  0  0  0  0  0
  189.7170  173.8180  142.9590 C   0  0  0  0  0  0  0  0  0  0  0  0
  192.6690  174.1080  139.7510 N   0  0  0  0  0  2  0  0  0  0  0  0
  193.8110  174.5450  140.5020 C   0  0  0  0  0  0  0  0  0  0  0  0
  193.9450  174.2900  141.9730 C   0  0  1  0  0  3  0  0  0  0  0  0
  194.2630  172.1490  142.9470 F   0  0  0  0  0  0  0  0  0  0  0  0
  194.8960  173.1320  142.2090 C   0  0  0  0  0  2  0  0  0  0  0  0
  194.4190  175.4510  142.6540 O   0  0  0  0  0  0  0  0  0  0  0  0
  193.4060  174.8080  144.7460 C   0  0  0  0  0  3  0  0  0  0  0  0
  194.2120  175.6910  144.0190 C   0  0  0  0  0  0  0  0  0  0  0  0
  194.7920  176.7900  144.6730 C   0  0  0  0  0  3  0  0  0  0  0  0
  193.1790  175.0190  146.1100 C   0  0  0  0  0  3  0  0  0  0  0  0
  193.7590  176.1150  146.7540 C   0  0  0  0  0  3  0  0  0  0  0  0
  194.5660  177.0000  146.0360 C   0  0  0  0  0  3  0  0  0  0  0  0
  189.1000  174.7040  143.8470 O   0  0  0  0  0  0  0  0  0  0  0  0
  187.5760  178.0370  143.0820 C   0  0  0  0  0  2  0  0  0  0  0  0
  190.6130  178.0960  144.3150 C   0  0  0  0  0  1  0  0  0  0  0  0
  184.8090  177.9090  145.6300 C   0  0  2  0  0  3  0  0  0  0  0  0
  190.4840  177.1580  147.0640 O   0  0  0  0  0  1  0  0  0  0  0  0
  189.5660  176.6660  146.1330 C   0  0  1  0  0  3  0  0  0  0  0  0
  186.3370  178.6850  143.6860 C   0  0  0  0  0  2  0  0  0  0  0  0
  189.1710  176.1210  143.7040 C   0  0  1  0  0  3  0  0  0  0  0  0
  185.8330  178.7770  146.0720 O   0  0  0  0  0  0  0  0  0  0  0  0
  184.7020  176.8330  146.5120 O   0  0  0  0  0  1  0  0  0  0  0  0
  186.1420  177.9400  144.9840 C   0  0  1  0  0  0  0  0  0  0  0  0
  188.2810  177.4770  146.1910 C   0  0  0  0  0  2  0  0  0  0  0  0
  187.7580  176.7130  143.8220 C   0  0  1  0  0  3  0  0  0  0  0  0
  190.1590  176.7020  144.7240 C   0  0  1  0  0  3  0  0  0  0  0  0
  187.2190  176.9020  145.2440 C   0  0  2  0  0  3  0  0  0  0  0  0
  1  9  1  0  0  0  0
  2 12  2  0  0  0  0
  4 10  1  0  0  0  0
  5 10  2  0  0  0  0
  6  3  1  1  0  0  0
  6  7  1  0  0  0  0
  7  9  1  0  0  0  0
  7  4  1  1  0  0  0
  8  6  1  0  0  0  0
  8  1  2  0  0  0  0
  9  5  1  1  0  0  0
 10 23  1  0  0  0  0
 11  1  1  0  0  0  0
 11 12  1  0  0  0  0
 12 13  1  0  0  0  0
 13 15  1  6  0  0  0
 13 16  1  0  0  0  0
 15 14  1  0  0  0  0
 16 18  1  0  0  0  0
 17 20  1  0  0  0  0
 18 19  1  0  0  0  0
 18 17  2  0  0  0  0
 19 22  2  0  0  0  0
 20 21  2  0  0  0  0
 22 21  1  0  0  0  0
 24 29  1  0  0  0  0
 26 31  1  0  0  0  0
 26 32  1  1  0  0  0
 28 34  1  0  0  0  0
 28 27  1  1  0  0  0
 30 35  1  0  0  0  0
 30 23  1  1  0  0  0
 30 36  1  0  0  0  0
 33 29  1  6  0  0  0
 33 37  1  0  0  0  0
 33 26  1  0  0  0  0
 33 31  1  0  0  0  0
 35 24  1  1  0  0  0
 35 37  1  0  0  0  0
 36 25  1  6  0  0  0
 36 28  1  0  0  0  0
 37 34  1  1  0  0  0
M  END
>  <MODEL>
4

>  <REMARK>
 VINA RESULT:      -7.3      3.154      7.043
  Name = 
  6 active torsions:
  status: ('A' for Active; 'I' for Inactive)
    1  A    between atoms: C_8  and  O_20
    2  A    between atoms: C_8  and  C_24
    3  A    between atoms: C_8  and  C_34
    4  A    between atoms: C_9  and  O_20
    5  A    between atoms: O_16  and  C_17
    6  A    between atoms: O_16  and  C_29
                            x       y       z     vdW  Elec       q    Type
                         _______ _______ _______ _____ _____    ______ ____

>  <TORSDO>
F 6

$$$$
=
 OpenBabel11062421563D

 37 42  0  0  1  0  0  0  0  0999 V2000
  185.9880  177.3900  143.5960 C   0  0  0  0  0  0  0  0  0  0  0  0
  184.5430  176.5370  146.8740 O   0  0  0  0  0  0  0  0  0  0  0  0
  186.9370  176.9870  140.4540 N   0  0  0  0  0  1  0  0  0  0  0  0
  188.9970  177.9290  142.0120 C   0  0  0  0  0  2  0  0  0  0  0  0
  188.3740  177.2170  144.1500 C   0  0  0  0  0  3  0  0  0  0  0  0
  186.4760  177.9470  141.4480 C   0  0  2  0  0  3  0  0  0  0  0  0
  187.6180  178.5300  142.3060 C   0  0  1  0  0  3  0  0  0  0  0  0
  185.5790  177.2930  142.3810 N   0  0  0  0  0  0  0  0  0  0  0  0
  187.2730  178.1320  143.7470 C   0  0  1  0  0  3  0  0  0  0  0  0
  189.3010  177.1260  143.2160 C   0  0  0  0  0  0  0  0  0  0  0  0
  185.1890  176.8780  144.6730 N   0  0  0  0  0  2  0  0  0  0  0  0
  185.4180  176.9820  146.0850 C   0  0  0  0  0  0  0  0  0  0  0  0
  186.6480  177.6260  146.6490 C   0  0  1  0  0  3  0  0  0  0  0  0
  185.5660  179.7390  146.6510 F   0  0  0  0  0  0  0  0  0  0  0  0
  186.2630  178.8540  147.4530 C   0  0  0  0  0  2  0  0  0  0  0  0
  187.3710  176.7150  147.4760 O   0  0  0  0  0  0  0  0  0  0  0  0
  188.9420  174.9700  146.9270 C   0  0  0  0  0  3  0  0  0  0  0  0
  188.6890  176.3140  147.2240 C   0  0  0  0  0  0  0  0  0  0  0  0
  189.7600  177.2220  147.2620 C   0  0  0  0  0  3  0  0  0  0  0  0
  190.2460  174.5360  146.6700 C   0  0  0  0  0  3  0  0  0  0  0  0
  191.3070  175.4460  146.7090 C   0  0  0  0  0  3  0  0  0  0  0  0
  191.0630  176.7890  147.0040 C   0  0  0  0  0  3  0  0  0  0  0  0
  190.4610  176.3550  143.3330 O   0  0  0  0  0  0  0  0  0  0  0  0
  193.1310  174.4390  141.5400 C   0  0  0  0  0  2  0  0  0  0  0  0
  190.0430  173.7310  140.6960 C   0  0  0  0  0  1  0  0  0  0  0  0
  194.4580  172.5480  144.5110 C   0  0  2  0  0  3  0  0  0  0  0  0
  188.7630  172.4470  142.9690 O   0  0  0  0  0  1  0  0  0  0  0  0
  189.7690  173.3890  143.1960 C   0  0  1  0  0  3  0  0  0  0  0  0
  194.1620  173.4720  142.1070 C   0  0  0  0  0  2  0  0  0  0  0  0
  190.9040  175.4600  142.3150 C   0  0  1  0  0  3  0  0  0  0  0  0
  193.6750  171.6920  143.7040 O   0  0  0  0  0  0  0  0  0  0  0  0
  193.8600  172.6780  145.7640 O   0  0  0  0  0  1  0  0  0  0  0  0
  193.5780  173.0700  143.4400 C   0  0  1  0  0  0  0  0  0  0  0  0
  191.1080  172.6900  143.3640 C   0  0  0  0  0  2  0  0  0  0  0  0
  192.2610  174.8650  142.7220 C   0  0  1  0  0  3  0  0  0  0  0  0
  189.8300  174.3970  142.0480 C   0  0  1  0  0  3  0  0  0  0  0  0
  192.2190  173.6920  143.7080 C   0  0  2  0  0  3  0  0  0  0  0  0
  1  9  1  0  0  0  0
  1 11  1  0  0  0  0
  4 10  1  0  0  0  0
  6  3  1  6  0  0  0
  6  7  1  0  0  0  0
  6  8  1  0  0  0  0
  7  4  1  6  0  0  0
  7  9  1  0  0  0  0
  8  1  2  0  0  0  0
  9  5  1  6  0  0  0
 10 23  1  0  0  0  0
 10  5  2  0  0  0  0
 11 12  1  0  0  0  0
 12 13  1  0  0  0  0
 12  2  2  0  0  0  0
 13 15  1  1  0  0  0
 13 16  1  0  0  0  0
 14 15  1  0  0  0  0
 17 18  1  0  0  0  0
 18 19  2  0  0  0  0
 18 16  1  0  0  0  0
 20 21  1  0  0  0  0
 20 17  2  0  0  0  0
 21 22  2  0  0  0  0
 22 19  1  0  0  0  0
 24 29  1  0  0  0  0
 26 32  1  1  0  0  0
 28 27  1  6  0  0  0
 28 34  1  0  0  0  0
 30 35  1  0  0  0  0
 30 23  1  1  0  0  0
 31 26  1  0  0  0  0
 33 29  1  6  0  0  0
 33 31  1  0  0  0  0
 33 37  1  0  0  0  0
 33 26  1  0  0  0  0
 35 24  1  6  0  0  0
 35 37  1  0  0  0  0
 36 25  1  6  0  0  0
 36 30  1  0  0  0  0
 36 28  1  0  0  0  0
 37 34  1  6  0  0  0
M  END
>  <MODEL>
5

>  <REMARK>
 VINA RESULT:      -7.3      1.417      3.040
  Name = 
  6 active torsions:
  status: ('A' for Active; 'I' for Inactive)
    1  A    between atoms: C_8  and  O_20
    2  A    between atoms: C_8  and  C_24
    3  A    between atoms: C_8  and  C_34
    4  A    between atoms: C_9  and  O_20
    5  A    between atoms: O_16  and  C_17
    6  A    between atoms: O_16  and  C_29
                            x       y       z     vdW  Elec       q    Type
                         _______ _______ _______ _____ _____    ______ ____

>  <TORSDO>
F 6

$$$$
=
 OpenBabel11062421563D

 37 42  0  0  1  0  0  0  0  0999 V2000
  189.2260  177.3400  144.9970 C   0  0  0  0  0  0  0  0  0  0  0  0
  188.4270  178.3970  141.5620 O   0  0  0  0  0  0  0  0  0  0  0  0
  191.0300  176.8600  147.7270 N   0  0  0  0  0  1  0  0  0  0  0  0
  189.8080  174.5370  146.9100 C   0  0  0  0  0  2  0  0  0  0  0  0
  189.4690  174.9240  144.6290 C   0  0  0  0  0  3  0  0  0  0  0  0
  189.6910  177.1010  147.2080 C   0  0  2  0  0  3  0  0  0  0  0  0
  188.9600  175.8080  146.7870 C   0  0  1  0  0  3  0  0  0  0  0  0
  189.7680  177.9160  146.0120 N   0  0  0  0  0  0  0  0  0  0  0  0
  188.6680  175.9880  145.2920 C   0  0  1  0  0  3  0  0  0  0  0  0
  190.0660  174.1430  145.5090 C   0  0  0  0  0  0  0  0  0  0  0  0
  189.1290  178.0270  143.7410 N   0  0  0  0  0  2  0  0  0  0  0  0
  188.4740  177.6020  142.5380 C   0  0  0  0  0  0  0  0  0  0  0  0
  187.8250  176.2580  142.4140 C   0  0  1  0  0  3  0  0  0  0  0  0
  185.7850  176.0430  143.6080 F   0  0  0  0  0  0  0  0  0  0  0  0
  186.3160  176.4160  142.3870 C   0  0  0  0  0  2  0  0  0  0  0  0
  188.2600  175.5830  141.2340 O   0  0  0  0  0  0  0  0  0  0  0  0
  188.3500  173.2900  141.9740 C   0  0  0  0  0  3  0  0  0  0  0  0
  188.9100  174.3430  141.2410 C   0  0  0  0  0  0  0  0  0  0  0  0
  190.1050  174.1280  140.5340 C   0  0  0  0  0  3  0  0  0  0  0  0
  188.9730  172.0390  142.0020 C   0  0  0  0  0  3  0  0  0  0  0  0
  190.1610  171.8320  141.2960 C   0  0  0  0  0  3  0  0  0  0  0  0
  190.7260  172.8770  140.5610 C   0  0  0  0  0  3  0  0  0  0  0  0
  190.8660  173.0470  145.1710 O   0  0  0  0  0  0  0  0  0  0  0  0
  193.0460  174.8970  142.7550 C   0  0  0  0  0  2  0  0  0  0  0  0
  193.6620  171.6930  143.0830 C   0  0  0  0  0  1  0  0  0  0  0  0
  194.7640  177.1280  145.2520 C   0  0  2  0  0  3  0  0  0  0  0  0
  194.7000  171.2500  145.7630 O   0  0  0  0  0  1  0  0  0  0  0  0
  193.7950  172.2900  145.5470 C   0  0  1  0  0  3  0  0  0  0  0  0
  194.0160  176.0410  143.0210 C   0  0  0  0  0  2  0  0  0  0  0  0
  191.8580  173.0950  144.1480 C   0  0  1  0  0  3  0  0  0  0  0  0
  195.6410  176.0970  144.8420 O   0  0  0  0  0  0  0  0  0  0  0  0
  194.5070  177.0000  146.6170 O   0  0  0  0  0  1  0  0  0  0  0  0
  194.2830  175.9430  144.5040 C   0  0  1  0  0  0  0  0  0  0  0  0
  194.5450  173.5920  145.3100 C   0  0  0  0  0  2  0  0  0  0  0  0
  192.4870  174.4960  144.1190 C   0  0  1  0  0  3  0  0  0  0  0  0
  192.8830  171.9730  144.3610 C   0  0  1  0  0  3  0  0  0  0  0  0
  193.5760  174.7720  145.1620 C   0  0  2  0  0  3  0  0  0  0  0  0
  1  9  1  0  0  0  0
  1  8  2  0  0  0  0
  2 12  2  0  0  0  0
  5 10  2  0  0  0  0
  6  3  1  6  0  0  0
  7  4  1  6  0  0  0
  7  6  1  0  0  0  0
  8  6  1  0  0  0  0
  9  5  1  6  0  0  0
  9  7  1  0  0  0  0
 10  4  1  0  0  0  0
 11  1  1  0  0  0  0
 12 11  1  0  0  0  0
 13 15  1  6  0  0  0
 13 12  1  0  0  0  0
 15 14  1  0  0  0  0
 16 18  1  0  0  0  0
 16 13  1  0  0  0  0
 17 20  1  0  0  0  0
 18 17  2  0  0  0  0
 19 22  2  0  0  0  0
 19 18  1  0  0  0  0
 21 20  2  0  0  0  0
 22 21  1  0  0  0  0
 23 10  1  0  0  0  0
 24 29  1  0  0  0  0
 26 32  1  1  0  0  0
 28 27  1  6  0  0  0
 30 36  1  0  0  0  0
 30 23  1  1  0  0  0
 31 26  1  0  0  0  0
 33 29  1  6  0  0  0
 33 31  1  0  0  0  0
 33 37  1  0  0  0  0
 33 26  1  0  0  0  0
 34 28  1  0  0  0  0
 35 24  1  6  0  0  0
 35 30  1  0  0  0  0
 35 37  1  0  0  0  0
 36 25  1  6  0  0  0
 36 28  1  0  0  0  0
 37 34  1  6  0  0  0
M  END
>  <MODEL>
6

>  <REMARK>
 VINA RESULT:      -7.3      2.909      5.894
  Name = 
  6 active torsions:
  status: ('A' for Active; 'I' for Inactive)
    1  A    between atoms: C_8  and  O_20
    2  A    between atoms: C_8  and  C_24
    3  A    between atoms: C_8  and  C_34
    4  A    between atoms: C_9  and  O_20
    5  A    between atoms: O_16  and  C_17
    6  A    between atoms: O_16  and  C_29
                            x       y       z     vdW  Elec       q    Type
                         _______ _______ _______ _____ _____    ______ ____

>  <TORSDO>
F 6

$$$$
=
 OpenBabel11062421563D

 37 42  0  0  1  0  0  0  0  0999 V2000
  185.5540  177.8670  143.6460 C   0  0  0  0  0  0  0  0  0  0  0  0
  184.3650  177.0950  147.0450 O   0  0  0  0  0  0  0  0  0  0  0  0
  185.9460  177.5480  140.3780 N   0  0  0  0  0  1  0  0  0  0  0  0
  188.3670  177.7570  141.6640 C   0  0  0  0  0  2  0  0  0  0  0  0
  187.8540  177.0220  143.8230 C   0  0  0  0  0  3  0  0  0  0  0  0
  185.8960  178.4900  141.4880 C   0  0  2  0  0  3  0  0  0  0  0  0
  187.2550  178.6650  142.1990 C   0  0  1  0  0  3  0  0  0  0  0  0
  184.9820  178.0030  142.5020 N   0  0  0  0  0  0  0  0  0  0  0  0
  187.0020  178.2290  143.6480 C   0  0  1  0  0  3  0  0  0  0  0  0
  188.5920  176.7860  142.7550 C   0  0  0  0  0  0  0  0  0  0  0  0
  184.7910  177.4750  144.7970 N   0  0  0  0  0  2  0  0  0  0  0  0
  185.2190  177.3740  146.1620 C   0  0  0  0  0  0  0  0  0  0  0  0
  186.6400  177.6140  146.5730 C   0  0  1  0  0  3  0  0  0  0  0  0
  185.9420  179.7890  147.2160 F   0  0  0  0  0  0  0  0  0  0  0  0
  186.6930  178.7040  147.6270 C   0  0  0  0  0  2  0  0  0  0  0  0
  187.2360  176.4210  147.0830 O   0  0  0  0  0  0  0  0  0  0  0  0
  189.5420  177.0960  146.8850 C   0  0  0  0  0  3  0  0  0  0  0  0
  188.5800  176.0800  146.8900 C   0  0  0  0  0  0  0  0  0  0  0  0
  188.9870  174.7480  146.7030 C   0  0  0  0  0  3  0  0  0  0  0  0
  190.8930  176.7890  146.6960 C   0  0  0  0  0  3  0  0  0  0  0  0
  191.2900  175.4620  146.5110 C   0  0  0  0  0  3  0  0  0  0  0  0
  190.3370  174.4420  146.5160 C   0  0  0  0  0  3  0  0  0  0  0  0
  189.5030  175.7310  142.6480 O   0  0  0  0  0  0  0  0  0  0  0  0
  188.1900  173.0070  140.4400 C   0  0  0  0  0  2  0  0  0  0  0  0
  189.3130  172.0640  143.3730 C   0  0  0  0  0  1  0  0  0  0  0  0
  190.7910  173.2720  137.7330 C   0  0  2  0  0  3  0  0  0  0  0  0
  192.1890  172.4930  143.4130 O   0  0  0  0  0  1  0  0  0  0  0  0
  191.3860  173.3330  142.6390 C   0  0  1  0  0  3  0  0  0  0  0  0
  188.7000  172.5460  139.0810 C   0  0  0  0  0  2  0  0  0  0  0  0
  189.1050  174.3830  142.4080 C   0  0  1  0  0  3  0  0  0  0  0  0
  191.0430  172.1350  138.5350 O   0  0  0  0  0  0  0  0  0  0  0  0
  191.8550  174.1670  137.8520 O   0  0  0  0  0  1  0  0  0  0  0  0
  190.1160  173.0680  139.0360 C   0  0  1  0  0  0  0  0  0  0  0  0
  191.3300  172.8260  141.2070 C   0  0  0  0  0  2  0  0  0  0  0  0
  189.1520  174.1030  140.8980 C   0  0  1  0  0  3  0  0  0  0  0  0
  189.9780  173.4260  143.2300 C   0  0  1  0  0  3  0  0  0  0  0  0
  190.5300  173.7810  140.3100 C   0  0  2  0  0  3  0  0  0  0  0  0
  1  9  1  0  0  0  0
  1 11  1  0  0  0  0
  4 10  1  0  0  0  0
  6  3  1  6  0  0  0
  6  7  1  0  0  0  0
  6  8  1  0  0  0  0
  7  4  1  6  0  0  0
  7  9  1  0  0  0  0
  8  1  2  0  0  0  0
  9  5  1  6  0  0  0
 10  5  2  0  0  0  0
 11 12  1  0  0  0  0
 12 13  1  0  0  0  0
 12  2  2  0  0  0  0
 13 16  1  0  0  0  0
 13 15  1  1  0  0  0
 14 15  1  0  0  0  0
 17 18  1  0  0  0  0
 18 16  1  0  0  0  0
 19 18  2  0  0  0  0
 20 17  2  0  0  0  0
 21 22  2  0  0  0  0
 21 20  1  0  0  0  0
 22 19  1  0  0  0  0
 23 10  1  0  0  0  0
 26 32  1  1  0  0  0
 26 31  1  0  0  0  0
 26 33  1  0  0  0  0
 28 36  1  0  0  0  0
 28 27  1  1  0  0  0
 29 24  1  0  0  0  0
 30 23  1  6  0  0  0
 30 36  1  0  0  0  0
 31 33  1  0  0  0  0
 33 29  1  6  0  0  0
 33 37  1  0  0  0  0
 34 28  1  0  0  0  0
 35 24  1  1  0  0  0
 35 30  1  0  0  0  0
 36 25  1  6  0  0  0
 37 35  1  0  0  0  0
 37 34  1  1  0  0  0
M  END
>  <MODEL>
7

>  <REMARK>
 VINA RESULT:      -7.3      1.375      1.977
  Name = 
  6 active torsions:
  status: ('A' for Active; 'I' for Inactive)
    1  A    between atoms: C_8  and  O_20
    2  A    between atoms: C_8  and  C_24
    3  A    between atoms: C_8  and  C_34
    4  A    between atoms: C_9  and  O_20
    5  A    between atoms: O_16  and  C_17
    6  A    between atoms: O_16  and  C_29
                            x       y       z     vdW  Elec       q    Type
                         _______ _______ _______ _____ _____    ______ ____

>  <TORSDO>
F 6

$$$$
=
 OpenBabel11062421563D

 37 42  0  0  1  0  0  0  0  0999 V2000
  185.5650  177.9210  143.5000 C   0  0  0  0  0  0  0  0  0  0  0  0
  184.0440  177.5670  146.8350 O   0  0  0  0  0  0  0  0  0  0  0  0
  186.3080  177.1810  140.3640 N   0  0  0  0  0  1  0  0  0  0  0  0
  188.5730  177.6620  141.8460 C   0  0  0  0  0  2  0  0  0  0  0  0
  187.8550  177.2040  144.0230 C   0  0  0  0  0  3  0  0  0  0  0  0
  186.1150  178.2610  141.3220 C   0  0  2  0  0  3  0  0  0  0  0  0
  187.3860  178.5870  142.1350 C   0  0  1  0  0  3  0  0  0  0  0  0
  185.1130  177.8780  142.2960 N   0  0  0  0  0  0  0  0  0  0  0  0
  186.9930  178.3400  143.5970 C   0  0  1  0  0  3  0  0  0  0  0  0
  188.7080  176.8570  143.0790 C   0  0  0  0  0  0  0  0  0  0  0  0
  184.6950  177.6570  144.6100 N   0  0  0  0  0  2  0  0  0  0  0  0
  184.9790  177.7590  146.0120 C   0  0  0  0  0  0  0  0  0  0  0  0
  186.3410  178.1110  146.5280 C   0  0  1  0  0  3  0  0  0  0  0  0
  187.0160  179.2130  148.5190 F   0  0  0  0  0  0  0  0  0  0  0  0
  186.2620  179.3700  147.3710 C   0  0  0  0  0  2  0  0  0  0  0  0
  186.8880  177.0450  147.3040 O   0  0  0  0  0  0  0  0  0  0  0  0
  189.2370  177.4510  146.9370 C   0  0  0  0  0  3  0  0  0  0  0  0
  188.1870  176.5470  147.1350 C   0  0  0  0  0  0  0  0  0  0  0  0
  188.4610  175.1700  147.1620 C   0  0  0  0  0  3  0  0  0  0  0  0
  190.5450  176.9870  146.7660 C   0  0  0  0  0  3  0  0  0  0  0  0
  190.8100  175.6150  146.7940 C   0  0  0  0  0  3  0  0  0  0  0  0
  189.7680  174.7070  146.9930 C   0  0  0  0  0  3  0  0  0  0  0  0
  189.6530  175.8360  143.2100 O   0  0  0  0  0  0  0  0  0  0  0  0
  189.3280  173.2660  140.5070 C   0  0  0  0  0  2  0  0  0  0  0  0
  189.3800  172.1210  143.5790 C   0  0  0  0  0  1  0  0  0  0  0  0
  192.7040  173.7830  138.9280 C   0  0  2  0  0  3  0  0  0  0  0  0
  192.0330  172.5960  144.6690 O   0  0  0  0  0  1  0  0  0  0  0  0
  191.5200  173.4790  143.7170 C   0  0  1  0  0  3  0  0  0  0  0  0
  190.3050  172.9200  139.3920 C   0  0  0  0  0  2  0  0  0  0  0  0
  189.4260  174.5030  142.7570 C   0  0  1  0  0  3  0  0  0  0  0  0
  192.7050  172.5930  139.6910 O   0  0  0  0  0  0  0  0  0  0  0  0
  193.6170  174.6850  139.4770 O   0  0  0  0  0  1  0  0  0  0  0  0
  191.6210  173.4690  139.8880 C   0  0  1  0  0  0  0  0  0  0  0  0
  191.9970  173.0830  142.3290 C   0  0  0  0  0  2  0  0  0  0  0  0
  190.0160  174.3410  141.3480 C   0  0  1  0  0  3  0  0  0  0  0  0
  189.9920  173.5010  143.7720 C   0  0  1  0  0  3  0  0  0  0  0  0
  191.5260  174.0890  141.2710 C   0  0  2  0  0  3  0  0  0  0  0  0
  1  9  1  0  0  0  0
  1 11  1  0  0  0  0
  4 10  1  0  0  0  0
  6  3  1  6  0  0  0
  6  7  1  0  0  0  0
  6  8  1  0  0  0  0
  7  4  1  6  0  0  0
  7  9  1  0  0  0  0
  8  1  2  0  0  0  0
  9  5  1  6  0  0  0
 10 23  1  0  0  0  0
 10  5  2  0  0  0  0
 11 12  1  0  0  0  0
 12 13  1  0  0  0  0
 12  2  2  0  0  0  0
 13 16  1  0  0  0  0
 13 15  1  1  0  0  0
 15 14  1  0  0  0  0
 17 18  1  0  0  0  0
 18 19  2  0  0  0  0
 18 16  1  0  0  0  0
 20 21  1  0  0  0  0
 20 17  2  0  0  0  0
 21 22  2  0  0  0  0
 22 19  1  0  0  0  0
 26 32  1  1  0  0  0
 26 31  1  0  0  0  0
 26 33  1  0  0  0  0
 28 36  1  0  0  0  0
 28 27  1  1  0  0  0
 29 24  1  0  0  0  0
 30 23  1  1  0  0  0
 30 36  1  0  0  0  0
 31 33  1  0  0  0  0
 33 29  1  6  0  0  0
 33 37  1  0  0  0  0
 34 28  1  0  0  0  0
 35 24  1  1  0  0  0
 35 30  1  0  0  0  0
 36 25  1  6  0  0  0
 37 35  1  0  0  0  0
 37 34  1  1  0  0  0
M  END
>  <MODEL>
8

>  <REMARK>
 VINA RESULT:      -7.3      1.276      2.181
  Name = 
  6 active torsions:
  status: ('A' for Active; 'I' for Inactive)
    1  A    between atoms: C_8  and  O_20
    2  A    between atoms: C_8  and  C_24
    3  A    between atoms: C_8  and  C_34
    4  A    between atoms: C_9  and  O_20
    5  A    between atoms: O_16  and  C_17
    6  A    between atoms: O_16  and  C_29
                            x       y       z     vdW  Elec       q    Type
                         _______ _______ _______ _____ _____    ______ ____

>  <TORSDO>
F 6

$$$$
=
 OpenBabel11062421563D

 37 42  0  0  1  0  0  0  0  0999 V2000
  191.5280  173.0660  141.4010 C   0  0  0  0  0  0  0  0  0  0  0  0
  194.9720  174.2870  140.9470 O   0  0  0  0  0  0  0  0  0  0  0  0
  188.2220  173.1200  141.4150 N   0  0  0  0  0  1  0  0  0  0  0  0
  189.2220  172.2830  143.8350 C   0  0  0  0  0  2  0  0  0  0  0  0
  191.3620  173.2260  143.8460 C   0  0  0  0  0  3  0  0  0  0  0  0
  189.4010  172.2800  141.2570 C   0  0  2  0  0  3  0  0  0  0  0  0
  189.9560  171.7540  142.5980 C   0  0  1  0  0  3  0  0  0  0  0  0
  190.4750  173.0500  140.6620 N   0  0  0  0  0  0  0  0  0  0  0  0
  191.3860  172.3060  142.6770 C   0  0  1  0  0  3  0  0  0  0  0  0
  190.1990  173.1950  144.4670 C   0  0  0  0  0  0  0  0  0  0  0  0
  192.7260  173.7070  140.9400 N   0  0  0  0  0  2  0  0  0  0  0  0
  194.0180  173.7390  141.5620 C   0  0  0  0  0  0  0  0  0  0  0  0
  194.2760  173.1220  142.9020 C   0  0  1  0  0  3  0  0  0  0  0  0
  194.2700  170.8400  143.5550 F   0  0  0  0  0  0  0  0  0  0  0  0
  194.8980  171.7490  142.7250 C   0  0  0  0  0  2  0  0  0  0  0  0
  195.1360  173.9440  143.6900 O   0  0  0  0  0  0  0  0  0  0  0  0
  195.0060  176.2230  144.4670 C   0  0  0  0  0  3  0  0  0  0  0  0
  194.6760  174.8730  144.6320 C   0  0  0  0  0  0  0  0  0  0  0  0
  193.8960  174.4860  145.7340 C   0  0  0  0  0  3  0  0  0  0  0  0
  194.5630  177.1760  145.3890 C   0  0  0  0  0  3  0  0  0  0  0  0
  193.7860  176.7840  146.4830 C   0  0  0  0  0  3  0  0  0  0  0  0
  193.4520  175.4390  146.6540 C   0  0  0  0  0  3  0  0  0  0  0  0
  189.9010  173.9410  145.6110 O   0  0  0  0  0  0  0  0  0  0  0  0
  190.7930  177.2640  144.1370 C   0  0  0  0  0  2  0  0  0  0  0  0
  189.8070  177.2980  147.2640 C   0  0  0  0  0  1  0  0  0  0  0  0
  188.0360  177.4250  141.5810 C   0  0  2  0  0  3  0  0  0  0  0  0
  186.9930  176.5670  147.3250 O   0  0  0  0  0  1  0  0  0  0  0  0
  187.8110  176.0440  146.3210 C   0  0  1  0  0  3  0  0  0  0  0  0
  190.1450  178.0010  142.9720 C   0  0  0  0  0  2  0  0  0  0  0  0
  190.1540  175.3400  145.7150 C   0  0  1  0  0  3  0  0  0  0  0  0
  187.7410  178.2840  142.6640 O   0  0  0  0  0  0  0  0  0  0  0  0
  187.0690  176.4210  141.5110 O   0  0  0  0  0  1  0  0  0  0  0  0
  188.7830  177.3590  142.8580 C   0  0  1  0  0  0  0  0  0  0  0  0
  187.7150  176.9050  145.0710 C   0  0  0  0  0  2  0  0  0  0  0  0
  189.9720  175.9910  144.3360 C   0  0  1  0  0  3  0  0  0  0  0  0
  189.2600  175.9550  146.8000 C   0  0  1  0  0  3  0  0  0  0  0  0
  188.5300  176.3030  143.9190 C   0  0  2  0  0  3  0  0  0  0  0  0
  1  9  1  0  0  0  0
  2 12  2  0  0  0  0
  4 10  1  0  0  0  0
  5 10  2  0  0  0  0
  6  3  1  1  0  0  0
  6  7  1  0  0  0  0
  7  9  1  0  0  0  0
  7  4  1  1  0  0  0
  8  6  1  0  0  0  0
  8  1  2  0  0  0  0
  9  5  1  1  0  0  0
 10 23  1  0  0  0  0
 11  1  1  0  0  0  0
 11 12  1  0  0  0  0
 12 13  1  0  0  0  0
 13 15  1  6  0  0  0
 13 16  1  0  0  0  0
 15 14  1  0  0  0  0
 16 18  1  0  0  0  0
 17 18  2  0  0  0  0
 17 20  1  0  0  0  0
 18 19  1  0  0  0  0
 19 22  2  0  0  0  0
 20 21  2  0  0  0  0
 21 22  1  0  0  0  0
 26 32  1  1  0  0  0
 26 31  1  0  0  0  0
 26 33  1  0  0  0  0
 28 36  1  0  0  0  0
 28 27  1  1  0  0  0
 29 24  1  0  0  0  0
 30 23  1  6  0  0  0
 30 36  1  0  0  0  0
 31 33  1  0  0  0  0
 33 29  1  6  0  0  0
 33 37  1  0  0  0  0
 34 28  1  0  0  0  0
 35 24  1  1  0  0  0
 35 30  1  0  0  0  0
 36 25  1  6  0  0  0
 37 35  1  0  0  0  0
 37 34  1  1  0  0  0
M  END
>  <MODEL>
9

>  <REMARK>
 VINA RESULT:      -7.1      3.280      6.898
  Name = 
  6 active torsions:
  status: ('A' for Active; 'I' for Inactive)
    1  A    between atoms: C_8  and  O_20
    2  A    between atoms: C_8  and  C_24
    3  A    between atoms: C_8  and  C_34
    4  A    between atoms: C_9  and  O_20
    5  A    between atoms: O_16  and  C_17
    6  A    between atoms: O_16  and  C_29
                            x       y       z     vdW  Elec       q    Type
                         _______ _______ _______ _____ _____    ______ ____

>  <TORSDO>
F 6

$$$$
