=
 OpenBabel11072409233D

 39 43  0  0  1  0  0  0  0  0999 V2000
  192.7250  173.7820  144.4570 C   0  0  0  0  0  0  0  0  0  0  0  0
  185.6730  178.1090  144.5380 C   0  0  0  0  0  0  0  0  0  0  0  0
  191.4460  174.2550  144.4120 C   0  0  0  0  0  0  0  0  0  0  0  0
  186.0620  178.0780  145.8730 C   0  0  0  0  0  3  0  0  0  0  0  0
  188.2090  174.5230  140.5630 C   0  0  0  0  0  2  0  0  0  0  0  0
  190.7260  174.3450  143.2280 C   0  0  0  0  0  3  0  0  0  0  0  0
  184.3640  178.3390  140.1890 Cl  0  0  0  0  0  0  0  0  0  0  0  0
  191.3570  173.9070  142.0440 C   0  0  0  0  0  0  0  0  0  0  0  0
  189.8100  177.5360  145.6220 C   0  0  0  0  0  2  0  0  0  0  0  0
  189.0250  177.6090  142.7840 C   0  0  0  0  0  0  0  0  0  0  0  0
  191.1340  174.5660  145.7090 C   0  0  0  0  0  0  0  0  0  0  0  0
  190.0010  178.4050  142.7850 O   0  0  0  0  0  0  0  0  0  0  0  0
  189.9830  176.5070  146.7360 C   0  0  0  0  0  2  0  0  0  0  0  0
  188.9400  176.6310  141.7380 N   0  0  0  0  0  2  0  0  0  0  0  0
  192.2050  174.2850  146.4890 N   0  0  0  0  0  0  0  0  0  0  0  0
  187.4380  175.1240  142.7330 O   0  0  0  0  0  0  0  0  0  0  0  0
  189.3460  174.2660  147.2240 O   0  0  0  0  0  1  0  0  0  0  0  0
  189.8260  175.0920  146.2070 C   0  0  2  0  0  3  0  0  0  0  0  0
  195.0270  172.7410  143.3610 Cl  0  0  0  0  0  0  0  0  0  0  0  0
  187.4010  177.8860  146.2060 C   0  0  0  0  0  3  0  0  0  0  0  0
  188.3710  177.7020  145.2110 C   0  0  0  0  0  0  0  0  0  0  0  0
  193.1820  173.8050  145.7220 N   0  0  0  0  0  2  0  0  0  0  0  0
  186.2120  178.0380  142.1730 C   0  0  0  0  0  3  0  0  0  0  0  0
  190.6600  174.0190  140.7260 C   0  0  0  0  0  2  0  0  0  0  0  0
  187.9950  177.7350  143.8450 C   0  0  0  0  0  0  0  0  0  0  0  0
  184.8680  178.2490  141.8620 C   0  0  0  0  0  0  0  0  0  0  0  0
  192.6840  173.4210  142.0870 C   0  0  0  0  0  3  0  0  0  0  0  0
  188.1360  175.4440  141.7340 C   0  0  0  0  0  0  0  0  0  0  0  0
  193.3840  173.3500  143.3080 C   0  0  0  0  0  0  0  0  0  0  0  0
  183.9260  178.3870  142.8830 C   0  0  0  0  0  3  0  0  0  0  0  0
  189.2540  173.4340  140.7900 C   0  0  2  0  0  3  0  0  0  0  0  0
  184.3280  178.3210  144.2190 C   0  0  0  0  0  3  0  0  0  0  0  0
  186.6350  177.9520  143.5100 C   0  0  0  0  0  0  0  0  0  0  0  0
  189.1160  172.3480  139.7370 C   0  0  0  0  0  2  0  0  0  0  0  0
  190.4670  172.0020  139.1220 C   0  0  0  0  0  2  0  0  0  0  0  0
  190.7630  170.5110  139.2330 C   0  0  0  0  0  2  0  0  0  0  0  0
  191.6840  170.2110  140.4080 C   0  0  0  0  0  2  0  0  0  0  0  0
  190.5150  170.5580  142.4610 O   0  0  0  0  0  1  0  0  0  0  0  0
  190.9200  169.5750  141.5580 C   0  0  0  0  0  2  0  0  0  0  0  0
  1 22  1  0  0  0  0
  2  4  2  0  0  0  0
  3  1  2  0  0  0  0
  3 11  1  0  0  0  0
  4 20  1  0  0  0  0
  5 31  1  0  0  0  0
  5 28  1  0  0  0  0
  6  3  1  0  0  0  0
  7 26  1  0  0  0  0
  8 27  1  0  0  0  0
  8  6  2  0  0  0  0
  9 13  1  0  0  0  0
 10 12  2  0  0  0  0
 10 25  1  0  0  0  0
 11 18  1  0  0  0  0
 11 15  2  0  0  0  0
 14 10  1  0  0  0  0
 18 13  1  0  0  0  0
 18 17  1  1  0  0  0
 21  9  1  0  0  0  0
 21 20  2  0  0  0  0
 22 15  1  0  0  0  0
 23 33  1  0  0  0  0
 24 31  1  0  0  0  0
 24  8  1  0  0  0  0
 25 21  1  0  0  0  0
 26 23  2  0  0  0  0
 26 30  1  0  0  0  0
 27 29  2  0  0  0  0
 28 14  1  0  0  0  0
 28 16  2  0  0  0  0
 29 19  1  0  0  0  0
 29  1  1  0  0  0  0
 30 32  2  0  0  0  0
 31 34  1  6  0  0  0
 32  2  1  0  0  0  0
 33 25  2  0  0  0  0
 33  2  1  0  0  0  0
 35 36  1  0  0  0  0
 35 34  1  0  0  0  0
 36 37  1  0  0  0  0
 37 39  1  0  0  0  0
 39 38  1  0  0  0  0
M  END
>  <MODEL>
1

>  <REMARK>
 VINA RESULT:      -8.3      0.000      0.000
  Name = 
  5 active torsions:
  status: ('A' for Active; 'I' for Inactive)
    1  A    between atoms: C_5  and  C_11
    2  A    between atoms: C_5  and  C_36
    3  A    between atoms: C_11  and  C_19
    4  A    between atoms: C_19  and  C_38
    5  A    between atoms: C_31  and  C_38
                            x       y       z     vdW  Elec       q    Type
                         _______ _______ _______ _____ _____    ______ ____

>  <TORSDO>
F 5

$$$$
=
 OpenBabel11072409233D

 39 43  0  0  1  0  0  0  0  0999 V2000
  187.7860  175.1710  138.9940 C   0  0  0  0  0  0  0  0  0  0  0  0
  191.6850  174.8860  146.2860 C   0  0  0  0  0  0  0  0  0  0  0  0
  188.1800  175.0670  140.2950 C   0  0  0  0  0  0  0  0  0  0  0  0
  192.1450  173.7570  145.6150 C   0  0  0  0  0  3  0  0  0  0  0  0
  186.9700  177.8710  144.3000 C   0  0  0  0  0  2  0  0  0  0  0  0
  187.8210  175.9990  141.2600 C   0  0  0  0  0  3  0  0  0  0  0  0
  190.3030  178.5960  148.5240 Cl  0  0  0  0  0  0  0  0  0  0  0  0
  187.0020  177.0750  140.8580 C   0  0  1  0  0  3  0  0  0  0  0  0
  191.6380  174.7020  141.9750 C   0  0  0  0  0  2  0  0  0  0  0  0
  190.6660  177.1140  143.3600 C   0  0  0  0  0  0  0  0  0  0  0  0
  188.9300  173.9220  140.3510 C   0  0  0  0  0  0  0  0  0  0  0  0
  191.4310  177.6220  142.4990 O   0  0  0  0  0  0  0  0  0  0  0  0
  191.0820  173.3800  141.4550 C   0  0  0  0  0  2  0  0  0  0  0  0
  189.3750  177.7070  143.5630 N   0  0  0  0  0  2  0  0  0  0  0  0
  188.9730  173.3750  139.1120 N   0  0  0  0  0  0  0  0  0  0  0  0
  188.2920  175.9240  144.6420 O   0  0  0  0  0  0  0  0  0  0  0  0
  189.1520  172.0120  141.7250 O   0  0  0  0  0  1  0  0  0  0  0  0
  189.5680  173.3350  141.5690 C   0  0  2  0  0  3  0  0  0  0  0  0
  186.4740  176.3630  136.8850 Cl  0  0  0  0  0  0  0  0  0  0  0  0
  192.1170  173.7130  144.2240 C   0  0  0  0  0  3  0  0  0  0  0  0
  191.6110  174.7860  143.4780 C   0  0  0  0  0  0  0  0  0  0  0  0
  188.2730  174.1410  138.2790 N   0  0  0  0  0  0  0  0  0  0  0  0
  190.7800  177.1380  146.2680 C   0  0  0  0  0  3  0  0  0  0  0  0
  186.6150  178.1420  141.8310 C   0  0  0  0  0  2  0  0  0  0  0  0
  191.1410  175.9460  144.1430 C   0  0  0  0  0  0  0  0  0  0  0  0
  190.8330  177.1690  147.6620 C   0  0  0  0  0  0  0  0  0  0  0  0
  186.5950  177.1890  139.5080 C   0  0  0  0  0  3  0  0  0  0  0  0
  188.2480  177.1080  144.2160 C   0  0  0  0  0  0  0  0  0  0  0  0
  186.9840  176.2250  138.5570 C   0  0  0  0  0  0  0  0  0  0  0  0
  191.3070  176.0630  148.3700 C   0  0  0  0  0  3  0  0  0  0  0  0
  186.0600  177.5430  143.1190 C   0  0  2  0  0  3  0  0  0  0  0  0
  191.7350  174.9240  147.6830 C   0  0  0  0  0  3  0  0  0  0  0  0
  191.1910  175.9970  145.5580 C   0  0  0  0  0  0  0  0  0  0  0  0
  184.6650  178.0920  143.3630 C   0  0  0  0  0  2  0  0  0  0  0  0
  184.6680  179.1280  144.4810 C   0  0  0  0  0  2  0  0  0  0  0  0
  183.7230  178.7310  145.6090 C   0  0  0  0  0  2  0  0  0  0  0  0
  184.4860  178.1920  146.8120 C   0  0  0  0  0  2  0  0  0  0  0  0
  186.6060  178.4650  147.8760 O   0  0  0  0  0  1  0  0  0  0  0  0
  185.5710  179.1610  147.2530 C   0  0  0  0  0  2  0  0  0  0  0  0
  1  3  1  0  0  0  0
  2 32  1  0  0  0  0
  3 11  1  0  0  0  0
  3  6  2  0  0  0  0
  4  2  1  0  0  0  0
  8 27  1  6  0  0  0
  8  6  1  0  0  0  0
  8 24  1  0  0  0  0
  9 21  1  0  0  0  0
 10 14  1  0  0  0  0
 10 25  1  0  0  0  0
 11 18  1  0  0  0  0
 12 10  2  0  0  0  0
 13 18  1  0  0  0  0
 13  9  1  0  0  0  0
 14 28  1  0  0  0  0
 15 11  2  0  0  0  0
 18 17  1  6  0  0  0
 19 29  1  0  0  0  0
 20  4  2  0  0  0  0
 21 25  2  0  0  0  0
 21 20  1  0  0  0  0
 22  1  2  0  0  0  0
 22 15  1  0  0  0  0
 23 26  2  0  0  0  0
 24 31  1  0  0  0  0
 25 33  1  0  0  0  0
 26 30  1  0  0  0  0
 26  7  1  0  0  0  0
 28  5  1  0  0  0  0
 28 16  2  0  0  0  0
 29  1  1  0  0  0  0
 29 27  2  0  0  0  0
 31 34  1  1  0  0  0
 31  5  1  0  0  0  0
 32 30  2  0  0  0  0
 33 23  1  0  0  0  0
 33  2  2  0  0  0  0
 34 35  1  0  0  0  0
 35 36  1  0  0  0  0
 36 37  1  0  0  0  0
 37 39  1  0  0  0  0
 39 38  1  0  0  0  0
M  END
>  <MODEL>
2

>  <REMARK>
 VINA RESULT:      -8.1      2.673      7.438
  Name = 
  5 active torsions:
  status: ('A' for Active; 'I' for Inactive)
    1  A    between atoms: C_5  and  C_11
    2  A    between atoms: C_5  and  C_36
    3  A    between atoms: C_11  and  C_19
    4  A    between atoms: C_19  and  C_38
    5  A    between atoms: C_31  and  C_38
                            x       y       z     vdW  Elec       q    Type
                         _______ _______ _______ _____ _____    ______ ____

>  <TORSDO>
F 5

$$$$
=
 OpenBabel11072409233D

 39 43  0  0  1  0  0  0  0  0999 V2000
  192.7540  173.7780  144.5080 C   0  0  0  0  0  0  0  0  0  0  0  0
  185.6940  178.0940  144.5250 C   0  0  0  0  0  0  0  0  0  0  0  0
  191.4750  174.2480  144.4550 C   0  0  0  0  0  0  0  0  0  0  0  0
  186.0850  178.0830  145.8600 C   0  0  0  0  0  3  0  0  0  0  0  0
  188.2350  174.4510  140.6050 C   0  0  0  0  0  2  0  0  0  0  0  0
  190.7540  174.3180  143.2710 C   0  0  0  0  0  3  0  0  0  0  0  0
  184.3830  178.2540  140.1730 Cl  0  0  0  0  0  0  0  0  0  0  0  0
  191.3850  173.8630  142.0930 C   0  0  0  0  0  0  0  0  0  0  0  0
  189.8330  177.5440  145.6160 C   0  0  0  0  0  2  0  0  0  0  0  0
  189.0470  177.5720  142.7770 C   0  0  0  0  0  0  0  0  0  0  0  0
  191.1620  174.5780  145.7480 C   0  0  0  0  0  0  0  0  0  0  0  0
  190.0210  178.3690  142.7650 O   0  0  0  0  0  0  0  0  0  0  0  0
  190.0080  176.5330  146.7450 C   0  0  0  0  0  2  0  0  0  0  0  0
  188.9630  176.5780  141.7460 N   0  0  0  0  0  2  0  0  0  0  0  0
  192.2340  174.3110  146.5320 N   0  0  0  0  0  0  0  0  0  0  0  0
  187.4640  175.0840  142.7640 O   0  0  0  0  0  0  0  0  0  0  0  0
  189.3750  174.2980  147.2680 O   0  0  0  0  0  1  0  0  0  0  0  0
  189.8530  175.1090  146.2380 C   0  0  2  0  0  3  0  0  0  0  0  0
  195.0580  172.7230  143.4260 Cl  0  0  0  0  0  0  0  0  0  0  0  0
  187.4240  177.8990  146.1940 C   0  0  0  0  0  3  0  0  0  0  0  0
  188.3940  177.7020  145.2020 C   0  0  0  0  0  0  0  0  0  0  0  0
  193.2110  173.8210  145.7720 N   0  0  0  0  0  2  0  0  0  0  0  0
  186.2330  177.9860  142.1600 C   0  0  0  0  0  3  0  0  0  0  0  0
  190.6870  173.9530  140.7740 C   0  0  0  0  0  2  0  0  0  0  0  0
  188.0170  177.7130  143.8360 C   0  0  0  0  0  0  0  0  0  0  0  0
  184.8880  178.1910  141.8470 C   0  0  0  0  0  0  0  0  0  0  0  0
  192.7130  173.3800  142.1430 C   0  0  0  0  0  3  0  0  0  0  0  0
  188.1610  175.3900  141.7610 C   0  0  0  0  0  0  0  0  0  0  0  0
  193.4130  173.3290  143.3640 C   0  0  0  0  0  0  0  0  0  0  0  0
  183.9460  178.3430  142.8660 C   0  0  0  0  0  3  0  0  0  0  0  0
  189.2820  173.3670  140.8480 C   0  0  2  0  0  3  0  0  0  0  0  0
  184.3490  178.2980  144.2030 C   0  0  0  0  0  3  0  0  0  0  0  0
  186.6560  177.9220  143.4990 C   0  0  0  0  0  0  0  0  0  0  0  0
  189.1460  172.2650  139.8110 C   0  0  0  0  0  2  0  0  0  0  0  0
  188.4150  172.7620  138.5700 C   0  0  0  0  0  2  0  0  0  0  0  0
  189.3070  172.6950  137.3360 C   0  0  0  0  0  2  0  0  0  0  0  0
  189.9330  174.0500  137.0270 C   0  0  0  0  0  2  0  0  0  0  0  0
  188.1660  175.3640  136.1040 O   0  0  0  0  0  1  0  0  0  0  0  0
  189.3250  174.6630  135.7750 C   0  0  0  0  0  2  0  0  0  0  0  0
  1 22  1  0  0  0  0
  2  4  2  0  0  0  0
  3  1  2  0  0  0  0
  3 11  1  0  0  0  0
  4 20  1  0  0  0  0
  5 31  1  0  0  0  0
  5 28  1  0  0  0  0
  6  3  1  0  0  0  0
  7 26  1  0  0  0  0
  8 27  1  0  0  0  0
  8  6  2  0  0  0  0
  9 13  1  0  0  0  0
 10 25  1  0  0  0  0
 11 18  1  0  0  0  0
 11 15  2  0  0  0  0
 12 10  2  0  0  0  0
 14 28  1  0  0  0  0
 14 10  1  0  0  0  0
 18 13  1  0  0  0  0
 18 17  1  1  0  0  0
 21  9  1  0  0  0  0
 21 20  2  0  0  0  0
 22 15  1  0  0  0  0
 23 33  1  0  0  0  0
 24 31  1  0  0  0  0
 24  8  1  0  0  0  0
 25 21  1  0  0  0  0
 26 23  2  0  0  0  0
 26 30  1  0  0  0  0
 27 29  2  0  0  0  0
 28 16  2  0  0  0  0
 29 19  1  0  0  0  0
 29  1  1  0  0  0  0
 30 32  2  0  0  0  0
 31 34  1  6  0  0  0
 32  2  1  0  0  0  0
 33 25  2  0  0  0  0
 33  2  1  0  0  0  0
 35 34  1  0  0  0  0
 36 35  1  0  0  0  0
 37 36  1  0  0  0  0
 39 38  1  0  0  0  0
 39 37  1  0  0  0  0
M  END
>  <MODEL>
3

>  <REMARK>
 VINA RESULT:      -8.1      1.433      2.123
  Name = 
  5 active torsions:
  status: ('A' for Active; 'I' for Inactive)
    1  A    between atoms: C_5  and  C_11
    2  A    between atoms: C_5  and  C_36
    3  A    between atoms: C_11  and  C_19
    4  A    between atoms: C_19  and  C_38
    5  A    between atoms: C_31  and  C_38
                            x       y       z     vdW  Elec       q    Type
                         _______ _______ _______ _____ _____    ______ ____

>  <TORSDO>
F 5

$$$$
=
 OpenBabel11072409233D

 39 43  0  0  1  0  0  0  0  0999 V2000
  189.1410  177.1680  146.7320 C   0  0  0  0  0  0  0  0  0  0  0  0
  192.8500  172.2080  141.2460 C   0  0  0  0  0  0  0  0  0  0  0  0
  189.7250  176.5630  145.6590 C   0  0  0  0  0  0  0  0  0  0  0  0
  193.8580  172.5160  142.1550 C   0  0  0  0  0  3  0  0  0  0  0  0
  187.7850  175.2790  141.1920 C   0  0  0  0  0  2  0  0  0  0  0  0
  189.0060  176.1900  144.5310 C   0  0  0  0  0  3  0  0  0  0  0  0
  189.6000  171.0740  138.2740 Cl  0  0  0  0  0  0  0  0  0  0  0  0
  187.6240  176.4750  144.5130 C   0  0  0  0  0  0  0  0  0  0  0  0
  191.9010  173.3950  145.2850 C   0  0  0  0  0  2  0  0  0  0  0  0
  189.7400  172.7390  143.3940 C   0  0  0  0  0  0  0  0  0  0  0  0
  191.0510  176.4560  145.9860 C   0  0  0  0  0  0  0  0  0  0  0  0
  189.3950  172.0630  144.3980 O   0  0  0  0  0  0  0  0  0  0  0  0
  192.6960  174.6180  145.7340 C   0  0  0  0  0  2  0  0  0  0  0  0
  188.7390  173.5010  142.7050 N   0  0  0  0  0  2  0  0  0  0  0  0
  191.2340  176.9820  147.2210 N   0  0  0  0  0  0  0  0  0  0  0  0
  190.1220  174.9940  141.5330 O   0  0  0  0  0  0  0  0  0  0  0  0
  193.1600  176.8310  144.9890 O   0  0  0  0  0  1  0  0  0  0  0  0
  192.1370  175.8930  145.1260 C   0  0  2  0  0  3  0  0  0  0  0  0
  187.0220  178.2350  148.1330 Cl  0  0  0  0  0  0  0  0  0  0  0  0
  193.5330  172.9040  143.4520 C   0  0  0  0  0  3  0  0  0  0  0  0
  192.1960  173.0090  143.8600 C   0  0  0  0  0  0  0  0  0  0  0  0
  190.0620  177.4190  147.6800 N   0  0  0  0  0  2  0  0  0  0  0  0
  190.5010  171.9150  140.7080 C   0  0  0  0  0  3  0  0  0  0  0  0
  186.7770  176.0580  143.3530 C   0  0  0  0  0  2  0  0  0  0  0  0
  191.1560  172.6950  142.9510 C   0  0  0  0  0  0  0  0  0  0  0  0
  190.8500  171.5120  139.4180 C   0  0  0  0  0  0  0  0  0  0  0  0
  187.0140  177.0980  145.6260 C   0  0  0  0  0  3  0  0  0  0  0  0
  188.9600  174.5770  141.7840 C   0  0  0  0  0  0  0  0  0  0  0  0
  187.7780  177.4570  146.7550 C   0  0  0  0  0  0  0  0  0  0  0  0
  192.1920  171.4590  139.0390 C   0  0  0  0  0  3  0  0  0  0  0  0
  187.3970  176.4940  142.0300 C   0  0  2  0  0  3  0  0  0  0  0  0
  193.1910  171.8030  139.9530 C   0  0  0  0  0  3  0  0  0  0  0  0
  191.4900  172.2800  141.6370 C   0  0  0  0  0  0  0  0  0  0  0  0
  186.4000  177.3560  141.2720 C   0  0  0  0  0  2  0  0  0  0  0  0
  185.4320  178.0460  142.2250 C   0  0  0  0  0  2  0  0  0  0  0  0
  186.0150  179.3490  142.7620 C   0  0  0  0  0  2  0  0  0  0  0  0
  185.3230  179.7800  144.0480 C   0  0  0  0  0  2  0  0  0  0  0  0
  183.8850  178.7890  145.6770 O   0  0  0  0  0  1  0  0  0  0  0  0
  184.0740  178.9520  144.3050 C   0  0  0  0  0  2  0  0  0  0  0  0
  1 29  1  0  0  0  0
  1 22  1  0  0  0  0
  2 33  1  0  0  0  0
  2  4  2  0  0  0  0
  3 11  1  0  0  0  0
  3  1  2  0  0  0  0
  4 20  1  0  0  0  0
  5 28  1  0  0  0  0
  5 31  1  0  0  0  0
  6  3  1  0  0  0  0
  7 26  1  0  0  0  0
  8  6  2  0  0  0  0
  8 27  1  0  0  0  0
  9 13  1  0  0  0  0
 10 12  2  0  0  0  0
 11 15  2  0  0  0  0
 14 10  1  0  0  0  0
 15 22  1  0  0  0  0
 16 28  2  0  0  0  0
 18 17  1  1  0  0  0
 18 13  1  0  0  0  0
 18 11  1  0  0  0  0
 20 21  2  0  0  0  0
 21  9  1  0  0  0  0
 23 33  1  0  0  0  0
 24  8  1  0  0  0  0
 25 10  1  0  0  0  0
 25 21  1  0  0  0  0
 26 23  2  0  0  0  0
 27 29  2  0  0  0  0
 28 14  1  0  0  0  0
 29 19  1  0  0  0  0
 30 26  1  0  0  0  0
 30 32  2  0  0  0  0
 31 34  1  6  0  0  0
 31 24  1  0  0  0  0
 32  2  1  0  0  0  0
 33 25  2  0  0  0  0
 34 35  1  0  0  0  0
 35 36  1  0  0  0  0
 36 37  1  0  0  0  0
 37 39  1  0  0  0  0
 39 38  1  0  0  0  0
M  END
>  <MODEL>
4

>  <REMARK>
 VINA RESULT:      -7.8      2.726      7.304
  Name = 
  5 active torsions:
  status: ('A' for Active; 'I' for Inactive)
    1  A    between atoms: C_5  and  C_11
    2  A    between atoms: C_5  and  C_36
    3  A    between atoms: C_11  and  C_19
    4  A    between atoms: C_19  and  C_38
    5  A    between atoms: C_31  and  C_38
                            x       y       z     vdW  Elec       q    Type
                         _______ _______ _______ _____ _____    ______ ____

>  <TORSDO>
F 5

$$$$
=
 OpenBabel11072409233D

 39 43  0  0  1  0  0  0  0  0999 V2000
  188.4470  175.9770  141.6300 C   0  0  0  0  0  0  0  0  0  0  0  0
  195.0100  171.3860  143.7030 C   0  0  0  0  0  0  0  0  0  0  0  0
  189.3930  175.1810  142.2060 C   0  0  0  0  0  0  0  0  0  0  0  0
  194.3790  170.6400  142.7130 C   0  0  0  0  0  3  0  0  0  0  0  0
  192.2400  175.9370  146.2910 C   0  0  0  0  0  2  0  0  0  0  0  0
  190.1600  175.5960  143.2860 C   0  0  0  0  0  3  0  0  0  0  0  0
  197.1910  173.7910  146.8880 Cl  0  0  0  0  0  0  0  0  0  0  0  0
  189.9210  176.8880  143.8000 C   0  0  1  0  0  3  0  0  0  0  0  0
  192.4490  173.2880  140.7980 C   0  0  0  0  0  2  0  0  0  0  0  0
  193.7780  174.9010  142.8730 C   0  0  0  0  0  0  0  0  0  0  0  0
  189.3550  174.0100  141.4950 C   0  0  0  0  0  0  0  0  0  0  0  0
  194.0480  175.5680  141.8400 O   0  0  0  0  0  0  0  0  0  0  0  0
  191.1360  172.5370  140.5990 C   0  0  0  0  0  2  0  0  0  0  0  0
  193.3320  175.6010  144.0430 N   0  0  0  0  0  2  0  0  0  0  0  0
  188.4130  174.1240  140.5270 N   0  0  0  0  0  0  0  0  0  0  0  0
  192.3480  173.8190  145.2140 O   0  0  0  0  0  0  0  0  0  0  0  0
  189.3390  171.6840  141.9070 O   0  0  0  0  0  1  0  0  0  0  0  0
  190.1770  172.7880  141.7500 C   0  0  2  0  0  3  0  0  0  0  0  0
  186.9730  178.2900  141.3690 Cl  0  0  0  0  0  0  0  0  0  0  0  0
  193.5510  171.2700  141.7870 C   0  0  0  0  0  3  0  0  0  0  0  0
  193.3230  172.6510  141.8450 C   0  0  0  0  0  0  0  0  0  0  0  0
  187.8560  175.3310  140.6090 N   0  0  0  0  0  0  0  0  0  0  0  0
  195.5110  173.5150  144.7560 C   0  0  0  0  0  3  0  0  0  0  0  0
  190.7420  177.4200  144.9310 C   0  0  0  0  0  2  0  0  0  0  0  0
  193.9600  173.4280  142.8450 C   0  0  0  0  0  0  0  0  0  0  0  0
  196.3510  172.8660  145.6630 C   0  0  0  0  0  0  0  0  0  0  0  0
  188.9440  177.7180  143.2030 C   0  0  0  0  0  3  0  0  0  0  0  0
  192.6610  175.0390  145.1780 C   0  0  0  0  0  0  0  0  0  0  0  0
  188.1890  177.2620  142.1050 C   0  0  0  0  0  0  0  0  0  0  0  0
  196.5190  171.4820  145.5960 C   0  0  0  0  0  3  0  0  0  0  0  0
  190.8080  176.4260  146.0840 C   0  0  2  0  0  3  0  0  0  0  0  0
  195.8530  170.7430  144.6150 C   0  0  0  0  0  3  0  0  0  0  0  0
  194.8190  172.7880  143.7720 C   0  0  0  0  0  0  0  0  0  0  0  0
  190.2950  177.0930  147.3490 C   0  0  0  0  0  2  0  0  0  0  0  0
  188.8470  177.5390  147.1880 C   0  0  0  0  0  2  0  0  0  0  0  0
  187.9310  176.3570  146.8900 C   0  0  0  0  0  2  0  0  0  0  0  0
  186.6860  176.7940  146.1290 C   0  0  0  0  0  2  0  0  0  0  0  0
  184.4410  177.5650  146.3800 O   0  0  0  0  0  1  0  0  0  0  0  0
  185.6310  177.3460  147.0730 C   0  0  0  0  0  2  0  0  0  0  0  0
  1 29  1  0  0  0  0
  1  3  1  0  0  0  0
  2 33  2  0  0  0  0
  2 32  1  0  0  0  0
  3  6  2  0  0  0  0
  4  2  1  0  0  0  0
  6  8  1  0  0  0  0
  8 27  1  6  0  0  0
  8 24  1  0  0  0  0
  9 21  1  0  0  0  0
 10 14  1  0  0  0  0
 11 18  1  0  0  0  0
 11  3  1  0  0  0  0
 12 10  2  0  0  0  0
 13  9  1  0  0  0  0
 13 18  1  0  0  0  0
 14 28  1  0  0  0  0
 15 22  1  0  0  0  0
 15 11  2  0  0  0  0
 18 17  1  6  0  0  0
 19 29  1  0  0  0  0
 20 21  1  0  0  0  0
 20  4  2  0  0  0  0
 21 25  2  0  0  0  0
 22  1  2  0  0  0  0
 23 26  2  0  0  0  0
 24 31  1  0  0  0  0
 25 10  1  0  0  0  0
 25 33  1  0  0  0  0
 26  7  1  0  0  0  0
 28 16  2  0  0  0  0
 28  5  1  0  0  0  0
 29 27  2  0  0  0  0
 30 26  1  0  0  0  0
 31  5  1  0  0  0  0
 31 34  1  1  0  0  0
 32 30  2  0  0  0  0
 33 23  1  0  0  0  0
 35 34  1  0  0  0  0
 36 35  1  0  0  0  0
 37 36  1  0  0  0  0
 37 39  1  0  0  0  0
 38 39  1  0  0  0  0
M  END
>  <MODEL>
5

>  <REMARK>
 VINA RESULT:      -7.6      2.429      8.615
  Name = 
  5 active torsions:
  status: ('A' for Active; 'I' for Inactive)
    1  A    between atoms: C_5  and  C_11
    2  A    between atoms: C_5  and  C_36
    3  A    between atoms: C_11  and  C_19
    4  A    between atoms: C_19  and  C_38
    5  A    between atoms: C_31  and  C_38
                            x       y       z     vdW  Elec       q    Type
                         _______ _______ _______ _____ _____    ______ ____

>  <TORSDO>
F 5

$$$$
=
 OpenBabel11072409233D

 39 43  0  0  1  0  0  0  0  0999 V2000
  192.7770  176.3930  146.4950 C   0  0  0  0  0  0  0  0  0  0  0  0
  193.7150  171.8890  139.6180 C   0  0  0  0  0  0  0  0  0  0  0  0
  192.8130  175.8640  145.2380 C   0  0  0  0  0  0  0  0  0  0  0  0
  195.0130  172.2600  139.9560 C   0  0  0  0  0  3  0  0  0  0  0  0
  189.0590  174.5270  142.1590 C   0  0  0  0  0  2  0  0  0  0  0  0
  191.6680  175.4590  144.5670 C   0  0  0  0  0  3  0  0  0  0  0  0
  189.5170  170.5590  138.4810 Cl  0  0  0  0  0  0  0  0  0  0  0  0
  190.4300  175.6280  145.2230 C   0  0  0  0  0  0  0  0  0  0  0  0
  194.7380  172.8990  143.6860 C   0  0  0  0  0  2  0  0  0  0  0  0
  191.9820  172.1080  143.0110 C   0  0  0  0  0  0  0  0  0  0  0  0
  194.1380  175.8610  144.8900 C   0  0  0  0  0  0  0  0  0  0  0  0
  192.2010  171.3830  144.0160 O   0  0  0  0  0  0  0  0  0  0  0  0
  195.5730  174.1730  143.7780 C   0  0  0  0  0  2  0  0  0  0  0  0
  190.7280  172.8010  142.9270 N   0  0  0  0  0  2  0  0  0  0  0  0
  194.8550  176.3710  145.9200 N   0  0  0  0  0  0  0  0  0  0  0  0
  191.2880  174.4310  141.3320 O   0  0  0  0  0  0  0  0  0  0  0  0
  195.4870  176.4330  143.0370 O   0  0  0  0  0  1  0  0  0  0  0  0
  194.7140  175.4100  143.5850 C   0  0  2  0  0  3  0  0  0  0  0  0
  191.5230  177.2470  148.7940 Cl  0  0  0  0  0  0  0  0  0  0  0  0
  195.3240  172.5880  141.2730 C   0  0  0  0  0  3  0  0  0  0  0  0
  194.3410  172.5720  142.2720 C   0  0  0  0  0  0  0  0  0  0  0  0
  194.0220  176.6980  146.9050 N   0  0  0  0  0  2  0  0  0  0  0  0
  191.4170  171.4140  140.2420 C   0  0  0  0  0  3  0  0  0  0  0  0
  189.1600  175.1690  144.5810 C   0  0  0  0  0  2  0  0  0  0  0  0
  193.0140  172.1940  141.9480 C   0  0  0  0  0  0  0  0  0  0  0  0
  191.1320  171.0720  138.9190 C   0  0  0  0  0  0  0  0  0  0  0  0
  190.3890  176.1710  146.5280 C   0  0  0  0  0  3  0  0  0  0  0  0
  190.4150  173.9130  142.0790 C   0  0  0  0  0  0  0  0  0  0  0  0
  191.5750  176.5660  147.1790 C   0  0  0  0  0  0  0  0  0  0  0  0
  192.1300  171.1400  137.9460 C   0  0  0  0  0  3  0  0  0  0  0  0
  189.0430  175.6860  143.1520 C   0  0  2  0  0  3  0  0  0  0  0  0
  193.4210  171.5450  138.2950 C   0  0  0  0  0  3  0  0  0  0  0  0
  192.7050  171.8390  140.6110 C   0  0  0  0  0  0  0  0  0  0  0  0
  187.7550  176.4790  143.0120 C   0  0  0  0  0  2  0  0  0  0  0  0
  187.7670  177.7130  143.9050 C   0  0  0  0  0  2  0  0  0  0  0  0
  186.3950  177.9670  144.5200 C   0  0  0  0  0  2  0  0  0  0  0  0
  185.9890  176.8400  145.4620 C   0  0  0  0  0  2  0  0  0  0  0  0
  186.6030  178.2550  147.2850 O   0  0  0  0  0  1  0  0  0  0  0  0
  186.7090  176.9530  146.7960 C   0  0  0  0  0  2  0  0  0  0  0  0
  1 22  1  0  0  0  0
  1 29  1  0  0  0  0
  2  4  2  0  0  0  0
  2 33  1  0  0  0  0
  3  1  2  0  0  0  0
  4 20  1  0  0  0  0
  5 31  1  0  0  0  0
  6  8  2  0  0  0  0
  6  3  1  0  0  0  0
  7 26  1  0  0  0  0
  8 27  1  0  0  0  0
  9 13  1  0  0  0  0
 10 12  2  0  0  0  0
 11  3  1  0  0  0  0
 11 15  2  0  0  0  0
 14 10  1  0  0  0  0
 15 22  1  0  0  0  0
 16 28  2  0  0  0  0
 18 17  1  1  0  0  0
 18 13  1  0  0  0  0
 18 11  1  0  0  0  0
 20 21  2  0  0  0  0
 21  9  1  0  0  0  0
 23 33  1  0  0  0  0
 24  8  1  0  0  0  0
 25 21  1  0  0  0  0
 25 10  1  0  0  0  0
 26 23  2  0  0  0  0
 27 29  2  0  0  0  0
 28  5  1  0  0  0  0
 28 14  1  0  0  0  0
 29 19  1  0  0  0  0
 30 32  2  0  0  0  0
 30 26  1  0  0  0  0
 31 34  1  1  0  0  0
 31 24  1  0  0  0  0
 32  2  1  0  0  0  0
 33 25  2  0  0  0  0
 34 35  1  0  0  0  0
 35 36  1  0  0  0  0
 36 37  1  0  0  0  0
 37 39  1  0  0  0  0
 39 38  1  0  0  0  0
M  END
>  <MODEL>
6

>  <REMARK>
 VINA RESULT:      -7.1      2.958      7.543
  Name = 
  5 active torsions:
  status: ('A' for Active; 'I' for Inactive)
    1  A    between atoms: C_5  and  C_11
    2  A    between atoms: C_5  and  C_36
    3  A    between atoms: C_11  and  C_19
    4  A    between atoms: C_19  and  C_38
    5  A    between atoms: C_31  and  C_38
                            x       y       z     vdW  Elec       q    Type
                         _______ _______ _______ _____ _____    ______ ____

>  <TORSDO>
F 5

$$$$
=
 OpenBabel11072409233D

 39 43  0  0  1  0  0  0  0  0999 V2000
  193.9110  170.4340  141.7140 C   0  0  0  0  0  0  0  0  0  0  0  0
  188.1190  176.1990  143.0060 C   0  0  0  0  0  0  0  0  0  0  0  0
  193.1670  171.5590  141.9170 C   0  0  0  0  0  0  0  0  0  0  0  0
  187.8690  175.7570  141.7110 C   0  0  0  0  0  3  0  0  0  0  0  0
  193.1940  174.8360  145.7410 C   0  0  0  0  0  2  0  0  0  0  0  0
  193.2370  172.2980  143.0900 C   0  0  0  0  0  3  0  0  0  0  0  0
  188.8040  177.6460  147.2630 Cl  0  0  0  0  0  0  0  0  0  0  0  0
  194.1340  171.8590  144.0870 C   0  0  1  0  0  3  0  0  0  0  0  0
  189.3770  172.2750  141.7260 C   0  0  0  0  0  2  0  0  0  0  0  0
  189.9130  173.1710  144.4810 C   0  0  0  0  0  0  0  0  0  0  0  0
  192.4360  171.7150  140.7690 C   0  0  0  0  0  0  0  0  0  0  0  0
  189.4190  172.0320  144.6890 O   0  0  0  0  0  0  0  0  0  0  0  0
  190.0610  172.2990  140.3620 C   0  0  0  0  0  2  0  0  0  0  0  0
  191.0930  173.5490  145.2050 N   0  0  0  0  0  2  0  0  0  0  0  0
  192.7440  170.7050  139.9210 N   0  0  0  0  0  0  0  0  0  0  0  0
  191.8340  175.3170  143.8490 O   0  0  0  0  0  0  0  0  0  0  0  0
  191.8410  173.4370  139.2650 O   0  0  0  0  0  1  0  0  0  0  0  0
  191.4820  172.8260  140.4660 C   0  0  2  0  0  3  0  0  0  0  0  0
  195.7600  168.5190  142.4240 Cl  0  0  0  0  0  0  0  0  0  0  0  0
  188.2880  174.4900  141.3130 C   0  0  0  0  0  3  0  0  0  0  0  0
  188.9800  173.6500  142.1950 C   0  0  0  0  0  0  0  0  0  0  0  0
  193.6480  169.9170  140.5000 N   0  0  0  0  0  0  0  0  0  0  0  0
  188.9860  175.8220  145.2420 C   0  0  0  0  0  3  0  0  0  0  0  0
  194.2270  172.5770  145.3950 C   0  0  0  0  0  2  0  0  0  0  0  0
  189.2400  174.0800  143.5200 C   0  0  0  0  0  0  0  0  0  0  0  0
  188.5420  177.0890  145.6250 C   0  0  0  0  0  0  0  0  0  0  0  0
  194.9040  170.6900  143.8820 C   0  0  0  0  0  3  0  0  0  0  0  0
  191.9930  174.6170  144.8840 C   0  0  0  0  0  0  0  0  0  0  0  0
  194.8000  169.9640  142.6790 C   0  0  0  0  0  0  0  0  0  0  0  0
  187.8910  177.9120  144.7040 C   0  0  0  0  0  3  0  0  0  0  0  0
  194.3990  174.0780  145.1920 C   0  0  2  0  0  3  0  0  0  0  0  0
  187.6770  177.4670  143.3970 C   0  0  0  0  0  3  0  0  0  0  0  0
  188.7940  175.3620  143.9280 C   0  0  0  0  0  0  0  0  0  0  0  0
  195.6680  174.5340  145.8940 C   0  0  0  0  0  2  0  0  0  0  0  0
  196.9100  174.0320  145.1670 C   0  0  0  0  0  2  0  0  0  0  0  0
  196.8800  174.4080  143.6900 C   0  0  0  0  0  2  0  0  0  0  0  0
  197.6900  175.6700  143.4210 C   0  0  0  0  0  2  0  0  0  0  0  0
  195.4870  176.4140  142.8810 O   0  0  0  0  0  1  0  0  0  0  0  0
  196.8370  176.7400  142.7580 C   0  0  0  0  0  2  0  0  0  0  0  0
  1  3  1  0  0  0  0
  1 29  1  0  0  0  0
  2 32  2  0  0  0  0
  2 33  1  0  0  0  0
  3  6  2  0  0  0  0
  4  2  1  0  0  0  0
  8  6  1  1  0  0  0
  8 24  1  0  0  0  0
  9 21  1  0  0  0  0
 10 12  2  0  0  0  0
 10 14  1  0  0  0  0
 11  3  1  0  0  0  0
 13 18  1  0  0  0  0
 13  9  1  0  0  0  0
 15 22  1  0  0  0  0
 15 11  2  0  0  0  0
 16 28  2  0  0  0  0
 18 17  1  6  0  0  0
 18 11  1  0  0  0  0
 19 29  1  0  0  0  0
 20  4  2  0  0  0  0
 20 21  1  0  0  0  0
 21 25  2  0  0  0  0
 22  1  2  0  0  0  0
 23 26  1  0  0  0  0
 25 33  1  0  0  0  0
 25 10  1  0  0  0  0
 26  7  1  0  0  0  0
 27  8  1  0  0  0  0
 28 14  1  0  0  0  0
 28  5  1  0  0  0  0
 29 27  2  0  0  0  0
 30 26  2  0  0  0  0
 31 24  1  0  0  0  0
 31  5  1  0  0  0  0
 31 34  1  1  0  0  0
 32 30  1  0  0  0  0
 33 23  2  0  0  0  0
 35 34  1  0  0  0  0
 36 35  1  0  0  0  0
 37 36  1  0  0  0  0
 39 38  1  0  0  0  0
 39 37  1  0  0  0  0
M  END
>  <MODEL>
7

>  <REMARK>
 VINA RESULT:      -7.0      3.294      6.148
  Name = 
  5 active torsions:
  status: ('A' for Active; 'I' for Inactive)
    1  A    between atoms: C_5  and  C_11
    2  A    between atoms: C_5  and  C_36
    3  A    between atoms: C_11  and  C_19
    4  A    between atoms: C_19  and  C_38
    5  A    between atoms: C_31  and  C_38
                            x       y       z     vdW  Elec       q    Type
                         _______ _______ _______ _____ _____    ______ ____

>  <TORSDO>
F 5

$$$$
=
 OpenBabel11072409233D

 39 43  0  0  1  0  0  0  0  0999 V2000
  190.9230  175.2650  146.6250 C   0  0  0  0  0  0  0  0  0  0  0  0
  197.0770  174.6730  141.1270 C   0  0  0  0  0  0  0  0  0  0  0  0
  191.7870  175.3430  145.5730 C   0  0  0  0  0  0  0  0  0  0  0  0
  197.6410  175.3760  142.1870 C   0  0  0  0  0  3  0  0  0  0  0  0
  191.2110  173.9230  140.7750 C   0  0  0  0  0  2  0  0  0  0  0  0
  191.4940  174.8060  144.3270 C   0  0  0  0  0  3  0  0  0  0  0  0
  195.3470  172.3080  137.6490 Cl  0  0  0  0  0  0  0  0  0  0  0  0
  190.2420  174.1760  144.1630 C   0  0  0  0  0  0  0  0  0  0  0  0
  195.4800  174.3110  145.1190 C   0  0  0  0  0  2  0  0  0  0  0  0
  194.2660  172.7980  142.9020 C   0  0  0  0  0  0  0  0  0  0  0  0
  192.8750  176.0210  146.0540 C   0  0  0  0  0  0  0  0  0  0  0  0
  194.3950  171.8940  143.7680 O   0  0  0  0  0  0  0  0  0  0  0  0
  195.3160  175.6640  145.8050 C   0  0  0  0  0  2  0  0  0  0  0  0
  193.0280  172.8860  142.1820 N   0  0  0  0  0  2  0  0  0  0  0  0
  192.6520  176.3280  147.3540 N   0  0  0  0  0  0  0  0  0  0  0  0
  193.1970  175.0860  141.3790 O   0  0  0  0  0  0  0  0  0  0  0  0
  194.3070  177.7790  145.3880 O   0  0  0  0  0  1  0  0  0  0  0  0
  194.0970  176.4040  145.2820 C   0  0  2  0  0  3  0  0  0  0  0  0
  188.5660  174.5410  147.8540 Cl  0  0  0  0  0  0  0  0  0  0  0  0
  197.1090  175.2520  143.4680 C   0  0  0  0  0  3  0  0  0  0  0  0
  195.9920  174.4390  143.7090 C   0  0  0  0  0  0  0  0  0  0  0  0
  191.4550  175.8630  147.7070 N   0  0  0  0  0  2  0  0  0  0  0  0
  195.4510  173.0930  140.2600 C   0  0  0  0  0  3  0  0  0  0  0  0
  189.8780  173.5330  142.8630 C   0  0  0  0  0  2  0  0  0  0  0  0
  195.4060  173.7130  142.6430 C   0  0  0  0  0  0  0  0  0  0  0  0
  196.0110  173.2180  138.9870 C   0  0  0  0  0  0  0  0  0  0  0  0
  189.3450  174.0890  145.2530 C   0  0  0  0  0  3  0  0  0  0  0  0
  192.5490  174.0070  141.4290 C   0  0  0  0  0  0  0  0  0  0  0  0
  189.6810  174.6430  146.5050 C   0  0  0  0  0  0  0  0  0  0  0  0
  197.0980  174.0690  138.7810 C   0  0  0  0  0  3  0  0  0  0  0  0
  190.1220  174.4760  141.6910 C   0  0  2  0  0  3  0  0  0  0  0  0
  197.6330  174.7930  139.8500 C   0  0  0  0  0  3  0  0  0  0  0  0
  195.9640  173.8240  141.3450 C   0  0  0  0  0  0  0  0  0  0  0  0
  188.8270  174.6540  140.9160 C   0  0  0  0  0  2  0  0  0  0  0  0
  187.8720  175.5900  141.6460 C   0  0  0  0  0  2  0  0  0  0  0  0
  188.5750  176.8700  142.0840 C   0  0  0  0  0  2  0  0  0  0  0  0
  187.7430  177.6430  143.0990 C   0  0  0  0  0  2  0  0  0  0  0  0
  189.6830  177.9170  144.4640 O   0  0  0  0  0  1  0  0  0  0  0  0
  188.3410  177.5390  144.4930 C   0  0  0  0  0  2  0  0  0  0  0  0
  1 22  1  0  0  0  0
  2 33  1  0  0  0  0
  2  4  2  0  0  0  0
  3 11  1  0  0  0  0
  3  1  2  0  0  0  0
  4 20  1  0  0  0  0
  5 28  1  0  0  0  0
  5 31  1  0  0  0  0
  6  3  1  0  0  0  0
  7 26  1  0  0  0  0
  8  6  2  0  0  0  0
  8 27  1  0  0  0  0
  9 13  1  0  0  0  0
 10 12  2  0  0  0  0
 11 15  2  0  0  0  0
 14 10  1  0  0  0  0
 15 22  1  0  0  0  0
 16 28  2  0  0  0  0
 18 17  1  1  0  0  0
 18 13  1  0  0  0  0
 18 11  1  0  0  0  0
 20 21  2  0  0  0  0
 21  9  1  0  0  0  0
 23 33  1  0  0  0  0
 24  8  1  0  0  0  0
 25 10  1  0  0  0  0
 25 21  1  0  0  0  0
 26 23  2  0  0  0  0
 27 29  2  0  0  0  0
 28 14  1  0  0  0  0
 29  1  1  0  0  0  0
 29 19  1  0  0  0  0
 30 26  1  0  0  0  0
 30 32  2  0  0  0  0
 31 34  1  6  0  0  0
 31 24  1  0  0  0  0
 32  2  1  0  0  0  0
 33 25  2  0  0  0  0
 34 35  1  0  0  0  0
 35 36  1  0  0  0  0
 36 37  1  0  0  0  0
 37 39  1  0  0  0  0
 38 39  1  0  0  0  0
M  END
>  <MODEL>
8

>  <REMARK>
 VINA RESULT:      -7.0      3.283      7.730
  Name = 
  5 active torsions:
  status: ('A' for Active; 'I' for Inactive)
    1  A    between atoms: C_5  and  C_11
    2  A    between atoms: C_5  and  C_36
    3  A    between atoms: C_11  and  C_19
    4  A    between atoms: C_19  and  C_38
    5  A    between atoms: C_31  and  C_38
                            x       y       z     vdW  Elec       q    Type
                         _______ _______ _______ _____ _____    ______ ____

>  <TORSDO>
F 5

$$$$
=
 OpenBabel11072409233D

 39 43  0  0  1  0  0  0  0  0999 V2000
  189.0280  176.1800  142.0930 C   0  0  0  0  0  0  0  0  0  0  0  0
  193.5640  169.3900  143.4230 C   0  0  0  0  0  0  0  0  0  0  0  0
  189.6940  175.0910  142.5710 C   0  0  0  0  0  0  0  0  0  0  0  0
  192.4780  168.9290  142.6850 C   0  0  0  0  0  3  0  0  0  0  0  0
  193.4820  174.7820  145.8750 C   0  0  0  0  0  2  0  0  0  0  0  0
  190.7920  175.1990  143.4130 C   0  0  0  0  0  3  0  0  0  0  0  0
  197.1920  170.8190  145.7640 Cl  0  0  0  0  0  0  0  0  0  0  0  0
  191.2040  176.4950  143.7880 C   0  0  1  0  0  3  0  0  0  0  0  0
  191.3450  172.0530  140.8530 C   0  0  0  0  0  2  0  0  0  0  0  0
  193.6450  173.0630  142.3910 C   0  0  0  0  0  0  0  0  0  0  0  0
  189.0360  174.0100  142.0440 C   0  0  0  0  0  0  0  0  0  0  0  0
  193.9030  173.5170  141.2450 O   0  0  0  0  0  0  0  0  0  0  0  0
  189.8360  171.8990  141.0190 C   0  0  0  0  0  2  0  0  0  0  0  0
  193.7960  173.9330  143.5220 N   0  0  0  0  0  2  0  0  0  0  0  0
  188.0160  174.4600  141.2760 N   0  0  0  0  0  0  0  0  0  0  0  0
  192.4990  172.7620  145.0910 O   0  0  0  0  0  0  0  0  0  0  0  0
  188.2110  171.9150  142.7590 O   0  0  0  0  0  1  0  0  0  0  0  0
  189.3510  172.5700  142.2930 C   0  0  2  0  0  3  0  0  0  0  0  0
  188.5580  178.8810  141.8210 Cl  0  0  0  0  0  0  0  0  0  0  0  0
  191.7700  169.8030  141.8660 C   0  0  0  0  0  3  0  0  0  0  0  0
  192.1210  171.1580  141.7830 C   0  0  0  0  0  0  0  0  0  0  0  0
  188.0100  175.7910  141.3040 N   0  0  0  0  0  0  0  0  0  0  0  0
  195.0880  171.1680  144.0630 C   0  0  0  0  0  3  0  0  0  0  0  0
  192.4090  176.6900  144.6520 C   0  0  0  0  0  2  0  0  0  0  0  0
  193.2260  171.6460  142.5240 C   0  0  0  0  0  0  0  0  0  0  0  0
  195.7950  170.2700  144.8650 C   0  0  0  0  0  0  0  0  0  0  0  0
  190.5190  177.6280  143.2900 C   0  0  0  0  0  3  0  0  0  0  0  0
  193.2460  173.7430  144.8320 C   0  0  0  0  0  0  0  0  0  0  0  0
  189.4110  177.4760  142.4330 C   0  0  0  0  0  0  0  0  0  0  0  0
  195.3890  168.9370  144.9510 C   0  0  0  0  0  3  0  0  0  0  0  0
  192.3500  175.8050  145.8920 C   0  0  2  0  0  3  0  0  0  0  0  0
  194.2770  168.4970  144.2290 C   0  0  0  0  0  3  0  0  0  0  0  0
  193.9580  170.7480  143.3410 C   0  0  0  0  0  0  0  0  0  0  0  0
  192.4500  176.6770  147.1330 C   0  0  0  0  0  2  0  0  0  0  0  0
  191.1930  176.5680  147.9860 C   0  0  0  0  0  2  0  0  0  0  0  0
  189.9570  177.0150  147.2140 C   0  0  0  0  0  2  0  0  0  0  0  0
  189.0360  175.8400  146.9090 C   0  0  0  0  0  2  0  0  0  0  0  0
  187.9180  177.5660  145.6950 O   0  0  0  0  0  1  0  0  0  0  0  0
  188.0600  176.1820  145.7960 C   0  0  0  0  0  2  0  0  0  0  0  0
  1 29  1  0  0  0  0
  1  3  1  0  0  0  0
  2 32  1  0  0  0  0
  3  6  2  0  0  0  0
  4  2  1  0  0  0  0
  5 31  1  0  0  0  0
  6  8  1  0  0  0  0
  8 27  1  6  0  0  0
  8 24  1  0  0  0  0
  9 13  1  0  0  0  0
  9 21  1  0  0  0  0
 10 25  1  0  0  0  0
 10 14  1  0  0  0  0
 11 18  1  0  0  0  0
 11  3  1  0  0  0  0
 12 10  2  0  0  0  0
 13 18  1  0  0  0  0
 14 28  1  0  0  0  0
 15 22  1  0  0  0  0
 15 11  2  0  0  0  0
 18 17  1  6  0  0  0
 19 29  1  0  0  0  0
 20  4  2  0  0  0  0
 21 20  1  0  0  0  0
 21 25  2  0  0  0  0
 22  1  2  0  0  0  0
 23 26  2  0  0  0  0
 24 31  1  0  0  0  0
 25 33  1  0  0  0  0
 26 30  1  0  0  0  0
 26  7  1  0  0  0  0
 28 16  2  0  0  0  0
 28  5  1  0  0  0  0
 29 27  2  0  0  0  0
 31 34  1  1  0  0  0
 32 30  2  0  0  0  0
 33  2  2  0  0  0  0
 33 23  1  0  0  0  0
 34 35  1  0  0  0  0
 36 35  1  0  0  0  0
 37 36  1  0  0  0  0
 38 39  1  0  0  0  0
 39 37  1  0  0  0  0
M  END
>  <MODEL>
9

>  <REMARK>
 VINA RESULT:      -6.8      2.607      8.608
  Name = 
  5 active torsions:
  status: ('A' for Active; 'I' for Inactive)
    1  A    between atoms: C_5  and  C_11
    2  A    between atoms: C_5  and  C_36
    3  A    between atoms: C_11  and  C_19
    4  A    between atoms: C_19  and  C_38
    5  A    between atoms: C_31  and  C_38
                            x       y       z     vdW  Elec       q    Type
                         _______ _______ _______ _____ _____    ______ ____

>  <TORSDO>
F 5

$$$$
