=
 OpenBabel11062420213D

 53 57  0  0  1  0  0  0  0  0999 V2000
  193.1880  170.6440  142.7560 C   0  0  1  0  0  0  0  0  0  0  0  0
  193.5970  175.2120  144.8840 O   0  0  0  0  0  0  0  0  0  0  0  0
  192.4350  169.3280  142.8390 C   0  0  0  0  0  1  0  0  0  0  0  0
  195.4520  176.7100  144.9240 C   0  0  0  0  0  2  0  0  0  0  0  0
  195.0860  175.0590  146.6000 F   0  0  0  0  0  0  0  0  0  0  0  0
  195.6660  172.3700  142.6920 N   0  0  2  0  0  0  0  0  0  0  0  0
  194.4950  170.3420  142.2870 O   0  0  0  0  0  0  0  0  0  0  0  0
  195.1250  171.4510  141.6800 C   0  0  2  0  0  3  0  0  0  0  0  0
  197.9410  173.0430  143.9310 S   0  0  0  0  0  0  0  0  0  0  0  0
  196.1370  173.5830  142.0240 C   0  0  0  0  0  2  0  0  0  0  0  0
  197.6010  173.8230  142.3430 C   0  0  1  0  0  3  0  0  0  0  0  0
  192.5640  172.2300  144.6180 C   0  0  0  0  0  3  0  0  0  0  0  0
  191.7110  172.9770  143.6830 C   0  0  0  0  0  0  0  0  0  0  0  0
  197.2220  176.2160  143.1710 C   0  0  0  0  0  0  0  0  0  0  0  0
  191.2260  175.3510  144.5800 C   0  0  1  0  0  3  0  0  0  0  0  0
  197.9100  175.2540  142.3650 N   0  0  0  0  0  2  0  0  0  0  0  0
  197.4620  177.4450  143.0070 O   0  0  0  0  0  0  0  0  0  0  0  0
  192.3690  171.5580  141.8340 C   0  0  0  0  0  0  0  0  0  0  0  0
  192.2940  171.3330  140.5970 O   0  0  0  0  0  0  0  0  0  0  0  0
  196.2290  175.7870  144.1080 N   0  0  0  0  0  2  0  0  0  0  0  0
  190.0760  174.3150  142.6980 O   0  0  0  0  0  0  0  0  0  0  0  0
  190.6630  173.4520  141.8390 O   0  0  0  0  0  0  0  0  0  0  0  0
  194.4340  175.9310  145.7410 C   0  0  2  0  0  3  0  0  0  0  0  0
  196.7670  171.7580  143.4360 C   0  0  0  0  0  2  0  0  0  0  0  0
  192.3810  175.1220  145.5600 C   0  0  0  0  0  2  0  0  0  0  0  0
  190.6880  174.0360  143.9570 C   0  0  1  0  0  3  0  0  0  0  0  0
  193.2690  171.1760  144.1810 C   0  0  0  0  0  3  0  0  0  0  0  0
  191.6110  172.6610  142.4350 C   0  0  0  0  0  0  0  0  0  0  0  0
  189.7230  176.4210  147.6750 C   0  0  0  0  0  2  0  0  0  0  0  0
  190.1120  176.2060  145.2580 C   0  0  0  0  0  0  0  0  0  0  0  0
  188.9810  175.1970  147.1820 C   0  0  0  0  0  2  0  0  0  0  0  0
  188.9190  175.3360  145.6740 C   0  0  0  0  0  2  0  0  0  0  0  0
  190.6780  176.7980  146.5590 C   0  0  0  0  0  2  0  0  0  0  0  0
  189.6210  177.3180  144.2730 C   0  0  1  0  0  3  0  0  0  0  0  0
  190.6690  177.5500  143.1730 C   0  0  0  0  0  1  0  0  0  0  0  0
  188.2030  177.1040  143.6780 C   0  0  2  0  0  3  0  0  0  0  0  0
  188.0560  176.3190  141.2690 N   0  0  0  0  0  1  0  0  0  0  0  0
  188.1530  177.3940  142.1990 C   0  0  0  0  0  0  0  0  0  0  0  0
  188.1380  178.5820  141.7810 O   0  0  0  0  0  0  0  0  0  0  0  0
  187.1790  177.9990  144.3800 C   0  0  0  0  0  2  0  0  0  0  0  0
  185.9090  176.8620  146.2300 C   0  0  0  0  0  1  0  0  0  0  0  0
  185.9030  177.2530  144.7620 C   0  0  1  0  0  3  0  0  0  0  0  0
  183.1290  178.9750  142.7850 N   0  0  0  0  0  1  0  0  0  0  0  0
  184.1090  178.8780  145.4970 C   0  0  0  0  0  1  0  0  0  0  0  0
  184.2190  178.1170  143.1130 C   0  0  0  0  0  0  0  0  0  0  0  0
  184.7390  177.4100  142.2060 O   0  0  0  0  0  0  0  0  0  0  0  0
  184.7310  178.0700  144.4530 N   0  0  0  0  0  0  0  0  0  0  0  0
  196.1970  170.9570  140.6970 C   0  0  0  0  0  2  0  0  0  0  0  0
  195.8060  171.2830  139.2630 C   0  0  1  0  0  3  0  0  0  0  0  0
  194.8460  172.3780  139.2480 N   0  0  0  0  0  1  0  0  0  0  0  0
  197.7880  172.7800  138.8480 O   0  0  0  0  0  1  0  0  0  0  0  0
  197.4010  170.9370  137.5270 O   0  0  0  0  0  0  0  0  0  0  0  0
  197.0300  171.6630  138.4870 C   0  0  0  0  0  0  0  0  0  0  0  0
  1  3  1  1  0  0  0
  1 27  1  0  0  0  0
  2 25  1  0  0  0  0
  2 23  1  0  0  0  0
  4 23  1  0  0  0  0
  6 10  1  6  0  0  0
  6 24  1  0  0  0  0
  7  1  1  0  0  0  0
  8 48  1  6  0  0  0
  8  7  1  0  0  0  0
  8  6  1  0  0  0  0
 11 10  1  1  0  0  0
 11 16  1  0  0  0  0
 11  9  1  0  0  0  0
 13 26  1  0  0  0  0
 13 12  1  0  0  0  0
 14 20  1  0  0  0  0
 15 30  1  1  0  0  0
 15 25  1  0  0  0  0
 16 14  1  0  0  0  0
 17 14  2  0  0  0  0
 18 28  1  0  0  0  0
 18  1  1  0  0  0  0
 19 18  2  0  0  0  0
 20  4  1  0  0  0  0
 22 28  1  0  0  0  0
 22 21  1  0  0  0  0
 23  5  1  1  0  0  0
 24  9  1  0  0  0  0
 26 21  1  6  0  0  0
 26 15  1  0  0  0  0
 27 12  2  0  0  0  0
 28 13  2  0  0  0  0
 30 32  1  0  0  0  0
 30 33  1  0  0  0  0
 31 29  1  0  0  0  0
 32 31  1  0  0  0  0
 33 29  1  0  0  0  0
 34 35  1  6  0  0  0
 34 30  1  0  0  0  0
 36 34  1  0  0  0  0
 36 40  1  1  0  0  0
 37 38  1  0  0  0  0
 38 36  1  0  0  0  0
 39 38  2  0  0  0  0
 40 42  1  0  0  0  0
 42 41  1  1  0  0  0
 43 45  1  0  0  0  0
 45 47  1  0  0  0  0
 46 45  2  0  0  0  0
 47 42  1  0  0  0  0
 47 44  1  0  0  0  0
 49 50  1  1  0  0  0
 49 48  1  0  0  0  0
 52 53  2  0  0  0  0
 53 51  1  0  0  0  0
 53 49  1  0  0  0  0
M  END
>  <MODEL>
1

>  <REMARK>
 VINA RESULT:      -7.8      0.000      0.000
  Name = 
  10 active torsions:
  status: ('A' for Active; 'I' for Inactive)
    1  A    between atoms: C_2  and  C_20
    2  A    between atoms: C_2  and  C_53
    3  A    between atoms: C_3  and  CA_4
    4  A    between atoms: C_3  and  C_15
    5  A    between atoms: CA_4  and  C_47
    6  A    between atoms: C_16  and  C_20
    7  A    between atoms: C_16  and  C_21
    8  A    between atoms: C_20  and  C_29
    9  A    between atoms: C_21  and  C_31
   10  A    between atoms: N_46  and  C_53
                            x       y       z     vdW  Elec       q    Type
                         _______ _______ _______ _____ _____    ______ ____

>  <TORSDO>
F 10

$$$$
=
 OpenBabel11062420213D

 53 57  0  0  1  0  0  0  0  0999 V2000
  191.8550  170.1020  141.6830 C   0  0  1  0  0  0  0  0  0  0  0  0
  193.3720  174.4650  143.7380 O   0  0  0  0  0  0  0  0  0  0  0  0
  191.0190  168.8610  141.9440 C   0  0  0  0  0  1  0  0  0  0  0  0
  195.3100  175.7730  143.2720 C   0  0  0  0  0  2  0  0  0  0  0  0
  195.2720  174.0610  144.9260 F   0  0  0  0  0  0  0  0  0  0  0  0
  194.3800  171.5840  140.9380 N   0  0  2  0  0  0  0  0  0  0  0  0
  192.9250  169.7070  140.8360 O   0  0  0  0  0  0  0  0  0  0  0  0
  193.4670  170.7870  140.1040 C   0  0  2  0  0  3  0  0  0  0  0  0
  196.9780  171.9550  141.4620 S   0  0  0  0  0  0  0  0  0  0  0  0
  194.7650  172.7860  140.1990 C   0  0  0  0  0  2  0  0  0  0  0  0
  196.2740  172.8640  140.0740 C   0  0  1  0  0  3  0  0  0  0  0  0
  191.9840  171.6190  143.6960 C   0  0  0  0  0  3  0  0  0  0  0  0
  190.9820  172.5020  143.0850 C   0  0  0  0  0  0  0  0  0  0  0  0
  196.4210  175.2250  141.0540 C   0  0  0  0  0  0  0  0  0  0  0  0
  191.0470  174.8490  144.1610 C   0  0  1  0  0  3  0  0  0  0  0  0
  196.7330  174.2550  140.0490 N   0  0  0  0  0  2  0  0  0  0  0  0
  196.7370  176.4330  140.8660 O   0  0  0  0  0  0  0  0  0  0  0  0
  190.9080  171.1470  141.0780 C   0  0  0  0  0  0  0  0  0  0  0  0
  190.4490  171.0090  139.9130 O   0  0  0  0  0  0  0  0  0  0  0  0
  195.7070  174.8340  142.2300 N   0  0  0  0  0  2  0  0  0  0  0  0
  189.2880  174.0500  142.6760 O   0  0  0  0  0  0  0  0  0  0  0  0
  189.4980  173.1920  141.6540 O   0  0  0  0  0  0  0  0  0  0  0  0
  194.4980  175.0450  144.3290 C   0  0  2  0  0  3  0  0  0  0  0  0
  195.5760  170.8230  141.2990 C   0  0  0  0  0  2  0  0  0  0  0  0
  192.4050  174.4490  144.7440 C   0  0  0  0  0  2  0  0  0  0  0  0
  190.2070  173.6350  143.6850 C   0  0  1  0  0  3  0  0  0  0  0  0
  192.4090  170.5320  143.0350 C   0  0  0  0  0  3  0  0  0  0  0  0
  190.4850  172.2770  141.9130 C   0  0  0  0  0  0  0  0  0  0  0  0
  190.4970  175.7120  147.6160 C   0  0  0  0  0  2  0  0  0  0  0  0
  190.2820  175.7630  145.1690 C   0  0  0  0  0  0  0  0  0  0  0  0
  189.4610  174.6870  147.2100 C   0  0  0  0  0  2  0  0  0  0  0  0
  189.0830  175.0300  145.7830 C   0  0  0  0  0  2  0  0  0  0  0  0
  191.2230  176.0890  146.3390 C   0  0  0  0  0  2  0  0  0  0  0  0
  189.7810  177.0540  144.4420 C   0  0  1  0  0  3  0  0  0  0  0  0
  190.7470  177.4300  143.3060 C   0  0  0  0  0  1  0  0  0  0  0  0
  188.3080  177.0150  143.9510 C   0  0  2  0  0  3  0  0  0  0  0  0
  188.2130  176.5380  141.4610 N   0  0  0  0  0  1  0  0  0  0  0  0
  188.1670  177.4840  142.5250 C   0  0  0  0  0  0  0  0  0  0  0  0
  187.9500  178.6980  142.2690 O   0  0  0  0  0  0  0  0  0  0  0  0
  187.4180  177.8900  144.8370 C   0  0  0  0  0  2  0  0  0  0  0  0
  186.0530  176.8810  146.6940 C   0  0  0  0  0  1  0  0  0  0  0  0
  186.1030  177.2110  145.2110 C   0  0  1  0  0  3  0  0  0  0  0  0
  183.4100  178.8990  143.0980 N   0  0  0  0  0  1  0  0  0  0  0  0
  184.4030  178.9860  145.8050 C   0  0  0  0  0  1  0  0  0  0  0  0
  184.4550  178.0160  143.4970 C   0  0  0  0  0  0  0  0  0  0  0  0
  184.9300  177.2050  142.6540 O   0  0  0  0  0  0  0  0  0  0  0  0
  184.9740  178.0580  144.8350 N   0  0  0  0  0  0  0  0  0  0  0  0
  194.1420  170.2570  138.8300 C   0  0  0  0  0  2  0  0  0  0  0  0
  193.3030  170.5740  137.6020 C   0  0  1  0  0  3  0  0  0  0  0  0
  194.1730  170.8390  136.4640 N   0  0  0  0  0  1  0  0  0  0  0  0
  192.6230  168.1660  137.8870 O   0  0  0  0  0  1  0  0  0  0  0  0
  191.4110  169.5860  136.5430 O   0  0  0  0  0  0  0  0  0  0  0  0
  192.4030  169.4150  137.3000 C   0  0  0  0  0  0  0  0  0  0  0  0
  1  3  1  1  0  0  0
  1 27  1  0  0  0  0
  2 23  1  0  0  0  0
  2 25  1  0  0  0  0
  4 23  1  0  0  0  0
  6 10  1  6  0  0  0
  6 24  1  0  0  0  0
  7  1  1  0  0  0  0
  8 48  1  6  0  0  0
  8  7  1  0  0  0  0
  8  6  1  0  0  0  0
 11 10  1  1  0  0  0
 11  9  1  0  0  0  0
 13 26  1  0  0  0  0
 13 12  1  0  0  0  0
 14 20  1  0  0  0  0
 15 25  1  1  0  0  0
 15 30  1  0  0  0  0
 16 11  1  0  0  0  0
 16 14  1  0  0  0  0
 17 14  2  0  0  0  0
 18  1  1  0  0  0  0
 18 28  1  0  0  0  0
 19 18  2  0  0  0  0
 20  4  1  0  0  0  0
 22 28  1  0  0  0  0
 22 21  1  0  0  0  0
 23  5  1  6  0  0  0
 24  9  1  0  0  0  0
 26 21  1  6  0  0  0
 26 15  1  0  0  0  0
 27 12  2  0  0  0  0
 28 13  2  0  0  0  0
 30 32  1  0  0  0  0
 30 33  1  0  0  0  0
 31 29  1  0  0  0  0
 32 31  1  0  0  0  0
 33 29  1  0  0  0  0
 34 35  1  6  0  0  0
 34 30  1  0  0  0  0
 36 34  1  0  0  0  0
 36 40  1  1  0  0  0
 37 38  1  0  0  0  0
 38 36  1  0  0  0  0
 39 38  2  0  0  0  0
 40 42  1  0  0  0  0
 42 41  1  1  0  0  0
 43 45  1  0  0  0  0
 45 47  1  0  0  0  0
 46 45  2  0  0  0  0
 47 42  1  0  0  0  0
 47 44  1  0  0  0  0
 49 50  1  6  0  0  0
 49 48  1  0  0  0  0
 52 53  2  0  0  0  0
 53 49  1  0  0  0  0
 53 51  1  0  0  0  0
M  END
>  <MODEL>
2

>  <REMARK>
 VINA RESULT:      -7.7      1.790      2.193
  Name = 
  10 active torsions:
  status: ('A' for Active; 'I' for Inactive)
    1  A    between atoms: C_2  and  C_20
    2  A    between atoms: C_2  and  C_53
    3  A    between atoms: C_3  and  CA_4
    4  A    between atoms: C_3  and  C_15
    5  A    between atoms: CA_4  and  C_47
    6  A    between atoms: C_16  and  C_20
    7  A    between atoms: C_16  and  C_21
    8  A    between atoms: C_20  and  C_29
    9  A    between atoms: C_21  and  C_31
   10  A    between atoms: N_46  and  C_53
                            x       y       z     vdW  Elec       q    Type
                         _______ _______ _______ _____ _____    ______ ____

>  <TORSDO>
F 10

$$$$
=
 OpenBabel11062420213D

 53 57  0  0  1  0  0  0  0  0999 V2000
  189.6960  174.5650  144.6370 C   0  0  1  0  0  0  0  0  0  0  0  0
  192.5870  171.3090  142.0690 O   0  0  0  0  0  0  0  0  0  0  0  0
  189.1720  174.8920  146.0240 C   0  0  0  0  0  1  0  0  0  0  0  0
  192.5260  170.7140  139.7610 C   0  0  0  0  0  2  0  0  0  0  0  0
  191.2790  169.5590  141.4280 F   0  0  0  0  0  0  0  0  0  0  0  0
  189.4220  173.9540  141.6920 N   0  0  2  0  0  0  0  0  0  0  0  0
  188.6960  174.9720  143.7130 O   0  0  0  0  0  0  0  0  0  0  0  0
  189.2150  175.2140  142.4220 C   0  0  2  0  0  3  0  0  0  0  0  0
  188.3000  172.3790  139.8410 S   0  0  0  0  0  0  0  0  0  0  0  0
  190.1300  174.2420  140.4440 C   0  0  0  0  0  2  0  0  0  0  0  0
  189.3300  173.7380  139.2590 C   0  0  1  0  0  3  0  0  0  0  0  0
  191.0330  172.4250  144.5920 C   0  0  0  0  0  3  0  0  0  0  0  0
  192.2750  173.2110  144.5740 C   0  0  0  0  0  0  0  0  0  0  0  0
  191.2640  172.3640  138.2980 C   0  0  0  0  0  0  0  0  0  0  0  0
  194.2530  171.7850  143.7220 C   0  0  1  0  0  3  0  0  0  0  0  0
  190.2090  173.3210  138.1650 N   0  0  0  0  0  2  0  0  0  0  0  0
  192.0620  172.1840  137.3360 O   0  0  0  0  0  0  0  0  0  0  0  0
  191.0390  175.2930  144.4940 C   0  0  0  0  0  0  0  0  0  0  0  0
  191.0900  176.5480  144.3980 O   0  0  0  0  0  0  0  0  0  0  0  0
  191.4450  171.6640  139.5330 N   0  0  0  0  0  2  0  0  0  0  0  0
  194.4690  173.9680  144.7830 O   0  0  0  0  0  0  0  0  0  0  0  0
  193.5620  174.9610  144.6550 O   0  0  0  0  0  0  0  0  0  0  0  0
  192.4750  170.2220  141.1970 C   0  0  2  0  0  3  0  0  0  0  0  0
  188.1510  173.2930  141.3950 C   0  0  0  0  0  2  0  0  0  0  0  0
  193.2040  170.7940  143.2090 C   0  0  0  0  0  2  0  0  0  0  0  0
  193.6910  172.7710  144.7800 C   0  0  1  0  0  3  0  0  0  0  0  0
  189.8460  173.0500  144.5880 C   0  0  0  0  0  3  0  0  0  0  0  0
  192.2740  174.5030  144.5490 C   0  0  0  0  0  0  0  0  0  0  0  0
  195.5530  168.7510  145.1680 C   0  0  0  0  0  2  0  0  0  0  0  0
  195.5170  171.0160  144.2150 C   0  0  0  0  0  0  0  0  0  0  0  0
  195.2760  169.7320  146.2860 C   0  0  0  0  0  2  0  0  0  0  0  0
  195.6560  171.0940  145.7400 C   0  0  0  0  0  2  0  0  0  0  0  0
  195.3410  169.5270  143.8820 C   0  0  0  0  0  2  0  0  0  0  0  0
  196.7990  171.6180  143.5490 C   0  0  1  0  0  3  0  0  0  0  0  0
  197.8180  170.5040  143.2610 C   0  0  0  0  0  1  0  0  0  0  0  0
  196.5480  172.5030  142.2970 C   0  0  2  0  0  3  0  0  0  0  0  0
  196.0290  170.8020  140.4870 N   0  0  0  0  0  1  0  0  0  0  0  0
  196.9040  171.7940  141.0150 C   0  0  0  0  0  0  0  0  0  0  0  0
  197.9410  172.1130  140.3750 O   0  0  0  0  0  0  0  0  0  0  0  0
  197.3610  173.7970  142.3750 C   0  0  0  0  0  2  0  0  0  0  0  0
  197.2200  176.2750  142.7860 C   0  0  0  0  0  1  0  0  0  0  0  0
  196.4950  175.0490  142.2570 C   0  0  1  0  0  3  0  0  0  0  0  0
  194.3330  175.1770  139.1130 N   0  0  0  0  0  1  0  0  0  0  0  0
  197.0880  175.5950  139.8600 C   0  0  0  0  0  1  0  0  0  0  0  0
  194.7210  175.0650  140.4800 C   0  0  0  0  0  0  0  0  0  0  0  0
  193.8470  174.7830  141.3460 O   0  0  0  0  0  0  0  0  0  0  0  0
  196.0910  175.2510  140.8670 N   0  0  0  0  0  0  0  0  0  0  0  0
  188.2940  176.1870  141.6710 C   0  0  0  0  0  2  0  0  0  0  0  0
  188.1470  177.4920  142.4380 C   0  0  1  0  0  3  0  0  0  0  0  0
  189.3040  178.3430  142.1920 N   0  0  0  0  0  1  0  0  0  0  0  0
  186.2500  179.0990  142.8420 O   0  0  0  0  0  1  0  0  0  0  0  0
  186.4510  177.9860  140.8390 O   0  0  0  0  0  0  0  0  0  0  0  0
  186.8960  178.1900  142.0000 C   0  0  0  0  0  0  0  0  0  0  0  0
  1  3  1  1  0  0  0
  2 25  1  0  0  0  0
  4 23  1  0  0  0  0
  6 10  1  6  0  0  0
  6  8  1  0  0  0  0
  7  1  1  0  0  0  0
  8 48  1  6  0  0  0
  8  7  1  0  0  0  0
  9 24  1  0  0  0  0
 11  9  1  0  0  0  0
 11 10  1  1  0  0  0
 13 12  1  0  0  0  0
 14 20  1  0  0  0  0
 15 25  1  1  0  0  0
 15 30  1  0  0  0  0
 15 26  1  0  0  0  0
 16 14  1  0  0  0  0
 16 11  1  0  0  0  0
 17 14  2  0  0  0  0
 18 28  1  0  0  0  0
 18  1  1  0  0  0  0
 19 18  2  0  0  0  0
 20  4  1  0  0  0  0
 22 21  1  0  0  0  0
 23  5  1  6  0  0  0
 23  2  1  0  0  0  0
 24  6  1  0  0  0  0
 26 13  1  6  0  0  0
 26 21  1  0  0  0  0
 27 12  2  0  0  0  0
 27  1  1  0  0  0  0
 28 13  2  0  0  0  0
 28 22  1  0  0  0  0
 29 31  1  0  0  0  0
 30 32  1  0  0  0  0
 32 31  1  0  0  0  0
 33 30  1  0  0  0  0
 33 29  1  0  0  0  0
 34 35  1  6  0  0  0
 34 30  1  0  0  0  0
 36 40  1  1  0  0  0
 36 34  1  0  0  0  0
 37 38  1  0  0  0  0
 38 36  1  0  0  0  0
 39 38  2  0  0  0  0
 42 40  1  0  0  0  0
 42 41  1  6  0  0  0
 43 45  1  0  0  0  0
 44 47  1  0  0  0  0
 45 47  1  0  0  0  0
 45 46  2  0  0  0  0
 47 42  1  0  0  0  0
 48 49  1  0  0  0  0
 49 50  1  6  0  0  0
 52 53  2  0  0  0  0
 53 49  1  0  0  0  0
 53 51  1  0  0  0  0
M  END
>  <MODEL>
3

>  <REMARK>
 VINA RESULT:      -7.4      3.022      8.878
  Name = 
  10 active torsions:
  status: ('A' for Active; 'I' for Inactive)
    1  A    between atoms: C_2  and  C_20
    2  A    between atoms: C_2  and  C_53
    3  A    between atoms: C_3  and  CA_4
    4  A    between atoms: C_3  and  C_15
    5  A    between atoms: CA_4  and  C_47
    6  A    between atoms: C_16  and  C_20
    7  A    between atoms: C_16  and  C_21
    8  A    between atoms: C_20  and  C_29
    9  A    between atoms: C_21  and  C_31
   10  A    between atoms: N_46  and  C_53
                            x       y       z     vdW  Elec       q    Type
                         _______ _______ _______ _____ _____    ______ ____

>  <TORSDO>
F 10

$$$$
=
 OpenBabel11062420213D

 53 57  0  0  1  0  0  0  0  0999 V2000
  196.6840  174.8760  143.0930 C   0  0  1  0  0  0  0  0  0  0  0  0
  191.8770  173.6600  142.1060 O   0  0  0  0  0  0  0  0  0  0  0  0
  197.6690  176.0320  143.0960 C   0  0  0  0  0  1  0  0  0  0  0  0
  190.9340  171.5540  141.5040 C   0  0  0  0  0  2  0  0  0  0  0  0
  191.7250  173.1240  139.8980 F   0  0  0  0  0  0  0  0  0  0  0  0
  195.7160  172.1190  142.3280 N   0  0  2  0  0  0  0  0  0  0  0  0
  197.4260  173.7030  142.7890 O   0  0  0  0  0  0  0  0  0  0  0  0
  196.7920  172.5250  143.2430 C   0  0  2  0  0  3  0  0  0  0  0  0
  195.1740  170.4270  140.3260 S   0  0  0  0  0  0  0  0  0  0  0  0
  194.9740  171.0130  142.9340 C   0  0  0  0  0  2  0  0  0  0  0  0
  194.9750  169.8120  142.0070 C   0  0  1  0  0  3  0  0  0  0  0  0
  194.4280  175.5350  142.1710 C   0  0  0  0  0  3  0  0  0  0  0  0
  193.9020  175.6170  143.5410 C   0  0  0  0  0  0  0  0  0  0  0  0
  192.4260  169.5650  142.0200 C   0  0  0  0  0  0  0  0  0  0  0  0
  191.3220  175.4930  143.5430 C   0  0  1  0  0  3  0  0  0  0  0  0
  193.7460  169.0280  142.1550 N   0  0  0  0  0  2  0  0  0  0  0  0
  191.4330  168.8430  142.3150 O   0  0  0  0  0  0  0  0  0  0  0  0
  196.0100  174.8720  144.4720 C   0  0  0  0  0  0  0  0  0  0  0  0
  196.6500  174.5410  145.5050 O   0  0  0  0  0  0  0  0  0  0  0  0
  192.2430  170.9240  141.6140 N   0  0  0  0  0  2  0  0  0  0  0  0
  192.6850  176.1200  145.4630 O   0  0  0  0  0  0  0  0  0  0  0  0
  193.9110  175.6120  145.7150 O   0  0  0  0  0  0  0  0  0  0  0  0
  191.1050  173.0180  141.1340 C   0  0  2  0  0  3  0  0  0  0  0  0
  196.2460  171.7040  141.0290 C   0  0  0  0  0  2  0  0  0  0  0  0
  191.4330  174.9820  142.1030 C   0  0  0  0  0  2  0  0  0  0  0  0
  192.6130  176.1940  144.0400 C   0  0  1  0  0  3  0  0  0  0  0  0
  195.7000  175.1610  141.9660 C   0  0  0  0  0  3  0  0  0  0  0  0
  194.6230  175.3360  144.5760 C   0  0  0  0  0  0  0  0  0  0  0  0
  189.1390  177.9150  142.0090 C   0  0  0  0  0  2  0  0  0  0  0  0
  190.0480  176.3790  143.6980 C   0  0  0  0  0  0  0  0  0  0  0  0
  190.1870  178.6570  142.8090 C   0  0  0  0  0  2  0  0  0  0  0  0
  190.4160  177.8240  144.0550 C   0  0  0  0  0  2  0  0  0  0  0  0
  189.3350  176.4470  142.3390 C   0  0  0  0  0  2  0  0  0  0  0  0
  189.1240  175.7910  144.8160 C   0  0  1  0  0  3  0  0  0  0  0  0
  189.3140  174.2680  144.9110 C   0  0  0  0  0  1  0  0  0  0  0  0
  189.2430  176.4720  146.2070 C   0  0  2  0  0  3  0  0  0  0  0  0
  190.7560  175.4300  147.9570 N   0  0  0  0  0  1  0  0  0  0  0  0
  189.4870  175.4750  147.3120 C   0  0  0  0  0  0  0  0  0  0  0  0
  188.5590  174.7220  147.7100 O   0  0  0  0  0  0  0  0  0  0  0  0
  187.9710  177.2570  146.5370 C   0  0  0  0  0  2  0  0  0  0  0  0
  185.6100  176.4170  146.7560 C   0  0  0  0  0  1  0  0  0  0  0  0
  186.7430  176.7350  145.7950 C   0  0  1  0  0  3  0  0  0  0  0  0
  185.6030  178.2190  142.4690 N   0  0  0  0  0  1  0  0  0  0  0  0
  186.2920  179.1290  145.1180 C   0  0  0  0  0  1  0  0  0  0  0  0
  185.9460  177.2710  143.4760 C   0  0  0  0  0  0  0  0  0  0  0  0
  185.9420  176.0410  143.1900 O   0  0  0  0  0  0  0  0  0  0  0  0
  186.3090  177.7070  144.7940 N   0  0  0  0  0  0  0  0  0  0  0  0
  197.8430  171.4230  143.4460 C   0  0  0  0  0  2  0  0  0  0  0  0
  197.9320  171.0250  144.9110 C   0  0  1  0  0  3  0  0  0  0  0  0
  196.8200  171.6070  145.6510 N   0  0  0  0  0  1  0  0  0  0  0  0
  197.9380  168.7250  143.8850 O   0  0  0  0  0  0  0  0  0  0  0  0
  197.8790  169.0010  146.1680 O   0  0  0  0  0  1  0  0  0  0  0  0
  197.8980  169.5320  145.0250 C   0  0  0  0  0  0  0  0  0  0  0  0
  1  3  1  1  0  0  0
  1 18  1  0  0  0  0
  4 20  1  0  0  0  0
  6 24  1  6  0  0  0
  6 10  1  0  0  0  0
  6  8  1  0  0  0  0
  7  1  1  0  0  0  0
  7  8  1  0  0  0  0
  8 48  1  6  0  0  0
  9 24  1  0  0  0  0
  9 11  1  0  0  0  0
 11 16  1  0  0  0  0
 11 10  1  1  0  0  0
 12 13  1  0  0  0  0
 13 28  2  0  0  0  0
 14 16  1  0  0  0  0
 14 17  2  0  0  0  0
 15 25  1  6  0  0  0
 15 30  1  0  0  0  0
 15 26  1  0  0  0  0
 18 28  1  0  0  0  0
 18 19  2  0  0  0  0
 20 14  1  0  0  0  0
 21 22  1  0  0  0  0
 23  5  1  6  0  0  0
 23  4  1  0  0  0  0
 23  2  1  0  0  0  0
 25  2  1  0  0  0  0
 26 13  1  6  0  0  0
 26 21  1  0  0  0  0
 27 12  2  0  0  0  0
 27  1  1  0  0  0  0
 28 22  1  0  0  0  0
 29 33  1  0  0  0  0
 29 31  1  0  0  0  0
 30 32  1  0  0  0  0
 30 34  1  0  0  0  0
 31 32  1  0  0  0  0
 33 30  1  0  0  0  0
 34 35  1  1  0  0  0
 34 36  1  0  0  0  0
 36 40  1  1  0  0  0
 36 38  1  0  0  0  0
 38 39  2  0  0  0  0
 38 37  1  0  0  0  0
 42 40  1  0  0  0  0
 42 41  1  1  0  0  0
 43 45  1  0  0  0  0
 45 47  1  0  0  0  0
 46 45  2  0  0  0  0
 47 44  1  0  0  0  0
 47 42  1  0  0  0  0
 48 49  1  0  0  0  0
 49 53  1  0  0  0  0
 49 50  1  1  0  0  0
 51 53  2  0  0  0  0
 53 52  1  0  0  0  0
M  END
>  <MODEL>
4

>  <REMARK>
 VINA RESULT:      -7.3      2.661      5.207
  Name = 
  10 active torsions:
  status: ('A' for Active; 'I' for Inactive)
    1  A    between atoms: C_2  and  C_20
    2  A    between atoms: C_2  and  C_53
    3  A    between atoms: C_3  and  CA_4
    4  A    between atoms: C_3  and  C_15
    5  A    between atoms: CA_4  and  C_47
    6  A    between atoms: C_16  and  C_20
    7  A    between atoms: C_16  and  C_21
    8  A    between atoms: C_20  and  C_29
    9  A    between atoms: C_21  and  C_31
   10  A    between atoms: N_46  and  C_53
                            x       y       z     vdW  Elec       q    Type
                         _______ _______ _______ _____ _____    ______ ____

>  <TORSDO>
F 10

$$$$
=
 OpenBabel11062420213D

 53 57  0  0  1  0  0  0  0  0999 V2000
  191.6110  170.6530  141.8780 C   0  0  1  0  0  0  0  0  0  0  0  0
  193.2350  174.6940  144.4470 O   0  0  0  0  0  0  0  0  0  0  0  0
  190.8190  169.3650  142.0130 C   0  0  0  0  0  1  0  0  0  0  0  0
  195.1070  176.1100  144.0290 C   0  0  0  0  0  2  0  0  0  0  0  0
  195.2350  174.1660  145.3990 F   0  0  0  0  0  0  0  0  0  0  0  0
  194.0410  172.2990  141.1650 N   0  0  2  0  0  0  0  0  0  0  0  0
  192.6110  170.4200  140.8950 O   0  0  0  0  0  0  0  0  0  0  0  0
  193.0730  171.6130  140.2960 C   0  0  2  0  0  3  0  0  0  0  0  0
  196.6690  172.6580  141.5240 S   0  0  0  0  0  0  0  0  0  0  0  0
  194.3450  173.6100  140.5900 C   0  0  0  0  0  2  0  0  0  0  0  0
  195.8370  173.7470  140.3550 C   0  0  1  0  0  3  0  0  0  0  0  0
  191.8900  171.8500  144.0830 C   0  0  0  0  0  3  0  0  0  0  0  0
  190.8260  172.7880  143.6980 C   0  0  0  0  0  0  0  0  0  0  0  0
  196.0330  175.9350  141.6700 C   0  0  0  0  0  0  0  0  0  0  0  0
  190.9480  174.9460  145.1130 C   0  0  1  0  0  3  0  0  0  0  0  0
  196.2710  175.1370  140.5060 N   0  0  0  0  0  2  0  0  0  0  0  0
  196.3140  177.1660  141.6450 O   0  0  0  0  0  0  0  0  0  0  0  0
  190.6010  171.7520  141.5200 C   0  0  0  0  0  0  0  0  0  0  0  0
  190.0460  171.7800  140.3900 O   0  0  0  0  0  0  0  0  0  0  0  0
  195.4270  175.3500  142.8270 N   0  0  0  0  0  2  0  0  0  0  0  0
  189.0810  174.3330  143.6720 O   0  0  0  0  0  0  0  0  0  0  0  0
  189.2160  173.6460  142.5160 O   0  0  0  0  0  0  0  0  0  0  0  0
  194.3980  175.2080  145.0250 C   0  0  2  0  0  3  0  0  0  0  0  0
  195.2750  171.5250  141.3050 C   0  0  0  0  0  2  0  0  0  0  0  0
  192.3570  174.4990  145.5140 C   0  0  0  0  0  2  0  0  0  0  0  0
  190.0890  173.7950  144.5270 C   0  0  1  0  0  3  0  0  0  0  0  0
  192.2720  170.8880  143.2300 C   0  0  0  0  0  3  0  0  0  0  0  0
  190.2350  172.7300  142.5510 C   0  0  0  0  0  0  0  0  0  0  0  0
  191.3310  177.2670  147.8420 C   0  0  0  0  0  2  0  0  0  0  0  0
  190.2600  175.6740  146.3080 C   0  0  0  0  0  0  0  0  0  0  0  0
  191.5690  175.8690  148.3690 C   0  0  0  0  0  2  0  0  0  0  0  0
  190.5790  174.9820  147.6390 C   0  0  0  0  0  2  0  0  0  0  0  0
  190.8450  177.0910  146.4160 C   0  0  0  0  0  2  0  0  0  0  0  0
  188.7100  175.6950  146.0960 C   0  0  1  0  0  3  0  0  0  0  0  0
  187.9970  175.1700  147.3530 C   0  0  0  0  0  1  0  0  0  0  0  0
  188.1180  177.0530  145.6280 C   0  0  2  0  0  3  0  0  0  0  0  0
  185.7560  177.4110  146.4810 N   0  0  0  0  0  1  0  0  0  0  0  0
  187.1550  177.6340  146.6320 C   0  0  0  0  0  0  0  0  0  0  0  0
  187.5800  178.2650  147.6360 O   0  0  0  0  0  0  0  0  0  0  0  0
  187.3870  176.8950  144.2930 C   0  0  0  0  0  2  0  0  0  0  0  0
  189.2920  177.7220  142.8730 C   0  0  0  0  0  1  0  0  0  0  0  0
  187.8320  177.9150  143.2480 C   0  0  1  0  0  3  0  0  0  0  0  0
  184.8160  178.2910  140.9400 N   0  0  0  0  0  1  0  0  0  0  0  0
  187.4270  177.0660  140.9010 C   0  0  0  0  0  1  0  0  0  0  0  0
  185.6860  178.4440  142.0580 C   0  0  0  0  0  0  0  0  0  0  0  0
  185.2970  179.1180  143.0520 O   0  0  0  0  0  0  0  0  0  0  0  0
  186.9820  177.8260  142.0630 N   0  0  0  0  0  0  0  0  0  0  0  0
  193.6450  171.3010  138.9050 C   0  0  0  0  0  2  0  0  0  0  0  0
  192.6490  171.6710  137.8160 C   0  0  1  0  0  3  0  0  0  0  0  0
  193.3270  172.3990  136.7520 N   0  0  0  0  0  1  0  0  0  0  0  0
  191.1440  169.6640  138.0410 O   0  0  0  0  0  1  0  0  0  0  0  0
  192.2660  170.0870  136.0770 O   0  0  0  0  0  0  0  0  0  0  0  0
  192.0250  170.4240  137.2670 C   0  0  0  0  0  0  0  0  0  0  0  0
  1  3  1  1  0  0  0
  1 27  1  0  0  0  0
  2 23  1  0  0  0  0
  2 25  1  0  0  0  0
  4 23  1  0  0  0  0
  6 10  1  6  0  0  0
  6 24  1  0  0  0  0
  7  1  1  0  0  0  0
  8 48  1  6  0  0  0
  8  7  1  0  0  0  0
  8  6  1  0  0  0  0
 11 16  1  0  0  0  0
 11 10  1  1  0  0  0
 11  9  1  0  0  0  0
 13 12  1  0  0  0  0
 13 26  1  0  0  0  0
 14 20  1  0  0  0  0
 15 25  1  1  0  0  0
 15 30  1  0  0  0  0
 16 14  1  0  0  0  0
 17 14  2  0  0  0  0
 18  1  1  0  0  0  0
 18 28  1  0  0  0  0
 19 18  2  0  0  0  0
 20  4  1  0  0  0  0
 22 28  1  0  0  0  0
 22 21  1  0  0  0  0
 23  5  1  6  0  0  0
 24  9  1  0  0  0  0
 26 21  1  6  0  0  0
 26 15  1  0  0  0  0
 27 12  2  0  0  0  0
 28 13  2  0  0  0  0
 29 31  1  0  0  0  0
 30 33  1  0  0  0  0
 30 32  1  0  0  0  0
 32 31  1  0  0  0  0
 33 29  1  0  0  0  0
 34 30  1  0  0  0  0
 34 35  1  1  0  0  0
 36 40  1  6  0  0  0
 36 34  1  0  0  0  0
 36 38  1  0  0  0  0
 37 38  1  0  0  0  0
 38 39  2  0  0  0  0
 42 41  1  6  0  0  0
 42 40  1  0  0  0  0
 43 45  1  0  0  0  0
 44 47  1  0  0  0  0
 45 47  1  0  0  0  0
 45 46  2  0  0  0  0
 47 42  1  0  0  0  0
 49 50  1  6  0  0  0
 49 48  1  0  0  0  0
 52 53  2  0  0  0  0
 53 49  1  0  0  0  0
 53 51  1  0  0  0  0
M  END
>  <MODEL>
5

>  <REMARK>
 VINA RESULT:      -6.9      2.068      2.994
  Name = 
  10 active torsions:
  status: ('A' for Active; 'I' for Inactive)
    1  A    between atoms: C_2  and  C_20
    2  A    between atoms: C_2  and  C_53
    3  A    between atoms: C_3  and  CA_4
    4  A    between atoms: C_3  and  C_15
    5  A    between atoms: CA_4  and  C_47
    6  A    between atoms: C_16  and  C_20
    7  A    between atoms: C_16  and  C_21
    8  A    between atoms: C_20  and  C_29
    9  A    between atoms: C_21  and  C_31
   10  A    between atoms: N_46  and  C_53
                            x       y       z     vdW  Elec       q    Type
                         _______ _______ _______ _____ _____    ______ ____

>  <TORSDO>
F 10

$$$$
=
 OpenBabel11062420213D

 53 57  0  0  1  0  0  0  0  0999 V2000
  194.4600  170.1240  144.5220 C   0  0  1  0  0  0  0  0  0  0  0  0
  193.3420  174.9050  143.3170 O   0  0  0  0  0  0  0  0  0  0  0  0
  194.5310  169.1480  145.6830 C   0  0  0  0  0  1  0  0  0  0  0  0
  194.1050  176.2300  141.4880 C   0  0  0  0  0  2  0  0  0  0  0  0
  195.2230  176.1580  143.5890 F   0  0  0  0  0  0  0  0  0  0  0  0
  195.5710  171.6170  142.1430 N   0  0  2  0  0  0  0  0  0  0  0  0
  195.4770  169.7450  143.6040 O   0  0  0  0  0  0  0  0  0  0  0  0
  195.2190  170.1970  142.2900 C   0  0  2  0  0  3  0  0  0  0  0  0
  197.5040  173.2280  141.2310 S   0  0  0  0  0  0  0  0  0  0  0  0
  195.1150  172.0820  140.8330 C   0  0  0  0  0  2  0  0  0  0  0  0
  196.2780  172.6520  140.0440 C   0  0  1  0  0  3  0  0  0  0  0  0
  193.8710  172.4630  145.2630 C   0  0  0  0  0  3  0  0  0  0  0  0
  192.4900  172.2500  144.8080 C   0  0  0  0  0  0  0  0  0  0  0  0
  195.1160  174.8860  139.5850 C   0  0  0  0  0  0  0  0  0  0  0  0
  191.2780  174.5060  144.4640 C   0  0  1  0  0  3  0  0  0  0  0  0
  195.8380  173.7280  139.1540 N   0  0  0  0  0  2  0  0  0  0  0  0
  194.6510  175.6820  138.7210 O   0  0  0  0  0  0  0  0  0  0  0  0
  193.0310  170.0430  143.9690 C   0  0  0  0  0  0  0  0  0  0  0  0
  192.6320  169.0220  143.3500 O   0  0  0  0  0  0  0  0  0  0  0  0
  194.8750  175.1030  140.9780 N   0  0  0  0  0  2  0  0  0  0  0  0
  190.1830  172.3290  144.4860 O   0  0  0  0  0  0  0  0  0  0  0  0
  190.7570  171.1930  144.0320 O   0  0  0  0  0  0  0  0  0  0  0  0
  193.9700  176.1120  142.9970 C   0  0  2  0  0  3  0  0  0  0  0  0
  197.0140  171.8260  142.2640 C   0  0  0  0  0  2  0  0  0  0  0  0
  192.6630  175.1570  144.5090 C   0  0  0  0  0  2  0  0  0  0  0  0
  191.2620  173.0710  145.0540 C   0  0  1  0  0  3  0  0  0  0  0  0
  194.7850  171.4950  145.1010 C   0  0  0  0  0  3  0  0  0  0  0  0
  192.1110  171.1520  144.2420 C   0  0  0  0  0  0  0  0  0  0  0  0
  190.6420  177.0350  146.9500 C   0  0  0  0  0  2  0  0  0  0  0  0
  190.2230  175.4480  145.1210 C   0  0  0  0  0  0  0  0  0  0  0  0
  190.3360  175.6830  147.5570 C   0  0  0  0  0  2  0  0  0  0  0  0
  189.7070  174.8680  146.4440 C   0  0  0  0  0  2  0  0  0  0  0  0
  190.9130  176.7730  145.4810 C   0  0  0  0  0  2  0  0  0  0  0  0
  189.0190  175.6600  144.1450 C   0  0  1  0  0  3  0  0  0  0  0  0
  188.0250  176.6700  144.7440 C   0  0  0  0  0  1  0  0  0  0  0  0
  189.3990  176.0270  142.6850 C   0  0  2  0  0  3  0  0  0  0  0  0
  188.0340  177.9210  141.6920 N   0  0  0  0  0  1  0  0  0  0  0  0
  189.1980  177.4930  142.3920 C   0  0  0  0  0  0  0  0  0  0  0  0
  190.0210  178.3490  142.8140 O   0  0  0  0  0  0  0  0  0  0  0  0
  188.5680  175.2170  141.6880 C   0  0  0  0  0  2  0  0  0  0  0  0
  187.9470  172.7800  141.7310 C   0  0  0  0  0  1  0  0  0  0  0  0
  189.0680  173.7840  141.5250 C   0  0  1  0  0  3  0  0  0  0  0  0
  191.7050  173.2950  138.8090 N   0  0  0  0  0  1  0  0  0  0  0  0
  188.8590  173.7200  139.0050 C   0  0  0  0  0  1  0  0  0  0  0  0
  191.0890  173.3810  140.0920 C   0  0  0  0  0  0  0  0  0  0  0  0
  191.8040  173.2680  141.1260 O   0  0  0  0  0  0  0  0  0  0  0  0
  189.6770  173.6110  140.2080 N   0  0  0  0  0  0  0  0  0  0  0  0
  195.9540  169.2980  141.2850 C   0  0  0  0  0  2  0  0  0  0  0  0
  194.9650  168.5040  140.4460 C   0  0  1  0  0  3  0  0  0  0  0  0
  193.6440  169.1120  140.5300 N   0  0  0  0  0  1  0  0  0  0  0  0
  196.7790  168.6360  138.7040 O   0  0  0  0  0  1  0  0  0  0  0  0
  194.5900  168.2630  138.1050 O   0  0  0  0  0  0  0  0  0  0  0  0
  195.4280  168.4770  139.0220 C   0  0  0  0  0  0  0  0  0  0  0  0
  1 27  1  0  0  0  0
  1  3  1  1  0  0  0
  2 25  1  0  0  0  0
  4 23  1  0  0  0  0
  6 10  1  6  0  0  0
  6 24  1  0  0  0  0
  6  8  1  0  0  0  0
  7  1  1  0  0  0  0
  8 48  1  6  0  0  0
  8  7  1  0  0  0  0
  9 24  1  0  0  0  0
 11 10  1  1  0  0  0
 11  9  1  0  0  0  0
 13 26  1  0  0  0  0
 13 12  1  0  0  0  0
 14 20  1  0  0  0  0
 15 25  1  1  0  0  0
 15 26  1  0  0  0  0
 15 30  1  0  0  0  0
 16 14  1  0  0  0  0
 16 11  1  0  0  0  0
 17 14  2  0  0  0  0
 18 28  1  0  0  0  0
 18  1  1  0  0  0  0
 19 18  2  0  0  0  0
 20  4  1  0  0  0  0
 22 28  1  0  0  0  0
 22 21  1  0  0  0  0
 23  2  1  0  0  0  0
 23  5  1  1  0  0  0
 26 21  1  6  0  0  0
 27 12  2  0  0  0  0
 28 13  2  0  0  0  0
 29 31  1  0  0  0  0
 30 33  1  0  0  0  0
 30 32  1  0  0  0  0
 32 31  1  0  0  0  0
 33 29  1  0  0  0  0
 34 35  1  1  0  0  0
 34 30  1  0  0  0  0
 36 40  1  6  0  0  0
 36 34  1  0  0  0  0
 37 38  1  0  0  0  0
 38 36  1  0  0  0  0
 38 39  2  0  0  0  0
 42 40  1  0  0  0  0
 42 41  1  6  0  0  0
 43 45  1  0  0  0  0
 44 47  1  0  0  0  0
 45 47  1  0  0  0  0
 45 46  2  0  0  0  0
 47 42  1  0  0  0  0
 49 50  1  6  0  0  0
 49 48  1  0  0  0  0
 51 53  1  0  0  0  0
 52 53  2  0  0  0  0
 53 49  1  0  0  0  0
M  END
>  <MODEL>
6

>  <REMARK>
 VINA RESULT:      -6.8      2.474      3.961
  Name = 
  10 active torsions:
  status: ('A' for Active; 'I' for Inactive)
    1  A    between atoms: C_2  and  C_20
    2  A    between atoms: C_2  and  C_53
    3  A    between atoms: C_3  and  CA_4
    4  A    between atoms: C_3  and  C_15
    5  A    between atoms: CA_4  and  C_47
    6  A    between atoms: C_16  and  C_20
    7  A    between atoms: C_16  and  C_21
    8  A    between atoms: C_20  and  C_29
    9  A    between atoms: C_21  and  C_31
   10  A    between atoms: N_46  and  C_53
                            x       y       z     vdW  Elec       q    Type
                         _______ _______ _______ _____ _____    ______ ____

>  <TORSDO>
F 10

$$$$
=
 OpenBabel11062420213D

 53 57  0  0  1  0  0  0  0  0999 V2000
  191.4800  170.5170  139.8010 C   0  0  1  0  0  0  0  0  0  0  0  0
  194.1330  173.8210  142.5590 O   0  0  0  0  0  0  0  0  0  0  0  0
  190.4420  169.4130  139.8940 C   0  0  0  0  0  1  0  0  0  0  0  0
  196.2270  174.8590  142.0890 C   0  0  0  0  0  2  0  0  0  0  0  0
  196.0410  172.7890  143.2510 F   0  0  0  0  0  0  0  0  0  0  0  0
  194.1440  171.6970  139.0030 N   0  0  2  0  0  0  0  0  0  0  0  0
  192.3260  170.1960  138.7050 O   0  0  0  0  0  0  0  0  0  0  0  0
  192.9860  171.3280  138.1770 C   0  0  2  0  0  3  0  0  0  0  0  0
  196.8080  171.4640  139.1280 S   0  0  0  0  0  0  0  0  0  0  0  0
  194.6760  172.9730  138.5260 C   0  0  0  0  0  2  0  0  0  0  0  0
  196.1400  172.8260  138.1560 C   0  0  1  0  0  3  0  0  0  0  0  0
  192.1830  171.3750  142.0680 C   0  0  0  0  0  3  0  0  0  0  0  0
  191.3190  172.5490  141.8820 C   0  0  0  0  0  0  0  0  0  0  0  0
  196.9050  174.7640  139.6430 C   0  0  0  0  0  0  0  0  0  0  0  0
  192.0140  174.4620  143.4730 C   0  0  1  0  0  3  0  0  0  0  0  0
  196.8740  174.0710  138.3920 N   0  0  0  0  0  2  0  0  0  0  0  0
  197.4410  175.9060  139.7050 O   0  0  0  0  0  0  0  0  0  0  0  0
  190.7060  171.8330  139.6510 C   0  0  0  0  0  0  0  0  0  0  0  0
  190.0830  172.1020  138.5900 O   0  0  0  0  0  0  0  0  0  0  0  0
  196.2800  174.1900  140.7960 N   0  0  0  0  0  2  0  0  0  0  0  0
  189.9520  174.4130  142.1770 O   0  0  0  0  0  0  0  0  0  0  0  0
  189.8430  173.8480  140.9540 O   0  0  0  0  0  0  0  0  0  0  0  0
  195.4210  174.0160  143.0630 C   0  0  2  0  0  3  0  0  0  0  0  0
  195.1900  170.6750  138.9460 C   0  0  0  0  0  2  0  0  0  0  0  0
  193.3210  173.6920  143.6860 C   0  0  0  0  0  2  0  0  0  0  0  0
  190.8840  173.5860  142.8710 C   0  0  1  0  0  3  0  0  0  0  0  0
  192.2810  170.4570  141.0950 C   0  0  0  0  0  3  0  0  0  0  0  0
  190.6410  172.7430  140.8000 C   0  0  0  0  0  0  0  0  0  0  0  0
  192.9020  176.8740  145.9980 C   0  0  0  0  0  2  0  0  0  0  0  0
  191.5950  175.1770  144.7940 C   0  0  0  0  0  0  0  0  0  0  0  0
  193.3570  175.5080  146.4630 C   0  0  0  0  0  2  0  0  0  0  0  0
  192.2790  174.5420  146.0110 C   0  0  0  0  0  2  0  0  0  0  0  0
  192.0920  176.6300  144.7390 C   0  0  0  0  0  2  0  0  0  0  0  0
  190.0430  175.0950  144.9740 C   0  0  1  0  0  3  0  0  0  0  0  0
  189.6940  174.1570  146.1410 C   0  0  0  0  0  1  0  0  0  0  0  0
  189.3120  176.4600  145.0980 C   0  0  2  0  0  3  0  0  0  0  0  0
  189.7930  177.3570  147.4230 N   0  0  0  0  0  1  0  0  0  0  0  0
  188.8800  176.7500  146.5140 C   0  0  0  0  0  0  0  0  0  0  0  0
  187.6980  176.5150  146.8820 O   0  0  0  0  0  0  0  0  0  0  0  0
  188.0740  176.4970  144.1990 C   0  0  0  0  0  2  0  0  0  0  0  0
  189.0460  177.9180  142.3640 C   0  0  0  0  0  1  0  0  0  0  0  0
  187.9520  177.8000  143.4120 C   0  0  1  0  0  3  0  0  0  0  0  0
  184.2760  178.6680  142.8670 N   0  0  0  0  0  1  0  0  0  0  0  0
  186.3610  177.1720  141.5490 C   0  0  0  0  0  1  0  0  0  0  0  0
  185.5880  178.6440  143.4230 C   0  0  0  0  0  0  0  0  0  0  0  0
  185.8170  179.2820  144.4880 O   0  0  0  0  0  0  0  0  0  0  0  0
  186.6330  177.8900  142.7900 N   0  0  0  0  0  0  0  0  0  0  0  0
  193.3650  171.0630  136.7120 C   0  0  0  0  0  2  0  0  0  0  0  0
  192.3720  171.7240  135.7680 C   0  0  1  0  0  3  0  0  0  0  0  0
  193.0500  172.1390  134.5470 N   0  0  0  0  0  1  0  0  0  0  0  0
  191.5390  169.3920  135.3110 O   0  0  0  0  0  0  0  0  0  0  0  0
  190.0930  171.1810  135.3320 O   0  0  0  0  0  1  0  0  0  0  0  0
  191.2750  170.7580  135.4420 C   0  0  0  0  0  0  0  0  0  0  0  0
  1  3  1  1  0  0  0
  1 27  1  0  0  0  0
  2 23  1  0  0  0  0
  2 25  1  0  0  0  0
  4 23  1  0  0  0  0
  6 10  1  6  0  0  0
  7  1  1  0  0  0  0
  8 48  1  6  0  0  0
  8  7  1  0  0  0  0
  8  6  1  0  0  0  0
 11 16  1  0  0  0  0
 11 10  1  1  0  0  0
 11  9  1  0  0  0  0
 13 12  1  0  0  0  0
 14 17  2  0  0  0  0
 14 20  1  0  0  0  0
 15 25  1  1  0  0  0
 15 30  1  0  0  0  0
 16 14  1  0  0  0  0
 18  1  1  0  0  0  0
 18 28  1  0  0  0  0
 19 18  2  0  0  0  0
 20  4  1  0  0  0  0
 21 26  1  0  0  0  0
 22 21  1  0  0  0  0
 23  5  1  6  0  0  0
 24  6  1  0  0  0  0
 24  9  1  0  0  0  0
 26 13  1  6  0  0  0
 26 15  1  0  0  0  0
 27 12  2  0  0  0  0
 28 22  1  0  0  0  0
 28 13  2  0  0  0  0
 29 31  1  0  0  0  0
 30 34  1  0  0  0  0
 30 32  1  0  0  0  0
 32 31  1  0  0  0  0
 33 30  1  0  0  0  0
 33 29  1  0  0  0  0
 34 36  1  0  0  0  0
 34 35  1  1  0  0  0
 36 40  1  6  0  0  0
 36 38  1  0  0  0  0
 38 39  2  0  0  0  0
 38 37  1  0  0  0  0
 42 41  1  6  0  0  0
 42 40  1  0  0  0  0
 43 45  1  0  0  0  0
 44 47  1  0  0  0  0
 45 46  2  0  0  0  0
 47 42  1  0  0  0  0
 47 45  1  0  0  0  0
 49 50  1  6  0  0  0
 49 48  1  0  0  0  0
 51 53  2  0  0  0  0
 52 53  1  0  0  0  0
 53 49  1  0  0  0  0
M  END
>  <MODEL>
7

>  <REMARK>
 VINA RESULT:      -6.8      2.835      3.928
  Name = 
  10 active torsions:
  status: ('A' for Active; 'I' for Inactive)
    1  A    between atoms: C_2  and  C_20
    2  A    between atoms: C_2  and  C_53
    3  A    between atoms: C_3  and  CA_4
    4  A    between atoms: C_3  and  C_15
    5  A    between atoms: CA_4  and  C_47
    6  A    between atoms: C_16  and  C_20
    7  A    between atoms: C_16  and  C_21
    8  A    between atoms: C_20  and  C_29
    9  A    between atoms: C_21  and  C_31
   10  A    between atoms: N_46  and  C_53
                            x       y       z     vdW  Elec       q    Type
                         _______ _______ _______ _____ _____    ______ ____

>  <TORSDO>
F 10

$$$$
=
 OpenBabel11062420213D

 53 57  0  0  1  0  0  0  0  0999 V2000
  195.5880  174.1010  139.0320 C   0  0  1  0  0  0  0  0  0  0  0  0
  191.5490  173.1850  141.9310 O   0  0  0  0  0  0  0  0  0  0  0  0
  196.4520  175.2150  138.4690 C   0  0  0  0  0  1  0  0  0  0  0  0
  190.0730  171.3120  141.9350 C   0  0  0  0  0  2  0  0  0  0  0  0
  189.7000  173.2510  140.6040 F   0  0  0  0  0  0  0  0  0  0  0  0
  193.8420  171.6430  138.8450 N   0  0  2  0  0  0  0  0  0  0  0  0
  195.5960  173.0510  138.0750 O   0  0  0  0  0  0  0  0  0  0  0  0
  195.2910  171.7940  138.6440 C   0  0  2  0  0  3  0  0  0  0  0  0
  191.6630  170.5400  137.7510 S   0  0  0  0  0  0  0  0  0  0  0  0
  193.5960  170.4160  139.6030 C   0  0  0  0  0  2  0  0  0  0  0  0
  192.6630  169.5020  138.8320 C   0  0  1  0  0  3  0  0  0  0  0  0
  193.6010  174.9780  140.3190 C   0  0  0  0  0  3  0  0  0  0  0  0
  194.3030  174.6950  141.5780 C   0  0  0  0  0  0  0  0  0  0  0  0
  191.0020  169.2580  140.7650 C   0  0  0  0  0  0  0  0  0  0  0  0
  192.6380  174.5730  143.5500 C   0  0  1  0  0  3  0  0  0  0  0  0
  191.8320  168.7060  139.7380 N   0  0  0  0  0  2  0  0  0  0  0  0
  190.4420  168.4840  141.5910 O   0  0  0  0  0  0  0  0  0  0  0  0
  196.1860  173.7320  140.3970 C   0  0  0  0  0  0  0  0  0  0  0  0
  197.2940  173.1400  140.4810 O   0  0  0  0  0  0  0  0  0  0  0  0
  190.8590  170.6770  140.8860 N   0  0  0  0  0  2  0  0  0  0  0  0
  195.0620  174.6720  143.7820 O   0  0  0  0  0  0  0  0  0  0  0  0
  195.9260  174.1160  142.9040 O   0  0  0  0  0  0  0  0  0  0  0  0
  190.2040  172.8220  141.8230 C   0  0  2  0  0  3  0  0  0  0  0  0
  193.1280  171.5870  137.5700 C   0  0  0  0  0  2  0  0  0  0  0  0
  191.5330  174.4610  142.4960 C   0  0  0  0  0  2  0  0  0  0  0  0
  193.9720  175.1190  142.9760 C   0  0  1  0  0  3  0  0  0  0  0  0
  194.1810  174.6730  139.1480 C   0  0  0  0  0  3  0  0  0  0  0  0
  195.4750  174.1510  141.6100 C   0  0  0  0  0  0  0  0  0  0  0  0
  193.3380  177.1810  145.9360 C   0  0  0  0  0  2  0  0  0  0  0  0
  192.1240  175.3850  144.7780 C   0  0  0  0  0  0  0  0  0  0  0  0
  193.7610  175.8580  146.5380 C   0  0  0  0  0  2  0  0  0  0  0  0
  192.7200  174.8520  146.0860 C   0  0  0  0  0  2  0  0  0  0  0  0
  192.6210  176.8330  144.6460 C   0  0  0  0  0  2  0  0  0  0  0  0
  190.5630  175.3060  144.8520 C   0  0  1  0  0  3  0  0  0  0  0  0
  190.1360  174.2670  145.9020 C   0  0  0  0  0  1  0  0  0  0  0  0
  189.8350  176.6620  145.0590 C   0  0  2  0  0  3  0  0  0  0  0  0
  188.1240  176.8720  146.9210 N   0  0  0  0  0  1  0  0  0  0  0  0
  189.4860  176.9090  146.5050 C   0  0  0  0  0  0  0  0  0  0  0  0
  190.3930  177.0900  147.3600 O   0  0  0  0  0  0  0  0  0  0  0  0
  188.5460  176.7170  144.2350 C   0  0  0  0  0  2  0  0  0  0  0  0
  189.7510  177.9140  142.3800 C   0  0  0  0  0  1  0  0  0  0  0  0
  188.5140  177.8920  143.2620 C   0  0  1  0  0  3  0  0  0  0  0  0
  184.9110  178.4190  142.1180 N   0  0  0  0  0  1  0  0  0  0  0  0
  187.2780  177.0290  141.2310 C   0  0  0  0  0  1  0  0  0  0  0  0
  186.1200  178.5360  142.8620 C   0  0  0  0  0  0  0  0  0  0  0  0
  186.1360  179.2510  143.9030 O   0  0  0  0  0  0  0  0  0  0  0  0
  187.3030  177.8360  142.4460 N   0  0  0  0  0  0  0  0  0  0  0  0
  195.8860  170.6780  137.7730 C   0  0  0  0  0  2  0  0  0  0  0  0
  196.5540  171.2570  136.5350 C   0  0  1  0  0  3  0  0  0  0  0  0
  197.9370  171.6020  136.8360 N   0  0  0  0  0  1  0  0  0  0  0  0
  195.3150  169.9920  134.7440 O   0  0  0  0  0  0  0  0  0  0  0  0
  197.5680  169.6670  135.0780 O   0  0  0  0  0  1  0  0  0  0  0  0
  196.5070  170.2510  135.4260 C   0  0  0  0  0  0  0  0  0  0  0  0
  1  3  1  6  0  0  0
  1 27  1  0  0  0  0
  1 18  1  0  0  0  0
  2 25  1  0  0  0  0
  6 24  1  6  0  0  0
  6 10  1  0  0  0  0
  7  8  1  0  0  0  0
  7  1  1  0  0  0  0
  8 48  1  6  0  0  0
  8  6  1  0  0  0  0
  9 11  1  0  0  0  0
 11 10  1  1  0  0  0
 11 16  1  0  0  0  0
 12 13  1  0  0  0  0
 13 28  2  0  0  0  0
 14 20  1  0  0  0  0
 14 17  2  0  0  0  0
 15 25  1  6  0  0  0
 15 30  1  0  0  0  0
 16 14  1  0  0  0  0
 18 19  2  0  0  0  0
 18 28  1  0  0  0  0
 20  4  1  0  0  0  0
 22 21  1  0  0  0  0
 23  5  1  6  0  0  0
 23  2  1  0  0  0  0
 23  4  1  0  0  0  0
 24  9  1  0  0  0  0
 26 13  1  6  0  0  0
 26 15  1  0  0  0  0
 26 21  1  0  0  0  0
 27 12  2  0  0  0  0
 28 22  1  0  0  0  0
 29 31  1  0  0  0  0
 30 34  1  0  0  0  0
 30 32  1  0  0  0  0
 32 31  1  0  0  0  0
 33 30  1  0  0  0  0
 33 29  1  0  0  0  0
 34 36  1  0  0  0  0
 34 35  1  1  0  0  0
 36 40  1  6  0  0  0
 36 38  1  0  0  0  0
 38 37  1  0  0  0  0
 38 39  2  0  0  0  0
 42 41  1  6  0  0  0
 42 40  1  0  0  0  0
 43 45  1  0  0  0  0
 44 47  1  0  0  0  0
 45 46  2  0  0  0  0
 47 45  1  0  0  0  0
 47 42  1  0  0  0  0
 49 50  1  1  0  0  0
 49 48  1  0  0  0  0
 51 53  2  0  0  0  0
 52 53  1  0  0  0  0
 53 49  1  0  0  0  0
M  END
>  <MODEL>
8

>  <REMARK>
 VINA RESULT:      -6.7      3.072      5.388
  Name = 
  10 active torsions:
  status: ('A' for Active; 'I' for Inactive)
    1  A    between atoms: C_2  and  C_20
    2  A    between atoms: C_2  and  C_53
    3  A    between atoms: C_3  and  CA_4
    4  A    between atoms: C_3  and  C_15
    5  A    between atoms: CA_4  and  C_47
    6  A    between atoms: C_16  and  C_20
    7  A    between atoms: C_16  and  C_21
    8  A    between atoms: C_20  and  C_29
    9  A    between atoms: C_21  and  C_31
   10  A    between atoms: N_46  and  C_53
                            x       y       z     vdW  Elec       q    Type
                         _______ _______ _______ _____ _____    ______ ____

>  <TORSDO>
F 10

$$$$
=
 OpenBabel11062420213D

 53 57  0  0  1  0  0  0  0  0999 V2000
  189.8550  174.2420  142.9050 C   0  0  1  0  0  0  0  0  0  0  0  0
  194.6450  173.6710  141.3920 O   0  0  0  0  0  0  0  0  0  0  0  0
  188.4340  174.4180  142.4000 C   0  0  0  0  0  1  0  0  0  0  0  0
  196.6730  174.1970  142.5300 C   0  0  0  0  0  2  0  0  0  0  0  0
  195.5470  175.7430  141.1120 F   0  0  0  0  0  0  0  0  0  0  0  0
  192.2870  175.0010  144.5270 N   0  0  2  0  0  0  0  0  0  0  0  0
  189.9440  174.9430  144.1380 O   0  0  0  0  0  0  0  0  0  0  0  0
  190.9880  174.4660  144.9610 C   0  0  2  0  0  3  0  0  0  0  0  0
  194.0790  176.9080  145.0910 S   0  0  0  0  0  0  0  0  0  0  0  0
  193.3480  174.3370  145.2850 C   0  0  0  0  0  2  0  0  0  0  0  0
  194.1950  175.3640  146.0110 C   0  0  1  0  0  3  0  0  0  0  0  0
  191.5480  174.2290  141.0330 C   0  0  0  0  0  3  0  0  0  0  0  0
  191.6280  172.7640  141.1270 C   0  0  0  0  0  0  0  0  0  0  0  0
  196.4030  174.5080  145.0370 C   0  0  0  0  0  0  0  0  0  0  0  0
  193.7980  171.8910  140.0320 C   0  0  1  0  0  3  0  0  0  0  0  0
  195.5830  174.9120  146.1380 N   0  0  0  0  0  2  0  0  0  0  0  0
  197.5330  173.9920  145.2640 O   0  0  0  0  0  0  0  0  0  0  0  0
  190.0990  172.7300  143.0060 C   0  0  0  0  0  0  0  0  0  0  0  0
  189.5240  172.0370  143.8860 O   0  0  0  0  0  0  0  0  0  0  0  0
  195.9160  174.6340  143.6970 N   0  0  0  0  0  2  0  0  0  0  0  0
  191.9240  170.4900  140.7130 O   0  0  0  0  0  0  0  0  0  0  0  0
  191.1390  170.7500  141.7810 O   0  0  0  0  0  0  0  0  0  0  0  0
  195.8340  174.3960  141.2790 C   0  0  2  0  0  3  0  0  0  0  0  0
  192.3660  176.4480  144.7340 C   0  0  0  0  0  2  0  0  0  0  0  0
  194.3020  173.3370  140.0810 C   0  0  0  0  0  2  0  0  0  0  0  0
  192.2600  171.7770  140.1950 C   0  0  1  0  0  3  0  0  0  0  0  0
  190.7560  174.9100  141.8750 C   0  0  0  0  0  3  0  0  0  0  0  0
  190.9600  172.0910  142.0040 C   0  0  0  0  0  0  0  0  0  0  0  0
  193.0440  169.6890  137.2810 C   0  0  0  0  0  2  0  0  0  0  0  0
  194.3300  171.1850  138.7470 C   0  0  0  0  0  0  0  0  0  0  0  0
  193.6280  168.8630  138.4080 C   0  0  0  0  0  2  0  0  0  0  0  0
  194.7070  169.7250  139.0310 C   0  0  0  0  0  2  0  0  0  0  0  0
  193.1930  171.1350  137.7140 C   0  0  0  0  0  2  0  0  0  0  0  0
  195.5840  171.9450  138.2020 C   0  0  1  0  0  3  0  0  0  0  0  0
  196.8690  171.3230  138.7730 C   0  0  0  0  0  1  0  0  0  0  0  0
  195.6560  172.0930  136.6570 C   0  0  2  0  0  3  0  0  0  0  0  0
  197.8550  171.3560  135.6270 N   0  0  0  0  0  1  0  0  0  0  0  0
  196.5240  171.0360  136.0220 C   0  0  0  0  0  0  0  0  0  0  0  0
  196.1030  169.8560  135.8910 O   0  0  0  0  0  0  0  0  0  0  0  0
  196.2070  173.4670  136.2690 C   0  0  0  0  0  2  0  0  0  0  0  0
  196.8610  175.2900  137.8740 C   0  0  0  0  0  1  0  0  0  0  0  0
  195.7070  174.5850  137.1800 C   0  0  1  0  0  3  0  0  0  0  0  0
  192.6900  176.4880  135.8230 N   0  0  0  0  0  1  0  0  0  0  0  0
  195.5420  176.3740  135.4010 C   0  0  0  0  0  1  0  0  0  0  0  0
  193.4900  175.6220  136.6240 C   0  0  0  0  0  0  0  0  0  0  0  0
  192.9330  174.9150  137.5100 O   0  0  0  0  0  0  0  0  0  0  0  0
  194.9080  175.5390  136.4150 N   0  0  0  0  0  0  0  0  0  0  0  0
  190.6760  174.7920  146.4290 C   0  0  0  0  0  2  0  0  0  0  0  0
  189.2570  175.3200  146.5750 C   0  0  1  0  0  3  0  0  0  0  0  0
  188.5680  174.6010  147.6380 N   0  0  0  0  0  1  0  0  0  0  0  0
  190.3480  177.3250  147.6380 O   0  0  0  0  0  1  0  0  0  0  0  0
  188.4000  177.5390  146.4330 O   0  0  0  0  0  0  0  0  0  0  0  0
  189.2990  176.7840  146.8900 C   0  0  0  0  0  0  0  0  0  0  0  0
  1  3  1  6  0  0  0
  1 18  1  0  0  0  0
  1  7  1  0  0  0  0
  4 20  1  0  0  0  0
  6 24  1  1  0  0  0
  6  8  1  0  0  0  0
  6 10  1  0  0  0  0
  7  8  1  0  0  0  0
  8 48  1  1  0  0  0
  9 11  1  0  0  0  0
 11 10  1  6  0  0  0
 11 16  1  0  0  0  0
 12 13  1  0  0  0  0
 12 27  2  0  0  0  0
 13 28  2  0  0  0  0
 14 17  2  0  0  0  0
 14 16  1  0  0  0  0
 15 30  1  6  0  0  0
 15 25  1  0  0  0  0
 15 26  1  0  0  0  0
 18 19  2  0  0  0  0
 20 14  1  0  0  0  0
 21 22  1  0  0  0  0
 22 28  1  0  0  0  0
 23  5  1  1  0  0  0
 23  2  1  0  0  0  0
 23  4  1  0  0  0  0
 24  9  1  0  0  0  0
 25  2  1  0  0  0  0
 26 21  1  1  0  0  0
 26 13  1  0  0  0  0
 27  1  1  0  0  0  0
 28 18  1  0  0  0  0
 29 33  1  0  0  0  0
 29 31  1  0  0  0  0
 30 32  1  0  0  0  0
 31 32  1  0  0  0  0
 33 30  1  0  0  0  0
 34 30  1  0  0  0  0
 34 35  1  6  0  0  0
 36 40  1  1  0  0  0
 36 34  1  0  0  0  0
 37 38  1  0  0  0  0
 38 36  1  0  0  0  0
 39 38  2  0  0  0  0
 40 42  1  0  0  0  0
 42 41  1  6  0  0  0
 43 45  1  0  0  0  0
 44 47  1  0  0  0  0
 45 46  2  0  0  0  0
 47 45  1  0  0  0  0
 47 42  1  0  0  0  0
 48 49  1  0  0  0  0
 49 53  1  0  0  0  0
 49 50  1  1  0  0  0
 52 53  2  0  0  0  0
 53 51  1  0  0  0  0
M  END
>  <MODEL>
9

>  <REMARK>
 VINA RESULT:      -6.4      3.306      8.873
  Name = 
  10 active torsions:
  status: ('A' for Active; 'I' for Inactive)
    1  A    between atoms: C_2  and  C_20
    2  A    between atoms: C_2  and  C_53
    3  A    between atoms: C_3  and  CA_4
    4  A    between atoms: C_3  and  C_15
    5  A    between atoms: CA_4  and  C_47
    6  A    between atoms: C_16  and  C_20
    7  A    between atoms: C_16  and  C_21
    8  A    between atoms: C_20  and  C_29
    9  A    between atoms: C_21  and  C_31
   10  A    between atoms: N_46  and  C_53
                            x       y       z     vdW  Elec       q    Type
                         _______ _______ _______ _____ _____    ______ ____

>  <TORSDO>
F 10

$$$$
