=
 OpenBabel11062421453D

 70 72  0  0  1  0  0  0  0  0999 V2000
  189.3350  172.9110  140.2880 C   0  0  2  0  0  3  0  0  0  0  0  0
  188.4220  173.7170  138.0660 C   0  0  0  0  0  2  0  0  0  0  0  0
  189.9950  174.6210  142.1450 C   0  0  2  0  0  3  0  0  0  0  0  0
  186.9350  175.9510  142.7950 C   0  0  0  0  0  1  0  0  0  0  0  0
  187.7050  175.0250  138.3280 C   0  0  0  0  0  0  0  0  0  0  0  0
  187.7430  175.6640  139.5770 O   0  0  0  0  0  0  0  0  0  0  0  0
  188.2680  172.7110  139.2010 C   0  0  0  0  0  2  0  0  0  0  0  0
  188.1970  176.0210  141.9590 C   0  0  2  0  0  0  0  0  0  0  0  0
  189.3080  175.6890  142.7640 O   0  0  0  0  0  0  0  0  0  0  0  0
  187.0830  175.6300  137.3610 N   0  0  0  0  0  0  0  0  0  0  0  0
  188.3520  177.3280  141.4890 O   0  0  0  0  0  1  0  0  0  0  0  0
  188.0860  175.0300  140.8100 C   0  0  2  0  0  3  0  0  0  0  0  0
  189.4360  174.3860  140.7410 C   0  0  2  0  0  3  0  0  0  0  0  0
  186.9970  175.1280  135.9940 C   0  0  0  0  0  2  0  0  0  0  0  0
  187.2270  176.2630  135.0120 C   0  0  0  0  0  1  0  0  0  0  0  0
  190.6730  172.3050  139.8270 C   0  0  2  0  0  3  0  0  0  0  0  0
  191.4550  173.3480  139.0140 C   0  0  0  0  0  2  0  0  0  0  0  0
  192.4560  172.6920  138.0700 C   0  0  0  0  0  2  0  0  0  0  0  0
  191.2790  174.0300  136.2900 C   0  0  0  0  0  1  0  0  0  0  0  0
  191.9930  172.7250  136.6160 C   0  0  1  0  0  3  0  0  0  0  0  0
  193.1210  172.3820  135.6310 C   0  0  2  0  0  3  0  0  0  0  0  0
  194.1020  171.5770  136.2160 O   0  0  0  0  0  1  0  0  0  0  0  0
  193.7450  173.6200  134.9800 C   0  0  0  0  0  2  0  0  0  0  0  0
  195.1920  173.4140  134.5510 C   0  0  0  0  0  2  0  0  0  0  0  0
  196.3130  174.4930  136.4630 C   0  0  0  0  0  1  0  0  0  0  0  0
  196.0400  174.5920  134.9790 C   0  0  0  0  0  2  0  0  0  0  0  0
  190.4860  171.1260  139.0850 O   0  0  0  0  0  0  0  0  0  0  0  0
  191.3440  170.1690  139.6490 C   0  0  2  0  0  3  0  0  0  0  0  0
  192.3820  169.0070  137.8210 F   0  0  0  0  0  0  0  0  0  0  0  0
  190.1490  168.7630  138.1210 F   0  0  0  0  0  0  0  0  0  0  0  0
  191.3640  168.9340  138.7510 C   0  0  0  0  0  3  0  0  0  0  0  0
  190.9180  169.8480  141.0850 C   0  0  1  0  0  3  0  0  0  0  0  0
  190.4440  168.5330  141.1620 O   0  0  0  0  0  1  0  0  0  0  0  0
  192.1080  170.0020  142.0230 C   0  0  0  0  0  2  0  0  0  0  0  0
  193.3640  170.4080  141.2540 C   0  0  0  0  0  2  0  0  0  0  0  0
  194.1090  168.3720  142.4250 C   0  0  0  0  0  1  0  0  0  0  0  0
  195.6640  170.0440  141.8460 F   0  0  0  0  0  0  0  0  0  0  0  0
  194.5150  169.4130  141.4040 C   0  0  2  0  0  0  0  0  0  0  0  0
  195.8460  168.1670  139.8960 O   0  0  0  0  0  0  0  0  0  0  0  0
  194.7770  168.7140  140.1070 C   0  0  0  0  0  3  0  0  0  0  0  0
  190.0460  173.3960  143.0740 C   0  0  0  0  0  2  0  0  0  0  0  0
  191.1350  173.5260  145.1720 O   0  0  0  0  0  0  0  0  0  0  0  0
  190.1200  173.7500  144.5300 C   0  0  0  0  0  0  0  0  0  0  0  0
  188.9650  174.4310  145.1870 C   0  0  0  0  0  2  0  0  0  0  0  0
  189.1590  174.4730  146.6950 C   0  0  0  0  0  2  0  0  0  0  0  0
  190.1240  175.5890  147.0770 C   0  0  0  0  0  2  0  0  0  0  0  0
  189.4840  176.9650  146.9320 C   0  0  2  0  0  3  0  0  0  0  0  0
  188.1080  176.9090  147.1980 O   0  0  0  0  0  0  0  0  0  0  0  0
  187.4980  177.6900  146.2060 C   0  0  0  0  0  2  0  0  0  0  0  0
  186.1700  179.6420  146.5890 O   0  0  0  0  0  1  0  0  0  0  0  0
  186.1630  178.2480  146.7010 C   0  0  1  0  0  3  0  0  0  0  0  0
  183.8370  177.6520  146.7160 O   0  0  0  0  0  1  0  0  0  0  0  0
  184.9870  177.6460  145.9210 C   0  0  2  0  0  0  0  0  0  0  0  0
  185.2800  176.3410  145.5610 F   0  0  0  0  0  0  0  0  0  0  0  0
  184.5490  177.6030  143.0830 O   0  0  0  0  0  0  0  0  0  0  0  0
  185.7900  179.6060  144.2030 O   0  0  0  0  0  1  0  0  0  0  0  0
  183.2100  179.4870  144.5840 O   0  0  0  0  0  1  0  0  0  0  0  0
  184.6590  178.6290  144.4210 P   0  0  0  0  0  0  0  0  0  0  0  0
  189.7380  177.5200  145.5350 C   0  0  0  0  0  2  0  0  0  0  0  0
  191.7180  176.8740  144.1980 C   0  0  2  0  0  3  0  0  0  0  0  0
  191.3920  178.3250  143.8950 C   0  0  0  0  0  2  0  0  0  0  0  0
  191.2130  177.7830  145.2960 C   0  0  1  0  0  3  0  0  0  0  0  0
  193.2230  176.7180  144.3370 C   0  0  0  0  0  2  0  0  0  0  0  0
  193.2630  175.2680  142.4490 O   0  0  0  0  0  0  0  0  0  0  0  0
  193.6850  175.4890  143.6150 C   0  0  0  0  0  0  0  0  0  0  0  0
  194.5920  174.5950  144.1950 O   0  0  0  0  0  0  0  0  0  0  0  0
  195.8650  174.3030  143.6230 C   0  0  0  0  0  2  0  0  0  0  0  0
  195.7940  173.0490  142.7570 C   0  0  0  0  0  2  0  0  0  0  0  0
  195.3220  173.3870  141.3510 C   0  0  0  0  0  2  0  0  0  0  0  0
  196.4990  173.7660  140.4740 C   0  0  0  0  0  1  0  0  0  0  0  0
  1 16  1  6  0  0  0
  1 13  1  0  0  0  0
  2  5  1  0  0  0  0
  2  7  1  0  0  0  0
  3  9  1  0  0  0  0
  3 41  1  1  0  0  0
  5  6  1  0  0  0  0
  7  1  1  0  0  0  0
  8  9  1  0  0  0  0
  8  4  1  1  0  0  0
 10  5  2  0  0  0  0
 11  8  1  0  0  0  0
 12  6  1  6  0  0  0
 12  8  1  0  0  0  0
 13 12  1  0  0  0  0
 13  3  1  0  0  0  0
 14 10  1  0  0  0  0
 15 14  1  0  0  0  0
 17 16  1  0  0  0  0
 18 17  1  0  0  0  0
 19 20  1  0  0  0  0
 20 18  1  0  0  0  0
 21 22  1  0  0  0  0
 21 20  1  0  0  0  0
 23 21  1  0  0  0  0
 24 26  1  0  0  0  0
 24 23  1  0  0  0  0
 26 25  1  0  0  0  0
 27 28  1  0  0  0  0
 27 16  1  0  0  0  0
 28 32  1  0  0  0  0
 29 31  1  0  0  0  0
 30 31  1  0  0  0  0
 31 28  1  0  0  0  0
 32 33  1  0  0  0  0
 32 34  1  0  0  0  0
 35 38  1  0  0  0  0
 35 34  1  0  0  0  0
 38 37  1  0  0  0  0
 38 36  1  0  0  0  0
 39 40  2  0  0  0  0
 40 38  1  0  0  0  0
 41 43  1  0  0  0  0
 43 42  2  0  0  0  0
 43 44  1  0  0  0  0
 44 45  1  0  0  0  0
 45 46  1  0  0  0  0
 47 46  1  0  0  0  0
 47 48  1  0  0  0  0
 49 51  1  0  0  0  0
 49 48  1  0  0  0  0
 50 51  1  0  0  0  0
 53 51  1  0  0  0  0
 53 52  1  0  0  0  0
 54 53  1  0  0  0  0
 55 58  2  0  0  0  0
 56 58  1  0  0  0  0
 58 57  1  0  0  0  0
 58 53  1  0  0  0  0
 59 47  1  0  0  0  0
 60 63  1  0  0  0  0
 60 62  1  0  0  0  0
 61 60  1  0  0  0  0
 61 62  1  0  0  0  0
 62 59  1  0  0  0  0
 64 65  2  0  0  0  0
 65 66  1  0  0  0  0
 65 63  1  0  0  0  0
 67 66  1  0  0  0  0
 68 67  1  0  0  0  0
 69 68  1  0  0  0  0
 70 69  1  0  0  0  0
M  END
>  <MODEL>
1

>  <REMARK>
 VINA RESULT:      -4.3      0.000      0.000
  Name = 
  36 active torsions:
  status: ('A' for Active; 'I' for Inactive)
    1  A    between atoms: C_1  and  C_59
    2  A    between atoms: C_1  and  O_60
    3  A    between atoms: C_6  and  C_8
    4  A    between atoms: C_7  and  C_57
    5  A    between atoms: C_8  and  C_36
    6  A    between atoms: C_9  and  C_62
    7  A    between atoms: C_10  and  C_30
    8  A    between atoms: C_10  and  C_56
    9  A    between atoms: C_11  and  C_16
   10  A    between atoms: C_11  and  C_43
   11  A    between atoms: C_12  and  C_41
   12  A    between atoms: C_12  and  C_51
   13  A    between atoms: C_15  and  C_54
   14  A    between atoms: C_16  and  C_58
   15  A    between atoms: C_17  and  C_26
   16  A    between atoms: C_17  and  C_65
   17  A    between atoms: C_19  and  N_47
   18  A    between atoms: C_25  and  C_34
   19  A    between atoms: C_25  and  C_50
   20  A    between atoms: C_26  and  O_60
   21  A    between atoms: C_26  and  C_70
   22  A    between atoms: C_27  and  P_49
   23  A    between atoms: C_27  and  C_59
   24  A    between atoms: C_30  and  C_70
   25  A    between atoms: C_33  and  C_34
   26  A    between atoms: C_33  and  C_52
   27  A    between atoms: O_35  and  C_36
   28  A    between atoms: O_35  and  C_41
   29  A    between atoms: O_37  and  C_58
   30  A    between atoms: O_37  and  C_62
   31  A    between atoms: C_40  and  C_68
   32  A    between atoms: C_43  and  C_68
   33  A    between atoms: C_50  and  C_57
   34  A    between atoms: C_52  and  C_62
   35  A    between atoms: C_53  and  C_58
   36  A    between atoms: C_54  and  C_56
                            x       y       z     vdW  Elec       q    Type
                         _______ _______ _______ _____ _____    ______ ____

>  <TORSDO>
F 36

$$$$
=
 OpenBabel11062421453D

 70 72  0  0  1  0  0  0  0  0999 V2000
  195.5150  172.3280  141.2040 C   0  0  2  0  0  3  0  0  0  0  0  0
  195.6990  170.8230  139.1730 C   0  0  0  0  0  2  0  0  0  0  0  0
  195.0740  171.3130  143.5660 C   0  0  2  0  0  3  0  0  0  0  0  0
  197.9410  169.5290  143.9550 C   0  0  0  0  0  1  0  0  0  0  0  0
  196.2370  169.4910  139.6540 C   0  0  0  0  0  0  0  0  0  0  0  0
  196.4100  169.2000  141.0160 O   0  0  0  0  0  0  0  0  0  0  0  0
  196.2930  172.0140  139.9170 C   0  0  0  0  0  2  0  0  0  0  0  0
  196.5160  169.5430  143.4400 C   0  0  2  0  0  0  0  0  0  0  0  0
  195.7110  170.3020  144.3180 O   0  0  0  0  0  0  0  0  0  0  0  0
  196.4900  168.5460  138.8000 N   0  0  0  0  0  0  0  0  0  0  0  0
  196.0380  168.2300  143.4070 O   0  0  0  0  0  1  0  0  0  0  0  0
  196.4940  170.1740  142.0560 C   0  0  2  0  0  3  0  0  0  0  0  0
  195.2940  171.0680  142.0730 C   0  0  2  0  0  3  0  0  0  0  0  0
  196.3100  168.6680  137.3570 C   0  0  0  0  0  2  0  0  0  0  0  0
  196.9820  169.9360  136.8580 C   0  0  0  0  0  1  0  0  0  0  0  0
  194.2210  173.0880  140.8610 C   0  0  2  0  0  3  0  0  0  0  0  0
  194.4590  173.9740  139.6290 C   0  0  0  0  0  2  0  0  0  0  0  0
  193.4080  173.7330  138.5500 C   0  0  0  0  0  2  0  0  0  0  0  0
  193.4080  172.1730  136.5740 C   0  0  0  0  0  1  0  0  0  0  0  0
  194.0300  173.4160  137.1930 C   0  0  1  0  0  3  0  0  0  0  0  0
  194.0380  174.6300  136.2510 C   0  0  2  0  0  3  0  0  0  0  0  0
  192.9860  174.5880  135.3310 O   0  0  0  0  0  1  0  0  0  0  0  0
  195.3800  174.8260  135.5390 C   0  0  0  0  0  2  0  0  0  0  0  0
  196.1480  176.0510  136.0210 C   0  0  0  0  0  2  0  0  0  0  0  0
  197.4960  175.0900  137.8480 C   0  0  0  0  0  1  0  0  0  0  0  0
  197.5460  175.6610  136.4490 C   0  0  0  0  0  2  0  0  0  0  0  0
  193.7580  173.8500  141.9470 O   0  0  0  0  0  0  0  0  0  0  0  0
  193.9480  175.1940  141.5900 C   0  0  2  0  0  3  0  0  0  0  0  0
  196.0700  175.3890  142.6990 F   0  0  0  0  0  0  0  0  0  0  0  0
  195.6790  176.6960  140.8900 F   0  0  0  0  0  0  0  0  0  0  0  0
  195.4460  175.4660  141.4700 C   0  0  0  0  0  3  0  0  0  0  0  0
  193.2590  176.1180  142.5980 C   0  0  1  0  0  3  0  0  0  0  0  0
  193.7320  177.4280  142.4490 O   0  0  0  0  0  1  0  0  0  0  0  0
  191.7530  176.1050  142.3660 C   0  0  0  0  0  2  0  0  0  0  0  0
  191.1150  177.4150  142.8260 C   0  0  0  0  0  2  0  0  0  0  0  0
  189.1320  176.1320  142.1210 C   0  0  0  0  0  1  0  0  0  0  0  0
  189.4140  178.3640  141.4190 F   0  0  0  0  0  0  0  0  0  0  0  0
  189.6270  177.5150  142.4910 C   0  0  2  0  0  0  0  0  0  0  0  0
  187.6310  177.9850  143.6720 O   0  0  0  0  0  0  0  0  0  0  0  0
  188.8510  177.9820  143.6810 C   0  0  0  0  0  3  0  0  0  0  0  0
  195.4560  172.7060  144.0940 C   0  0  0  0  0  2  0  0  0  0  0  0
  194.2120  172.2700  146.0600 O   0  0  0  0  0  0  0  0  0  0  0  0
  194.6920  173.1140  145.3190 C   0  0  0  0  0  0  0  0  0  0  0  0
  194.5640  174.5620  145.6650 C   0  0  0  0  0  2  0  0  0  0  0  0
  193.4510  174.7700  146.6800 C   0  0  0  0  0  2  0  0  0  0  0  0
  192.2090  175.3330  146.0010 C   0  0  0  0  0  2  0  0  0  0  0  0
  191.2540  174.2280  145.5610 C   0  0  2  0  0  3  0  0  0  0  0  0
  191.7320  173.5800  144.4130 O   0  0  0  0  0  0  0  0  0  0  0  0
  190.6650  172.7980  143.9480 C   0  0  0  0  0  2  0  0  0  0  0  0
  191.7760  170.7610  143.3720 O   0  0  0  0  0  1  0  0  0  0  0  0
  191.1240  171.8690  142.8230 C   0  0  1  0  0  3  0  0  0  0  0  0
  188.7420  171.8670  142.5170 O   0  0  0  0  0  1  0  0  0  0  0  0
  189.9420  171.4280  141.9510 C   0  0  2  0  0  0  0  0  0  0  0  0
  189.9170  170.0460  141.8580 F   0  0  0  0  0  0  0  0  0  0  0  0
  190.7440  173.6990  140.3870 O   0  0  0  0  0  1  0  0  0  0  0  0
  188.7220  172.2260  139.6460 O   0  0  0  0  0  1  0  0  0  0  0  0
  191.0940  171.1840  139.3150 O   0  0  0  0  0  0  0  0  0  0  0  0
  190.0910  172.1440  140.2820 P   0  0  0  0  0  0  0  0  0  0  0  0
  189.8630  174.8010  145.3140 C   0  0  0  0  0  2  0  0  0  0  0  0
  187.9750  175.9000  146.4780 C   0  0  2  0  0  3  0  0  0  0  0  0
  188.7700  175.1100  147.5010 C   0  0  0  0  0  2  0  0  0  0  0  0
  189.4820  175.8210  146.3710 C   0  0  1  0  0  3  0  0  0  0  0  0
  187.5900  177.2450  147.0720 C   0  0  0  0  0  2  0  0  0  0  0  0
  185.7440  176.6070  148.4330 O   0  0  0  0  0  0  0  0  0  0  0  0
  186.1350  177.2560  147.4270 C   0  0  0  0  0  0  0  0  0  0  0  0
  185.2040  177.9900  146.6830 O   0  0  0  0  0  0  0  0  0  0  0  0
  185.5730  179.0780  145.8370 C   0  0  0  0  0  2  0  0  0  0  0  0
  184.5180  179.3060  144.7590 C   0  0  0  0  0  2  0  0  0  0  0  0
  184.3960  178.0910  143.8530 C   0  0  0  0  0  2  0  0  0  0  0  0
  184.5430  178.4970  142.4000 C   0  0  0  0  0  1  0  0  0  0  0  0
  1 16  1  6  0  0  0
  1 13  1  0  0  0  0
  2  5  1  0  0  0  0
  2  7  1  0  0  0  0
  3 41  1  1  0  0  0
  3  9  1  0  0  0  0
  5  6  1  0  0  0  0
  7  1  1  0  0  0  0
  8  4  1  1  0  0  0
  8  9  1  0  0  0  0
 10  5  2  0  0  0  0
 11  8  1  0  0  0  0
 12  6  1  6  0  0  0
 12 13  1  0  0  0  0
 12  8  1  0  0  0  0
 13  3  1  0  0  0  0
 14 10  1  0  0  0  0
 15 14  1  0  0  0  0
 16 27  1  0  0  0  0
 17 16  1  0  0  0  0
 18 17  1  0  0  0  0
 19 20  1  0  0  0  0
 20 18  1  0  0  0  0
 21 20  1  0  0  0  0
 22 21  1  0  0  0  0
 23 24  1  0  0  0  0
 23 21  1  0  0  0  0
 24 26  1  0  0  0  0
 26 25  1  0  0  0  0
 28 27  1  0  0  0  0
 28 32  1  0  0  0  0
 30 31  1  0  0  0  0
 31 28  1  0  0  0  0
 31 29  1  0  0  0  0
 33 32  1  0  0  0  0
 34 32  1  0  0  0  0
 34 35  1  0  0  0  0
 36 38  1  0  0  0  0
 37 38  1  0  0  0  0
 38 35  1  0  0  0  0
 38 40  1  0  0  0  0
 39 40  2  0  0  0  0
 41 43  1  0  0  0  0
 43 44  1  0  0  0  0
 43 42  2  0  0  0  0
 44 45  1  0  0  0  0
 46 45  1  0  0  0  0
 47 46  1  0  0  0  0
 48 47  1  0  0  0  0
 49 48  1  0  0  0  0
 51 50  1  0  0  0  0
 51 49  1  0  0  0  0
 53 52  1  0  0  0  0
 53 51  1  0  0  0  0
 54 53  1  0  0  0  0
 56 58  1  0  0  0  0
 57 58  2  0  0  0  0
 58 55  1  0  0  0  0
 58 53  1  0  0  0  0
 59 47  1  0  0  0  0
 59 62  1  0  0  0  0
 60 63  1  0  0  0  0
 60 61  1  0  0  0  0
 62 60  1  0  0  0  0
 62 61  1  0  0  0  0
 63 65  1  0  0  0  0
 65 64  2  0  0  0  0
 66 65  1  0  0  0  0
 67 66  1  0  0  0  0
 68 67  1  0  0  0  0
 69 68  1  0  0  0  0
 70 69  1  0  0  0  0
M  END
>  <MODEL>
2

>  <REMARK>
 VINA RESULT:      -4.0      3.247      8.213
  Name = 
  36 active torsions:
  status: ('A' for Active; 'I' for Inactive)
    1  A    between atoms: C_1  and  C_59
    2  A    between atoms: C_1  and  O_60
    3  A    between atoms: C_6  and  C_8
    4  A    between atoms: C_7  and  C_57
    5  A    between atoms: C_8  and  C_36
    6  A    between atoms: C_9  and  C_62
    7  A    between atoms: C_10  and  C_30
    8  A    between atoms: C_10  and  C_56
    9  A    between atoms: C_11  and  C_16
   10  A    between atoms: C_11  and  C_43
   11  A    between atoms: C_12  and  C_41
   12  A    between atoms: C_12  and  C_51
   13  A    between atoms: C_15  and  C_54
   14  A    between atoms: C_16  and  C_58
   15  A    between atoms: C_17  and  C_26
   16  A    between atoms: C_17  and  C_65
   17  A    between atoms: C_19  and  N_47
   18  A    between atoms: C_25  and  C_34
   19  A    between atoms: C_25  and  C_50
   20  A    between atoms: C_26  and  O_60
   21  A    between atoms: C_26  and  C_70
   22  A    between atoms: C_27  and  P_49
   23  A    between atoms: C_27  and  C_59
   24  A    between atoms: C_30  and  C_70
   25  A    between atoms: C_33  and  C_34
   26  A    between atoms: C_33  and  C_52
   27  A    between atoms: O_35  and  C_36
   28  A    between atoms: O_35  and  C_41
   29  A    between atoms: O_37  and  C_58
   30  A    between atoms: O_37  and  C_62
   31  A    between atoms: C_40  and  C_68
   32  A    between atoms: C_43  and  C_68
   33  A    between atoms: C_50  and  C_57
   34  A    between atoms: C_52  and  C_62
   35  A    between atoms: C_53  and  C_58
   36  A    between atoms: C_54  and  C_56
                            x       y       z     vdW  Elec       q    Type
                         _______ _______ _______ _____ _____    ______ ____

>  <TORSDO>
F 36

$$$$
=
 OpenBabel11062421453D

 70 72  0  0  1  0  0  0  0  0999 V2000
  193.6790  172.2640  139.2740 C   0  0  2  0  0  3  0  0  0  0  0  0
  195.7360  173.4170  138.3440 C   0  0  0  0  0  2  0  0  0  0  0  0
  193.3190  172.0770  141.8510 C   0  0  2  0  0  3  0  0  0  0  0  0
  192.9930  175.3730  142.6120 C   0  0  0  0  0  1  0  0  0  0  0  0
  196.1490  174.4700  139.3520 C   0  0  0  0  0  0  0  0  0  0  0  0
  195.5340  174.5880  140.6080 O   0  0  0  0  0  0  0  0  0  0  0  0
  194.2240  173.2540  138.2320 C   0  0  0  0  0  2  0  0  0  0  0  0
  193.9350  174.2020  142.4260 C   0  0  2  0  0  0  0  0  0  0  0  0
  193.3150  173.0240  142.8970 O   0  0  0  0  0  0  0  0  0  0  0  0
  197.1470  175.2600  139.0950 N   0  0  0  0  0  0  0  0  0  0  0  0
  195.0940  174.4350  143.1730 O   0  0  0  0  0  1  0  0  0  0  0  0
  194.2540  174.0520  140.9460 C   0  0  2  0  0  3  0  0  0  0  0  0
  194.1910  172.5770  140.6980 C   0  0  2  0  0  3  0  0  0  0  0  0
  197.9270  175.2290  137.8610 C   0  0  0  0  0  2  0  0  0  0  0  0
  197.0030  175.3590  136.6640 C   0  0  0  0  0  1  0  0  0  0  0  0
  193.9480  170.8200  138.8140 C   0  0  2  0  0  3  0  0  0  0  0  0
  192.6260  170.0380  138.7820 C   0  0  0  0  0  2  0  0  0  0  0  0
  191.5980  170.7060  137.8750 C   0  0  0  0  0  2  0  0  0  0  0  0
  192.5900  169.9500  135.6880 C   0  0  0  0  0  1  0  0  0  0  0  0
  192.1970  171.1460  136.5420 C   0  0  1  0  0  3  0  0  0  0  0  0
  191.3090  172.1600  135.8050 C   0  0  2  0  0  3  0  0  0  0  0  0
  191.7950  172.4510  134.5260 O   0  0  0  0  0  1  0  0  0  0  0  0
  191.0750  173.4440  136.6060 C   0  0  0  0  0  2  0  0  0  0  0  0
  189.6210  173.6510  137.0070 C   0  0  0  0  0  2  0  0  0  0  0  0
  187.8910  175.3630  136.6140 C   0  0  0  0  0  1  0  0  0  0  0  0
  188.8900  174.4470  135.9460 C   0  0  0  0  0  2  0  0  0  0  0  0
  194.8930  170.1770  139.6330 O   0  0  0  0  0  0  0  0  0  0  0  0
  196.1380  170.3650  139.0140 C   0  0  2  0  0  3  0  0  0  0  0  0
  195.5210  168.2720  138.0090 F   0  0  0  0  0  0  0  0  0  0  0  0
  197.5500  169.1480  137.5080 F   0  0  0  0  0  0  0  0  0  0  0  0
  196.2340  169.4360  137.8050 C   0  0  0  0  0  3  0  0  0  0  0  0
  197.2740  170.1460  140.0180 C   0  0  1  0  0  3  0  0  0  0  0  0
  197.9070  171.3630  140.2990 O   0  0  0  0  0  1  0  0  0  0  0  0
  196.7150  169.5670  141.3120 C   0  0  0  0  0  2  0  0  0  0  0  0
  197.2030  170.3590  142.5230 C   0  0  0  0  0  2  0  0  0  0  0  0
  196.6350  168.9790  144.4850 C   0  0  0  0  0  1  0  0  0  0  0  0
  194.9530  170.1700  143.3430 F   0  0  0  0  0  0  0  0  0  0  0  0
  196.2780  170.2450  143.7350 C   0  0  2  0  0  0  0  0  0  0  0  0
  196.3940  171.2630  145.8680 O   0  0  0  0  0  0  0  0  0  0  0  0
  196.4780  171.4040  144.6590 C   0  0  0  0  0  3  0  0  0  0  0  0
  191.8830  171.6590  141.4890 C   0  0  0  0  0  2  0  0  0  0  0  0
  190.4810  172.6120  143.1410 O   0  0  0  0  0  0  0  0  0  0  0  0
  190.8380  172.6210  141.9730 C   0  0  0  0  0  0  0  0  0  0  0  0
  190.2710  173.6340  141.0340 C   0  0  0  0  0  2  0  0  0  0  0  0
  188.7530  173.5470  141.0100 C   0  0  0  0  0  2  0  0  0  0  0  0
  188.1540  174.8360  140.4600 C   0  0  0  0  0  2  0  0  0  0  0  0
  187.9950  175.8940  141.5460 C   0  0  2  0  0  3  0  0  0  0  0  0
  187.8000  177.1640  140.9840 O   0  0  0  0  0  0  0  0  0  0  0  0
  187.3880  177.9870  142.0420 C   0  0  0  0  0  2  0  0  0  0  0  0
  185.4960  178.0510  140.5810 O   0  0  0  0  0  1  0  0  0  0  0  0
  185.9330  178.4200  141.8570 C   0  0  1  0  0  3  0  0  0  0  0  0
  185.4920  176.5360  143.2800 O   0  0  0  0  0  1  0  0  0  0  0  0
  185.0310  177.8110  142.9380 C   0  0  2  0  0  0  0  0  0  0  0  0
  183.7330  177.7080  142.4640 F   0  0  0  0  0  0  0  0  0  0  0  0
  185.6140  180.3970  144.0420 O   0  0  0  0  0  0  0  0  0  0  0  0
  185.9680  178.2380  145.4630 O   0  0  0  0  0  1  0  0  0  0  0  0
  183.4930  178.9780  145.0840 O   0  0  0  0  0  1  0  0  0  0  0  0
  185.0500  178.8530  144.4330 P   0  0  0  0  0  0  0  0  0  0  0  0
  189.2120  175.8950  142.4640 C   0  0  0  0  0  2  0  0  0  0  0  0
  190.0310  175.9360  144.8000 C   0  0  2  0  0  3  0  0  0  0  0  0
  189.5830  177.3370  144.4280 C   0  0  0  0  0  2  0  0  0  0  0  0
  188.8230  176.1350  143.9100 C   0  0  1  0  0  3  0  0  0  0  0  0
  189.5610  175.6170  146.2100 C   0  0  0  0  0  2  0  0  0  0  0  0
  189.0740  177.3840  147.7290 O   0  0  0  0  0  0  0  0  0  0  0  0
  189.9670  176.7110  147.1490 C   0  0  0  0  0  0  0  0  0  0  0  0
  191.3120  176.9870  147.4170 O   0  0  0  0  0  0  0  0  0  0  0  0
  192.3420  176.8400  146.4410 C   0  0  0  0  0  2  0  0  0  0  0  0
  193.4860  175.9910  146.9860 C   0  0  0  0  0  2  0  0  0  0  0  0
  194.7080  176.0850  146.0840 C   0  0  0  0  0  2  0  0  0  0  0  0
  195.5580  174.8370  146.2150 C   0  0  0  0  0  1  0  0  0  0  0  0
  1 16  1  6  0  0  0
  1 13  1  0  0  0  0
  2  5  1  0  0  0  0
  3 41  1  6  0  0  0
  3  9  1  0  0  0  0
  5  6  1  0  0  0  0
  7  2  1  0  0  0  0
  7  1  1  0  0  0  0
  8  4  1  1  0  0  0
  8  9  1  0  0  0  0
  8 11  1  0  0  0  0
 10  5  2  0  0  0  0
 12  6  1  1  0  0  0
 12  8  1  0  0  0  0
 13 12  1  0  0  0  0
 13  3  1  0  0  0  0
 14 10  1  0  0  0  0
 15 14  1  0  0  0  0
 16 27  1  0  0  0  0
 17 16  1  0  0  0  0
 18 17  1  0  0  0  0
 19 20  1  0  0  0  0
 20 18  1  0  0  0  0
 21 20  1  0  0  0  0
 21 23  1  0  0  0  0
 22 21  1  0  0  0  0
 23 24  1  0  0  0  0
 26 25  1  0  0  0  0
 26 24  1  0  0  0  0
 28 27  1  0  0  0  0
 28 32  1  0  0  0  0
 30 31  1  0  0  0  0
 31 29  1  0  0  0  0
 31 28  1  0  0  0  0
 32 33  1  0  0  0  0
 32 34  1  0  0  0  0
 34 35  1  0  0  0  0
 35 38  1  0  0  0  0
 37 38  1  0  0  0  0
 38 36  1  0  0  0  0
 38 40  1  0  0  0  0
 40 39  2  0  0  0  0
 41 43  1  0  0  0  0
 43 42  2  0  0  0  0
 44 43  1  0  0  0  0
 45 44  1  0  0  0  0
 46 45  1  0  0  0  0
 46 47  1  0  0  0  0
 47 59  1  0  0  0  0
 48 47  1  0  0  0  0
 48 49  1  0  0  0  0
 50 51  1  0  0  0  0
 51 49  1  0  0  0  0
 51 53  1  0  0  0  0
 53 52  1  0  0  0  0
 53 58  1  0  0  0  0
 54 53  1  0  0  0  0
 55 58  2  0  0  0  0
 58 57  1  0  0  0  0
 58 56  1  0  0  0  0
 59 62  1  0  0  0  0
 60 63  1  0  0  0  0
 61 60  1  0  0  0  0
 62 61  1  0  0  0  0
 62 60  1  0  0  0  0
 63 65  1  0  0  0  0
 65 66  1  0  0  0  0
 65 64  2  0  0  0  0
 67 68  1  0  0  0  0
 67 66  1  0  0  0  0
 69 70  1  0  0  0  0
 69 68  1  0  0  0  0
M  END
>  <MODEL>
3

>  <REMARK>
 VINA RESULT:      -3.8      2.498      5.382
  Name = 
  36 active torsions:
  status: ('A' for Active; 'I' for Inactive)
    1  A    between atoms: C_1  and  C_59
    2  A    between atoms: C_1  and  O_60
    3  A    between atoms: C_6  and  C_8
    4  A    between atoms: C_7  and  C_57
    5  A    between atoms: C_8  and  C_36
    6  A    between atoms: C_9  and  C_62
    7  A    between atoms: C_10  and  C_30
    8  A    between atoms: C_10  and  C_56
    9  A    between atoms: C_11  and  C_16
   10  A    between atoms: C_11  and  C_43
   11  A    between atoms: C_12  and  C_41
   12  A    between atoms: C_12  and  C_51
   13  A    between atoms: C_15  and  C_54
   14  A    between atoms: C_16  and  C_58
   15  A    between atoms: C_17  and  C_26
   16  A    between atoms: C_17  and  C_65
   17  A    between atoms: C_19  and  N_47
   18  A    between atoms: C_25  and  C_34
   19  A    between atoms: C_25  and  C_50
   20  A    between atoms: C_26  and  O_60
   21  A    between atoms: C_26  and  C_70
   22  A    between atoms: C_27  and  P_49
   23  A    between atoms: C_27  and  C_59
   24  A    between atoms: C_30  and  C_70
   25  A    between atoms: C_33  and  C_34
   26  A    between atoms: C_33  and  C_52
   27  A    between atoms: O_35  and  C_36
   28  A    between atoms: O_35  and  C_41
   29  A    between atoms: O_37  and  C_58
   30  A    between atoms: O_37  and  C_62
   31  A    between atoms: C_40  and  C_68
   32  A    between atoms: C_43  and  C_68
   33  A    between atoms: C_50  and  C_57
   34  A    between atoms: C_52  and  C_62
   35  A    between atoms: C_53  and  C_58
   36  A    between atoms: C_54  and  C_56
                            x       y       z     vdW  Elec       q    Type
                         _______ _______ _______ _____ _____    ______ ____

>  <TORSDO>
F 36

$$$$
=
 OpenBabel11062421453D

 70 72  0  0  1  0  0  0  0  0999 V2000
  192.4070  174.5530  142.4630 C   0  0  2  0  0  3  0  0  0  0  0  0
  191.5180  176.1060  144.2580 C   0  0  0  0  0  2  0  0  0  0  0  0
  191.8020  172.0160  142.4910 C   0  0  2  0  0  3  0  0  0  0  0  0
  188.4470  172.2340  141.9890 C   0  0  0  0  0  1  0  0  0  0  0  0
  190.1890  175.5410  144.7160 C   0  0  0  0  0  0  0  0  0  0  0  0
  189.7130  174.2950  144.2780 O   0  0  0  0  0  0  0  0  0  0  0  0
  191.7670  175.9170  142.7660 C   0  0  0  0  0  2  0  0  0  0  0  0
  189.5800  172.2120  142.9950 C   0  0  2  0  0  0  0  0  0  0  0  0
  190.5780  171.3150  142.5530 O   0  0  0  0  0  0  0  0  0  0  0  0
  189.4790  176.1810  145.5950 N   0  0  0  0  0  0  0  0  0  0  0  0
  189.0820  171.7670  144.2220 O   0  0  0  0  0  1  0  0  0  0  0  0
  190.1680  173.6100  143.1110 C   0  0  2  0  0  3  0  0  0  0  0  0
  191.6490  173.3900  143.1430 C   0  0  2  0  0  3  0  0  0  0  0  0
  189.8590  177.4580  146.1910 C   0  0  0  0  0  2  0  0  0  0  0  0
  189.0260  177.7170  147.4330 C   0  0  0  0  0  1  0  0  0  0  0  0
  193.9110  174.5960  142.7890 C   0  0  2  0  0  3  0  0  0  0  0  0
  194.7140  174.7320  141.4860 C   0  0  0  0  0  2  0  0  0  0  0  0
  195.5040  176.0350  141.4440 C   0  0  0  0  0  2  0  0  0  0  0  0
  197.7750  175.4160  142.3390 C   0  0  0  0  0  1  0  0  0  0  0  0
  196.9760  175.8120  141.1060 C   0  0  1  0  0  3  0  0  0  0  0  0
  197.1690  174.8560  139.9180 C   0  0  2  0  0  3  0  0  0  0  0  0
  197.8490  173.6910  140.2860 O   0  0  0  0  0  1  0  0  0  0  0  0
  197.8410  175.5250  138.7150 C   0  0  0  0  0  2  0  0  0  0  0  0
  197.1530  175.2200  137.3910 C   0  0  0  0  0  2  0  0  0  0  0  0
  197.8020  174.4540  135.1390 C   0  0  0  0  0  1  0  0  0  0  0  0
  197.9340  174.1780  136.6200 C   0  0  0  0  0  2  0  0  0  0  0  0
  194.3210  173.4660  143.5180 O   0  0  0  0  0  0  0  0  0  0  0  0
  194.7550  173.9420  144.7650 C   0  0  2  0  0  3  0  0  0  0  0  0
  195.6730  176.1300  144.3930 F   0  0  0  0  0  0  0  0  0  0  0  0
  194.1920  175.8590  146.0860 F   0  0  0  0  0  0  0  0  0  0  0  0
  194.5470  175.4540  144.8170 C   0  0  0  0  0  3  0  0  0  0  0  0
  196.2110  173.5370  145.0150 C   0  0  1  0  0  3  0  0  0  0  0  0
  196.5650  173.8150  146.3410 O   0  0  0  0  0  1  0  0  0  0  0  0
  196.3850  172.0460  144.7570 C   0  0  0  0  0  2  0  0  0  0  0  0
  196.0320  171.2300  145.9990 C   0  0  0  0  0  2  0  0  0  0  0  0
  194.5040  170.1030  144.4270 C   0  0  0  0  0  1  0  0  0  0  0  0
  194.4960  169.5250  146.7110 F   0  0  0  0  0  0  0  0  0  0  0  0
  195.3340  169.9080  145.6780 C   0  0  2  0  0  0  0  0  0  0  0  0
  197.3850  168.7830  146.0320 O   0  0  0  0  0  0  0  0  0  0  0  0
  196.3400  168.8360  145.4050 C   0  0  0  0  0  3  0  0  0  0  0  0
  192.3670  171.9980  141.0600 C   0  0  0  0  0  2  0  0  0  0  0  0
  190.9890  170.3920  139.9990 O   0  0  0  0  0  0  0  0  0  0  0  0
  191.3740  171.5510  140.0280 C   0  0  0  0  0  0  0  0  0  0  0  0
  190.8110  172.5430  139.0630 C   0  0  0  0  0  2  0  0  0  0  0  0
  191.8420  173.6130  138.7380 C   0  0  0  0  0  2  0  0  0  0  0  0
  191.4250  174.3940  137.4980 C   0  0  0  0  0  2  0  0  0  0  0  0
  191.6860  173.6070  136.2190 C   0  0  2  0  0  3  0  0  0  0  0  0
  193.0110  173.7680  135.7920 O   0  0  0  0  0  0  0  0  0  0  0  0
  193.7950  173.0620  136.7140 C   0  0  0  0  0  2  0  0  0  0  0  0
  193.7920  171.2750  135.1250 O   0  0  0  0  0  1  0  0  0  0  0  0
  193.6710  171.5540  136.4900 C   0  0  1  0  0  3  0  0  0  0  0  0
  194.1060  169.7720  138.0390 O   0  0  0  0  0  1  0  0  0  0  0  0
  194.7230  170.7830  137.2970 C   0  0  2  0  0  0  0  0  0  0  0  0
  195.3740  171.6450  138.1650 F   0  0  0  0  0  0  0  0  0  0  0  0
  197.2100  169.3640  137.0780 O   0  0  0  0  0  1  0  0  0  0  0  0
  196.4890  171.0690  135.2390 O   0  0  0  0  0  0  0  0  0  0  0  0
  195.2130  168.7910  135.2660 O   0  0  0  0  0  1  0  0  0  0  0  0
  195.9400  170.0190  136.1760 P   0  0  0  0  0  0  0  0  0  0  0  0
  190.7140  174.0400  135.1270 C   0  0  0  0  0  2  0  0  0  0  0  0
  188.9750  175.1100  136.5260 C   0  0  2  0  0  3  0  0  0  0  0  0
  188.5220  175.1650  135.0780 C   0  0  0  0  0  2  0  0  0  0  0  0
  189.2730  173.9560  135.5930 C   0  0  1  0  0  3  0  0  0  0  0  0
  187.7930  174.7410  137.4070 C   0  0  0  0  0  2  0  0  0  0  0  0
  185.7660  175.8730  136.8790 O   0  0  0  0  0  0  0  0  0  0  0  0
  186.8500  175.9000  137.5190 C   0  0  0  0  0  0  0  0  0  0  0  0
  187.1340  177.0000  138.3350 O   0  0  0  0  0  0  0  0  0  0  0  0
  186.2680  177.4320  139.3830 C   0  0  0  0  0  2  0  0  0  0  0  0
  186.9370  177.2570  140.7430 C   0  0  0  0  0  2  0  0  0  0  0  0
  185.8990  177.1890  141.8530 C   0  0  0  0  0  2  0  0  0  0  0  0
  186.0140  178.3990  142.7600 C   0  0  0  0  0  1  0  0  0  0  0  0
  1  7  1  0  0  0  0
  1 16  1  1  0  0  0
  1 13  1  0  0  0  0
  2  5  1  0  0  0  0
  3 41  1  6  0  0  0
  3  9  1  0  0  0  0
  3 13  1  0  0  0  0
  5 10  2  0  0  0  0
  6  5  1  0  0  0  0
  7  2  1  0  0  0  0
  8  4  1  6  0  0  0
  8 12  1  0  0  0  0
  8 11  1  0  0  0  0
  9  8  1  0  0  0  0
 10 14  1  0  0  0  0
 12 13  1  0  0  0  0
 12  6  1  1  0  0  0
 14 15  1  0  0  0  0
 16 27  1  0  0  0  0
 17 16  1  0  0  0  0
 18 17  1  0  0  0  0
 20 18  1  0  0  0  0
 20 19  1  0  0  0  0
 21 22  1  0  0  0  0
 21 20  1  0  0  0  0
 23 21  1  0  0  0  0
 24 23  1  0  0  0  0
 25 26  1  0  0  0  0
 26 24  1  0  0  0  0
 27 28  1  0  0  0  0
 28 31  1  0  0  0  0
 28 32  1  0  0  0  0
 29 31  1  0  0  0  0
 31 30  1  0  0  0  0
 32 33  1  0  0  0  0
 34 32  1  0  0  0  0
 34 35  1  0  0  0  0
 36 38  1  0  0  0  0
 38 35  1  0  0  0  0
 38 37  1  0  0  0  0
 40 38  1  0  0  0  0
 40 39  2  0  0  0  0
 42 43  2  0  0  0  0
 43 41  1  0  0  0  0
 44 43  1  0  0  0  0
 45 44  1  0  0  0  0
 46 45  1  0  0  0  0
 47 46  1  0  0  0  0
 48 47  1  0  0  0  0
 48 49  1  0  0  0  0
 50 51  1  0  0  0  0
 51 49  1  0  0  0  0
 51 53  1  0  0  0  0
 53 52  1  0  0  0  0
 53 54  1  0  0  0  0
 56 58  2  0  0  0  0
 57 58  1  0  0  0  0
 58 55  1  0  0  0  0
 58 53  1  0  0  0  0
 59 62  1  0  0  0  0
 59 47  1  0  0  0  0
 60 63  1  0  0  0  0
 61 62  1  0  0  0  0
 61 60  1  0  0  0  0
 62 60  1  0  0  0  0
 63 65  1  0  0  0  0
 64 65  2  0  0  0  0
 65 66  1  0  0  0  0
 66 67  1  0  0  0  0
 67 68  1  0  0  0  0
 68 69  1  0  0  0  0
 69 70  1  0  0  0  0
M  END
>  <MODEL>
4

>  <REMARK>
 VINA RESULT:      -3.7      3.721      9.214
  Name = 
  36 active torsions:
  status: ('A' for Active; 'I' for Inactive)
    1  A    between atoms: C_1  and  C_59
    2  A    between atoms: C_1  and  O_60
    3  A    between atoms: C_6  and  C_8
    4  A    between atoms: C_7  and  C_57
    5  A    between atoms: C_8  and  C_36
    6  A    between atoms: C_9  and  C_62
    7  A    between atoms: C_10  and  C_30
    8  A    between atoms: C_10  and  C_56
    9  A    between atoms: C_11  and  C_16
   10  A    between atoms: C_11  and  C_43
   11  A    between atoms: C_12  and  C_41
   12  A    between atoms: C_12  and  C_51
   13  A    between atoms: C_15  and  C_54
   14  A    between atoms: C_16  and  C_58
   15  A    between atoms: C_17  and  C_26
   16  A    between atoms: C_17  and  C_65
   17  A    between atoms: C_19  and  N_47
   18  A    between atoms: C_25  and  C_34
   19  A    between atoms: C_25  and  C_50
   20  A    between atoms: C_26  and  O_60
   21  A    between atoms: C_26  and  C_70
   22  A    between atoms: C_27  and  P_49
   23  A    between atoms: C_27  and  C_59
   24  A    between atoms: C_30  and  C_70
   25  A    between atoms: C_33  and  C_34
   26  A    between atoms: C_33  and  C_52
   27  A    between atoms: O_35  and  C_36
   28  A    between atoms: O_35  and  C_41
   29  A    between atoms: O_37  and  C_58
   30  A    between atoms: O_37  and  C_62
   31  A    between atoms: C_40  and  C_68
   32  A    between atoms: C_43  and  C_68
   33  A    between atoms: C_50  and  C_57
   34  A    between atoms: C_52  and  C_62
   35  A    between atoms: C_53  and  C_58
   36  A    between atoms: C_54  and  C_56
                            x       y       z     vdW  Elec       q    Type
                         _______ _______ _______ _____ _____    ______ ____

>  <TORSDO>
F 36

$$$$
=
 OpenBabel11062421453D

 70 72  0  0  1  0  0  0  0  0999 V2000
  193.8650  172.7160  138.3730 C   0  0  2  0  0  3  0  0  0  0  0  0
  195.7990  173.6040  136.9960 C   0  0  0  0  0  2  0  0  0  0  0  0
  193.8570  172.9810  140.9680 C   0  0  2  0  0  3  0  0  0  0  0  0
  193.7060  176.3700  141.1840 C   0  0  0  0  0  1  0  0  0  0  0  0
  196.3670  174.7930  137.7440 C   0  0  0  0  0  0  0  0  0  0  0  0
  195.9320  175.1480  139.0300 O   0  0  0  0  0  0  0  0  0  0  0  0
  194.2830  173.4910  137.1140 C   0  0  0  0  0  2  0  0  0  0  0  0
  194.5900  175.1440  141.0810 C   0  0  2  0  0  0  0  0  0  0  0  0
  194.0160  174.0910  141.8270 O   0  0  0  0  0  0  0  0  0  0  0  0
  197.3370  175.4830  137.2250 N   0  0  0  0  0  0  0  0  0  0  0  0
  195.8440  175.4480  141.6180 O   0  0  0  0  0  1  0  0  0  0  0  0
  194.7000  174.7330  139.6210 C   0  0  2  0  0  3  0  0  0  0  0  0
  194.5740  173.2410  139.6420 C   0  0  2  0  0  3  0  0  0  0  0  0
  197.9400  175.2110  135.9240 C   0  0  0  0  0  2  0  0  0  0  0  0
  196.8750  175.2580  134.8420 C   0  0  0  0  0  1  0  0  0  0  0  0
  194.0390  171.2040  138.1390 C   0  0  2  0  0  3  0  0  0  0  0  0
  192.7030  170.6000  137.6790 C   0  0  0  0  0  2  0  0  0  0  0  0
  191.8680  171.6080  136.8980 C   0  0  0  0  0  2  0  0  0  0  0  0
  190.2270  171.0340  138.7190 C   0  0  0  0  0  1  0  0  0  0  0  0
  190.4000  171.5950  137.3150 C   0  0  1  0  0  3  0  0  0  0  0  0
  189.7180  172.9560  137.1110 C   0  0  2  0  0  3  0  0  0  0  0  0
  190.6450  173.9920  136.9630 O   0  0  0  0  0  1  0  0  0  0  0  0
  188.7000  173.2860  138.2080 C   0  0  0  0  0  2  0  0  0  0  0  0
  187.4740  174.0290  137.6920 C   0  0  0  0  0  2  0  0  0  0  0  0
  186.5180  176.2250  137.1070 C   0  0  0  0  0  1  0  0  0  0  0  0
  187.7430  175.5170  137.6420 C   0  0  0  0  0  2  0  0  0  0  0  0
  194.5200  170.5480  139.2850 O   0  0  0  0  0  0  0  0  0  0  0  0
  195.8720  170.2680  139.0370 C   0  0  2  0  0  3  0  0  0  0  0  0
  195.6280  168.1660  137.9000 F   0  0  0  0  0  0  0  0  0  0  0  0
  197.2570  169.5810  137.2070 F   0  0  0  0  0  0  0  0  0  0  0  0
  195.9830  169.4890  137.7280 C   0  0  0  0  0  3  0  0  0  0  0  0
  196.4900  169.5210  140.2230 C   0  0  1  0  0  3  0  0  0  0  0  0
  197.8730  169.7390  140.2580 O   0  0  0  0  0  1  0  0  0  0  0  0
  195.8770  170.0210  141.5250 C   0  0  0  0  0  2  0  0  0  0  0  0
  195.4210  168.8540  142.3990 C   0  0  0  0  0  2  0  0  0  0  0  0
  193.8570  170.4460  143.4450 C   0  0  0  0  0  1  0  0  0  0  0  0
  195.7750  169.7270  144.6090 F   0  0  0  0  0  0  0  0  0  0  0  0
  194.8010  169.2960  143.7250 C   0  0  2  0  0  0  0  0  0  0  0  0
  192.8280  168.3270  144.6010 O   0  0  0  0  0  0  0  0  0  0  0  0
  194.0090  168.1820  144.3320 C   0  0  0  0  0  3  0  0  0  0  0  0
  192.3780  172.5720  140.8760 C   0  0  0  0  0  2  0  0  0  0  0  0
  191.9080  173.4480  143.0240 O   0  0  0  0  0  0  0  0  0  0  0  0
  191.5030  173.2500  141.8890 C   0  0  0  0  0  0  0  0  0  0  0  0
  190.1480  173.7360  141.4910 C   0  0  0  0  0  2  0  0  0  0  0  0
  189.1660  173.5760  142.6420 C   0  0  0  0  0  2  0  0  0  0  0  0
  188.0390  174.5940  142.5260 C   0  0  0  0  0  2  0  0  0  0  0  0
  188.4180  175.9320  143.1530 C   0  0  2  0  0  3  0  0  0  0  0  0
  187.8610  176.9980  142.4340 O   0  0  0  0  0  0  0  0  0  0  0  0
  187.3200  177.8630  143.3960 C   0  0  0  0  0  2  0  0  0  0  0  0
  185.1760  177.2420  142.5380 O   0  0  0  0  0  1  0  0  0  0  0  0
  185.9280  178.3370  142.9770 C   0  0  1  0  0  3  0  0  0  0  0  0
  183.8770  179.2800  143.7960 O   0  0  0  0  0  1  0  0  0  0  0  0
  185.2160  179.0570  144.1290 C   0  0  2  0  0  0  0  0  0  0  0  0
  185.8290  180.2760  144.3710 F   0  0  0  0  0  0  0  0  0  0  0  0
  183.8000  178.1470  146.4550 O   0  0  0  0  0  1  0  0  0  0  0  0
  186.3770  178.5450  146.5430 O   0  0  0  0  0  1  0  0  0  0  0  0
  185.5790  176.4220  145.2490 O   0  0  0  0  0  0  0  0  0  0  0  0
  185.2760  178.0400  145.6400 P   0  0  0  0  0  0  0  0  0  0  0  0
  189.9350  176.0680  143.2260 C   0  0  0  0  0  2  0  0  0  0  0  0
  191.8460  176.6870  144.6730 C   0  0  2  0  0  3  0  0  0  0  0  0
  191.3540  177.9400  143.9710 C   0  0  0  0  0  2  0  0  0  0  0  0
  190.3660  176.8880  144.4270 C   0  0  1  0  0  3  0  0  0  0  0  0
  192.1560  177.0150  146.1240 C   0  0  0  0  0  2  0  0  0  0  0  0
  192.7910  175.0570  147.3200 O   0  0  0  0  0  0  0  0  0  0  0  0
  193.1770  176.0610  146.6630 C   0  0  0  0  0  0  0  0  0  0  0  0
  194.5440  176.2430  146.4340 O   0  0  0  0  0  0  0  0  0  0  0  0
  195.4220  175.1730  146.0860 C   0  0  0  0  0  2  0  0  0  0  0  0
  194.7790  174.2630  145.0450 C   0  0  0  0  0  2  0  0  0  0  0  0
  195.6480  173.0430  144.7800 C   0  0  0  0  0  2  0  0  0  0  0  0
  196.8310  173.4160  143.9090 C   0  0  0  0  0  1  0  0  0  0  0  0
  1 16  1  6  0  0  0
  1 13  1  0  0  0  0
  2  7  1  0  0  0  0
  2  5  1  0  0  0  0
  3 41  1  6  0  0  0
  3  9  1  0  0  0  0
  5  6  1  0  0  0  0
  7  1  1  0  0  0  0
  8  4  1  1  0  0  0
  8 11  1  0  0  0  0
  8  9  1  0  0  0  0
 10  5  2  0  0  0  0
 12  6  1  1  0  0  0
 12 13  1  0  0  0  0
 12  8  1  0  0  0  0
 13  3  1  0  0  0  0
 14 10  1  0  0  0  0
 15 14  1  0  0  0  0
 16 27  1  0  0  0  0
 17 16  1  0  0  0  0
 18 20  1  0  0  0  0
 18 17  1  0  0  0  0
 20 19  1  0  0  0  0
 21 20  1  0  0  0  0
 21 23  1  0  0  0  0
 22 21  1  0  0  0  0
 24 23  1  0  0  0  0
 25 26  1  0  0  0  0
 26 24  1  0  0  0  0
 28 27  1  0  0  0  0
 28 32  1  0  0  0  0
 30 31  1  0  0  0  0
 31 29  1  0  0  0  0
 31 28  1  0  0  0  0
 32 33  1  0  0  0  0
 32 34  1  0  0  0  0
 34 35  1  0  0  0  0
 35 38  1  0  0  0  0
 36 38  1  0  0  0  0
 38 40  1  0  0  0  0
 38 37  1  0  0  0  0
 40 39  2  0  0  0  0
 41 43  1  0  0  0  0
 43 42  2  0  0  0  0
 44 43  1  0  0  0  0
 44 45  1  0  0  0  0
 46 45  1  0  0  0  0
 46 47  1  0  0  0  0
 47 59  1  0  0  0  0
 48 47  1  0  0  0  0
 48 49  1  0  0  0  0
 50 51  1  0  0  0  0
 51 49  1  0  0  0  0
 51 53  1  0  0  0  0
 52 53  1  0  0  0  0
 53 54  1  0  0  0  0
 53 58  1  0  0  0  0
 57 58  2  0  0  0  0
 58 55  1  0  0  0  0
 58 56  1  0  0  0  0
 59 62  1  0  0  0  0
 60 63  1  0  0  0  0
 61 62  1  0  0  0  0
 61 60  1  0  0  0  0
 62 60  1  0  0  0  0
 63 65  1  0  0  0  0
 65 64  2  0  0  0  0
 66 65  1  0  0  0  0
 67 66  1  0  0  0  0
 68 67  1  0  0  0  0
 69 68  1  0  0  0  0
 70 69  1  0  0  0  0
M  END
>  <MODEL>
5

>  <REMARK>
 VINA RESULT:      -3.7      2.497      5.147
  Name = 
  36 active torsions:
  status: ('A' for Active; 'I' for Inactive)
    1  A    between atoms: C_1  and  C_59
    2  A    between atoms: C_1  and  O_60
    3  A    between atoms: C_6  and  C_8
    4  A    between atoms: C_7  and  C_57
    5  A    between atoms: C_8  and  C_36
    6  A    between atoms: C_9  and  C_62
    7  A    between atoms: C_10  and  C_30
    8  A    between atoms: C_10  and  C_56
    9  A    between atoms: C_11  and  C_16
   10  A    between atoms: C_11  and  C_43
   11  A    between atoms: C_12  and  C_41
   12  A    between atoms: C_12  and  C_51
   13  A    between atoms: C_15  and  C_54
   14  A    between atoms: C_16  and  C_58
   15  A    between atoms: C_17  and  C_26
   16  A    between atoms: C_17  and  C_65
   17  A    between atoms: C_19  and  N_47
   18  A    between atoms: C_25  and  C_34
   19  A    between atoms: C_25  and  C_50
   20  A    between atoms: C_26  and  O_60
   21  A    between atoms: C_26  and  C_70
   22  A    between atoms: C_27  and  P_49
   23  A    between atoms: C_27  and  C_59
   24  A    between atoms: C_30  and  C_70
   25  A    between atoms: C_33  and  C_34
   26  A    between atoms: C_33  and  C_52
   27  A    between atoms: O_35  and  C_36
   28  A    between atoms: O_35  and  C_41
   29  A    between atoms: O_37  and  C_58
   30  A    between atoms: O_37  and  C_62
   31  A    between atoms: C_40  and  C_68
   32  A    between atoms: C_43  and  C_68
   33  A    between atoms: C_50  and  C_57
   34  A    between atoms: C_52  and  C_62
   35  A    between atoms: C_53  and  C_58
   36  A    between atoms: C_54  and  C_56
                            x       y       z     vdW  Elec       q    Type
                         _______ _______ _______ _____ _____    ______ ____

>  <TORSDO>
F 36

$$$$
=
 OpenBabel11062421453D

 70 72  0  0  1  0  0  0  0  0999 V2000
  189.8230  172.6590  139.6160 C   0  0  2  0  0  3  0  0  0  0  0  0
  188.5690  173.9020  137.7980 C   0  0  0  0  0  2  0  0  0  0  0  0
  190.6310  173.9090  141.7590 C   0  0  2  0  0  3  0  0  0  0  0  0
  187.6170  174.7550  143.0840 C   0  0  0  0  0  1  0  0  0  0  0  0
  187.8210  175.0350  138.4700 C   0  0  0  0  0  0  0  0  0  0  0  0
  187.9920  175.3460  139.8280 O   0  0  0  0  0  0  0  0  0  0  0  0
  188.6310  172.6370  138.6470 C   0  0  0  0  0  2  0  0  0  0  0  0
  188.7460  175.1430  142.1510 C   0  0  2  0  0  0  0  0  0  0  0  0
  189.9750  174.7240  142.7070 O   0  0  0  0  0  0  0  0  0  0  0  0
  187.0380  175.8010  137.7720 N   0  0  0  0  0  0  0  0  0  0  0  0
  188.7600  176.5340  142.0180 O   0  0  0  0  0  1  0  0  0  0  0  0
  188.5370  174.4610  140.8080 C   0  0  2  0  0  3  0  0  0  0  0  0
  189.8990  173.9790  140.4170 C   0  0  2  0  0  3  0  0  0  0  0  0
  186.7960  175.6470  136.3410 C   0  0  0  0  0  2  0  0  0  0  0  0
  187.8960  176.3360  135.5530 C   0  0  0  0  0  1  0  0  0  0  0  0
  191.1180  172.3090  138.8610 C   0  0  2  0  0  3  0  0  0  0  0  0
  191.9220  173.5910  138.6010 C   0  0  0  0  0  2  0  0  0  0  0  0
  193.2170  173.6170  139.4050 C   0  0  0  0  0  2  0  0  0  0  0  0
  194.6660  175.6190  138.9210 C   0  0  0  0  0  1  0  0  0  0  0  0
  194.3940  174.1580  138.5960 C   0  0  1  0  0  3  0  0  0  0  0  0
  195.6400  173.2650  138.7010 C   0  0  2  0  0  3  0  0  0  0  0  0
  196.6550  173.8650  139.4510 O   0  0  0  0  0  1  0  0  0  0  0  0
  196.1650  172.8090  137.3360 C   0  0  0  0  0  2  0  0  0  0  0  0
  195.4550  171.5740  136.7960 C   0  0  0  0  0  2  0  0  0  0  0  0
  197.5950  170.4540  137.2870 C   0  0  0  0  0  1  0  0  0  0  0  0
  196.0910  170.3170  137.3480 C   0  0  0  0  0  2  0  0  0  0  0  0
  190.8550  171.6280  137.6590 O   0  0  0  0  0  0  0  0  0  0  0  0
  191.4950  170.3840  137.7680 C   0  0  2  0  0  3  0  0  0  0  0  0
  191.5260  168.2000  136.7670 F   0  0  0  0  0  0  0  0  0  0  0  0
  191.0830  169.9840  135.4420 F   0  0  0  0  0  0  0  0  0  0  0  0
  190.9330  169.4450  136.7020 C   0  0  0  0  0  3  0  0  0  0  0  0
  191.3440  169.8260  139.1860 C   0  0  1  0  0  3  0  0  0  0  0  0
  190.3830  168.8070  139.2010 O   0  0  0  0  0  1  0  0  0  0  0  0
  192.6750  169.2590  139.6630 C   0  0  0  0  0  2  0  0  0  0  0  0
  193.5950  170.3690  140.1670 C   0  0  0  0  0  2  0  0  0  0  0  0
  193.1870  169.2680  142.3340 C   0  0  0  0  0  1  0  0  0  0  0  0
  194.4420  171.2600  142.2310 F   0  0  0  0  0  0  0  0  0  0  0  0
  194.1900  170.0840  141.5460 C   0  0  2  0  0  0  0  0  0  0  0  0
  196.4330  169.7430  140.8740 O   0  0  0  0  0  0  0  0  0  0  0  0
  195.4450  169.2810  141.4210 C   0  0  0  0  0  3  0  0  0  0  0  0
  190.8790  172.5020  142.3290 C   0  0  0  0  0  2  0  0  0  0  0  0
  190.8480  171.4110  144.4300 O   0  0  0  0  0  0  0  0  0  0  0  0
  190.4460  172.3480  143.7570 C   0  0  0  0  0  0  0  0  0  0  0  0
  189.5590  173.3780  144.3780 C   0  0  0  0  0  2  0  0  0  0  0  0
  189.8600  173.5130  145.8630 C   0  0  0  0  0  2  0  0  0  0  0  0
  191.1130  174.3530  146.0780 C   0  0  0  0  0  2  0  0  0  0  0  0
  190.7740  175.8140  146.3540 C   0  0  2  0  0  3  0  0  0  0  0  0
  189.5330  176.1540  145.7980 O   0  0  0  0  0  0  0  0  0  0  0  0
  189.2130  177.4130  146.3270 C   0  0  0  0  0  2  0  0  0  0  0  0
  187.6910  178.3500  147.9160 O   0  0  0  0  0  1  0  0  0  0  0  0
  187.7840  177.4250  146.8710 C   0  0  1  0  0  3  0  0  0  0  0  0
  186.3070  176.5680  145.1820 O   0  0  0  0  0  1  0  0  0  0  0  0
  186.7720  177.7510  145.7650 C   0  0  2  0  0  0  0  0  0  0  0  0
  187.3750  178.5270  144.7890 F   0  0  0  0  0  0  0  0  0  0  0  0
  185.8900  179.7760  147.6010 O   0  0  0  0  0  1  0  0  0  0  0  0
  184.4160  177.6740  147.1380 O   0  0  0  0  0  1  0  0  0  0  0  0
  184.5080  179.4620  145.2370 O   0  0  0  0  0  0  0  0  0  0  0  0
  185.3490  178.6520  146.4610 P   0  0  0  0  0  0  0  0  0  0  0  0
  191.8720  176.7210  145.8090 C   0  0  0  0  0  2  0  0  0  0  0  0
  194.0220  175.5810  145.3540 C   0  0  2  0  0  3  0  0  0  0  0  0
  194.3020  177.0570  145.5700 C   0  0  0  0  0  2  0  0  0  0  0  0
  193.2310  176.3620  146.3810 C   0  0  1  0  0  3  0  0  0  0  0  0
  195.0850  174.7610  146.0670 C   0  0  0  0  0  2  0  0  0  0  0  0
  194.9660  173.4420  144.0890 O   0  0  0  0  0  0  0  0  0  0  0  0
  195.4600  173.5700  145.2400 C   0  0  0  0  0  0  0  0  0  0  0  0
  196.3660  172.6100  145.7050 O   0  0  0  0  0  0  0  0  0  0  0  0
  196.2580  171.2240  145.3850 C   0  0  0  0  0  2  0  0  0  0  0  0
  196.4350  170.3660  146.6340 C   0  0  0  0  0  2  0  0  0  0  0  0
  195.5690  169.1170  146.5600 C   0  0  0  0  0  2  0  0  0  0  0  0
  195.8630  168.2010  147.7320 C   0  0  0  0  0  1  0  0  0  0  0  0
  1 16  1  6  0  0  0
  1 13  1  0  0  0  0
  2  5  1  0  0  0  0
  2  7  1  0  0  0  0
  3 41  1  1  0  0  0
  3  9  1  0  0  0  0
  5  6  1  0  0  0  0
  7  1  1  0  0  0  0
  8  9  1  0  0  0  0
  8  4  1  1  0  0  0
 10  5  2  0  0  0  0
 11  8  1  0  0  0  0
 12  6  1  6  0  0  0
 12  8  1  0  0  0  0
 13 12  1  0  0  0  0
 13  3  1  0  0  0  0
 14 10  1  0  0  0  0
 15 14  1  0  0  0  0
 17 16  1  0  0  0  0
 17 18  1  0  0  0  0
 20 21  1  0  0  0  0
 20 19  1  0  0  0  0
 20 18  1  0  0  0  0
 21 22  1  0  0  0  0
 23 21  1  0  0  0  0
 24 23  1  0  0  0  0
 24 26  1  0  0  0  0
 25 26  1  0  0  0  0
 27 28  1  0  0  0  0
 27 16  1  0  0  0  0
 28 32  1  0  0  0  0
 30 31  1  0  0  0  0
 31 29  1  0  0  0  0
 31 28  1  0  0  0  0
 32 33  1  0  0  0  0
 32 34  1  0  0  0  0
 34 35  1  0  0  0  0
 35 38  1  0  0  0  0
 38 37  1  0  0  0  0
 38 36  1  0  0  0  0
 39 40  2  0  0  0  0
 40 38  1  0  0  0  0
 41 43  1  0  0  0  0
 43 44  1  0  0  0  0
 43 42  2  0  0  0  0
 44 45  1  0  0  0  0
 45 46  1  0  0  0  0
 46 47  1  0  0  0  0
 48 49  1  0  0  0  0
 48 47  1  0  0  0  0
 49 51  1  0  0  0  0
 51 50  1  0  0  0  0
 52 53  1  0  0  0  0
 53 58  1  0  0  0  0
 53 51  1  0  0  0  0
 54 53  1  0  0  0  0
 57 58  2  0  0  0  0
 58 56  1  0  0  0  0
 58 55  1  0  0  0  0
 59 47  1  0  0  0  0
 59 62  1  0  0  0  0
 60 61  1  0  0  0  0
 60 63  1  0  0  0  0
 60 62  1  0  0  0  0
 61 62  1  0  0  0  0
 64 65  2  0  0  0  0
 65 66  1  0  0  0  0
 65 63  1  0  0  0  0
 67 66  1  0  0  0  0
 67 68  1  0  0  0  0
 69 68  1  0  0  0  0
 69 70  1  0  0  0  0
M  END
>  <MODEL>
6

>  <REMARK>
 VINA RESULT:      -3.5      2.089      2.789
  Name = 
  36 active torsions:
  status: ('A' for Active; 'I' for Inactive)
    1  A    between atoms: C_1  and  C_59
    2  A    between atoms: C_1  and  O_60
    3  A    between atoms: C_6  and  C_8
    4  A    between atoms: C_7  and  C_57
    5  A    between atoms: C_8  and  C_36
    6  A    between atoms: C_9  and  C_62
    7  A    between atoms: C_10  and  C_30
    8  A    between atoms: C_10  and  C_56
    9  A    between atoms: C_11  and  C_16
   10  A    between atoms: C_11  and  C_43
   11  A    between atoms: C_12  and  C_41
   12  A    between atoms: C_12  and  C_51
   13  A    between atoms: C_15  and  C_54
   14  A    between atoms: C_16  and  C_58
   15  A    between atoms: C_17  and  C_26
   16  A    between atoms: C_17  and  C_65
   17  A    between atoms: C_19  and  N_47
   18  A    between atoms: C_25  and  C_34
   19  A    between atoms: C_25  and  C_50
   20  A    between atoms: C_26  and  O_60
   21  A    between atoms: C_26  and  C_70
   22  A    between atoms: C_27  and  P_49
   23  A    between atoms: C_27  and  C_59
   24  A    between atoms: C_30  and  C_70
   25  A    between atoms: C_33  and  C_34
   26  A    between atoms: C_33  and  C_52
   27  A    between atoms: O_35  and  C_36
   28  A    between atoms: O_35  and  C_41
   29  A    between atoms: O_37  and  C_58
   30  A    between atoms: O_37  and  C_62
   31  A    between atoms: C_40  and  C_68
   32  A    between atoms: C_43  and  C_68
   33  A    between atoms: C_50  and  C_57
   34  A    between atoms: C_52  and  C_62
   35  A    between atoms: C_53  and  C_58
   36  A    between atoms: C_54  and  C_56
                            x       y       z     vdW  Elec       q    Type
                         _______ _______ _______ _____ _____    ______ ____

>  <TORSDO>
F 36

$$$$
=
 OpenBabel11062421453D

 70 72  0  0  1  0  0  0  0  0999 V2000
  193.4460  172.3390  139.2780 C   0  0  2  0  0  3  0  0  0  0  0  0
  195.4990  173.3700  138.2070 C   0  0  0  0  0  2  0  0  0  0  0  0
  193.0680  172.5150  141.8540 C   0  0  2  0  0  3  0  0  0  0  0  0
  192.7040  175.8820  142.1370 C   0  0  0  0  0  1  0  0  0  0  0  0
  195.8940  174.5590  139.0580 C   0  0  0  0  0  0  0  0  0  0  0  0
  195.2680  174.8480  140.2810 O   0  0  0  0  0  0  0  0  0  0  0  0
  193.9900  173.1760  138.1100 C   0  0  0  0  0  2  0  0  0  0  0  0
  193.6600  174.7060  142.1250 C   0  0  2  0  0  0  0  0  0  0  0  0
  193.0470  173.6010  142.7550 O   0  0  0  0  0  0  0  0  0  0  0  0
  196.8870  175.3150  138.6980 N   0  0  0  0  0  0  0  0  0  0  0  0
  194.8100  175.0550  142.8390 O   0  0  0  0  0  1  0  0  0  0  0  0
  193.9910  174.3510  140.6830 C   0  0  2  0  0  3  0  0  0  0  0  0
  193.9450  172.8560  140.6470 C   0  0  2  0  0  3  0  0  0  0  0  0
  197.6760  175.1180  137.4860 C   0  0  0  0  0  2  0  0  0  0  0  0
  197.1690  176.0330  136.3850 C   0  0  0  0  0  1  0  0  0  0  0  0
  193.7330  170.8460  139.0300 C   0  0  2  0  0  3  0  0  0  0  0  0
  192.4120  170.0620  139.0420 C   0  0  0  0  0  2  0  0  0  0  0  0
  191.3440  170.7430  138.1930 C   0  0  0  0  0  2  0  0  0  0  0  0
  192.1510  169.2970  136.2960 C   0  0  0  0  0  1  0  0  0  0  0  0
  191.6590  170.6790  136.7010 C   0  0  1  0  0  3  0  0  0  0  0  0
  190.5020  171.1950  135.8320 C   0  0  2  0  0  3  0  0  0  0  0  0
  190.5140  170.6330  134.5520 O   0  0  0  0  0  1  0  0  0  0  0  0
  190.4470  172.7240  135.7570 C   0  0  0  0  0  2  0  0  0  0  0  0
  190.7060  173.4060  137.0940 C   0  0  0  0  0  2  0  0  0  0  0  0
  188.5830  174.5810  136.6600 C   0  0  0  0  0  1  0  0  0  0  0  0
  189.4030  173.8680  137.7110 C   0  0  0  0  0  2  0  0  0  0  0  0
  194.6370  170.3230  139.9710 O   0  0  0  0  0  0  0  0  0  0  0  0
  195.9120  170.4470  139.3980 C   0  0  2  0  0  3  0  0  0  0  0  0
  195.5500  169.7550  137.1260 F   0  0  0  0  0  0  0  0  0  0  0  0
  195.5170  168.1740  138.7500 F   0  0  0  0  0  0  0  0  0  0  0  0
  196.0840  169.3620  138.3370 C   0  0  0  0  0  3  0  0  0  0  0  0
  196.9930  170.3910  140.4810 C   0  0  1  0  0  3  0  0  0  0  0  0
  197.4740  171.6790  140.7460 O   0  0  0  0  0  1  0  0  0  0  0  0
  196.4120  169.8050  141.7620 C   0  0  0  0  0  2  0  0  0  0  0  0
  197.0380  170.4530  142.9950 C   0  0  0  0  0  2  0  0  0  0  0  0
  196.7000  171.1550  145.3340 C   0  0  0  0  0  1  0  0  0  0  0  0
  196.6190  168.8720  144.7550 F   0  0  0  0  0  0  0  0  0  0  0  0
  196.2930  170.1350  144.2920 C   0  0  2  0  0  0  0  0  0  0  0  0
  194.0360  169.9370  144.9750 O   0  0  0  0  0  0  0  0  0  0  0  0
  194.8150  170.2440  144.0880 C   0  0  0  0  0  3  0  0  0  0  0  0
  191.6400  172.0350  141.5460 C   0  0  0  0  0  2  0  0  0  0  0  0
  190.2790  172.2960  143.4650 O   0  0  0  0  0  0  0  0  0  0  0  0
  190.5860  172.7230  142.3630 C   0  0  0  0  0  0  0  0  0  0  0  0
  189.9480  173.9720  141.8490 C   0  0  0  0  0  2  0  0  0  0  0  0
  188.4410  173.9180  142.0440 C   0  0  0  0  0  2  0  0  0  0  0  0
  187.8580  175.3250  142.0820 C   0  0  0  0  0  2  0  0  0  0  0  0
  187.7160  175.8400  143.5110 C   0  0  2  0  0  3  0  0  0  0  0  0
  188.2570  177.1270  143.6360 O   0  0  0  0  0  0  0  0  0  0  0  0
  187.6400  177.6900  144.7620 C   0  0  0  0  0  2  0  0  0  0  0  0
  185.9970  176.6790  146.1760 O   0  0  0  0  0  1  0  0  0  0  0  0
  186.1980  177.1980  144.8930 C   0  0  1  0  0  3  0  0  0  0  0  0
  185.7750  179.5620  144.8950 O   0  0  0  0  0  1  0  0  0  0  0  0
  185.1980  178.3230  144.5990 C   0  0  2  0  0  0  0  0  0  0  0  0
  184.0630  178.1580  145.3760 F   0  0  0  0  0  0  0  0  0  0  0  0
  183.1520  178.8750  142.6610 O   0  0  0  0  0  1  0  0  0  0  0  0
  184.8110  176.8930  142.3090 O   0  0  0  0  0  1  0  0  0  0  0  0
  185.7800  179.2900  141.9410 O   0  0  0  0  0  0  0  0  0  0  0  0
  184.7330  178.3070  142.8360 P   0  0  0  0  0  0  0  0  0  0  0  0
  188.3880  174.8790  144.4860 C   0  0  0  0  0  2  0  0  0  0  0  0
  189.9180  174.6170  146.4140 C   0  0  2  0  0  3  0  0  0  0  0  0
  190.7040  175.2110  145.2590 C   0  0  0  0  0  2  0  0  0  0  0  0
  189.2630  175.6140  145.4830 C   0  0  1  0  0  3  0  0  0  0  0  0
  190.3090  175.3240  147.7010 C   0  0  0  0  0  2  0  0  0  0  0  0
  192.0870  176.8810  147.9840 O   0  0  0  0  0  0  0  0  0  0  0  0
  191.7560  175.7100  147.6600 C   0  0  0  0  0  0  0  0  0  0  0  0
  192.7490  174.7950  147.2950 O   0  0  0  0  0  0  0  0  0  0  0  0
  193.5590  174.9530  146.1320 C   0  0  0  0  0  2  0  0  0  0  0  0
  194.7200  175.9030  146.4070 C   0  0  0  0  0  2  0  0  0  0  0  0
  194.7920  176.9920  145.3470 C   0  0  0  0  0  2  0  0  0  0  0  0
  193.3990  177.4370  144.9490 C   0  0  0  0  0  1  0  0  0  0  0  0
  1 16  1  6  0  0  0
  1 13  1  0  0  0  0
  2  5  1  0  0  0  0
  3 41  1  6  0  0  0
  3  9  1  0  0  0  0
  5  6  1  0  0  0  0
  7  2  1  0  0  0  0
  7  1  1  0  0  0  0
  8  4  1  1  0  0  0
  8  9  1  0  0  0  0
  8 11  1  0  0  0  0
 10  5  2  0  0  0  0
 12  6  1  1  0  0  0
 12  8  1  0  0  0  0
 13 12  1  0  0  0  0
 13  3  1  0  0  0  0
 14 10  1  0  0  0  0
 15 14  1  0  0  0  0
 16 17  1  0  0  0  0
 16 27  1  0  0  0  0
 18 17  1  0  0  0  0
 19 20  1  0  0  0  0
 20 18  1  0  0  0  0
 21 20  1  0  0  0  0
 22 21  1  0  0  0  0
 23 21  1  0  0  0  0
 23 24  1  0  0  0  0
 24 26  1  0  0  0  0
 25 26  1  0  0  0  0
 28 27  1  0  0  0  0
 28 32  1  0  0  0  0
 29 31  1  0  0  0  0
 31 30  1  0  0  0  0
 31 28  1  0  0  0  0
 32 33  1  0  0  0  0
 32 34  1  0  0  0  0
 34 35  1  0  0  0  0
 35 38  1  0  0  0  0
 38 37  1  0  0  0  0
 38 36  1  0  0  0  0
 40 38  1  0  0  0  0
 40 39  2  0  0  0  0
 41 43  1  0  0  0  0
 43 42  2  0  0  0  0
 44 45  1  0  0  0  0
 44 43  1  0  0  0  0
 45 46  1  0  0  0  0
 46 47  1  0  0  0  0
 47 48  1  0  0  0  0
 47 59  1  0  0  0  0
 48 49  1  0  0  0  0
 49 51  1  0  0  0  0
 51 50  1  0  0  0  0
 53 51  1  0  0  0  0
 53 52  1  0  0  0  0
 53 54  1  0  0  0  0
 55 58  1  0  0  0  0
 56 58  1  0  0  0  0
 57 58  2  0  0  0  0
 58 53  1  0  0  0  0
 59 62  1  0  0  0  0
 60 63  1  0  0  0  0
 61 62  1  0  0  0  0
 61 60  1  0  0  0  0
 62 60  1  0  0  0  0
 65 63  1  0  0  0  0
 65 64  2  0  0  0  0
 66 65  1  0  0  0  0
 67 68  1  0  0  0  0
 67 66  1  0  0  0  0
 69 68  1  0  0  0  0
 70 69  1  0  0  0  0
M  END
>  <MODEL>
7

>  <REMARK>
 VINA RESULT:      -3.3      2.542      4.968
  Name = 
  36 active torsions:
  status: ('A' for Active; 'I' for Inactive)
    1  A    between atoms: C_1  and  C_59
    2  A    between atoms: C_1  and  O_60
    3  A    between atoms: C_6  and  C_8
    4  A    between atoms: C_7  and  C_57
    5  A    between atoms: C_8  and  C_36
    6  A    between atoms: C_9  and  C_62
    7  A    between atoms: C_10  and  C_30
    8  A    between atoms: C_10  and  C_56
    9  A    between atoms: C_11  and  C_16
   10  A    between atoms: C_11  and  C_43
   11  A    between atoms: C_12  and  C_41
   12  A    between atoms: C_12  and  C_51
   13  A    between atoms: C_15  and  C_54
   14  A    between atoms: C_16  and  C_58
   15  A    between atoms: C_17  and  C_26
   16  A    between atoms: C_17  and  C_65
   17  A    between atoms: C_19  and  N_47
   18  A    between atoms: C_25  and  C_34
   19  A    between atoms: C_25  and  C_50
   20  A    between atoms: C_26  and  O_60
   21  A    between atoms: C_26  and  C_70
   22  A    between atoms: C_27  and  P_49
   23  A    between atoms: C_27  and  C_59
   24  A    between atoms: C_30  and  C_70
   25  A    between atoms: C_33  and  C_34
   26  A    between atoms: C_33  and  C_52
   27  A    between atoms: O_35  and  C_36
   28  A    between atoms: O_35  and  C_41
   29  A    between atoms: O_37  and  C_58
   30  A    between atoms: O_37  and  C_62
   31  A    between atoms: C_40  and  C_68
   32  A    between atoms: C_43  and  C_68
   33  A    between atoms: C_50  and  C_57
   34  A    between atoms: C_52  and  C_62
   35  A    between atoms: C_53  and  C_58
   36  A    between atoms: C_54  and  C_56
                            x       y       z     vdW  Elec       q    Type
                         _______ _______ _______ _____ _____    ______ ____

>  <TORSDO>
F 36

$$$$
=
 OpenBabel11062421453D

 70 72  0  0  1  0  0  0  0  0999 V2000
  188.5650  175.3000  145.0260 C   0  0  2  0  0  3  0  0  0  0  0  0
  187.6420  177.3630  146.1720 C   0  0  0  0  0  2  0  0  0  0  0  0
  191.1340  175.0250  144.6640 C   0  0  2  0  0  3  0  0  0  0  0  0
  192.1410  174.8490  147.9050 C   0  0  0  0  0  1  0  0  0  0  0  0
  188.7060  177.8510  147.1340 C   0  0  0  0  0  0  0  0  0  0  0  0
  189.9900  177.2860  147.1810 O   0  0  0  0  0  0  0  0  0  0  0  0
  187.5770  175.8440  146.0690 C   0  0  0  0  0  2  0  0  0  0  0  0
  191.8350  175.7410  146.7190 C   0  0  2  0  0  0  0  0  0  0  0  0
  192.2450  175.0940  145.5320 O   0  0  0  0  0  0  0  0  0  0  0  0
  188.4680  178.8690  147.9050 N   0  0  0  0  0  0  0  0  0  0  0  0
  192.5520  176.9330  146.8560 O   0  0  0  0  0  1  0  0  0  0  0  0
  190.3370  176.0000  146.6660 C   0  0  2  0  0  3  0  0  0  0  0  0
  189.9870  175.8740  145.2160 C   0  0  2  0  0  3  0  0  0  0  0  0
  187.2060  179.6010  147.9370 C   0  0  0  0  0  2  0  0  0  0  0  0
  186.2900  179.0070  148.9920 C   0  0  0  0  0  1  0  0  0  0  0  0
  187.9930  175.4980  143.6100 C   0  0  2  0  0  3  0  0  0  0  0  0
  188.8860  174.7740  142.5910 C   0  0  0  0  0  2  0  0  0  0  0  0
  188.1010  173.7440  141.7860 C   0  0  0  0  0  2  0  0  0  0  0  0
  190.0200  174.1150  140.1980 C   0  0  0  0  0  1  0  0  0  0  0  0
  188.9160  173.1630  140.6330 C   0  0  1  0  0  3  0  0  0  0  0  0
  189.4150  171.7390  140.9250 C   0  0  2  0  0  3  0  0  0  0  0  0
  189.4470  171.4640  142.2950 O   0  0  0  0  0  1  0  0  0  0  0  0
  190.7680  171.4340  140.2740 C   0  0  0  0  0  2  0  0  0  0  0  0
  190.7330  171.4890  138.7520 C   0  0  0  0  0  2  0  0  0  0  0  0
  190.2950  169.8680  136.9470 C   0  0  0  0  0  1  0  0  0  0  0  0
  191.1400  170.1530  138.1680 C   0  0  0  0  0  2  0  0  0  0  0  0
  187.8610  176.8590  143.2850 O   0  0  0  0  0  0  0  0  0  0  0  0
  188.6170  177.0580  142.1200 C   0  0  2  0  0  3  0  0  0  0  0  0
  190.9900  177.3960  141.9650 F   0  0  0  0  0  0  0  0  0  0  0  0
  189.9160  178.1430  143.8150 F   0  0  0  0  0  0  0  0  0  0  0  0
  189.8190  177.9380  142.4540 C   0  0  0  0  0  3  0  0  0  0  0  0
  187.7430  177.6480  141.0090 C   0  0  1  0  0  3  0  0  0  0  0  0
  187.6690  176.7570  139.9320 O   0  0  0  0  0  1  0  0  0  0  0  0
  186.3380  177.9050  141.5380 C   0  0  0  0  0  2  0  0  0  0  0  0
  186.3810  178.5130  142.9390 C   0  0  0  0  0  2  0  0  0  0  0  0
  184.7960  179.8690  144.2510 C   0  0  0  0  0  1  0  0  0  0  0  0
  185.0050  177.5580  144.6610 F   0  0  0  0  0  0  0  0  0  0  0  0
  185.0260  178.5000  143.6470 C   0  0  2  0  0  0  0  0  0  0  0  0
  183.1730  179.1230  142.3150 O   0  0  0  0  0  0  0  0  0  0  0  0
  183.9260  178.2320  142.6710 C   0  0  0  0  0  3  0  0  0  0  0  0
  190.7990  173.5630  144.3230 C   0  0  0  0  0  2  0  0  0  0  0  0
  192.1770  171.7320  144.9170 O   0  0  0  0  0  0  0  0  0  0  0  0
  192.0090  172.6890  144.1760 C   0  0  0  0  0  0  0  0  0  0  0  0
  192.9880  172.9560  143.0800 C   0  0  0  0  0  2  0  0  0  0  0  0
  192.3520  173.8120  141.9960 C   0  0  0  0  0  2  0  0  0  0  0  0
  193.2950  174.9350  141.5820 C   0  0  0  0  0  2  0  0  0  0  0  0
  194.1180  174.5600  140.3550 C   0  0  2  0  0  3  0  0  0  0  0  0
  194.6920  173.2900  140.5060 O   0  0  0  0  0  0  0  0  0  0  0  0
  194.1440  172.5030  139.4840 C   0  0  0  0  0  2  0  0  0  0  0  0
  195.1570  173.5110  137.5660 O   0  0  0  0  0  1  0  0  0  0  0  0
  195.1370  172.3410  138.3320 C   0  0  1  0  0  3  0  0  0  0  0  0
  196.7020  172.5130  140.1460 O   0  0  0  0  0  1  0  0  0  0  0  0
  196.5410  172.0090  138.8520 C   0  0  2  0  0  0  0  0  0  0  0  0
  197.4960  172.5780  138.0250 F   0  0  0  0  0  0  0  0  0  0  0  0
  197.1280  169.7180  140.4810 O   0  0  0  0  0  1  0  0  0  0  0  0
  197.9400  169.8260  138.0040 O   0  0  0  0  0  0  0  0  0  0  0  0
  195.3880  169.4070  138.3660 O   0  0  0  0  0  1  0  0  0  0  0  0
  196.7820  170.2020  138.9000 P   0  0  0  0  0  0  0  0  0  0  0  0
  195.1960  175.6090  140.1040 C   0  0  0  0  0  2  0  0  0  0  0  0
  196.3800  176.0770  142.2260 C   0  0  2  0  0  3  0  0  0  0  0  0
  196.7030  177.1900  141.2450 C   0  0  0  0  0  2  0  0  0  0  0  0
  195.3210  176.5740  141.2670 C   0  0  1  0  0  3  0  0  0  0  0  0
  196.1270  176.6780  143.5990 C   0  0  0  0  0  2  0  0  0  0  0  0
  195.2650  175.8890  145.6730 O   0  0  0  0  0  0  0  0  0  0  0  0
  195.8400  175.5940  144.5930 C   0  0  0  0  0  0  0  0  0  0  0  0
  196.1720  174.2590  144.3380 O   0  0  0  0  0  0  0  0  0  0  0  0
  197.4410  173.6990  144.6730 C   0  0  0  0  0  2  0  0  0  0  0  0
  197.3470  172.8770  145.9540 C   0  0  0  0  0  2  0  0  0  0  0  0
  197.0600  171.4160  145.6420 C   0  0  0  0  0  2  0  0  0  0  0  0
  195.5740  171.1360  145.7420 C   0  0  0  0  0  1  0  0  0  0  0  0
  1 16  1  6  0  0  0
  1 13  1  0  0  0  0
  1  7  1  0  0  0  0
  2  5  1  0  0  0  0
  3 41  1  1  0  0  0
  3 13  1  0  0  0  0
  3  9  1  0  0  0  0
  5  6  1  0  0  0  0
  5 10  2  0  0  0  0
  7  2  1  0  0  0  0
  8 11  1  0  0  0  0
  8  4  1  1  0  0  0
  9  8  1  0  0  0  0
 10 14  1  0  0  0  0
 12  8  1  0  0  0  0
 12  6  1  6  0  0  0
 13 12  1  0  0  0  0
 14 15  1  0  0  0  0
 17 16  1  0  0  0  0
 18 17  1  0  0  0  0
 19 20  1  0  0  0  0
 20 21  1  0  0  0  0
 20 18  1  0  0  0  0
 21 22  1  0  0  0  0
 23 21  1  0  0  0  0
 24 23  1  0  0  0  0
 25 26  1  0  0  0  0
 26 24  1  0  0  0  0
 27 16  1  0  0  0  0
 28 31  1  0  0  0  0
 28 27  1  0  0  0  0
 29 31  1  0  0  0  0
 31 30  1  0  0  0  0
 32 34  1  0  0  0  0
 32 28  1  0  0  0  0
 33 32  1  0  0  0  0
 34 35  1  0  0  0  0
 35 38  1  0  0  0  0
 38 36  1  0  0  0  0
 38 37  1  0  0  0  0
 39 40  2  0  0  0  0
 40 38  1  0  0  0  0
 43 41  1  0  0  0  0
 43 42  2  0  0  0  0
 44 43  1  0  0  0  0
 45 44  1  0  0  0  0
 46 45  1  0  0  0  0
 47 48  1  0  0  0  0
 47 46  1  0  0  0  0
 49 48  1  0  0  0  0
 50 51  1  0  0  0  0
 51 53  1  0  0  0  0
 51 49  1  0  0  0  0
 53 58  1  0  0  0  0
 53 52  1  0  0  0  0
 54 53  1  0  0  0  0
 56 58  2  0  0  0  0
 57 58  1  0  0  0  0
 58 55  1  0  0  0  0
 59 47  1  0  0  0  0
 59 62  1  0  0  0  0
 60 63  1  0  0  0  0
 61 62  1  0  0  0  0
 61 60  1  0  0  0  0
 62 60  1  0  0  0  0
 63 65  1  0  0  0  0
 65 64  2  0  0  0  0
 66 65  1  0  0  0  0
 66 67  1  0  0  0  0
 67 68  1  0  0  0  0
 69 70  1  0  0  0  0
 69 68  1  0  0  0  0
M  END
>  <MODEL>
8

>  <REMARK>
 VINA RESULT:      -2.3      3.704      9.328
  Name = 
  36 active torsions:
  status: ('A' for Active; 'I' for Inactive)
    1  A    between atoms: C_1  and  C_59
    2  A    between atoms: C_1  and  O_60
    3  A    between atoms: C_6  and  C_8
    4  A    between atoms: C_7  and  C_57
    5  A    between atoms: C_8  and  C_36
    6  A    between atoms: C_9  and  C_62
    7  A    between atoms: C_10  and  C_30
    8  A    between atoms: C_10  and  C_56
    9  A    between atoms: C_11  and  C_16
   10  A    between atoms: C_11  and  C_43
   11  A    between atoms: C_12  and  C_41
   12  A    between atoms: C_12  and  C_51
   13  A    between atoms: C_15  and  C_54
   14  A    between atoms: C_16  and  C_58
   15  A    between atoms: C_17  and  C_26
   16  A    between atoms: C_17  and  C_65
   17  A    between atoms: C_19  and  N_47
   18  A    between atoms: C_25  and  C_34
   19  A    between atoms: C_25  and  C_50
   20  A    between atoms: C_26  and  O_60
   21  A    between atoms: C_26  and  C_70
   22  A    between atoms: C_27  and  P_49
   23  A    between atoms: C_27  and  C_59
   24  A    between atoms: C_30  and  C_70
   25  A    between atoms: C_33  and  C_34
   26  A    between atoms: C_33  and  C_52
   27  A    between atoms: O_35  and  C_36
   28  A    between atoms: O_35  and  C_41
   29  A    between atoms: O_37  and  C_58
   30  A    between atoms: O_37  and  C_62
   31  A    between atoms: C_40  and  C_68
   32  A    between atoms: C_43  and  C_68
   33  A    between atoms: C_50  and  C_57
   34  A    between atoms: C_52  and  C_62
   35  A    between atoms: C_53  and  C_58
   36  A    between atoms: C_54  and  C_56
                            x       y       z     vdW  Elec       q    Type
                         _______ _______ _______ _____ _____    ______ ____

>  <TORSDO>
F 36

$$$$
=
 OpenBabel11062421453D

 70 72  0  0  1  0  0  0  0  0999 V2000
  192.3770  174.1910  142.7620 C   0  0  2  0  0  3  0  0  0  0  0  0
  193.4680  171.9960  143.4060 C   0  0  0  0  0  2  0  0  0  0  0  0
  189.7800  174.3780  142.5950 C   0  0  2  0  0  3  0  0  0  0  0  0
  188.9680  173.8250  145.8490 C   0  0  0  0  0  1  0  0  0  0  0  0
  192.4910  171.2590  144.2970 C   0  0  0  0  0  0  0  0  0  0  0  0
  191.1860  171.7230  144.5260 O   0  0  0  0  0  0  0  0  0  0  0  0
  193.4530  173.5060  143.6180 C   0  0  0  0  0  2  0  0  0  0  0  0
  189.2430  173.2160  144.4890 C   0  0  2  0  0  0  0  0  0  0  0  0
  188.7290  174.0660  143.4850 O   0  0  0  0  0  0  0  0  0  0  0  0
  192.8260  170.1210  144.8270 N   0  0  0  0  0  0  0  0  0  0  0  0
  188.5950  171.9800  144.4110 O   0  0  0  0  0  1  0  0  0  0  0  0
  190.7450  173.0640  144.3080 C   0  0  2  0  0  3  0  0  0  0  0  0
  190.9980  173.5050  142.9000 C   0  0  2  0  0  3  0  0  0  0  0  0
  194.1210  169.4750  144.6430 C   0  0  0  0  0  2  0  0  0  0  0  0
  194.5320  168.7680  145.9220 C   0  0  0  0  0  1  0  0  0  0  0  0
  192.8690  174.3220  141.3090 C   0  0  2  0  0  3  0  0  0  0  0  0
  191.7820  173.8090  140.3520 C   0  0  0  0  0  2  0  0  0  0  0  0
  191.5090  172.3230  140.5530 C   0  0  0  0  0  2  0  0  0  0  0  0
  191.9640  170.1470  139.3700 C   0  0  0  0  0  1  0  0  0  0  0  0
  191.4240  171.5630  139.2320 C   0  0  1  0  0  3  0  0  0  0  0  0
  190.0220  171.6260  138.6060 C   0  0  2  0  0  3  0  0  0  0  0  0
  189.3250  170.4240  138.7600 O   0  0  0  0  0  1  0  0  0  0  0  0
  190.0420  172.0640  137.1390 C   0  0  0  0  0  2  0  0  0  0  0  0
  189.7290  173.5420  136.9450 C   0  0  0  0  0  2  0  0  0  0  0  0
  189.3320  175.2570  135.2180 C   0  0  0  0  0  1  0  0  0  0  0  0
  189.1930  173.7890  135.5510 C   0  0  0  0  0  2  0  0  0  0  0  0
  194.0820  173.6420  141.1040 O   0  0  0  0  0  0  0  0  0  0  0  0
  195.0620  174.6320  140.9370 C   0  0  2  0  0  3  0  0  0  0  0  0
  195.3000  177.0150  140.7530 F   0  0  0  0  0  0  0  0  0  0  0  0
  193.7980  176.1960  142.2400 F   0  0  0  0  0  0  0  0  0  0  0  0
  194.3960  176.0040  141.0120 C   0  0  0  0  0  3  0  0  0  0  0  0
  195.8240  174.4160  139.6260 C   0  0  1  0  0  3  0  0  0  0  0  0
  196.1520  173.0620  139.4810 O   0  0  0  0  0  1  0  0  0  0  0  0
  194.9590  174.8460  138.4480 C   0  0  0  0  0  2  0  0  0  0  0  0
  195.5100  174.2970  137.1340 C   0  0  0  0  0  2  0  0  0  0  0  0
  193.7340  175.7250  136.1940 C   0  0  0  0  0  1  0  0  0  0  0  0
  194.9930  174.3160  134.7870 F   0  0  0  0  0  0  0  0  0  0  0  0
  195.0910  175.1160  135.9120 C   0  0  2  0  0  0  0  0  0  0  0  0
  197.0840  176.0420  135.0360 O   0  0  0  0  0  0  0  0  0  0  0  0
  196.0590  176.2300  135.6700 C   0  0  0  0  0  3  0  0  0  0  0  0
  190.0220  175.8970  142.5490 C   0  0  0  0  0  2  0  0  0  0  0  0
  188.8110  177.9130  142.2810 O   0  0  0  0  0  0  0  0  0  0  0  0
  188.7860  176.6920  142.2470 C   0  0  0  0  0  0  0  0  0  0  0  0
  187.5310  175.9890  141.8480 C   0  0  0  0  0  2  0  0  0  0  0  0
  186.3720  176.9700  141.7720 C   0  0  0  0  0  2  0  0  0  0  0  0
  185.5930  176.9760  143.0820 C   0  0  0  0  0  2  0  0  0  0  0  0
  185.1960  178.3890  143.4980 C   0  0  2  0  0  3  0  0  0  0  0  0
  184.5090  178.3770  144.7200 O   0  0  0  0  0  0  0  0  0  0  0  0
  185.0710  177.3280  145.4610 C   0  0  0  0  0  2  0  0  0  0  0  0
  185.4400  177.9980  147.7260 O   0  0  0  0  0  1  0  0  0  0  0  0
  186.0710  177.8630  146.4860 C   0  0  1  0  0  3  0  0  0  0  0  0
  187.5340  176.3190  145.3700 O   0  0  0  0  0  1  0  0  0  0  0  0
  187.2960  176.9460  146.5970 C   0  0  2  0  0  0  0  0  0  0  0  0
  187.0730  175.9780  147.5620 F   0  0  0  0  0  0  0  0  0  0  0  0
  189.5670  178.4220  145.6430 O   0  0  0  0  0  0  0  0  0  0  0  0
  189.7080  177.0630  147.8650 O   0  0  0  0  0  1  0  0  0  0  0  0
  188.3280  179.2780  147.9510 O   0  0  0  0  0  1  0  0  0  0  0  0
  188.7710  177.9190  147.0450 P   0  0  0  0  0  0  0  0  0  0  0  0
  184.3460  179.0380  142.4110 C   0  0  0  0  0  2  0  0  0  0  0  0
  182.2190  178.8060  141.1670 C   0  0  2  0  0  3  0  0  0  0  0  0
  183.3390  178.2580  140.3010 C   0  0  0  0  0  2  0  0  0  0  0  0
  183.3680  178.0520  141.8010 C   0  0  1  0  0  3  0  0  0  0  0  0
  181.0150  177.8830  141.0700 C   0  0  0  0  0  2  0  0  0  0  0  0
  179.5700  179.1120  142.5090 O   0  0  0  0  0  0  0  0  0  0  0  0
  179.7560  178.6440  141.3550 C   0  0  0  0  0  0  0  0  0  0  0  0
  178.7950  178.8680  140.3630 O   0  0  0  0  0  0  0  0  0  0  0  0
  178.3310  180.1710  140.0150 C   0  0  0  0  0  2  0  0  0  0  0  0
  179.3710  181.2290  140.3680 C   0  0  0  0  0  2  0  0  0  0  0  0
  179.2990  182.4040  139.4050 C   0  0  0  0  0  2  0  0  0  0  0  0
  177.9240  183.0410  139.4500 C   0  0  0  0  0  1  0  0  0  0  0  0
  1 16  1  6  0  0  0
  1 13  1  0  0  0  0
  1  7  1  0  0  0  0
  2  7  1  0  0  0  0
  2  5  1  0  0  0  0
  3 41  1  1  0  0  0
  3 13  1  0  0  0  0
  3  9  1  0  0  0  0
  5  6  1  0  0  0  0
  5 10  2  0  0  0  0
  8  4  1  1  0  0  0
  9  8  1  0  0  0  0
 11  8  1  0  0  0  0
 12  8  1  0  0  0  0
 12  6  1  6  0  0  0
 13 12  1  0  0  0  0
 14 10  1  0  0  0  0
 14 15  1  0  0  0  0
 17 18  1  0  0  0  0
 17 16  1  0  0  0  0
 20 19  1  0  0  0  0
 20 18  1  0  0  0  0
 21 22  1  0  0  0  0
 21 20  1  0  0  0  0
 23 21  1  0  0  0  0
 24 23  1  0  0  0  0
 25 26  1  0  0  0  0
 26 24  1  0  0  0  0
 27 16  1  0  0  0  0
 28 31  1  0  0  0  0
 28 27  1  0  0  0  0
 29 31  1  0  0  0  0
 31 30  1  0  0  0  0
 32 28  1  0  0  0  0
 33 32  1  0  0  0  0
 34 32  1  0  0  0  0
 35 34  1  0  0  0  0
 37 38  1  0  0  0  0
 38 36  1  0  0  0  0
 38 35  1  0  0  0  0
 39 40  2  0  0  0  0
 40 38  1  0  0  0  0
 43 42  2  0  0  0  0
 43 41  1  0  0  0  0
 44 43  1  0  0  0  0
 45 44  1  0  0  0  0
 45 46  1  0  0  0  0
 46 47  1  0  0  0  0
 47 48  1  0  0  0  0
 48 49  1  0  0  0  0
 49 51  1  0  0  0  0
 51 53  1  0  0  0  0
 51 50  1  0  0  0  0
 52 53  1  0  0  0  0
 53 58  1  0  0  0  0
 53 54  1  0  0  0  0
 55 58  2  0  0  0  0
 58 56  1  0  0  0  0
 58 57  1  0  0  0  0
 59 47  1  0  0  0  0
 60 62  1  0  0  0  0
 61 60  1  0  0  0  0
 61 62  1  0  0  0  0
 62 59  1  0  0  0  0
 63 60  1  0  0  0  0
 63 65  1  0  0  0  0
 65 64  2  0  0  0  0
 66 65  1  0  0  0  0
 67 66  1  0  0  0  0
 67 68  1  0  0  0  0
 69 70  1  0  0  0  0
 69 68  1  0  0  0  0
M  END
>  <MODEL>
9

>  <REMARK>
 VINA RESULT:      -2.3      3.999      8.429
  Name = 
  36 active torsions:
  status: ('A' for Active; 'I' for Inactive)
    1  A    between atoms: C_1  and  C_59
    2  A    between atoms: C_1  and  O_60
    3  A    between atoms: C_6  and  C_8
    4  A    between atoms: C_7  and  C_57
    5  A    between atoms: C_8  and  C_36
    6  A    between atoms: C_9  and  C_62
    7  A    between atoms: C_10  and  C_30
    8  A    between atoms: C_10  and  C_56
    9  A    between atoms: C_11  and  C_16
   10  A    between atoms: C_11  and  C_43
   11  A    between atoms: C_12  and  C_41
   12  A    between atoms: C_12  and  C_51
   13  A    between atoms: C_15  and  C_54
   14  A    between atoms: C_16  and  C_58
   15  A    between atoms: C_17  and  C_26
   16  A    between atoms: C_17  and  C_65
   17  A    between atoms: C_19  and  N_47
   18  A    between atoms: C_25  and  C_34
   19  A    between atoms: C_25  and  C_50
   20  A    between atoms: C_26  and  O_60
   21  A    between atoms: C_26  and  C_70
   22  A    between atoms: C_27  and  P_49
   23  A    between atoms: C_27  and  C_59
   24  A    between atoms: C_30  and  C_70
   25  A    between atoms: C_33  and  C_34
   26  A    between atoms: C_33  and  C_52
   27  A    between atoms: O_35  and  C_36
   28  A    between atoms: O_35  and  C_41
   29  A    between atoms: O_37  and  C_58
   30  A    between atoms: O_37  and  C_62
   31  A    between atoms: C_40  and  C_68
   32  A    between atoms: C_43  and  C_68
   33  A    between atoms: C_50  and  C_57
   34  A    between atoms: C_52  and  C_62
   35  A    between atoms: C_53  and  C_58
   36  A    between atoms: C_54  and  C_56
                            x       y       z     vdW  Elec       q    Type
                         _______ _______ _______ _____ _____    ______ ____

>  <TORSDO>
F 36

$$$$
