=
 OpenBabel11062419393D

 42 48  0  0  1  0  0  0  0  0999 V2000
  188.4310  172.1800  142.2500 N   0  0  0  0  0  0  0  0  0  0  0  0
  188.8510  174.5570  142.4190 C   0  0  2  0  0  3  0  0  0  0  0  0
  189.3210  171.8980  143.1400 C   0  0  0  0  0  3  0  0  0  0  0  0
  190.4630  172.8330  143.4650 C   0  0  1  0  0  3  0  0  0  0  0  0
  190.2170  174.2970  143.0580 C   0  0  2  0  0  3  0  0  0  0  0  0
  188.4810  173.4090  141.4930 C   0  0  0  0  0  2  0  0  0  0  0  0
  190.0180  173.8550  144.4940 C   0  0  2  0  0  3  0  0  0  0  0  0
  191.2210  174.2790  145.3160 C   0  0  0  0  0  2  0  0  0  0  0  0
  191.9850  175.4050  144.6250 C   0  0  2  0  0  3  0  0  0  0  0  0
  193.4830  175.3030  144.9590 C   0  0  2  0  0  3  0  0  0  0  0  0
  194.2820  176.5160  144.5040 C   0  0  2  0  0  3  0  0  0  0  0  0
  195.6480  174.4920  144.2480 C   0  0  0  0  0  2  0  0  0  0  0  0
  194.1820  174.1010  144.3200 C   0  0  2  0  0  3  0  0  0  0  0  0
  195.7000  176.0120  144.2830 C   0  0  1  0  0  3  0  0  0  0  0  0
  194.2820  177.4980  145.4980 O   0  0  0  0  0  0  0  0  0  0  0  0
  194.5140  176.8050  146.6880 C   0  0  0  0  0  1  0  0  0  0  0  0
  193.7080  173.8770  143.0210 O   0  0  0  0  0  0  0  0  0  0  0  0
  194.0890  172.5680  142.7210 C   0  0  0  0  0  1  0  0  0  0  0  0
  196.3270  176.6020  143.0200 C   0  0  0  0  0  2  0  0  0  0  0  0
  195.6540  174.6330  140.0720 N   0  0  0  0  0  0  0  0  0  0  0  0
  194.6970  176.3000  141.2020 N   0  0  0  0  0  0  0  0  0  0  0  0
  195.8200  175.9700  141.8100 N   0  0  0  0  0  0  0  0  0  0  0  0
  196.4050  174.9680  141.1370 C   0  0  0  0  0  3  0  0  0  0  0  0
  194.5990  175.4780  140.1400 C   0  0  0  0  0  3  0  0  0  0  0  0
  190.9290  177.5900  144.1890 C   0  0  0  0  0  2  0  0  0  0  0  0
  191.4380  176.7300  145.0690 C   0  0  0  0  0  3  0  0  0  0  0  0
  188.8920  175.8080  141.6660 N   0  0  0  0  0  2  0  0  0  0  0  0
  185.6880  177.8400  141.8540 C   0  0  0  0  0  0  0  0  0  0  0  0
  185.5260  177.8770  143.2430 O   0  0  0  0  0  0  0  0  0  0  0  0
  186.7750  177.0210  141.2250 C   0  0  0  0  0  2  0  0  0  0  0  0
  184.8550  178.4280  141.1170 O   0  0  0  0  0  0  0  0  0  0  0  0
  186.5580  177.4830  144.1510 C   0  0  2  0  0  3  0  0  0  0  0  0
  187.4160  176.3570  143.5840 C   0  0  0  0  0  2  0  0  0  0  0  0
  187.9240  176.7690  142.2040 C   0  0  1  0  0  3  0  0  0  0  0  0
  186.1270  178.2870  147.5320 C   0  0  0  0  0  3  0  0  0  0  0  0
  184.5080  179.1730  145.8740 C   0  0  0  0  0  2  0  0  0  0  0  0
  186.8330  177.6000  146.6500 C   0  0  0  0  0  0  0  0  0  0  0  0
  184.5790  177.6520  145.8080 C   0  0  1  0  0  3  0  0  0  0  0  0
  185.9930  177.1050  145.5270 C   0  0  1  0  0  3  0  0  0  0  0  0
  184.6830  178.3760  147.1510 C   0  0  1  0  0  3  0  0  0  0  0  0
  188.2870  177.2970  146.8130 C   0  0  0  0  0  2  0  0  0  0  0  0
  188.4770  175.9190  146.9160 O   0  0  0  0  0  1  0  0  0  0  0  0
  1  3  2  0  0  0  0
  2 27  1  6  0  0  0
  2  5  1  0  0  0  0
  4  3  1  6  0  0  0
  4  7  1  0  0  0  0
  5  4  1  0  0  0  0
  5  7  1  0  0  0  0
  6  1  1  0  0  0  0
  6  2  1  0  0  0  0
  7  8  1  0  0  0  0
  9 10  1  0  0  0  0
  9 26  1  0  0  0  0
  9  8  1  0  0  0  0
 11 10  1  0  0  0  0
 11 15  1  0  0  0  0
 12 14  1  0  0  0  0
 12 13  1  0  0  0  0
 13 10  1  0  0  0  0
 14 11  1  0  0  0  0
 15 16  1  0  0  0  0
 17 13  1  0  0  0  0
 18 17  1  0  0  0  0
 19 14  1  0  0  0  0
 20 24  1  0  0  0  0
 20 23  2  0  0  0  0
 21 22  1  0  0  0  0
 22 19  1  0  0  0  0
 23 22  1  0  0  0  0
 24 21  2  0  0  0  0
 25 26  2  0  0  0  0
 27 34  1  0  0  0  0
 28 29  1  0  0  0  0
 29 32  1  0  0  0  0
 30 28  1  0  0  0  0
 30 34  1  0  0  0  0
 31 28  2  0  0  0  0
 32 39  1  0  0  0  0
 33 32  1  0  0  0  0
 34 33  1  0  0  0  0
 36 40  1  0  0  0  0
 37 41  1  0  0  0  0
 37 35  2  0  0  0  0
 38 36  1  0  0  0  0
 38 40  1  0  0  0  0
 39 38  1  0  0  0  0
 39 37  1  0  0  0  0
 40 35  1  0  0  0  0
 41 42  1  0  0  0  0
M  END
>  <MODEL>
1

>  <REMARK>
 VINA RESULT:      -7.6      0.000      0.000
  Name = 
  12 active torsions:
  status: ('A' for Active; 'I' for Inactive)
    1  A    between atoms: C_1  and  C_8
    2  A    between atoms: C_5  and  N_26
    3  A    between atoms: C_5  and  C_30
    4  A    between atoms: C_7  and  N_24
    5  A    between atoms: C_8  and  C_17
    6  A    between atoms: C_8  and  C_33
    7  A    between atoms: C_10  and  O_19
    8  A    between atoms: C_13  and  C_16
    9  A    between atoms: C_17  and  C_40
   10  A    between atoms: C_18  and  C_29
   11  A    between atoms: C_22  and  O_31
   12  A    between atoms: N_24  and  C_42
                            x       y       z     vdW  Elec       q    Type
                         _______ _______ _______ _____ _____    ______ ____

>  <TORSDO>
F 12

$$$$
=
 OpenBabel11062419393D

 42 48  0  0  1  0  0  0  0  0999 V2000
  194.5530  176.6820  146.1140 N   0  0  0  0  0  0  0  0  0  0  0  0
  192.2630  175.9060  146.0350 C   0  0  2  0  0  3  0  0  0  0  0  0
  195.0200  175.5330  145.7620 C   0  0  0  0  0  3  0  0  0  0  0  0
  194.2430  174.2510  145.9630 C   0  0  1  0  0  3  0  0  0  0  0  0
  192.7260  174.4500  146.1280 C   0  0  2  0  0  3  0  0  0  0  0  0
  193.2590  176.8150  146.7390 C   0  0  0  0  0  2  0  0  0  0  0  0
  193.3040  174.0270  144.7930 C   0  0  2  0  0  3  0  0  0  0  0  0
  193.0950  172.5350  144.6110 C   0  0  0  0  0  2  0  0  0  0  0  0
  191.8730  172.2580  143.7390 C   0  0  2  0  0  3  0  0  0  0  0  0
  192.2320  172.4570  142.2560 C   0  0  2  0  0  3  0  0  0  0  0  0
  191.4890  173.6170  141.6100 C   0  0  2  0  0  3  0  0  0  0  0  0
  191.7640  171.8090  139.9730 C   0  0  0  0  0  2  0  0  0  0  0  0
  191.9240  171.2450  141.3750 C   0  0  2  0  0  3  0  0  0  0  0  0
  191.4130  173.2810  140.1290 C   0  0  1  0  0  3  0  0  0  0  0  0
  192.2010  174.8070  141.7860 O   0  0  0  0  0  0  0  0  0  0  0  0
  193.3580  174.6500  141.0200 C   0  0  0  0  0  1  0  0  0  0  0  0
  190.7210  170.6370  141.7590 O   0  0  0  0  0  0  0  0  0  0  0  0
  190.9860  169.2670  141.7290 C   0  0  0  0  0  1  0  0  0  0  0  0
  190.0450  173.6180  139.5350 C   0  0  0  0  0  2  0  0  0  0  0  0
  187.6660  174.7180  142.0160 N   0  0  0  0  0  0  0  0  0  0  0  0
  188.3450  172.7960  141.1120 N   0  0  0  0  0  0  0  0  0  0  0  0
  189.0260  173.7820  140.5630 N   0  0  0  0  0  0  0  0  0  0  0  0
  188.6270  174.9440  141.1010 C   0  0  0  0  0  3  0  0  0  0  0  0
  187.5130  173.3740  142.0000 C   0  0  0  0  0  3  0  0  0  0  0  0
  189.7490  172.7450  144.8940 C   0  0  0  0  0  2  0  0  0  0  0  0
  190.7540  173.1770  144.1350 C   0  0  0  0  0  3  0  0  0  0  0  0
  190.9450  176.0420  146.6510 N   0  0  0  0  0  2  0  0  0  0  0  0
  189.5040  177.6360  143.5200 C   0  0  0  0  0  0  0  0  0  0  0  0
  188.1750  177.7810  143.9320 O   0  0  0  0  0  0  0  0  0  0  0  0
  190.5030  176.9150  144.3740 C   0  0  0  0  0  2  0  0  0  0  0  0
  189.8450  178.0360  142.3770 O   0  0  0  0  0  0  0  0  0  0  0  0
  187.7670  177.6150  145.2930 C   0  0  2  0  0  3  0  0  0  0  0  0
  188.6050  176.5650  146.0140 C   0  0  0  0  0  2  0  0  0  0  0  0
  190.0830  176.9110  145.8460 C   0  0  1  0  0  3  0  0  0  0  0  0
  184.5420  178.6580  146.1740 C   0  0  0  0  0  3  0  0  0  0  0  0
  185.3970  179.1930  143.9080 C   0  0  0  0  0  2  0  0  0  0  0  0
  185.6180  177.9850  146.5480 C   0  0  0  0  0  0  0  0  0  0  0  0
  185.4400  177.6920  144.1670 C   0  0  1  0  0  3  0  0  0  0  0  0
  186.2690  177.2950  145.4040 C   0  0  1  0  0  3  0  0  0  0  0  0
  184.2860  178.5390  144.7060 C   0  0  1  0  0  3  0  0  0  0  0  0
  186.0690  177.8740  147.9690 C   0  0  0  0  0  2  0  0  0  0  0  0
  186.8350  178.9880  148.3120 O   0  0  0  0  0  1  0  0  0  0  0  0
  1  6  1  0  0  0  0
  2  5  1  0  0  0  0
  2 27  1  1  0  0  0
  2  6  1  0  0  0  0
  3  1  2  0  0  0  0
  4  3  1  6  0  0  0
  4  5  1  0  0  0  0
  7  4  1  0  0  0  0
  7  5  1  0  0  0  0
  8  7  1  0  0  0  0
  9 26  1  0  0  0  0
  9  8  1  0  0  0  0
 10  9  1  0  0  0  0
 11 15  1  0  0  0  0
 11 10  1  0  0  0  0
 12 14  1  0  0  0  0
 12 13  1  0  0  0  0
 13 17  1  0  0  0  0
 13 10  1  0  0  0  0
 14 11  1  0  0  0  0
 16 15  1  0  0  0  0
 18 17  1  0  0  0  0
 19 14  1  0  0  0  0
 19 22  1  0  0  0  0
 21 24  2  0  0  0  0
 22 23  1  0  0  0  0
 22 21  1  0  0  0  0
 23 20  2  0  0  0  0
 24 20  1  0  0  0  0
 26 25  2  0  0  0  0
 28 29  1  0  0  0  0
 28 30  1  0  0  0  0
 29 32  1  0  0  0  0
 30 34  1  0  0  0  0
 31 28  2  0  0  0  0
 32 39  1  0  0  0  0
 32 33  1  0  0  0  0
 34 33  1  0  0  0  0
 34 27  1  0  0  0  0
 35 37  2  0  0  0  0
 36 38  1  0  0  0  0
 36 40  1  0  0  0  0
 37 41  1  0  0  0  0
 38 40  1  0  0  0  0
 38 39  1  0  0  0  0
 39 37  1  0  0  0  0
 40 35  1  0  0  0  0
 41 42  1  0  0  0  0
M  END
>  <MODEL>
2

>  <REMARK>
 VINA RESULT:      -7.5      2.440      5.115
  Name = 
  12 active torsions:
  status: ('A' for Active; 'I' for Inactive)
    1  A    between atoms: C_1  and  C_8
    2  A    between atoms: C_5  and  N_26
    3  A    between atoms: C_5  and  C_30
    4  A    between atoms: C_7  and  N_24
    5  A    between atoms: C_8  and  C_17
    6  A    between atoms: C_8  and  C_33
    7  A    between atoms: C_10  and  O_19
    8  A    between atoms: C_13  and  C_16
    9  A    between atoms: C_17  and  C_40
   10  A    between atoms: C_18  and  C_29
   11  A    between atoms: C_22  and  O_31
   12  A    between atoms: N_24  and  C_42
                            x       y       z     vdW  Elec       q    Type
                         _______ _______ _______ _____ _____    ______ ____

>  <TORSDO>
F 12

$$$$
=
 OpenBabel11062419393D

 42 48  0  0  1  0  0  0  0  0999 V2000
  189.7040  171.8020  140.1980 N   0  0  0  0  0  0  0  0  0  0  0  0
  189.0740  173.8080  141.3960 C   0  0  2  0  0  3  0  0  0  0  0  0
  190.4000  171.3550  141.1880 C   0  0  0  0  0  3  0  0  0  0  0  0
  190.9560  172.2660  142.2590 C   0  0  1  0  0  3  0  0  0  0  0  0
  190.2410  173.6240  142.3700 C   0  0  2  0  0  3  0  0  0  0  0  0
  189.4260  173.2110  140.0420 C   0  0  0  0  0  2  0  0  0  0  0  0
  189.9120  172.5010  143.3330 C   0  0  2  0  0  3  0  0  0  0  0  0
  190.6140  172.7560  144.6530 C   0  0  0  0  0  2  0  0  0  0  0  0
  190.6040  174.2430  144.9980 C   0  0  2  0  0  3  0  0  0  0  0  0
  191.8170  174.5830  145.8820 C   0  0  2  0  0  3  0  0  0  0  0  0
  192.2490  176.0380  145.7720 C   0  0  2  0  0  3  0  0  0  0  0  0
  194.2290  174.6140  146.0560 C   0  0  0  0  0  2  0  0  0  0  0  0
  193.0700  173.7680  145.5580 C   0  0  2  0  0  3  0  0  0  0  0  0
  193.7320  176.0510  146.1130 C   0  0  1  0  0  3  0  0  0  0  0  0
  191.5490  176.8230  146.6930 O   0  0  0  0  0  0  0  0  0  0  0  0
  191.9660  176.3680  147.9450 C   0  0  0  0  0  1  0  0  0  0  0  0
  193.2050  173.5820  144.1760 O   0  0  0  0  0  0  0  0  0  0  0  0
  194.2520  172.6700  144.0370 C   0  0  0  0  0  1  0  0  0  0  0  0
  194.5220  176.9770  145.1880 C   0  0  0  0  0  2  0  0  0  0  0  0
  195.4020  175.5590  141.9880 N   0  0  0  0  0  0  0  0  0  0  0  0
  193.5970  176.4190  142.9790 N   0  0  0  0  0  0  0  0  0  0  0  0
  194.6030  176.4580  143.8300 N   0  0  0  0  0  0  0  0  0  0  0  0
  195.6950  175.9450  143.2450 C   0  0  0  0  0  3  0  0  0  0  0  0
  194.0910  175.8670  141.8530 C   0  0  0  0  0  3  0  0  0  0  0  0
  189.1860  174.3640  147.0110 C   0  0  0  0  0  2  0  0  0  0  0  0
  189.3270  174.5870  145.7060 C   0  0  0  0  0  3  0  0  0  0  0  0
  188.7780  175.2310  141.2490 N   0  0  0  0  0  2  0  0  0  0  0  0
  189.5460  177.8750  143.8650 C   0  0  0  0  0  0  0  0  0  0  0  0
  188.3420  177.8450  144.5770 O   0  0  0  0  0  0  0  0  0  0  0  0
  189.7190  177.0790  142.6070 C   0  0  0  0  0  2  0  0  0  0  0  0
  190.4640  178.6520  144.2340 O   0  0  0  0  0  0  0  0  0  0  0  0
  187.3680  176.8110  144.4020 C   0  0  2  0  0  3  0  0  0  0  0  0
  187.3390  176.2950  142.9670 C   0  0  0  0  0  2  0  0  0  0  0  0
  188.7530  175.8930  142.5560 C   0  0  1  0  0  3  0  0  0  0  0  0
  185.3400  179.2750  145.8420 C   0  0  0  0  0  3  0  0  0  0  0  0
  185.8000  179.3760  143.4060 C   0  0  0  0  0  2  0  0  0  0  0  0
  186.0130  178.1550  146.0420 C   0  0  0  0  0  0  0  0  0  0  0  0
  185.1760  178.0390  143.7890 C   0  0  1  0  0  3  0  0  0  0  0  0
  185.9720  177.2610  144.8550 C   0  0  1  0  0  3  0  0  0  0  0  0
  184.7290  179.3290  144.4780 C   0  0  1  0  0  3  0  0  0  0  0  0
  186.6680  177.8060  147.3390 C   0  0  0  0  0  2  0  0  0  0  0  0
  186.2920  176.5210  147.7300 O   0  0  0  0  0  1  0  0  0  0  0  0
  1  3  2  0  0  0  0
  2 27  1  6  0  0  0
  2  5  1  0  0  0  0
  4  3  1  6  0  0  0
  4  5  1  0  0  0  0
  4  7  1  0  0  0  0
  5  7  1  0  0  0  0
  6  1  1  0  0  0  0
  6  2  1  0  0  0  0
  7  8  1  0  0  0  0
  8  9  1  0  0  0  0
  9 26  1  0  0  0  0
  9 10  1  0  0  0  0
 11 10  1  0  0  0  0
 11 14  1  0  0  0  0
 11 15  1  0  0  0  0
 12 14  1  0  0  0  0
 13 10  1  0  0  0  0
 13 12  1  0  0  0  0
 15 16  1  0  0  0  0
 17 13  1  0  0  0  0
 18 17  1  0  0  0  0
 19 14  1  0  0  0  0
 20 23  2  0  0  0  0
 21 22  1  0  0  0  0
 22 19  1  0  0  0  0
 23 22  1  0  0  0  0
 24 20  1  0  0  0  0
 24 21  2  0  0  0  0
 26 25  2  0  0  0  0
 27 34  1  0  0  0  0
 28 31  2  0  0  0  0
 28 29  1  0  0  0  0
 30 28  1  0  0  0  0
 32 29  1  0  0  0  0
 32 39  1  0  0  0  0
 33 32  1  0  0  0  0
 34 30  1  0  0  0  0
 34 33  1  0  0  0  0
 35 37  2  0  0  0  0
 36 38  1  0  0  0  0
 36 40  1  0  0  0  0
 37 41  1  0  0  0  0
 38 40  1  0  0  0  0
 38 39  1  0  0  0  0
 39 37  1  0  0  0  0
 40 35  1  0  0  0  0
 41 42  1  0  0  0  0
M  END
>  <MODEL>
3

>  <REMARK>
 VINA RESULT:      -7.5      1.751      2.478
  Name = 
  12 active torsions:
  status: ('A' for Active; 'I' for Inactive)
    1  A    between atoms: C_1  and  C_8
    2  A    between atoms: C_5  and  N_26
    3  A    between atoms: C_5  and  C_30
    4  A    between atoms: C_7  and  N_24
    5  A    between atoms: C_8  and  C_17
    6  A    between atoms: C_8  and  C_33
    7  A    between atoms: C_10  and  O_19
    8  A    between atoms: C_13  and  C_16
    9  A    between atoms: C_17  and  C_40
   10  A    between atoms: C_18  and  C_29
   11  A    between atoms: C_22  and  O_31
   12  A    between atoms: N_24  and  C_42
                            x       y       z     vdW  Elec       q    Type
                         _______ _______ _______ _____ _____    ______ ____

>  <TORSDO>
F 12

$$$$
=
 OpenBabel11062419393D

 42 48  0  0  1  0  0  0  0  0999 V2000
  189.0020  172.4350  139.1390 N   0  0  0  0  0  0  0  0  0  0  0  0
  188.5990  174.2060  140.7380 C   0  0  2  0  0  3  0  0  0  0  0  0
  189.8190  171.8240  139.9290 C   0  0  0  0  0  3  0  0  0  0  0  0
  190.5450  172.5370  141.0470 C   0  0  1  0  0  3  0  0  0  0  0  0
  189.8880  173.8560  141.4890 C   0  0  2  0  0  3  0  0  0  0  0  0
  188.7410  173.8500  139.2660 C   0  0  0  0  0  2  0  0  0  0  0  0
  189.6690  172.5850  142.2840 C   0  0  2  0  0  3  0  0  0  0  0  0
  190.5580  172.6090  143.5140 C   0  0  0  0  0  2  0  0  0  0  0  0
  191.5610  173.7580  143.4390 C   0  0  2  0  0  3  0  0  0  0  0  0
  192.9830  173.1990  143.2550 C   0  0  2  0  0  3  0  0  0  0  0  0
  193.8290  173.2860  144.5170 C   0  0  2  0  0  3  0  0  0  0  0  0
  195.2490  173.6680  142.5500 C   0  0  0  0  0  2  0  0  0  0  0  0
  193.7980  173.9160  142.1770 C   0  0  2  0  0  3  0  0  0  0  0  0
  195.2720  173.3510  144.0380 C   0  0  1  0  0  3  0  0  0  0  0  0
  193.6460  172.1450  145.3030 O   0  0  0  0  0  0  0  0  0  0  0  0
  194.1680  171.0970  144.5440 C   0  0  0  0  0  1  0  0  0  0  0  0
  193.5540  175.2960  142.1970 O   0  0  0  0  0  0  0  0  0  0  0  0
  194.3990  175.8250  141.2210 C   0  0  0  0  0  1  0  0  0  0  0  0
  196.0940  174.3630  144.8370 C   0  0  0  0  0  2  0  0  0  0  0  0
  193.9660  176.6750  146.6110 N   0  0  0  0  0  0  0  0  0  0  0  0
  195.0970  176.6070  144.6890 N   0  0  0  0  0  0  0  0  0  0  0  0
  195.2800  175.4660  145.3260 N   0  0  0  0  0  0  0  0  0  0  0  0
  194.6030  175.4960  146.4830 C   0  0  0  0  0  3  0  0  0  0  0  0
  194.2930  177.3440  145.4810 C   0  0  0  0  0  3  0  0  0  0  0  0
  190.3690  174.6020  145.4240 C   0  0  0  0  0  2  0  0  0  0  0  0
  191.4800  174.5790  144.6920 C   0  0  0  0  0  3  0  0  0  0  0  0
  188.3220  175.6330  140.8790 N   0  0  0  0  0  2  0  0  0  0  0  0
  189.1310  177.6370  144.0030 C   0  0  0  0  0  0  0  0  0  0  0  0
  187.8990  177.5400  144.6580 O   0  0  0  0  0  0  0  0  0  0  0  0
  189.3110  177.1030  142.6140 C   0  0  0  0  0  2  0  0  0  0  0  0
  190.0760  178.2620  144.5500 O   0  0  0  0  0  0  0  0  0  0  0  0
  186.8760  176.6280  144.2470 C   0  0  2  0  0  3  0  0  0  0  0  0
  186.8760  176.4170  142.7370 C   0  0  0  0  0  2  0  0  0  0  0  0
  188.2820  176.0170  142.2930 C   0  0  1  0  0  3  0  0  0  0  0  0
  184.9360  178.8560  146.1270 C   0  0  0  0  0  3  0  0  0  0  0  0
  185.5170  179.4520  143.7890 C   0  0  0  0  0  2  0  0  0  0  0  0
  185.5300  177.6750  146.0970 C   0  0  0  0  0  0  0  0  0  0  0  0
  184.7950  178.1110  143.8480 C   0  0  1  0  0  3  0  0  0  0  0  0
  185.4900  177.0650  144.7420 C   0  0  1  0  0  3  0  0  0  0  0  0
  184.3950  179.2480  144.7890 C   0  0  1  0  0  3  0  0  0  0  0  0
  186.1000  177.0080  147.3070 C   0  0  0  0  0  2  0  0  0  0  0  0
  186.2190  177.9310  148.3460 O   0  0  0  0  0  1  0  0  0  0  0  0
  1  6  1  0  0  0  0
  1  3  2  0  0  0  0
  2 27  1  6  0  0  0
  2  5  1  0  0  0  0
  4  3  1  6  0  0  0
  4  5  1  0  0  0  0
  4  7  1  0  0  0  0
  5  7  1  0  0  0  0
  6  2  1  0  0  0  0
  7  8  1  0  0  0  0
  9  8  1  0  0  0  0
  9 26  1  0  0  0  0
 10  9  1  0  0  0  0
 10 11  1  0  0  0  0
 11 15  1  0  0  0  0
 12 14  1  0  0  0  0
 13 17  1  0  0  0  0
 13 12  1  0  0  0  0
 13 10  1  0  0  0  0
 14 11  1  0  0  0  0
 14 19  1  0  0  0  0
 16 15  1  0  0  0  0
 18 17  1  0  0  0  0
 19 22  1  0  0  0  0
 21 22  1  0  0  0  0
 21 24  2  0  0  0  0
 22 23  1  0  0  0  0
 23 20  2  0  0  0  0
 24 20  1  0  0  0  0
 26 25  2  0  0  0  0
 27 34  1  0  0  0  0
 28 31  2  0  0  0  0
 28 29  1  0  0  0  0
 30 28  1  0  0  0  0
 32 29  1  0  0  0  0
 32 39  1  0  0  0  0
 33 32  1  0  0  0  0
 34 30  1  0  0  0  0
 34 33  1  0  0  0  0
 36 38  1  0  0  0  0
 36 40  1  0  0  0  0
 37 35  2  0  0  0  0
 37 41  1  0  0  0  0
 38 39  1  0  0  0  0
 38 40  1  0  0  0  0
 39 37  1  0  0  0  0
 40 35  1  0  0  0  0
 41 42  1  0  0  0  0
M  END
>  <MODEL>
4

>  <REMARK>
 VINA RESULT:      -7.4      2.082      3.267
  Name = 
  12 active torsions:
  status: ('A' for Active; 'I' for Inactive)
    1  A    between atoms: C_1  and  C_8
    2  A    between atoms: C_5  and  N_26
    3  A    between atoms: C_5  and  C_30
    4  A    between atoms: C_7  and  N_24
    5  A    between atoms: C_8  and  C_17
    6  A    between atoms: C_8  and  C_33
    7  A    between atoms: C_10  and  O_19
    8  A    between atoms: C_13  and  C_16
    9  A    between atoms: C_17  and  C_40
   10  A    between atoms: C_18  and  C_29
   11  A    between atoms: C_22  and  O_31
   12  A    between atoms: N_24  and  C_42
                            x       y       z     vdW  Elec       q    Type
                         _______ _______ _______ _____ _____    ______ ____

>  <TORSDO>
F 12

$$$$
=
 OpenBabel11062419393D

 42 48  0  0  1  0  0  0  0  0999 V2000
  188.3520  172.2910  142.5630 N   0  0  0  0  0  0  0  0  0  0  0  0
  188.6680  174.6040  141.9270 C   0  0  2  0  0  3  0  0  0  0  0  0
  189.6080  172.1200  142.8000 C   0  0  0  0  0  3  0  0  0  0  0  0
  190.6720  172.9970  142.1790 C   0  0  1  0  0  3  0  0  0  0  0  0
  190.1590  174.3600  141.6840 C   0  0  2  0  0  3  0  0  0  0  0  0
  187.8830  173.3260  141.6720 C   0  0  0  0  0  2  0  0  0  0  0  0
  190.8680  174.2460  143.0180 C   0  0  2  0  0  3  0  0  0  0  0  0
  192.3010  174.7210  142.8630 C   0  0  0  0  0  2  0  0  0  0  0  0
  192.4080  176.2220  143.1210 C   0  0  2  0  0  3  0  0  0  0  0  0
  193.5990  176.5090  144.0510 C   0  0  2  0  0  3  0  0  0  0  0  0
  194.7100  175.4760  143.9380 C   0  0  2  0  0  3  0  0  0  0  0  0
  194.5280  176.2300  146.2670 C   0  0  0  0  0  2  0  0  0  0  0  0
  193.2330  176.5410  145.5370 C   0  0  2  0  0  3  0  0  0  0  0  0
  195.4210  175.4910  145.2820 C   0  0  1  0  0  3  0  0  0  0  0  0
  195.6070  175.8370  142.9290 O   0  0  0  0  0  0  0  0  0  0  0  0
  196.4420  176.7910  143.5130 C   0  0  0  0  0  1  0  0  0  0  0  0
  192.2900  175.5510  145.8440 O   0  0  0  0  0  0  0  0  0  0  0  0
  192.2070  175.5540  147.2370 C   0  0  0  0  0  1  0  0  0  0  0  0
  195.7720  174.0810  145.7600 C   0  0  0  0  0  2  0  0  0  0  0  0
  194.3190  171.5520  143.6340 N   0  0  0  0  0  0  0  0  0  0  0  0
  193.8140  172.6090  145.5330 N   0  0  0  0  0  0  0  0  0  0  0  0
  194.9720  173.0620  145.0940 N   0  0  0  0  0  0  0  0  0  0  0  0
  195.2860  172.4340  143.9510 C   0  0  0  0  0  3  0  0  0  0  0  0
  193.4190  171.6840  144.6360 C   0  0  0  0  0  3  0  0  0  0  0  0
  190.6000  177.8820  143.3610 C   0  0  0  0  0  2  0  0  0  0  0  0
  191.1320  176.7190  143.7340 C   0  0  0  0  0  3  0  0  0  0  0  0
  188.1930  175.6630  141.0400 N   0  0  0  0  0  2  0  0  0  0  0  0
  185.3340  178.0090  141.9070 C   0  0  0  0  0  0  0  0  0  0  0  0
  185.4120  177.9540  143.3030 O   0  0  0  0  0  0  0  0  0  0  0  0
  186.1930  177.1290  141.0500 C   0  0  0  0  0  2  0  0  0  0  0  0
  184.4650  178.7390  141.3640 O   0  0  0  0  0  0  0  0  0  0  0  0
  186.5280  177.3800  143.9900 C   0  0  2  0  0  3  0  0  0  0  0  0
  187.1360  176.2160  143.2160 C   0  0  0  0  0  2  0  0  0  0  0  0
  187.4520  176.6780  141.7950 C   0  0  1  0  0  3  0  0  0  0  0  0
  186.6130  178.0590  147.4240 C   0  0  0  0  0  3  0  0  0  0  0  0
  184.7910  179.0390  146.0550 C   0  0  0  0  0  2  0  0  0  0  0  0
  187.1660  177.3940  146.4240 C   0  0  0  0  0  0  0  0  0  0  0  0
  184.8160  177.5210  145.9240 C   0  0  1  0  0  3  0  0  0  0  0  0
  186.1600  176.9590  145.4200 C   0  0  1  0  0  3  0  0  0  0  0  0
  185.1310  178.1890  147.2630 C   0  0  1  0  0  3  0  0  0  0  0  0
  188.6210  177.0590  146.3620 C   0  0  0  0  0  2  0  0  0  0  0  0
  188.7860  175.6760  146.2770 O   0  0  0  0  0  1  0  0  0  0  0  0
  1  3  2  0  0  0  0
  2 27  1  6  0  0  0
  4  3  1  1  0  0  0
  4  7  1  0  0  0  0
  5  2  1  0  0  0  0
  5  4  1  0  0  0  0
  5  7  1  0  0  0  0
  6  2  1  0  0  0  0
  6  1  1  0  0  0  0
  8  7  1  0  0  0  0
  8  9  1  0  0  0  0
  9 26  1  0  0  0  0
  9 10  1  0  0  0  0
 10 13  1  0  0  0  0
 11 10  1  0  0  0  0
 11 14  1  0  0  0  0
 13 17  1  0  0  0  0
 13 12  1  0  0  0  0
 14 19  1  0  0  0  0
 14 12  1  0  0  0  0
 15 16  1  0  0  0  0
 15 11  1  0  0  0  0
 17 18  1  0  0  0  0
 20 23  2  0  0  0  0
 20 24  1  0  0  0  0
 22 21  1  0  0  0  0
 22 19  1  0  0  0  0
 23 22  1  0  0  0  0
 24 21  2  0  0  0  0
 25 26  2  0  0  0  0
 27 34  1  0  0  0  0
 28 29  1  0  0  0  0
 29 32  1  0  0  0  0
 30 34  1  0  0  0  0
 30 28  1  0  0  0  0
 31 28  2  0  0  0  0
 32 39  1  0  0  0  0
 33 32  1  0  0  0  0
 34 33  1  0  0  0  0
 36 40  1  0  0  0  0
 37 35  2  0  0  0  0
 38 36  1  0  0  0  0
 38 40  1  0  0  0  0
 39 38  1  0  0  0  0
 39 37  1  0  0  0  0
 40 35  1  0  0  0  0
 41 37  1  0  0  0  0
 42 41  1  0  0  0  0
M  END
>  <MODEL>
5

>  <REMARK>
 VINA RESULT:      -7.4      1.833      2.491
  Name = 
  12 active torsions:
  status: ('A' for Active; 'I' for Inactive)
    1  A    between atoms: C_1  and  C_8
    2  A    between atoms: C_5  and  N_26
    3  A    between atoms: C_5  and  C_30
    4  A    between atoms: C_7  and  N_24
    5  A    between atoms: C_8  and  C_17
    6  A    between atoms: C_8  and  C_33
    7  A    between atoms: C_10  and  O_19
    8  A    between atoms: C_13  and  C_16
    9  A    between atoms: C_17  and  C_40
   10  A    between atoms: C_18  and  C_29
   11  A    between atoms: C_22  and  O_31
   12  A    between atoms: N_24  and  C_42
                            x       y       z     vdW  Elec       q    Type
                         _______ _______ _______ _____ _____    ______ ____

>  <TORSDO>
F 12

$$$$
=
 OpenBabel11062419393D

 42 48  0  0  1  0  0  0  0  0999 V2000
  188.7180  172.3940  142.5080 N   0  0  0  0  0  0  0  0  0  0  0  0
  188.5590  174.7820  142.1480 C   0  0  2  0  0  3  0  0  0  0  0  0
  189.8950  172.4880  143.0260 C   0  0  0  0  0  3  0  0  0  0  0  0
  190.8060  173.6620  142.7490 C   0  0  1  0  0  3  0  0  0  0  0  0
  190.0800  174.9240  142.2520 C   0  0  2  0  0  3  0  0  0  0  0  0
  188.2010  173.4030  141.6130 C   0  0  0  0  0  2  0  0  0  0  0  0
  190.4920  174.7980  143.7050 C   0  0  2  0  0  3  0  0  0  0  0  0
  191.7540  175.6080  143.9360 C   0  0  0  0  0  2  0  0  0  0  0  0
  192.9920  174.8210  143.5120 C   0  0  2  0  0  3  0  0  0  0  0  0
  193.8370  174.4680  144.7480 C   0  0  2  0  0  3  0  0  0  0  0  0
  195.1870  175.1700  144.7720 C   0  0  2  0  0  3  0  0  0  0  0  0
  195.4170  172.9190  145.7250 C   0  0  0  0  0  2  0  0  0  0  0  0
  194.1590  172.9780  144.8760 C   0  0  2  0  0  3  0  0  0  0  0  0
  196.1000  174.2720  145.5920 C   0  0  1  0  0  3  0  0  0  0  0  0
  195.0750  176.4170  145.3920 O   0  0  0  0  0  0  0  0  0  0  0  0
  194.3360  176.1770  146.5520 C   0  0  0  0  0  1  0  0  0  0  0  0
  194.4290  172.4130  143.6230 O   0  0  0  0  0  0  0  0  0  0  0  0
  194.9300  171.1410  143.9040 C   0  0  0  0  0  1  0  0  0  0  0  0
  197.4960  174.1610  144.9760 C   0  0  0  0  0  2  0  0  0  0  0  0
  197.4070  174.3730  141.3740 N   0  0  0  0  0  0  0  0  0  0  0  0
  197.6640  175.7520  143.1080 N   0  0  0  0  0  0  0  0  0  0  0  0
  197.5040  174.5260  143.5670 N   0  0  0  0  0  0  0  0  0  0  0  0
  197.3500  173.6870  142.5320 C   0  0  0  0  0  3  0  0  0  0  0  0
  197.6020  175.6530  141.7660 C   0  0  0  0  0  3  0  0  0  0  0  0
  193.8740  175.2920  141.2580 C   0  0  0  0  0  2  0  0  0  0  0  0
  193.7980  175.6350  142.5420 C   0  0  0  0  0  3  0  0  0  0  0  0
  188.0300  175.8120  141.2570 N   0  0  0  0  0  2  0  0  0  0  0  0
  185.0370  177.9900  142.1050 C   0  0  0  0  0  0  0  0  0  0  0  0
  185.1100  177.9410  143.5010 O   0  0  0  0  0  0  0  0  0  0  0  0
  185.9500  177.1610  141.2540 C   0  0  0  0  0  2  0  0  0  0  0  0
  184.1310  178.6700  141.5560 O   0  0  0  0  0  0  0  0  0  0  0  0
  186.2520  177.4320  144.1960 C   0  0  2  0  0  3  0  0  0  0  0  0
  186.9310  176.3040  143.4260 C   0  0  0  0  0  2  0  0  0  0  0  0
  187.2280  176.7830  142.0070 C   0  0  1  0  0  3  0  0  0  0  0  0
  186.3480  178.0800  147.6350 C   0  0  0  0  0  3  0  0  0  0  0  0
  184.5020  179.0420  146.2870 C   0  0  0  0  0  2  0  0  0  0  0  0
  186.9060  177.4340  146.6250 C   0  0  0  0  0  0  0  0  0  0  0  0
  184.5510  177.5250  146.1410 C   0  0  1  0  0  3  0  0  0  0  0  0
  185.9010  176.9910  145.6230 C   0  0  1  0  0  3  0  0  0  0  0  0
  184.8630  178.1860  147.4850 C   0  0  1  0  0  3  0  0  0  0  0  0
  188.3660  177.1230  146.5510 C   0  0  0  0  0  2  0  0  0  0  0  0
  188.5550  175.7420  146.4930 O   0  0  0  0  0  1  0  0  0  0  0  0
  1  3  2  0  0  0  0
  2 27  1  6  0  0  0
  2  5  1  0  0  0  0
  4  3  1  1  0  0  0
  4  7  1  0  0  0  0
  5  4  1  0  0  0  0
  5  7  1  0  0  0  0
  6  2  1  0  0  0  0
  6  1  1  0  0  0  0
  7  8  1  0  0  0  0
  9  8  1  0  0  0  0
  9 10  1  0  0  0  0
 10 11  1  0  0  0  0
 10 13  1  0  0  0  0
 11 15  1  0  0  0  0
 11 14  1  0  0  0  0
 13 12  1  0  0  0  0
 14 12  1  0  0  0  0
 15 16  1  0  0  0  0
 17 18  1  0  0  0  0
 17 13  1  0  0  0  0
 19 14  1  0  0  0  0
 20 24  1  0  0  0  0
 20 23  2  0  0  0  0
 21 22  1  0  0  0  0
 22 19  1  0  0  0  0
 23 22  1  0  0  0  0
 24 21  2  0  0  0  0
 25 26  2  0  0  0  0
 26  9  1  0  0  0  0
 27 34  1  0  0  0  0
 28 29  1  0  0  0  0
 29 32  1  0  0  0  0
 30 34  1  0  0  0  0
 30 28  1  0  0  0  0
 31 28  2  0  0  0  0
 32 39  1  0  0  0  0
 33 32  1  0  0  0  0
 34 33  1  0  0  0  0
 36 40  1  0  0  0  0
 37 35  2  0  0  0  0
 38 36  1  0  0  0  0
 38 40  1  0  0  0  0
 39 38  1  0  0  0  0
 39 37  1  0  0  0  0
 40 35  1  0  0  0  0
 41 37  1  0  0  0  0
 42 41  1  0  0  0  0
M  END
>  <MODEL>
6

>  <REMARK>
 VINA RESULT:      -7.3      1.259      1.757
  Name = 
  12 active torsions:
  status: ('A' for Active; 'I' for Inactive)
    1  A    between atoms: C_1  and  C_8
    2  A    between atoms: C_5  and  N_26
    3  A    between atoms: C_5  and  C_30
    4  A    between atoms: C_7  and  N_24
    5  A    between atoms: C_8  and  C_17
    6  A    between atoms: C_8  and  C_33
    7  A    between atoms: C_10  and  O_19
    8  A    between atoms: C_13  and  C_16
    9  A    between atoms: C_17  and  C_40
   10  A    between atoms: C_18  and  C_29
   11  A    between atoms: C_22  and  O_31
   12  A    between atoms: N_24  and  C_42
                            x       y       z     vdW  Elec       q    Type
                         _______ _______ _______ _____ _____    ______ ____

>  <TORSDO>
F 12

$$$$
=
 OpenBabel11062419393D

 42 48  0  0  1  0  0  0  0  0999 V2000
  194.0990  176.8060  146.8640 N   0  0  0  0  0  0  0  0  0  0  0  0
  192.0620  176.1110  145.7580 C   0  0  2  0  0  3  0  0  0  0  0  0
  194.8410  176.1240  146.0600 C   0  0  0  0  0  3  0  0  0  0  0  0
  194.3130  174.9380  145.2840 C   0  0  1  0  0  3  0  0  0  0  0  0
  192.7830  174.9170  145.1250 C   0  0  2  0  0  3  0  0  0  0  0  0
  192.7120  176.4670  147.0860 C   0  0  0  0  0  2  0  0  0  0  0  0
  193.6650  175.4110  143.9960 C   0  0  2  0  0  3  0  0  0  0  0  0
  193.7950  174.3180  142.9520 C   0  0  0  0  0  2  0  0  0  0  0  0
  192.5920  174.3160  142.0120 C   0  0  2  0  0  3  0  0  0  0  0  0
  191.7690  173.0330  142.2180 C   0  0  2  0  0  3  0  0  0  0  0  0
  192.0240  171.9800  141.1490 C   0  0  2  0  0  3  0  0  0  0  0  0
  189.6630  171.9120  141.8190 C   0  0  0  0  0  2  0  0  0  0  0  0
  190.2560  173.2560  142.2060 C   0  0  2  0  0  3  0  0  0  0  0  0
  190.7530  171.1460  141.0850 C   0  0  1  0  0  3  0  0  0  0  0  0
  193.1010  171.1680  141.5150 O   0  0  0  0  0  0  0  0  0  0  0  0
  193.8280  170.9830  140.3380 C   0  0  0  0  0  1  0  0  0  0  0  0
  189.8950  174.2060  141.2420 O   0  0  0  0  0  0  0  0  0  0  0  0
  188.5630  174.5130  141.5200 C   0  0  0  0  0  1  0  0  0  0  0  0
  190.3610  170.8110  139.6460 C   0  0  0  0  0  2  0  0  0  0  0  0
  189.8170  173.8300  137.7450 N   0  0  0  0  0  0  0  0  0  0  0  0
  188.5900  172.2850  138.7860 N   0  0  0  0  0  0  0  0  0  0  0  0
  189.8640  171.9760  138.9280 N   0  0  0  0  0  0  0  0  0  0  0  0
  190.6120  172.8990  138.3060 C   0  0  0  0  0  3  0  0  0  0  0  0
  188.5660  173.4200  138.0600 C   0  0  0  0  0  3  0  0  0  0  0  0
  194.2390  174.9660  140.2960 C   0  0  0  0  0  2  0  0  0  0  0  0
  193.0640  174.4130  140.5910 C   0  0  0  0  0  3  0  0  0  0  0  0
  190.6550  175.7790  145.9670 N   0  0  0  0  0  2  0  0  0  0  0  0
  189.1100  177.7720  143.1270 C   0  0  0  0  0  0  0  0  0  0  0  0
  187.8140  177.9180  143.6330 O   0  0  0  0  0  0  0  0  0  0  0  0
  190.1230  176.9220  143.8330 C   0  0  0  0  0  2  0  0  0  0  0  0
  189.4030  178.2870  142.0170 O   0  0  0  0  0  0  0  0  0  0  0  0
  187.4760  177.6120  144.9890 C   0  0  2  0  0  3  0  0  0  0  0  0
  188.3080  176.4570  145.5360 C   0  0  0  0  0  2  0  0  0  0  0  0
  189.7870  176.7650  145.3180 C   0  0  1  0  0  3  0  0  0  0  0  0
  184.3560  178.6660  146.1780 C   0  0  0  0  0  3  0  0  0  0  0  0
  185.1030  179.4260  143.9380 C   0  0  0  0  0  2  0  0  0  0  0  0
  185.4200  177.9150  146.4070 C   0  0  0  0  0  0  0  0  0  0  0  0
  185.0950  177.9040  144.0230 C   0  0  1  0  0  3  0  0  0  0  0  0
  185.9750  177.3380  145.1550 C   0  0  1  0  0  3  0  0  0  0  0  0
  184.0120  178.7260  144.7230 C   0  0  1  0  0  3  0  0  0  0  0  0
  185.9450  177.6250  147.7760 C   0  0  0  0  0  2  0  0  0  0  0  0
  186.7780  178.6630  148.1950 O   0  0  0  0  0  1  0  0  0  0  0  0
  1  6  1  0  0  0  0
  2 27  1  1  0  0  0
  2  6  1  0  0  0  0
  3  1  2  0  0  0  0
  4  3  1  1  0  0  0
  5  4  1  0  0  0  0
  5  2  1  0  0  0  0
  7  5  1  0  0  0  0
  7  4  1  0  0  0  0
  8  7  1  0  0  0  0
  9 10  1  0  0  0  0
  9  8  1  0  0  0  0
 11 15  1  0  0  0  0
 11 10  1  0  0  0  0
 12 13  1  0  0  0  0
 13 10  1  0  0  0  0
 14 11  1  0  0  0  0
 14 12  1  0  0  0  0
 16 15  1  0  0  0  0
 17 18  1  0  0  0  0
 17 13  1  0  0  0  0
 19 14  1  0  0  0  0
 20 24  1  0  0  0  0
 20 23  2  0  0  0  0
 21 22  1  0  0  0  0
 22 19  1  0  0  0  0
 23 22  1  0  0  0  0
 24 21  2  0  0  0  0
 25 26  2  0  0  0  0
 26  9  1  0  0  0  0
 28 29  1  0  0  0  0
 28 30  1  0  0  0  0
 29 32  1  0  0  0  0
 30 34  1  0  0  0  0
 31 28  2  0  0  0  0
 32 39  1  0  0  0  0
 32 33  1  0  0  0  0
 34 33  1  0  0  0  0
 34 27  1  0  0  0  0
 35 37  2  0  0  0  0
 36 38  1  0  0  0  0
 36 40  1  0  0  0  0
 37 41  1  0  0  0  0
 38 40  1  0  0  0  0
 38 39  1  0  0  0  0
 39 37  1  0  0  0  0
 40 35  1  0  0  0  0
 41 42  1  0  0  0  0
M  END
>  <MODEL>
7

>  <REMARK>
 VINA RESULT:      -7.0      2.648      5.302
  Name = 
  12 active torsions:
  status: ('A' for Active; 'I' for Inactive)
    1  A    between atoms: C_1  and  C_8
    2  A    between atoms: C_5  and  N_26
    3  A    between atoms: C_5  and  C_30
    4  A    between atoms: C_7  and  N_24
    5  A    between atoms: C_8  and  C_17
    6  A    between atoms: C_8  and  C_33
    7  A    between atoms: C_10  and  O_19
    8  A    between atoms: C_13  and  C_16
    9  A    between atoms: C_17  and  C_40
   10  A    between atoms: C_18  and  C_29
   11  A    between atoms: C_22  and  O_31
   12  A    between atoms: N_24  and  C_42
                            x       y       z     vdW  Elec       q    Type
                         _______ _______ _______ _____ _____    ______ ____

>  <TORSDO>
F 12

$$$$
=
 OpenBabel11062419393D

 42 48  0  0  1  0  0  0  0  0999 V2000
  194.6870  176.4080  146.0800 N   0  0  0  0  0  0  0  0  0  0  0  0
  192.3600  175.7430  146.0420 C   0  0  2  0  0  3  0  0  0  0  0  0
  195.0910  175.2400  145.7150 C   0  0  0  0  0  3  0  0  0  0  0  0
  194.2580  173.9960  145.9240 C   0  0  1  0  0  3  0  0  0  0  0  0
  192.7550  174.2660  146.1190 C   0  0  2  0  0  3  0  0  0  0  0  0
  193.4120  176.6000  146.7310 C   0  0  0  0  0  2  0  0  0  0  0  0
  193.2880  173.8220  144.7710 C   0  0  2  0  0  3  0  0  0  0  0  0
  193.0050  172.3430  144.5860 C   0  0  0  0  0  2  0  0  0  0  0  0
  192.4530  172.0640  143.1900 C   0  0  2  0  0  3  0  0  0  0  0  0
  191.2760  173.0100  142.8950 C   0  0  2  0  0  3  0  0  0  0  0  0
  189.9520  172.2810  142.7160 C   0  0  2  0  0  3  0  0  0  0  0  0
  190.0390  174.2060  141.1950 C   0  0  0  0  0  2  0  0  0  0  0  0
  191.4500  173.8410  141.6220 C   0  0  2  0  0  3  0  0  0  0  0  0
  189.1100  173.1760  141.8190 C   0  0  1  0  0  3  0  0  0  0  0  0
  189.3160  172.1190  143.9490 O   0  0  0  0  0  0  0  0  0  0  0  0
  189.5320  173.3220  144.6260 C   0  0  0  0  0  1  0  0  0  0  0  0
  192.0500  173.0840  140.6070 O   0  0  0  0  0  0  0  0  0  0  0  0
  192.3670  174.0080  139.6100 C   0  0  0  0  0  1  0  0  0  0  0  0
  188.3410  172.3740  140.7690 C   0  0  0  0  0  2  0  0  0  0  0  0
  189.3930  172.8970  137.3570 N   0  0  0  0  0  0  0  0  0  0  0  0
  188.1900  173.9660  138.9010 N   0  0  0  0  0  0  0  0  0  0  0  0
  188.6210  172.8320  139.4160 N   0  0  0  0  0  0  0  0  0  0  0  0
  189.3480  172.1800  138.4960 C   0  0  0  0  0  3  0  0  0  0  0  0
  188.6630  174.0010  137.6400 C   0  0  0  0  0  3  0  0  0  0  0  0
  192.8360  169.6880  142.6570 C   0  0  0  0  0  2  0  0  0  0  0  0
  192.0100  170.6330  143.1010 C   0  0  0  0  0  3  0  0  0  0  0  0
  191.0630  175.9380  146.6830 N   0  0  0  0  0  2  0  0  0  0  0  0
  189.6320  177.5340  143.5480 C   0  0  0  0  0  0  0  0  0  0  0  0
  188.3080  177.7080  143.9670 O   0  0  0  0  0  0  0  0  0  0  0  0
  190.6220  176.8010  144.4010 C   0  0  0  0  0  2  0  0  0  0  0  0
  189.9730  177.9190  142.4000 O   0  0  0  0  0  0  0  0  0  0  0  0
  187.9060  177.5600  145.3320 C   0  0  2  0  0  3  0  0  0  0  0  0
  188.7290  176.5000  146.0560 C   0  0  0  0  0  2  0  0  0  0  0  0
  190.2120  176.8170  145.8760 C   0  0  1  0  0  3  0  0  0  0  0  0
  184.7060  178.6770  146.2110 C   0  0  0  0  0  3  0  0  0  0  0  0
  185.5590  179.1590  143.9320 C   0  0  0  0  0  2  0  0  0  0  0  0
  185.7700  177.9900  146.5910 C   0  0  0  0  0  0  0  0  0  0  0  0
  185.5760  177.6610  144.2150 C   0  0  1  0  0  3  0  0  0  0  0  0
  186.4040  177.2700  145.4550 C   0  0  1  0  0  3  0  0  0  0  0  0
  184.4400  178.5380  144.7450 C   0  0  1  0  0  3  0  0  0  0  0  0
  186.2260  177.8940  148.0110 C   0  0  0  0  0  2  0  0  0  0  0  0
  186.9220  179.0500  148.3650 O   0  0  0  0  0  1  0  0  0  0  0  0
  1  6  1  0  0  0  0
  2  5  1  0  0  0  0
  2 27  1  1  0  0  0
  2  6  1  0  0  0  0
  3  1  2  0  0  0  0
  4  3  1  6  0  0  0
  4  5  1  0  0  0  0
  7  4  1  0  0  0  0
  7  5  1  0  0  0  0
  8  7  1  0  0  0  0
  9  8  1  0  0  0  0
 10  9  1  0  0  0  0
 11 10  1  0  0  0  0
 11 15  1  0  0  0  0
 12 13  1  0  0  0  0
 12 14  1  0  0  0  0
 13 10  1  0  0  0  0
 14 11  1  0  0  0  0
 15 16  1  0  0  0  0
 17 13  1  0  0  0  0
 18 17  1  0  0  0  0
 19 14  1  0  0  0  0
 20 24  1  0  0  0  0
 20 23  2  0  0  0  0
 21 22  1  0  0  0  0
 22 19  1  0  0  0  0
 23 22  1  0  0  0  0
 24 21  2  0  0  0  0
 25 26  2  0  0  0  0
 26  9  1  0  0  0  0
 28 29  1  0  0  0  0
 28 30  1  0  0  0  0
 29 32  1  0  0  0  0
 30 34  1  0  0  0  0
 31 28  2  0  0  0  0
 32 39  1  0  0  0  0
 32 33  1  0  0  0  0
 34 33  1  0  0  0  0
 34 27  1  0  0  0  0
 35 37  2  0  0  0  0
 36 38  1  0  0  0  0
 36 40  1  0  0  0  0
 37 41  1  0  0  0  0
 38 40  1  0  0  0  0
 38 39  1  0  0  0  0
 39 37  1  0  0  0  0
 40 35  1  0  0  0  0
 41 42  1  0  0  0  0
M  END
>  <MODEL>
8

>  <REMARK>
 VINA RESULT:      -7.0      2.608      5.398
  Name = 
  12 active torsions:
  status: ('A' for Active; 'I' for Inactive)
    1  A    between atoms: C_1  and  C_8
    2  A    between atoms: C_5  and  N_26
    3  A    between atoms: C_5  and  C_30
    4  A    between atoms: C_7  and  N_24
    5  A    between atoms: C_8  and  C_17
    6  A    between atoms: C_8  and  C_33
    7  A    between atoms: C_10  and  O_19
    8  A    between atoms: C_13  and  C_16
    9  A    between atoms: C_17  and  C_40
   10  A    between atoms: C_18  and  C_29
   11  A    between atoms: C_22  and  O_31
   12  A    between atoms: N_24  and  C_42
                            x       y       z     vdW  Elec       q    Type
                         _______ _______ _______ _____ _____    ______ ____

>  <TORSDO>
F 12

$$$$
=
 OpenBabel11062419393D

 42 48  0  0  1  0  0  0  0  0999 V2000
  188.3720  172.9750  140.5030 N   0  0  0  0  0  0  0  0  0  0  0  0
  189.1590  174.7860  141.9020 C   0  0  2  0  0  3  0  0  0  0  0  0
  189.0080  172.0870  141.1880 C   0  0  0  0  0  3  0  0  0  0  0  0
  190.2110  172.4320  142.0360 C   0  0  1  0  0  3  0  0  0  0  0  0
  190.3090  173.9190  142.4220 C   0  0  2  0  0  3  0  0  0  0  0  0
  188.7820  174.3600  140.4920 C   0  0  0  0  0  2  0  0  0  0  0  0
  189.7610  172.9050  143.4060 C   0  0  2  0  0  3  0  0  0  0  0  0
  190.8370  172.5640  144.4200 C   0  0  0  0  0  2  0  0  0  0  0  0
  192.0400  173.4910  144.2700 C   0  0  2  0  0  3  0  0  0  0  0  0
  193.2920  172.6700  143.9150 C   0  0  2  0  0  3  0  0  0  0  0  0
  194.3870  172.7620  144.9670 C   0  0  2  0  0  3  0  0  0  0  0  0
  195.4030  172.6360  142.7350 C   0  0  0  0  0  2  0  0  0  0  0  0
  193.9600  173.0910  142.6040 C   0  0  2  0  0  3  0  0  0  0  0  0
  195.6900  172.5080  144.2240 C   0  0  1  0  0  3  0  0  0  0  0  0
  194.2050  171.7790  145.9440 O   0  0  0  0  0  0  0  0  0  0  0  0
  194.2430  170.5690  145.2490 C   0  0  0  0  0  1  0  0  0  0  0  0
  193.9340  174.4830  142.4520 O   0  0  0  0  0  0  0  0  0  0  0  0
  194.2730  174.7040  141.1160 C   0  0  0  0  0  1  0  0  0  0  0  0
  196.8040  173.4500  144.6850 C   0  0  0  0  0  2  0  0  0  0  0  0
  195.6870  176.8640  144.3410 N   0  0  0  0  0  0  0  0  0  0  0  0
  197.1150  175.4800  143.3310 N   0  0  0  0  0  0  0  0  0  0  0  0
  196.5350  174.8350  144.3250 N   0  0  0  0  0  0  0  0  0  0  0  0
  195.6730  175.6580  144.9390 C   0  0  0  0  0  3  0  0  0  0  0  0
  196.5930  176.7220  143.3460 C   0  0  0  0  0  3  0  0  0  0  0  0
  191.7920  175.4860  145.6970 C   0  0  0  0  0  2  0  0  0  0  0  0
  192.2560  174.2470  145.5480 C   0  0  0  0  0  3  0  0  0  0  0  0
  189.5630  176.1900  141.9060 N   0  0  0  0  0  2  0  0  0  0  0  0
  186.2160  177.9840  141.8670 C   0  0  0  0  0  0  0  0  0  0  0  0
  185.9030  177.9080  143.2280 O   0  0  0  0  0  0  0  0  0  0  0  0
  187.4220  177.2880  141.3110 C   0  0  0  0  0  2  0  0  0  0  0  0
  185.4260  178.5690  141.0820 O   0  0  0  0  0  0  0  0  0  0  0  0
  186.8590  177.5160  144.2180 C   0  0  2  0  0  3  0  0  0  0  0  0
  187.8530  176.4950  143.6770 C   0  0  0  0  0  2  0  0  0  0  0  0
  188.4750  177.0410  142.3940 C   0  0  1  0  0  3  0  0  0  0  0  0
  186.2850  177.8700  147.6540 C   0  0  0  0  0  3  0  0  0  0  0  0
  184.8540  179.1270  146.0660 C   0  0  0  0  0  2  0  0  0  0  0  0
  186.9850  177.2530  146.7170 C   0  0  0  0  0  0  0  0  0  0  0  0
  184.8010  177.6300  145.7810 C   0  0  1  0  0  3  0  0  0  0  0  0
  186.1790  177.0010  145.4940 C   0  0  1  0  0  3  0  0  0  0  0  0
  184.8800  178.1440  147.2190 C   0  0  1  0  0  3  0  0  0  0  0  0
  188.3960  176.7970  146.9070 C   0  0  0  0  0  2  0  0  0  0  0  0
  188.4320  175.4090  147.0400 O   0  0  0  0  0  1  0  0  0  0  0  0
  1  3  2  0  0  0  0
  2 27  1  6  0  0  0
  2  5  1  0  0  0  0
  4  3  1  6  0  0  0
  4  5  1  0  0  0  0
  4  7  1  0  0  0  0
  5  7  1  0  0  0  0
  6  1  1  0  0  0  0
  6  2  1  0  0  0  0
  7  8  1  0  0  0  0
  9  8  1  0  0  0  0
  9 26  1  0  0  0  0
 10  9  1  0  0  0  0
 10 11  1  0  0  0  0
 11 15  1  0  0  0  0
 12 14  1  0  0  0  0
 13 12  1  0  0  0  0
 13 10  1  0  0  0  0
 14 19  1  0  0  0  0
 14 11  1  0  0  0  0
 16 15  1  0  0  0  0
 17 13  1  0  0  0  0
 18 17  1  0  0  0  0
 20 23  2  0  0  0  0
 21 24  2  0  0  0  0
 21 22  1  0  0  0  0
 22 19  1  0  0  0  0
 22 23  1  0  0  0  0
 24 20  1  0  0  0  0
 26 25  2  0  0  0  0
 27 34  1  0  0  0  0
 28 29  1  0  0  0  0
 29 32  1  0  0  0  0
 30 28  1  0  0  0  0
 30 34  1  0  0  0  0
 31 28  2  0  0  0  0
 32 39  1  0  0  0  0
 33 32  1  0  0  0  0
 34 33  1  0  0  0  0
 36 40  1  0  0  0  0
 37 41  1  0  0  0  0
 37 35  2  0  0  0  0
 38 36  1  0  0  0  0
 38 40  1  0  0  0  0
 39 38  1  0  0  0  0
 39 37  1  0  0  0  0
 40 35  1  0  0  0  0
 41 42  1  0  0  0  0
M  END
>  <MODEL>
9

>  <REMARK>
 VINA RESULT:      -7.0      1.522      2.459
  Name = 
  12 active torsions:
  status: ('A' for Active; 'I' for Inactive)
    1  A    between atoms: C_1  and  C_8
    2  A    between atoms: C_5  and  N_26
    3  A    between atoms: C_5  and  C_30
    4  A    between atoms: C_7  and  N_24
    5  A    between atoms: C_8  and  C_17
    6  A    between atoms: C_8  and  C_33
    7  A    between atoms: C_10  and  O_19
    8  A    between atoms: C_13  and  C_16
    9  A    between atoms: C_17  and  C_40
   10  A    between atoms: C_18  and  C_29
   11  A    between atoms: C_22  and  O_31
   12  A    between atoms: N_24  and  C_42
                            x       y       z     vdW  Elec       q    Type
                         _______ _______ _______ _____ _____    ______ ____

>  <TORSDO>
F 12

$$$$
