=
 OpenBabel11072409093D

 57 63  0  0  1  0  0  0  0  0999 V2000
  188.0860  177.0400  144.6470 C   0  0  0  0  0  0  0  0  0  0  0  0
  186.1690  177.9890  145.3440 C   0  0  0  0  0  0  0  0  0  0  0  0
  186.5990  177.3440  146.4250 C   0  0  0  0  0  0  0  0  0  0  0  0
  188.6610  176.0790  146.9500 C   0  0  0  0  0  3  0  0  0  0  0  0
  184.1230  178.9360  146.1990 F   0  0  0  0  0  0  0  0  0  0  0  0
  185.6060  179.0690  142.8400 C   0  0  0  0  0  3  0  0  0  0  0  0
  190.3780  176.0510  144.1970 C   0  0  0  0  0  2  0  0  0  0  0  0
  190.0790  175.6190  146.7370 C   0  0  1  0  0  3  0  0  0  0  0  0
  185.9320  177.3030  147.7620 C   0  0  0  0  0  1  0  0  0  0  0  0
  188.9900  176.3650  143.6520 C   0  0  1  0  0  3  0  0  0  0  0  0
  187.8700  176.7100  146.0720 C   0  0  0  0  0  0  0  0  0  0  0  0
  184.9950  178.7420  145.1790 C   0  0  0  0  0  0  0  0  0  0  0  0
  190.4350  173.9010  145.1610 O   0  0  0  0  0  0  0  0  0  0  0  0
  187.0480  177.7960  144.2880 C   0  0  0  0  0  0  0  0  0  0  0  0
  190.3200  175.1010  145.3510 C   0  0  0  0  0  0  0  0  0  0  0  0
  186.7770  178.3140  143.0190 C   0  0  0  0  0  3  0  0  0  0  0  0
  184.7210  179.2830  143.9130 C   0  0  0  0  0  3  0  0  0  0  0  0
  188.7500  174.4980  141.9810 C   0  0  0  0  0  0  0  0  0  0  0  0
  188.3170  175.1510  143.0700 C   0  0  0  0  0  3  0  0  0  0  0  0
  188.0130  173.2840  141.5220 C   0  0  0  0  0  2  0  0  0  0  0  0
  188.1360  172.1610  142.5380 C   0  0  0  0  0  1  0  0  0  0  0  0
  190.0000  174.8890  141.2400 C   0  0  0  0  0  2  0  0  0  0  0  0
  191.1240  173.8660  141.4030 C   0  0  0  0  0  2  0  0  0  0  0  0
  191.1570  171.5060  140.5210 C   0  0  0  0  0  3  0  0  0  0  0  0
  191.2090  170.6060  139.4510 C   0  0  0  0  0  3  0  0  0  0  0  0
  191.2820  171.0830  138.1340 C   0  0  0  0  0  3  0  0  0  0  0  0
  191.3810  172.9230  136.6110 F   0  0  0  0  0  0  0  0  0  0  0  0
  191.1680  172.8870  140.2740 C   0  0  0  0  0  0  0  0  0  0  0  0
  191.2480  173.3590  138.9560 C   0  0  0  0  0  3  0  0  0  0  0  0
  191.3020  172.4600  137.8860 C   0  0  0  0  0  0  0  0  0  0  0  0
  191.0730  176.7180  147.1470 C   0  0  1  0  0  3  0  0  0  0  0  0
  190.5320  177.4930  148.1780 O   0  0  0  0  0  1  0  0  0  0  0  0
  192.3950  176.1310  147.6200 C   0  0  0  0  0  2  0  0  0  0  0  0
  194.2160  173.8860  145.4570 C   0  0  0  0  0  3  0  0  0  0  0  0
  193.3540  176.1220  146.4830 C   0  0  0  0  0  3  0  0  0  0  0  0
  193.7870  174.9990  145.9870 C   0  0  0  0  0  0  0  0  0  0  0  0
  196.3340  173.3180  139.1600 C   0  0  0  0  0  2  0  0  0  0  0  0
  194.4050  172.6220  143.3490 C   0  0  0  0  0  0  0  0  0  0  0  0
  195.2040  174.9690  143.3510 C   0  0  0  0  0  2  0  0  0  0  0  0
  194.9570  173.7110  139.6940 C   0  0  0  0  0  2  0  0  0  0  0  0
  194.6530  170.7460  138.6230 O   0  0  0  0  0  0  0  0  0  0  0  0
  194.6500  172.5660  141.8790 C   0  0  0  0  0  0  0  0  0  0  0  0
  196.0480  169.4210  140.1500 O   0  0  0  0  0  0  0  0  0  0  0  0
  196.8350  171.9610  139.6580 C   0  0  1  0  0  3  0  0  0  0  0  0
  194.5670  173.7820  144.0250 C   0  0  0  0  0  0  0  0  0  0  0  0
  194.9000  173.7060  141.1970 C   0  0  0  0  0  0  0  0  0  0  0  0
  195.0110  174.9520  141.9090 N   0  0  0  0  0  0  0  0  0  0  0  0
  195.4950  170.7880  139.8670 S   0  0  0  0  0  0  0  0  0  0  0  0
  194.5270  171.2950  141.2130 N   0  0  0  0  0  2  0  0  0  0  0  0
  192.5230  171.1350  144.0830 O   0  0  0  0  0  1  0  0  0  0  0  0
  194.6350  170.2270  143.7870 O   0  0  0  0  0  0  0  0  0  0  0  0
  193.8930  171.3890  144.0560 C   0  0  1  0  0  0  0  0  0  0  0  0
  194.7090  170.7390  145.0980 C   0  0  0  0  0  2  0  0  0  0  0  0
  197.6360  171.9110  137.4060 O   0  0  0  0  0  1  0  0  0  0  0  0
  197.8830  171.4330  138.6910 C   0  0  0  0  0  2  0  0  0  0  0  0
  195.0610  176.2310  141.2120 C   0  0  0  0  0  2  0  0  0  0  0  0
  196.1650  176.9680  141.6480 O   0  0  0  0  0  1  0  0  0  0  0  0
  1 11  1  0  0  0  0
  2  3  2  0  0  0  0
  3  9  1  0  0  0  0
  6 16  2  0  0  0  0
  6 17  1  0  0  0  0
  7 15  1  0  0  0  0
  8  4  1  0  0  0  0
  8 31  1  6  0  0  0
 10 19  1  1  0  0  0
 10  7  1  0  0  0  0
 10  1  1  0  0  0  0
 11  3  1  0  0  0  0
 11  4  2  0  0  0  0
 12  2  1  0  0  0  0
 12  5  1  0  0  0  0
 13 15  2  0  0  0  0
 14  1  2  0  0  0  0
 14  2  1  0  0  0  0
 15  8  1  0  0  0  0
 16 14  1  0  0  0  0
 17 12  2  0  0  0  0
 18 19  2  0  0  0  0
 20 18  1  0  0  0  0
 20 21  1  0  0  0  0
 22 23  1  0  0  0  0
 22 18  1  0  0  0  0
 25 24  2  0  0  0  0
 26 25  1  0  0  0  0
 27 30  1  0  0  0  0
 28 24  1  0  0  0  0
 28 23  1  0  0  0  0
 29 28  2  0  0  0  0
 30 26  2  0  0  0  0
 30 29  1  0  0  0  0
 31 33  1  0  0  0  0
 31 32  1  1  0  0  0
 34 36  2  0  0  0  0
 35 33  1  0  0  0  0
 36 35  2  0  0  0  0
 37 44  1  0  0  0  0
 37 40  1  0  0  0  0
 38 45  2  0  0  0  0
 38 52  1  0  0  0  0
 39 45  1  0  0  0  0
 40 46  1  0  0  0  0
 41 48  2  0  0  0  0
 42 38  1  0  0  0  0
 44 55  1  6  0  0  0
 44 48  1  0  0  0  0
 45 34  1  0  0  0  0
 46 42  2  0  0  0  0
 46 47  1  0  0  0  0
 47 39  1  0  0  0  0
 48 43  2  0  0  0  0
 48 49  1  0  0  0  0
 49 42  1  0  0  0  0
 51 52  1  0  0  0  0
 51 53  1  0  0  0  0
 52 50  1  1  0  0  0
 52 53  1  0  0  0  0
 54 55  1  0  0  0  0
 56 57  1  0  0  0  0
 56 47  1  0  0  0  0
M  END
>  <MODEL>
1

>  <REMARK>
 VINA RESULT:      -7.9      0.000      0.000
  Name = 
  12 active torsions:
  status: ('A' for Active; 'I' for Inactive)
    1  A    between atoms: C_1  and  C_6
    2  A    between atoms: C_1  and  C_45
    3  A    between atoms: C_5  and  C_35
    4  A    between atoms: C_6  and  C_13
    5  A    between atoms: C_13  and  C_41
    6  A    between atoms: C_15  and  C_27
    7  A    between atoms: C_15  and  C_57
    8  A    between atoms: C_16  and  C_32
    9  A    between atoms: C_17  and  N_39
   10  A    between atoms: C_25  and  C_30
   11  A    between atoms: C_33  and  C_40
   12  A    between atoms: C_49  and  C_57
                            x       y       z     vdW  Elec       q    Type
                         _______ _______ _______ _____ _____    ______ ____

>  <TORSDO>
F 12

$$$$
=
 OpenBabel11072409093D

 57 63  0  0  1  0  0  0  0  0999 V2000
  188.0380  176.8270  144.5820 C   0  0  0  0  0  0  0  0  0  0  0  0
  186.1340  177.7860  145.3020 C   0  0  0  0  0  0  0  0  0  0  0  0
  186.5920  177.1660  146.3870 C   0  0  0  0  0  0  0  0  0  0  0  0
  188.6690  175.9180  146.8910 C   0  0  0  0  0  3  0  0  0  0  0  0
  184.1060  178.7460  146.1830 F   0  0  0  0  0  0  0  0  0  0  0  0
  185.5100  178.8090  142.7880 C   0  0  0  0  0  3  0  0  0  0  0  0
  190.3220  175.8350  144.1010 C   0  0  0  0  0  2  0  0  0  0  0  0
  190.0830  175.4570  146.6560 C   0  0  1  0  0  3  0  0  0  0  0  0
  185.9560  177.1530  147.7390 C   0  0  0  0  0  1  0  0  0  0  0  0
  188.9210  176.1320  143.5810 C   0  0  1  0  0  3  0  0  0  0  0  0
  187.8560  176.5270  146.0190 C   0  0  0  0  0  0  0  0  0  0  0  0
  184.9550  178.5330  145.1480 C   0  0  0  0  0  0  0  0  0  0  0  0
  190.4090  173.7060  145.1100 O   0  0  0  0  0  0  0  0  0  0  0  0
  186.9900  177.5720  144.2310 C   0  0  0  0  0  0  0  0  0  0  0  0
  190.2930  174.9090  145.2760 C   0  0  0  0  0  0  0  0  0  0  0  0
  186.6880  178.0620  142.9570 C   0  0  0  0  0  3  0  0  0  0  0  0
  184.6500  179.0450  143.8770 C   0  0  0  0  0  3  0  0  0  0  0  0
  188.6430  174.2340  141.9530 C   0  0  0  0  0  0  0  0  0  0  0  0
  188.2390  174.9040  143.0420 C   0  0  0  0  0  3  0  0  0  0  0  0
  187.9000  173.0070  141.5380 C   0  0  0  0  0  2  0  0  0  0  0  0
  187.8080  172.9180  140.0240 C   0  0  0  0  0  1  0  0  0  0  0  0
  189.8680  174.6180  141.1680 C   0  0  0  0  0  2  0  0  0  0  0  0
  191.0360  173.6590  141.3940 C   0  0  0  0  0  2  0  0  0  0  0  0
  191.1220  171.2990  140.5150 C   0  0  0  0  0  3  0  0  0  0  0  0
  191.2810  170.3990  139.4550 C   0  0  0  0  0  3  0  0  0  0  0  0
  191.5200  170.8770  138.1570 C   0  0  0  0  0  3  0  0  0  0  0  0
  191.8390  172.7150  136.6640 F   0  0  0  0  0  0  0  0  0  0  0  0
  191.1930  172.6800  140.2750 C   0  0  0  0  0  0  0  0  0  0  0  0
  191.4380  173.1520  138.9780 C   0  0  0  0  0  3  0  0  0  0  0  0
  191.5990  172.2530  137.9190 C   0  0  0  0  0  0  0  0  0  0  0  0
  191.0830  176.5680  147.0180 C   0  0  1  0  0  3  0  0  0  0  0  0
  190.6470  177.2520  148.1570 O   0  0  0  0  0  1  0  0  0  0  0  0
  192.4710  176.0070  147.2890 C   0  0  0  0  0  2  0  0  0  0  0  0
  194.6800  173.7850  145.4940 C   0  0  0  0  0  3  0  0  0  0  0  0
  193.1970  175.8690  145.9970 C   0  0  0  0  0  3  0  0  0  0  0  0
  193.9450  174.8300  145.7620 C   0  0  0  0  0  0  0  0  0  0  0  0
  195.0120  171.8390  139.1250 C   0  0  0  0  0  2  0  0  0  0  0  0
  195.8120  173.7470  143.3050 C   0  0  0  0  0  0  0  0  0  0  0  0
  193.8410  172.2730  143.5980 C   0  0  0  0  0  2  0  0  0  0  0  0
  195.7130  171.2670  140.3570 C   0  0  0  0  0  2  0  0  0  0  0  0
  197.9360  172.8630  138.7630 O   0  0  0  0  0  0  0  0  0  0  0  0
  196.0390  173.1370  141.9630 C   0  0  0  0  0  0  0  0  0  0  0  0
  197.2200  175.2060  138.9380 O   0  0  0  0  0  0  0  0  0  0  0  0
  195.2750  173.3280  138.8890 C   0  0  1  0  0  3  0  0  0  0  0  0
  194.8420  173.2720  144.1180 C   0  0  0  0  0  0  0  0  0  0  0  0
  195.3670  172.0170  141.6140 C   0  0  0  0  0  0  0  0  0  0  0  0
  194.3770  171.4740  142.5070 N   0  0  0  0  0  0  0  0  0  0  0  0
  196.9340  173.8000  139.3790 S   0  0  0  0  0  0  0  0  0  0  0  0
  197.0410  173.7170  141.1080 N   0  0  0  0  0  2  0  0  0  0  0  0
  197.7930  174.5340  144.6280 O   0  0  0  0  0  1  0  0  0  0  0  0
  197.1260  175.7380  142.7630 O   0  0  0  0  0  0  0  0  0  0  0  0
  196.7350  174.8470  143.7760 C   0  0  1  0  0  0  0  0  0  0  0  0
  196.2810  176.2500  143.7690 C   0  0  0  0  0  2  0  0  0  0  0  0
  195.0280  172.4840  136.6660 O   0  0  0  0  0  1  0  0  0  0  0  0
  195.0210  173.6510  137.4250 C   0  0  0  0  0  2  0  0  0  0  0  0
  193.7830  170.1610  142.2860 C   0  0  0  0  0  2  0  0  0  0  0  0
  193.1180  169.7390  143.4390 O   0  0  0  0  0  1  0  0  0  0  0  0
  1 11  1  0  0  0  0
  2  3  2  0  0  0  0
  3  9  1  0  0  0  0
  6 16  2  0  0  0  0
  6 17  1  0  0  0  0
  7 15  1  0  0  0  0
  8  4  1  0  0  0  0
  8 31  1  6  0  0  0
 10 19  1  1  0  0  0
 10  7  1  0  0  0  0
 10  1  1  0  0  0  0
 11  3  1  0  0  0  0
 11  4  2  0  0  0  0
 12  2  1  0  0  0  0
 12  5  1  0  0  0  0
 13 15  2  0  0  0  0
 14  1  2  0  0  0  0
 14  2  1  0  0  0  0
 15  8  1  0  0  0  0
 16 14  1  0  0  0  0
 17 12  2  0  0  0  0
 18 19  2  0  0  0  0
 20 18  1  0  0  0  0
 21 20  1  0  0  0  0
 22 23  1  0  0  0  0
 22 18  1  0  0  0  0
 25 24  2  0  0  0  0
 26 25  1  0  0  0  0
 27 30  1  0  0  0  0
 28 24  1  0  0  0  0
 28 23  1  0  0  0  0
 29 28  2  0  0  0  0
 30 26  2  0  0  0  0
 30 29  1  0  0  0  0
 31 33  1  0  0  0  0
 31 32  1  1  0  0  0
 34 36  2  0  0  0  0
 35 33  1  0  0  0  0
 36 35  2  0  0  0  0
 37 40  1  0  0  0  0
 38 52  1  0  0  0  0
 38 45  2  0  0  0  0
 39 45  1  0  0  0  0
 40 46  1  0  0  0  0
 41 48  2  0  0  0  0
 42 38  1  0  0  0  0
 43 48  2  0  0  0  0
 44 55  1  6  0  0  0
 44 37  1  0  0  0  0
 44 48  1  0  0  0  0
 45 34  1  0  0  0  0
 46 42  2  0  0  0  0
 46 47  1  0  0  0  0
 47 39  1  0  0  0  0
 48 49  1  0  0  0  0
 49 42  1  0  0  0  0
 51 53  1  0  0  0  0
 51 52  1  0  0  0  0
 52 50  1  1  0  0  0
 53 52  1  0  0  0  0
 54 55  1  0  0  0  0
 56 47  1  0  0  0  0
 56 57  1  0  0  0  0
M  END
>  <MODEL>
2

>  <REMARK>
 VINA RESULT:      -7.6      1.307      2.618
  Name = 
  12 active torsions:
  status: ('A' for Active; 'I' for Inactive)
    1  A    between atoms: C_1  and  C_6
    2  A    between atoms: C_1  and  C_45
    3  A    between atoms: C_5  and  C_35
    4  A    between atoms: C_6  and  C_13
    5  A    between atoms: C_13  and  C_41
    6  A    between atoms: C_15  and  C_27
    7  A    between atoms: C_15  and  C_57
    8  A    between atoms: C_16  and  C_32
    9  A    between atoms: C_17  and  N_39
   10  A    between atoms: C_25  and  C_30
   11  A    between atoms: C_33  and  C_40
   12  A    between atoms: C_49  and  C_57
                            x       y       z     vdW  Elec       q    Type
                         _______ _______ _______ _____ _____    ______ ____

>  <TORSDO>
F 12

$$$$
=
 OpenBabel11072409093D

 57 63  0  0  1  0  0  0  0  0999 V2000
  194.1300  173.4220  139.6530 C   0  0  0  0  0  0  0  0  0  0  0  0
  195.9700  174.6830  139.3600 C   0  0  0  0  0  0  0  0  0  0  0  0
  195.5280  174.4970  138.1180 C   0  0  0  0  0  0  0  0  0  0  0  0
  193.5110  173.4230  137.1680 C   0  0  0  0  0  2  0  0  0  0  0  0
  197.9310  176.0140  138.9180 F   0  0  0  0  0  0  0  0  0  0  0  0
  196.5790  174.7110  142.0770 C   0  0  0  0  0  3  0  0  0  0  0  0
  191.9080  172.2000  139.7100 C   0  0  0  0  0  2  0  0  0  0  0  0
  192.1270  172.8310  137.2040 C   0  0  1  0  0  3  0  0  0  0  0  0
  196.1430  175.0320  136.8650 C   0  0  0  0  0  1  0  0  0  0  0  0
  193.3010  172.3540  140.3110 C   0  0  1  0  0  3  0  0  0  0  0  0
  194.3050  173.6990  138.2100 C   0  0  0  0  0  0  0  0  0  0  0  0
  197.1110  175.3790  139.7910 C   0  0  2  0  0  3  0  0  0  0  0  0
  191.9170  170.6100  137.9690 O   0  0  0  0  0  0  0  0  0  0  0  0
  195.1430  174.0340  140.2650 C   0  0  0  0  0  0  0  0  0  0  0  0
  191.9670  171.7910  138.2710 C   0  0  0  0  0  0  0  0  0  0  0  0
  195.4400  174.0200  141.6310 C   0  0  0  0  0  3  0  0  0  0  0  0
  197.4090  175.3870  141.1630 C   0  0  0  0  0  3  0  0  0  0  0  0
  194.3330  170.3730  141.4710 C   0  0  0  0  0  0  0  0  0  0  0  0
  194.0540  171.0520  140.3480 C   0  0  0  0  0  3  0  0  0  0  0  0
  195.0590  169.0730  141.3720 C   0  0  0  0  0  2  0  0  0  0  0  0
  196.4790  169.2840  140.8750 C   0  0  0  0  0  1  0  0  0  0  0  0
  193.8760  170.8270  142.8310 C   0  0  0  0  0  2  0  0  0  0  0  0
  194.9230  170.5760  143.9160 C   0  0  0  0  0  2  0  0  0  0  0  0
  196.7270  172.0460  144.8820 C   0  0  0  0  0  3  0  0  0  0  0  0
  197.1280  173.2330  145.5060 C   0  0  0  0  0  3  0  0  0  0  0  0
  196.1760  174.2120  145.8310 C   0  0  0  0  0  3  0  0  0  0  0  0
  193.9030  174.9480  145.8550 F   0  0  0  0  0  0  0  0  0  0  0  0
  195.3740  171.8410  144.5740 C   0  0  0  0  0  0  0  0  0  0  0  0
  194.4260  172.8190  144.9070 C   0  0  0  0  0  3  0  0  0  0  0  0
  194.8250  174.0050  145.5320 C   0  0  0  0  0  0  0  0  0  0  0  0
  191.0650  173.9410  137.2840 C   0  0  1  0  0  3  0  0  0  0  0  0
  191.2920  174.8950  136.2860 O   0  0  0  0  0  1  0  0  0  0  0  0
  189.6590  173.3850  137.1150 C   0  0  0  0  0  2  0  0  0  0  0  0
  188.8310  173.5370  140.6270 C   0  0  0  0  0  3  0  0  0  0  0  0
  188.7510  174.0690  138.0760 C   0  0  0  0  0  3  0  0  0  0  0  0
  188.7910  173.7860  139.3460 C   0  0  0  0  0  0  0  0  0  0  0  0
  186.9170  177.8800  145.3100 C   0  0  0  0  0  2  0  0  0  0  0  0
  189.0500  174.5230  142.8750 C   0  0  0  0  0  0  0  0  0  0  0  0
  187.4870  175.6190  141.2940 C   0  0  0  0  0  2  0  0  0  0  0  0
  188.0820  177.9600  144.3250 C   0  0  0  0  0  2  0  0  0  0  0  0
  189.3750  177.2890  147.1370 O   0  0  0  0  0  0  0  0  0  0  0  0
  188.8110  175.6320  143.8430 C   0  0  0  0  0  0  0  0  0  0  0  0
  188.5570  175.0280  147.6380 O   0  0  0  0  0  0  0  0  0  0  0  0
  186.9280  176.6310  146.1940 C   0  0  1  0  0  3  0  0  0  0  0  0
  188.5090  174.5670  141.6370 C   0  0  0  0  0  0  0  0  0  0  0  0
  188.1670  176.7490  143.4360 C   0  0  0  0  0  0  0  0  0  0  0  0
  187.6450  176.8220  142.0970 N   0  0  0  0  0  0  0  0  0  0  0  0
  188.5950  176.1190  146.6070 S   0  0  0  0  0  0  0  0  0  0  0  0
  189.3550  175.5110  145.1710 N   0  0  0  0  0  2  0  0  0  0  0  0
  191.3510  173.5610  143.1470 O   0  0  0  0  0  1  0  0  0  0  0  0
  189.6270  172.7660  144.4770 O   0  0  0  0  0  0  0  0  0  0  0  0
  189.9730  173.3930  143.2680 C   0  0  1  0  0  0  0  0  0  0  0  0
  189.4740  172.0050  143.3010 C   0  0  0  0  0  2  0  0  0  0  0  0
  185.0280  177.7260  147.1460 O   0  0  0  0  0  1  0  0  0  0  0  0
  186.1100  176.9020  147.4460 C   0  0  0  0  0  2  0  0  0  0  0  0
  187.1400  178.0690  141.5380 C   0  0  0  0  0  2  0  0  0  0  0  0
  186.5470  177.8290  140.2960 O   0  0  0  0  0  1  0  0  0  0  0  0
  1 14  1  0  0  0  0
  1 10  1  0  0  0  0
  2 12  1  0  0  0  0
  2 14  1  0  0  0  0
  3 11  1  0  0  0  0
  3  2  2  0  0  0  0
  4  8  1  0  0  0  0
  4 11  1  0  0  0  0
  7 10  1  0  0  0  0
  8 31  1  1  0  0  0
  8 15  1  0  0  0  0
  9  3  1  0  0  0  0
 10 19  1  6  0  0  0
 11  1  2  0  0  0  0
 12  5  1  6  0  0  0
 12 17  1  0  0  0  0
 13 15  2  0  0  0  0
 14 16  2  0  0  0  0
 15  7  1  0  0  0  0
 16  6  1  0  0  0  0
 17  6  2  0  0  0  0
 18 22  1  0  0  0  0
 19 18  2  0  0  0  0
 20 18  1  0  0  0  0
 21 20  1  0  0  0  0
 22 23  1  0  0  0  0
 23 28  1  0  0  0  0
 24 25  1  0  0  0  0
 25 26  2  0  0  0  0
 28 24  2  0  0  0  0
 28 29  1  0  0  0  0
 29 30  2  0  0  0  0
 30 26  1  0  0  0  0
 30 27  1  0  0  0  0
 31 32  1  6  0  0  0
 33 31  1  0  0  0  0
 33 35  1  0  0  0  0
 34 45  1  0  0  0  0
 35 36  2  0  0  0  0
 36 34  2  0  0  0  0
 37 44  1  0  0  0  0
 38 52  1  0  0  0  0
 38 42  1  0  0  0  0
 39 45  1  0  0  0  0
 39 47  1  0  0  0  0
 40 37  1  0  0  0  0
 42 49  1  0  0  0  0
 44 48  1  0  0  0  0
 44 55  1  1  0  0  0
 45 38  2  0  0  0  0
 46 42  2  0  0  0  0
 46 40  1  0  0  0  0
 47 46  1  0  0  0  0
 48 41  2  0  0  0  0
 48 43  2  0  0  0  0
 49 48  1  0  0  0  0
 52 50  1  6  0  0  0
 52 53  1  0  0  0  0
 52 51  1  0  0  0  0
 53 51  1  0  0  0  0
 54 55  1  0  0  0  0
 56 47  1  0  0  0  0
 57 56  1  0  0  0  0
M  END
>  <MODEL>
3

>  <REMARK>
 VINA RESULT:      -7.5      3.468      9.785
  Name = 
  12 active torsions:
  status: ('A' for Active; 'I' for Inactive)
    1  A    between atoms: C_1  and  C_6
    2  A    between atoms: C_1  and  C_45
    3  A    between atoms: C_5  and  C_35
    4  A    between atoms: C_6  and  C_13
    5  A    between atoms: C_13  and  C_41
    6  A    between atoms: C_15  and  C_27
    7  A    between atoms: C_15  and  C_57
    8  A    between atoms: C_16  and  C_32
    9  A    between atoms: C_17  and  N_39
   10  A    between atoms: C_25  and  C_30
   11  A    between atoms: C_33  and  C_40
   12  A    between atoms: C_49  and  C_57
                            x       y       z     vdW  Elec       q    Type
                         _______ _______ _______ _____ _____    ______ ____

>  <TORSDO>
F 12

$$$$
=
 OpenBabel11072409093D

 57 63  0  0  1  0  0  0  0  0999 V2000
  193.1330  172.7190  142.5320 C   0  0  0  0  0  0  0  0  0  0  0  0
  191.5390  172.8120  144.1160 C   0  0  0  0  0  0  0  0  0  0  0  0
  192.6420  173.1640  144.7730 C   0  0  0  0  0  0  0  0  0  0  0  0
  194.9800  173.5860  144.0790 C   0  0  0  0  0  3  0  0  0  0  0  0
  189.9250  172.9280  145.9030 F   0  0  0  0  0  0  0  0  0  0  0  0
  189.5440  171.9230  142.3890 C   0  0  0  0  0  3  0  0  0  0  0  0
  195.0710  172.9140  140.9060 C   0  0  0  0  0  2  0  0  0  0  0  0
  196.0940  173.8460  143.0990 C   0  0  1  0  0  3  0  0  0  0  0  0
  192.7380  173.5350  146.2180 C   0  0  0  0  0  1  0  0  0  0  0  0
  193.8110  172.1570  141.3110 C   0  0  1  0  0  3  0  0  0  0  0  0
  193.7410  173.1580  143.8060 C   0  0  0  0  0  0  0  0  0  0  0  0
  190.2320  172.6680  144.6080 C   0  0  0  0  0  0  0  0  0  0  0  0
  196.9750  171.9890  141.9430 O   0  0  0  0  0  0  0  0  0  0  0  0
  191.8380  172.5370  142.7900 C   0  0  0  0  0  0  0  0  0  0  0  0
  196.1190  172.8580  141.9720 C   0  0  0  0  0  0  0  0  0  0  0  0
  190.8560  172.0730  141.9100 C   0  0  0  0  0  3  0  0  0  0  0  0
  189.2330  172.2200  143.7290 C   0  0  0  0  0  3  0  0  0  0  0  0
  193.9440  169.7810  140.4930 C   0  0  0  0  0  0  0  0  0  0  0  0
  194.0600  170.6830  141.4790 C   0  0  0  0  0  3  0  0  0  0  0  0
  194.2510  168.3490  140.7790 C   0  0  0  0  0  2  0  0  0  0  0  0
  195.5470  168.2200  141.5620 C   0  0  0  0  0  1  0  0  0  0  0  0
  193.5910  170.1610  139.0800 C   0  0  0  0  0  2  0  0  0  0  0  0
  192.1140  169.9310  138.7610 C   0  0  0  0  0  2  0  0  0  0  0  0
  192.0420  172.4110  138.3180 C   0  0  0  0  0  3  0  0  0  0  0  0
  191.3220  173.6010  138.1700 C   0  0  0  0  0  3  0  0  0  0  0  0
  189.9250  173.5990  138.3030 C   0  0  0  0  0  3  0  0  0  0  0  0
  187.8970  172.4060  138.7200 F   0  0  0  0  0  0  0  0  0  0  0  0
  191.3640  171.2130  138.5900 C   0  0  0  0  0  0  0  0  0  0  0  0
  189.9690  171.2170  138.7280 C   0  0  0  0  0  3  0  0  0  0  0  0
  189.2480  172.4070  138.5830 C   0  0  0  0  0  0  0  0  0  0  0  0
  196.0620  175.3050  142.6170 C   0  0  1  0  0  3  0  0  0  0  0  0
  197.1730  175.5680  141.8090 O   0  0  0  0  0  1  0  0  0  0  0  0
  194.8000  175.6060  141.8230 C   0  0  0  0  0  2  0  0  0  0  0  0
  191.2810  176.1300  142.4440 C   0  0  0  0  0  3  0  0  0  0  0  0
  193.8650  176.3870  142.6780 C   0  0  0  0  0  3  0  0  0  0  0  0
  192.5760  176.2590  142.5440 C   0  0  0  0  0  0  0  0  0  0  0  0
  187.3000  177.4610  147.6250 C   0  0  0  0  0  2  0  0  0  0  0  0
  189.0400  176.3050  143.4550 C   0  0  0  0  0  0  0  0  0  0  0  0
  190.9950  176.5690  144.9560 C   0  0  0  0  0  2  0  0  0  0  0  0
  187.7960  176.1150  147.0970 C   0  0  0  0  0  2  0  0  0  0  0  0
  184.7620  176.3220  146.2150 O   0  0  0  0  0  0  0  0  0  0  0  0
  188.1470  176.3590  144.6480 C   0  0  0  0  0  0  0  0  0  0  0  0
  184.7440  178.1620  144.5880 O   0  0  0  0  0  0  0  0  0  0  0  0
  186.5600  178.3070  146.5870 C   0  0  1  0  0  3  0  0  0  0  0  0
  190.3840  176.3000  143.6060 C   0  0  0  0  0  0  0  0  0  0  0  0
  188.6780  176.2620  145.8870 C   0  0  0  0  0  0  0  0  0  0  0  0
  190.1070  176.1940  146.0460 N   0  0  0  0  0  0  0  0  0  0  0  0
  185.6150  177.2930  145.4490 S   0  0  0  0  0  0  0  0  0  0  0  0
  186.7240  176.4260  144.4350 N   0  0  0  0  0  2  0  0  0  0  0  0
  188.1600  177.3180  141.3350 O   0  0  0  0  0  1  0  0  0  0  0  0
  188.9940  175.1550  141.2960 O   0  0  0  0  0  0  0  0  0  0  0  0
  188.4230  176.1710  142.0820 C   0  0  1  0  0  0  0  0  0  0  0  0
  187.6650  174.9570  141.7250 C   0  0  0  0  0  2  0  0  0  0  0  0
  186.4210  180.0840  148.1790 O   0  0  0  0  0  1  0  0  0  0  0  0
  185.6670  179.3050  147.3050 C   0  0  0  0  0  2  0  0  0  0  0  0
  190.7210  175.8720  147.3280 C   0  0  0  0  0  2  0  0  0  0  0  0
  191.1130  177.0460  147.9770 O   0  0  0  0  0  1  0  0  0  0  0  0
  1 14  2  0  0  0  0
  1 11  1  0  0  0  0
  2 12  1  0  0  0  0
  2  3  2  0  0  0  0
  3  9  1  0  0  0  0
  6 17  1  0  0  0  0
  7 10  1  0  0  0  0
  7 15  1  0  0  0  0
  8 31  1  6  0  0  0
  8  4  1  0  0  0  0
 10 19  1  1  0  0  0
 10  1  1  0  0  0  0
 11  4  2  0  0  0  0
 11  3  1  0  0  0  0
 12  5  1  0  0  0  0
 13 15  2  0  0  0  0
 14  2  1  0  0  0  0
 15  8  1  0  0  0  0
 16  6  2  0  0  0  0
 16 14  1  0  0  0  0
 17 12  2  0  0  0  0
 18 20  1  0  0  0  0
 18 19  2  0  0  0  0
 20 21  1  0  0  0  0
 22 18  1  0  0  0  0
 23 22  1  0  0  0  0
 24 28  1  0  0  0  0
 25 26  1  0  0  0  0
 25 24  2  0  0  0  0
 26 30  2  0  0  0  0
 28 29  2  0  0  0  0
 28 23  1  0  0  0  0
 30 27  1  0  0  0  0
 30 29  1  0  0  0  0
 31 32  1  6  0  0  0
 33 31  1  0  0  0  0
 33 35  1  0  0  0  0
 34 36  2  0  0  0  0
 34 45  1  0  0  0  0
 36 35  2  0  0  0  0
 38 45  2  0  0  0  0
 38 42  1  0  0  0  0
 39 47  1  0  0  0  0
 40 37  1  0  0  0  0
 42 46  2  0  0  0  0
 43 48  2  0  0  0  0
 44 55  1  1  0  0  0
 44 37  1  0  0  0  0
 45 39  1  0  0  0  0
 46 47  1  0  0  0  0
 46 40  1  0  0  0  0
 47 56  1  0  0  0  0
 48 41  2  0  0  0  0
 48 44  1  0  0  0  0
 49 42  1  0  0  0  0
 49 48  1  0  0  0  0
 51 53  1  0  0  0  0
 51 52  1  0  0  0  0
 52 50  1  6  0  0  0
 52 38  1  0  0  0  0
 53 52  1  0  0  0  0
 55 54  1  0  0  0  0
 56 57  1  0  0  0  0
M  END
>  <MODEL>
4

>  <REMARK>
 VINA RESULT:      -7.5      3.484      8.326
  Name = 
  12 active torsions:
  status: ('A' for Active; 'I' for Inactive)
    1  A    between atoms: C_1  and  C_6
    2  A    between atoms: C_1  and  C_45
    3  A    between atoms: C_5  and  C_35
    4  A    between atoms: C_6  and  C_13
    5  A    between atoms: C_13  and  C_41
    6  A    between atoms: C_15  and  C_27
    7  A    between atoms: C_15  and  C_57
    8  A    between atoms: C_16  and  C_32
    9  A    between atoms: C_17  and  N_39
   10  A    between atoms: C_25  and  C_30
   11  A    between atoms: C_33  and  C_40
   12  A    between atoms: C_49  and  C_57
                            x       y       z     vdW  Elec       q    Type
                         _______ _______ _______ _____ _____    ______ ____

>  <TORSDO>
F 12

$$$$
=
 OpenBabel11072409093D

 57 63  0  0  1  0  0  0  0  0999 V2000
  195.2930  172.7220  142.4380 C   0  0  0  0  0  0  0  0  0  0  0  0
  195.0700  171.3490  144.2070 C   0  0  0  0  0  0  0  0  0  0  0  0
  196.2890  171.8600  144.3690 C   0  0  0  0  0  0  0  0  0  0  0  0
  197.5860  173.5950  143.1730 C   0  0  0  0  0  3  0  0  0  0  0  0
  194.9570  169.8970  146.1270 F   0  0  0  0  0  0  0  0  0  0  0  0
  192.5530  170.4680  143.4080 C   0  0  0  0  0  3  0  0  0  0  0  0
  195.7200  174.4970  140.6770 C   0  0  0  0  0  2  0  0  0  0  0  0
  197.7850  174.7480  142.2250 C   0  0  1  0  0  3  0  0  0  0  0  0
  197.2350  171.5640  145.4870 C   0  0  0  0  0  1  0  0  0  0  0  0
  195.1020  173.1430  141.0070 C   0  0  1  0  0  3  0  0  0  0  0  0
  196.5150  172.7960  143.2680 C   0  0  0  0  0  0  0  0  0  0  0  0
  194.4000  170.4040  145.0000 C   0  0  0  0  0  0  0  0  0  0  0  0
  197.9400  174.2460  139.9260 O   0  0  0  0  0  0  0  0  0  0  0  0
  194.4890  171.8560  143.0530 C   0  0  0  0  0  0  0  0  0  0  0  0
  197.2040  174.4910  140.8670 C   0  0  0  0  0  0  0  0  0  0  0  0
  193.2340  171.4140  142.6240 C   0  0  0  0  0  3  0  0  0  0  0  0
  193.1310  169.9670  144.5890 C   0  0  0  0  0  3  0  0  0  0  0  0
  194.8730  171.6260  139.0120 C   0  0  0  0  0  0  0  0  0  0  0  0
  195.5690  172.0600  140.0730 C   0  0  0  0  0  3  0  0  0  0  0  0
  195.4620  170.5660  138.1410 C   0  0  0  0  0  2  0  0  0  0  0  0
  195.3170  170.9310  136.6740 C   0  0  0  0  0  1  0  0  0  0  0  0
  193.5490  172.2180  138.6090 C   0  0  0  0  0  2  0  0  0  0  0  0
  192.3650  171.5110  139.2670 C   0  0  0  0  0  2  0  0  0  0  0  0
  189.8750  171.7560  139.5700 C   0  0  0  0  0  3  0  0  0  0  0  0
  188.6620  172.3680  139.2370 C   0  0  0  0  0  3  0  0  0  0  0  0
  188.6280  173.3760  138.2620 C   0  0  0  0  0  3  0  0  0  0  0  0
  189.7720  174.7430  136.6700 F   0  0  0  0  0  0  0  0  0  0  0  0
  191.0590  172.1580  138.9340 C   0  0  0  0  0  0  0  0  0  0  0  0
  191.0190  173.1610  137.9550 C   0  0  0  0  0  3  0  0  0  0  0  0
  189.8060  173.7730  137.6200 C   0  0  0  0  0  0  0  0  0  0  0  0
  197.2860  176.0590  142.8530 C   0  0  1  0  0  3  0  0  0  0  0  0
  196.6100  176.8230  141.8960 O   0  0  0  0  0  1  0  0  0  0  0  0
  196.3470  175.7990  144.0220 C   0  0  0  0  0  2  0  0  0  0  0  0
  192.8670  174.8790  144.3160 C   0  0  0  0  0  3  0  0  0  0  0  0
  194.9790  176.2570  143.6540 C   0  0  0  0  0  3  0  0  0  0  0  0
  193.9330  175.5540  143.9790 C   0  0  0  0  0  0  0  0  0  0  0  0
  187.2160  178.2910  145.2560 C   0  0  0  0  0  2  0  0  0  0  0  0
  190.4750  175.2590  143.8620 C   0  0  0  0  0  0  0  0  0  0  0  0
  191.5270  176.6080  145.6560 C   0  0  0  0  0  2  0  0  0  0  0  0
  187.6750  176.9730  145.8800 C   0  0  0  0  0  2  0  0  0  0  0  0
  185.4720  176.1960  143.7420 O   0  0  0  0  0  0  0  0  0  0  0  0
  189.1530  175.8430  144.2310 C   0  0  0  0  0  0  0  0  0  0  0  0
  186.5080  176.7730  141.5910 O   0  0  0  0  0  0  0  0  0  0  0  0
  187.1890  178.2840  143.7270 C   0  0  1  0  0  3  0  0  0  0  0  0
  191.5760  175.5390  144.5960 C   0  0  0  0  0  0  0  0  0  0  0  0
  189.0270  176.5410  145.3820 C   0  0  0  0  0  0  0  0  0  0  0  0
  190.1880  176.7860  146.1970 N   0  0  0  0  0  0  0  0  0  0  0  0
  186.7280  176.6800  143.0730 S   0  0  0  0  0  0  0  0  0  0  0  0
  188.0230  175.5680  143.3830 N   0  0  0  0  0  2  0  0  0  0  0  0
  190.2120  172.9510  142.9160 O   0  0  0  0  0  1  0  0  0  0  0  0
  190.0150  174.7810  141.5070 O   0  0  0  0  0  0  0  0  0  0  0  0
  190.5510  174.2860  142.7080 C   0  0  1  0  0  0  0  0  0  0  0  0
  191.4100  174.5800  141.5460 C   0  0  0  0  0  2  0  0  0  0  0  0
  185.5200  179.8920  144.3140 O   0  0  0  0  0  1  0  0  0  0  0  0
  186.2400  179.3690  143.2430 C   0  0  0  0  0  2  0  0  0  0  0  0
  190.0780  177.3370  147.5410 C   0  0  0  0  0  2  0  0  0  0  0  0
  191.1470  176.8960  148.3250 O   0  0  0  0  0  1  0  0  0  0  0  0
  1 14  2  0  0  0  0
  1 11  1  0  0  0  0
  2  3  2  0  0  0  0
  2 12  1  0  0  0  0
  3  9  1  0  0  0  0
  4 11  2  0  0  0  0
  6 17  1  0  0  0  0
  7 15  1  0  0  0  0
  7 10  1  0  0  0  0
  8 31  1  1  0  0  0
  8  4  1  0  0  0  0
 10 19  1  6  0  0  0
 10  1  1  0  0  0  0
 11  3  1  0  0  0  0
 12  5  1  0  0  0  0
 13 15  2  0  0  0  0
 14  2  1  0  0  0  0
 15  8  1  0  0  0  0
 16 14  1  0  0  0  0
 16  6  2  0  0  0  0
 17 12  2  0  0  0  0
 18 19  2  0  0  0  0
 20 18  1  0  0  0  0
 21 20  1  0  0  0  0
 22 18  1  0  0  0  0
 22 23  1  0  0  0  0
 25 24  1  0  0  0  0
 26 25  2  0  0  0  0
 27 30  1  0  0  0  0
 28 23  1  0  0  0  0
 28 24  2  0  0  0  0
 29 28  1  0  0  0  0
 30 29  2  0  0  0  0
 30 26  1  0  0  0  0
 31 32  1  6  0  0  0
 31 33  1  0  0  0  0
 34 45  1  0  0  0  0
 35 36  2  0  0  0  0
 35 33  1  0  0  0  0
 36 34  2  0  0  0  0
 37 40  1  0  0  0  0
 38 42  1  0  0  0  0
 38 45  2  0  0  0  0
 39 47  1  0  0  0  0
 42 46  2  0  0  0  0
 43 48  2  0  0  0  0
 44 55  1  1  0  0  0
 44 37  1  0  0  0  0
 45 39  1  0  0  0  0
 46 40  1  0  0  0  0
 46 47  1  0  0  0  0
 47 56  1  0  0  0  0
 48 49  1  0  0  0  0
 48 44  1  0  0  0  0
 48 41  2  0  0  0  0
 49 42  1  0  0  0  0
 51 53  1  0  0  0  0
 51 52  1  0  0  0  0
 52 50  1  1  0  0  0
 52 38  1  0  0  0  0
 53 52  1  0  0  0  0
 55 54  1  0  0  0  0
 56 57  1  0  0  0  0
M  END
>  <MODEL>
5

>  <REMARK>
 VINA RESULT:      -7.1      3.291      8.581
  Name = 
  12 active torsions:
  status: ('A' for Active; 'I' for Inactive)
    1  A    between atoms: C_1  and  C_6
    2  A    between atoms: C_1  and  C_45
    3  A    between atoms: C_5  and  C_35
    4  A    between atoms: C_6  and  C_13
    5  A    between atoms: C_13  and  C_41
    6  A    between atoms: C_15  and  C_27
    7  A    between atoms: C_15  and  C_57
    8  A    between atoms: C_16  and  C_32
    9  A    between atoms: C_17  and  N_39
   10  A    between atoms: C_25  and  C_30
   11  A    between atoms: C_33  and  C_40
   12  A    between atoms: C_49  and  C_57
                            x       y       z     vdW  Elec       q    Type
                         _______ _______ _______ _____ _____    ______ ____

>  <TORSDO>
F 12

$$$$
=
 OpenBabel11072409093D

 57 63  0  0  1  0  0  0  0  0999 V2000
  192.3860  173.0140  141.2210 C   0  0  0  0  0  0  0  0  0  0  0  0
  190.2690  172.8110  141.9530 C   0  0  0  0  0  0  0  0  0  0  0  0
  190.9920  172.5860  143.0480 C   0  0  0  0  0  0  0  0  0  0  0  0
  193.4150  172.6910  143.5440 C   0  0  0  0  0  3  0  0  0  0  0  0
  188.0460  172.5500  142.8510 F   0  0  0  0  0  0  0  0  0  0  0  0
  189.1840  173.2250  139.4230 C   0  0  0  0  0  3  0  0  0  0  0  0
  194.8410  173.4050  140.7190 C   0  0  0  0  0  2  0  0  0  0  0  0
  194.8510  173.0640  143.2900 C   0  0  1  0  0  3  0  0  0  0  0  0
  190.4680  172.2850  144.4150 C   0  0  0  0  0  1  0  0  0  0  0  0
  193.5030  172.8700  140.2230 C   0  0  1  0  0  3  0  0  0  0  0  0
  192.3990  172.7230  142.6710 C   0  0  0  0  0  0  0  0  0  0  0  0
  188.8730  172.7900  141.8030 C   0  0  0  0  0  0  0  0  0  0  0  0
  196.0750  171.7090  141.7970 O   0  0  0  0  0  0  0  0  0  0  0  0
  191.1010  173.0530  140.8700 C   0  0  0  0  0  0  0  0  0  0  0  0
  195.3230  172.6620  141.9250 C   0  0  0  0  0  0  0  0  0  0  0  0
  190.5790  173.2460  139.5880 C   0  0  0  0  0  3  0  0  0  0  0  0
  188.3360  173.0000  140.5230 C   0  0  0  0  0  3  0  0  0  0  0  0
  193.8590  171.0960  138.4740 C   0  0  0  0  0  0  0  0  0  0  0  0
  193.5990  171.4480  139.7420 C   0  0  0  0  0  3  0  0  0  0  0  0
  193.9610  169.6470  138.1300 C   0  0  0  0  0  2  0  0  0  0  0  0
  193.0490  168.8150  139.0140 C   0  0  0  0  0  1  0  0  0  0  0  0
  194.1310  172.1020  137.3890 C   0  0  0  0  0  2  0  0  0  0  0  0
  193.5300  171.6940  136.0450 C   0  0  0  0  0  2  0  0  0  0  0  0
  191.1480  170.8950  135.8610 C   0  0  0  0  0  3  0  0  0  0  0  0
  189.7760  171.1610  135.7890 C   0  0  0  0  0  3  0  0  0  0  0  0
  189.3140  172.4860  135.8230 C   0  0  0  0  0  3  0  0  0  0  0  0
  189.7770  174.8270  135.9530 F   0  0  0  0  0  0  0  0  0  0  0  0
  192.0600  171.9550  135.9760 C   0  0  0  0  0  0  0  0  0  0  0  0
  191.5940  173.2770  136.0030 C   0  0  0  0  0  3  0  0  0  0  0  0
  190.2230  173.5440  135.9290 C   0  0  0  0  0  0  0  0  0  0  0  0
  195.0860  174.5540  143.5910 C   0  0  1  0  0  3  0  0  0  0  0  0
  196.4510  174.8480  143.5230 O   0  0  0  0  0  1  0  0  0  0  0  0
  194.3460  175.4480  142.6070 C   0  0  0  0  0  2  0  0  0  0  0  0
  190.8100  176.1550  142.7980 C   0  0  0  0  0  3  0  0  0  0  0  0
  193.3540  176.2700  143.3530 C   0  0  0  0  0  3  0  0  0  0  0  0
  192.0870  176.2140  143.0590 C   0  0  0  0  0  0  0  0  0  0  0  0
  186.4520  177.5810  147.6390 C   0  0  0  0  0  2  0  0  0  0  0  0
  188.5930  176.9290  143.5470 C   0  0  0  0  0  0  0  0  0  0  0  0
  190.1290  176.0230  145.2690 C   0  0  0  0  0  2  0  0  0  0  0  0
  186.5710  176.3280  146.7720 C   0  0  0  0  0  2  0  0  0  0  0  0
  184.0670  177.9160  145.6590 O   0  0  0  0  0  0  0  0  0  0  0  0
  187.5260  177.0240  144.5850 C   0  0  0  0  0  0  0  0  0  0  0  0
  185.0390  179.9620  144.7110 O   0  0  0  0  0  0  0  0  0  0  0  0
  186.2960  178.8800  146.8460 C   0  0  1  0  0  3  0  0  0  0  0  0
  189.7850  176.3640  143.8420 C   0  0  0  0  0  0  0  0  0  0  0  0
  187.6990  176.4200  145.7810 C   0  0  0  0  0  0  0  0  0  0  0  0
  188.9460  175.7630  146.0730 N   0  0  0  0  0  0  0  0  0  0  0  0
  185.3470  178.6370  145.3450 S   0  0  0  0  0  0  0  0  0  0  0  0
  186.2970  177.6910  144.2430 N   0  0  0  0  0  2  0  0  0  0  0  0
  188.8720  178.5750  141.6750 O   0  0  0  0  0  1  0  0  0  0  0  0
  188.3390  176.3750  141.1780 O   0  0  0  0  0  0  0  0  0  0  0  0
  188.2940  177.3970  142.1420 C   0  0  1  0  0  0  0  0  0  0  0  0
  187.0750  176.9360  141.4510 C   0  0  0  0  0  2  0  0  0  0  0  0
  186.6360  180.6730  148.3900 O   0  0  0  0  0  1  0  0  0  0  0  0
  185.6550  179.9320  147.7370 C   0  0  0  0  0  2  0  0  0  0  0  0
  189.1090  174.9160  147.2480 C   0  0  0  0  0  2  0  0  0  0  0  0
  190.3730  175.1170  147.8080 O   0  0  0  0  0  1  0  0  0  0  0  0
  1 11  1  0  0  0  0
  2  3  2  0  0  0  0
  3  9  1  0  0  0  0
  6 16  2  0  0  0  0
  6 17  1  0  0  0  0
  7 15  1  0  0  0  0
  8  4  1  0  0  0  0
  8 31  1  6  0  0  0
 10 19  1  1  0  0  0
 10  7  1  0  0  0  0
 10  1  1  0  0  0  0
 11  3  1  0  0  0  0
 11  4  2  0  0  0  0
 12  2  1  0  0  0  0
 12  5  1  0  0  0  0
 13 15  2  0  0  0  0
 14  1  2  0  0  0  0
 14  2  1  0  0  0  0
 15  8  1  0  0  0  0
 16 14  1  0  0  0  0
 17 12  2  0  0  0  0
 18 19  2  0  0  0  0
 20 18  1  0  0  0  0
 20 21  1  0  0  0  0
 22 18  1  0  0  0  0
 23 22  1  0  0  0  0
 24 28  1  0  0  0  0
 25 26  1  0  0  0  0
 25 24  2  0  0  0  0
 26 30  2  0  0  0  0
 28 29  2  0  0  0  0
 28 23  1  0  0  0  0
 30 27  1  0  0  0  0
 30 29  1  0  0  0  0
 31 32  1  6  0  0  0
 33 35  1  0  0  0  0
 33 31  1  0  0  0  0
 34 36  2  0  0  0  0
 34 45  1  0  0  0  0
 36 35  2  0  0  0  0
 38 45  2  0  0  0  0
 38 42  1  0  0  0  0
 39 47  1  0  0  0  0
 40 37  1  0  0  0  0
 42 46  2  0  0  0  0
 43 48  2  0  0  0  0
 44 37  1  0  0  0  0
 44 55  1  1  0  0  0
 45 39  1  0  0  0  0
 46 47  1  0  0  0  0
 46 40  1  0  0  0  0
 47 56  1  0  0  0  0
 48 41  2  0  0  0  0
 48 44  1  0  0  0  0
 49 42  1  0  0  0  0
 49 48  1  0  0  0  0
 51 53  1  0  0  0  0
 51 52  1  0  0  0  0
 52 50  1  6  0  0  0
 52 38  1  0  0  0  0
 53 52  1  0  0  0  0
 55 54  1  0  0  0  0
 56 57  1  0  0  0  0
M  END
>  <MODEL>
6

>  <REMARK>
 VINA RESULT:      -6.9      3.644      8.552
  Name = 
  12 active torsions:
  status: ('A' for Active; 'I' for Inactive)
    1  A    between atoms: C_1  and  C_6
    2  A    between atoms: C_1  and  C_45
    3  A    between atoms: C_5  and  C_35
    4  A    between atoms: C_6  and  C_13
    5  A    between atoms: C_13  and  C_41
    6  A    between atoms: C_15  and  C_27
    7  A    between atoms: C_15  and  C_57
    8  A    between atoms: C_16  and  C_32
    9  A    between atoms: C_17  and  N_39
   10  A    between atoms: C_25  and  C_30
   11  A    between atoms: C_33  and  C_40
   12  A    between atoms: C_49  and  C_57
                            x       y       z     vdW  Elec       q    Type
                         _______ _______ _______ _____ _____    ______ ____

>  <TORSDO>
F 12

$$$$
=
 OpenBabel11072409093D

 57 63  0  0  1  0  0  0  0  0999 V2000
  187.9240  176.9480  144.6170 C   0  0  0  0  0  0  0  0  0  0  0  0
  186.0270  177.9340  145.3180 C   0  0  0  0  0  0  0  0  0  0  0  0
  186.5070  177.3760  146.4270 C   0  0  0  0  0  0  0  0  0  0  0  0
  188.6010  176.1690  146.9610 C   0  0  0  0  0  3  0  0  0  0  0  0
  184.0090  178.9300  146.1820 F   0  0  0  0  0  0  0  0  0  0  0  0
  185.3530  178.8160  142.7640 C   0  0  0  0  0  3  0  0  0  0  0  0
  190.2060  175.9430  144.1500 C   0  0  0  0  0  2  0  0  0  0  0  0
  190.0140  175.7030  146.7250 C   0  0  1  0  0  3  0  0  0  0  0  0
  185.8950  177.4330  147.7890 C   0  0  0  0  0  1  0  0  0  0  0  0
  188.7930  176.2050  143.6400 C   0  0  1  0  0  3  0  0  0  0  0  0
  187.7690  176.7250  146.0710 C   0  0  0  0  0  0  0  0  0  0  0  0
  184.8410  178.6650  145.1450 C   0  0  0  0  0  0  0  0  0  0  0  0
  190.3230  173.8730  145.2710 O   0  0  0  0  0  0  0  0  0  0  0  0
  186.8650  177.6670  144.2450 C   0  0  0  0  0  0  0  0  0  0  0  0
  190.2030  175.0830  145.3740 C   0  0  0  0  0  0  0  0  0  0  0  0
  186.5380  178.0850  142.9520 C   0  0  0  0  0  3  0  0  0  0  0  0
  184.5100  179.1060  143.8540 C   0  0  0  0  0  3  0  0  0  0  0  0
  188.3810  174.3190  142.0260 C   0  0  0  0  0  0  0  0  0  0  0  0
  188.1100  174.9450  143.1800 C   0  0  0  0  0  3  0  0  0  0  0  0
  187.6560  173.0550  141.6980 C   0  0  0  0  0  2  0  0  0  0  0  0
  188.1420  171.9120  142.5720 C   0  0  0  0  0  1  0  0  0  0  0  0
  189.4470  174.7900  141.0740 C   0  0  0  0  0  2  0  0  0  0  0  0
  190.6600  173.8610  141.0430 C   0  0  0  0  0  2  0  0  0  0  0  0
  192.2090  173.7030  139.0620 C   0  0  0  0  0  3  0  0  0  0  0  0
  192.4850  173.2600  137.7630 C   0  0  0  0  0  3  0  0  0  0  0  0
  191.5310  172.5110  137.0580 C   0  0  0  0  0  3  0  0  0  0  0  0
  189.3730  171.4880  136.9650 F   0  0  0  0  0  0  0  0  0  0  0  0
  190.9800  173.3890  139.6600 C   0  0  0  0  0  0  0  0  0  0  0  0
  190.0260  172.6470  138.9490 C   0  0  0  0  0  3  0  0  0  0  0  0
  190.3010  172.2050  137.6510 C   0  0  0  0  0  0  0  0  0  0  0  0
  191.0120  176.8370  147.0100 C   0  0  1  0  0  3  0  0  0  0  0  0
  190.5890  177.5830  148.1140 O   0  0  0  0  0  1  0  0  0  0  0  0
  192.4070  176.2990  147.2910 C   0  0  0  0  0  2  0  0  0  0  0  0
  195.4540  174.9280  145.9210 C   0  0  0  0  0  3  0  0  0  0  0  0
  193.0000  175.8040  146.0200 C   0  0  0  0  0  3  0  0  0  0  0  0
  194.2310  175.3800  145.9800 C   0  0  0  0  0  0  0  0  0  0  0  0
  196.7010  170.0240  141.5780 C   0  0  0  0  0  2  0  0  0  0  0  0
  196.1190  174.1470  143.6790 C   0  0  0  0  0  0  0  0  0  0  0  0
  195.8630  172.4370  145.4560 C   0  0  0  0  0  2  0  0  0  0  0  0
  197.6720  170.8540  142.4170 C   0  0  0  0  0  2  0  0  0  0  0  0
  197.9310  171.9520  139.4580 O   0  0  0  0  0  0  0  0  0  0  0  0
  196.6350  173.0860  142.7670 C   0  0  0  0  0  0  0  0  0  0  0  0
  195.7480  172.9890  139.0210 O   0  0  0  0  0  0  0  0  0  0  0  0
  195.7830  170.8540  140.6780 C   0  0  1  0  0  3  0  0  0  0  0  0
  195.8520  173.8650  144.9750 C   0  0  0  0  0  0  0  0  0  0  0  0
  196.9690  171.8760  143.2680 C   0  0  0  0  0  0  0  0  0  0  0  0
  196.7430  171.5950  144.6610 N   0  0  0  0  0  0  0  0  0  0  0  0
  196.6030  172.3220  140.0580 S   0  0  0  0  0  0  0  0  0  0  0  0
  196.8430  173.4170  141.3820 N   0  0  0  0  0  2  0  0  0  0  0  0
  196.9340  176.5130  143.5020 O   0  0  0  0  0  1  0  0  0  0  0  0
  195.6280  175.6340  141.8000 O   0  0  0  0  0  0  0  0  0  0  0  0
  195.9780  175.5580  143.1590 C   0  0  1  0  0  0  0  0  0  0  0  0
  194.6600  176.0630  142.7300 C   0  0  0  0  0  2  0  0  0  0  0  0
  193.9460  170.2590  139.2690 O   0  0  0  0  0  1  0  0  0  0  0  0
  195.2830  169.9800  139.5390 C   0  0  0  0  0  2  0  0  0  0  0  0
  197.2790  170.3990  145.2990 C   0  0  0  0  0  2  0  0  0  0  0  0
  196.2860  169.4190  145.3830 O   0  0  0  0  0  1  0  0  0  0  0  0
  1 11  1  0  0  0  0
  2  3  2  0  0  0  0
  3  9  1  0  0  0  0
  6 16  2  0  0  0  0
  6 17  1  0  0  0  0
  7 15  1  0  0  0  0
  8  4  1  0  0  0  0
  8 31  1  6  0  0  0
 10 19  1  1  0  0  0
 10  7  1  0  0  0  0
 10  1  1  0  0  0  0
 11  3  1  0  0  0  0
 11  4  2  0  0  0  0
 12  2  1  0  0  0  0
 12  5  1  0  0  0  0
 13 15  2  0  0  0  0
 14  1  2  0  0  0  0
 14  2  1  0  0  0  0
 15  8  1  0  0  0  0
 16 14  1  0  0  0  0
 17 12  2  0  0  0  0
 18 19  2  0  0  0  0
 20 18  1  0  0  0  0
 20 21  1  0  0  0  0
 22 18  1  0  0  0  0
 23 22  1  0  0  0  0
 24 28  1  0  0  0  0
 25 24  2  0  0  0  0
 26 30  2  0  0  0  0
 26 25  1  0  0  0  0
 27 30  1  0  0  0  0
 28 23  1  0  0  0  0
 29 28  2  0  0  0  0
 30 29  1  0  0  0  0
 31 33  1  0  0  0  0
 31 32  1  1  0  0  0
 34 36  2  0  0  0  0
 35 33  1  0  0  0  0
 36 35  2  0  0  0  0
 37 40  1  0  0  0  0
 38 45  2  0  0  0  0
 40 46  1  0  0  0  0
 41 48  2  0  0  0  0
 42 46  2  0  0  0  0
 42 38  1  0  0  0  0
 43 48  2  0  0  0  0
 44 55  1  6  0  0  0
 44 37  1  0  0  0  0
 45 39  1  0  0  0  0
 45 34  1  0  0  0  0
 46 47  1  0  0  0  0
 47 56  1  0  0  0  0
 47 39  1  0  0  0  0
 48 44  1  0  0  0  0
 48 49  1  0  0  0  0
 49 42  1  0  0  0  0
 51 53  1  0  0  0  0
 51 52  1  0  0  0  0
 52 50  1  1  0  0  0
 52 38  1  0  0  0  0
 53 52  1  0  0  0  0
 54 55  1  0  0  0  0
 56 57  1  0  0  0  0
M  END
>  <MODEL>
7

>  <REMARK>
 VINA RESULT:      -6.5      1.573      2.888
  Name = 
  12 active torsions:
  status: ('A' for Active; 'I' for Inactive)
    1  A    between atoms: C_1  and  C_6
    2  A    between atoms: C_1  and  C_45
    3  A    between atoms: C_5  and  C_35
    4  A    between atoms: C_6  and  C_13
    5  A    between atoms: C_13  and  C_41
    6  A    between atoms: C_15  and  C_27
    7  A    between atoms: C_15  and  C_57
    8  A    between atoms: C_16  and  C_32
    9  A    between atoms: C_17  and  N_39
   10  A    between atoms: C_25  and  C_30
   11  A    between atoms: C_33  and  C_40
   12  A    between atoms: C_49  and  C_57
                            x       y       z     vdW  Elec       q    Type
                         _______ _______ _______ _____ _____    ______ ____

>  <TORSDO>
F 12

$$$$
=
 OpenBabel11072409093D

 57 63  0  0  1  0  0  0  0  0999 V2000
  194.0430  173.7780  141.2890 C   0  0  0  0  0  0  0  0  0  0  0  0
  192.7500  172.0480  141.9170 C   0  0  0  0  0  0  0  0  0  0  0  0
  193.8210  171.9260  142.6970 C   0  0  0  0  0  0  0  0  0  0  0  0
  195.8400  173.3120  143.0530 C   0  0  0  0  0  3  0  0  0  0  0  0
  191.4630  170.1490  142.6600 F   0  0  0  0  0  0  0  0  0  0  0  0
  190.7880  172.6210  140.0260 C   0  0  0  0  0  3  0  0  0  0  0  0
  195.5870  175.7600  140.9390 C   0  0  0  0  0  2  0  0  0  0  0  0
  196.6840  174.5550  142.9570 C   0  0  1  0  0  3  0  0  0  0  0  0
  194.0510  170.8750  143.7350 C   0  0  0  0  0  1  0  0  0  0  0  0
  194.6360  174.7510  140.3070 C   0  0  1  0  0  3  0  0  0  0  0  0
  194.7180  173.0360  142.3760 C   0  0  0  0  0  0  0  0  0  0  0  0
  191.6150  171.2240  141.8480 C   0  0  0  0  0  0  0  0  0  0  0  0
  197.8020  174.9520  140.9190 O   0  0  0  0  0  0  0  0  0  0  0  0
  192.8920  173.1410  141.0750 C   0  0  0  0  0  0  0  0  0  0  0  0
  196.7730  175.0910  141.5600 C   0  0  0  0  0  0  0  0  0  0  0  0
  191.9280  173.4370  140.1070 C   0  0  0  0  0  3  0  0  0  0  0  0
  190.6310  171.5220  140.8910 C   0  0  0  0  0  3  0  0  0  0  0  0
  194.8180  174.0700  137.8910 C   0  0  0  0  0  0  0  0  0  0  0  0
  195.2650  174.0170  139.1540 C   0  0  0  0  0  3  0  0  0  0  0  0
  195.5520  173.3210  136.8290 C   0  0  0  0  0  2  0  0  0  0  0  0
  196.9210  173.9330  136.5840 C   0  0  0  0  0  1  0  0  0  0  0  0
  193.6470  174.9200  137.4770 C   0  0  0  0  0  2  0  0  0  0  0  0
  193.0420  174.4780  136.1450 C   0  0  0  0  0  2  0  0  0  0  0  0
  190.5560  174.3510  136.5360 C   0  0  0  0  0  3  0  0  0  0  0  0
  189.3870  173.6020  136.7110 C   0  0  0  0  0  3  0  0  0  0  0  0
  189.4400  172.2000  136.6840 C   0  0  0  0  0  3  0  0  0  0  0  0
  190.7140  170.1900  136.4650 F   0  0  0  0  0  0  0  0  0  0  0  0
  191.7800  173.6980  136.3240 C   0  0  0  0  0  0  0  0  0  0  0  0
  191.8290  172.2970  136.3050 C   0  0  0  0  0  3  0  0  0  0  0  0
  190.6610  171.5470  136.4820 C   0  0  0  0  0  0  0  0  0  0  0  0
  196.2150  175.6090  143.9740 C   0  0  1  0  0  3  0  0  0  0  0  0
  195.9990  176.8320  143.3320 O   0  0  0  0  0  1  0  0  0  0  0  0
  194.9270  175.1870  144.6660 C   0  0  0  0  0  2  0  0  0  0  0  0
  191.4170  174.9860  143.8430 C   0  0  0  0  0  3  0  0  0  0  0  0
  193.8020  175.9990  144.1300 C   0  0  0  0  0  3  0  0  0  0  0  0
  192.6180  175.4790  143.9790 C   0  0  0  0  0  0  0  0  0  0  0  0
  185.6510  178.2710  144.5030 C   0  0  0  0  0  2  0  0  0  0  0  0
  189.8170  176.2900  145.1920 C   0  0  0  0  0  0  0  0  0  0  0  0
  189.3500  176.0620  142.7680 C   0  0  0  0  0  2  0  0  0  0  0  0
  187.0590  178.8120  144.2540 C   0  0  0  0  0  2  0  0  0  0  0  0
  186.4160  179.4440  147.2900 O   0  0  0  0  0  0  0  0  0  0  0  0
  188.6630  177.2270  145.3010 C   0  0  0  0  0  0  0  0  0  0  0  0
  186.2990  177.2270  148.3420 O   0  0  0  0  0  0  0  0  0  0  0  0
  185.5270  177.4020  145.7570 C   0  0  1  0  0  3  0  0  0  0  0  0
  190.2050  175.8210  143.9840 C   0  0  0  0  0  0  0  0  0  0  0  0
  188.0900  177.7190  144.1800 C   0  0  0  0  0  0  0  0  0  0  0  0
  188.5450  177.2680  142.8920 N   0  0  0  0  0  0  0  0  0  0  0  0
  186.6040  177.9690  147.0730 S   0  0  0  0  0  0  0  0  0  0  0  0
  188.2460  177.6490  146.6140 N   0  0  0  0  0  2  0  0  0  0  0  0
  191.6160  176.7850  146.8680 O   0  0  0  0  0  1  0  0  0  0  0  0
  189.8000  175.4930  147.5050 O   0  0  0  0  0  0  0  0  0  0  0  0
  190.5980  175.9370  146.4370 C   0  0  1  0  0  0  0  0  0  0  0  0
  190.6520  174.5410  146.9080 C   0  0  0  0  0  2  0  0  0  0  0  0
  183.5320  178.6650  146.1350 O   0  0  0  0  0  1  0  0  0  0  0  0
  184.0740  177.3840  146.2050 C   0  0  0  0  0  2  0  0  0  0  0  0
  188.1210  177.9180  141.6580 C   0  0  0  0  0  2  0  0  0  0  0  0
  187.0540  177.2160  141.0930 O   0  0  0  0  0  1  0  0  0  0  0  0
  1 11  1  0  0  0  0
  2  3  2  0  0  0  0
  3  9  1  0  0  0  0
  6 16  2  0  0  0  0
  6 17  1  0  0  0  0
  7 15  1  0  0  0  0
  8  4  1  0  0  0  0
  8 31  1  1  0  0  0
 10 19  1  6  0  0  0
 10  7  1  0  0  0  0
 10  1  1  0  0  0  0
 11  3  1  0  0  0  0
 11  4  2  0  0  0  0
 12  2  1  0  0  0  0
 12  5  1  0  0  0  0
 13 15  2  0  0  0  0
 14  1  2  0  0  0  0
 14  2  1  0  0  0  0
 15  8  1  0  0  0  0
 16 14  1  0  0  0  0
 17 12  2  0  0  0  0
 18 19  2  0  0  0  0
 20 18  1  0  0  0  0
 21 20  1  0  0  0  0
 22 18  1  0  0  0  0
 23 28  1  0  0  0  0
 23 22  1  0  0  0  0
 24 25  1  0  0  0  0
 26 25  2  0  0  0  0
 27 30  1  0  0  0  0
 28 24  2  0  0  0  0
 29 28  1  0  0  0  0
 29 30  2  0  0  0  0
 30 26  1  0  0  0  0
 31 32  1  6  0  0  0
 31 33  1  0  0  0  0
 34 36  2  0  0  0  0
 34 45  1  0  0  0  0
 35 33  1  0  0  0  0
 36 35  2  0  0  0  0
 37 44  1  0  0  0  0
 38 42  1  0  0  0  0
 38 52  1  0  0  0  0
 39 47  1  0  0  0  0
 39 45  1  0  0  0  0
 40 37  1  0  0  0  0
 42 49  1  0  0  0  0
 44 55  1  1  0  0  0
 44 48  1  0  0  0  0
 45 38  2  0  0  0  0
 46 40  1  0  0  0  0
 46 42  2  0  0  0  0
 47 46  1  0  0  0  0
 48 41  2  0  0  0  0
 48 43  2  0  0  0  0
 49 48  1  0  0  0  0
 52 50  1  1  0  0  0
 52 53  1  0  0  0  0
 52 51  1  0  0  0  0
 53 51  1  0  0  0  0
 54 55  1  0  0  0  0
 56 47  1  0  0  0  0
 57 56  1  0  0  0  0
M  END
>  <MODEL>
8

>  <REMARK>
 VINA RESULT:      -6.4      3.643      8.728
  Name = 
  12 active torsions:
  status: ('A' for Active; 'I' for Inactive)
    1  A    between atoms: C_1  and  C_6
    2  A    between atoms: C_1  and  C_45
    3  A    between atoms: C_5  and  C_35
    4  A    between atoms: C_6  and  C_13
    5  A    between atoms: C_13  and  C_41
    6  A    between atoms: C_15  and  C_27
    7  A    between atoms: C_15  and  C_57
    8  A    between atoms: C_16  and  C_32
    9  A    between atoms: C_17  and  N_39
   10  A    between atoms: C_25  and  C_30
   11  A    between atoms: C_33  and  C_40
   12  A    between atoms: C_49  and  C_57
                            x       y       z     vdW  Elec       q    Type
                         _______ _______ _______ _____ _____    ______ ____

>  <TORSDO>
F 12

$$$$
=
 OpenBabel11072409093D

 57 63  0  0  1  0  0  0  0  0999 V2000
  187.7330  176.5360  145.1710 C   0  0  0  0  0  0  0  0  0  0  0  0
  186.0570  178.0340  145.2580 C   0  0  0  0  0  0  0  0  0  0  0  0
  186.5290  178.1780  144.0220 C   0  0  0  0  0  0  0  0  0  0  0  0
  188.2480  176.9830  142.7020 C   0  0  0  0  0  2  0  0  0  0  0  0
  184.3000  179.6850  145.2370 F   0  0  0  0  0  0  0  0  0  0  0  0
  185.4860  177.4790  147.9260 C   0  0  0  0  0  3  0  0  0  0  0  0
  189.5130  174.7840  144.7260 C   0  0  0  0  0  2  0  0  0  0  0  0
  189.1960  175.8560  142.3850 C   0  0  1  0  0  3  0  0  0  0  0  0
  186.0200  179.1190  142.9790 C   0  0  0  0  0  1  0  0  0  0  0  0
  188.8920  175.7530  145.7250 C   0  0  1  0  0  3  0  0  0  0  0  0
  187.6190  177.2150  143.8610 C   0  0  0  0  0  0  0  0  0  0  0  0
  185.0150  178.7340  145.8880 C   0  0  2  0  0  3  0  0  0  0  0  0
  191.2590  175.8210  143.5270 O   0  0  0  0  0  0  0  0  0  0  0  0
  186.7820  177.0670  145.9390 C   0  0  0  0  0  0  0  0  0  0  0  0
  190.0820  175.4990  143.5410 C   0  0  0  0  0  0  0  0  0  0  0  0
  186.5240  176.7850  147.2830 C   0  0  0  0  0  3  0  0  0  0  0  0
  184.7350  178.4460  147.2320 C   0  0  0  0  0  3  0  0  0  0  0  0
  191.0340  176.2700  146.9400 C   0  0  0  0  0  0  0  0  0  0  0  0
  189.9100  176.6790  146.3320 C   0  0  0  0  0  3  0  0  0  0  0  0
  191.9830  177.2910  147.4730 C   0  0  0  0  0  2  0  0  0  0  0  0
  191.5690  177.7400  148.8650 C   0  0  0  0  0  1  0  0  0  0  0  0
  191.4230  174.8200  147.0420 C   0  0  0  0  0  2  0  0  0  0  0  0
  192.9310  174.6060  146.9060 C   0  0  0  0  0  2  0  0  0  0  0  0
  192.7130  173.0450  144.9400 C   0  0  0  0  0  3  0  0  0  0  0  0
  193.0990  172.6410  143.6570 C   0  0  0  0  0  3  0  0  0  0  0  0
  194.0980  173.3470  142.9680 C   0  0  0  0  0  3  0  0  0  0  0  0
  195.6820  175.1340  142.8990 F   0  0  0  0  0  0  0  0  0  0  0  0
  193.3200  174.1630  145.5330 C   0  0  0  0  0  0  0  0  0  0  0  0
  194.3220  174.8600  144.8430 C   0  0  0  0  0  3  0  0  0  0  0  0
  194.7100  174.4560  143.5610 C   0  0  0  0  0  0  0  0  0  0  0  0
  188.4310  174.6470  141.8210 C   0  0  1  0  0  3  0  0  0  0  0  0
  187.0660  174.7720  142.0960 O   0  0  0  0  0  1  0  0  0  0  0  0
  188.6150  174.5200  140.3160 C   0  0  0  0  0  2  0  0  0  0  0  0
  191.0760  173.7420  137.7900 C   0  0  0  0  0  3  0  0  0  0  0  0
  189.7700  173.6230  140.0440 C   0  0  0  0  0  3  0  0  0  0  0  0
  190.4070  173.6830  138.9100 C   0  0  0  0  0  0  0  0  0  0  0  0
  197.4920  171.9310  137.8610 C   0  0  0  0  0  2  0  0  0  0  0  0
  193.0100  172.6100  136.7650 C   0  0  0  0  0  0  0  0  0  0  0  0
  193.4250  173.9680  138.7970 C   0  0  0  0  0  2  0  0  0  0  0  0
  196.8150  173.0930  137.1350 C   0  0  0  0  0  2  0  0  0  0  0  0
  197.4430  170.9320  134.9070 O   0  0  0  0  0  0  0  0  0  0  0  0
  194.4800  172.4000  136.6350 C   0  0  0  0  0  0  0  0  0  0  0  0
  195.9830  169.0440  135.4870 O   0  0  0  0  0  0  0  0  0  0  0  0
  196.9050  170.5570  137.5300 C   0  0  1  0  0  3  0  0  0  0  0  0
  192.5180  173.4310  137.7210 C   0  0  0  0  0  0  0  0  0  0  0  0
  195.3320  173.1380  137.3810 C   0  0  0  0  0  0  0  0  0  0  0  0
  194.8090  174.0590  138.3560 N   0  0  0  0  0  0  0  0  0  0  0  0
  196.3520  170.4590  135.8270 S   0  0  0  0  0  0  0  0  0  0  0  0
  194.9530  171.4680  135.6440 N   0  0  0  0  0  2  0  0  0  0  0  0
  191.8770  172.5680  134.5270 O   0  0  0  0  0  1  0  0  0  0  0  0
  192.2600  170.5710  135.6400 O   0  0  0  0  0  0  0  0  0  0  0  0
  192.0840  171.9600  135.7640 C   0  0  1  0  0  0  0  0  0  0  0  0
  191.0510  171.0100  136.2170 C   0  0  0  0  0  2  0  0  0  0  0  0
  197.6490  168.8660  139.0460 O   0  0  0  0  0  1  0  0  0  0  0  0
  197.9410  169.4880  137.8340 C   0  0  0  0  0  2  0  0  0  0  0  0
  195.6620  175.0300  139.0280 C   0  0  0  0  0  2  0  0  0  0  0  0
  194.9400  175.6870  140.0280 O   0  0  0  0  0  1  0  0  0  0  0  0
  1 10  1  0  0  0  0
  1 14  1  0  0  0  0
  2 12  1  0  0  0  0
  2 14  1  0  0  0  0
  3  2  2  0  0  0  0
  4 11  1  0  0  0  0
  7 10  1  0  0  0  0
  8 31  1  1  0  0  0
  8  4  1  0  0  0  0
  8 15  1  0  0  0  0
  9  3  1  0  0  0  0
 10 19  1  6  0  0  0
 11  3  1  0  0  0  0
 11  1  2  0  0  0  0
 12  5  1  1  0  0  0
 12 17  1  0  0  0  0
 13 15  2  0  0  0  0
 14 16  2  0  0  0  0
 15  7  1  0  0  0  0
 16  6  1  0  0  0  0
 17  6  2  0  0  0  0
 18 22  1  0  0  0  0
 18 20  1  0  0  0  0
 19 18  2  0  0  0  0
 20 21  1  0  0  0  0
 23 22  1  0  0  0  0
 24 28  1  0  0  0  0
 25 24  2  0  0  0  0
 26 30  2  0  0  0  0
 26 25  1  0  0  0  0
 27 30  1  0  0  0  0
 28 23  1  0  0  0  0
 29 28  2  0  0  0  0
 30 29  1  0  0  0  0
 31 32  1  6  0  0  0
 33 31  1  0  0  0  0
 34 36  2  0  0  0  0
 35 33  1  0  0  0  0
 36 35  2  0  0  0  0
 38 45  2  0  0  0  0
 40 46  1  0  0  0  0
 40 37  1  0  0  0  0
 41 48  2  0  0  0  0
 42 38  1  0  0  0  0
 42 46  2  0  0  0  0
 43 48  2  0  0  0  0
 44 55  1  6  0  0  0
 44 37  1  0  0  0  0
 45 34  1  0  0  0  0
 45 39  1  0  0  0  0
 46 47  1  0  0  0  0
 47 39  1  0  0  0  0
 47 56  1  0  0  0  0
 48 44  1  0  0  0  0
 49 48  1  0  0  0  0
 49 42  1  0  0  0  0
 51 52  1  0  0  0  0
 51 53  1  0  0  0  0
 52 50  1  6  0  0  0
 52 53  1  0  0  0  0
 52 38  1  0  0  0  0
 55 54  1  0  0  0  0
 56 57  1  0  0  0  0
M  END
>  <MODEL>
9

>  <REMARK>
 VINA RESULT:      -6.3      2.404      5.476
  Name = 
  12 active torsions:
  status: ('A' for Active; 'I' for Inactive)
    1  A    between atoms: C_1  and  C_6
    2  A    between atoms: C_1  and  C_45
    3  A    between atoms: C_5  and  C_35
    4  A    between atoms: C_6  and  C_13
    5  A    between atoms: C_13  and  C_41
    6  A    between atoms: C_15  and  C_27
    7  A    between atoms: C_15  and  C_57
    8  A    between atoms: C_16  and  C_32
    9  A    between atoms: C_17  and  N_39
   10  A    between atoms: C_25  and  C_30
   11  A    between atoms: C_33  and  C_40
   12  A    between atoms: C_49  and  C_57
                            x       y       z     vdW  Elec       q    Type
                         _______ _______ _______ _____ _____    ______ ____

>  <TORSDO>
F 12

$$$$
