=
 OpenBabel11062422463D

 29 31  0  0  1  0  0  0  0  0999 V2000
  192.0200  176.2990  147.4490 N   0  0  0  0  0  0  0  0  0  0  0  0
  189.3280  178.5580  148.2500 F   0  0  0  0  0  0  0  0  0  0  0  0
  190.0050  177.5350  147.6680 C   0  0  0  0  0  0  0  0  0  0  0  0
  191.4640  175.5230  146.5190 N   0  0  0  0  0  0  0  0  0  0  0  0
  190.1790  175.7010  146.1080 C   0  0  0  0  0  0  0  0  0  0  0  0
  191.3250  177.3040  148.0370 C   0  0  0  0  0  3  0  0  0  0  0  0
  189.4050  176.7310  146.6840 C   0  0  0  0  0  0  0  0  0  0  0  0
  184.5960  179.4930  144.9510 C   0  0  0  0  0  1  0  0  0  0  0  0
  186.8850  176.3150  147.0420 C   0  0  0  0  0  2  0  0  0  0  0  0
  185.9120  177.3300  147.6320 C   0  0  0  0  0  2  0  0  0  0  0  0
  188.0010  176.9750  146.2750 C   0  0  0  0  0  0  0  0  0  0  0  0
  186.3730  178.0080  144.6880 C   0  0  0  0  0  2  0  0  0  0  0  0
  184.9570  177.8510  146.5650 C   0  0  0  0  0  2  0  0  0  0  0  0
  187.7540  177.7210  145.1900 C   0  0  0  0  0  3  0  0  0  0  0  0
  185.6360  178.7850  145.6760 N   0  0  0  0  0  0  0  0  0  0  0  0
  189.6030  174.7620  145.0880 C   0  0  2  0  0  3  0  0  0  0  0  0
  189.8790  173.4370  145.4330 O   0  0  0  0  0  1  0  0  0  0  0  0
  191.1880  174.7160  143.3070 O   0  0  0  0  0  0  0  0  0  0  0  0
  190.0470  175.0950  143.6860 C   0  0  0  0  0  0  0  0  0  0  0  0
  187.4630  176.3680  141.2000 C   0  0  0  0  0  3  0  0  0  0  0  0
  189.2570  175.9650  142.7930 C   0  0  0  0  0  0  0  0  0  0  0  0
  189.6280  177.3120  142.6860 C   0  0  0  0  0  3  0  0  0  0  0  0
  188.1630  175.4890  142.0330 C   0  0  0  0  0  0  0  0  0  0  0  0
  187.8330  177.7110  141.1160 C   0  0  0  0  0  3  0  0  0  0  0  0
  188.9180  178.1830  141.8560 C   0  0  0  0  0  3  0  0  0  0  0  0
  187.7760  174.0470  142.0180 C   0  0  0  0  0  2  0  0  0  0  0  0
  189.3860  172.2410  141.3170 C   0  0  0  0  0  3  0  0  0  0  0  0
  189.4970  171.8310  142.5030 O   0  0  0  0  0  0  0  0  0  0  0  0
  188.5390  173.3440  140.9980 N   0  0  0  0  0  2  0  0  0  0  0  0
  1  6  1  0  0  0  0
  3  6  2  0  0  0  0
  3  2  1  0  0  0  0
  4  1  2  0  0  0  0
  5  4  1  0  0  0  0
  5  7  2  0  0  0  0
  7  3  1  0  0  0  0
  8 15  1  0  0  0  0
  9 10  1  0  0  0  0
 11  7  1  0  0  0  0
 11  9  1  0  0  0  0
 12 14  1  0  0  0  0
 12 15  1  0  0  0  0
 13 10  1  0  0  0  0
 14 11  2  0  0  0  0
 15 13  1  0  0  0  0
 16 17  1  1  0  0  0
 16  5  1  0  0  0  0
 18 19  2  0  0  0  0
 19 16  1  0  0  0  0
 20 23  1  0  0  0  0
 21 19  1  0  0  0  0
 22 21  1  0  0  0  0
 23 21  2  0  0  0  0
 24 20  2  0  0  0  0
 24 25  1  0  0  0  0
 25 22  2  0  0  0  0
 26 23  1  0  0  0  0
 27 28  2  0  0  0  0
 29 27  1  0  0  0  0
 29 26  1  0  0  0  0
M  END
>  <MODEL>
1

>  <REMARK>
 VINA RESULT:      -6.8      0.000      0.000
  Name = 
  6 active torsions:
  status: ('A' for Active; 'I' for Inactive)
    1  A    between atoms: C_5  and  C_20
    2  A    between atoms: C_5  and  N_23
    3  A    between atoms: C_8  and  C_14
    4  A    between atoms: C_8  and  C_19
    5  A    between atoms: C_12  and  C_19
    6  A    between atoms: C_16  and  C_26
                            x       y       z     vdW  Elec       q    Type
                         _______ _______ _______ _____ _____    ______ ____

>  <TORSDO>
F 6

$$$$
=
 OpenBabel11062422463D

 29 31  0  0  1  0  0  0  0  0999 V2000
  191.9730  176.0030  147.5860 N   0  0  0  0  0  0  0  0  0  0  0  0
  189.5220  178.5770  148.1870 F   0  0  0  0  0  0  0  0  0  0  0  0
  190.0900  177.4440  147.7000 C   0  0  0  0  0  0  0  0  0  0  0  0
  191.3320  175.2020  146.7360 N   0  0  0  0  0  0  0  0  0  0  0  0
  190.0640  175.4650  146.3160 C   0  0  0  0  0  0  0  0  0  0  0  0
  191.3870  177.1210  148.0820 C   0  0  0  0  0  3  0  0  0  0  0  0
  189.4020  176.6140  146.7980 C   0  0  0  0  0  0  0  0  0  0  0  0
  184.8020  179.7070  145.0570 C   0  0  0  0  0  1  0  0  0  0  0  0
  186.8560  176.3520  147.1150 C   0  0  0  0  0  2  0  0  0  0  0  0
  185.9400  177.4150  147.7120 C   0  0  0  0  0  2  0  0  0  0  0  0
  188.0210  176.9550  146.3760 C   0  0  0  0  0  0  0  0  0  0  0  0
  186.4840  178.1180  144.7880 C   0  0  0  0  0  2  0  0  0  0  0  0
  185.0340  178.0160  146.6430 C   0  0  0  0  0  2  0  0  0  0  0  0
  187.8370  177.7340  145.3020 C   0  0  0  0  0  3  0  0  0  0  0  0
  185.7840  178.9210  145.7810 N   0  0  0  0  0  0  0  0  0  0  0  0
  189.3860  174.4960  145.3920 C   0  0  2  0  0  3  0  0  0  0  0  0
  189.5650  173.1860  145.8410 O   0  0  0  0  0  1  0  0  0  0  0  0
  190.8030  174.0150  143.5350 O   0  0  0  0  0  0  0  0  0  0  0  0
  189.8170  174.6750  143.9570 C   0  0  0  0  0  0  0  0  0  0  0  0
  189.2090  177.8540  141.9560 C   0  0  0  0  0  3  0  0  0  0  0  0
  189.2150  175.6940  143.0740 C   0  0  0  0  0  0  0  0  0  0  0  0
  187.9620  175.4200  142.5090 C   0  0  0  0  0  3  0  0  0  0  0  0
  189.8410  176.9310  142.7970 C   0  0  0  0  0  0  0  0  0  0  0  0
  187.9680  177.5610  141.3860 C   0  0  0  0  0  3  0  0  0  0  0  0
  187.3420  176.3450  141.6660 C   0  0  0  0  0  3  0  0  0  0  0  0
  191.1250  177.3330  143.4430 C   0  0  0  0  0  2  0  0  0  0  0  0
  193.3970  176.2980  143.1120 C   0  0  0  0  0  3  0  0  0  0  0  0
  193.4850  176.0150  144.3350 O   0  0  0  0  0  0  0  0  0  0  0  0
  192.2420  176.9560  142.5920 N   0  0  0  0  0  2  0  0  0  0  0  0
  1  6  1  0  0  0  0
  3  6  2  0  0  0  0
  3  2  1  0  0  0  0
  4  1  2  0  0  0  0
  5  4  1  0  0  0  0
  5  7  2  0  0  0  0
  7  3  1  0  0  0  0
  8 15  1  0  0  0  0
  9 10  1  0  0  0  0
 11  7  1  0  0  0  0
 11  9  1  0  0  0  0
 12 14  1  0  0  0  0
 12 15  1  0  0  0  0
 13 10  1  0  0  0  0
 14 11  2  0  0  0  0
 15 13  1  0  0  0  0
 16 17  1  1  0  0  0
 16  5  1  0  0  0  0
 18 19  2  0  0  0  0
 19 16  1  0  0  0  0
 20 23  1  0  0  0  0
 21 19  1  0  0  0  0
 22 21  1  0  0  0  0
 23 21  2  0  0  0  0
 23 26  1  0  0  0  0
 24 25  1  0  0  0  0
 24 20  2  0  0  0  0
 25 22  2  0  0  0  0
 27 28  2  0  0  0  0
 29 27  1  0  0  0  0
 29 26  1  0  0  0  0
M  END
>  <MODEL>
2

>  <REMARK>
 VINA RESULT:      -6.8      1.384      2.290
  Name = 
  6 active torsions:
  status: ('A' for Active; 'I' for Inactive)
    1  A    between atoms: C_5  and  C_20
    2  A    between atoms: C_5  and  N_23
    3  A    between atoms: C_8  and  C_14
    4  A    between atoms: C_8  and  C_19
    5  A    between atoms: C_12  and  C_19
    6  A    between atoms: C_16  and  C_26
                            x       y       z     vdW  Elec       q    Type
                         _______ _______ _______ _____ _____    ______ ____

>  <TORSDO>
F 6

$$$$
=
 OpenBabel11062422463D

 29 31  0  0  1  0  0  0  0  0999 V2000
  190.0470  177.2450  146.7070 N   0  0  0  0  0  0  0  0  0  0  0  0
  191.8190  174.2270  145.8470 F   0  0  0  0  0  0  0  0  0  0  0  0
  190.9880  175.2940  145.7350 C   0  0  0  0  0  0  0  0  0  0  0  0
  189.3060  177.4520  145.6190 N   0  0  0  0  0  0  0  0  0  0  0  0
  189.3500  176.6130  144.5480 C   0  0  0  0  0  0  0  0  0  0  0  0
  190.8890  176.1870  146.7970 C   0  0  0  0  0  3  0  0  0  0  0  0
  190.2090  175.4940  144.5830 C   0  0  0  0  0  0  0  0  0  0  0  0
  190.3040  173.4170  139.1570 C   0  0  0  0  0  1  0  0  0  0  0  0
  189.5650  173.2290  143.5310 C   0  0  0  0  0  2  0  0  0  0  0  0
  188.5690  173.0520  142.3900 C   0  0  0  0  0  2  0  0  0  0  0  0
  190.2980  174.5420  143.4490 C   0  0  0  0  0  0  0  0  0  0  0  0
  191.2520  173.9340  141.2220 C   0  0  0  0  0  2  0  0  0  0  0  0
  189.2800  172.6480  141.1040 C   0  0  0  0  0  2  0  0  0  0  0  0
  191.0820  174.8380  142.4040 C   0  0  0  0  0  3  0  0  0  0  0  0
  189.9820  173.7870  140.5240 N   0  0  0  0  0  0  0  0  0  0  0  0
  188.5210  176.9310  143.3380 C   0  0  2  0  0  3  0  0  0  0  0  0
  188.6670  178.2750  142.9860 O   0  0  0  0  0  1  0  0  0  0  0  0
  186.6000  175.6420  142.7620 O   0  0  0  0  0  0  0  0  0  0  0  0
  187.0770  176.5350  143.5120 C   0  0  0  0  0  0  0  0  0  0  0  0
  184.6120  179.0400  144.9710 C   0  0  0  0  0  3  0  0  0  0  0  0
  186.1670  177.2500  144.4290 C   0  0  0  0  0  0  0  0  0  0  0  0
  186.0330  176.7640  145.7370 C   0  0  0  0  0  3  0  0  0  0  0  0
  185.4510  178.4080  144.0470 C   0  0  0  0  0  0  0  0  0  0  0  0
  184.4740  178.5350  146.2650 C   0  0  0  0  0  3  0  0  0  0  0  0
  185.1880  177.3990  146.6500 C   0  0  0  0  0  3  0  0  0  0  0  0
  185.6230  179.0410  142.7050 C   0  0  0  0  0  2  0  0  0  0  0  0
  185.0920  177.9160  140.5150 C   0  0  0  0  0  3  0  0  0  0  0  0
  186.3070  177.9080  140.1850 O   0  0  0  0  0  0  0  0  0  0  0  0
  184.6750  178.4640  141.7650 N   0  0  0  0  0  2  0  0  0  0  0  0
  1  6  1  0  0  0  0
  3  2  1  0  0  0  0
  3  6  2  0  0  0  0
  4  1  2  0  0  0  0
  5  7  2  0  0  0  0
  5  4  1  0  0  0  0
  7  3  1  0  0  0  0
  8 15  1  0  0  0  0
 10  9  1  0  0  0  0
 11  9  1  0  0  0  0
 11  7  1  0  0  0  0
 12 14  1  0  0  0  0
 13 10  1  0  0  0  0
 14 11  2  0  0  0  0
 15 13  1  0  0  0  0
 15 12  1  0  0  0  0
 16 17  1  1  0  0  0
 16 19  1  0  0  0  0
 16  5  1  0  0  0  0
 18 19  2  0  0  0  0
 19 21  1  0  0  0  0
 20 24  1  0  0  0  0
 21 22  2  0  0  0  0
 22 25  1  0  0  0  0
 23 21  1  0  0  0  0
 23 20  2  0  0  0  0
 24 25  2  0  0  0  0
 26 23  1  0  0  0  0
 27 29  1  0  0  0  0
 28 27  2  0  0  0  0
 29 26  1  0  0  0  0
M  END
>  <MODEL>
3

>  <REMARK>
 VINA RESULT:      -6.7      2.646      5.597
  Name = 
  6 active torsions:
  status: ('A' for Active; 'I' for Inactive)
    1  A    between atoms: C_5  and  C_20
    2  A    between atoms: C_5  and  N_23
    3  A    between atoms: C_8  and  C_14
    4  A    between atoms: C_8  and  C_19
    5  A    between atoms: C_12  and  C_19
    6  A    between atoms: C_16  and  C_26
                            x       y       z     vdW  Elec       q    Type
                         _______ _______ _______ _____ _____    ______ ____

>  <TORSDO>
F 6

$$$$
=
 OpenBabel11062422463D

 29 31  0  0  1  0  0  0  0  0999 V2000
  186.6880  177.7050  140.3920 N   0  0  0  0  0  0  0  0  0  0  0  0
  183.8680  178.2200  142.5780 F   0  0  0  0  0  0  0  0  0  0  0  0
  185.1490  178.0250  142.1720 C   0  0  0  0  0  0  0  0  0  0  0  0
  187.6940  177.5900  141.2590 N   0  0  0  0  0  0  0  0  0  0  0  0
  187.4990  177.6750  142.6030 C   0  0  0  0  0  0  0  0  0  0  0  0
  185.4170  177.9200  140.8110 C   0  0  0  0  0  3  0  0  0  0  0  0
  186.1970  177.9000  143.0990 C   0  0  0  0  0  0  0  0  0  0  0  0
  186.6910  179.4160  148.6870 C   0  0  0  0  0  1  0  0  0  0  0  0
  185.5530  176.7560  145.3200 C   0  0  0  0  0  2  0  0  0  0  0  0
  186.5190  176.4780  146.4660 C   0  0  0  0  0  2  0  0  0  0  0  0
  185.9210  177.9990  144.5540 C   0  0  0  0  0  0  0  0  0  0  0  0
  185.6540  179.4060  146.6000 C   0  0  0  0  0  2  0  0  0  0  0  0
  186.2210  177.3780  147.6590 C   0  0  0  0  0  2  0  0  0  0  0  0
  185.9370  179.2020  145.1430 C   0  0  0  0  0  3  0  0  0  0  0  0
  186.6720  178.7410  147.4020 N   0  0  0  0  0  0  0  0  0  0  0  0
  188.6840  177.5810  143.5200 C   0  0  2  0  0  3  0  0  0  0  0  0
  189.7680  178.2830  142.9890 O   0  0  0  0  0  1  0  0  0  0  0  0
  188.2380  175.2380  143.5170 O   0  0  0  0  0  0  0  0  0  0  0  0
  189.0340  176.1540  143.8600 C   0  0  0  0  0  0  0  0  0  0  0  0
  192.4780  175.0170  145.0080 C   0  0  0  0  0  3  0  0  0  0  0  0
  190.1980  175.8040  144.6970 C   0  0  0  0  0  0  0  0  0  0  0  0
  190.0710  175.9250  146.0870 C   0  0  0  0  0  3  0  0  0  0  0  0
  191.4170  175.3370  144.1540 C   0  0  0  0  0  0  0  0  0  0  0  0
  192.3440  175.1580  146.3900 C   0  0  0  0  0  3  0  0  0  0  0  0
  191.1380  175.6080  146.9310 C   0  0  0  0  0  3  0  0  0  0  0  0
  191.5900  175.0860  142.6920 C   0  0  0  0  0  2  0  0  0  0  0  0
  190.3740  173.3010  141.3970 C   0  0  0  0  0  3  0  0  0  0  0  0
  189.7500  174.1630  140.7260 O   0  0  0  0  0  0  0  0  0  0  0  0
  191.3150  173.6890  142.3980 N   0  0  0  0  0  2  0  0  0  0  0  0
  1  6  2  0  0  0  0
  1  4  1  0  0  0  0
  3  2  1  0  0  0  0
  3  7  2  0  0  0  0
  4  5  2  0  0  0  0
  5  7  1  0  0  0  0
  5 16  1  0  0  0  0
  6  3  1  0  0  0  0
  7 11  1  0  0  0  0
  9 10  1  0  0  0  0
 10 13  1  0  0  0  0
 11 14  2  0  0  0  0
 11  9  1  0  0  0  0
 12 15  1  0  0  0  0
 14 12  1  0  0  0  0
 15 13  1  0  0  0  0
 15  8  1  0  0  0  0
 16 17  1  6  0  0  0
 16 19  1  0  0  0  0
 18 19  2  0  0  0  0
 19 21  1  0  0  0  0
 20 24  1  0  0  0  0
 21 22  2  0  0  0  0
 22 25  1  0  0  0  0
 23 21  1  0  0  0  0
 23 20  2  0  0  0  0
 24 25  2  0  0  0  0
 26 23  1  0  0  0  0
 27 29  1  0  0  0  0
 28 27  2  0  0  0  0
 29 26  1  0  0  0  0
M  END
>  <MODEL>
4

>  <REMARK>
 VINA RESULT:      -6.7      2.683      4.864
  Name = 
  6 active torsions:
  status: ('A' for Active; 'I' for Inactive)
    1  A    between atoms: C_5  and  C_20
    2  A    between atoms: C_5  and  N_23
    3  A    between atoms: C_8  and  C_14
    4  A    between atoms: C_8  and  C_19
    5  A    between atoms: C_12  and  C_19
    6  A    between atoms: C_16  and  C_26
                            x       y       z     vdW  Elec       q    Type
                         _______ _______ _______ _____ _____    ______ ____

>  <TORSDO>
F 6

$$$$
=
 OpenBabel11062422463D

 29 31  0  0  1  0  0  0  0  0999 V2000
  194.3850  176.6860  146.0310 N   0  0  0  0  0  0  0  0  0  0  0  0
  193.7030  173.1490  146.1690 F   0  0  0  0  0  0  0  0  0  0  0  0
  193.6350  174.4480  145.7770 C   0  0  0  0  0  0  0  0  0  0  0  0
  193.5400  177.0950  145.0850 N   0  0  0  0  0  0  0  0  0  0  0  0
  192.7040  176.2330  144.4450 C   0  0  0  0  0  0  0  0  0  0  0  0
  194.4570  175.3830  146.3970 C   0  0  0  0  0  3  0  0  0  0  0  0
  192.7340  174.8630  144.7830 C   0  0  0  0  0  0  0  0  0  0  0  0
  190.0160  171.8430  140.6290 C   0  0  0  0  0  1  0  0  0  0  0  0
  190.4490  173.6740  144.6500 C   0  0  0  0  0  2  0  0  0  0  0  0
  189.3870  173.9480  143.5910 C   0  0  0  0  0  2  0  0  0  0  0  0
  191.8450  173.8760  144.1230 C   0  0  0  0  0  0  0  0  0  0  0  0
  191.5100  172.1000  142.3990 C   0  0  0  0  0  2  0  0  0  0  0  0
  189.2620  172.7720  142.6290 C   0  0  0  0  0  2  0  0  0  0  0  0
  192.3230  173.1340  143.1150 C   0  0  0  0  0  3  0  0  0  0  0  0
  190.3940  172.7350  141.7110 N   0  0  0  0  0  0  0  0  0  0  0  0
  191.8090  176.7550  143.3590 C   0  0  2  0  0  3  0  0  0  0  0  0
  192.5660  177.1710  142.2610 O   0  0  0  0  0  1  0  0  0  0  0  0
  191.2530  179.0310  143.8020 O   0  0  0  0  0  0  0  0  0  0  0  0
  190.8750  177.8300  143.8530 C   0  0  0  0  0  0  0  0  0  0  0  0
  187.1820  177.2110  144.5320 C   0  0  0  0  0  3  0  0  0  0  0  0
  189.5950  177.5180  144.5200 C   0  0  0  0  0  0  0  0  0  0  0  0
  189.6170  177.2420  145.8940 C   0  0  0  0  0  3  0  0  0  0  0  0
  188.3590  177.5080  143.8350 C   0  0  0  0  0  0  0  0  0  0  0  0
  187.2210  176.9220  145.8970 C   0  0  0  0  0  3  0  0  0  0  0  0
  188.4380  176.9420  146.5800 C   0  0  0  0  0  3  0  0  0  0  0  0
  188.2450  177.8920  142.3960 C   0  0  0  0  0  2  0  0  0  0  0  0
  186.2360  177.9500  140.8790 C   0  0  0  0  0  3  0  0  0  0  0  0
  186.8310  177.2640  140.0060 O   0  0  0  0  0  0  0  0  0  0  0  0
  186.8800  178.3000  142.1030 N   0  0  0  0  0  2  0  0  0  0  0  0
  1  6  1  0  0  0  0
  3  2  1  0  0  0  0
  3  6  2  0  0  0  0
  4  1  2  0  0  0  0
  5  7  2  0  0  0  0
  5  4  1  0  0  0  0
  7  3  1  0  0  0  0
  8 15  1  0  0  0  0
 10  9  1  0  0  0  0
 11  9  1  0  0  0  0
 11  7  1  0  0  0  0
 12 14  1  0  0  0  0
 13 10  1  0  0  0  0
 14 11  2  0  0  0  0
 15 12  1  0  0  0  0
 15 13  1  0  0  0  0
 16 17  1  6  0  0  0
 16 19  1  0  0  0  0
 16  5  1  0  0  0  0
 18 19  2  0  0  0  0
 19 21  1  0  0  0  0
 20 24  1  0  0  0  0
 21 22  2  0  0  0  0
 22 25  1  0  0  0  0
 23 21  1  0  0  0  0
 23 20  2  0  0  0  0
 24 25  2  0  0  0  0
 26 23  1  0  0  0  0
 27 29  1  0  0  0  0
 28 27  2  0  0  0  0
 29 26  1  0  0  0  0
M  END
>  <MODEL>
5

>  <REMARK>
 VINA RESULT:      -6.7      2.919      5.478
  Name = 
  6 active torsions:
  status: ('A' for Active; 'I' for Inactive)
    1  A    between atoms: C_5  and  C_20
    2  A    between atoms: C_5  and  N_23
    3  A    between atoms: C_8  and  C_14
    4  A    between atoms: C_8  and  C_19
    5  A    between atoms: C_12  and  C_19
    6  A    between atoms: C_16  and  C_26
                            x       y       z     vdW  Elec       q    Type
                         _______ _______ _______ _____ _____    ______ ____

>  <TORSDO>
F 6

$$$$
=
 OpenBabel11062422463D

 29 31  0  0  1  0  0  0  0  0999 V2000
  185.8070  177.9120  140.0820 N   0  0  0  0  0  0  0  0  0  0  0  0
  183.3150  178.4530  142.6300 F   0  0  0  0  0  0  0  0  0  0  0  0
  184.5230  178.2210  142.0550 C   0  0  0  0  0  0  0  0  0  0  0  0
  186.9080  177.7170  140.8080 N   0  0  0  0  0  0  0  0  0  0  0  0
  186.8890  177.7530  142.1680 C   0  0  0  0  0  0  0  0  0  0  0  0
  184.6110  178.1630  140.6680 C   0  0  0  0  0  3  0  0  0  0  0  0
  185.6720  178.0110  142.8350 C   0  0  0  0  0  0  0  0  0  0  0  0
  186.8370  179.4050  148.3550 C   0  0  0  0  0  1  0  0  0  0  0  0
  185.3800  176.7810  145.0830 C   0  0  0  0  0  2  0  0  0  0  0  0
  186.5010  176.5200  146.0830 C   0  0  0  0  0  2  0  0  0  0  0  0
  185.5880  178.0600  144.3160 C   0  0  0  0  0  0  0  0  0  0  0  0
  185.5330  179.3990  146.4230 C   0  0  0  0  0  2  0  0  0  0  0  0
  186.3250  177.3740  147.3330 C   0  0  0  0  0  2  0  0  0  0  0  0
  185.6290  179.2460  144.9360 C   0  0  0  0  0  3  0  0  0  0  0  0
  186.6770  178.7620  147.0630 N   0  0  0  0  0  0  0  0  0  0  0  0
  188.1740  177.5690  142.9210 C   0  0  2  0  0  3  0  0  0  0  0  0
  189.1710  178.3950  142.3950 O   0  0  0  0  0  1  0  0  0  0  0  0
  187.7110  175.2300  142.9940 O   0  0  0  0  0  0  0  0  0  0  0  0
  188.6010  176.1230  142.9830 C   0  0  0  0  0  0  0  0  0  0  0  0
  192.0240  175.4710  144.5110 C   0  0  0  0  0  3  0  0  0  0  0  0
  190.0090  175.7230  143.1720 C   0  0  0  0  0  0  0  0  0  0  0  0
  190.7000  175.2020  142.0690 C   0  0  0  0  0  3  0  0  0  0  0  0
  190.6850  175.8640  144.4050 C   0  0  0  0  0  0  0  0  0  0  0  0
  192.6950  174.9370  143.4090 C   0  0  0  0  0  3  0  0  0  0  0  0
  192.0340  174.8060  142.1870 C   0  0  0  0  0  3  0  0  0  0  0  0
  190.0450  176.5050  145.5920 C   0  0  0  0  0  2  0  0  0  0  0  0
  190.3360  175.2520  147.7570 C   0  0  0  0  0  3  0  0  0  0  0  0
  189.2390  174.6560  147.6000 O   0  0  0  0  0  0  0  0  0  0  0  0
  190.8070  176.1910  146.7910 N   0  0  0  0  0  2  0  0  0  0  0  0
  1  6  2  0  0  0  0
  1  4  1  0  0  0  0
  3  2  1  0  0  0  0
  3  7  2  0  0  0  0
  4  5  2  0  0  0  0
  5  7  1  0  0  0  0
  5 16  1  0  0  0  0
  6  3  1  0  0  0  0
  7 11  1  0  0  0  0
  9 10  1  0  0  0  0
 10 13  1  0  0  0  0
 11 14  2  0  0  0  0
 11  9  1  0  0  0  0
 12 15  1  0  0  0  0
 14 12  1  0  0  0  0
 15 13  1  0  0  0  0
 15  8  1  0  0  0  0
 16 17  1  6  0  0  0
 16 19  1  0  0  0  0
 19 18  2  0  0  0  0
 19 21  1  0  0  0  0
 21 23  2  0  0  0  0
 22 25  2  0  0  0  0
 22 21  1  0  0  0  0
 23 20  1  0  0  0  0
 23 26  1  0  0  0  0
 24 20  2  0  0  0  0
 25 24  1  0  0  0  0
 26 29  1  0  0  0  0
 28 27  2  0  0  0  0
 29 27  1  0  0  0  0
M  END
>  <MODEL>
6

>  <REMARK>
 VINA RESULT:      -6.6      2.822      5.351
  Name = 
  6 active torsions:
  status: ('A' for Active; 'I' for Inactive)
    1  A    between atoms: C_5  and  C_20
    2  A    between atoms: C_5  and  N_23
    3  A    between atoms: C_8  and  C_14
    4  A    between atoms: C_8  and  C_19
    5  A    between atoms: C_12  and  C_19
    6  A    between atoms: C_16  and  C_26
                            x       y       z     vdW  Elec       q    Type
                         _______ _______ _______ _____ _____    ______ ____

>  <TORSDO>
F 6

$$$$
=
 OpenBabel11062422463D

 29 31  0  0  1  0  0  0  0  0999 V2000
  192.0910  175.7260  147.2170 N   0  0  0  0  0  0  0  0  0  0  0  0
  189.6620  178.2670  148.0130 F   0  0  0  0  0  0  0  0  0  0  0  0
  190.2300  177.1860  147.4210 C   0  0  0  0  0  0  0  0  0  0  0  0
  191.4730  175.0430  146.2540 N   0  0  0  0  0  0  0  0  0  0  0  0
  190.2290  175.3810  145.8170 C   0  0  0  0  0  0  0  0  0  0  0  0
  191.5040  176.7910  147.8150 C   0  0  0  0  0  3  0  0  0  0  0  0
  189.5670  176.4810  146.4020 C   0  0  0  0  0  0  0  0  0  0  0  0
  185.2040  179.7940  144.4660 C   0  0  0  0  0  1  0  0  0  0  0  0
  187.0130  176.4520  146.7600 C   0  0  0  0  0  2  0  0  0  0  0  0
  186.1950  177.6290  147.2810 C   0  0  0  0  0  2  0  0  0  0  0  0
  188.2120  176.8990  145.9660 C   0  0  0  0  0  0  0  0  0  0  0  0
  186.7500  178.0580  144.3060 C   0  0  0  0  0  2  0  0  0  0  0  0
  185.3240  178.2160  146.1760 C   0  0  0  0  0  2  0  0  0  0  0  0
  188.0750  177.6060  144.8370 C   0  0  0  0  0  3  0  0  0  0  0  0
  186.1310  178.9890  145.2400 N   0  0  0  0  0  0  0  0  0  0  0  0
  189.5740  174.5410  144.7590 C   0  0  2  0  0  3  0  0  0  0  0  0
  189.6910  173.1840  145.0720 O   0  0  0  0  0  1  0  0  0  0  0  0
  190.7670  175.9050  143.2090 O   0  0  0  0  0  0  0  0  0  0  0  0
  190.0860  174.8580  143.3770 C   0  0  0  0  0  0  0  0  0  0  0  0
  188.2450  173.5410  140.3180 C   0  0  0  0  0  3  0  0  0  0  0  0
  189.7050  174.0630  142.1920 C   0  0  0  0  0  0  0  0  0  0  0  0
  190.5180  172.9780  141.8360 C   0  0  0  0  0  3  0  0  0  0  0  0
  188.5510  174.3410  141.4250 C   0  0  0  0  0  0  0  0  0  0  0  0
  189.0720  172.4740  139.9650 C   0  0  0  0  0  3  0  0  0  0  0  0
  190.2070  172.1890  140.7260 C   0  0  0  0  0  3  0  0  0  0  0  0
  187.5850  175.4150  141.8050 C   0  0  0  0  0  2  0  0  0  0  0  0
  186.8200  177.5450  140.7010 C   0  0  0  0  0  3  0  0  0  0  0  0
  185.6360  177.3640  141.0910 O   0  0  0  0  0  0  0  0  0  0  0  0
  187.8500  176.6130  141.0240 N   0  0  0  0  0  2  0  0  0  0  0  0
  1  6  1  0  0  0  0
  3  6  2  0  0  0  0
  3  2  1  0  0  0  0
  4  1  2  0  0  0  0
  5  4  1  0  0  0  0
  5  7  2  0  0  0  0
  7  3  1  0  0  0  0
  8 15  1  0  0  0  0
  9 10  1  0  0  0  0
 11  7  1  0  0  0  0
 11  9  1  0  0  0  0
 12 14  1  0  0  0  0
 12 15  1  0  0  0  0
 13 10  1  0  0  0  0
 14 11  2  0  0  0  0
 15 13  1  0  0  0  0
 16 17  1  1  0  0  0
 16  5  1  0  0  0  0
 18 19  2  0  0  0  0
 19 16  1  0  0  0  0
 20 23  1  0  0  0  0
 21 19  1  0  0  0  0
 22 21  1  0  0  0  0
 23 26  1  0  0  0  0
 23 21  2  0  0  0  0
 24 20  2  0  0  0  0
 24 25  1  0  0  0  0
 25 22  2  0  0  0  0
 27 29  1  0  0  0  0
 27 28  2  0  0  0  0
 29 26  1  0  0  0  0
M  END
>  <MODEL>
7

>  <REMARK>
 VINA RESULT:      -6.6      1.610      2.673
  Name = 
  6 active torsions:
  status: ('A' for Active; 'I' for Inactive)
    1  A    between atoms: C_5  and  C_20
    2  A    between atoms: C_5  and  N_23
    3  A    between atoms: C_8  and  C_14
    4  A    between atoms: C_8  and  C_19
    5  A    between atoms: C_12  and  C_19
    6  A    between atoms: C_16  and  C_26
                            x       y       z     vdW  Elec       q    Type
                         _______ _______ _______ _____ _____    ______ ____

>  <TORSDO>
F 6

$$$$
=
 OpenBabel11062422463D

 29 31  0  0  1  0  0  0  0  0999 V2000
  190.0260  174.5120  141.7130 N   0  0  0  0  0  0  0  0  0  0  0  0
  186.5460  175.0640  142.4750 F   0  0  0  0  0  0  0  0  0  0  0  0
  187.8950  175.2220  142.4810 C   0  0  0  0  0  0  0  0  0  0  0  0
  190.6240  175.4390  142.4610 N   0  0  0  0  0  0  0  0  0  0  0  0
  189.9180  176.2910  143.2530 C   0  0  0  0  0  0  0  0  0  0  0  0
  188.6770  174.3780  141.7010 C   0  0  0  0  0  3  0  0  0  0  0  0
  188.5100  176.2000  143.2810 C   0  0  0  0  0  0  0  0  0  0  0  0
  184.2580  178.0870  146.7630 C   0  0  0  0  0  1  0  0  0  0  0  0
  187.3900  178.4950  143.6430 C   0  0  0  0  0  2  0  0  0  0  0  0
  185.8920  178.7600  143.5270 C   0  0  0  0  0  2  0  0  0  0  0  0
  187.6860  177.1000  144.1250 C   0  0  0  0  0  0  0  0  0  0  0  0
  186.4610  177.5180  146.2610 C   0  0  0  0  0  2  0  0  0  0  0  0
  185.2810  179.0340  144.8960 C   0  0  0  0  0  2  0  0  0  0  0  0
  187.2800  176.6780  145.3300 C   0  0  0  0  0  3  0  0  0  0  0  0
  185.1630  177.8010  145.6640 N   0  0  0  0  0  0  0  0  0  0  0  0
  190.6530  177.3400  144.0350 C   0  0  2  0  0  3  0  0  0  0  0  0
  191.6830  177.8890  143.2670 O   0  0  0  0  0  1  0  0  0  0  0  0
  190.4850  177.1120  146.4030 O   0  0  0  0  0  0  0  0  0  0  0  0
  191.1410  176.8260  145.3660 C   0  0  0  0  0  0  0  0  0  0  0  0
  193.7900  174.1080  145.6340 C   0  0  0  0  0  3  0  0  0  0  0  0
  192.4290  176.1200  145.5160 C   0  0  0  0  0  0  0  0  0  0  0  0
  193.5830  176.8890  145.7240 C   0  0  0  0  0  3  0  0  0  0  0  0
  192.5380  174.7110  145.4770 C   0  0  0  0  0  0  0  0  0  0  0  0
  194.9340  174.8860  145.8250 C   0  0  0  0  0  3  0  0  0  0  0  0
  194.8290  176.2770  145.8740 C   0  0  0  0  0  3  0  0  0  0  0  0
  191.3410  173.8260  145.3620 C   0  0  0  0  0  2  0  0  0  0  0  0
  190.6280  171.8370  143.9900 C   0  0  0  0  0  3  0  0  0  0  0  0
  189.4150  172.0380  144.2660 O   0  0  0  0  0  0  0  0  0  0  0  0
  191.6480  172.6940  144.5010 N   0  0  0  0  0  2  0  0  0  0  0  0
  1  4  1  0  0  0  0
  2  3  1  0  0  0  0
  3  7  2  0  0  0  0
  4  5  2  0  0  0  0
  5  7  1  0  0  0  0
  5 16  1  0  0  0  0
  6  1  2  0  0  0  0
  6  3  1  0  0  0  0
  7 11  1  0  0  0  0
  9 11  1  0  0  0  0
 10  9  1  0  0  0  0
 10 13  1  0  0  0  0
 11 14  2  0  0  0  0
 13 15  1  0  0  0  0
 14 12  1  0  0  0  0
 15 12  1  0  0  0  0
 15  8  1  0  0  0  0
 16 17  1  6  0  0  0
 16 19  1  0  0  0  0
 19 21  1  0  0  0  0
 19 18  2  0  0  0  0
 20 24  1  0  0  0  0
 21 22  2  0  0  0  0
 22 25  1  0  0  0  0
 23 21  1  0  0  0  0
 23 20  2  0  0  0  0
 24 25  2  0  0  0  0
 26 23  1  0  0  0  0
 27 28  2  0  0  0  0
 27 29  1  0  0  0  0
 29 26  1  0  0  0  0
M  END
>  <MODEL>
8

>  <REMARK>
 VINA RESULT:      -6.6      2.769      4.811
  Name = 
  6 active torsions:
  status: ('A' for Active; 'I' for Inactive)
    1  A    between atoms: C_5  and  C_20
    2  A    between atoms: C_5  and  N_23
    3  A    between atoms: C_8  and  C_14
    4  A    between atoms: C_8  and  C_19
    5  A    between atoms: C_12  and  C_19
    6  A    between atoms: C_16  and  C_26
                            x       y       z     vdW  Elec       q    Type
                         _______ _______ _______ _____ _____    ______ ____

>  <TORSDO>
F 6

$$$$
=
 OpenBabel11062422463D

 29 31  0  0  1  0  0  0  0  0999 V2000
  186.9760  177.5310  140.3980 N   0  0  0  0  0  0  0  0  0  0  0  0
  184.1340  178.3660  142.4520 F   0  0  0  0  0  0  0  0  0  0  0  0
  185.3990  178.0150  142.1050 C   0  0  0  0  0  0  0  0  0  0  0  0
  187.9120  177.2730  141.3110 N   0  0  0  0  0  0  0  0  0  0  0  0
  187.6590  177.3590  142.6450 C   0  0  0  0  0  0  0  0  0  0  0  0
  185.7220  177.9010  140.7580 C   0  0  0  0  0  3  0  0  0  0  0  0
  186.3720  177.7400  143.0810 C   0  0  0  0  0  0  0  0  0  0  0  0
  186.5370  179.4090  148.6440 C   0  0  0  0  0  1  0  0  0  0  0  0
  185.7370  176.5970  145.3040 C   0  0  0  0  0  2  0  0  0  0  0  0
  186.6790  176.4200  146.4900 C   0  0  0  0  0  2  0  0  0  0  0  0
  186.0360  177.8480  144.5220 C   0  0  0  0  0  0  0  0  0  0  0  0
  185.5830  179.2730  146.5220 C   0  0  0  0  0  2  0  0  0  0  0  0
  186.2670  177.3190  147.6500 C   0  0  0  0  0  2  0  0  0  0  0  0
  185.9350  179.0610  145.0820 C   0  0  0  0  0  3  0  0  0  0  0  0
  186.6190  178.7070  147.3760 N   0  0  0  0  0  0  0  0  0  0  0  0
  188.7730  177.0970  143.6170 C   0  0  2  0  0  3  0  0  0  0  0  0
  189.3970  178.2930  143.9780 O   0  0  0  0  0  1  0  0  0  0  0  0
  190.7180  176.4560  142.3950 O   0  0  0  0  0  0  0  0  0  0  0  0
  189.7510  176.0700  143.1050 C   0  0  0  0  0  0  0  0  0  0  0  0
  189.6880  172.5580  144.5690 C   0  0  0  0  0  3  0  0  0  0  0  0
  189.5410  174.6200  143.2860 C   0  0  0  0  0  0  0  0  0  0  0  0
  188.9710  173.8980  142.2290 C   0  0  0  0  0  3  0  0  0  0  0  0
  189.9090  173.9360  144.4680 C   0  0  0  0  0  0  0  0  0  0  0  0
  189.1040  171.8550  143.5140 C   0  0  0  0  0  3  0  0  0  0  0  0
  188.7490  172.5240  142.3420 C   0  0  0  0  0  3  0  0  0  0  0  0
  190.6140  174.6200  145.5930 C   0  0  0  0  0  2  0  0  0  0  0  0
  192.8990  175.6310  145.2790 C   0  0  0  0  0  3  0  0  0  0  0  0
  192.4250  176.7970  145.3030 O   0  0  0  0  0  0  0  0  0  0  0  0
  192.0530  174.4910  145.4220 N   0  0  0  0  0  2  0  0  0  0  0  0
  1  6  2  0  0  0  0
  1  4  1  0  0  0  0
  3  2  1  0  0  0  0
  3  7  2  0  0  0  0
  4  5  2  0  0  0  0
  5  7  1  0  0  0  0
  5 16  1  0  0  0  0
  6  3  1  0  0  0  0
  7 11  1  0  0  0  0
  9 10  1  0  0  0  0
 10 13  1  0  0  0  0
 11 14  2  0  0  0  0
 11  9  1  0  0  0  0
 12 15  1  0  0  0  0
 14 12  1  0  0  0  0
 15 13  1  0  0  0  0
 15  8  1  0  0  0  0
 16 17  1  6  0  0  0
 18 19  2  0  0  0  0
 19 21  1  0  0  0  0
 19 16  1  0  0  0  0
 21 23  2  0  0  0  0
 22 25  2  0  0  0  0
 22 21  1  0  0  0  0
 23 20  1  0  0  0  0
 23 26  1  0  0  0  0
 24 20  2  0  0  0  0
 25 24  1  0  0  0  0
 27 28  2  0  0  0  0
 27 29  1  0  0  0  0
 29 26  1  0  0  0  0
M  END
>  <MODEL>
9

>  <REMARK>
 VINA RESULT:      -6.6      2.620      4.972
  Name = 
  6 active torsions:
  status: ('A' for Active; 'I' for Inactive)
    1  A    between atoms: C_5  and  C_20
    2  A    between atoms: C_5  and  N_23
    3  A    between atoms: C_8  and  C_14
    4  A    between atoms: C_8  and  C_19
    5  A    between atoms: C_12  and  C_19
    6  A    between atoms: C_16  and  C_26
                            x       y       z     vdW  Elec       q    Type
                         _______ _______ _______ _____ _____    ______ ____

>  <TORSDO>
F 6

$$$$
