=
 OpenBabel11062419573D

 28 35  0  0  1  0  0  0  0  0999 V2000
  189.8530  177.6530  145.8370 C   0  0  2  0  0  3  0  0  0  0  0  0
  189.3660  176.4430  145.2260 C   0  0  1  0  0  0  0  0  0  0  0  0
  188.6390  175.2790  147.1570 C   0  0  0  0  0  2  0  0  0  0  0  0
  191.3960  176.4490  144.7710 C   0  0  2  0  0  3  0  0  0  0  0  0
  188.0950  176.0180  145.9480 C   0  0  1  0  0  3  0  0  0  0  0  0
  190.1490  175.1410  146.9090 C   0  0  0  0  0  2  0  0  0  0  0  0
  190.1720  177.3590  144.3660 C   0  0  2  0  0  3  0  0  0  0  0  0
  190.5960  176.3510  146.0900 C   0  0  1  0  0  0  0  0  0  0  0  0
  187.1250  177.1380  146.3520 C   0  0  1  0  0  3  0  0  0  0  0  0
  186.5380  179.3820  143.0830 C   0  0  0  0  0  3  0  0  0  0  0  0
  186.8080  178.0920  142.8440 C   0  0  0  0  0  0  0  0  0  0  0  0
  186.1940  177.5750  145.2260 C   0  0  2  0  0  0  0  0  0  0  0  0
  185.8910  179.8270  144.3360 C   0  0  0  0  0  3  0  0  0  0  0  0
  187.4320  177.7390  141.6540 O   0  0  0  0  0  1  0  0  0  0  0  0
  185.6920  176.6180  146.2840 C   0  0  0  0  0  2  0  0  0  0  0  0
  186.4040  177.0050  143.8110 C   0  0  1  0  0  3  0  0  0  0  0  0
  185.2290  176.3980  143.3620 O   0  0  0  0  0  1  0  0  0  0  0  0
  185.7020  178.9810  145.3490 C   0  0  0  0  0  3  0  0  0  0  0  0
  192.6660  177.2710  144.9630 C   0  0  0  0  0  2  0  0  0  0  0  0
  193.8360  176.4320  144.7570 N   0  0  0  0  0  2  0  0  0  0  0  0
  193.8510  174.3470  145.8100 C   0  0  0  0  0  0  0  0  0  0  0  0
  195.2020  174.8920  145.8580 C   0  0  0  0  0  0  0  0  0  0  0  0
  196.3640  174.1960  145.7310 C   0  0  0  0  0  3  0  0  0  0  0  0
  194.7080  172.2560  145.4950 C   0  0  0  0  0  3  0  0  0  0  0  0
  193.5090  173.0410  145.6280 C   0  0  0  0  0  3  0  0  0  0  0  0
  197.2080  171.8550  145.3930 C   0  0  0  0  0  1  0  0  0  0  0  0
  196.0690  172.7990  145.5430 C   0  0  0  0  0  0  0  0  0  0  0  0
  194.0760  175.7190  146.0010 C   0  0  1  0  0  3  0  0  0  0  0  0
  1  8  1  0  0  0  0
  2  1  1  0  0  0  0
  2  5  1  0  0  0  0
  2  8  1  0  0  0  0
  4 19  1  0  0  0  0
  4  8  1  0  0  0  0
  5  9  1  0  0  0  0
  5  3  1  0  0  0  0
  6  3  1  0  0  0  0
  7  4  1  0  0  0  0
  7  2  1  0  0  0  0
  7  1  1  0  0  0  0
  8  6  1  0  0  0  0
 10 13  1  0  0  0  0
 11 10  2  0  0  0  0
 11 16  1  0  0  0  0
 12 18  1  0  0  0  0
 12 15  1  0  0  0  0
 12  9  1  0  0  0  0
 13 18  2  0  0  0  0
 14 11  1  0  0  0  0
 15  9  1  0  0  0  0
 16 12  1  0  0  0  0
 17 16  1  0  0  0  0
 20 19  1  0  0  0  0
 20 28  1  0  0  0  0
 21 22  1  0  0  0  0
 21 28  1  0  0  0  0
 22 28  1  0  0  0  0
 23 22  2  0  0  0  0
 24 27  2  0  0  0  0
 24 25  1  0  0  0  0
 25 21  2  0  0  0  0
 26 27  1  0  0  0  0
 27 23  1  0  0  0  0
M  END
>  <MODEL>
1

>  <REMARK>
 VINA RESULT:      -8.2      0.000      0.000
  Name = 
  4 active torsions:
  status: ('A' for Active; 'I' for Inactive)
    1  A    between atoms: C_3  and  C_18
    2  A    between atoms: C_4  and  C_16
    3  A    between atoms: C_4  and  N_27
    4  A    between atoms: C_19  and  N_27
                            x       y       z     vdW  Elec       q    Type
                         _______ _______ _______ _____ _____    ______ ____

>  <TORSDO>
F 4

$$$$
=
 OpenBabel11062419573D

 28 35  0  0  1  0  0  0  0  0999 V2000
  189.9830  175.7580  143.8850 C   0  0  2  0  0  3  0  0  0  0  0  0
  190.7980  176.8940  144.2300 C   0  0  1  0  0  0  0  0  0  0  0  0
  190.4560  176.9380  146.5750 C   0  0  0  0  0  2  0  0  0  0  0  0
  189.3280  177.6930  142.9940 C   0  0  2  0  0  3  0  0  0  0  0  0
  191.5120  176.5910  145.5400 C   0  0  1  0  0  3  0  0  0  0  0  0
  189.3250  177.6220  145.7930 C   0  0  0  0  0  2  0  0  0  0  0  0
  190.5170  176.6770  142.7810 C   0  0  2  0  0  3  0  0  0  0  0  0
  189.3050  177.0230  144.3870 C   0  0  1  0  0  0  0  0  0  0  0  0
  192.0420  175.1610  145.7220 C   0  0  1  0  0  3  0  0  0  0  0  0
  194.0630  174.2520  142.3820 C   0  0  0  0  0  3  0  0  0  0  0  0
  194.0570  175.5520  142.7060 C   0  0  0  0  0  0  0  0  0  0  0  0
  193.3850  174.9160  145.0420 C   0  0  2  0  0  0  0  0  0  0  0  0
  193.9300  173.1910  143.4040 C   0  0  0  0  0  3  0  0  0  0  0  0
  194.1700  176.5020  141.6980 O   0  0  0  0  0  1  0  0  0  0  0  0
  193.3370  175.1980  146.5270 C   0  0  0  0  0  2  0  0  0  0  0  0
  193.9830  176.0120  144.1420 C   0  0  1  0  0  3  0  0  0  0  0  0
  195.2640  176.3480  144.5870 O   0  0  0  0  0  1  0  0  0  0  0  0
  193.6300  173.4900  144.6690 C   0  0  0  0  0  3  0  0  0  0  0  0
  188.1010  177.2980  142.1790 C   0  0  0  0  0  2  0  0  0  0  0  0
  187.4440  178.4880  141.6630 N   0  0  0  0  0  2  0  0  0  0  0  0
  185.9060  177.4880  143.1100 C   0  0  0  0  0  0  0  0  0  0  0  0
  185.9120  178.9230  143.3690 C   0  0  0  0  0  0  0  0  0  0  0  0
  185.7900  179.5290  144.5820 C   0  0  0  0  0  3  0  0  0  0  0  0
  185.6370  177.0870  145.3400 C   0  0  0  0  0  3  0  0  0  0  0  0
  185.7790  176.4970  144.0350 C   0  0  0  0  0  3  0  0  0  0  0  0
  185.4820  178.9830  147.0130 C   0  0  0  0  0  1  0  0  0  0  0  0
  185.6420  178.5290  145.6070 C   0  0  0  0  0  0  0  0  0  0  0  0
  186.0500  178.4170  142.0670 C   0  0  1  0  0  3  0  0  0  0  0  0
  1  2  1  0  0  0  0
  1  8  1  0  0  0  0
  2  8  1  0  0  0  0
  2  5  1  0  0  0  0
  4  8  1  0  0  0  0
  5  9  1  0  0  0  0
  5  3  1  0  0  0  0
  6  3  1  0  0  0  0
  7  4  1  0  0  0  0
  7  1  1  0  0  0  0
  7  2  1  0  0  0  0
  8  6  1  0  0  0  0
  9 15  1  0  0  0  0
 10 11  2  0  0  0  0
 10 13  1  0  0  0  0
 11 16  1  0  0  0  0
 12  9  1  0  0  0  0
 12 15  1  0  0  0  0
 13 18  2  0  0  0  0
 14 11  1  0  0  0  0
 16 17  1  0  0  0  0
 16 12  1  0  0  0  0
 18 12  1  0  0  0  0
 19  4  1  0  0  0  0
 20 28  1  0  0  0  0
 20 19  1  0  0  0  0
 21 22  2  0  0  0  0
 21 25  1  0  0  0  0
 22 23  1  0  0  0  0
 23 27  2  0  0  0  0
 24 27  1  0  0  0  0
 25 24  2  0  0  0  0
 27 26  1  0  0  0  0
 28 21  1  0  0  0  0
 28 22  1  0  0  0  0
M  END
>  <MODEL>
2

>  <REMARK>
 VINA RESULT:      -8.1      3.015      7.948
  Name = 
  4 active torsions:
  status: ('A' for Active; 'I' for Inactive)
    1  A    between atoms: C_3  and  C_18
    2  A    between atoms: C_4  and  C_16
    3  A    between atoms: C_4  and  N_27
    4  A    between atoms: C_19  and  N_27
                            x       y       z     vdW  Elec       q    Type
                         _______ _______ _______ _____ _____    ______ ____

>  <TORSDO>
F 4

$$$$
=
 OpenBabel11062419573D

 28 35  0  0  1  0  0  0  0  0999 V2000
  189.6320  174.3560  146.1780 C   0  0  2  0  0  3  0  0  0  0  0  0
  190.4380  175.3830  145.5700 C   0  0  1  0  0  0  0  0  0  0  0  0
  192.4690  175.0530  146.7450 C   0  0  0  0  0  2  0  0  0  0  0  0
  188.9070  176.4380  146.5030 C   0  0  2  0  0  3  0  0  0  0  0  0
  191.8460  174.8370  145.3770 C   0  0  1  0  0  3  0  0  0  0  0  0
  191.4570  175.9050  147.5270 C   0  0  0  0  0  2  0  0  0  0  0  0
  188.9710  175.4210  145.2970 C   0  0  2  0  0  3  0  0  0  0  0  0
  190.0610  175.5480  147.0190 C   0  0  1  0  0  0  0  0  0  0  0  0
  191.9630  173.3760  144.9200 C   0  0  1  0  0  3  0  0  0  0  0  0
  189.3380  172.8950  141.9300 C   0  0  0  0  0  3  0  0  0  0  0  0
  189.8400  174.1310  142.0500 C   0  0  0  0  0  0  0  0  0  0  0  0
  191.7150  173.1810  143.4290 C   0  0  2  0  0  0  0  0  0  0  0  0
  190.0870  171.7000  142.3730 C   0  0  0  0  0  3  0  0  0  0  0  0
  189.0800  175.2150  141.6300 O   0  0  0  0  0  1  0  0  0  0  0  0
  193.1330  173.2390  143.9510 C   0  0  0  0  0  2  0  0  0  0  0  0
  191.2320  174.3730  142.5840 C   0  0  1  0  0  3  0  0  0  0  0  0
  192.1070  174.5860  141.5150 O   0  0  0  0  0  1  0  0  0  0  0  0
  191.2220  171.8180  143.0640 C   0  0  0  0  0  3  0  0  0  0  0  0
  187.6470  176.2360  147.3380 C   0  0  0  0  0  2  0  0  0  0  0  0
  186.7450  177.3620  147.1560 N   0  0  0  0  0  2  0  0  0  0  0  0
  184.7840  177.8660  145.9900 C   0  0  0  0  0  0  0  0  0  0  0  0
  185.5460  176.9000  145.2080 C   0  0  0  0  0  0  0  0  0  0  0  0
  185.6610  176.8630  143.8520 C   0  0  0  0  0  3  0  0  0  0  0  0
  184.1340  178.9090  144.0680 C   0  0  0  0  0  3  0  0  0  0  0  0
  184.0520  178.9060  145.5050 C   0  0  0  0  0  3  0  0  0  0  0  0
  184.8810  178.0740  141.7950 C   0  0  0  0  0  1  0  0  0  0  0  0
  184.8980  177.9400  143.2750 C   0  0  0  0  0  0  0  0  0  0  0  0
  185.5060  176.8330  146.6090 C   0  0  1  0  0  3  0  0  0  0  0  0
  1  8  1  0  0  0  0
  2  1  1  0  0  0  0
  2  8  1  0  0  0  0
  3  6  1  0  0  0  0
  4  8  1  0  0  0  0
  4 19  1  0  0  0  0
  5  2  1  0  0  0  0
  5  3  1  0  0  0  0
  7  2  1  0  0  0  0
  7  1  1  0  0  0  0
  7  4  1  0  0  0  0
  8  6  1  0  0  0  0
  9  5  1  0  0  0  0
 10 11  2  0  0  0  0
 10 13  1  0  0  0  0
 11 16  1  0  0  0  0
 12 15  1  0  0  0  0
 12  9  1  0  0  0  0
 13 18  2  0  0  0  0
 14 11  1  0  0  0  0
 15  9  1  0  0  0  0
 16 12  1  0  0  0  0
 17 16  1  0  0  0  0
 18 12  1  0  0  0  0
 20 19  1  0  0  0  0
 21 28  1  0  0  0  0
 22 21  2  0  0  0  0
 22 28  1  0  0  0  0
 23 22  1  0  0  0  0
 24 25  2  0  0  0  0
 25 21  1  0  0  0  0
 26 27  1  0  0  0  0
 27 23  2  0  0  0  0
 27 24  1  0  0  0  0
 28 20  1  0  0  0  0
M  END
>  <MODEL>
3

>  <REMARK>
 VINA RESULT:      -8.1      2.881      7.788
  Name = 
  4 active torsions:
  status: ('A' for Active; 'I' for Inactive)
    1  A    between atoms: C_3  and  C_18
    2  A    between atoms: C_4  and  C_16
    3  A    between atoms: C_4  and  N_27
    4  A    between atoms: C_19  and  N_27
                            x       y       z     vdW  Elec       q    Type
                         _______ _______ _______ _____ _____    ______ ____

>  <TORSDO>
F 4

$$$$
=
 OpenBabel11062419573D

 28 35  0  0  1  0  0  0  0  0999 V2000
  188.7520  177.5080  145.0370 C   0  0  2  0  0  3  0  0  0  0  0  0
  188.6940  176.0700  145.1030 C   0  0  1  0  0  0  0  0  0  0  0  0
  188.4860  175.5670  142.7970 C   0  0  0  0  0  2  0  0  0  0  0  0
  187.0020  176.6850  146.1450 C   0  0  2  0  0  3  0  0  0  0  0  0
  189.4900  175.5030  143.9350 C   0  0  1  0  0  3  0  0  0  0  0  0
  187.1470  175.9400  143.4500 C   0  0  0  0  0  2  0  0  0  0  0  0
  188.5560  176.8140  146.3900 C   0  0  2  0  0  3  0  0  0  0  0  0
  187.4530  176.8060  144.6720 C   0  0  1  0  0  0  0  0  0  0  0  0
  190.8010  176.2200  143.5820 C   0  0  1  0  0  3  0  0  0  0  0  0
  192.9110  176.4920  146.9780 C   0  0  0  0  0  3  0  0  0  0  0  0
  192.0940  175.4330  146.9020 C   0  0  0  0  0  0  0  0  0  0  0  0
  191.9930  175.7560  144.4110 C   0  0  2  0  0  0  0  0  0  0  0  0
  193.4830  177.1280  145.7720 C   0  0  0  0  0  3  0  0  0  0  0  0
  191.5760  174.8910  148.0710 O   0  0  0  0  0  1  0  0  0  0  0  0
  191.7940  175.2100  143.0150 C   0  0  0  0  0  2  0  0  0  0  0  0
  191.7630  174.7820  145.5810 C   0  0  1  0  0  3  0  0  0  0  0  0
  192.5540  173.6420  145.4150 O   0  0  0  0  0  1  0  0  0  0  0  0
  193.0750  176.7770  144.5520 C   0  0  0  0  0  3  0  0  0  0  0  0
  186.2590  177.9390  146.5930 C   0  0  0  0  0  2  0  0  0  0  0  0
  184.8390  177.6550  146.7240 N   0  0  0  0  0  2  0  0  0  0  0  0
  185.0310  179.3590  145.1380 C   0  0  0  0  0  0  0  0  0  0  0  0
  184.1580  178.3260  144.5950 C   0  0  0  0  0  0  0  0  0  0  0  0
  184.0970  177.9110  143.3000 C   0  0  0  0  0  3  0  0  0  0  0  0
  185.9170  179.6990  143.0630 C   0  0  0  0  0  3  0  0  0  0  0  0
  185.9450  180.0940  144.4460 C   0  0  0  0  0  3  0  0  0  0  0  0
  185.1270  178.3680  141.0560 C   0  0  0  0  0  1  0  0  0  0  0  0
  185.0400  178.6610  142.5110 C   0  0  0  0  0  0  0  0  0  0  0  0
  184.1280  178.6640  145.9570 C   0  0  1  0  0  3  0  0  0  0  0  0
  1  2  1  0  0  0  0
  1  7  1  0  0  0  0
  2  7  1  0  0  0  0
  3  6  1  0  0  0  0
  3  5  1  0  0  0  0
  4  7  1  0  0  0  0
  4 19  1  0  0  0  0
  5  2  1  0  0  0  0
  6  8  1  0  0  0  0
  8  1  1  0  0  0  0
  8  2  1  0  0  0  0
  8  4  1  0  0  0  0
  9  5  1  0  0  0  0
  9 12  1  0  0  0  0
 11 10  2  0  0  0  0
 11 14  1  0  0  0  0
 12 18  1  0  0  0  0
 12 16  1  0  0  0  0
 13 10  1  0  0  0  0
 15  9  1  0  0  0  0
 15 12  1  0  0  0  0
 16 11  1  0  0  0  0
 17 16  1  0  0  0  0
 18 13  2  0  0  0  0
 19 20  1  0  0  0  0
 21 28  1  0  0  0  0
 22 21  1  0  0  0  0
 22 28  1  0  0  0  0
 23 22  2  0  0  0  0
 24 25  1  0  0  0  0
 25 21  2  0  0  0  0
 26 27  1  0  0  0  0
 27 24  2  0  0  0  0
 27 23  1  0  0  0  0
 28 20  1  0  0  0  0
M  END
>  <MODEL>
4

>  <REMARK>
 VINA RESULT:      -7.9      3.537      8.187
  Name = 
  4 active torsions:
  status: ('A' for Active; 'I' for Inactive)
    1  A    between atoms: C_3  and  C_18
    2  A    between atoms: C_4  and  C_16
    3  A    between atoms: C_4  and  N_27
    4  A    between atoms: C_19  and  N_27
                            x       y       z     vdW  Elec       q    Type
                         _______ _______ _______ _____ _____    ______ ____

>  <TORSDO>
F 4

$$$$
=
 OpenBabel11062419573D

 28 35  0  0  1  0  0  0  0  0999 V2000
  191.2550  174.8020  144.2520 C   0  0  2  0  0  3  0  0  0  0  0  0
  191.7960  176.1320  144.3630 C   0  0  1  0  0  0  0  0  0  0  0  0
  192.0040  176.2880  146.7190 C   0  0  0  0  0  2  0  0  0  0  0  0
  189.9240  176.4270  143.5070 C   0  0  2  0  0  3  0  0  0  0  0  0
  192.8470  176.1320  145.4650 C   0  0  1  0  0  3  0  0  0  0  0  0
  190.5830  176.5950  146.2230 C   0  0  0  0  0  2  0  0  0  0  0  0
  191.2570  175.7290  143.0310 C   0  0  2  0  0  3  0  0  0  0  0  0
  190.4000  175.8940  144.8770 C   0  0  1  0  0  0  0  0  0  0  0  0
  193.7640  174.9030  145.5430 C   0  0  1  0  0  3  0  0  0  0  0  0
  195.2830  174.3710  141.8720 C   0  0  0  0  0  3  0  0  0  0  0  0
  194.9910  175.6400  142.1870 C   0  0  0  0  0  0  0  0  0  0  0  0
  194.9690  174.9810  144.6120 C   0  0  2  0  0  0  0  0  0  0  0  0
  195.6350  173.3710  142.9030 C   0  0  0  0  0  3  0  0  0  0  0  0
  194.6530  176.5280  141.1740 O   0  0  0  0  0  1  0  0  0  0  0  0
  195.1310  175.3220  146.0760 C   0  0  0  0  0  2  0  0  0  0  0  0
  195.0710  176.1430  143.6080 C   0  0  1  0  0  3  0  0  0  0  0  0
  196.2760  176.8270  143.7900 O   0  0  0  0  0  1  0  0  0  0  0  0
  195.5120  173.6500  144.2010 C   0  0  0  0  0  3  0  0  0  0  0  0
  188.6920  175.6670  143.0250 C   0  0  0  0  0  2  0  0  0  0  0  0
  187.6190  176.6010  142.7240 N   0  0  0  0  0  2  0  0  0  0  0  0
  186.6960  178.5680  143.5830 C   0  0  0  0  0  0  0  0  0  0  0  0
  187.1550  177.7530  144.7010 C   0  0  0  0  0  0  0  0  0  0  0  0
  186.5480  177.6190  145.9120 C   0  0  0  0  0  3  0  0  0  0  0  0
  184.8970  179.2410  144.8150 C   0  0  0  0  0  3  0  0  0  0  0  0
  185.5750  179.3410  143.5500 C   0  0  0  0  0  3  0  0  0  0  0  0
  184.5430  178.4270  147.1890 C   0  0  0  0  0  1  0  0  0  0  0  0
  185.3540  178.4230  145.9430 C   0  0  0  0  0  0  0  0  0  0  0  0
  187.8720  177.8070  143.4950 C   0  0  1  0  0  3  0  0  0  0  0  0
  1  2  1  0  0  0  0
  1  8  1  0  0  0  0
  2  8  1  0  0  0  0
  2  5  1  0  0  0  0
  4  8  1  0  0  0  0
  5  9  1  0  0  0  0
  5  3  1  0  0  0  0
  6  3  1  0  0  0  0
  7  4  1  0  0  0  0
  7  1  1  0  0  0  0
  7  2  1  0  0  0  0
  8  6  1  0  0  0  0
  9 15  1  0  0  0  0
 10 11  2  0  0  0  0
 10 13  1  0  0  0  0
 11 16  1  0  0  0  0
 12  9  1  0  0  0  0
 12 15  1  0  0  0  0
 13 18  2  0  0  0  0
 14 11  1  0  0  0  0
 16 17  1  0  0  0  0
 16 12  1  0  0  0  0
 18 12  1  0  0  0  0
 19  4  1  0  0  0  0
 20 19  1  0  0  0  0
 20 28  1  0  0  0  0
 21 22  1  0  0  0  0
 22 23  2  0  0  0  0
 23 27  1  0  0  0  0
 24 27  2  0  0  0  0
 25 21  2  0  0  0  0
 25 24  1  0  0  0  0
 27 26  1  0  0  0  0
 28 21  1  0  0  0  0
 28 22  1  0  0  0  0
M  END
>  <MODEL>
5

>  <REMARK>
 VINA RESULT:      -7.7      3.057      8.373
  Name = 
  4 active torsions:
  status: ('A' for Active; 'I' for Inactive)
    1  A    between atoms: C_3  and  C_18
    2  A    between atoms: C_4  and  C_16
    3  A    between atoms: C_4  and  N_27
    4  A    between atoms: C_19  and  N_27
                            x       y       z     vdW  Elec       q    Type
                         _______ _______ _______ _____ _____    ______ ____

>  <TORSDO>
F 4

$$$$
=
 OpenBabel11062419573D

 28 35  0  0  1  0  0  0  0  0999 V2000
  189.0680  176.6420  143.8130 C   0  0  2  0  0  3  0  0  0  0  0  0
  190.1210  176.6150  142.8300 C   0  0  1  0  0  0  0  0  0  0  0  0
  191.9410  177.3350  144.1660 C   0  0  0  0  0  2  0  0  0  0  0  0
  188.7950  178.0420  142.1000 C   0  0  2  0  0  3  0  0  0  0  0  0
  191.3860  176.0900  143.4970 C   0  0  1  0  0  3  0  0  0  0  0  0
  191.0870  178.4990  143.6420 C   0  0  0  0  0  2  0  0  0  0  0  0
  188.7210  176.4820  142.3290 C   0  0  2  0  0  3  0  0  0  0  0  0
  189.6860  177.9560  143.3600 C   0  0  1  0  0  0  0  0  0  0  0  0
  191.2120  174.9350  144.4920 C   0  0  1  0  0  3  0  0  0  0  0  0
  188.9590  172.1710  142.6620 C   0  0  0  0  0  3  0  0  0  0  0  0
  189.7190  172.9140  141.8460 C   0  0  0  0  0  0  0  0  0  0  0  0
  191.1200  173.5650  143.8290 C   0  0  2  0  0  0  0  0  0  0  0  0
  189.3400  171.9130  144.0670 C   0  0  0  0  0  3  0  0  0  0  0  0
  189.2980  173.1340  140.5410 O   0  0  0  0  0  1  0  0  0  0  0  0
  192.4320  174.0210  144.4280 C   0  0  0  0  0  2  0  0  0  0  0  0
  191.0470  173.4760  142.2940 C   0  0  1  0  0  3  0  0  0  0  0  0
  192.0780  172.6650  141.8130 O   0  0  0  0  0  1  0  0  0  0  0  0
  190.3710  172.5470  144.6260 C   0  0  0  0  0  3  0  0  0  0  0  0
  187.4650  178.7180  142.4170 C   0  0  0  0  0  2  0  0  0  0  0  0
  186.4320  178.2250  141.5210 N   0  0  0  0  0  2  0  0  0  0  0  0
  185.3860  177.3730  143.4280 C   0  0  0  0  0  0  0  0  0  0  0  0
  185.3690  178.8280  143.5090 C   0  0  0  0  0  0  0  0  0  0  0  0
  185.5260  179.5810  144.6320 C   0  0  0  0  0  3  0  0  0  0  0  0
  185.7280  177.2520  145.6810 C   0  0  0  0  0  3  0  0  0  0  0  0
  185.5650  176.5050  144.4620 C   0  0  0  0  0  3  0  0  0  0  0  0
  185.8910  179.3420  147.1050 C   0  0  0  0  0  1  0  0  0  0  0  0
  185.7110  178.7160  145.7690 C   0  0  0  0  0  0  0  0  0  0  0  0
  185.1970  178.1640  142.2840 C   0  0  1  0  0  3  0  0  0  0  0  0
  2  8  1  0  0  0  0
  2  5  1  0  0  0  0
  2  1  1  0  0  0  0
  4  7  1  0  0  0  0
  4 19  1  0  0  0  0
  4  8  1  0  0  0  0
  5  3  1  0  0  0  0
  5  9  1  0  0  0  0
  6  3  1  0  0  0  0
  7  2  1  0  0  0  0
  7  1  1  0  0  0  0
  8  6  1  0  0  0  0
  8  1  1  0  0  0  0
 10 13  1  0  0  0  0
 11 16  1  0  0  0  0
 11 10  2  0  0  0  0
 12 15  1  0  0  0  0
 12  9  1  0  0  0  0
 12 18  1  0  0  0  0
 13 18  2  0  0  0  0
 14 11  1  0  0  0  0
 15  9  1  0  0  0  0
 16 12  1  0  0  0  0
 17 16  1  0  0  0  0
 20 28  1  0  0  0  0
 20 19  1  0  0  0  0
 21 22  2  0  0  0  0
 21 25  1  0  0  0  0
 22 23  1  0  0  0  0
 23 27  2  0  0  0  0
 24 27  1  0  0  0  0
 25 24  2  0  0  0  0
 27 26  1  0  0  0  0
 28 21  1  0  0  0  0
 28 22  1  0  0  0  0
M  END
>  <MODEL>
6

>  <REMARK>
 VINA RESULT:      -7.6      3.202      7.694
  Name = 
  4 active torsions:
  status: ('A' for Active; 'I' for Inactive)
    1  A    between atoms: C_3  and  C_18
    2  A    between atoms: C_4  and  C_16
    3  A    between atoms: C_4  and  N_27
    4  A    between atoms: C_19  and  N_27
                            x       y       z     vdW  Elec       q    Type
                         _______ _______ _______ _____ _____    ______ ____

>  <TORSDO>
F 4

$$$$
=
 OpenBabel11062419573D

 28 35  0  0  1  0  0  0  0  0999 V2000
  193.2150  176.3250  145.7260 C   0  0  2  0  0  3  0  0  0  0  0  0
  192.6690  175.3690  144.7980 C   0  0  1  0  0  0  0  0  0  0  0  0
  192.7500  176.6490  142.8050 C   0  0  0  0  0  2  0  0  0  0  0  0
  191.1140  175.7060  146.1370 C   0  0  2  0  0  3  0  0  0  0  0  0
  193.4380  175.4800  143.4880 C   0  0  1  0  0  3  0  0  0  0  0  0
  191.5130  176.9560  143.6630 C   0  0  0  0  0  2  0  0  0  0  0  0
  192.5450  175.0500  146.2500 C   0  0  2  0  0  3  0  0  0  0  0  0
  191.8510  176.5950  145.1090 C   0  0  1  0  0  0  0  0  0  0  0  0
  194.9550  175.6920  143.5940 C   0  0  1  0  0  3  0  0  0  0  0  0
  196.3590  172.7790  145.9620 C   0  0  0  0  0  3  0  0  0  0  0  0
  195.2640  172.4600  145.2580 C   0  0  0  0  0  0  0  0  0  0  0  0
  195.7450  174.3960  143.7290 C   0  0  2  0  0  0  0  0  0  0  0  0
  197.3260  173.7920  145.4880 C   0  0  0  0  0  3  0  0  0  0  0  0
  194.3860  171.5110  145.7650 O   0  0  0  0  0  1  0  0  0  0  0  0
  195.6410  175.0730  142.3800 C   0  0  0  0  0  2  0  0  0  0  0  0
  194.9870  173.0670  143.9040 C   0  0  1  0  0  3  0  0  0  0  0  0
  195.3680  172.1660  142.9060 O   0  0  0  0  0  1  0  0  0  0  0  0
  197.0600  174.5490  144.4220 C   0  0  0  0  0  3  0  0  0  0  0  0
  190.7600  176.5000  147.3900 C   0  0  0  0  0  2  0  0  0  0  0  0
  189.7060  177.4550  147.0920 N   0  0  0  0  0  2  0  0  0  0  0  0
  187.3780  177.4190  146.8880 C   0  0  0  0  0  0  0  0  0  0  0  0
  187.9550  177.3500  145.5510 C   0  0  0  0  0  0  0  0  0  0  0  0
  187.4710  177.9420  144.4250 C   0  0  0  0  0  3  0  0  0  0  0  0
  185.6910  178.7320  146.0910 C   0  0  0  0  0  3  0  0  0  0  0  0
  186.2510  178.0910  147.2510 C   0  0  0  0  0  3  0  0  0  0  0  0
  185.5670  179.3820  143.6440 C   0  0  0  0  0  1  0  0  0  0  0  0
  186.2660  178.6660  144.7430 C   0  0  0  0  0  0  0  0  0  0  0  0
  188.5540  176.6930  146.6380 C   0  0  1  0  0  3  0  0  0  0  0  0
  1  7  1  0  0  0  0
  2  8  1  0  0  0  0
  2  1  1  0  0  0  0
  2  7  1  0  0  0  0
  3  5  1  0  0  0  0
  3  6  1  0  0  0  0
  4  7  1  0  0  0  0
  4 19  1  0  0  0  0
  5  9  1  0  0  0  0
  5  2  1  0  0  0  0
  6  8  1  0  0  0  0
  8  1  1  0  0  0  0
  8  4  1  0  0  0  0
  9 12  1  0  0  0  0
 11 14  1  0  0  0  0
 11 10  2  0  0  0  0
 12 16  1  0  0  0  0
 12 18  1  0  0  0  0
 13 10  1  0  0  0  0
 15  9  1  0  0  0  0
 15 12  1  0  0  0  0
 16 11  1  0  0  0  0
 17 16  1  0  0  0  0
 18 13  2  0  0  0  0
 20 19  1  0  0  0  0
 21 25  1  0  0  0  0
 22 28  1  0  0  0  0
 22 21  2  0  0  0  0
 23 27  2  0  0  0  0
 23 22  1  0  0  0  0
 24 25  2  0  0  0  0
 26 27  1  0  0  0  0
 27 24  1  0  0  0  0
 28 21  1  0  0  0  0
 28 20  1  0  0  0  0
M  END
>  <MODEL>
7

>  <REMARK>
 VINA RESULT:      -7.6      3.190      8.694
  Name = 
  4 active torsions:
  status: ('A' for Active; 'I' for Inactive)
    1  A    between atoms: C_3  and  C_18
    2  A    between atoms: C_4  and  C_16
    3  A    between atoms: C_4  and  N_27
    4  A    between atoms: C_19  and  N_27
                            x       y       z     vdW  Elec       q    Type
                         _______ _______ _______ _____ _____    ______ ____

>  <TORSDO>
F 4

$$$$
=
 OpenBabel11062419573D

 28 35  0  0  1  0  0  0  0  0999 V2000
  192.3930  174.5420  146.6140 C   0  0  2  0  0  3  0  0  0  0  0  0
  192.8320  175.2050  145.4140 C   0  0  1  0  0  0  0  0  0  0  0  0
  195.0840  175.6540  146.0000 C   0  0  0  0  0  2  0  0  0  0  0  0
  191.3420  176.4530  146.1550 C   0  0  2  0  0  3  0  0  0  0  0  0
  194.2530  174.7510  145.1070 C   0  0  1  0  0  3  0  0  0  0  0  0
  194.1020  176.6940  146.5610 C   0  0  0  0  0  2  0  0  0  0  0  0
  191.3640  174.9870  145.5690 C   0  0  2  0  0  3  0  0  0  0  0  0
  192.7330  176.0240  146.6750 C   0  0  1  0  0  0  0  0  0  0  0  0
  194.5680  173.2670  145.3430 C   0  0  1  0  0  3  0  0  0  0  0  0
  191.7240  171.1730  143.4480 C   0  0  0  0  0  3  0  0  0  0  0  0
  192.0120  172.3620  142.9020 C   0  0  0  0  0  0  0  0  0  0  0  0
  194.1780  172.3660  144.1770 C   0  0  2  0  0  0  0  0  0  0  0  0
  192.7200  170.4100  144.2300 C   0  0  0  0  0  3  0  0  0  0  0  0
  191.0280  173.0380  142.1910 O   0  0  0  0  0  1  0  0  0  0  0  0
  195.6170  172.8040  144.3370 C   0  0  0  0  0  2  0  0  0  0  0  0
  193.3940  172.9630  142.9940 C   0  0  1  0  0  3  0  0  0  0  0  0
  194.0810  172.7310  141.8000 O   0  0  0  0  0  1  0  0  0  0  0  0
  193.8920  170.9510  144.5640 C   0  0  0  0  0  3  0  0  0  0  0  0
  190.3470  176.5820  147.3030 C   0  0  0  0  0  2  0  0  0  0  0  0
  189.2730  177.4890  146.9300 N   0  0  0  0  0  2  0  0  0  0  0  0
  186.9770  177.0800  146.7890 C   0  0  0  0  0  0  0  0  0  0  0  0
  187.4470  177.5050  145.4760 C   0  0  0  0  0  0  0  0  0  0  0  0
  186.7790  178.2930  144.5890 C   0  0  0  0  0  3  0  0  0  0  0  0
  185.0320  178.2270  146.4630 C   0  0  0  0  0  3  0  0  0  0  0  0
  185.7850  177.3980  147.3660 C   0  0  0  0  0  3  0  0  0  0  0  0
  184.6010  179.5140  144.3220 C   0  0  0  0  0  1  0  0  0  0  0  0
  185.4990  178.6570  145.1410 C   0  0  0  0  0  0  0  0  0  0  0  0
  188.2350  176.6880  146.3030 C   0  0  1  0  0  3  0  0  0  0  0  0
  1  8  1  0  0  0  0
  2  7  1  0  0  0  0
  2  1  1  0  0  0  0
  2  8  1  0  0  0  0
  3  6  1  0  0  0  0
  4  8  1  0  0  0  0
  4 19  1  0  0  0  0
  5  9  1  0  0  0  0
  5  2  1  0  0  0  0
  5  3  1  0  0  0  0
  6  8  1  0  0  0  0
  7  4  1  0  0  0  0
  7  1  1  0  0  0  0
 10 13  1  0  0  0  0
 11 16  1  0  0  0  0
 11 10  2  0  0  0  0
 12 15  1  0  0  0  0
 12 18  1  0  0  0  0
 12  9  1  0  0  0  0
 13 18  2  0  0  0  0
 14 11  1  0  0  0  0
 15  9  1  0  0  0  0
 16 12  1  0  0  0  0
 17 16  1  0  0  0  0
 20 19  1  0  0  0  0
 21 25  1  0  0  0  0
 22 28  1  0  0  0  0
 22 21  2  0  0  0  0
 23 27  2  0  0  0  0
 23 22  1  0  0  0  0
 24 25  2  0  0  0  0
 26 27  1  0  0  0  0
 27 24  1  0  0  0  0
 28 21  1  0  0  0  0
 28 20  1  0  0  0  0
M  END
>  <MODEL>
8

>  <REMARK>
 VINA RESULT:      -7.4      2.676      8.297
  Name = 
  4 active torsions:
  status: ('A' for Active; 'I' for Inactive)
    1  A    between atoms: C_3  and  C_18
    2  A    between atoms: C_4  and  C_16
    3  A    between atoms: C_4  and  N_27
    4  A    between atoms: C_19  and  N_27
                            x       y       z     vdW  Elec       q    Type
                         _______ _______ _______ _____ _____    ______ ____

>  <TORSDO>
F 4

$$$$
=
 OpenBabel11062419573D

 28 35  0  0  1  0  0  0  0  0999 V2000
  193.0900  174.6320  146.4170 C   0  0  2  0  0  3  0  0  0  0  0  0
  193.2090  174.8220  144.9940 C   0  0  1  0  0  0  0  0  0  0  0  0
  194.5170  176.7980  144.9580 C   0  0  0  0  0  2  0  0  0  0  0  0
  191.1660  174.9870  145.3490 C   0  0  2  0  0  3  0  0  0  0  0  0
  194.6200  175.3070  144.6910 C   0  0  1  0  0  3  0  0  0  0  0  0
  193.0210  177.0760  145.1630 C   0  0  0  0  0  2  0  0  0  0  0  0
  192.2140  173.8130  145.4620 C   0  0  2  0  0  3  0  0  0  0  0  0
  192.3950  175.8220  145.7730 C   0  0  1  0  0  0  0  0  0  0  0  0
  195.7580  174.6600  145.4940 C   0  0  1  0  0  3  0  0  0  0  0  0
  195.1880  170.6970  145.3030 C   0  0  0  0  0  3  0  0  0  0  0  0
  194.7420  171.3860  144.2440 C   0  0  0  0  0  0  0  0  0  0  0  0
  196.2020  173.3080  144.9440 C   0  0  2  0  0  0  0  0  0  0  0  0
  196.3100  171.1810  146.1350 C   0  0  0  0  0  3  0  0  0  0  0  0
  193.6730  170.8850  143.5110 O   0  0  0  0  0  1  0  0  0  0  0  0
  197.0010  174.5490  144.6150 C   0  0  0  0  0  2  0  0  0  0  0  0
  195.4050  172.6650  143.7940 C   0  0  1  0  0  3  0  0  0  0  0  0
  196.2550  172.3940  142.7190 O   0  0  0  0  0  1  0  0  0  0  0  0
  196.8140  172.4030  145.9640 C   0  0  0  0  0  3  0  0  0  0  0  0
  190.1340  174.9270  146.4710 C   0  0  0  0  0  2  0  0  0  0  0  0
  188.8470  175.4000  145.9880 N   0  0  0  0  0  2  0  0  0  0  0  0
  188.0540  177.4420  145.1750 C   0  0  0  0  0  0  0  0  0  0  0  0
  187.5130  177.2410  146.5140 C   0  0  0  0  0  0  0  0  0  0  0  0
  186.2690  177.5850  146.9470 C   0  0  0  0  0  3  0  0  0  0  0  0
  186.0880  178.3990  144.5240 C   0  0  0  0  0  3  0  0  0  0  0  0
  187.4110  178.0080  144.1170 C   0  0  0  0  0  3  0  0  0  0  0  0
  184.1500  178.6630  146.1370 C   0  0  0  0  0  1  0  0  0  0  0  0
  185.5380  178.2000  145.8690 C   0  0  0  0  0  0  0  0  0  0  0  0
  188.8180  176.8390  146.1880 C   0  0  1  0  0  3  0  0  0  0  0  0
  2  7  1  0  0  0  0
  2  8  1  0  0  0  0
  2  1  1  0  0  0  0
  3  6  1  0  0  0  0
  4  7  1  0  0  0  0
  4  8  1  0  0  0  0
  4 19  1  0  0  0  0
  5  3  1  0  0  0  0
  5  2  1  0  0  0  0
  5  9  1  0  0  0  0
  6  8  1  0  0  0  0
  7  1  1  0  0  0  0
  8  1  1  0  0  0  0
 10 13  1  0  0  0  0
 11 10  2  0  0  0  0
 12  9  1  0  0  0  0
 12 18  1  0  0  0  0
 14 11  1  0  0  0  0
 15 12  1  0  0  0  0
 15  9  1  0  0  0  0
 16 11  1  0  0  0  0
 16 12  1  0  0  0  0
 17 16  1  0  0  0  0
 18 13  2  0  0  0  0
 20 28  1  0  0  0  0
 20 19  1  0  0  0  0
 21 28  1  0  0  0  0
 21 22  1  0  0  0  0
 22 23  2  0  0  0  0
 24 27  2  0  0  0  0
 25 24  1  0  0  0  0
 25 21  2  0  0  0  0
 27 26  1  0  0  0  0
 27 23  1  0  0  0  0
 28 22  1  0  0  0  0
M  END
>  <MODEL>
9

>  <REMARK>
 VINA RESULT:      -7.4      3.076      9.009
  Name = 
  4 active torsions:
  status: ('A' for Active; 'I' for Inactive)
    1  A    between atoms: C_3  and  C_18
    2  A    between atoms: C_4  and  C_16
    3  A    between atoms: C_4  and  N_27
    4  A    between atoms: C_19  and  N_27
                            x       y       z     vdW  Elec       q    Type
                         _______ _______ _______ _____ _____    ______ ____

>  <TORSDO>
F 4

$$$$
