=
 OpenBabel11062420563D

 31 35  0  0  1  0  0  0  0  0999 V2000
  189.1150  175.1960  142.4420 C   0  0  2  0  0  3  0  0  0  0  0  0
  188.2860  174.2190  141.6010 C   0  0  0  0  0  2  0  0  0  0  0  0
  189.3960  174.5900  143.8220 C   0  0  2  0  0  3  0  0  0  0  0  0
  189.1420  172.4830  140.1900 O   0  0  0  0  0  1  0  0  0  0  0  0
  190.8890  174.3890  143.9870 C   0  0  2  0  0  3  0  0  0  0  0  0
  190.0030  173.1810  143.7570 C   0  0  2  0  0  3  0  0  0  0  0  0
  190.1940  172.6740  142.3270 C   0  0  0  0  0  2  0  0  0  0  0  0
  188.9010  172.8140  141.5220 C   0  0  1  0  0  3  0  0  0  0  0  0
  192.5010  175.3000  145.6440 C   0  0  0  0  0  0  0  0  0  0  0  0
  191.2560  174.4820  145.4590 C   0  0  1  0  0  3  0  0  0  0  0  0
  194.4690  176.0840  145.5770 C   0  0  0  0  0  3  0  0  0  0  0  0
  193.6330  175.2380  144.9250 N   0  0  0  0  0  0  0  0  0  0  0  0
  190.1430  175.0950  146.2030 N   0  0  0  0  0  2  0  0  0  0  0  0
  191.6110  176.4040  147.7120 C   0  0  0  0  0  2  0  0  0  0  0  0
  192.6800  176.1210  146.7100 C   0  0  2  0  0  3  0  0  0  0  0  0
  190.5270  175.3170  147.6050 C   0  0  0  0  0  2  0  0  0  0  0  0
  193.9130  176.6490  146.6780 N   0  0  0  0  0  0  0  0  0  0  0  0
  189.1410  177.5370  141.9860 F   0  0  0  0  0  0  0  0  0  0  0  0
  188.3940  176.5330  142.5820 C   0  0  1  0  0  3  0  0  0  0  0  0
  187.0250  176.4690  141.9180 C   0  0  0  0  0  2  0  0  0  0  0  0
  184.9430  177.5360  145.8650 C   0  0  0  0  0  1  0  0  0  0  0  0
  185.9190  176.7510  142.9220 C   0  0  2  0  0  3  0  0  0  0  0  0
  185.9760  178.8620  143.9580 C   0  0  1  0  0  3  0  0  0  0  0  0
  185.4200  178.1710  142.7410 C   0  0  2  0  0  3  0  0  0  0  0  0
  185.1960  180.0780  144.4540 C   0  0  0  0  0  1  0  0  0  0  0  0
  186.4000  176.5590  144.2410 O   0  0  0  0  0  0  0  0  0  0  0  0
  186.1560  177.7410  144.9630 C   0  0  2  0  0  3  0  0  0  0  0  0
  183.9610  178.1540  142.7430 N   0  0  0  0  0  2  0  0  0  0  0  0
  183.8380  178.1960  140.2670 N   0  0  0  0  0  1  0  0  0  0  0  0
  181.9380  178.1950  141.6000 O   0  0  0  0  0  0  0  0  0  0  0  0
  183.1950  178.1840  141.5380 C   0  0  0  0  0  0  0  0  0  0  0  0
  1 19  1  1  0  0  0
  1  3  1  0  0  0  0
  2  1  1  0  0  0  0
  3  5  1  0  0  0  0
  4  8  1  0  0  0  0
  5 10  1  0  0  0  0
  6  3  1  0  0  0  0
  6  5  1  0  0  0  0
  7  6  1  0  0  0  0
  8  2  1  0  0  0  0
  8  7  1  0  0  0  0
  9 15  1  0  0  0  0
 10  9  1  0  0  0  0
 10 13  1  0  0  0  0
 11 17  2  0  0  0  0
 12 11  1  0  0  0  0
 12  9  2  0  0  0  0
 13 16  1  0  0  0  0
 15 14  1  0  0  0  0
 16 14  1  0  0  0  0
 17 15  1  0  0  0  0
 18 19  1  0  0  0  0
 20 19  1  0  0  0  0
 20 22  1  0  0  0  0
 22 26  1  0  0  0  0
 23 25  1  0  0  0  0
 23 27  1  0  0  0  0
 24 28  1  0  0  0  0
 24 22  1  0  0  0  0
 24 23  1  0  0  0  0
 26 27  1  0  0  0  0
 27 21  1  0  0  0  0
 29 31  1  0  0  0  0
 31 30  2  0  0  0  0
 31 28  1  0  0  0  0
M  END
>  <MODEL>
1

>  <REMARK>
 VINA RESULT:      -8.2      0.000      0.000
  Name = 
  5 active torsions:
  status: ('A' for Active; 'I' for Inactive)
    1  A    between atoms: C_2  and  C_16
    2  A    between atoms: C_4  and  C_29
    3  A    between atoms: C_5  and  C_30
    4  A    between atoms: N_8  and  C_18
    5  A    between atoms: C_29  and  C_30
                            x       y       z     vdW  Elec       q    Type
                         _______ _______ _______ _____ _____    ______ ____

>  <TORSDO>
F 5

$$$$
=
 OpenBabel11062420563D

 31 35  0  0  1  0  0  0  0  0999 V2000
  188.0560  177.6440  146.0520 C   0  0  2  0  0  3  0  0  0  0  0  0
  187.3420  177.8140  147.3980 C   0  0  0  0  0  2  0  0  0  0  0  0
  187.1150  176.9810  145.0400 C   0  0  2  0  0  3  0  0  0  0  0  0
  186.0010  179.6820  148.0670 O   0  0  0  0  0  1  0  0  0  0  0  0
  186.8460  177.9430  143.9000 C   0  0  2  0  0  3  0  0  0  0  0  0
  185.7550  177.6850  144.9210 C   0  0  2  0  0  3  0  0  0  0  0  0
  185.6220  178.8980  145.8420 C   0  0  0  0  0  2  0  0  0  0  0  0
  185.9900  178.5320  147.2800 C   0  0  1  0  0  3  0  0  0  0  0  0
  185.3440  177.7100  141.9340 C   0  0  0  0  0  0  0  0  0  0  0  0
  186.5550  177.1590  142.6300 C   0  0  1  0  0  3  0  0  0  0  0  0
  183.3990  178.3750  141.4210 C   0  0  0  0  0  3  0  0  0  0  0  0
  184.1770  178.0710  142.4900 N   0  0  0  0  0  2  0  0  0  0  0  0
  187.7200  177.2310  141.7330 N   0  0  0  0  0  2  0  0  0  0  0  0
  186.3660  177.4070  139.6650 C   0  0  0  0  0  2  0  0  0  0  0  0
  185.2410  177.7550  140.5820 C   0  0  0  0  0  0  0  0  0  0  0  0
  187.4120  176.5920  140.4450 C   0  0  0  0  0  2  0  0  0  0  0  0
  184.0240  178.1970  140.2310 N   0  0  0  0  0  0  0  0  0  0  0  0
  189.9490  177.1420  147.4140 F   0  0  0  0  0  0  0  0  0  0  0  0
  189.3300  176.8220  146.2170 C   0  0  1  0  0  3  0  0  0  0  0  0
  189.0040  175.3340  146.2050 C   0  0  0  0  0  2  0  0  0  0  0  0
  190.8670  171.9670  143.7060 C   0  0  0  0  0  1  0  0  0  0  0  0
  190.0100  174.5630  145.3640 C   0  0  2  0  0  3  0  0  0  0  0  0
  189.2770  173.8920  143.2320 C   0  0  1  0  0  3  0  0  0  0  0  0
  189.9470  175.0470  143.9280 C   0  0  2  0  0  3  0  0  0  0  0  0
  189.6020  173.7250  141.7490 C   0  0  0  0  0  1  0  0  0  0  0  0
  189.7370  173.1750  145.4310 O   0  0  0  0  0  0  0  0  0  0  0  0
  189.5940  172.7020  144.1140 C   0  0  2  0  0  3  0  0  0  0  0  0
  191.3080  175.2580  143.4490 N   0  0  0  0  0  2  0  0  0  0  0  0
  190.9200  177.6720  143.0400 N   0  0  0  0  0  1  0  0  0  0  0  0
  192.9500  176.6490  142.5720 O   0  0  0  0  0  0  0  0  0  0  0  0
  191.7730  176.5320  143.0010 C   0  0  0  0  0  0  0  0  0  0  0  0
  1 19  1  1  0  0  0
  1  2  1  0  0  0  0
  3  1  1  0  0  0  0
  5  6  1  0  0  0  0
  5  3  1  0  0  0  0
  6  3  1  0  0  0  0
  6  7  1  0  0  0  0
  7  8  1  0  0  0  0
  8  2  1  0  0  0  0
  8  4  1  0  0  0  0
  9 12  1  0  0  0  0
  9 10  1  0  0  0  0
 10  5  1  0  0  0  0
 11 12  1  0  0  0  0
 13 10  1  0  0  0  0
 14 16  1  0  0  0  0
 14 15  1  0  0  0  0
 15  9  2  0  0  0  0
 16 13  1  0  0  0  0
 17 15  1  0  0  0  0
 17 11  2  0  0  0  0
 19 18  1  0  0  0  0
 20 19  1  0  0  0  0
 21 27  1  0  0  0  0
 22 26  1  0  0  0  0
 22 20  1  0  0  0  0
 23 24  1  0  0  0  0
 23 27  1  0  0  0  0
 24 22  1  0  0  0  0
 25 23  1  0  0  0  0
 27 26  1  0  0  0  0
 28 24  1  0  0  0  0
 30 31  2  0  0  0  0
 31 29  1  0  0  0  0
 31 28  1  0  0  0  0
M  END
>  <MODEL>
2

>  <REMARK>
 VINA RESULT:      -8.0      2.829      7.800
  Name = 
  5 active torsions:
  status: ('A' for Active; 'I' for Inactive)
    1  A    between atoms: C_2  and  C_16
    2  A    between atoms: C_4  and  C_29
    3  A    between atoms: C_5  and  C_30
    4  A    between atoms: N_8  and  C_18
    5  A    between atoms: C_29  and  C_30
                            x       y       z     vdW  Elec       q    Type
                         _______ _______ _______ _____ _____    ______ ____

>  <TORSDO>
F 5

$$$$
=
 OpenBabel11062420563D

 31 35  0  0  1  0  0  0  0  0999 V2000
  190.5060  175.1250  144.6250 C   0  0  2  0  0  3  0  0  0  0  0  0
  192.0210  175.3500  144.5640 C   0  0  0  0  0  2  0  0  0  0  0  0
  189.8630  176.1440  145.5730 C   0  0  2  0  0  3  0  0  0  0  0  0
  193.1770  176.8260  143.0740 O   0  0  0  0  0  1  0  0  0  0  0  0
  188.9200  177.0350  144.7880 C   0  0  2  0  0  3  0  0  0  0  0  0
  190.2480  177.5970  145.2580 C   0  0  2  0  0  3  0  0  0  0  0  0
  191.1980  177.7230  144.0670 C   0  0  0  0  0  2  0  0  0  0  0  0
  192.4050  176.8000  144.2350 C   0  0  1  0  0  3  0  0  0  0  0  0
  186.6310  177.9950  144.8900 C   0  0  0  0  0  0  0  0  0  0  0  0
  187.8060  177.5240  145.6980 C   0  0  1  0  0  3  0  0  0  0  0  0
  185.3390  178.9910  143.5380 C   0  0  0  0  0  3  0  0  0  0  0  0
  186.6530  178.7640  143.7900 N   0  0  0  0  0  0  0  0  0  0  0  0
  187.3880  176.4310  146.5920 N   0  0  0  0  0  2  0  0  0  0  0  0
  184.9800  177.0070  146.4980 C   0  0  0  0  0  2  0  0  0  0  0  0
  185.3490  177.8140  145.2980 C   0  0  2  0  0  3  0  0  0  0  0  0
  186.2220  176.8410  147.3890 C   0  0  0  0  0  2  0  0  0  0  0  0
  184.5090  178.4170  144.4430 N   0  0  0  0  0  0  0  0  0  0  0  0
  189.2910  173.7270  146.1280 F   0  0  0  0  0  0  0  0  0  0  0  0
  190.1890  173.7020  145.0730 C   0  0  1  0  0  3  0  0  0  0  0  0
  189.5860  172.9070  143.9220 C   0  0  0  0  0  2  0  0  0  0  0  0
  191.1290  173.3470  139.6230 C   0  0  0  0  0  1  0  0  0  0  0  0
  189.9340  173.5380  142.5840 C   0  0  2  0  0  3  0  0  0  0  0  0
  188.9650  172.5410  140.6860 C   0  0  1  0  0  3  0  0  0  0  0  0
  188.6920  173.6040  141.7160 C   0  0  2  0  0  3  0  0  0  0  0  0
  188.2910  172.7320  139.3290 C   0  0  0  0  0  1  0  0  0  0  0  0
  190.9480  172.7870  141.9400 O   0  0  0  0  0  0  0  0  0  0  0  0
  190.4770  172.4380  140.6610 C   0  0  2  0  0  3  0  0  0  0  0  0
  188.6120  174.9330  141.1190 N   0  0  0  0  0  2  0  0  0  0  0  0
  186.6770  175.5810  142.5290 N   0  0  0  0  0  1  0  0  0  0  0  0
  187.5810  177.0080  140.9370 O   0  0  0  0  0  0  0  0  0  0  0  0
  187.6200  175.8860  141.5050 C   0  0  0  0  0  0  0  0  0  0  0  0
  1 19  1  1  0  0  0
  1  3  1  0  0  0  0
  2  1  1  0  0  0  0
  4  8  1  0  0  0  0
  5  6  1  0  0  0  0
  5  3  1  0  0  0  0
  5 10  1  0  0  0  0
  6  3  1  0  0  0  0
  7  8  1  0  0  0  0
  7  6  1  0  0  0  0
  8  2  1  0  0  0  0
  9 15  1  0  0  0  0
  9 10  1  0  0  0  0
 10 13  1  0  0  0  0
 11 12  1  0  0  0  0
 11 17  2  0  0  0  0
 12  9  2  0  0  0  0
 13 16  1  0  0  0  0
 14 16  1  0  0  0  0
 15 14  1  0  0  0  0
 17 15  1  0  0  0  0
 19 18  1  0  0  0  0
 20 19  1  0  0  0  0
 21 27  1  0  0  0  0
 22 20  1  0  0  0  0
 23 24  1  0  0  0  0
 24 22  1  0  0  0  0
 25 23  1  0  0  0  0
 26 22  1  0  0  0  0
 27 23  1  0  0  0  0
 27 26  1  0  0  0  0
 28 31  1  0  0  0  0
 28 24  1  0  0  0  0
 30 31  2  0  0  0  0
 31 29  1  0  0  0  0
M  END
>  <MODEL>
3

>  <REMARK>
 VINA RESULT:      -8.0      2.881      6.289
  Name = 
  5 active torsions:
  status: ('A' for Active; 'I' for Inactive)
    1  A    between atoms: C_2  and  C_16
    2  A    between atoms: C_4  and  C_29
    3  A    between atoms: C_5  and  C_30
    4  A    between atoms: N_8  and  C_18
    5  A    between atoms: C_29  and  C_30
                            x       y       z     vdW  Elec       q    Type
                         _______ _______ _______ _____ _____    ______ ____

>  <TORSDO>
F 5

$$$$
=
 OpenBabel11062420563D

 31 35  0  0  1  0  0  0  0  0999 V2000
  187.8030  177.4320  146.2250 C   0  0  2  0  0  3  0  0  0  0  0  0
  187.0110  177.7520  147.4980 C   0  0  0  0  0  2  0  0  0  0  0  0
  186.8560  176.9150  145.1360 C   0  0  2  0  0  3  0  0  0  0  0  0
  185.9550  179.8360  148.0250 O   0  0  0  0  0  1  0  0  0  0  0  0
  186.8590  177.8810  143.9680 C   0  0  2  0  0  3  0  0  0  0  0  0
  185.6530  177.8360  144.8860 C   0  0  2  0  0  3  0  0  0  0  0  0
  185.6480  179.0750  145.7820 C   0  0  0  0  0  2  0  0  0  0  0  0
  185.8170  178.6860  147.2510 C   0  0  1  0  0  3  0  0  0  0  0  0
  185.3470  177.7090  142.0040 C   0  0  0  0  0  0  0  0  0  0  0  0
  186.5530  177.1280  142.6840 C   0  0  1  0  0  3  0  0  0  0  0  0
  183.4090  178.4110  141.5130 C   0  0  0  0  0  3  0  0  0  0  0  0
  184.1870  178.0740  142.5720 N   0  0  0  0  0  2  0  0  0  0  0  0
  187.7160  177.2030  141.7830 N   0  0  0  0  0  2  0  0  0  0  0  0
  186.3570  177.4410  139.7250 C   0  0  0  0  0  2  0  0  0  0  0  0
  185.2400  177.7840  140.6530 C   0  0  0  0  0  0  0  0  0  0  0  0
  187.3940  176.5960  140.4830 C   0  0  0  0  0  2  0  0  0  0  0  0
  184.0270  178.2490  140.3170 N   0  0  0  0  0  0  0  0  0  0  0  0
  188.3530  175.2920  147.1260 F   0  0  0  0  0  0  0  0  0  0  0  0
  188.8980  176.4090  146.5130 C   0  0  1  0  0  3  0  0  0  0  0  0
  189.5800  175.9860  145.2190 C   0  0  0  0  0  2  0  0  0  0  0  0
  193.8610  176.6120  146.7460 C   0  0  0  0  0  1  0  0  0  0  0  0
  191.0540  176.3560  145.2350 C   0  0  2  0  0  3  0  0  0  0  0  0
  192.5470  174.6380  145.8300 C   0  0  1  0  0  3  0  0  0  0  0  0
  191.8670  175.2310  144.6240 C   0  0  2  0  0  3  0  0  0  0  0  0
  193.8800  173.9390  145.5710 C   0  0  0  0  0  1  0  0  0  0  0  0
  191.4780  176.6090  146.5620 O   0  0  0  0  0  0  0  0  0  0  0  0
  192.5840  175.7810  146.8250 C   0  0  2  0  0  3  0  0  0  0  0  0
  192.8250  175.8050  143.6850 N   0  0  0  0  0  2  0  0  0  0  0  0
  191.9600  174.4570  141.7920 N   0  0  0  0  0  1  0  0  0  0  0  0
  193.7440  175.9230  141.5540 O   0  0  0  0  0  0  0  0  0  0  0  0
  192.8790  175.4140  142.3130 C   0  0  0  0  0  0  0  0  0  0  0  0
  1 19  1  1  0  0  0
  1  2  1  0  0  0  0
  3  1  1  0  0  0  0
  5  6  1  0  0  0  0
  5  3  1  0  0  0  0
  6  3  1  0  0  0  0
  6  7  1  0  0  0  0
  7  8  1  0  0  0  0
  8  2  1  0  0  0  0
  8  4  1  0  0  0  0
  9 12  1  0  0  0  0
  9 10  1  0  0  0  0
 10  5  1  0  0  0  0
 11 12  1  0  0  0  0
 13 10  1  0  0  0  0
 14 16  1  0  0  0  0
 14 15  1  0  0  0  0
 15  9  2  0  0  0  0
 16 13  1  0  0  0  0
 17 15  1  0  0  0  0
 17 11  2  0  0  0  0
 19 18  1  0  0  0  0
 20 22  1  0  0  0  0
 20 19  1  0  0  0  0
 21 27  1  0  0  0  0
 22 26  1  0  0  0  0
 23 27  1  0  0  0  0
 24 22  1  0  0  0  0
 24 23  1  0  0  0  0
 25 23  1  0  0  0  0
 26 27  1  0  0  0  0
 28 24  1  0  0  0  0
 29 31  1  0  0  0  0
 30 31  2  0  0  0  0
 31 28  1  0  0  0  0
M  END
>  <MODEL>
4

>  <REMARK>
 VINA RESULT:      -7.9      2.936      8.248
  Name = 
  5 active torsions:
  status: ('A' for Active; 'I' for Inactive)
    1  A    between atoms: C_2  and  C_16
    2  A    between atoms: C_4  and  C_29
    3  A    between atoms: C_5  and  C_30
    4  A    between atoms: N_8  and  C_18
    5  A    between atoms: C_29  and  C_30
                            x       y       z     vdW  Elec       q    Type
                         _______ _______ _______ _____ _____    ______ ____

>  <TORSDO>
F 5

$$$$
=
 OpenBabel11062420563D

 31 35  0  0  1  0  0  0  0  0999 V2000
  188.8700  175.6000  144.1820 C   0  0  2  0  0  3  0  0  0  0  0  0
  189.1970  174.8810  145.4960 C   0  0  0  0  0  2  0  0  0  0  0  0
  187.5810  176.4140  144.3380 C   0  0  2  0  0  3  0  0  0  0  0  0
  190.4800  175.7640  147.3150 O   0  0  0  0  0  1  0  0  0  0  0  0
  187.8940  177.8870  144.1680 C   0  0  2  0  0  3  0  0  0  0  0  0
  187.5940  177.3510  145.5540 C   0  0  2  0  0  3  0  0  0  0  0  0
  188.8910  177.2710  146.3610 C   0  0  0  0  0  2  0  0  0  0  0  0
  189.2260  175.8210  146.7100 C   0  0  1  0  0  3  0  0  0  0  0  0
  186.3830  178.1700  142.2160 C   0  0  0  0  0  0  0  0  0  0  0  0
  186.6720  178.6080  143.6230 C   0  0  1  0  0  3  0  0  0  0  0  0
  186.4750  177.7270  140.1460 C   0  0  0  0  0  3  0  0  0  0  0  0
  187.2620  178.0040  141.2160 N   0  0  0  0  0  0  0  0  0  0  0  0
  185.5110  178.3210  144.4820 N   0  0  0  0  0  2  0  0  0  0  0  0
  183.9050  178.1720  142.6000 C   0  0  0  0  0  2  0  0  0  0  0  0
  185.1180  178.0400  141.7410 C   0  0  2  0  0  3  0  0  0  0  0  0
  184.2900  178.8990  143.9000 C   0  0  0  0  0  2  0  0  0  0  0  0
  185.1500  177.7360  140.4350 N   0  0  0  0  0  0  0  0  0  0  0  0
  187.5080  174.7520  142.4170 F   0  0  0  0  0  0  0  0  0  0  0  0
  188.7370  174.5990  143.0380 C   0  0  1  0  0  3  0  0  0  0  0  0
  189.8450  174.8150  142.0150 C   0  0  0  0  0  2  0  0  0  0  0  0
  193.9140  172.7120  142.2860 C   0  0  0  0  0  1  0  0  0  0  0  0
  191.1880  174.3620  142.5640 C   0  0  2  0  0  3  0  0  0  0  0  0
  193.0700  174.8730  141.2470 C   0  0  1  0  0  3  0  0  0  0  0  0
  192.2190  175.4530  142.3460 C   0  0  2  0  0  3  0  0  0  0  0  0
  194.5190  175.3520  141.1980 C   0  0  0  0  0  1  0  0  0  0  0  0
  191.5940  173.1630  141.9270 O   0  0  0  0  0  0  0  0  0  0  0  0
  192.8750  173.3770  141.3870 C   0  0  2  0  0  3  0  0  0  0  0  0
  192.9730  175.6320  143.5820 N   0  0  0  0  0  2  0  0  0  0  0  0
  191.7320  177.6940  144.1820 N   0  0  0  0  0  1  0  0  0  0  0  0
  193.4450  176.8520  145.5030 O   0  0  0  0  0  0  0  0  0  0  0  0
  192.7460  176.7330  144.4640 C   0  0  0  0  0  0  0  0  0  0  0  0
  1 19  1  6  0  0  0
  1  3  1  0  0  0  0
  1  2  1  0  0  0  0
  2  8  1  0  0  0  0
  3  6  1  0  0  0  0
  5  3  1  0  0  0  0
  5  6  1  0  0  0  0
  6  7  1  0  0  0  0
  7  8  1  0  0  0  0
  8  4  1  0  0  0  0
  9 10  1  0  0  0  0
 10  5  1  0  0  0  0
 10 13  1  0  0  0  0
 11 17  2  0  0  0  0
 11 12  1  0  0  0  0
 12  9  2  0  0  0  0
 14 16  1  0  0  0  0
 15  9  1  0  0  0  0
 15 14  1  0  0  0  0
 16 13  1  0  0  0  0
 17 15  1  0  0  0  0
 18 19  1  0  0  0  0
 20 22  1  0  0  0  0
 20 19  1  0  0  0  0
 23 27  1  0  0  0  0
 23 24  1  0  0  0  0
 24 22  1  0  0  0  0
 24 28  1  0  0  0  0
 25 23  1  0  0  0  0
 26 22  1  0  0  0  0
 27 26  1  0  0  0  0
 27 21  1  0  0  0  0
 28 31  1  0  0  0  0
 29 31  1  0  0  0  0
 31 30  2  0  0  0  0
M  END
>  <MODEL>
5

>  <REMARK>
 VINA RESULT:      -7.7      2.923      7.667
  Name = 
  5 active torsions:
  status: ('A' for Active; 'I' for Inactive)
    1  A    between atoms: C_2  and  C_16
    2  A    between atoms: C_4  and  C_29
    3  A    between atoms: C_5  and  C_30
    4  A    between atoms: N_8  and  C_18
    5  A    between atoms: C_29  and  C_30
                            x       y       z     vdW  Elec       q    Type
                         _______ _______ _______ _____ _____    ______ ____

>  <TORSDO>
F 5

$$$$
=
 OpenBabel11062420563D

 31 35  0  0  1  0  0  0  0  0999 V2000
  187.3490  177.3500  145.5750 C   0  0  2  0  0  3  0  0  0  0  0  0
  186.8660  176.6880  146.8700 C   0  0  0  0  0  2  0  0  0  0  0  0
  186.1850  177.4820  144.5880 C   0  0  2  0  0  3  0  0  0  0  0  0
  185.9380  177.8070  148.7740 O   0  0  0  0  0  1  0  0  0  0  0  0
  185.9120  178.9500  144.3250 C   0  0  2  0  0  3  0  0  0  0  0  0
  184.9480  178.1640  145.1910 C   0  0  2  0  0  3  0  0  0  0  0  0
  185.1350  178.5630  146.6550 C   0  0  0  0  0  2  0  0  0  0  0  0
  185.6380  177.3790  147.4820 C   0  0  1  0  0  3  0  0  0  0  0  0
  186.1690  178.3990  141.9160 C   0  0  0  0  0  0  0  0  0  0  0  0
  185.3290  179.1190  142.9320 C   0  0  1  0  0  3  0  0  0  0  0  0
  187.7390  177.7050  140.6750 C   0  0  0  0  0  3  0  0  0  0  0  0
  187.5070  178.3940  141.8210 N   0  0  0  0  0  2  0  0  0  0  0  0
  183.9560  178.5870  142.9090 N   0  0  0  0  0  2  0  0  0  0  0  0
  184.1590  177.6140  140.6380 C   0  0  0  0  0  2  0  0  0  0  0  0
  185.6290  177.7750  140.8380 C   0  0  0  0  0  0  0  0  0  0  0  0
  183.4200  178.6180  141.5400 C   0  0  0  0  0  2  0  0  0  0  0  0
  186.6060  177.3050  140.0470 N   0  0  0  0  0  0  0  0  0  0  0  0
  188.0610  175.9440  143.7840 F   0  0  0  0  0  0  0  0  0  0  0  0
  188.4900  176.5510  144.9540 C   0  0  1  0  0  3  0  0  0  0  0  0
  189.6670  177.4650  144.6400 C   0  0  0  0  0  2  0  0  0  0  0  0
  193.9810  176.2010  143.7220 C   0  0  0  0  0  1  0  0  0  0  0  0
  190.8390  176.6720  144.0830 C   0  0  2  0  0  3  0  0  0  0  0  0
  192.3780  175.8520  145.6620 C   0  0  1  0  0  3  0  0  0  0  0  0
  191.1000  175.4660  144.9650 C   0  0  2  0  0  3  0  0  0  0  0  0
  193.2670  174.6970  146.1200 C   0  0  0  0  0  1  0  0  0  0  0  0
  191.9920  177.4930  144.0120 O   0  0  0  0  0  0  0  0  0  0  0  0
  193.0230  176.8460  144.7180 C   0  0  2  0  0  3  0  0  0  0  0  0
  191.2770  174.2960  144.1110 N   0  0  0  0  0  2  0  0  0  0  0  0
  189.6360  172.9580  145.4010 N   0  0  0  0  0  1  0  0  0  0  0  0
  190.7880  172.0860  143.5850 O   0  0  0  0  0  0  0  0  0  0  0  0
  190.5760  173.0720  144.3370 C   0  0  0  0  0  0  0  0  0  0  0  0
  1 19  1  6  0  0  0
  1  2  1  0  0  0  0
  2  8  1  0  0  0  0
  3  6  1  0  0  0  0
  3  1  1  0  0  0  0
  5  3  1  0  0  0  0
  5  6  1  0  0  0  0
  6  7  1  0  0  0  0
  7  8  1  0  0  0  0
  8  4  1  0  0  0  0
  9 10  1  0  0  0  0
 10  5  1  0  0  0  0
 11 12  1  0  0  0  0
 12  9  1  0  0  0  0
 13 10  1  0  0  0  0
 14 15  1  0  0  0  0
 14 16  1  0  0  0  0
 15  9  2  0  0  0  0
 16 13  1  0  0  0  0
 17 11  2  0  0  0  0
 17 15  1  0  0  0  0
 18 19  1  0  0  0  0
 20 19  1  0  0  0  0
 21 27  1  0  0  0  0
 22 20  1  0  0  0  0
 22 24  1  0  0  0  0
 23 25  1  0  0  0  0
 24 23  1  0  0  0  0
 26 22  1  0  0  0  0
 26 27  1  0  0  0  0
 27 23  1  0  0  0  0
 28 31  1  0  0  0  0
 28 24  1  0  0  0  0
 30 31  2  0  0  0  0
 31 29  1  0  0  0  0
M  END
>  <MODEL>
6

>  <REMARK>
 VINA RESULT:      -7.7      2.714      7.866
  Name = 
  5 active torsions:
  status: ('A' for Active; 'I' for Inactive)
    1  A    between atoms: C_2  and  C_16
    2  A    between atoms: C_4  and  C_29
    3  A    between atoms: C_5  and  C_30
    4  A    between atoms: N_8  and  C_18
    5  A    between atoms: C_29  and  C_30
                            x       y       z     vdW  Elec       q    Type
                         _______ _______ _______ _____ _____    ______ ____

>  <TORSDO>
F 5

$$$$
=
 OpenBabel11062420563D

 31 35  0  0  1  0  0  0  0  0999 V2000
  186.5610  177.3510  142.0990 C   0  0  2  0  0  3  0  0  0  0  0  0
  185.9860  178.2330  140.9850 C   0  0  0  0  0  2  0  0  0  0  0  0
  186.1970  177.9350  143.4690 C   0  0  2  0  0  3  0  0  0  0  0  0
  183.8070  178.0430  140.0100 O   0  0  0  0  0  1  0  0  0  0  0  0
  185.3100  176.9550  144.2120 C   0  0  2  0  0  3  0  0  0  0  0  0
  184.6960  178.2150  143.6320 C   0  0  2  0  0  3  0  0  0  0  0  0
  183.8780  177.8590  142.3900 C   0  0  0  0  0  2  0  0  0  0  0  0
  184.4810  178.5000  141.1400 C   0  0  1  0  0  3  0  0  0  0  0  0
  186.9540  176.9600  146.0740 C   0  0  0  0  0  0  0  0  0  0  0  0
  185.5070  177.1240  145.7090 C   0  0  1  0  0  3  0  0  0  0  0  0
  188.9300  176.2480  146.3590 C   0  0  0  0  0  3  0  0  0  0  0  0
  187.8050  176.0200  145.6340 N   0  0  0  0  0  0  0  0  0  0  0  0
  185.0400  178.4600  146.1170 N   0  0  0  0  0  2  0  0  0  0  0  0
  186.8610  178.8130  147.7610 C   0  0  0  0  0  2  0  0  0  0  0  0
  187.5430  177.6870  147.0570 C   0  0  2  0  0  3  0  0  0  0  0  0
  185.3430  178.6950  147.5370 C   0  0  0  0  0  2  0  0  0  0  0  0
  188.8050  177.2700  147.2400 N   0  0  0  0  0  0  0  0  0  0  0  0
  188.6870  177.4760  143.1740 F   0  0  0  0  0  0  0  0  0  0  0  0
  188.0750  177.2220  141.9580 C   0  0  1  0  0  3  0  0  0  0  0  0
  188.4450  175.8190  141.4950 C   0  0  0  0  0  2  0  0  0  0  0  0
  189.6840  172.2110  144.0450 C   0  0  0  0  0  1  0  0  0  0  0  0
  189.0390  175.0090  142.6360 C   0  0  2  0  0  3  0  0  0  0  0  0
  190.6710  173.4230  142.0400 C   0  0  1  0  0  3  0  0  0  0  0  0
  190.5350  174.8700  142.4350 C   0  0  2  0  0  3  0  0  0  0  0  0
  192.0080  172.7610  142.3670 C   0  0  0  0  0  1  0  0  0  0  0  0
  188.4260  173.7330  142.6970 O   0  0  0  0  0  0  0  0  0  0  0  0
  189.4460  172.7650  142.6430 C   0  0  2  0  0  3  0  0  0  0  0  0
  191.2030  175.1540  143.7000 N   0  0  0  0  0  2  0  0  0  0  0  0
  191.8190  177.4510  142.9970 N   0  0  0  0  0  1  0  0  0  0  0  0
  192.4260  176.5860  145.0630 O   0  0  0  0  0  0  0  0  0  0  0  0
  191.8420  176.4050  143.9640 C   0  0  0  0  0  0  0  0  0  0  0  0
  1 19  1  6  0  0  0
  1  3  1  0  0  0  0
  2  8  1  0  0  0  0
  2  1  1  0  0  0  0
  3  6  1  0  0  0  0
  3  5  1  0  0  0  0
  4  8  1  0  0  0  0
  5 10  1  0  0  0  0
  6  5  1  0  0  0  0
  7  6  1  0  0  0  0
  8  7  1  0  0  0  0
  9 15  1  0  0  0  0
 10  9  1  0  0  0  0
 10 13  1  0  0  0  0
 11 17  2  0  0  0  0
 12  9  2  0  0  0  0
 12 11  1  0  0  0  0
 13 16  1  0  0  0  0
 15 17  1  0  0  0  0
 15 14  1  0  0  0  0
 16 14  1  0  0  0  0
 19 18  1  0  0  0  0
 20 19  1  0  0  0  0
 20 22  1  0  0  0  0
 22 26  1  0  0  0  0
 23 25  1  0  0  0  0
 23 24  1  0  0  0  0
 23 27  1  0  0  0  0
 24 22  1  0  0  0  0
 24 28  1  0  0  0  0
 27 26  1  0  0  0  0
 27 21  1  0  0  0  0
 28 31  1  0  0  0  0
 29 31  1  0  0  0  0
 31 30  2  0  0  0  0
M  END
>  <MODEL>
7

>  <REMARK>
 VINA RESULT:      -7.6      2.394      6.453
  Name = 
  5 active torsions:
  status: ('A' for Active; 'I' for Inactive)
    1  A    between atoms: C_2  and  C_16
    2  A    between atoms: C_4  and  C_29
    3  A    between atoms: C_5  and  C_30
    4  A    between atoms: N_8  and  C_18
    5  A    between atoms: C_29  and  C_30
                            x       y       z     vdW  Elec       q    Type
                         _______ _______ _______ _____ _____    ______ ____

>  <TORSDO>
F 5

$$$$
=
 OpenBabel11062420563D

 31 35  0  0  1  0  0  0  0  0999 V2000
  191.5080  176.7940  145.1950 C   0  0  2  0  0  3  0  0  0  0  0  0
  191.9560  176.2580  146.5600 C   0  0  0  0  0  2  0  0  0  0  0  0
  190.0890  176.3060  144.8810 C   0  0  2  0  0  3  0  0  0  0  0  0
  191.5860  177.3010  148.6830 O   0  0  0  0  0  1  0  0  0  0  0  0
  189.1570  177.4980  144.7900 C   0  0  2  0  0  3  0  0  0  0  0  0
  189.0830  176.5930  146.0050 C   0  0  2  0  0  3  0  0  0  0  0  0
  189.7090  177.3010  147.2060 C   0  0  0  0  0  2  0  0  0  0  0  0
  190.9560  176.5590  147.6860 C   0  0  1  0  0  3  0  0  0  0  0  0
  186.8920  178.1620  144.0150 C   0  0  0  0  0  0  0  0  0  0  0  0
  188.0120  177.1780  143.8430 C   0  0  1  0  0  3  0  0  0  0  0  0
  185.3240  179.3750  144.7650 C   0  0  0  0  0  3  0  0  0  0  0  0
  186.3770  178.6200  145.1670 N   0  0  0  0  0  2  0  0  0  0  0  0
  188.5000  177.2170  142.4540 N   0  0  0  0  0  2  0  0  0  0  0  0
  186.4410  178.2580  141.5500 C   0  0  0  0  0  2  0  0  0  0  0  0
  186.1390  178.5960  142.9720 C   0  0  0  0  0  0  0  0  0  0  0  0
  187.3820  177.0420  141.5150 C   0  0  0  0  0  2  0  0  0  0  0  0
  185.1510  179.3860  143.4200 N   0  0  0  0  0  0  0  0  0  0  0  0
  192.3420  177.1850  142.9950 F   0  0  0  0  0  0  0  0  0  0  0  0
  192.4780  176.3610  144.1000 C   0  0  1  0  0  3  0  0  0  0  0  0
  193.9130  176.4340  144.6060 C   0  0  0  0  0  2  0  0  0  0  0  0
  197.5730  173.9280  143.4340 C   0  0  0  0  0  1  0  0  0  0  0  0
  194.7460  175.2930  144.0460 C   0  0  2  0  0  3  0  0  0  0  0  0
  196.2130  174.2430  145.5570 C   0  0  1  0  0  3  0  0  0  0  0  0
  194.7960  174.1600  145.0530 C   0  0  2  0  0  3  0  0  0  0  0  0
  196.8180  172.9400  146.0740 C   0  0  0  0  0  1  0  0  0  0  0  0
  196.0540  175.7470  143.7470 O   0  0  0  0  0  0  0  0  0  0  0  0
  196.9630  174.9150  144.4240 C   0  0  2  0  0  3  0  0  0  0  0  0
  194.5400  172.9050  144.3530 N   0  0  0  0  0  2  0  0  0  0  0  0
  192.1150  172.9750  144.8670 N   0  0  0  0  0  1  0  0  0  0  0  0
  193.0800  171.2250  143.6860 O   0  0  0  0  0  0  0  0  0  0  0  0
  193.2380  172.3230  144.2800 C   0  0  0  0  0  0  0  0  0  0  0  0
  1 19  1  6  0  0  0
  1  2  1  0  0  0  0
  2  8  1  0  0  0  0
  3  1  1  0  0  0  0
  3  6  1  0  0  0  0
  5  3  1  0  0  0  0
  5  6  1  0  0  0  0
  6  7  1  0  0  0  0
  7  8  1  0  0  0  0
  8  4  1  0  0  0  0
  9 12  1  0  0  0  0
 10  9  1  0  0  0  0
 10  5  1  0  0  0  0
 11 12  1  0  0  0  0
 13 10  1  0  0  0  0
 14 15  1  0  0  0  0
 15 17  1  0  0  0  0
 15  9  2  0  0  0  0
 16 14  1  0  0  0  0
 16 13  1  0  0  0  0
 17 11  2  0  0  0  0
 18 19  1  0  0  0  0
 19 20  1  0  0  0  0
 21 27  1  0  0  0  0
 22 20  1  0  0  0  0
 22 24  1  0  0  0  0
 23 25  1  0  0  0  0
 24 23  1  0  0  0  0
 26 22  1  0  0  0  0
 26 27  1  0  0  0  0
 27 23  1  0  0  0  0
 28 24  1  0  0  0  0
 30 31  2  0  0  0  0
 31 28  1  0  0  0  0
 31 29  1  0  0  0  0
M  END
>  <MODEL>
8

>  <REMARK>
 VINA RESULT:      -7.6      3.554      8.771
  Name = 
  5 active torsions:
  status: ('A' for Active; 'I' for Inactive)
    1  A    between atoms: C_2  and  C_16
    2  A    between atoms: C_4  and  C_29
    3  A    between atoms: C_5  and  C_30
    4  A    between atoms: N_8  and  C_18
    5  A    between atoms: C_29  and  C_30
                            x       y       z     vdW  Elec       q    Type
                         _______ _______ _______ _____ _____    ______ ____

>  <TORSDO>
F 5

$$$$
=
 OpenBabel11062420563D

 31 35  0  0  1  0  0  0  0  0999 V2000
  190.3940  175.3080  145.8220 C   0  0  2  0  0  3  0  0  0  0  0  0
  191.2420  176.3140  146.6080 C   0  0  0  0  0  2  0  0  0  0  0  0
  190.3420  175.7090  144.3440 C   0  0  2  0  0  3  0  0  0  0  0  0
  193.6110  176.2170  146.9410 O   0  0  0  0  0  1  0  0  0  0  0  0
  191.0040  174.6320  143.5070 C   0  0  2  0  0  3  0  0  0  0  0  0
  191.7290  175.9460  143.7270 C   0  0  2  0  0  3  0  0  0  0  0  0
  192.8730  175.7370  144.7210 C   0  0  0  0  0  2  0  0  0  0  0  0
  192.6340  176.5380  146.0010 C   0  0  1  0  0  3  0  0  0  0  0  0
  190.9280  173.4680  141.3140 C   0  0  0  0  0  0  0  0  0  0  0  0
  190.3870  174.6140  142.1180 C   0  0  1  0  0  3  0  0  0  0  0  0
  192.1620  172.0880  140.2820 C   0  0  0  0  0  3  0  0  0  0  0  0
  192.2060  173.0690  141.2180 N   0  0  0  0  0  2  0  0  0  0  0  0
  188.9240  174.4940  142.2340 N   0  0  0  0  0  2  0  0  0  0  0  0
  188.6940  172.9850  140.2820 C   0  0  0  0  0  2  0  0  0  0  0  0
  190.1650  172.7770  140.4300 C   0  0  0  0  0  0  0  0  0  0  0  0
  188.3180  174.3410  140.9030 C   0  0  0  0  0  2  0  0  0  0  0  0
  190.9200  171.8790  139.7790 N   0  0  0  0  0  0  0  0  0  0  0  0
  189.0070  174.5020  147.5870 F   0  0  0  0  0  0  0  0  0  0  0  0
  188.9860  175.2190  146.4020 C   0  0  1  0  0  3  0  0  0  0  0  0
  188.4350  176.6130  146.6710 C   0  0  0  0  0  2  0  0  0  0  0  0
  184.0670  177.9510  146.2470 C   0  0  0  0  0  1  0  0  0  0  0  0
  187.0330  176.7630  146.1040 C   0  0  2  0  0  3  0  0  0  0  0  0
  186.3240  178.9620  145.6620 C   0  0  1  0  0  3  0  0  0  0  0  0
  187.0380  177.8100  145.0070 C   0  0  2  0  0  3  0  0  0  0  0  0
  185.5910  179.9190  144.7230 C   0  0  0  0  0  1  0  0  0  0  0  0
  186.1290  177.1280  147.1320 O   0  0  0  0  0  0  0  0  0  0  0  0
  185.4710  178.3030  146.7280 C   0  0  2  0  0  3  0  0  0  0  0  0
  186.2960  177.2890  143.8630 N   0  0  0  0  0  2  0  0  0  0  0  0
  188.0350  178.0150  142.2520 N   0  0  0  0  0  1  0  0  0  0  0  0
  186.0820  176.9620  141.5730 O   0  0  0  0  0  0  0  0  0  0  0  0
  186.7760  177.4060  142.5230 C   0  0  0  0  0  0  0  0  0  0  0  0
  1 19  1  1  0  0  0
  1  2  1  0  0  0  0
  3  1  1  0  0  0  0
  5  6  1  0  0  0  0
  5  3  1  0  0  0  0
  6  3  1  0  0  0  0
  6  7  1  0  0  0  0
  7  8  1  0  0  0  0
  8  2  1  0  0  0  0
  8  4  1  0  0  0  0
  9 10  1  0  0  0  0
 10 13  1  0  0  0  0
 10  5  1  0  0  0  0
 11 12  1  0  0  0  0
 12  9  1  0  0  0  0
 14 15  1  0  0  0  0
 14 16  1  0  0  0  0
 15  9  2  0  0  0  0
 16 13  1  0  0  0  0
 17 11  2  0  0  0  0
 17 15  1  0  0  0  0
 19 20  1  0  0  0  0
 19 18  1  0  0  0  0
 21 27  1  0  0  0  0
 22 20  1  0  0  0  0
 22 26  1  0  0  0  0
 23 27  1  0  0  0  0
 24 23  1  0  0  0  0
 24 22  1  0  0  0  0
 25 23  1  0  0  0  0
 27 26  1  0  0  0  0
 28 24  1  0  0  0  0
 29 31  1  0  0  0  0
 30 31  2  0  0  0  0
 31 28  1  0  0  0  0
M  END
>  <MODEL>
9

>  <REMARK>
 VINA RESULT:      -7.5      2.965      5.019
  Name = 
  5 active torsions:
  status: ('A' for Active; 'I' for Inactive)
    1  A    between atoms: C_2  and  C_16
    2  A    between atoms: C_4  and  C_29
    3  A    between atoms: C_5  and  C_30
    4  A    between atoms: N_8  and  C_18
    5  A    between atoms: C_29  and  C_30
                            x       y       z     vdW  Elec       q    Type
                         _______ _______ _______ _____ _____    ______ ____

>  <TORSDO>
F 5

$$$$
