=
 OpenBabel11072408323D

 62 66  0  0  1  0  0  0  0  0999 V2000
  188.6230  176.7140  142.6840 C   0  0  2  0  0  3  0  0  0  0  0  0
  188.0760  175.2860  142.7840 C   0  0  0  0  0  2  0  0  0  0  0  0
  189.4680  175.0380  140.8660 O   0  0  0  0  0  1  0  0  0  0  0  0
  188.3950  174.4600  141.5450 C   0  0  1  0  0  3  0  0  0  0  0  0
  188.7570  173.0430  141.9610 C   0  0  0  0  0  2  0  0  0  0  0  0
  189.1270  172.1900  140.7510 C   0  0  1  0  0  3  0  0  0  0  0  0
  188.2780  172.5330  139.5340 C   0  0  0  0  0  1  0  0  0  0  0  0
  190.6220  172.2520  140.4160 C   0  0  2  0  0  3  0  0  0  0  0  0
  190.8840  171.7370  139.1470 O   0  0  0  0  0  1  0  0  0  0  0  0
  191.5700  171.6690  141.4720 C   0  0  0  0  0  2  0  0  0  0  0  0
  192.6880  170.9250  140.8810 N   0  0  0  0  0  0  0  0  0  0  0  0
  196.2080  175.2930  140.2370 O   0  0  0  0  0  0  0  0  0  0  0  0
  194.0380  171.3960  144.9430 N   0  0  0  0  0  2  0  0  0  0  0  0
  195.8170  174.0360  140.7300 C   0  0  1  0  0  3  0  0  0  0  0  0
  194.5960  171.6450  143.6950 C   0  0  1  0  0  0  0  0  0  0  0  0
  194.3330  174.0570  141.1310 C   0  0  1  0  0  3  0  0  0  0  0  0
  195.1480  172.1100  139.4080 O   0  0  0  0  0  0  0  0  0  0  0  0
  196.7460  171.3030  145.0430 O   0  0  0  0  0  0  0  0  0  0  0  0
  194.3160  170.5970  142.6660 C   0  0  0  0  0  2  0  0  0  0  0  0
  197.9410  173.7430  138.1230 C   0  0  0  0  0  1  0  0  0  0  0  0
  195.1710  171.1910  140.4590 C   0  0  0  0  0  2  0  0  0  0  0  0
  193.4940  174.2860  140.0380 O   0  0  0  0  0  1  0  0  0  0  0  0
  196.1560  175.2090  138.8740 N   0  0  0  0  0  2  0  0  0  0  0  0
  194.4360  172.9620  143.2750 O   0  0  0  0  0  0  0  0  0  0  0  0
  193.9880  171.4020  141.4290 C   0  0  1  0  0  0  0  0  0  0  0  0
  193.8720  172.8620  141.9890 C   0  0  2  0  0  3  0  0  0  0  0  0
  195.5500  171.4140  144.6650 C   0  0  0  0  0  0  0  0  0  0  0  0
  196.1940  172.9970  139.6860 C   0  0  1  0  0  3  0  0  0  0  0  0
  196.4730  173.8410  138.4870 C   0  0  2  0  0  3  0  0  0  0  0  0
  192.4080  168.6820  139.9620 C   0  0  0  0  0  1  0  0  0  0  0  0
  192.4530  169.5250  141.2200 C   0  0  0  0  0  2  0  0  0  0  0  0
  189.7710  176.9310  143.6760 C   0  0  2  0  0  3  0  0  0  0  0  0
  190.5360  175.6400  143.9630 C   0  0  0  0  0  2  0  0  0  0  0  0
  191.7910  175.6630  143.3520 O   0  0  0  0  0  0  0  0  0  0  0  0
  192.5560  176.4900  144.1720 C   0  0  0  0  0  2  0  0  0  0  0  0
  193.8560  175.8690  144.4150 N   0  0  0  0  0  2  0  0  0  0  0  0
  195.3910  174.9300  146.0310 C   0  0  0  0  0  1  0  0  0  0  0  0
  194.1360  175.7570  145.8510 C   0  0  0  0  0  0  0  0  0  0  0  0
  192.9980  175.0540  146.5790 C   0  0  0  0  0  1  0  0  0  0  0  0
  194.3800  177.1250  146.4730 C   0  0  0  0  0  1  0  0  0  0  0  0
  189.2590  177.4910  144.9200 N   0  0  0  0  0  2  0  0  0  0  0  0
  189.0650  176.4180  145.8070 N   0  0  0  0  0  2  0  0  0  0  0  0
  187.8130  175.7270  147.6180 F   0  0  0  0  0  0  0  0  0  0  0  0
  188.0790  176.8180  146.8090 C   0  0  0  0  0  0  0  0  0  0  0  0
  188.6100  177.8250  147.5980 F   0  0  0  0  0  0  0  0  0  0  0  0
  186.1900  176.2040  145.4530 O   0  0  0  0  0  1  0  0  0  0  0  0
  186.7770  177.2830  146.1230 C   0  0  1  0  0  3  0  0  0  0  0  0
  185.7610  177.9640  147.0660 C   0  0  2  0  0  0  0  0  0  0  0  0
  185.9990  177.5160  148.3710 O   0  0  0  0  0  1  0  0  0  0  0  0
  184.4460  177.6330  146.6500 O   0  0  0  0  0  0  0  0  0  0  0  0
  183.8430  178.7540  146.0490 C   0  0  0  0  0  1  0  0  0  0  0  0
  186.4670  179.9430  148.2510 F   0  0  0  0  0  0  0  0  0  0  0  0
  185.9860  179.4810  147.0380 C   0  0  0  0  0  2  0  0  0  0  0  0
  187.5940  177.6450  142.8880 O   0  0  0  0  0  0  0  0  0  0  0  0
  186.5020  177.3600  139.3110 C   0  0  0  0  0  2  0  0  0  0  0  0
  184.7380  178.5920  140.6380 C   0  0  0  0  0  2  0  0  0  0  0  0
  185.4430  178.3330  141.9790 C   0  0  2  0  0  0  0  0  0  0  0  0
  187.4040  177.7220  140.4980 C   0  0  0  0  0  2  0  0  0  0  0  0
  185.7890  179.5580  142.5250 F   0  0  0  0  0  0  0  0  0  0  0  0
  186.7020  177.4490  141.8270 C   0  0  1  0  0  3  0  0  0  0  0  0
  185.0040  177.4820  139.6240 C   0  0  0  0  0  2  0  0  0  0  0  0
  184.4660  177.6430  142.9140 C   0  0  0  0  0  1  0  0  0  0  0  0
  1  2  1  1  0  0  0
  1 54  1  0  0  0  0
  1 32  1  0  0  0  0
  4  3  1  1  0  0  0
  4  5  1  0  0  0  0
  4  2  1  0  0  0  0
  6  7  1  6  0  0  0
  6  5  1  0  0  0  0
  8  9  1  6  0  0  0
  8  6  1  0  0  0  0
  8 10  1  0  0  0  0
 11 31  1  0  0  0  0
 11 10  1  0  0  0  0
 14 12  1  6  0  0  0
 14 16  1  0  0  0  0
 15 19  1  6  0  0  0
 15 27  1  0  0  0  0
 15 13  1  0  0  0  0
 16 22  1  6  0  0  0
 16 26  1  0  0  0  0
 17 21  1  0  0  0  0
 21 25  1  0  0  0  0
 23 12  1  0  0  0  0
 24 15  1  0  0  0  0
 25 11  1  6  0  0  0
 25 26  1  0  0  0  0
 25 19  1  0  0  0  0
 26 24  1  1  0  0  0
 27 13  1  0  0  0  0
 27 18  2  0  0  0  0
 28 17  1  6  0  0  0
 28 14  1  0  0  0  0
 29 20  1  1  0  0  0
 29 23  1  0  0  0  0
 29 28  1  0  0  0  0
 30 31  1  0  0  0  0
 32 33  1  1  0  0  0
 32 41  1  0  0  0  0
 34 33  1  0  0  0  0
 34 35  1  0  0  0  0
 35 36  1  0  0  0  0
 36 38  1  0  0  0  0
 38 37  1  0  0  0  0
 38 40  1  0  0  0  0
 38 39  1  0  0  0  0
 41 42  1  0  0  0  0
 42 44  1  0  0  0  0
 44 45  1  0  0  0  0
 44 43  1  0  0  0  0
 47 46  1  1  0  0  0
 47 44  1  0  0  0  0
 47 48  1  0  0  0  0
 48 49  1  1  0  0  0
 50 48  1  0  0  0  0
 51 50  1  0  0  0  0
 53 48  1  0  0  0  0
 53 52  1  0  0  0  0
 55 61  1  0  0  0  0
 55 58  1  0  0  0  0
 56 57  1  0  0  0  0
 57 59  1  0  0  0  0
 57 62  1  1  0  0  0
 58 60  1  0  0  0  0
 60 57  1  0  0  0  0
 60 54  1  1  0  0  0
 61 56  1  0  0  0  0
M  END
>  <MODEL>
1

>  <REMARK>
 VINA RESULT:      -5.9      0.000      0.000
  Name = 
  24 active torsions:
  status: ('A' for Active; 'I' for Inactive)
    1  A    between atoms: O_5  and  C_34
    2  A    between atoms: O_5  and  C_60
    3  A    between atoms: O_7  and  C_39
    4  A    between atoms: O_7  and  C_41
    5  A    between atoms: C_10  and  C_36
    6  A    between atoms: C_10  and  C_45
    7  A    between atoms: C_11  and  C_32
    8  A    between atoms: N_18  and  N_19
    9  A    between atoms: N_18  and  C_22
   10  A    between atoms: N_19  and  C_46
   11  A    between atoms: C_21  and  C_22
   12  A    between atoms: C_21  and  C_32
   13  A    between atoms: O_28  and  C_32
   14  A    between atoms: C_33  and  N_62
   15  A    between atoms: C_34  and  N_62
   16  A    between atoms: C_35  and  C_45
   17  A    between atoms: C_35  and  C_54
   18  A    between atoms: C_36  and  C_40
   19  A    between atoms: C_40  and  N_47
   20  A    between atoms: C_41  and  C_46
   21  A    between atoms: C_41  and  C_54
   22  A    between atoms: C_46  and  C_60
   23  A    between atoms: N_47  and  C_49
   24  A    between atoms: N_47  and  C_50
                            x       y       z     vdW  Elec       q    Type
                         _______ _______ _______ _____ _____    ______ ____

>  <TORSDO>
F 24

$$$$
=
 OpenBabel11072408323D

 62 66  0  0  1  0  0  0  0  0999 V2000
  190.6950  172.1790  140.6530 C   0  0  2  0  0  3  0  0  0  0  0  0
  191.3270  172.5830  141.9890 C   0  0  0  0  0  2  0  0  0  0  0  0
  192.5740  170.6370  142.5700 O   0  0  0  0  0  1  0  0  0  0  0  0
  191.4670  171.4020  142.9400 C   0  0  1  0  0  3  0  0  0  0  0  0
  191.6510  171.9140  144.3590 C   0  0  0  0  0  2  0  0  0  0  0  0
  190.8660  173.2040  144.5860 C   0  0  1  0  0  3  0  0  0  0  0  0
  189.5790  172.9550  145.3620 C   0  0  0  0  0  1  0  0  0  0  0  0
  191.7060  174.3020  145.2480 C   0  0  2  0  0  3  0  0  0  0  0  0
  190.9050  175.2270  145.9160 O   0  0  0  0  0  1  0  0  0  0  0  0
  192.7380  174.9920  144.3470 C   0  0  0  0  0  2  0  0  0  0  0  0
  194.0680  175.0670  144.9620 N   0  0  0  0  0  0  0  0  0  0  0  0
  197.9410  175.4330  140.8690 O   0  0  0  0  0  0  0  0  0  0  0  0
  197.0060  172.3030  146.4700 N   0  0  0  0  0  2  0  0  0  0  0  0
  197.1290  174.7560  141.7950 C   0  0  1  0  0  3  0  0  0  0  0  0
  196.6220  172.7220  145.2020 C   0  0  1  0  0  0  0  0  0  0  0  0
  197.0610  175.5370  143.1170 C   0  0  1  0  0  3  0  0  0  0  0  0
  194.7050  174.8520  141.9320 O   0  0  0  0  0  0  0  0  0  0  0  0
  197.5530  170.4130  144.6050 O   0  0  0  0  0  0  0  0  0  0  0  0
  195.1470  172.8810  145.0170 C   0  0  0  0  0  2  0  0  0  0  0  0
  195.8750  174.5600  138.6670 C   0  0  0  0  0  1  0  0  0  0  0  0
  194.5630  173.7920  142.8290 C   0  0  0  0  0  2  0  0  0  0  0  0
  196.4560  176.7860  142.9620 O   0  0  0  0  0  1  0  0  0  0  0  0
  197.0980  176.1350  140.0540 N   0  0  0  0  0  2  0  0  0  0  0  0
  197.4080  173.7570  144.7040 O   0  0  0  0  0  0  0  0  0  0  0  0
  195.0300  174.1790  144.2500 C   0  0  1  0  0  0  0  0  0  0  0  0
  196.4880  174.7490  144.3120 C   0  0  2  0  0  3  0  0  0  0  0  0
  197.1810  171.4600  145.1960 C   0  0  0  0  0  0  0  0  0  0  0  0
  195.7890  174.4940  141.1240 C   0  0  1  0  0  3  0  0  0  0  0  0
  195.8520  175.3910  139.9340 C   0  0  2  0  0  3  0  0  0  0  0  0
  194.4820  177.1040  146.2390 C   0  0  0  0  0  1  0  0  0  0  0  0
  194.4690  176.4670  144.8640 C   0  0  0  0  0  2  0  0  0  0  0  0
  189.3320  172.8550  140.4660 C   0  0  2  0  0  3  0  0  0  0  0  0
  189.2960  173.7470  139.2260 C   0  0  0  0  0  2  0  0  0  0  0  0
  190.5740  173.8850  138.6810 O   0  0  0  0  0  0  0  0  0  0  0  0
  190.3950  173.6300  137.3220 C   0  0  0  0  0  2  0  0  0  0  0  0
  189.1770  174.2900  136.8580 N   0  0  0  0  0  2  0  0  0  0  0  0
  188.1110  175.5950  135.1220 C   0  0  0  0  0  1  0  0  0  0  0  0
  189.3040  174.7260  135.4620 C   0  0  0  0  0  0  0  0  0  0  0  0
  189.3080  173.5360  134.5130 C   0  0  0  0  0  1  0  0  0  0  0  0
  190.5640  175.5550  135.2570 C   0  0  0  0  0  1  0  0  0  0  0  0
  188.9930  173.6350  141.6490 N   0  0  0  0  0  2  0  0  0  0  0  0
  188.7500  174.9510  141.2200 N   0  0  0  0  0  2  0  0  0  0  0  0
  188.1360  175.2000  143.4300 F   0  0  0  0  0  0  0  0  0  0  0  0
  188.7850  175.8330  142.3850 C   0  0  0  0  0  0  0  0  0  0  0  0
  190.1020  176.0460  142.7580 F   0  0  0  0  0  0  0  0  0  0  0  0
  187.4320  177.0730  140.8310 O   0  0  0  0  0  1  0  0  0  0  0  0
  188.0790  177.1670  142.0680 C   0  0  1  0  0  3  0  0  0  0  0  0
  187.1030  177.6540  143.1620 C   0  0  2  0  0  0  0  0  0  0  0  0
  186.1060  176.6850  143.3300 O   0  0  0  0  0  1  0  0  0  0  0  0
  186.5420  178.8950  142.7670 O   0  0  0  0  0  0  0  0  0  0  0  0
  185.1980  178.9600  143.1790 C   0  0  0  0  0  1  0  0  0  0  0  0
  187.0730  177.4060  145.5620 F   0  0  0  0  0  0  0  0  0  0  0  0
  187.8610  177.7870  144.4910 C   0  0  0  0  0  2  0  0  0  0  0  0
  190.5850  170.7840  140.5690 O   0  0  0  0  0  0  0  0  0  0  0  0
  190.0370  169.8760  136.9710 C   0  0  0  0  0  2  0  0  0  0  0  0
  192.0020  168.5720  137.8830 C   0  0  0  0  0  2  0  0  0  0  0  0
  191.9990  169.3340  139.2180 C   0  0  2  0  0  0  0  0  0  0  0  0
  189.7010  170.0750  138.4550 C   0  0  0  0  0  2  0  0  0  0  0  0
  191.7500  168.4220  140.2300 F   0  0  0  0  0  0  0  0  0  0  0  0
  190.9440  170.4630  139.2540 C   0  0  1  0  0  3  0  0  0  0  0  0
  191.4860  169.4300  136.7290 C   0  0  0  0  0  2  0  0  0  0  0  0
  193.3750  169.9370  139.4340 C   0  0  0  0  0  1  0  0  0  0  0  0
  1  2  1  1  0  0  0
  2  4  1  0  0  0  0
  4  3  1  6  0  0  0
  4  5  1  0  0  0  0
  5  6  1  0  0  0  0
  6  8  1  0  0  0  0
  6  7  1  1  0  0  0
  8  9  1  6  0  0  0
 10 11  1  0  0  0  0
 10  8  1  0  0  0  0
 14 12  1  6  0  0  0
 14 16  1  0  0  0  0
 15 19  1  6  0  0  0
 15 13  1  0  0  0  0
 16 22  1  6  0  0  0
 16 26  1  0  0  0  0
 17 21  1  0  0  0  0
 18 27  2  0  0  0  0
 21 25  1  0  0  0  0
 23 12  1  0  0  0  0
 24 15  1  0  0  0  0
 25 26  1  0  0  0  0
 25 11  1  1  0  0  0
 25 19  1  0  0  0  0
 26 24  1  6  0  0  0
 27 15  1  0  0  0  0
 27 13  1  0  0  0  0
 28 14  1  0  0  0  0
 28 17  1  1  0  0  0
 29 20  1  6  0  0  0
 29 23  1  0  0  0  0
 29 28  1  0  0  0  0
 31 11  1  0  0  0  0
 31 30  1  0  0  0  0
 32 33  1  6  0  0  0
 32  1  1  0  0  0  0
 32 41  1  0  0  0  0
 34 33  1  0  0  0  0
 35 34  1  0  0  0  0
 36 35  1  0  0  0  0
 37 38  1  0  0  0  0
 38 36  1  0  0  0  0
 39 38  1  0  0  0  0
 40 38  1  0  0  0  0
 42 41  1  0  0  0  0
 42 44  1  0  0  0  0
 44 45  1  0  0  0  0
 44 43  1  0  0  0  0
 47 46  1  6  0  0  0
 47 44  1  0  0  0  0
 47 48  1  0  0  0  0
 48 49  1  1  0  0  0
 48 53  1  0  0  0  0
 50 48  1  0  0  0  0
 50 51  1  0  0  0  0
 53 52  1  0  0  0  0
 54  1  1  0  0  0  0
 55 58  1  0  0  0  0
 56 57  1  0  0  0  0
 57 60  1  0  0  0  0
 57 62  1  1  0  0  0
 57 59  1  0  0  0  0
 58 60  1  0  0  0  0
 60 54  1  1  0  0  0
 61 55  1  0  0  0  0
 61 56  1  0  0  0  0
M  END
>  <MODEL>
2

>  <REMARK>
 VINA RESULT:      -5.7      3.079      6.663
  Name = 
  24 active torsions:
  status: ('A' for Active; 'I' for Inactive)
    1  A    between atoms: O_5  and  C_34
    2  A    between atoms: O_5  and  C_60
    3  A    between atoms: O_7  and  C_39
    4  A    between atoms: O_7  and  C_41
    5  A    between atoms: C_10  and  C_36
    6  A    between atoms: C_10  and  C_45
    7  A    between atoms: C_11  and  C_32
    8  A    between atoms: N_18  and  N_19
    9  A    between atoms: N_18  and  C_22
   10  A    between atoms: N_19  and  C_46
   11  A    between atoms: C_21  and  C_22
   12  A    between atoms: C_21  and  C_32
   13  A    between atoms: O_28  and  C_32
   14  A    between atoms: C_33  and  N_62
   15  A    between atoms: C_34  and  N_62
   16  A    between atoms: C_35  and  C_45
   17  A    between atoms: C_35  and  C_54
   18  A    between atoms: C_36  and  C_40
   19  A    between atoms: C_40  and  N_47
   20  A    between atoms: C_41  and  C_46
   21  A    between atoms: C_41  and  C_54
   22  A    between atoms: C_46  and  C_60
   23  A    between atoms: N_47  and  C_49
   24  A    between atoms: N_47  and  C_50
                            x       y       z     vdW  Elec       q    Type
                         _______ _______ _______ _____ _____    ______ ____

>  <TORSDO>
F 24

$$$$
=
 OpenBabel11072408323D

 62 66  0  0  1  0  0  0  0  0999 V2000
  187.8110  175.7280  143.2360 C   0  0  2  0  0  3  0  0  0  0  0  0
  188.7510  175.7780  144.4440 C   0  0  0  0  0  2  0  0  0  0  0  0
  188.2830  177.1540  146.3330 O   0  0  0  0  0  1  0  0  0  0  0  0
  188.8340  177.1720  145.0510 C   0  0  1  0  0  3  0  0  0  0  0  0
  190.2890  177.6050  145.1260 C   0  0  0  0  0  2  0  0  0  0  0  0
  191.1110  176.6330  145.9690 C   0  0  1  0  0  3  0  0  0  0  0  0
  190.3060  176.0710  147.1330 C   0  0  0  0  0  1  0  0  0  0  0  0
  191.7370  175.5090  145.1370 C   0  0  2  0  0  3  0  0  0  0  0  0
  191.4600  174.2540  145.6790 O   0  0  0  0  0  1  0  0  0  0  0  0
  193.2280  175.6680  144.8080 C   0  0  0  0  0  2  0  0  0  0  0  0
  194.0720  174.7080  145.5280 N   0  0  0  0  0  0  0  0  0  0  0  0
  197.4720  175.3000  141.0580 O   0  0  0  0  0  0  0  0  0  0  0  0
  196.7780  171.4280  146.2120 N   0  0  0  0  0  2  0  0  0  0  0  0
  196.6880  174.5770  141.9740 C   0  0  1  0  0  3  0  0  0  0  0  0
  196.3100  172.0870  145.0810 C   0  0  1  0  0  0  0  0  0  0  0  0
  196.8730  175.1360  143.3940 C   0  0  1  0  0  3  0  0  0  0  0  0
  194.3290  174.9180  142.4430 O   0  0  0  0  0  0  0  0  0  0  0  0
  196.8600  169.8160  144.0340 O   0  0  0  0  0  0  0  0  0  0  0  0
  194.8570  172.4360  145.1190 C   0  0  0  0  0  2  0  0  0  0  0  0
  195.0740  175.0310  139.0440 C   0  0  0  0  0  1  0  0  0  0  0  0
  194.1530  173.7480  143.1850 C   0  0  0  0  0  2  0  0  0  0  0  0
  196.4220  176.4530  143.5050 O   0  0  0  0  0  1  0  0  0  0  0  0
  196.6410  176.2150  140.4740 N   0  0  0  0  0  2  0  0  0  0  0  0
  197.1630  173.0950  144.6420 O   0  0  0  0  0  0  0  0  0  0  0  0
  194.8240  173.8460  144.5730 C   0  0  1  0  0  0  0  0  0  0  0  0
  196.3420  174.2330  144.5250 C   0  0  2  0  0  3  0  0  0  0  0  0
  196.6960  170.7890  144.8160 C   0  0  0  0  0  0  0  0  0  0  0  0
  195.2590  174.5770  141.4550 C   0  0  1  0  0  3  0  0  0  0  0  0
  195.3030  175.6430  140.4110 C   0  0  2  0  0  3  0  0  0  0  0  0
  194.5640  176.9700  146.2990 C   0  0  0  0  0  1  0  0  0  0  0  0
  194.9790  175.5130  146.3400 C   0  0  0  0  0  2  0  0  0  0  0  0
  188.2030  174.5910  142.2840 C   0  0  2  0  0  3  0  0  0  0  0  0
  189.2550  173.6670  142.8940 C   0  0  0  0  0  2  0  0  0  0  0  0
  188.8320  172.3370  142.8440 O   0  0  0  0  0  0  0  0  0  0  0  0
  190.0170  171.6030  142.8100 C   0  0  0  0  0  2  0  0  0  0  0  0
  190.9440  172.2140  141.8610 N   0  0  0  0  0  2  0  0  0  0  0  0
  192.6290  171.8950  140.1560 C   0  0  0  0  0  1  0  0  0  0  0  0
  191.7720  171.2030  141.1940 C   0  0  0  0  0  0  0  0  0  0  0  0
  190.9090  170.1690  140.4820 C   0  0  0  0  0  1  0  0  0  0  0  0
  192.6970  170.5090  142.1840 C   0  0  0  0  0  1  0  0  0  0  0  0
  188.6920  175.1390  141.0260 N   0  0  0  0  0  2  0  0  0  0  0  0
  187.9240  174.5650  139.9990 N   0  0  0  0  0  2  0  0  0  0  0  0
  190.0910  174.0270  139.4160 F   0  0  0  0  0  0  0  0  0  0  0  0
  188.7730  173.6440  139.2450 C   0  0  0  0  0  0  0  0  0  0  0  0
  188.6240  172.3630  139.7520 F   0  0  0  0  0  0  0  0  0  0  0  0
  187.9020  174.9520  137.4240 O   0  0  0  0  0  1  0  0  0  0  0  0
  188.4120  173.6890  137.7460 C   0  0  1  0  0  3  0  0  0  0  0  0
  189.5650  173.3030  136.7930 C   0  0  2  0  0  0  0  0  0  0  0  0
  190.7590  173.8240  137.3100 O   0  0  0  0  0  1  0  0  0  0  0  0
  189.3000  173.8290  135.5030 O   0  0  0  0  0  0  0  0  0  0  0  0
  189.8080  172.9570  134.5230 C   0  0  0  0  0  1  0  0  0  0  0  0
  190.8820  171.3530  137.3290 F   0  0  0  0  0  0  0  0  0  0  0  0
  189.6960  171.7740  136.7540 C   0  0  0  0  0  2  0  0  0  0  0  0
  187.8020  176.9630  142.5740 O   0  0  0  0  0  0  0  0  0  0  0  0
  184.9170  177.9630  140.3960 C   0  0  0  0  0  2  0  0  0  0  0  0
  184.5320  178.8060  142.7480 C   0  0  0  0  0  2  0  0  0  0  0  0
  185.7590  178.0660  143.3060 C   0  0  2  0  0  0  0  0  0  0  0  0
  186.3750  177.8450  140.8600 C   0  0  0  0  0  2  0  0  0  0  0  0
  186.6410  179.0110  143.8010 F   0  0  0  0  0  0  0  0  0  0  0  0
  186.4630  177.1950  142.2400 C   0  0  1  0  0  3  0  0  0  0  0  0
  183.9160  178.0800  141.5540 C   0  0  0  0  0  2  0  0  0  0  0  0
  185.3080  177.1760  144.4500 C   0  0  0  0  0  1  0  0  0  0  0  0
  1  2  1  1  0  0  0
  2  4  1  0  0  0  0
  4  5  1  0  0  0  0
  4  3  1  1  0  0  0
  5  6  1  0  0  0  0
  6  7  1  1  0  0  0
  8  9  1  1  0  0  0
  8  6  1  0  0  0  0
 10  8  1  0  0  0  0
 10 11  1  0  0  0  0
 11 31  1  0  0  0  0
 14 12  1  6  0  0  0
 14 16  1  0  0  0  0
 15 19  1  6  0  0  0
 15 13  1  0  0  0  0
 16 22  1  6  0  0  0
 16 26  1  0  0  0  0
 17 21  1  0  0  0  0
 18 27  2  0  0  0  0
 21 25  1  0  0  0  0
 23 12  1  0  0  0  0
 24 15  1  0  0  0  0
 25 19  1  0  0  0  0
 25 11  1  1  0  0  0
 26 25  1  0  0  0  0
 26 24  1  6  0  0  0
 27 15  1  0  0  0  0
 27 13  1  0  0  0  0
 28 14  1  0  0  0  0
 28 17  1  1  0  0  0
 29 20  1  6  0  0  0
 29 23  1  0  0  0  0
 29 28  1  0  0  0  0
 30 31  1  0  0  0  0
 32 33  1  1  0  0  0
 32  1  1  0  0  0  0
 34 33  1  0  0  0  0
 35 34  1  0  0  0  0
 36 35  1  0  0  0  0
 37 38  1  0  0  0  0
 38 36  1  0  0  0  0
 38 40  1  0  0  0  0
 39 38  1  0  0  0  0
 41 32  1  0  0  0  0
 42 41  1  0  0  0  0
 44 43  1  0  0  0  0
 44 45  1  0  0  0  0
 44 42  1  0  0  0  0
 47 46  1  6  0  0  0
 47 44  1  0  0  0  0
 48 49  1  1  0  0  0
 48 47  1  0  0  0  0
 50 48  1  0  0  0  0
 51 50  1  0  0  0  0
 53 48  1  0  0  0  0
 53 52  1  0  0  0  0
 54  1  1  0  0  0  0
 55 58  1  0  0  0  0
 55 61  1  0  0  0  0
 56 57  1  0  0  0  0
 57 59  1  0  0  0  0
 57 62  1  1  0  0  0
 58 60  1  0  0  0  0
 60 54  1  1  0  0  0
 60 57  1  0  0  0  0
 61 56  1  0  0  0  0
M  END
>  <MODEL>
3

>  <REMARK>
 VINA RESULT:      -5.4      2.998      6.454
  Name = 
  24 active torsions:
  status: ('A' for Active; 'I' for Inactive)
    1  A    between atoms: O_5  and  C_34
    2  A    between atoms: O_5  and  C_60
    3  A    between atoms: O_7  and  C_39
    4  A    between atoms: O_7  and  C_41
    5  A    between atoms: C_10  and  C_36
    6  A    between atoms: C_10  and  C_45
    7  A    between atoms: C_11  and  C_32
    8  A    between atoms: N_18  and  N_19
    9  A    between atoms: N_18  and  C_22
   10  A    between atoms: N_19  and  C_46
   11  A    between atoms: C_21  and  C_22
   12  A    between atoms: C_21  and  C_32
   13  A    between atoms: O_28  and  C_32
   14  A    between atoms: C_33  and  N_62
   15  A    between atoms: C_34  and  N_62
   16  A    between atoms: C_35  and  C_45
   17  A    between atoms: C_35  and  C_54
   18  A    between atoms: C_36  and  C_40
   19  A    between atoms: C_40  and  N_47
   20  A    between atoms: C_41  and  C_46
   21  A    between atoms: C_41  and  C_54
   22  A    between atoms: C_46  and  C_60
   23  A    between atoms: N_47  and  C_49
   24  A    between atoms: N_47  and  C_50
                            x       y       z     vdW  Elec       q    Type
                         _______ _______ _______ _____ _____    ______ ____

>  <TORSDO>
F 24

$$$$
=
 OpenBabel11072408323D

 62 66  0  0  1  0  0  0  0  0999 V2000
  194.5500  171.4930  138.6990 C   0  0  2  0  0  3  0  0  0  0  0  0
  193.4280  172.5320  138.7900 C   0  0  0  0  0  2  0  0  0  0  0  0
  192.0930  172.9180  140.7250 O   0  0  0  0  0  1  0  0  0  0  0  0
  192.2650  172.0500  139.6470 C   0  0  1  0  0  3  0  0  0  0  0  0
  190.9980  172.0190  138.8080 C   0  0  0  0  0  2  0  0  0  0  0  0
  190.3500  173.4000  138.7370 C   0  0  1  0  0  3  0  0  0  0  0  0
  190.3550  173.9570  137.3200 C   0  0  0  0  0  1  0  0  0  0  0  0
  188.9380  173.4250  139.3340 C   0  0  2  0  0  3  0  0  0  0  0  0
  187.9620  173.4650  138.3400 O   0  0  0  0  0  1  0  0  0  0  0  0
  188.6870  174.4820  140.4180 C   0  0  0  0  0  2  0  0  0  0  0  0
  189.2110  174.0850  141.7290 N   0  0  0  0  0  0  0  0  0  0  0  0
  192.5290  177.4820  144.7850 O   0  0  0  0  0  0  0  0  0  0  0  0
  186.8990  177.7150  141.5780 N   0  0  0  0  0  2  0  0  0  0  0  0
  191.3020  176.9260  144.3840 C   0  0  1  0  0  3  0  0  0  0  0  0
  187.7840  177.1600  142.4940 C   0  0  1  0  0  0  0  0  0  0  0  0
  191.2710  176.7420  142.8590 C   0  0  1  0  0  3  0  0  0  0  0  0
  190.7080  174.5700  144.4040 O   0  0  0  0  0  0  0  0  0  0  0  0
  186.4010  178.6100  144.0880 O   0  0  0  0  0  0  0  0  0  0  0  0
  187.6400  175.6850  142.6870 C   0  0  0  0  0  2  0  0  0  0  0  0
  192.3910  175.5760  147.2800 C   0  0  0  0  0  1  0  0  0  0  0  0
  189.3440  174.7570  144.1680 C   0  0  0  0  0  2  0  0  0  0  0  0
  192.2330  175.8320  142.4170 O   0  0  0  0  0  1  0  0  0  0  0  0
  193.3080  176.4400  145.2040 N   0  0  0  0  0  2  0  0  0  0  0  0
  189.0880  177.6260  142.3480 O   0  0  0  0  0  0  0  0  0  0  0  0
  189.0710  175.1950  142.7120 C   0  0  1  0  0  0  0  0  0  0  0  0
  189.8760  176.4620  142.2630 C   0  0  2  0  0  3  0  0  0  0  0  0
  186.8810  178.0200  143.0850 C   0  0  0  0  0  0  0  0  0  0  0  0
  191.0850  175.6590  145.1970 C   0  0  1  0  0  3  0  0  0  0  0  0
  192.4410  175.4190  145.7740 C   0  0  2  0  0  3  0  0  0  0  0  0
  189.3470  171.7810  142.5220 C   0  0  0  0  0  1  0  0  0  0  0  0
  188.4280  172.9210  142.1300 C   0  0  0  0  0  2  0  0  0  0  0  0
  195.5120  171.6210  139.8860 C   0  0  2  0  0  3  0  0  0  0  0  0
  196.9340  171.9580  139.4410 C   0  0  0  0  0  2  0  0  0  0  0  0
  197.5810  172.7340  140.4050 O   0  0  0  0  0  0  0  0  0  0  0  0
  196.6470  173.7140  140.7370 C   0  0  0  0  0  2  0  0  0  0  0  0
  197.3420  174.9200  141.1820 N   0  0  0  0  0  2  0  0  0  0  0  0
  195.6640  174.7550  142.9150 C   0  0  0  0  0  1  0  0  0  0  0  0
  196.5120  175.7090  142.1000 C   0  0  0  0  0  0  0  0  0  0  0  0
  195.5780  176.6370  141.3360 C   0  0  0  0  0  1  0  0  0  0  0  0
  197.3710  176.5170  143.0630 C   0  0  0  0  0  1  0  0  0  0  0  0
  195.5140  170.3880  140.6630 N   0  0  0  0  0  2  0  0  0  0  0  0
  194.8610  170.6630  141.8760 N   0  0  0  0  0  2  0  0  0  0  0  0
  195.7880  168.9160  143.0640 F   0  0  0  0  0  0  0  0  0  0  0  0
  195.7510  170.2960  142.9760 C   0  0  0  0  0  0  0  0  0  0  0  0
  197.0310  170.7470  142.6980 F   0  0  0  0  0  0  0  0  0  0  0  0
  193.9810  170.3390  144.6030 O   0  0  0  0  0  1  0  0  0  0  0  0
  195.2330  170.8860  144.3030 C   0  0  1  0  0  3  0  0  0  0  0  0
  196.2010  170.7310  145.4980 C   0  0  2  0  0  0  0  0  0  0  0  0
  197.2830  169.9390  145.0910 O   0  0  0  0  0  1  0  0  0  0  0  0
  195.5120  170.1280  146.5800 O   0  0  0  0  0  0  0  0  0  0  0  0
  196.0870  168.8780  146.8720 C   0  0  0  0  0  1  0  0  0  0  0  0
  197.8200  172.4730  145.0920 F   0  0  0  0  0  0  0  0  0  0  0  0
  196.7470  172.1110  145.8870 C   0  0  0  0  0  2  0  0  0  0  0  0
  195.2310  171.6170  137.4790 O   0  0  0  0  0  0  0  0  0  0  0  0
  192.7230  172.7150  134.9150 C   0  0  0  0  0  2  0  0  0  0  0  0
  194.7300  174.2510  134.8470 C   0  0  0  0  0  2  0  0  0  0  0  0
  195.3700  173.6110  136.0890 C   0  0  2  0  0  0  0  0  0  0  0  0
  193.6840  171.7730  135.6530 C   0  0  0  0  0  2  0  0  0  0  0  0
  196.5850  173.0640  135.7120 F   0  0  0  0  0  0  0  0  0  0  0  0
  194.4750  172.5220  136.7240 C   0  0  1  0  0  3  0  0  0  0  0  0
  193.2040  174.1720  134.8790 C   0  0  0  0  0  2  0  0  0  0  0  0
  195.6250  174.6990  137.1160 C   0  0  0  0  0  1  0  0  0  0  0  0
  1  2  1  1  0  0  0
  1 32  1  0  0  0  0
  2  4  1  0  0  0  0
  4  3  1  1  0  0  0
  5  4  1  0  0  0  0
  6  7  1  6  0  0  0
  6  5  1  0  0  0  0
  6  8  1  0  0  0  0
  8  9  1  6  0  0  0
  8 10  1  0  0  0  0
 10 11  1  0  0  0  0
 11 31  1  0  0  0  0
 12 23  1  0  0  0  0
 13 15  1  0  0  0  0
 13 27  1  0  0  0  0
 14 12  1  1  0  0  0
 14 28  1  0  0  0  0
 15 19  1  1  0  0  0
 15 27  1  0  0  0  0
 16 22  1  1  0  0  0
 16 14  1  0  0  0  0
 19 25  1  0  0  0  0
 21 17  1  0  0  0  0
 23 29  1  0  0  0  0
 24 15  1  0  0  0  0
 25 11  1  6  0  0  0
 25 21  1  0  0  0  0
 26 24  1  1  0  0  0
 26 25  1  0  0  0  0
 26 16  1  0  0  0  0
 27 18  2  0  0  0  0
 28 17  1  6  0  0  0
 28 29  1  0  0  0  0
 29 20  1  1  0  0  0
 31 30  1  0  0  0  0
 32 33  1  6  0  0  0
 32 41  1  0  0  0  0
 33 34  1  0  0  0  0
 34 35  1  0  0  0  0
 35 36  1  0  0  0  0
 36 38  1  0  0  0  0
 38 37  1  0  0  0  0
 38 40  1  0  0  0  0
 39 38  1  0  0  0  0
 41 42  1  0  0  0  0
 42 44  1  0  0  0  0
 44 43  1  0  0  0  0
 44 47  1  0  0  0  0
 45 44  1  0  0  0  0
 47 46  1  1  0  0  0
 47 48  1  0  0  0  0
 48 49  1  6  0  0  0
 48 53  1  0  0  0  0
 48 50  1  0  0  0  0
 50 51  1  0  0  0  0
 52 53  1  0  0  0  0
 54  1  1  0  0  0  0
 55 58  1  0  0  0  0
 56 61  1  0  0  0  0
 56 57  1  0  0  0  0
 57 60  1  0  0  0  0
 57 62  1  1  0  0  0
 58 60  1  0  0  0  0
 59 57  1  0  0  0  0
 60 54  1  6  0  0  0
 61 55  1  0  0  0  0
M  END
>  <MODEL>
4

>  <REMARK>
 VINA RESULT:      -5.2      4.021      8.960
  Name = 
  24 active torsions:
  status: ('A' for Active; 'I' for Inactive)
    1  A    between atoms: O_5  and  C_34
    2  A    between atoms: O_5  and  C_60
    3  A    between atoms: O_7  and  C_39
    4  A    between atoms: O_7  and  C_41
    5  A    between atoms: C_10  and  C_36
    6  A    between atoms: C_10  and  C_45
    7  A    between atoms: C_11  and  C_32
    8  A    between atoms: N_18  and  N_19
    9  A    between atoms: N_18  and  C_22
   10  A    between atoms: N_19  and  C_46
   11  A    between atoms: C_21  and  C_22
   12  A    between atoms: C_21  and  C_32
   13  A    between atoms: O_28  and  C_32
   14  A    between atoms: C_33  and  N_62
   15  A    between atoms: C_34  and  N_62
   16  A    between atoms: C_35  and  C_45
   17  A    between atoms: C_35  and  C_54
   18  A    between atoms: C_36  and  C_40
   19  A    between atoms: C_40  and  N_47
   20  A    between atoms: C_41  and  C_46
   21  A    between atoms: C_41  and  C_54
   22  A    between atoms: C_46  and  C_60
   23  A    between atoms: N_47  and  C_49
   24  A    between atoms: N_47  and  C_50
                            x       y       z     vdW  Elec       q    Type
                         _______ _______ _______ _____ _____    ______ ____

>  <TORSDO>
F 24

$$$$
=
 OpenBabel11072408323D

 62 66  0  0  1  0  0  0  0  0999 V2000
  191.8430  173.5840  143.6490 C   0  0  2  0  0  3  0  0  0  0  0  0
  191.6040  172.1170  143.2790 C   0  0  0  0  0  2  0  0  0  0  0  0
  192.4550  170.0890  144.1960 O   0  0  0  0  0  1  0  0  0  0  0  0
  192.8340  171.2530  143.5280 C   0  0  1  0  0  3  0  0  0  0  0  0
  193.4760  170.8930  142.1980 C   0  0  0  0  0  2  0  0  0  0  0  0
  194.9620  170.5870  142.3680 C   0  0  1  0  0  3  0  0  0  0  0  0
  195.2480  169.0940  142.2690 C   0  0  0  0  0  1  0  0  0  0  0  0
  195.8480  171.3830  141.4030 C   0  0  2  0  0  3  0  0  0  0  0  0
  195.6890  172.7570  141.5760 O   0  0  0  0  0  1  0  0  0  0  0  0
  195.7560  170.9840  139.9240 C   0  0  0  0  0  2  0  0  0  0  0  0
  194.3710  170.8870  139.4480 N   0  0  0  0  0  0  0  0  0  0  0  0
  189.8900  173.9000  137.7980 O   0  0  0  0  0  0  0  0  0  0  0  0
  196.2230  174.7370  138.9110 N   0  0  0  0  0  2  0  0  0  0  0  0
  191.2290  173.4770  137.7430 C   0  0  1  0  0  3  0  0  0  0  0  0
  195.1380  174.0880  138.3340 C   0  0  1  0  0  0  0  0  0  0  0  0
  191.7960  173.3080  139.1620 C   0  0  1  0  0  3  0  0  0  0  0  0
  192.0140  171.1960  137.4550 O   0  0  0  0  0  0  0  0  0  0  0  0
  195.7440  175.6620  136.4070 O   0  0  0  0  0  0  0  0  0  0  0  0
  195.3550  172.6340  138.0600 C   0  0  0  0  0  2  0  0  0  0  0  0
  189.3600  172.0010  135.3510 C   0  0  0  0  0  1  0  0  0  0  0  0
  193.3500  171.5250  137.2200 C   0  0  0  0  0  2  0  0  0  0  0  0
  191.1380  172.3060  139.8770 O   0  0  0  0  0  1  0  0  0  0  0  0
  189.1230  172.7810  137.6390 N   0  0  0  0  0  2  0  0  0  0  0  0
  193.9230  174.4180  138.9260 O   0  0  0  0  0  0  0  0  0  0  0  0
  194.0570  171.9990  138.5080 C   0  0  1  0  0  0  0  0  0  0  0  0
  193.3300  173.1790  139.2400 C   0  0  2  0  0  3  0  0  0  0  0  0
  195.6960  175.0320  137.4960 C   0  0  0  0  0  0  0  0  0  0  0  0
  191.2820  172.2340  136.8690 C   0  0  1  0  0  3  0  0  0  0  0  0
  189.8420  171.8510  136.7800 C   0  0  2  0  0  3  0  0  0  0  0  0
  195.6510  168.9850  138.6110 C   0  0  0  0  0  1  0  0  0  0  0  0
  194.2730  169.5900  138.7860 C   0  0  0  0  0  2  0  0  0  0  0  0
  190.5150  174.3390  143.7780 C   0  0  2  0  0  3  0  0  0  0  0  0
  190.0400  174.9020  142.4400 C   0  0  0  0  0  2  0  0  0  0  0  0
  189.1210  174.0390  141.8390 O   0  0  0  0  0  0  0  0  0  0  0  0
  188.2440  174.8880  141.1670 C   0  0  0  0  0  2  0  0  0  0  0  0
  188.5260  176.2730  141.5350 N   0  0  0  0  0  2  0  0  0  0  0  0
  186.3100  176.5220  142.4710 C   0  0  0  0  0  1  0  0  0  0  0  0
  187.3120  177.0960  141.4920 C   0  0  0  0  0  0  0  0  0  0  0  0
  186.6840  177.0760  140.1050 C   0  0  0  0  0  1  0  0  0  0  0  0
  187.6060  178.5320  141.9050 C   0  0  0  0  0  1  0  0  0  0  0  0
  190.6440  175.4160  144.7510 N   0  0  0  0  0  2  0  0  0  0  0  0
  189.5680  175.2960  145.6460 N   0  0  0  0  0  2  0  0  0  0  0  0
  189.6220  177.3720  146.6510 F   0  0  0  0  0  0  0  0  0  0  0  0
  188.9090  176.5960  145.7560 C   0  0  0  0  0  0  0  0  0  0  0  0
  188.9300  177.2260  144.5220 F   0  0  0  0  0  0  0  0  0  0  0  0
  187.4700  175.7340  147.4800 O   0  0  0  0  0  1  0  0  0  0  0  0
  187.4610  176.4210  146.2610 C   0  0  1  0  0  3  0  0  0  0  0  0
  186.6570  177.7350  146.3780 C   0  0  2  0  0  0  0  0  0  0  0  0
  186.9890  178.5550  145.2920 O   0  0  0  0  0  1  0  0  0  0  0  0
  186.9750  178.3680  147.6060 O   0  0  0  0  0  0  0  0  0  0  0  0
  186.0910  179.4390  147.8300 C   0  0  0  0  0  1  0  0  0  0  0  0
  184.9400  176.0750  146.0400 F   0  0  0  0  0  0  0  0  0  0  0  0
  185.1580  177.4180  146.2880 C   0  0  0  0  0  2  0  0  0  0  0  0
  192.6830  174.1930  142.7060 O   0  0  0  0  0  0  0  0  0  0  0  0
  195.0200  174.3270  145.6380 C   0  0  0  0  0  2  0  0  0  0  0  0
  195.0940  176.5290  144.3960 C   0  0  0  0  0  2  0  0  0  0  0  0
  194.2100  176.0100  143.2500 C   0  0  2  0  0  0  0  0  0  0  0  0
  193.6990  174.1390  144.8780 C   0  0  0  0  0  2  0  0  0  0  0  0
  193.0530  176.7720  143.2230 F   0  0  0  0  0  0  0  0  0  0  0  0
  193.8530  174.5140  143.4050 C   0  0  1  0  0  3  0  0  0  0  0  0
  195.9210  175.4140  145.0350 C   0  0  0  0  0  2  0  0  0  0  0  0
  194.9510  176.2070  141.9410 C   0  0  0  0  0  1  0  0  0  0  0  0
  1  2  1  6  0  0  0
  1 32  1  0  0  0  0
  2  4  1  0  0  0  0
  4  3  1  6  0  0  0
  5  6  1  0  0  0  0
  5  4  1  0  0  0  0
  6  7  1  6  0  0  0
  8  9  1  6  0  0  0
  8  6  1  0  0  0  0
 10  8  1  0  0  0  0
 11 10  1  0  0  0  0
 14 12  1  1  0  0  0
 14 16  1  0  0  0  0
 15 19  1  6  0  0  0
 15 13  1  0  0  0  0
 15 24  1  0  0  0  0
 16 26  1  0  0  0  0
 16 22  1  6  0  0  0
 18 27  2  0  0  0  0
 19 25  1  0  0  0  0
 21 17  1  0  0  0  0
 21 25  1  0  0  0  0
 23 12  1  0  0  0  0
 25 26  1  0  0  0  0
 25 11  1  1  0  0  0
 26 24  1  6  0  0  0
 27 15  1  0  0  0  0
 27 13  1  0  0  0  0
 28 17  1  1  0  0  0
 28 14  1  0  0  0  0
 29 20  1  6  0  0  0
 29 28  1  0  0  0  0
 29 23  1  0  0  0  0
 30 31  1  0  0  0  0
 31 11  1  0  0  0  0
 32 33  1  6  0  0  0
 32 41  1  0  0  0  0
 34 33  1  0  0  0  0
 35 36  1  0  0  0  0
 35 34  1  0  0  0  0
 38 36  1  0  0  0  0
 38 40  1  0  0  0  0
 38 37  1  0  0  0  0
 39 38  1  0  0  0  0
 41 42  1  0  0  0  0
 42 44  1  0  0  0  0
 44 47  1  0  0  0  0
 44 43  1  0  0  0  0
 45 44  1  0  0  0  0
 47 48  1  0  0  0  0
 47 46  1  1  0  0  0
 48 49  1  6  0  0  0
 48 50  1  0  0  0  0
 50 51  1  0  0  0  0
 52 53  1  0  0  0  0
 53 48  1  0  0  0  0
 54  1  1  0  0  0  0
 56 61  1  0  0  0  0
 57 62  1  6  0  0  0
 57 60  1  0  0  0  0
 57 56  1  0  0  0  0
 58 55  1  0  0  0  0
 59 57  1  0  0  0  0
 60 54  1  6  0  0  0
 60 58  1  0  0  0  0
 61 55  1  0  0  0  0
M  END
>  <MODEL>
5

>  <REMARK>
 VINA RESULT:      -5.2      2.348      6.163
  Name = 
  24 active torsions:
  status: ('A' for Active; 'I' for Inactive)
    1  A    between atoms: O_5  and  C_34
    2  A    between atoms: O_5  and  C_60
    3  A    between atoms: O_7  and  C_39
    4  A    between atoms: O_7  and  C_41
    5  A    between atoms: C_10  and  C_36
    6  A    between atoms: C_10  and  C_45
    7  A    between atoms: C_11  and  C_32
    8  A    between atoms: N_18  and  N_19
    9  A    between atoms: N_18  and  C_22
   10  A    between atoms: N_19  and  C_46
   11  A    between atoms: C_21  and  C_22
   12  A    between atoms: C_21  and  C_32
   13  A    between atoms: O_28  and  C_32
   14  A    between atoms: C_33  and  N_62
   15  A    between atoms: C_34  and  N_62
   16  A    between atoms: C_35  and  C_45
   17  A    between atoms: C_35  and  C_54
   18  A    between atoms: C_36  and  C_40
   19  A    between atoms: C_40  and  N_47
   20  A    between atoms: C_41  and  C_46
   21  A    between atoms: C_41  and  C_54
   22  A    between atoms: C_46  and  C_60
   23  A    between atoms: N_47  and  C_49
   24  A    between atoms: N_47  and  C_50
                            x       y       z     vdW  Elec       q    Type
                         _______ _______ _______ _____ _____    ______ ____

>  <TORSDO>
F 24

$$$$
=
 OpenBabel11072408323D

 62 66  0  0  1  0  0  0  0  0999 V2000
  191.6550  172.8460  144.7850 C   0  0  2  0  0  3  0  0  0  0  0  0
  191.5410  171.6160  143.8790 C   0  0  0  0  0  2  0  0  0  0  0  0
  192.4150  169.4260  144.2260 O   0  0  0  0  0  1  0  0  0  0  0  0
  192.7860  170.7400  143.9390 C   0  0  1  0  0  3  0  0  0  0  0  0
  193.5020  170.7870  142.5980 C   0  0  0  0  0  2  0  0  0  0  0  0
  195.0150  170.8610  142.7840 C   0  0  1  0  0  3  0  0  0  0  0  0
  195.6610  169.4830  142.7290 C   0  0  0  0  0  1  0  0  0  0  0  0
  195.6880  171.8250  141.8010 C   0  0  2  0  0  3  0  0  0  0  0  0
  195.1970  173.1220  141.9370 O   0  0  0  0  0  1  0  0  0  0  0  0
  195.7110  171.3780  140.3330 C   0  0  0  0  0  2  0  0  0  0  0  0
  194.3690  171.1220  139.7980 N   0  0  0  0  0  0  0  0  0  0  0  0
  189.7660  173.7940  137.9120 O   0  0  0  0  0  0  0  0  0  0  0  0
  196.0550  174.9890  138.9350 N   0  0  0  0  0  2  0  0  0  0  0  0
  191.1210  173.4250  137.8890 C   0  0  1  0  0  3  0  0  0  0  0  0
  195.0000  174.2490  138.4170 C   0  0  1  0  0  0  0  0  0  0  0  0
  191.6930  173.4000  139.3150 C   0  0  1  0  0  3  0  0  0  0  0  0
  192.0020  171.1620  137.7920 O   0  0  0  0  0  0  0  0  0  0  0  0
  195.5410  175.6790  136.3630 O   0  0  0  0  0  0  0  0  0  0  0  0
  195.2780  172.7870  138.2660 C   0  0  0  0  0  2  0  0  0  0  0  0
  189.3190  171.6750  135.6340 C   0  0  0  0  0  1  0  0  0  0  0  0
  193.3230  171.5270  137.5260 C   0  0  0  0  0  2  0  0  0  0  0  0
  191.0770  172.4340  140.1140 O   0  0  0  0  0  1  0  0  0  0  0  0
  189.0460  172.6330  137.8490 N   0  0  0  0  0  2  0  0  0  0  0  0
  193.7710  174.5750  138.9830 O   0  0  0  0  0  0  0  0  0  0  0  0
  194.0090  172.1370  138.7690 C   0  0  1  0  0  0  0  0  0  0  0  0
  193.2320  173.3420  139.4010 C   0  0  2  0  0  3  0  0  0  0  0  0
  195.5180  175.1420  137.5020 C   0  0  0  0  0  0  0  0  0  0  0  0
  191.2270  172.1160  137.1220 C   0  0  1  0  0  3  0  0  0  0  0  0
  189.8050  171.6660  137.0690 C   0  0  2  0  0  3  0  0  0  0  0  0
  195.8620  169.3230  139.1000 C   0  0  0  0  0  1  0  0  0  0  0  0
  194.4230  169.7820  139.2230 C   0  0  0  0  0  2  0  0  0  0  0  0
  190.4710  173.7950  144.5710 C   0  0  2  0  0  3  0  0  0  0  0  0
  189.4040  173.6390  145.6530 C   0  0  0  0  0  2  0  0  0  0  0  0
  189.6010  174.5650  146.6780 O   0  0  0  0  0  0  0  0  0  0  0  0
  188.9590  175.7170  146.2270 C   0  0  0  0  0  2  0  0  0  0  0  0
  187.7730  175.9670  147.0430 N   0  0  0  0  0  2  0  0  0  0  0  0
  187.7710  177.7210  145.3780 C   0  0  0  0  0  1  0  0  0  0  0  0
  187.0460  177.1540  146.5810 C   0  0  0  0  0  0  0  0  0  0  0  0
  187.0060  178.2290  147.6580 C   0  0  0  0  0  1  0  0  0  0  0  0
  185.6280  176.8000  146.1520 C   0  0  0  0  0  1  0  0  0  0  0  0
  189.8820  173.5710  143.2570 N   0  0  0  0  0  2  0  0  0  0  0  0
  189.3000  174.7850  142.8530 N   0  0  0  0  0  2  0  0  0  0  0  0
  188.9920  174.9200  140.5700 F   0  0  0  0  0  0  0  0  0  0  0  0
  188.3850  174.5140  141.7460 C   0  0  0  0  0  0  0  0  0  0  0  0
  188.1530  173.1510  141.6660 F   0  0  0  0  0  0  0  0  0  0  0  0
  186.7220  175.2950  143.2970 O   0  0  0  0  0  1  0  0  0  0  0  0
  187.0650  175.2890  141.9410 C   0  0  1  0  0  3  0  0  0  0  0  0
  187.0700  176.7240  141.3690 C   0  0  2  0  0  0  0  0  0  0  0  0
  188.2530  177.3570  141.7710 O   0  0  0  0  0  1  0  0  0  0  0  0
  185.9330  177.4210  141.8500 O   0  0  0  0  0  0  0  0  0  0  0  0
  186.3240  178.6780  142.3470 C   0  0  0  0  0  1  0  0  0  0  0  0
  185.9040  177.1760  139.3060 F   0  0  0  0  0  0  0  0  0  0  0  0
  187.0710  176.6550  139.8350 C   0  0  0  0  0  2  0  0  0  0  0  0
  192.8760  173.5000  144.5670 O   0  0  0  0  0  0  0  0  0  0  0  0
  192.2910  176.8330  142.9480 C   0  0  0  0  0  2  0  0  0  0  0  0
  193.5100  177.1590  145.1390 C   0  0  0  0  0  2  0  0  0  0  0  0
  193.3810  175.6780  145.5300 C   0  0  2  0  0  0  0  0  0  0  0  0
  192.7820  175.3850  143.0870 C   0  0  0  0  0  2  0  0  0  0  0  0
  194.6570  175.1510  145.6400 F   0  0  0  0  0  0  0  0  0  0  0  0
  192.5600  174.8620  144.5050 C   0  0  1  0  0  3  0  0  0  0  0  0
  192.3500  177.6260  144.2610 C   0  0  0  0  0  2  0  0  0  0  0  0
  192.7020  175.5930  146.8850 C   0  0  0  0  0  1  0  0  0  0  0  0
  1  2  1  6  0  0  0
  2  4  1  0  0  0  0
  4  3  1  6  0  0  0
  5  6  1  0  0  0  0
  5  4  1  0  0  0  0
  6  7  1  6  0  0  0
  8  9  1  6  0  0  0
  8  6  1  0  0  0  0
 10  8  1  0  0  0  0
 11 10  1  0  0  0  0
 14 12  1  1  0  0  0
 14 16  1  0  0  0  0
 15 19  1  6  0  0  0
 15 13  1  0  0  0  0
 15 24  1  0  0  0  0
 16 26  1  0  0  0  0
 16 22  1  6  0  0  0
 18 27  2  0  0  0  0
 19 25  1  0  0  0  0
 21 17  1  0  0  0  0
 21 25  1  0  0  0  0
 23 12  1  0  0  0  0
 25 26  1  0  0  0  0
 25 11  1  1  0  0  0
 26 24  1  6  0  0  0
 27 15  1  0  0  0  0
 27 13  1  0  0  0  0
 28 17  1  1  0  0  0
 28 14  1  0  0  0  0
 29 20  1  6  0  0  0
 29 28  1  0  0  0  0
 29 23  1  0  0  0  0
 30 31  1  0  0  0  0
 31 11  1  0  0  0  0
 32  1  1  0  0  0  0
 32 33  1  1  0  0  0
 33 34  1  0  0  0  0
 35 34  1  0  0  0  0
 35 36  1  0  0  0  0
 37 38  1  0  0  0  0
 38 36  1  0  0  0  0
 38 39  1  0  0  0  0
 40 38  1  0  0  0  0
 41 32  1  0  0  0  0
 42 41  1  0  0  0  0
 43 44  1  0  0  0  0
 44 47  1  0  0  0  0
 44 42  1  0  0  0  0
 45 44  1  0  0  0  0
 47 46  1  1  0  0  0
 48 49  1  1  0  0  0
 48 50  1  0  0  0  0
 48 47  1  0  0  0  0
 50 51  1  0  0  0  0
 52 53  1  0  0  0  0
 53 48  1  0  0  0  0
 54  1  1  0  0  0  0
 55 58  1  0  0  0  0
 55 61  1  0  0  0  0
 56 57  1  0  0  0  0
 57 59  1  0  0  0  0
 57 62  1  1  0  0  0
 58 60  1  0  0  0  0
 60 54  1  6  0  0  0
 60 57  1  0  0  0  0
 61 56  1  0  0  0  0
M  END
>  <MODEL>
6

>  <REMARK>
 VINA RESULT:      -5.1      2.833      6.355
  Name = 
  24 active torsions:
  status: ('A' for Active; 'I' for Inactive)
    1  A    between atoms: O_5  and  C_34
    2  A    between atoms: O_5  and  C_60
    3  A    between atoms: O_7  and  C_39
    4  A    between atoms: O_7  and  C_41
    5  A    between atoms: C_10  and  C_36
    6  A    between atoms: C_10  and  C_45
    7  A    between atoms: C_11  and  C_32
    8  A    between atoms: N_18  and  N_19
    9  A    between atoms: N_18  and  C_22
   10  A    between atoms: N_19  and  C_46
   11  A    between atoms: C_21  and  C_22
   12  A    between atoms: C_21  and  C_32
   13  A    between atoms: O_28  and  C_32
   14  A    between atoms: C_33  and  N_62
   15  A    between atoms: C_34  and  N_62
   16  A    between atoms: C_35  and  C_45
   17  A    between atoms: C_35  and  C_54
   18  A    between atoms: C_36  and  C_40
   19  A    between atoms: C_40  and  N_47
   20  A    between atoms: C_41  and  C_46
   21  A    between atoms: C_41  and  C_54
   22  A    between atoms: C_46  and  C_60
   23  A    between atoms: N_47  and  C_49
   24  A    between atoms: N_47  and  C_50
                            x       y       z     vdW  Elec       q    Type
                         _______ _______ _______ _____ _____    ______ ____

>  <TORSDO>
F 24

$$$$
=
 OpenBabel11072408323D

 62 66  0  0  1  0  0  0  0  0999 V2000
  191.7400  173.0480  144.9720 C   0  0  2  0  0  3  0  0  0  0  0  0
  191.5910  171.7530  144.1670 C   0  0  0  0  0  2  0  0  0  0  0  0
  192.8020  169.7130  144.3950 O   0  0  0  0  0  1  0  0  0  0  0  0
  192.9220  171.0380  143.9750 C   0  0  1  0  0  3  0  0  0  0  0  0
  193.3080  171.0750  142.5050 C   0  0  0  0  0  2  0  0  0  0  0  0
  194.8250  171.0460  142.3320 C   0  0  1  0  0  3  0  0  0  0  0  0
  195.2640  169.9640  141.3540 C   0  0  0  0  0  1  0  0  0  0  0  0
  195.4040  172.4100  141.9430 C   0  0  2  0  0  3  0  0  0  0  0  0
  195.7450  173.1630  143.0660 O   0  0  0  0  0  1  0  0  0  0  0  0
  194.5780  173.2280  140.9410 C   0  0  0  0  0  2  0  0  0  0  0  0
  195.4070  174.1010  140.1020 N   0  0  0  0  0  0  0  0  0  0  0  0
  191.2840  172.8400  136.4550 O   0  0  0  0  0  0  0  0  0  0  0  0
  196.9510  175.9880  136.5530 N   0  0  0  0  0  2  0  0  0  0  0  0
  192.6210  172.9820  136.8650 C   0  0  1  0  0  3  0  0  0  0  0  0
  196.1360  174.8900  136.7960 C   0  0  1  0  0  0  0  0  0  0  0  0
  192.7880  174.2520  137.7150 C   0  0  1  0  0  3  0  0  0  0  0  0
  193.6720  171.9000  138.7690 O   0  0  0  0  0  0  0  0  0  0  0  0
  197.0940  174.1920  134.5270 O   0  0  0  0  0  0  0  0  0  0  0  0
  196.5600  174.0430  137.9540 C   0  0  0  0  0  2  0  0  0  0  0  0
  191.6370  169.7540  136.9330 C   0  0  0  0  0  1  0  0  0  0  0  0
  194.9820  172.2430  138.4320 C   0  0  0  0  0  2  0  0  0  0  0  0
  192.0580  174.1900  138.9040 O   0  0  0  0  0  1  0  0  0  0  0  0
  190.7030  171.9610  137.3260 N   0  0  0  0  0  2  0  0  0  0  0  0
  194.7780  175.1880  136.7310 O   0  0  0  0  0  0  0  0  0  0  0  0
  195.2570  173.7460  138.6630 C   0  0  1  0  0  0  0  0  0  0  0  0
  194.2460  174.6990  137.9400 C   0  0  2  0  0  3  0  0  0  0  0  0
  196.8090  174.7930  135.5960 C   0  0  0  0  0  0  0  0  0  0  0  0
  193.0330  171.6850  137.5430 C   0  0  1  0  0  3  0  0  0  0  0  0
  191.7180  171.0160  137.7690 C   0  0  2  0  0  3  0  0  0  0  0  0
  195.9860  176.2310  141.1390 C   0  0  0  0  0  1  0  0  0  0  0  0
  194.9390  175.4580  140.3630 C   0  0  0  0  0  2  0  0  0  0  0  0
  190.4980  173.9320  144.8200 C   0  0  2  0  0  3  0  0  0  0  0  0
  189.5600  173.8200  146.0210 C   0  0  0  0  0  2  0  0  0  0  0  0
  189.6530  174.9560  146.8280 O   0  0  0  0  0  0  0  0  0  0  0  0
  188.7980  175.8760  146.2230 C   0  0  0  0  0  2  0  0  0  0  0  0
  187.6540  176.1270  147.0970 N   0  0  0  0  0  2  0  0  0  0  0  0
  186.7560  178.2940  147.6830 C   0  0  0  0  0  1  0  0  0  0  0  0
  186.8360  177.2390  146.6010 C   0  0  0  0  0  0  0  0  0  0  0  0
  185.4190  176.7790  146.2840 C   0  0  0  0  0  1  0  0  0  0  0  0
  187.4610  177.8750  145.3670 C   0  0  0  0  0  1  0  0  0  0  0  0
  189.7820  173.5860  143.5990 N   0  0  0  0  0  2  0  0  0  0  0  0
  189.2330  174.7750  143.0900 N   0  0  0  0  0  2  0  0  0  0  0  0
  189.1070  174.7490  140.7870 F   0  0  0  0  0  0  0  0  0  0  0  0
  188.4000  174.4440  141.9360 C   0  0  0  0  0  0  0  0  0  0  0  0
  188.1370  173.0830  141.9360 F   0  0  0  0  0  0  0  0  0  0  0  0
  186.6010  175.3060  143.2800 O   0  0  0  0  0  1  0  0  0  0  0  0
  187.0900  175.2580  141.9700 C   0  0  1  0  0  3  0  0  0  0  0  0
  187.2000  176.6790  141.3720 C   0  0  2  0  0  0  0  0  0  0  0  0
  186.1120  177.4350  141.8250 O   0  0  0  0  0  1  0  0  0  0  0  0
  187.2010  176.5900  139.9570 O   0  0  0  0  0  0  0  0  0  0  0  0
  186.2710  177.5020  139.4240 C   0  0  0  0  0  1  0  0  0  0  0  0
  188.4420  178.7170  141.7240 F   0  0  0  0  0  0  0  0  0  0  0  0
  188.4840  177.3440  141.8870 C   0  0  0  0  0  2  0  0  0  0  0  0
  192.9000  173.7320  144.5820 O   0  0  0  0  0  0  0  0  0  0  0  0
  192.0260  176.9690  142.9010 C   0  0  0  0  0  2  0  0  0  0  0  0
  193.4430  177.4330  144.9430 C   0  0  0  0  0  2  0  0  0  0  0  0
  193.4120  175.9660  145.4030 C   0  0  2  0  0  0  0  0  0  0  0  0
  192.5850  175.5470  143.0470 C   0  0  0  0  0  2  0  0  0  0  0  0
  194.7130  175.4900  145.4040 F   0  0  0  0  0  0  0  0  0  0  0  0
  192.5260  175.0780  144.5000 C   0  0  1  0  0  3  0  0  0  0  0  0
  192.1830  177.8190  144.1690 C   0  0  0  0  0  2  0  0  0  0  0  0
  192.8760  175.9160  146.8220 C   0  0  0  0  0  1  0  0  0  0  0  0
  1  2  1  6  0  0  0
  4  2  1  0  0  0  0
  4  3  1  6  0  0  0
  5  4  1  0  0  0  0
  6  7  1  6  0  0  0
  6  5  1  0  0  0  0
  8  6  1  0  0  0  0
  8  9  1  1  0  0  0
 10  8  1  0  0  0  0
 11 31  1  0  0  0  0
 11 10  1  0  0  0  0
 12 23  1  0  0  0  0
 13 15  1  0  0  0  0
 14 12  1  1  0  0  0
 14 28  1  0  0  0  0
 14 16  1  0  0  0  0
 15 19  1  1  0  0  0
 16 26  1  0  0  0  0
 16 22  1  1  0  0  0
 18 27  2  0  0  0  0
 19 25  1  0  0  0  0
 21 25  1  0  0  0  0
 21 17  1  0  0  0  0
 23 29  1  0  0  0  0
 24 15  1  0  0  0  0
 25 11  1  1  0  0  0
 26 24  1  6  0  0  0
 26 25  1  0  0  0  0
 27 13  1  0  0  0  0
 27 15  1  0  0  0  0
 28 29  1  0  0  0  0
 28 17  1  1  0  0  0
 29 20  1  6  0  0  0
 31 30  1  0  0  0  0
 32  1  1  0  0  0  0
 32 33  1  1  0  0  0
 33 34  1  0  0  0  0
 35 34  1  0  0  0  0
 35 36  1  0  0  0  0
 38 36  1  0  0  0  0
 38 37  1  0  0  0  0
 39 38  1  0  0  0  0
 40 38  1  0  0  0  0
 41 32  1  0  0  0  0
 42 41  1  0  0  0  0
 43 44  1  0  0  0  0
 44 47  1  0  0  0  0
 44 42  1  0  0  0  0
 45 44  1  0  0  0  0
 47 46  1  1  0  0  0
 48 49  1  1  0  0  0
 48 53  1  0  0  0  0
 48 47  1  0  0  0  0
 50 48  1  0  0  0  0
 51 50  1  0  0  0  0
 52 53  1  0  0  0  0
 54  1  1  0  0  0  0
 55 58  1  0  0  0  0
 55 61  1  0  0  0  0
 56 57  1  0  0  0  0
 57 59  1  0  0  0  0
 57 62  1  1  0  0  0
 58 60  1  0  0  0  0
 60 54  1  6  0  0  0
 60 57  1  0  0  0  0
 61 56  1  0  0  0  0
M  END
>  <MODEL>
7

>  <REMARK>
 VINA RESULT:      -5.1      2.724      6.530
  Name = 
  24 active torsions:
  status: ('A' for Active; 'I' for Inactive)
    1  A    between atoms: O_5  and  C_34
    2  A    between atoms: O_5  and  C_60
    3  A    between atoms: O_7  and  C_39
    4  A    between atoms: O_7  and  C_41
    5  A    between atoms: C_10  and  C_36
    6  A    between atoms: C_10  and  C_45
    7  A    between atoms: C_11  and  C_32
    8  A    between atoms: N_18  and  N_19
    9  A    between atoms: N_18  and  C_22
   10  A    between atoms: N_19  and  C_46
   11  A    between atoms: C_21  and  C_22
   12  A    between atoms: C_21  and  C_32
   13  A    between atoms: O_28  and  C_32
   14  A    between atoms: C_33  and  N_62
   15  A    between atoms: C_34  and  N_62
   16  A    between atoms: C_35  and  C_45
   17  A    between atoms: C_35  and  C_54
   18  A    between atoms: C_36  and  C_40
   19  A    between atoms: C_40  and  N_47
   20  A    between atoms: C_41  and  C_46
   21  A    between atoms: C_41  and  C_54
   22  A    between atoms: C_46  and  C_60
   23  A    between atoms: N_47  and  C_49
   24  A    between atoms: N_47  and  C_50
                            x       y       z     vdW  Elec       q    Type
                         _______ _______ _______ _____ _____    ______ ____

>  <TORSDO>
F 24

$$$$
=
 OpenBabel11072408323D

 62 66  0  0  1  0  0  0  0  0999 V2000
  194.2860  169.8960  142.1440 C   0  0  2  0  0  3  0  0  0  0  0  0
  192.8320  169.4320  142.2810 C   0  0  0  0  0  2  0  0  0  0  0  0
  192.5190  170.6370  144.3130 O   0  0  0  0  0  1  0  0  0  0  0  0
  191.9770  170.4360  143.0430 C   0  0  1  0  0  3  0  0  0  0  0  0
  191.9480  171.7540  142.2850 C   0  0  0  0  0  2  0  0  0  0  0  0
  190.5520  172.3710  142.3060 C   0  0  1  0  0  3  0  0  0  0  0  0
  189.7970  172.0230  143.5820 C   0  0  0  0  0  1  0  0  0  0  0  0
  190.5690  173.8860  142.0710 C   0  0  2  0  0  3  0  0  0  0  0  0
  190.7700  174.1950  140.7270 O   0  0  0  0  0  1  0  0  0  0  0  0
  191.5000  174.6950  142.9840 C   0  0  0  0  0  2  0  0  0  0  0  0
  191.2530  176.1390  142.9090 N   0  0  0  0  0  0  0  0  0  0  0  0
  186.0250  176.6640  144.9800 O   0  0  0  0  0  0  0  0  0  0  0  0
  192.0020  175.2470  147.0550 N   0  0  0  0  0  2  0  0  0  0  0  0
  187.4190  176.8500  144.9800 C   0  0  1  0  0  3  0  0  0  0  0  0
  191.0750  176.0310  146.3790 C   0  0  1  0  0  0  0  0  0  0  0  0
  188.1280  175.5770  144.4900 C   0  0  1  0  0  3  0  0  0  0  0  0
  188.7340  177.9210  143.2410 O   0  0  0  0  0  0  0  0  0  0  0  0
  191.0920  177.2640  148.6230 O   0  0  0  0  0  0  0  0  0  0  0  0
  191.6340  176.8020  145.2250 C   0  0  0  0  0  2  0  0  0  0  0  0
  185.7940  179.6340  143.9770 C   0  0  0  0  0  1  0  0  0  0  0  0
  189.9160  178.0070  143.9780 C   0  0  0  0  0  2  0  0  0  0  0  0
  187.8110  175.2740  143.1640 O   0  0  0  0  0  1  0  0  0  0  0  0
  185.5600  177.2210  143.8210 N   0  0  0  0  0  2  0  0  0  0  0  0
  189.8710  175.3750  146.1420 O   0  0  0  0  0  0  0  0  0  0  0  0
  190.5850  176.6250  144.1490 C   0  0  1  0  0  0  0  0  0  0  0  0
  189.6450  175.5310  144.7600 C   0  0  2  0  0  3  0  0  0  0  0  0
  191.3000  176.4710  147.6670 C   0  0  0  0  0  0  0  0  0  0  0  0
  187.7130  178.1080  144.1790 C   0  0  1  0  0  3  0  0  0  0  0  0
  186.4180  178.3460  143.4770 C   0  0  2  0  0  3  0  0  0  0  0  0
  193.4860  175.8210  141.9810 C   0  0  0  0  0  1  0  0  0  0  0  0
  192.5640  176.7560  142.7380 C   0  0  0  0  0  2  0  0  0  0  0  0
  194.7610  169.7890  140.6910 C   0  0  2  0  0  3  0  0  0  0  0  0
  195.4100  171.0820  140.2000 C   0  0  0  0  0  2  0  0  0  0  0  0
  194.7760  172.1940  140.7570 O   0  0  0  0  0  0  0  0  0  0  0  0
  195.7220  173.2130  140.6550 C   0  0  0  0  0  2  0  0  0  0  0  0
  196.4990  173.0370  139.4290 N   0  0  0  0  0  2  0  0  0  0  0  0
  195.5460  174.7700  138.0380 C   0  0  0  0  0  1  0  0  0  0  0  0
  196.7840  174.3250  138.7870 C   0  0  0  0  0  0  0  0  0  0  0  0
  197.9230  174.1990  137.7850 C   0  0  0  0  0  1  0  0  0  0  0  0
  197.1190  175.3930  139.8190 C   0  0  0  0  0  1  0  0  0  0  0  0
  193.6440  169.4350  139.8240 N   0  0  0  0  0  2  0  0  0  0  0  0
  194.1350  169.4070  138.5080 N   0  0  0  0  0  2  0  0  0  0  0  0
  193.4330  169.3590  136.3100 F   0  0  0  0  0  0  0  0  0  0  0  0
  193.0260  169.6750  137.5940 C   0  0  0  0  0  0  0  0  0  0  0  0
  191.9540  168.8610  137.9230 F   0  0  0  0  0  0  0  0  0  0  0  0
  193.6150  171.9410  137.0450 O   0  0  0  0  0  1  0  0  0  0  0  0
  192.6270  171.1640  137.6590 C   0  0  1  0  0  3  0  0  0  0  0  0
  191.2340  171.4840  137.0720 C   0  0  2  0  0  0  0  0  0  0  0  0
  191.0170  170.6500  135.9680 O   0  0  0  0  0  1  0  0  0  0  0  0
  191.1900  172.8490  136.6920 O   0  0  0  0  0  0  0  0  0  0  0  0
  190.0410  173.0890  135.9180 C   0  0  0  0  0  1  0  0  0  0  0  0
  190.6940  171.1340  139.3970 F   0  0  0  0  0  0  0  0  0  0  0  0
  190.1600  171.1660  138.1220 C   0  0  0  0  0  2  0  0  0  0  0  0
  195.1140  169.1590  143.0030 O   0  0  0  0  0  0  0  0  0  0  0  0
  196.9470  172.0890  144.4620 C   0  0  0  0  0  2  0  0  0  0  0  0
  196.9440  170.1820  146.1220 C   0  0  0  0  0  2  0  0  0  0  0  0
  195.9970  169.3250  145.2660 C   0  0  2  0  0  0  0  0  0  0  0  0
  196.6030  170.9850  143.4520 C   0  0  0  0  0  2  0  0  0  0  0  0
  196.6680  168.1660  144.9140 F   0  0  0  0  0  0  0  0  0  0  0  0
  195.5140  170.0620  143.9960 C   0  0  1  0  0  3  0  0  0  0  0  0
  196.7070  171.6780  145.9210 C   0  0  0  0  0  2  0  0  0  0  0  0
  194.7910  168.9510  146.1080 C   0  0  0  0  0  1  0  0  0  0  0  0
  1  2  1  6  0  0  0
  1 54  1  0  0  0  0
  2  4  1  0  0  0  0
  4  3  1  1  0  0  0
  5  6  1  0  0  0  0
  5  4  1  0  0  0  0
  6  7  1  1  0  0  0
  8  9  1  6  0  0  0
  8  6  1  0  0  0  0
  8 10  1  0  0  0  0
 11 10  1  0  0  0  0
 13 27  1  0  0  0  0
 14 12  1  6  0  0  0
 15 19  1  6  0  0  0
 15 13  1  0  0  0  0
 15 27  1  0  0  0  0
 16 22  1  6  0  0  0
 16 26  1  0  0  0  0
 16 14  1  0  0  0  0
 17 21  1  0  0  0  0
 21 25  1  0  0  0  0
 23 12  1  0  0  0  0
 24 15  1  0  0  0  0
 25 11  1  6  0  0  0
 25 26  1  0  0  0  0
 25 19  1  0  0  0  0
 26 24  1  1  0  0  0
 27 18  2  0  0  0  0
 28 17  1  6  0  0  0
 28 14  1  0  0  0  0
 29 23  1  0  0  0  0
 29 20  1  1  0  0  0
 29 28  1  0  0  0  0
 30 31  1  0  0  0  0
 31 11  1  0  0  0  0
 32 33  1  6  0  0  0
 32  1  1  0  0  0  0
 33 34  1  0  0  0  0
 35 34  1  0  0  0  0
 36 35  1  0  0  0  0
 37 38  1  0  0  0  0
 38 36  1  0  0  0  0
 38 40  1  0  0  0  0
 39 38  1  0  0  0  0
 41 32  1  0  0  0  0
 42 41  1  0  0  0  0
 43 44  1  0  0  0  0
 44 47  1  0  0  0  0
 44 45  1  0  0  0  0
 44 42  1  0  0  0  0
 47 46  1  6  0  0  0
 48 49  1  6  0  0  0
 48 47  1  0  0  0  0
 48 53  1  0  0  0  0
 50 48  1  0  0  0  0
 51 50  1  0  0  0  0
 53 52  1  0  0  0  0
 55 61  1  0  0  0  0
 57 62  1  1  0  0  0
 57 56  1  0  0  0  0
 58 60  1  0  0  0  0
 58 55  1  0  0  0  0
 59 57  1  0  0  0  0
 60 54  1  6  0  0  0
 60 57  1  0  0  0  0
 61 56  1  0  0  0  0
M  END
>  <MODEL>
8

>  <REMARK>
 VINA RESULT:      -4.9      3.824     10.034
  Name = 
  24 active torsions:
  status: ('A' for Active; 'I' for Inactive)
    1  A    between atoms: O_5  and  C_34
    2  A    between atoms: O_5  and  C_60
    3  A    between atoms: O_7  and  C_39
    4  A    between atoms: O_7  and  C_41
    5  A    between atoms: C_10  and  C_36
    6  A    between atoms: C_10  and  C_45
    7  A    between atoms: C_11  and  C_32
    8  A    between atoms: N_18  and  N_19
    9  A    between atoms: N_18  and  C_22
   10  A    between atoms: N_19  and  C_46
   11  A    between atoms: C_21  and  C_22
   12  A    between atoms: C_21  and  C_32
   13  A    between atoms: O_28  and  C_32
   14  A    between atoms: C_33  and  N_62
   15  A    between atoms: C_34  and  N_62
   16  A    between atoms: C_35  and  C_45
   17  A    between atoms: C_35  and  C_54
   18  A    between atoms: C_36  and  C_40
   19  A    between atoms: C_40  and  N_47
   20  A    between atoms: C_41  and  C_46
   21  A    between atoms: C_41  and  C_54
   22  A    between atoms: C_46  and  C_60
   23  A    between atoms: N_47  and  C_49
   24  A    between atoms: N_47  and  C_50
                            x       y       z     vdW  Elec       q    Type
                         _______ _______ _______ _____ _____    ______ ____

>  <TORSDO>
F 24

$$$$
=
 OpenBabel11072408323D

 62 66  0  0  1  0  0  0  0  0999 V2000
  194.5120  171.8500  140.0180 C   0  0  2  0  0  3  0  0  0  0  0  0
  193.7840  170.8430  140.9150 C   0  0  0  0  0  2  0  0  0  0  0  0
  191.7100  169.8040  140.3740 O   0  0  0  0  0  1  0  0  0  0  0  0
  192.2710  170.9930  140.8380 C   0  0  1  0  0  3  0  0  0  0  0  0
  191.7240  171.3110  142.2210 C   0  0  0  0  0  2  0  0  0  0  0  0
  190.9950  172.6520  142.2300 C   0  0  1  0  0  3  0  0  0  0  0  0
  189.6290  172.5610  141.5640 C   0  0  0  0  0  1  0  0  0  0  0  0
  190.8840  173.2580  143.6340 C   0  0  2  0  0  3  0  0  0  0  0  0
  190.9550  172.2780  144.6230 O   0  0  0  0  0  1  0  0  0  0  0  0
  189.7020  174.2090  143.8620 C   0  0  0  0  0  2  0  0  0  0  0  0
  190.0350  175.6080  143.5710 N   0  0  0  0  0  0  0  0  0  0  0  0
  185.3340  177.6470  145.9430 O   0  0  0  0  0  0  0  0  0  0  0  0
  191.2090  175.5540  147.7130 N   0  0  0  0  0  2  0  0  0  0  0  0
  186.7230  177.5400  145.7600 C   0  0  1  0  0  3  0  0  0  0  0  0
  190.3450  176.3350  146.9550 C   0  0  1  0  0  0  0  0  0  0  0  0
  187.1220  176.0710  145.5400 C   0  0  1  0  0  3  0  0  0  0  0  0
  187.9390  177.8930  143.6870 O   0  0  0  0  0  0  0  0  0  0  0  0
  190.9010  178.0180  148.8030 O   0  0  0  0  0  0  0  0  0  0  0  0
  190.8560  176.6900  145.5960 C   0  0  0  0  0  2  0  0  0  0  0  0
  185.4800  180.2920  144.2510 C   0  0  0  0  0  1  0  0  0  0  0  0
  189.2120  177.9030  144.2590 C   0  0  0  0  0  2  0  0  0  0  0  0
  186.5690  175.5440  144.3720 O   0  0  0  0  0  1  0  0  0  0  0  0
  184.8100  178.0070  144.7330 N   0  0  0  0  0  2  0  0  0  0  0  0
  189.0240  175.9020  147.0110 O   0  0  0  0  0  0  0  0  0  0  0  0
  189.6480  176.4900  144.7070 C   0  0  1  0  0  0  0  0  0  0  0  0
  188.6310  175.7800  145.6640 C   0  0  2  0  0  3  0  0  0  0  0  0
  190.8270  177.0020  148.0630 C   0  0  0  0  0  0  0  0  0  0  0  0
  187.1130  178.4940  144.6430 C   0  0  1  0  0  3  0  0  0  0  0  0
  185.7910  178.8240  144.0340 C   0  0  2  0  0  3  0  0  0  0  0  0
  191.7940  176.3470  142.0510 C   0  0  0  0  0  1  0  0  0  0  0  0
  191.4770  175.6320  143.3480 C   0  0  0  0  0  2  0  0  0  0  0  0
  195.9650  172.0360  140.4710 C   0  0  2  0  0  3  0  0  0  0  0  0
  196.2790  171.2450  141.7400 C   0  0  0  0  0  2  0  0  0  0  0  0
  197.4480  170.4980  141.5800 O   0  0  0  0  0  0  0  0  0  0  0  0
  197.7610  170.0740  142.8700 C   0  0  0  0  0  2  0  0  0  0  0  0
  196.5330  169.9230  143.6470 N   0  0  0  0  0  2  0  0  0  0  0  0
  197.1840  171.5040  145.3570 C   0  0  0  0  0  1  0  0  0  0  0  0
  196.7870  170.0680  145.0850 C   0  0  0  0  0  0  0  0  0  0  0  0
  197.9300  169.1680  145.5340 C   0  0  0  0  0  1  0  0  0  0  0  0
  195.5370  169.7620  145.8990 C   0  0  0  0  0  1  0  0  0  0  0  0
  196.2450  173.4490  140.6850 N   0  0  0  0  0  2  0  0  0  0  0  0
  196.3680  173.6400  142.0720 N   0  0  0  0  0  2  0  0  0  0  0  0
  195.9320  175.8170  141.4420 F   0  0  0  0  0  0  0  0  0  0  0  0
  195.6850  174.8820  142.4310 C   0  0  0  0  0  0  0  0  0  0  0  0
  194.3190  174.6550  142.4830 F   0  0  0  0  0  0  0  0  0  0  0  0
  196.6270  176.7360  143.6400 O   0  0  0  0  0  1  0  0  0  0  0  0
  196.2080  175.4080  143.7840 C   0  0  1  0  0  3  0  0  0  0  0  0
  195.2120  175.2710  144.9560 C   0  0  2  0  0  0  0  0  0  0  0  0
  195.9300  174.9310  146.1100 O   0  0  0  0  0  1  0  0  0  0  0  0
  194.2570  174.2700  144.6410 O   0  0  0  0  0  0  0  0  0  0  0  0
  194.0120  173.4750  145.7750 C   0  0  0  0  0  1  0  0  0  0  0  0
  194.5960  176.9850  146.5380 F   0  0  0  0  0  0  0  0  0  0  0  0
  194.5340  176.6250  145.2040 C   0  0  0  0  0  2  0  0  0  0  0  0
  193.8260  173.0720  140.0020 O   0  0  0  0  0  0  0  0  0  0  0  0
  194.5760  175.2410  137.0340 C   0  0  0  0  0  2  0  0  0  0  0  0
  192.2040  174.3800  136.8750 C   0  0  0  0  0  2  0  0  0  0  0  0
  192.3670  173.4530  138.0900 C   0  0  2  0  0  0  0  0  0  0  0  0
  194.4360  174.8500  138.5120 C   0  0  0  0  0  2  0  0  0  0  0  0
  191.4700  173.8590  139.0630 F   0  0  0  0  0  0  0  0  0  0  0  0
  193.8050  173.4670  138.6590 C   0  0  1  0  0  3  0  0  0  0  0  0
  193.5200  174.5900  136.1300 C   0  0  0  0  0  2  0  0  0  0  0  0
  192.0180  172.0370  137.6680 C   0  0  0  0  0  1  0  0  0  0  0  0
  1 32  1  0  0  0  0
  1  2  1  1  0  0  0
  4  3  1  1  0  0  0
  4  2  1  0  0  0  0
  4  5  1  0  0  0  0
  5  6  1  0  0  0  0
  6  7  1  1  0  0  0
  6  8  1  0  0  0  0
  8 10  1  0  0  0  0
  8  9  1  1  0  0  0
 11 10  1  0  0  0  0
 13 27  1  0  0  0  0
 14 12  1  6  0  0  0
 15 19  1  6  0  0  0
 15 24  1  0  0  0  0
 15 13  1  0  0  0  0
 15 27  1  0  0  0  0
 16 22  1  6  0  0  0
 16 26  1  0  0  0  0
 16 14  1  0  0  0  0
 17 21  1  0  0  0  0
 21 25  1  0  0  0  0
 23 12  1  0  0  0  0
 25 11  1  6  0  0  0
 25 19  1  0  0  0  0
 25 26  1  0  0  0  0
 26 24  1  1  0  0  0
 27 18  2  0  0  0  0
 28 17  1  6  0  0  0
 28 14  1  0  0  0  0
 29 20  1  1  0  0  0
 29 28  1  0  0  0  0
 29 23  1  0  0  0  0
 30 31  1  0  0  0  0
 31 11  1  0  0  0  0
 32 41  1  0  0  0  0
 32 33  1  1  0  0  0
 34 33  1  0  0  0  0
 34 35  1  0  0  0  0
 35 36  1  0  0  0  0
 36 38  1  0  0  0  0
 38 37  1  0  0  0  0
 38 39  1  0  0  0  0
 38 40  1  0  0  0  0
 41 42  1  0  0  0  0
 42 44  1  0  0  0  0
 43 44  1  0  0  0  0
 44 45  1  0  0  0  0
 44 47  1  0  0  0  0
 47 46  1  6  0  0  0
 47 48  1  0  0  0  0
 48 53  1  0  0  0  0
 48 49  1  1  0  0  0
 50 48  1  0  0  0  0
 50 51  1  0  0  0  0
 53 52  1  0  0  0  0
 54  1  1  0  0  0  0
 55 58  1  0  0  0  0
 56 57  1  0  0  0  0
 57 62  1  6  0  0  0
 57 60  1  0  0  0  0
 57 59  1  0  0  0  0
 58 60  1  0  0  0  0
 60 54  1  1  0  0  0
 61 56  1  0  0  0  0
 61 55  1  0  0  0  0
M  END
>  <MODEL>
9

>  <REMARK>
 VINA RESULT:      -4.8      3.207      8.661
  Name = 
  24 active torsions:
  status: ('A' for Active; 'I' for Inactive)
    1  A    between atoms: O_5  and  C_34
    2  A    between atoms: O_5  and  C_60
    3  A    between atoms: O_7  and  C_39
    4  A    between atoms: O_7  and  C_41
    5  A    between atoms: C_10  and  C_36
    6  A    between atoms: C_10  and  C_45
    7  A    between atoms: C_11  and  C_32
    8  A    between atoms: N_18  and  N_19
    9  A    between atoms: N_18  and  C_22
   10  A    between atoms: N_19  and  C_46
   11  A    between atoms: C_21  and  C_22
   12  A    between atoms: C_21  and  C_32
   13  A    between atoms: O_28  and  C_32
   14  A    between atoms: C_33  and  N_62
   15  A    between atoms: C_34  and  N_62
   16  A    between atoms: C_35  and  C_45
   17  A    between atoms: C_35  and  C_54
   18  A    between atoms: C_36  and  C_40
   19  A    between atoms: C_40  and  N_47
   20  A    between atoms: C_41  and  C_46
   21  A    between atoms: C_41  and  C_54
   22  A    between atoms: C_46  and  C_60
   23  A    between atoms: N_47  and  C_49
   24  A    between atoms: N_47  and  C_50
                            x       y       z     vdW  Elec       q    Type
                         _______ _______ _______ _____ _____    ______ ____

>  <TORSDO>
F 24

$$$$
