=
 OpenBabel11072408493D

 26 26  0  0  1  0  0  0  0  0999 V2000
  190.1390  175.5390  143.3220 C   0  0  0  0  0  0  0  0  0  0  0  0
  191.3300  175.4680  143.8360 N   0  0  0  0  0  0  0  0  0  0  0  0
  189.1560  172.9720  142.5790 O   0  0  0  0  0  1  0  0  0  0  0  0
  190.9800  174.1690  141.1370 O   0  0  0  0  0  1  0  0  0  0  0  0
  189.7420  174.4350  141.9630 P   0  0  0  0  0  0  0  0  0  0  0  0
  188.5590  175.1490  140.9880 O   0  0  0  0  0  0  0  0  0  0  0  0
  189.3030  177.7380  143.7190 O   0  0  0  0  0  0  0  0  0  0  0  0
  189.1130  176.4950  143.8090 C   0  0  0  0  0  0  0  0  0  0  0  0
  187.8980  175.9910  144.3830 N   0  0  0  0  0  2  0  0  0  0  0  0
  186.7900  176.7580  144.8720 C   0  0  0  0  0  0  0  0  0  0  0  0
  185.4880  177.7250  146.6820 C   0  0  0  0  0  3  0  0  0  0  0  0
  185.8950  177.3090  143.9490 C   0  0  0  0  0  3  0  0  0  0  0  0
  184.6000  178.2730  145.7530 C   0  0  0  0  0  0  0  0  0  0  0  0
  184.8030  178.0630  144.3860 C   0  0  0  0  0  3  0  0  0  0  0  0
  186.5800  176.9720  146.2430 C   0  0  0  0  0  3  0  0  0  0  0  0
  183.5360  178.9990  146.1750 F   0  0  0  0  0  0  0  0  0  0  0  0
  191.7490  176.2620  144.8800 O   0  0  0  0  0  0  0  0  0  0  0  0
  192.3440  175.6830  146.0320 C   0  0  2  0  0  3  0  0  0  0  0  0
  190.0190  174.7240  146.9580 O   0  0  0  0  0  1  0  0  0  0  0  0
  191.2120  175.8600  147.5060 P   0  0  0  0  0  0  0  0  0  0  0  0
  190.3610  177.2670  146.9460 O   0  0  0  0  0  1  0  0  0  0  0  0
  193.7700  177.1940  147.2130 O   0  0  0  0  0  0  0  0  0  0  0  0
  193.6710  176.3150  146.3130 C   0  0  0  0  0  0  0  0  0  0  0  0
  195.6140  174.7690  145.9360 N   0  0  0  0  0  1  0  0  0  0  0  0
  194.8600  175.9150  145.5490 C   0  0  0  0  0  0  0  0  0  0  0  0
  195.2200  176.5830  144.5440 O   0  0  0  0  0  0  0  0  0  0  0  0
  1  8  1  0  0  0  0
  1  2  2  0  0  0  0
  2 17  1  0  0  0  0
  4  5  1  0  0  0  0
  5  3  1  0  0  0  0
  5  1  1  0  0  0  0
  6  5  2  0  0  0  0
  7  8  2  0  0  0  0
  8  9  1  0  0  0  0
  9 10  1  0  0  0  0
 10 15  1  0  0  0  0
 12 14  1  0  0  0  0
 12 10  2  0  0  0  0
 13 16  1  0  0  0  0
 13 11  1  0  0  0  0
 14 13  2  0  0  0  0
 15 11  2  0  0  0  0
 18 17  1  6  0  0  0
 18 23  1  0  0  0  0
 18 20  1  0  0  0  0
 19 20  1  0  0  0  0
 21 20  1  0  0  0  0
 23 22  2  0  0  0  0
 25 24  1  0  0  0  0
 25 23  1  0  0  0  0
 26 25  2  0  0  0  0
M  END
>  <MODEL>
1

>  <REMARK>
 VINA RESULT:      -5.9      0.000      0.000
  Name = 
  8 active torsions:
  status: ('A' for Active; 'I' for Inactive)
    1  A    between atoms: C_2  and  C_15
    2  A    between atoms: C_3  and  N_5
    3  A    between atoms: C_11  and  P_12
    4  A    between atoms: C_11  and  O_19
    5  A    between atoms: C_11  and  C_26
    6  A    between atoms: C_15  and  P_17
    7  A    between atoms: O_19  and  N_21
    8  A    between atoms: C_24  and  C_26
                            x       y       z     vdW  Elec       q    Type
                         _______ _______ _______ _____ _____    ______ ____

>  <TORSDO>
F 8

$$$$
=
 OpenBabel11072408493D

 26 26  0  0  1  0  0  0  0  0999 V2000
  190.2420  175.4600  143.2650 C   0  0  0  0  0  0  0  0  0  0  0  0
  191.3950  175.4310  143.8650 N   0  0  0  0  0  0  0  0  0  0  0  0
  188.7340  174.8800  140.9200 O   0  0  0  0  0  0  0  0  0  0  0  0
  189.5510  172.9540  142.4880 O   0  0  0  0  0  1  0  0  0  0  0  0
  189.9620  174.2960  141.9270 P   0  0  0  0  0  0  0  0  0  0  0  0
  191.3860  174.1180  141.0320 O   0  0  0  0  0  1  0  0  0  0  0  0
  189.2360  177.6230  143.2880 O   0  0  0  0  0  0  0  0  0  0  0  0
  189.1690  176.4140  143.6400 C   0  0  0  0  0  0  0  0  0  0  0  0
  188.0490  175.9470  144.4060 N   0  0  0  0  0  2  0  0  0  0  0  0
  186.9100  176.7100  144.8260 C   0  0  0  0  0  0  0  0  0  0  0  0
  184.9130  178.0130  144.3550 C   0  0  0  0  0  3  0  0  0  0  0  0
  186.6920  176.8920  146.1960 C   0  0  0  0  0  3  0  0  0  0  0  0
  184.7020  178.1880  145.7250 C   0  0  0  0  0  0  0  0  0  0  0  0
  185.5920  177.6280  146.6450 C   0  0  0  0  0  3  0  0  0  0  0  0
  186.0120  177.2750  143.9070 C   0  0  0  0  0  3  0  0  0  0  0  0
  183.6410  178.9080  146.1620 F   0  0  0  0  0  0  0  0  0  0  0  0
  191.7250  176.2730  144.9040 O   0  0  0  0  0  0  0  0  0  0  0  0
  192.2940  175.7560  146.0970 C   0  0  2  0  0  3  0  0  0  0  0  0
  190.0460  174.8440  147.2370 O   0  0  0  0  0  1  0  0  0  0  0  0
  191.1840  176.1150  147.5550 P   0  0  0  0  0  0  0  0  0  0  0  0
  190.2450  177.3640  146.7970 O   0  0  0  0  0  1  0  0  0  0  0  0
  193.8240  177.2240  147.2000 O   0  0  0  0  0  0  0  0  0  0  0  0
  193.6570  176.3320  146.3230 C   0  0  0  0  0  0  0  0  0  0  0  0
  195.3390  174.5600  145.7430 N   0  0  0  0  0  1  0  0  0  0  0  0
  194.8010  175.8620  145.5310 C   0  0  0  0  0  0  0  0  0  0  0  0
  195.3140  176.6090  144.6560 O   0  0  0  0  0  0  0  0  0  0  0  0
  1  8  1  0  0  0  0
  1  2  2  0  0  0  0
  2 17  1  0  0  0  0
  3  5  2  0  0  0  0
  5  4  1  0  0  0  0
  5  1  1  0  0  0  0
  6  5  1  0  0  0  0
  7  8  2  0  0  0  0
  8  9  1  0  0  0  0
  9 10  1  0  0  0  0
 10 12  1  0  0  0  0
 11 13  2  0  0  0  0
 12 14  2  0  0  0  0
 13 16  1  0  0  0  0
 13 14  1  0  0  0  0
 15 11  1  0  0  0  0
 15 10  2  0  0  0  0
 18 17  1  6  0  0  0
 18 23  1  0  0  0  0
 18 20  1  0  0  0  0
 19 20  1  0  0  0  0
 21 20  1  0  0  0  0
 23 22  2  0  0  0  0
 25 24  1  0  0  0  0
 25 23  1  0  0  0  0
 26 25  2  0  0  0  0
M  END
>  <MODEL>
2

>  <REMARK>
 VINA RESULT:      -5.9      0.228      1.319
  Name = 
  8 active torsions:
  status: ('A' for Active; 'I' for Inactive)
    1  A    between atoms: C_2  and  C_15
    2  A    between atoms: C_3  and  N_5
    3  A    between atoms: C_11  and  P_12
    4  A    between atoms: C_11  and  O_19
    5  A    between atoms: C_11  and  C_26
    6  A    between atoms: C_15  and  P_17
    7  A    between atoms: O_19  and  N_21
    8  A    between atoms: C_24  and  C_26
                            x       y       z     vdW  Elec       q    Type
                         _______ _______ _______ _____ _____    ______ ____

>  <TORSDO>
F 8

$$$$
=
 OpenBabel11072408493D

 26 26  0  0  1  0  0  0  0  0999 V2000
  190.7800  175.7710  144.8920 C   0  0  0  0  0  0  0  0  0  0  0  0
  191.0410  175.2480  143.7310 N   0  0  0  0  0  0  0  0  0  0  0  0
  192.9760  176.6360  146.4850 O   0  0  0  0  0  1  0  0  0  0  0  0
  192.6310  174.0990  145.9590 O   0  0  0  0  0  0  0  0  0  0  0  0
  191.8740  175.3730  146.2590 P   0  0  0  0  0  0  0  0  0  0  0  0
  190.9600  175.1650  147.6660 O   0  0  0  0  0  1  0  0  0  0  0  0
  189.7300  177.9130  144.9470 O   0  0  0  0  0  0  0  0  0  0  0  0
  189.6210  176.6690  145.1230 C   0  0  0  0  0  0  0  0  0  0  0  0
  188.3700  176.1070  145.5460 N   0  0  0  0  0  2  0  0  0  0  0  0
  187.1430  176.8100  145.7820 C   0  0  0  0  0  0  0  0  0  0  0  0
  185.5240  177.8530  147.2660 C   0  0  0  0  0  3  0  0  0  0  0  0
  186.3410  177.1480  144.6880 C   0  0  0  0  0  3  0  0  0  0  0  0
  184.7300  178.1870  146.1660 C   0  0  0  0  0  0  0  0  0  0  0  0
  185.1370  177.8340  144.8770 C   0  0  0  0  0  3  0  0  0  0  0  0
  186.7270  177.1680  147.0740 C   0  0  0  0  0  3  0  0  0  0  0  0
  183.5600  178.8460  146.3490 F   0  0  0  0  0  0  0  0  0  0  0  0
  190.2750  175.4800  142.6110 O   0  0  0  0  0  0  0  0  0  0  0  0
  189.3090  174.5300  142.1900 C   0  0  2  0  0  3  0  0  0  0  0  0
  188.3560  172.8850  140.2990 O   0  0  0  0  0  1  0  0  0  0  0  0
  189.8560  173.7040  140.6070 P   0  0  0  0  0  0  0  0  0  0  0  0
  190.6360  172.3390  141.3440 O   0  0  0  0  0  1  0  0  0  0  0  0
  186.9510  174.6860  142.5520 O   0  0  0  0  0  0  0  0  0  0  0  0
  187.9740  175.1820  142.0050 C   0  0  0  0  0  0  0  0  0  0  0  0
  188.2880  177.6560  141.7050 N   0  0  0  0  0  1  0  0  0  0  0  0
  187.8500  176.4000  141.1940 C   0  0  0  0  0  0  0  0  0  0  0  0
  187.3570  176.3410  140.0360 O   0  0  0  0  0  0  0  0  0  0  0  0
  1  8  1  0  0  0  0
  1  5  1  0  0  0  0
  2  1  2  0  0  0  0
  4  5  2  0  0  0  0
  5  3  1  0  0  0  0
  5  6  1  0  0  0  0
  7  8  2  0  0  0  0
  8  9  1  0  0  0  0
  9 10  1  0  0  0  0
 10 15  1  0  0  0  0
 12 14  1  0  0  0  0
 12 10  2  0  0  0  0
 13 16  1  0  0  0  0
 13 11  1  0  0  0  0
 14 13  2  0  0  0  0
 15 11  2  0  0  0  0
 17  2  1  0  0  0  0
 18 23  1  6  0  0  0
 18 17  1  0  0  0  0
 19 20  1  0  0  0  0
 20 21  1  0  0  0  0
 20 18  1  0  0  0  0
 23 22  2  0  0  0  0
 25 24  1  0  0  0  0
 25 23  1  0  0  0  0
 26 25  2  0  0  0  0
M  END
>  <MODEL>
3

>  <REMARK>
 VINA RESULT:      -5.8      2.015      5.212
  Name = 
  8 active torsions:
  status: ('A' for Active; 'I' for Inactive)
    1  A    between atoms: C_2  and  C_15
    2  A    between atoms: C_3  and  N_5
    3  A    between atoms: C_11  and  P_12
    4  A    between atoms: C_11  and  O_19
    5  A    between atoms: C_11  and  C_26
    6  A    between atoms: C_15  and  P_17
    7  A    between atoms: O_19  and  N_21
    8  A    between atoms: C_24  and  C_26
                            x       y       z     vdW  Elec       q    Type
                         _______ _______ _______ _____ _____    ______ ____

>  <TORSDO>
F 8

$$$$
=
 OpenBabel11072408493D

 26 26  0  0  1  0  0  0  0  0999 V2000
  186.6760  177.1200  145.5680 C   0  0  0  0  0  0  0  0  0  0  0  0
  186.1390  176.7120  144.4570 N   0  0  0  0  0  0  0  0  0  0  0  0
  186.6060  178.6100  147.9930 O   0  0  0  0  0  1  0  0  0  0  0  0
  184.3960  177.7410  146.9000 O   0  0  0  0  0  1  0  0  0  0  0  0
  185.7590  178.3000  146.5620 P   0  0  0  0  0  0  0  0  0  0  0  0
  185.5750  179.7400  145.6940 O   0  0  0  0  0  0  0  0  0  0  0  0
  188.1000  175.6850  146.8360 O   0  0  0  0  0  0  0  0  0  0  0  0
  188.0070  176.6520  146.0320 C   0  0  0  0  0  0  0  0  0  0  0  0
  189.1890  177.3110  145.5550 N   0  0  0  0  0  2  0  0  0  0  0  0
  190.5490  176.9780  145.8640 C   0  0  0  0  0  0  0  0  0  0  0  0
  192.8500  176.5470  145.2090 C   0  0  0  0  0  3  0  0  0  0  0  0
  190.8990  176.7550  147.1990 C   0  0  0  0  0  3  0  0  0  0  0  0
  193.1900  176.3260  146.5470 C   0  0  0  0  0  0  0  0  0  0  0  0
  192.2150  176.4290  147.5410 C   0  0  0  0  0  3  0  0  0  0  0  0
  191.5340  176.8720  144.8700 C   0  0  0  0  0  3  0  0  0  0  0  0
  194.4640  176.0040  146.8790 F   0  0  0  0  0  0  0  0  0  0  0  0
  186.7470  175.8090  143.6130 O   0  0  0  0  0  0  0  0  0  0  0  0
  186.7920  176.0490  142.2150 C   0  0  2  0  0  3  0  0  0  0  0  0
  187.7250  173.6460  141.4810 O   0  0  0  0  0  1  0  0  0  0  0  0
  188.3210  175.2770  141.4720 P   0  0  0  0  0  0  0  0  0  0  0  0
  189.2170  175.1280  142.9520 O   0  0  0  0  0  1  0  0  0  0  0  0
  187.8100  178.2060  142.0580 O   0  0  0  0  0  0  0  0  0  0  0  0
  186.7590  177.5200  141.9320 C   0  0  0  0  0  0  0  0  0  0  0  0
  185.0630  178.0500  140.1580 N   0  0  0  0  0  1  0  0  0  0  0  0
  185.5110  178.1650  141.5060 C   0  0  0  0  0  0  0  0  0  0  0  0
  184.8260  178.8250  142.3320 O   0  0  0  0  0  0  0  0  0  0  0  0
  1  8  1  0  0  0  0
  1  5  1  0  0  0  0
  2  1  2  0  0  0  0
  5  4  1  0  0  0  0
  5  3  1  0  0  0  0
  6  5  2  0  0  0  0
  8  7  2  0  0  0  0
  9 10  1  0  0  0  0
  9  8  1  0  0  0  0
 10 12  1  0  0  0  0
 11 13  2  0  0  0  0
 12 14  2  0  0  0  0
 13 16  1  0  0  0  0
 13 14  1  0  0  0  0
 15 11  1  0  0  0  0
 15 10  2  0  0  0  0
 17  2  1  0  0  0  0
 18 23  1  1  0  0  0
 18 17  1  0  0  0  0
 20 19  1  0  0  0  0
 20 18  1  0  0  0  0
 20 21  1  0  0  0  0
 23 22  2  0  0  0  0
 24 25  1  0  0  0  0
 25 23  1  0  0  0  0
 25 26  2  0  0  0  0
M  END
>  <MODEL>
4

>  <REMARK>
 VINA RESULT:      -5.8      3.853      7.430
  Name = 
  8 active torsions:
  status: ('A' for Active; 'I' for Inactive)
    1  A    between atoms: C_2  and  C_15
    2  A    between atoms: C_3  and  N_5
    3  A    between atoms: C_11  and  P_12
    4  A    between atoms: C_11  and  O_19
    5  A    between atoms: C_11  and  C_26
    6  A    between atoms: C_15  and  P_17
    7  A    between atoms: O_19  and  N_21
    8  A    between atoms: C_24  and  C_26
                            x       y       z     vdW  Elec       q    Type
                         _______ _______ _______ _____ _____    ______ ____

>  <TORSDO>
F 8

$$$$
=
 OpenBabel11072408493D

 26 26  0  0  1  0  0  0  0  0999 V2000
  189.4220  175.6680  142.6350 C   0  0  0  0  0  0  0  0  0  0  0  0
  190.7010  175.6160  142.8630 N   0  0  0  0  0  0  0  0  0  0  0  0
  190.0320  173.9530  140.4450 O   0  0  0  0  0  1  0  0  0  0  0  0
  187.8930  175.4570  140.4030 O   0  0  0  0  0  0  0  0  0  0  0  0
  188.7580  174.6310  141.3290 P   0  0  0  0  0  0  0  0  0  0  0  0
  187.8280  173.3960  142.0130 O   0  0  0  0  0  1  0  0  0  0  0  0
  188.1410  177.6590  142.9300 O   0  0  0  0  0  0  0  0  0  0  0  0
  188.5080  176.5500  143.4030 C   0  0  0  0  0  0  0  0  0  0  0  0
  188.0420  176.1260  144.6930 N   0  0  0  0  0  2  0  0  0  0  0  0
  187.1360  176.8240  145.5570 C   0  0  0  0  0  0  0  0  0  0  0  0
  186.6670  178.2080  147.4990 C   0  0  0  0  0  3  0  0  0  0  0  0
  185.7690  176.7910  145.2640 C   0  0  0  0  0  3  0  0  0  0  0  0
  185.3020  178.1690  147.1990 C   0  0  0  0  0  0  0  0  0  0  0  0
  184.8540  177.4600  146.0820 C   0  0  0  0  0  3  0  0  0  0  0  0
  187.5800  177.5380  146.6810 C   0  0  0  0  0  3  0  0  0  0  0  0
  184.4130  178.8120  147.9940 F   0  0  0  0  0  0  0  0  0  0  0  0
  191.3240  176.3640  143.8370 O   0  0  0  0  0  0  0  0  0  0  0  0
  192.1200  175.7330  144.8280 C   0  0  2  0  0  3  0  0  0  0  0  0
  194.3590  174.4140  145.4870 O   0  0  0  0  0  1  0  0  0  0  0  0
  193.4640  174.7110  144.0300 P   0  0  0  0  0  0  0  0  0  0  0  0
  194.4500  176.0410  143.5040 O   0  0  0  0  0  1  0  0  0  0  0  0
  191.0320  173.6830  145.3970 O   0  0  0  0  0  0  0  0  0  0  0  0
  191.2730  174.8780  145.7190 C   0  0  0  0  0  0  0  0  0  0  0  0
  191.3260  176.5570  147.5860 N   0  0  0  0  0  1  0  0  0  0  0  0
  190.7230  175.4240  146.9670 C   0  0  0  0  0  0  0  0  0  0  0  0
  189.7110  174.8940  147.4970 O   0  0  0  0  0  0  0  0  0  0  0  0
  1  2  2  0  0  0  0
  1  8  1  0  0  0  0
  2 17  1  0  0  0  0
  3  5  1  0  0  0  0
  4  5  2  0  0  0  0
  5  6  1  0  0  0  0
  5  1  1  0  0  0  0
  7  8  2  0  0  0  0
  8  9  1  0  0  0  0
  9 10  1  0  0  0  0
 10 15  1  0  0  0  0
 12 10  2  0  0  0  0
 12 14  1  0  0  0  0
 13 11  1  0  0  0  0
 13 16  1  0  0  0  0
 14 13  2  0  0  0  0
 15 11  2  0  0  0  0
 18 17  1  6  0  0  0
 18 23  1  0  0  0  0
 20 18  1  0  0  0  0
 20 19  1  0  0  0  0
 21 20  1  0  0  0  0
 22 23  2  0  0  0  0
 23 25  1  0  0  0  0
 25 26  2  0  0  0  0
 25 24  1  0  0  0  0
M  END
>  <MODEL>
5

>  <REMARK>
 VINA RESULT:      -5.7      1.975      3.005
  Name = 
  8 active torsions:
  status: ('A' for Active; 'I' for Inactive)
    1  A    between atoms: C_2  and  C_15
    2  A    between atoms: C_3  and  N_5
    3  A    between atoms: C_11  and  P_12
    4  A    between atoms: C_11  and  O_19
    5  A    between atoms: C_11  and  C_26
    6  A    between atoms: C_15  and  P_17
    7  A    between atoms: O_19  and  N_21
    8  A    between atoms: C_24  and  C_26
                            x       y       z     vdW  Elec       q    Type
                         _______ _______ _______ _____ _____    ______ ____

>  <TORSDO>
F 8

$$$$
=
 OpenBabel11072408493D

 26 26  0  0  1  0  0  0  0  0999 V2000
  191.0090  175.9500  144.9650 C   0  0  0  0  0  0  0  0  0  0  0  0
  191.1810  175.2030  143.9150 N   0  0  0  0  0  0  0  0  0  0  0  0
  193.5830  176.9000  145.7270 O   0  0  0  0  0  0  0  0  0  0  0  0
  192.7740  174.5220  146.4500 O   0  0  0  0  0  1  0  0  0  0  0  0
  192.2860  175.9350  146.2260 P   0  0  0  0  0  0  0  0  0  0  0  0
  191.6540  176.5460  147.6710 O   0  0  0  0  0  1  0  0  0  0  0  0
  189.8400  178.0280  144.8880 O   0  0  0  0  0  0  0  0  0  0  0  0
  189.8040  176.7970  145.1550 C   0  0  0  0  0  0  0  0  0  0  0  0
  188.5950  176.1990  145.6450 N   0  0  0  0  0  2  0  0  0  0  0  0
  187.3350  176.8470  145.8570 C   0  0  0  0  0  0  0  0  0  0  0  0
  185.7380  178.0160  147.2700 C   0  0  0  0  0  3  0  0  0  0  0  0
  186.4400  176.9420  144.7870 C   0  0  0  0  0  3  0  0  0  0  0  0
  184.8510  178.1060  146.1940 C   0  0  0  0  0  0  0  0  0  0  0  0
  185.2010  177.5690  144.9530 C   0  0  0  0  0  3  0  0  0  0  0  0
  186.9760  177.3900  147.1010 C   0  0  0  0  0  3  0  0  0  0  0  0
  183.6470  178.7070  146.3550 F   0  0  0  0  0  0  0  0  0  0  0  0
  190.2720  175.1320  142.8830 O   0  0  0  0  0  0  0  0  0  0  0  0
  189.7710  173.8770  142.4510 C   0  0  2  0  0  3  0  0  0  0  0  0
  189.9060  171.2000  142.4340 O   0  0  0  0  0  1  0  0  0  0  0  0
  190.6700  172.4860  143.3130 P   0  0  0  0  0  0  0  0  0  0  0  0
  189.6190  172.3840  144.6920 O   0  0  0  0  0  1  0  0  0  0  0  0
  191.0370  173.5610  140.4480 O   0  0  0  0  0  0  0  0  0  0  0  0
  189.9010  173.7410  140.9650 C   0  0  0  0  0  0  0  0  0  0  0  0
  188.1910  172.6370  139.4940 N   0  0  0  0  0  1  0  0  0  0  0  0
  188.7110  173.8130  140.1070 C   0  0  0  0  0  0  0  0  0  0  0  0
  188.1400  174.9190  139.9100 O   0  0  0  0  0  0  0  0  0  0  0  0
  1  8  1  0  0  0  0
  1  5  1  0  0  0  0
  2  1  2  0  0  0  0
  3  5  2  0  0  0  0
  5  4  1  0  0  0  0
  5  6  1  0  0  0  0
  7  8  2  0  0  0  0
  8  9  1  0  0  0  0
  9 10  1  0  0  0  0
 10 15  1  0  0  0  0
 12 14  1  0  0  0  0
 12 10  2  0  0  0  0
 13 16  1  0  0  0  0
 13 11  1  0  0  0  0
 14 13  2  0  0  0  0
 15 11  2  0  0  0  0
 17  2  1  0  0  0  0
 18 23  1  6  0  0  0
 18 17  1  0  0  0  0
 18 20  1  0  0  0  0
 19 20  1  0  0  0  0
 20 21  1  0  0  0  0
 22 23  2  0  0  0  0
 24 25  1  0  0  0  0
 25 23  1  0  0  0  0
 26 25  2  0  0  0  0
M  END
>  <MODEL>
6

>  <REMARK>
 VINA RESULT:      -5.7      2.079      5.037
  Name = 
  8 active torsions:
  status: ('A' for Active; 'I' for Inactive)
    1  A    between atoms: C_2  and  C_15
    2  A    between atoms: C_3  and  N_5
    3  A    between atoms: C_11  and  P_12
    4  A    between atoms: C_11  and  O_19
    5  A    between atoms: C_11  and  C_26
    6  A    between atoms: C_15  and  P_17
    7  A    between atoms: O_19  and  N_21
    8  A    between atoms: C_24  and  C_26
                            x       y       z     vdW  Elec       q    Type
                         _______ _______ _______ _____ _____    ______ ____

>  <TORSDO>
F 8

$$$$
=
 OpenBabel11072408493D

 26 26  0  0  1  0  0  0  0  0999 V2000
  189.9940  175.8860  143.0840 C   0  0  0  0  0  0  0  0  0  0  0  0
  191.2720  176.0320  143.2770 N   0  0  0  0  0  0  0  0  0  0  0  0
  188.8340  173.3040  142.7780 O   0  0  0  0  0  1  0  0  0  0  0  0
  190.6270  174.1670  141.0830 O   0  0  0  0  0  1  0  0  0  0  0  0
  189.4580  174.6250  141.9250 P   0  0  0  0  0  0  0  0  0  0  0  0
  188.2580  175.2620  140.9190 O   0  0  0  0  0  0  0  0  0  0  0  0
  188.7100  177.8780  143.3570 O   0  0  0  0  0  0  0  0  0  0  0  0
  188.9800  176.7210  143.7760 C   0  0  0  0  0  0  0  0  0  0  0  0
  188.3060  176.1960  144.9300 N   0  0  0  0  0  2  0  0  0  0  0  0
  187.2820  176.8390  145.6990 C   0  0  0  0  0  0  0  0  0  0  0  0
  186.5420  178.1470  147.6100 C   0  0  0  0  0  3  0  0  0  0  0  0
  185.9600  176.7720  145.2480 C   0  0  0  0  0  3  0  0  0  0  0  0
  185.2250  178.0760  147.1500 C   0  0  0  0  0  0  0  0  0  0  0  0
  184.9340  177.3880  145.9690 C   0  0  0  0  0  3  0  0  0  0  0  0
  187.5670  177.5320  146.8860 C   0  0  0  0  0  3  0  0  0  0  0  0
  184.2280  178.6660  147.8520 F   0  0  0  0  0  0  0  0  0  0  0  0
  191.8020  176.9650  144.1410 O   0  0  0  0  0  0  0  0  0  0  0  0
  193.1100  176.7980  144.6640 C   0  0  2  0  0  3  0  0  0  0  0  0
  195.6020  175.8640  144.3430 O   0  0  0  0  0  1  0  0  0  0  0  0
  194.0310  175.4870  143.7060 P   0  0  0  0  0  0  0  0  0  0  0  0
  194.2290  176.4010  142.2420 O   0  0  0  0  0  1  0  0  0  0  0  0
  194.0170  176.7410  146.8750 O   0  0  0  0  0  0  0  0  0  0  0  0
  193.0540  176.4410  146.1170 C   0  0  0  0  0  0  0  0  0  0  0  0
  190.9770  176.4320  147.5290 N   0  0  0  0  0  1  0  0  0  0  0  0
  191.8810  175.7480  146.6660 C   0  0  0  0  0  0  0  0  0  0  0  0
  191.6670  174.5410  146.3740 O   0  0  0  0  0  0  0  0  0  0  0  0
  1  2  2  0  0  0  0
  1  8  1  0  0  0  0
  2 17  1  0  0  0  0
  4  5  1  0  0  0  0
  5  3  1  0  0  0  0
  5  1  1  0  0  0  0
  6  5  2  0  0  0  0
  7  8  2  0  0  0  0
  8  9  1  0  0  0  0
  9 10  1  0  0  0  0
 10 15  1  0  0  0  0
 12 10  2  0  0  0  0
 12 14  1  0  0  0  0
 13 11  1  0  0  0  0
 13 16  1  0  0  0  0
 14 13  2  0  0  0  0
 15 11  2  0  0  0  0
 18 17  1  6  0  0  0
 18 23  1  0  0  0  0
 20 19  1  0  0  0  0
 20 18  1  0  0  0  0
 21 20  1  0  0  0  0
 23 25  1  0  0  0  0
 23 22  2  0  0  0  0
 25 24  1  0  0  0  0
 26 25  2  0  0  0  0
M  END
>  <MODEL>
7

>  <REMARK>
 VINA RESULT:      -5.7      1.785      2.634
  Name = 
  8 active torsions:
  status: ('A' for Active; 'I' for Inactive)
    1  A    between atoms: C_2  and  C_15
    2  A    between atoms: C_3  and  N_5
    3  A    between atoms: C_11  and  P_12
    4  A    between atoms: C_11  and  O_19
    5  A    between atoms: C_11  and  C_26
    6  A    between atoms: C_15  and  P_17
    7  A    between atoms: O_19  and  N_21
    8  A    between atoms: C_24  and  C_26
                            x       y       z     vdW  Elec       q    Type
                         _______ _______ _______ _____ _____    ______ ____

>  <TORSDO>
F 8

$$$$
=
 OpenBabel11072408493D

 26 26  0  0  1  0  0  0  0  0999 V2000
  188.4350  175.4800  142.4470 C   0  0  0  0  0  0  0  0  0  0  0  0
  187.2180  175.8580  142.7070 N   0  0  0  0  0  0  0  0  0  0  0  0
  188.1890  174.6960  139.7210 O   0  0  0  0  0  0  0  0  0  0  0  0
  187.8390  172.9590  141.6430 O   0  0  0  0  0  1  0  0  0  0  0  0
  188.6680  174.1610  141.2530 P   0  0  0  0  0  0  0  0  0  0  0  0
  190.3020  173.7260  141.2110 O   0  0  0  0  0  1  0  0  0  0  0  0
  190.0170  177.2380  142.7630 O   0  0  0  0  0  0  0  0  0  0  0  0
  189.6190  176.0910  143.1020 C   0  0  0  0  0  0  0  0  0  0  0  0
  190.3070  175.3630  144.1300 N   0  0  0  0  0  2  0  0  0  0  0  0
  191.4390  175.8040  144.8910 C   0  0  0  0  0  0  0  0  0  0  0  0
  193.7690  176.4720  145.0720 C   0  0  0  0  0  3  0  0  0  0  0  0
  191.2870  176.0050  146.2670 C   0  0  0  0  0  3  0  0  0  0  0  0
  193.6070  176.6700  146.4460 C   0  0  0  0  0  0  0  0  0  0  0  0
  192.3670  176.4360  147.0430 C   0  0  0  0  0  3  0  0  0  0  0  0
  192.6890  176.0420  144.2980 C   0  0  0  0  0  3  0  0  0  0  0  0
  194.6550  177.0810  147.2000 F   0  0  0  0  0  0  0  0  0  0  0  0
  186.9150  176.8590  143.6030 O   0  0  0  0  0  0  0  0  0  0  0  0
  185.6560  176.8800  144.2580 C   0  0  2  0  0  3  0  0  0  0  0  0
  185.4770  178.6500  142.2530 O   0  0  0  0  0  1  0  0  0  0  0  0
  184.7070  178.4200  143.7920 P   0  0  0  0  0  0  0  0  0  0  0  0
  185.7140  179.5490  144.6450 O   0  0  0  0  0  1  0  0  0  0  0  0
  184.8220  176.7880  146.4970 O   0  0  0  0  0  0  0  0  0  0  0  0
  185.8340  176.8060  145.7430 C   0  0  0  0  0  0  0  0  0  0  0  0
  187.7790  177.9210  146.8750 N   0  0  0  0  0  1  0  0  0  0  0  0
  187.1810  176.7500  146.3270 C   0  0  0  0  0  0  0  0  0  0  0  0
  187.8160  175.6620  146.3480 O   0  0  0  0  0  0  0  0  0  0  0  0
  1  2  2  0  0  0  0
  1  8  1  0  0  0  0
  2 17  1  0  0  0  0
  3  5  2  0  0  0  0
  5  4  1  0  0  0  0
  5  1  1  0  0  0  0
  6  5  1  0  0  0  0
  7  8  2  0  0  0  0
  8  9  1  0  0  0  0
  9 10  1  0  0  0  0
 10 12  1  0  0  0  0
 11 13  2  0  0  0  0
 12 14  2  0  0  0  0
 13 14  1  0  0  0  0
 13 16  1  0  0  0  0
 15 10  2  0  0  0  0
 15 11  1  0  0  0  0
 18 17  1  6  0  0  0
 18 23  1  0  0  0  0
 19 20  1  0  0  0  0
 20 18  1  0  0  0  0
 20 21  1  0  0  0  0
 23 25  1  0  0  0  0
 23 22  2  0  0  0  0
 25 26  2  0  0  0  0
 25 24  1  0  0  0  0
M  END
>  <MODEL>
8

>  <REMARK>
 VINA RESULT:      -5.7      3.535      6.433
  Name = 
  8 active torsions:
  status: ('A' for Active; 'I' for Inactive)
    1  A    between atoms: C_2  and  C_15
    2  A    between atoms: C_3  and  N_5
    3  A    between atoms: C_11  and  P_12
    4  A    between atoms: C_11  and  O_19
    5  A    between atoms: C_11  and  C_26
    6  A    between atoms: C_15  and  P_17
    7  A    between atoms: O_19  and  N_21
    8  A    between atoms: C_24  and  C_26
                            x       y       z     vdW  Elec       q    Type
                         _______ _______ _______ _____ _____    ______ ____

>  <TORSDO>
F 8

$$$$
=
 OpenBabel11072408493D

 26 26  0  0  1  0  0  0  0  0999 V2000
  189.5330  175.3480  142.3340 C   0  0  0  0  0  0  0  0  0  0  0  0
  190.7570  175.2680  142.7660 N   0  0  0  0  0  0  0  0  0  0  0  0
  190.3730  173.4730  140.3620 O   0  0  0  0  0  1  0  0  0  0  0  0
  188.2190  174.9120  140.0010 O   0  0  0  0  0  0  0  0  0  0  0  0
  189.0110  174.1890  141.0670 P   0  0  0  0  0  0  0  0  0  0  0  0
  188.0450  172.9910  141.7670 O   0  0  0  0  0  1  0  0  0  0  0  0
  188.7330  177.5810  142.5860 O   0  0  0  0  0  0  0  0  0  0  0  0
  188.5710  176.3570  142.8420 C   0  0  0  0  0  0  0  0  0  0  0  0
  187.4500  175.9270  143.6270 N   0  0  0  0  0  2  0  0  0  0  0  0
  186.4070  176.7480  144.1690 C   0  0  0  0  0  0  0  0  0  0  0  0
  184.5020  178.2360  143.9130 C   0  0  0  0  0  3  0  0  0  0  0  0
  186.2870  176.8520  145.5590 C   0  0  0  0  0  3  0  0  0  0  0  0
  184.3890  178.3330  145.3030 C   0  0  0  0  0  0  0  0  0  0  0  0
  185.2820  177.6420  146.1250 C   0  0  0  0  0  3  0  0  0  0  0  0
  185.5070  177.4450  143.3490 C   0  0  0  0  0  3  0  0  0  0  0  0
  183.4210  179.1040  145.8540 F   0  0  0  0  0  0  0  0  0  0  0  0
  191.2710  176.1010  143.7340 O   0  0  0  0  0  0  0  0  0  0  0  0
  191.6210  175.5900  145.0110 C   0  0  2  0  0  3  0  0  0  0  0  0
  191.3470  175.6430  147.6770 O   0  0  0  0  0  1  0  0  0  0  0  0
  190.4540  176.2430  146.3150 P   0  0  0  0  0  0  0  0  0  0  0  0
  189.3290  174.9200  146.2660 O   0  0  0  0  0  1  0  0  0  0  0  0
  193.4130  177.1470  145.2850 O   0  0  0  0  0  0  0  0  0  0  0  0
  193.0350  175.9450  145.3500 C   0  0  0  0  0  0  0  0  0  0  0  0
  193.5960  173.5310  145.7540 N   0  0  0  0  0  1  0  0  0  0  0  0
  193.9840  174.9020  145.7620 C   0  0  0  0  0  0  0  0  0  0  0  0
  195.1490  175.2140  146.1230 O   0  0  0  0  0  0  0  0  0  0  0  0
  1  2  2  0  0  0  0
  1  8  1  0  0  0  0
  2 17  1  0  0  0  0
  3  5  1  0  0  0  0
  4  5  2  0  0  0  0
  5  6  1  0  0  0  0
  5  1  1  0  0  0  0
  7  8  2  0  0  0  0
  8  9  1  0  0  0  0
  9 10  1  0  0  0  0
 10 12  1  0  0  0  0
 11 13  2  0  0  0  0
 12 14  2  0  0  0  0
 13 16  1  0  0  0  0
 13 14  1  0  0  0  0
 15 11  1  0  0  0  0
 15 10  2  0  0  0  0
 18 17  1  6  0  0  0
 18 23  1  0  0  0  0
 18 20  1  0  0  0  0
 20 19  1  0  0  0  0
 21 20  1  0  0  0  0
 22 23  2  0  0  0  0
 23 25  1  0  0  0  0
 24 25  1  0  0  0  0
 25 26  2  0  0  0  0
M  END
>  <MODEL>
9

>  <REMARK>
 VINA RESULT:      -5.7      1.272      1.842
  Name = 
  8 active torsions:
  status: ('A' for Active; 'I' for Inactive)
    1  A    between atoms: C_2  and  C_15
    2  A    between atoms: C_3  and  N_5
    3  A    between atoms: C_11  and  P_12
    4  A    between atoms: C_11  and  O_19
    5  A    between atoms: C_11  and  C_26
    6  A    between atoms: C_15  and  P_17
    7  A    between atoms: O_19  and  N_21
    8  A    between atoms: C_24  and  C_26
                            x       y       z     vdW  Elec       q    Type
                         _______ _______ _______ _____ _____    ______ ____

>  <TORSDO>
F 8

$$$$
