=
 OpenBabel11062420463D

 45 50  0  0  1  0  0  0  0  0999 V2000
  192.4050  173.7490  144.2050 C   0  0  0  0  0  2  0  0  0  0  0  0
  189.8310  174.2910  145.2650 C   0  0  0  0  0  0  0  0  0  0  0  0
  191.2310  176.7860  148.0360 C   0  0  0  0  0  2  0  0  0  0  0  0
  189.5190  176.2450  146.6700 C   0  0  2  0  0  3  0  0  0  0  0  0
  194.1100  174.6590  145.7380 O   0  0  0  0  0  1  0  0  0  0  0  0
  190.3970  172.1710  144.1710 C   0  0  1  0  0  3  0  0  0  0  0  0
  190.2470  177.3310  147.1970 O   0  0  0  0  0  0  0  0  0  0  0  0
  192.3740  176.2360  147.1870 C   0  0  0  0  0  2  0  0  0  0  0  0
  190.3850  175.3230  145.8400 C   0  0  0  0  0  0  0  0  0  0  0  0
  191.8470  172.3990  144.6550 C   0  0  0  0  0  2  0  0  0  0  0  0
  191.8600  175.3260  146.0980 C   0  0  0  0  0  0  0  0  0  0  0  0
  189.4170  173.2110  144.6640 C   0  0  0  0  0  3  0  0  0  0  0  0
  192.7640  174.6080  145.3860 C   0  0  0  0  0  0  0  0  0  0  0  0
  190.5870  170.6700  142.2280 O   0  0  0  0  0  0  0  0  0  0  0  0
  190.3140  171.9990  142.6420 C   0  0  2  0  0  3  0  0  0  0  0  0
  191.1380  173.0630  141.8820 C   0  0  1  0  0  3  0  0  0  0  0  0
  191.9970  172.4420  140.7640 C   0  0  2  0  0  3  0  0  0  0  0  0
  192.7160  171.1570  141.2120 C   0  0  0  0  0  2  0  0  0  0  0  0
  191.9710  170.4490  142.3400 C   0  0  0  0  0  2  0  0  0  0  0  0
  193.9020  174.0760  141.1960 C   0  0  0  0  0  2  0  0  0  0  0  0
  195.2600  173.2800  139.3670 C   0  0  1  0  0  3  0  0  0  0  0  0
  192.9730  173.4600  140.1570 C   0  0  1  0  0  3  0  0  0  0  0  0
  193.8440  172.8230  139.0870 C   0  0  0  0  0  2  0  0  0  0  0  0
  195.3030  173.6160  140.8410 C   0  0  1  0  0  3  0  0  0  0  0  0
  196.1520  172.2450  139.0880 O   0  0  0  0  0  1  0  0  0  0  0  0
  196.3110  174.7230  141.0980 C   0  0  0  0  0  2  0  0  0  0  0  0
  195.4550  176.3000  141.3870 S   0  0  0  0  0  0  0  0  0  0  0  0
  197.1460  177.0830  143.2410 O   0  0  0  0  0  1  0  0  0  0  0  0
  195.9750  176.3350  143.1240 C   0  0  0  0  0  2  0  0  0  0  0  0
  190.1810  174.1000  141.3140 C   0  0  0  0  0  2  0  0  0  0  0  0
  188.8970  173.5650  141.2120 O   0  0  0  0  0  1  0  0  0  0  0  0
  188.2610  176.7310  145.9130 C   0  0  2  0  0  3  0  0  0  0  0  0
  188.3260  176.8530  143.3630 C   0  0  0  0  0  2  0  0  0  0  0  0
  188.6210  177.5750  144.6640 C   0  0  2  0  0  3  0  0  0  0  0  0
  189.2650  177.4450  142.3310 C   0  0  1  0  0  3  0  0  0  0  0  0
  188.6000  178.4420  141.6180 O   0  0  0  0  0  1  0  0  0  0  0  0
  190.1020  177.8920  144.5770 C   0  0  0  0  0  2  0  0  0  0  0  0
  190.4150  178.0650  143.1020 C   0  0  0  0  0  2  0  0  0  0  0  0
  186.6030  178.6260  146.1610 C   0  0  0  0  0  2  0  0  0  0  0  0
  187.3240  177.4920  146.8790 C   0  0  1  0  0  3  0  0  0  0  0  0
  185.1920  178.1300  145.8620 C   0  0  2  0  0  3  0  0  0  0  0  0
  185.0630  176.7220  146.4180 C   0  0  0  0  0  2  0  0  0  0  0  0
  186.2020  176.5980  147.4050 C   0  0  0  0  0  2  0  0  0  0  0  0
  185.4260  179.3790  143.9390 C   0  0  0  0  0  1  0  0  0  0  0  0
  184.8180  178.2430  144.5020 O   0  0  0  0  0  0  0  0  0  0  0  0
  1 10  1  0  0  0  0
  1 13  1  0  0  0  0
  2  9  2  0  0  0  0
  4 32  1  6  0  0  0
  4  7  1  0  0  0  0
  6 10  1  6  0  0  0
  6 12  1  0  0  0  0
  7  3  1  0  0  0  0
  8  3  1  0  0  0  0
  9 11  1  0  0  0  0
  9  4  1  0  0  0  0
 11  8  1  0  0  0  0
 12  2  2  0  0  0  0
 13  5  1  0  0  0  0
 13 11  2  0  0  0  0
 14 19  1  0  0  0  0
 15 14  1  1  0  0  0
 15  6  1  0  0  0  0
 16 30  1  6  0  0  0
 16 15  1  0  0  0  0
 17 18  1  1  0  0  0
 17 16  1  0  0  0  0
 18 19  1  0  0  0  0
 21 25  1  1  0  0  0
 21 24  1  0  0  0  0
 22 23  1  6  0  0  0
 22 17  1  0  0  0  0
 22 20  1  0  0  0  0
 23 21  1  0  0  0  0
 24 26  1  6  0  0  0
 24 20  1  0  0  0  0
 26 27  1  0  0  0  0
 27 29  1  0  0  0  0
 29 28  1  0  0  0  0
 31 30  1  0  0  0  0
 32 34  1  6  0  0  0
 34 33  1  6  0  0  0
 35 36  1  1  0  0  0
 35 38  1  0  0  0  0
 35 33  1  0  0  0  0
 37 34  1  0  0  0  0
 38 37  1  0  0  0  0
 39 40  1  0  0  0  0
 40 32  1  6  0  0  0
 40 43  1  0  0  0  0
 41 45  1  6  0  0  0
 41 39  1  0  0  0  0
 41 42  1  0  0  0  0
 42 43  1  0  0  0  0
 44 45  1  0  0  0  0
M  END
>  <MODEL>
1

>  <REMARK>
 VINA RESULT:      -7.9      0.000      0.000
  Name = 
  10 active torsions:
  status: ('A' for Active; 'I' for Inactive)
    1  A    between atoms: C_2  and  C_3
    2  A    between atoms: C_3  and  C_7
    3  A    between atoms: C_3  and  C_17
    4  A    between atoms: C_6  and  C_29
    5  A    between atoms: C_10  and  O_45
    6  A    between atoms: C_19  and  C_22
    7  A    between atoms: C_24  and  S_35
    8  A    between atoms: C_31  and  C_32
    9  A    between atoms: C_34  and  S_35
   10  A    between atoms: C_34  and  C_42
                            x       y       z     vdW  Elec       q    Type
                         _______ _______ _______ _____ _____    ______ ____

>  <TORSDO>
F 10

$$$$
=
 OpenBabel11062420463D

 45 50  0  0  1  0  0  0  0  0999 V2000
  193.4700  176.1410  144.5590 C   0  0  0  0  0  2  0  0  0  0  0  0
  193.6520  173.6020  143.3110 C   0  0  0  0  0  0  0  0  0  0  0  0
  197.6350  173.6350  143.2730 C   0  0  0  0  0  2  0  0  0  0  0  0
  195.7550  172.3930  143.3910 C   0  0  2  0  0  3  0  0  0  0  0  0
  195.6970  177.2020  144.5430 O   0  0  0  0  0  1  0  0  0  0  0  0
  191.7460  175.1080  142.9840 C   0  0  1  0  0  3  0  0  0  0  0  0
  197.0620  172.5210  143.9050 O   0  0  0  0  0  0  0  0  0  0  0  0
  197.0970  174.9130  143.9120 C   0  0  0  0  0  2  0  0  0  0  0  0
  194.8980  173.6000  143.7010 C   0  0  0  0  0  0  0  0  0  0  0  0
  192.7270  176.2760  143.2300 C   0  0  0  0  0  2  0  0  0  0  0  0
  195.5890  174.8990  143.9810 C   0  0  0  0  0  0  0  0  0  0  0  0
  192.4060  173.7490  142.9540 C   0  0  0  0  0  3  0  0  0  0  0  0
  194.9540  176.0420  144.3430 C   0  0  0  0  0  0  0  0  0  0  0  0
  189.7440  173.9740  143.8610 O   0  0  0  0  0  0  0  0  0  0  0  0
  190.5530  175.1330  143.9600 C   0  0  2  0  0  3  0  0  0  0  0  0
  189.7530  176.4530  143.8790 C   0  0  1  0  0  3  0  0  0  0  0  0
  188.2330  176.2070  143.8170 C   0  0  2  0  0  3  0  0  0  0  0  0
  187.8550  175.0720  142.8480 C   0  0  0  0  0  2  0  0  0  0  0  0
  188.9870  174.0630  142.6790 C   0  0  0  0  0  2  0  0  0  0  0  0
  186.2620  177.2620  142.5990 C   0  0  0  0  0  2  0  0  0  0  0  0
  185.4850  178.4980  144.5210 C   0  0  1  0  0  3  0  0  0  0  0  0
  187.4540  177.4950  143.5190 C   0  0  1  0  0  3  0  0  0  0  0  0
  186.9280  178.1330  144.7940 C   0  0  0  0  0  2  0  0  0  0  0  0
  185.0240  177.5690  143.4200 C   0  0  1  0  0  3  0  0  0  0  0  0
  184.7210  178.2920  145.6700 O   0  0  0  0  0  1  0  0  0  0  0  0
  183.9700  178.2500  142.5640 C   0  0  0  0  0  2  0  0  0  0  0  0
  184.5000  178.2940  140.8270 S   0  0  0  0  0  0  0  0  0  0  0  0
  181.9330  177.9980  141.3100 O   0  0  0  0  0  1  0  0  0  0  0  0
  182.8260  177.9180  140.2420 C   0  0  0  0  0  2  0  0  0  0  0  0
  190.1110  177.3110  145.0830 C   0  0  0  0  0  2  0  0  0  0  0  0
  190.3010  176.5060  146.2070 O   0  0  0  0  0  1  0  0  0  0  0  0
  195.1070  171.0630  143.8410 C   0  0  2  0  0  3  0  0  0  0  0  0
  196.5090  169.2010  144.8840 C   0  0  0  0  0  2  0  0  0  0  0  0
  195.7620  170.4980  145.1260 C   0  0  2  0  0  3  0  0  0  0  0  0
  196.5190  168.4680  146.2100 C   0  0  1  0  0  3  0  0  0  0  0  0
  197.7210  168.7240  146.8710 O   0  0  0  0  0  1  0  0  0  0  0  0
  194.7450  170.1400  146.1940 C   0  0  0  0  0  2  0  0  0  0  0  0
  195.3710  169.0340  147.0240 C   0  0  0  0  0  2  0  0  0  0  0  0
  193.8190  169.2720  142.6010 C   0  0  0  0  0  2  0  0  0  0  0  0
  195.1310  170.0430  142.6790 C   0  0  1  0  0  3  0  0  0  0  0  0
  193.0090  169.8980  141.4700 C   0  0  2  0  0  3  0  0  0  0  0  0
  193.8380  171.0160  140.8630 C   0  0  0  0  0  2  0  0  0  0  0  0
  195.2510  170.7320  141.3210 C   0  0  0  0  0  2  0  0  0  0  0  0
  190.7870  169.2840  141.5170 C   0  0  0  0  0  1  0  0  0  0  0  0
  191.7040  170.2970  141.8490 O   0  0  0  0  0  0  0  0  0  0  0  0
  2  9  2  0  0  0  0
  3  7  1  0  0  0  0
  3  8  1  0  0  0  0
  4  9  1  0  0  0  0
  4 32  1  1  0  0  0
  4  7  1  0  0  0  0
  6 12  1  1  0  0  0
  6 10  1  0  0  0  0
  6 15  1  0  0  0  0
  8 11  1  0  0  0  0
  9 11  1  0  0  0  0
 10  1  1  0  0  0  0
 11 13  2  0  0  0  0
 12  2  2  0  0  0  0
 13  5  1  0  0  0  0
 13  1  1  0  0  0  0
 15 14  1  6  0  0  0
 16 15  1  0  0  0  0
 16 30  1  1  0  0  0
 17 18  1  6  0  0  0
 17 16  1  0  0  0  0
 19 18  1  0  0  0  0
 19 14  1  0  0  0  0
 20 24  1  0  0  0  0
 21 23  1  0  0  0  0
 21 25  1  1  0  0  0
 22 20  1  6  0  0  0
 22 17  1  0  0  0  0
 22 23  1  0  0  0  0
 24 26  1  6  0  0  0
 24 21  1  0  0  0  0
 27 26  1  0  0  0  0
 29 27  1  0  0  0  0
 29 28  1  0  0  0  0
 30 31  1  0  0  0  0
 32 40  1  6  0  0  0
 33 34  1  0  0  0  0
 33 35  1  0  0  0  0
 34 32  1  6  0  0  0
 34 37  1  0  0  0  0
 35 36  1  1  0  0  0
 35 38  1  0  0  0  0
 37 38  1  0  0  0  0
 39 40  1  0  0  0  0
 40 43  1  6  0  0  0
 41 45  1  1  0  0  0
 41 39  1  0  0  0  0
 42 43  1  0  0  0  0
 42 41  1  0  0  0  0
 44 45  1  0  0  0  0
M  END
>  <MODEL>
2

>  <REMARK>
 VINA RESULT:      -7.7      3.343      9.286
  Name = 
  10 active torsions:
  status: ('A' for Active; 'I' for Inactive)
    1  A    between atoms: C_2  and  C_3
    2  A    between atoms: C_3  and  C_7
    3  A    between atoms: C_3  and  C_17
    4  A    between atoms: C_6  and  C_29
    5  A    between atoms: C_10  and  O_45
    6  A    between atoms: C_19  and  C_22
    7  A    between atoms: C_24  and  S_35
    8  A    between atoms: C_31  and  C_32
    9  A    between atoms: C_34  and  S_35
   10  A    between atoms: C_34  and  C_42
                            x       y       z     vdW  Elec       q    Type
                         _______ _______ _______ _____ _____    ______ ____

>  <TORSDO>
F 10

$$$$
=
 OpenBabel11062420463D

 45 50  0  0  1  0  0  0  0  0999 V2000
  189.8510  174.8240  142.8180 C   0  0  0  0  0  2  0  0  0  0  0  0
  192.2850  173.4290  143.2290 C   0  0  0  0  0  0  0  0  0  0  0  0
  192.4520  172.1220  139.4700 C   0  0  0  0  0  2  0  0  0  0  0  0
  193.6020  172.7580  141.3040 C   0  0  2  0  0  3  0  0  0  0  0  0
  188.9070  174.1630  140.6370 O   0  0  0  0  0  1  0  0  0  0  0  0
  190.6620  173.8230  145.0230 C   0  0  1  0  0  3  0  0  0  0  0  0
  193.5840  172.8340  139.8960 O   0  0  0  0  0  0  0  0  0  0  0  0
  191.2060  172.9770  139.6820 C   0  0  0  0  0  2  0  0  0  0  0  0
  192.3830  173.4000  141.9270 C   0  0  0  0  0  0  0  0  0  0  0  0
  189.5690  173.8130  143.9290 C   0  0  0  0  0  2  0  0  0  0  0  0
  191.1480  173.5230  141.0880 C   0  0  0  0  0  0  0  0  0  0  0  0
  192.0460  173.4990  144.5080 C   0  0  0  0  0  3  0  0  0  0  0  0
  190.0080  174.1390  141.4890 C   0  0  0  0  0  0  0  0  0  0  0  0
  190.3230  174.9160  147.2030 O   0  0  0  0  0  0  0  0  0  0  0  0
  190.6560  175.1280  145.8410 C   0  0  2  0  0  3  0  0  0  0  0  0
  189.8210  176.2420  145.1690 C   0  0  1  0  0  3  0  0  0  0  0  0
  188.8840  176.9480  146.1680 C   0  0  2  0  0  3  0  0  0  0  0  0
  188.1560  175.9610  147.0980 C   0  0  0  0  0  2  0  0  0  0  0  0
  188.9410  174.6660  147.2860 C   0  0  0  0  0  2  0  0  0  0  0  0
  187.3550  177.3200  144.1670 C   0  0  0  0  0  2  0  0  0  0  0  0
  185.4860  178.0830  145.4890 C   0  0  1  0  0  3  0  0  0  0  0  0
  187.9050  177.8980  145.4650 C   0  0  1  0  0  3  0  0  0  0  0  0
  186.7190  178.2300  146.3550 C   0  0  0  0  0  2  0  0  0  0  0  0
  185.8670  177.1220  144.3850 C   0  0  1  0  0  3  0  0  0  0  0  0
  184.4410  177.5520  146.2450 O   0  0  0  0  0  1  0  0  0  0  0  0
  185.0920  177.4430  143.1190 C   0  0  0  0  0  2  0  0  0  0  0  0
  185.9940  178.6660  142.1220 S   0  0  0  0  0  0  0  0  0  0  0  0
  183.9180  178.5630  140.5120 O   0  0  0  0  0  1  0  0  0  0  0  0
  185.2240  178.0780  140.5900 C   0  0  0  0  0  2  0  0  0  0  0  0
  190.7740  177.2390  144.5260 C   0  0  0  0  0  2  0  0  0  0  0  0
  192.0750  177.0230  144.9810 O   0  0  0  0  0  1  0  0  0  0  0  0
  194.9300  173.3090  141.8750 C   0  0  2  0  0  3  0  0  0  0  0  0
  196.8480  173.7170  140.2390 C   0  0  0  0  0  2  0  0  0  0  0  0
  195.6170  174.3020  140.9030 C   0  0  2  0  0  3  0  0  0  0  0  0
  197.7310  174.8950  139.8790 C   0  0  1  0  0  3  0  0  0  0  0  0
  197.5090  175.2500  138.5480 O   0  0  0  0  0  1  0  0  0  0  0  0
  196.1360  175.5430  141.6050 C   0  0  0  0  0  2  0  0  0  0  0  0
  197.3070  176.0410  140.7780 C   0  0  0  0  0  2  0  0  0  0  0  0
  196.6740  172.4810  143.5100 C   0  0  0  0  0  2  0  0  0  0  0  0
  195.8620  172.1390  142.2670 C   0  0  1  0  0  3  0  0  0  0  0  0
  195.9990  171.7750  144.6830 C   0  0  2  0  0  3  0  0  0  0  0  0
  194.8110  171.0000  144.1410 C   0  0  0  0  0  2  0  0  0  0  0  0
  195.0740  170.8900  142.6560 C   0  0  0  0  0  2  0  0  0  0  0  0
  196.8170  173.3660  146.1370 C   0  0  0  0  0  1  0  0  0  0  0  0
  195.6770  172.6320  145.7620 O   0  0  0  0  0  0  0  0  0  0  0  0
  1 10  1  0  0  0  0
  2 12  2  0  0  0  0
  3  8  1  0  0  0  0
  3  7  1  0  0  0  0
  4 32  1  1  0  0  0
  4  9  1  0  0  0  0
  5 13  1  0  0  0  0
  6 10  1  6  0  0  0
  6 15  1  0  0  0  0
  7  4  1  0  0  0  0
  8 11  1  0  0  0  0
  9  2  2  0  0  0  0
 11 13  2  0  0  0  0
 11  9  1  0  0  0  0
 12  6  1  0  0  0  0
 13  1  1  0  0  0  0
 14 19  1  0  0  0  0
 15 14  1  1  0  0  0
 16 30  1  1  0  0  0
 16 15  1  0  0  0  0
 16 17  1  0  0  0  0
 17 18  1  6  0  0  0
 18 19  1  0  0  0  0
 20 24  1  0  0  0  0
 21 25  1  1  0  0  0
 21 23  1  0  0  0  0
 22 20  1  6  0  0  0
 22 17  1  0  0  0  0
 22 23  1  0  0  0  0
 24 26  1  6  0  0  0
 24 21  1  0  0  0  0
 27 26  1  0  0  0  0
 28 29  1  0  0  0  0
 29 27  1  0  0  0  0
 30 31  1  0  0  0  0
 32 34  1  6  0  0  0
 34 33  1  1  0  0  0
 34 37  1  0  0  0  0
 35 36  1  6  0  0  0
 35 33  1  0  0  0  0
 35 38  1  0  0  0  0
 38 37  1  0  0  0  0
 39 41  1  0  0  0  0
 40 32  1  1  0  0  0
 40 43  1  0  0  0  0
 40 39  1  0  0  0  0
 41 45  1  1  0  0  0
 42 41  1  0  0  0  0
 43 42  1  0  0  0  0
 45 44  1  0  0  0  0
M  END
>  <MODEL>
3

>  <REMARK>
 VINA RESULT:      -7.7      2.513      9.005
  Name = 
  10 active torsions:
  status: ('A' for Active; 'I' for Inactive)
    1  A    between atoms: C_2  and  C_3
    2  A    between atoms: C_3  and  C_7
    3  A    between atoms: C_3  and  C_17
    4  A    between atoms: C_6  and  C_29
    5  A    between atoms: C_10  and  O_45
    6  A    between atoms: C_19  and  C_22
    7  A    between atoms: C_24  and  S_35
    8  A    between atoms: C_31  and  C_32
    9  A    between atoms: C_34  and  S_35
   10  A    between atoms: C_34  and  C_42
                            x       y       z     vdW  Elec       q    Type
                         _______ _______ _______ _____ _____    ______ ____

>  <TORSDO>
F 10

$$$$
=
 OpenBabel11062420463D

 45 50  0  0  1  0  0  0  0  0999 V2000
  188.7150  173.5110  140.2260 C   0  0  0  0  0  2  0  0  0  0  0  0
  189.4880  175.2620  142.3190 C   0  0  0  0  0  0  0  0  0  0  0  0
  187.2230  178.2530  140.9800 C   0  0  0  0  0  2  0  0  0  0  0  0
  188.1430  177.2310  142.7690 C   0  0  2  0  0  3  0  0  0  0  0  0
  187.5020  174.8010  138.5090 O   0  0  0  0  0  1  0  0  0  0  0  0
  190.9370  173.4680  141.4850 C   0  0  1  0  0  3  0  0  0  0  0  0
  186.9780  177.8780  142.3100 O   0  0  0  0  0  0  0  0  0  0  0  0
  187.0830  177.0310  140.0750 C   0  0  0  0  0  2  0  0  0  0  0  0
  188.4520  175.9790  141.9790 C   0  0  0  0  0  0  0  0  0  0  0  0
  190.2350  173.6420  140.1190 C   0  0  0  0  0  2  0  0  0  0  0  0
  187.8960  175.8690  140.5920 C   0  0  0  0  0  0  0  0  0  0  0  0
  190.5050  174.4740  142.5280 C   0  0  0  0  0  3  0  0  0  0  0  0
  188.0300  174.7780  139.7970 C   0  0  0  0  0  0  0  0  0  0  0  0
  190.0300  171.9320  143.1820 O   0  0  0  0  0  0  0  0  0  0  0  0
  190.8310  172.0250  142.0160 C   0  0  2  0  0  3  0  0  0  0  0  0
  192.2120  171.3470  142.1590 C   0  0  1  0  0  3  0  0  0  0  0  0
  192.3650  170.6230  143.5110 C   0  0  2  0  0  3  0  0  0  0  0  0
  191.8440  171.4590  144.6940 C   0  0  0  0  0  2  0  0  0  0  0  0
  190.7640  172.4480  144.2640 C   0  0  0  0  0  2  0  0  0  0  0  0
  194.7360  171.2580  144.1860 C   0  0  0  0  0  2  0  0  0  0  0  0
  194.9970  169.4220  145.7300 C   0  0  1  0  0  3  0  0  0  0  0  0
  193.8030  170.1380  143.7440 C   0  0  1  0  0  3  0  0  0  0  0  0
  193.8560  169.0530  144.8070 C   0  0  0  0  0  2  0  0  0  0  0  0
  195.1690  170.9190  145.6000 C   0  0  1  0  0  3  0  0  0  0  0  0
  194.6650  169.0930  147.0440 O   0  0  0  0  0  1  0  0  0  0  0  0
  196.6220  171.3030  145.8220 C   0  0  0  0  0  2  0  0  0  0  0  0
  197.1470  172.5220  144.5820 S   0  0  0  0  0  0  0  0  0  0  0  0
  195.8960  174.4230  145.8970 O   0  0  0  0  0  1  0  0  0  0  0  0
  197.1660  173.8560  145.8090 C   0  0  0  0  0  2  0  0  0  0  0  0
  192.3960  170.3750  141.0030 C   0  0  0  0  0  2  0  0  0  0  0  0
  191.1560  170.0070  140.4820 O   0  0  0  0  0  1  0  0  0  0  0  0
  188.0780  176.9800  144.2930 C   0  0  2  0  0  3  0  0  0  0  0  0
  186.2900  178.5580  145.2070 C   0  0  0  0  0  2  0  0  0  0  0  0
  186.6380  177.1260  144.8490 C   0  0  2  0  0  3  0  0  0  0  0  0
  185.2160  178.4760  146.2720 C   0  0  1  0  0  3  0  0  0  0  0  0
  183.9610  178.6020  145.6760 O   0  0  0  0  0  1  0  0  0  0  0  0
  186.4300  176.3650  146.1450 C   0  0  0  0  0  2  0  0  0  0  0  0
  185.3350  177.0980  146.8970 C   0  0  0  0  0  2  0  0  0  0  0  0
  189.5350  177.2790  146.3390 C   0  0  0  0  0  2  0  0  0  0  0  0
  189.0810  177.9010  145.0250 C   0  0  1  0  0  3  0  0  0  0  0  0
  190.9180  176.6860  146.0880 C   0  0  2  0  0  3  0  0  0  0  0  0
  191.2960  176.9720  144.6460 C   0  0  0  0  0  2  0  0  0  0  0  0
  190.3680  178.0890  144.2250 C   0  0  0  0  0  2  0  0  0  0  0  0
  189.8100  174.8680  146.9730 C   0  0  0  0  0  1  0  0  0  0  0  0
  191.0330  175.3220  146.4490 O   0  0  0  0  0  0  0  0  0  0  0  0
  2 12  2  0  0  0  0
  3  7  1  0  0  0  0
  4 32  1  1  0  0  0
  5 13  1  0  0  0  0
  6 10  1  6  0  0  0
  6 15  1  0  0  0  0
  6 12  1  0  0  0  0
  7  4  1  0  0  0  0
  8 11  1  0  0  0  0
  8  3  1  0  0  0  0
  9  2  2  0  0  0  0
  9  4  1  0  0  0  0
 10  1  1  0  0  0  0
 11  9  1  0  0  0  0
 13  1  1  0  0  0  0
 13 11  2  0  0  0  0
 14 19  1  0  0  0  0
 15 16  1  0  0  0  0
 15 14  1  1  0  0  0
 16 30  1  6  0  0  0
 16 17  1  0  0  0  0
 17 22  1  0  0  0  0
 17 18  1  1  0  0  0
 19 18  1  0  0  0  0
 20 24  1  0  0  0  0
 21 25  1  1  0  0  0
 22 20  1  1  0  0  0
 22 23  1  0  0  0  0
 23 21  1  0  0  0  0
 24 21  1  0  0  0  0
 24 26  1  6  0  0  0
 27 29  1  0  0  0  0
 27 26  1  0  0  0  0
 29 28  1  0  0  0  0
 31 30  1  0  0  0  0
 32 34  1  1  0  0  0
 33 35  1  0  0  0  0
 34 33  1  1  0  0  0
 34 37  1  0  0  0  0
 35 36  1  6  0  0  0
 35 38  1  0  0  0  0
 37 38  1  0  0  0  0
 40 32  1  6  0  0  0
 40 39  1  0  0  0  0
 41 39  1  0  0  0  0
 41 45  1  6  0  0  0
 42 41  1  0  0  0  0
 43 42  1  0  0  0  0
 43 40  1  0  0  0  0
 45 44  1  0  0  0  0
M  END
>  <MODEL>
4

>  <REMARK>
 VINA RESULT:      -7.5      2.400      5.347
  Name = 
  10 active torsions:
  status: ('A' for Active; 'I' for Inactive)
    1  A    between atoms: C_2  and  C_3
    2  A    between atoms: C_3  and  C_7
    3  A    between atoms: C_3  and  C_17
    4  A    between atoms: C_6  and  C_29
    5  A    between atoms: C_10  and  O_45
    6  A    between atoms: C_19  and  C_22
    7  A    between atoms: C_24  and  S_35
    8  A    between atoms: C_31  and  C_32
    9  A    between atoms: C_34  and  S_35
   10  A    between atoms: C_34  and  C_42
                            x       y       z     vdW  Elec       q    Type
                         _______ _______ _______ _____ _____    ______ ____

>  <TORSDO>
F 10

$$$$
=
 OpenBabel11062420463D

 45 50  0  0  1  0  0  0  0  0999 V2000
  188.9500  173.1810  140.7790 C   0  0  0  0  0  2  0  0  0  0  0  0
  189.5080  175.1080  142.7840 C   0  0  0  0  0  0  0  0  0  0  0  0
  187.3990  177.9600  140.9710 C   0  0  0  0  0  2  0  0  0  0  0  0
  188.1280  177.0990  142.9250 C   0  0  2  0  0  3  0  0  0  0  0  0
  187.9230  174.3130  138.8440 O   0  0  0  0  0  1  0  0  0  0  0  0
  191.0300  173.2600  142.2580 C   0  0  1  0  0  3  0  0  0  0  0  0
  187.0170  177.6980  142.2950 O   0  0  0  0  0  0  0  0  0  0  0  0
  187.3500  176.6650  140.1630 C   0  0  0  0  0  2  0  0  0  0  0  0
  188.5130  175.7870  142.2800 C   0  0  0  0  0  0  0  0  0  0  0  0
  190.4730  173.3130  140.8180 C   0  0  0  0  0  2  0  0  0  0  0  0
  188.1030  175.5570  140.8580 C   0  0  0  0  0  0  0  0  0  0  0  0
  190.4960  174.3470  143.1630 C   0  0  0  0  0  3  0  0  0  0  0  0
  188.3160  174.4030  140.1760 C   0  0  0  0  0  0  0  0  0  0  0  0
  191.0410  171.8870  144.3020 O   0  0  0  0  0  0  0  0  0  0  0  0
  190.8670  171.8660  142.8950 C   0  0  2  0  0  3  0  0  0  0  0  0
  191.7170  170.7900  142.1840 C   0  0  1  0  0  3  0  0  0  0  0  0
  192.4860  169.9040  143.1840 C   0  0  2  0  0  3  0  0  0  0  0  0
  193.1470  170.7170  144.3110 C   0  0  0  0  0  2  0  0  0  0  0  0
  192.4130  172.0290  144.5750 C   0  0  0  0  0  2  0  0  0  0  0  0
  194.4870  169.7500  141.6170 C   0  0  0  0  0  2  0  0  0  0  0  0
  195.7380  168.2600  143.0450 C   0  0  1  0  0  3  0  0  0  0  0  0
  193.4920  168.9830  142.4790 C   0  0  1  0  0  3  0  0  0  0  0  0
  194.2920  168.1660  143.4810 C   0  0  0  0  0  2  0  0  0  0  0  0
  195.8500  169.5420  142.2520 C   0  0  1  0  0  3  0  0  0  0  0  0
  196.5650  168.3190  144.1670 O   0  0  0  0  0  1  0  0  0  0  0  0
  196.9220  169.4080  141.1840 C   0  0  0  0  0  2  0  0  0  0  0  0
  196.4320  168.1670  139.9510 S   0  0  0  0  0  0  0  0  0  0  0  0
  197.5680  170.3290  138.9770 O   0  0  0  0  0  1  0  0  0  0  0  0
  196.6670  169.3390  138.5870 C   0  0  0  0  0  2  0  0  0  0  0  0
  190.7990  169.9460  141.3120 C   0  0  0  0  0  2  0  0  0  0  0  0
  191.1950  170.0290  139.9770 O   0  0  0  0  0  1  0  0  0  0  0  0
  187.9050  176.9770  144.4510 C   0  0  2  0  0  3  0  0  0  0  0  0
  186.1370  178.6580  145.2060 C   0  0  0  0  0  2  0  0  0  0  0  0
  186.4250  177.2140  144.8460 C   0  0  2  0  0  3  0  0  0  0  0  0
  184.9460  178.6290  146.1420 C   0  0  1  0  0  3  0  0  0  0  0  0
  183.7780  178.8570  145.4130 O   0  0  0  0  0  1  0  0  0  0  0  0
  186.0200  176.4410  146.0880 C   0  0  0  0  0  2  0  0  0  0  0  0
  184.9000  177.2330  146.7350 C   0  0  0  0  0  2  0  0  0  0  0  0
  189.2580  177.3450  146.5560 C   0  0  0  0  0  2  0  0  0  0  0  0
  188.8680  177.9250  145.2030 C   0  0  1  0  0  3  0  0  0  0  0  0
  190.6540  176.7510  146.3920 C   0  0  2  0  0  3  0  0  0  0  0  0
  191.1020  176.9960  144.9620 C   0  0  0  0  0  2  0  0  0  0  0  0
  190.1920  178.0950  144.4620 C   0  0  0  0  0  2  0  0  0  0  0  0
  189.4790  174.9080  147.1260 C   0  0  0  0  0  1  0  0  0  0  0  0
  190.7560  175.3990  146.7980 O   0  0  0  0  0  0  0  0  0  0  0  0
  1 10  1  0  0  0  0
  2 12  2  0  0  0  0
  3  7  1  0  0  0  0
  4 32  1  1  0  0  0
  5 13  1  0  0  0  0
  6 10  1  6  0  0  0
  6 15  1  0  0  0  0
  6 12  1  0  0  0  0
  7  4  1  0  0  0  0
  8 11  1  0  0  0  0
  8  3  1  0  0  0  0
  9  2  2  0  0  0  0
  9  4  1  0  0  0  0
 11  9  1  0  0  0  0
 13  1  1  0  0  0  0
 13 11  2  0  0  0  0
 14 19  1  0  0  0  0
 15 14  1  1  0  0  0
 16 30  1  1  0  0  0
 16 15  1  0  0  0  0
 16 17  1  0  0  0  0
 17 18  1  1  0  0  0
 18 19  1  0  0  0  0
 20 24  1  0  0  0  0
 21 23  1  0  0  0  0
 21 25  1  1  0  0  0
 22 20  1  1  0  0  0
 22 17  1  0  0  0  0
 22 23  1  0  0  0  0
 24 26  1  6  0  0  0
 24 21  1  0  0  0  0
 27 26  1  0  0  0  0
 29 28  1  0  0  0  0
 29 27  1  0  0  0  0
 31 30  1  0  0  0  0
 32 34  1  6  0  0  0
 33 35  1  0  0  0  0
 34 33  1  1  0  0  0
 34 37  1  0  0  0  0
 35 36  1  6  0  0  0
 35 38  1  0  0  0  0
 37 38  1  0  0  0  0
 40 32  1  6  0  0  0
 40 39  1  0  0  0  0
 41 39  1  0  0  0  0
 41 45  1  6  0  0  0
 42 41  1  0  0  0  0
 43 42  1  0  0  0  0
 43 40  1  0  0  0  0
 45 44  1  0  0  0  0
M  END
>  <MODEL>
5

>  <REMARK>
 VINA RESULT:      -7.4      2.778      5.377
  Name = 
  10 active torsions:
  status: ('A' for Active; 'I' for Inactive)
    1  A    between atoms: C_2  and  C_3
    2  A    between atoms: C_3  and  C_7
    3  A    between atoms: C_3  and  C_17
    4  A    between atoms: C_6  and  C_29
    5  A    between atoms: C_10  and  O_45
    6  A    between atoms: C_19  and  C_22
    7  A    between atoms: C_24  and  S_35
    8  A    between atoms: C_31  and  C_32
    9  A    between atoms: C_34  and  S_35
   10  A    between atoms: C_34  and  C_42
                            x       y       z     vdW  Elec       q    Type
                         _______ _______ _______ _____ _____    ______ ____

>  <TORSDO>
F 10

$$$$
=
 OpenBabel11062420463D

 45 50  0  0  1  0  0  0  0  0999 V2000
  192.5210  173.8860  144.2000 C   0  0  0  0  0  2  0  0  0  0  0  0
  189.9280  174.2710  145.2820 C   0  0  0  0  0  0  0  0  0  0  0  0
  191.2030  176.8230  148.0630 C   0  0  0  0  0  2  0  0  0  0  0  0
  189.5150  176.1940  146.7050 C   0  0  2  0  0  3  0  0  0  0  0  0
  194.1820  174.8800  145.7280 O   0  0  0  0  0  1  0  0  0  0  0  0
  190.6070  172.1960  144.1680 C   0  0  1  0  0  3  0  0  0  0  0  0
  190.1840  177.3160  147.2350 O   0  0  0  0  0  0  0  0  0  0  0  0
  192.3700  176.3450  147.2010 C   0  0  0  0  0  2  0  0  0  0  0  0
  190.4260  175.3290  145.8620 C   0  0  0  0  0  0  0  0  0  0  0  0
  192.0450  172.5020  144.6440 C   0  0  0  0  0  2  0  0  0  0  0  0
  191.9010  175.4150  146.1100 C   0  0  0  0  0  0  0  0  0  0  0  0
  189.5720  173.1740  144.6760 C   0  0  0  0  0  3  0  0  0  0  0  0
  192.8390  174.7550  145.3850 C   0  0  0  0  0  0  0  0  0  0  0  0
  191.0200  170.7770  142.1980 O   0  0  0  0  0  0  0  0  0  0  0  0
  190.5220  172.0300  142.6380 C   0  0  2  0  0  3  0  0  0  0  0  0
  191.1240  173.2340  141.8800 C   0  0  1  0  0  3  0  0  0  0  0  0
  192.0560  172.7910  140.7350 C   0  0  2  0  0  3  0  0  0  0  0  0
  193.0040  171.6510  141.1490 C   0  0  0  0  0  2  0  0  0  0  0  0
  192.4230  170.8070  142.2800 C   0  0  0  0  0  2  0  0  0  0  0  0
  194.2600  174.0600  140.6160 C   0  0  0  0  0  2  0  0  0  0  0  0
  194.2890  174.1730  138.2060 C   0  0  1  0  0  3  0  0  0  0  0  0
  192.8200  173.9750  140.1260 C   0  0  1  0  0  3  0  0  0  0  0  0
  192.8590  173.8880  138.6090 C   0  0  0  0  0  2  0  0  0  0  0  0
  195.1380  173.8120  139.4040 C   0  0  1  0  0  3  0  0  0  0  0  0
  194.6390  173.3760  137.1150 O   0  0  0  0  0  1  0  0  0  0  0  0
  196.3780  174.6880  139.4530 C   0  0  0  0  0  2  0  0  0  0  0  0
  197.7500  173.8870  138.5710 S   0  0  0  0  0  0  0  0  0  0  0  0
  197.4350  174.9700  136.1960 O   0  0  0  0  0  1  0  0  0  0  0  0
  197.9410  175.3010  137.4530 C   0  0  0  0  0  2  0  0  0  0  0  0
  189.9850  174.0900  141.3470 C   0  0  0  0  0  2  0  0  0  0  0  0
  188.8110  173.3380  141.2790 O   0  0  0  0  0  1  0  0  0  0  0  0
  188.2260  176.6130  145.9610 C   0  0  2  0  0  3  0  0  0  0  0  0
  188.2630  176.7140  143.4090 C   0  0  0  0  0  2  0  0  0  0  0  0
  188.5280  177.4630  144.7000 C   0  0  2  0  0  3  0  0  0  0  0  0
  189.1600  177.3460  142.3640 C   0  0  1  0  0  3  0  0  0  0  0  0
  188.4350  178.2990  141.6470 O   0  0  0  0  0  1  0  0  0  0  0  0
  189.9890  177.8600  144.5980 C   0  0  0  0  0  2  0  0  0  0  0  0
  190.2800  178.0360  143.1190 C   0  0  0  0  0  2  0  0  0  0  0  0
  186.6850  178.5910  146.2960 C   0  0  0  0  0  2  0  0  0  0  0  0
  187.2650  177.3350  146.9330 C   0  0  1  0  0  3  0  0  0  0  0  0
  185.2730  178.2390  145.8370 C   0  0  2  0  0  3  0  0  0  0  0  0
  185.0040  176.7940  146.2190 C   0  0  0  0  0  2  0  0  0  0  0  0
  186.0460  176.4770  147.2680 C   0  0  0  0  0  2  0  0  0  0  0  0
  185.5540  179.7860  144.1520 C   0  0  0  0  0  1  0  0  0  0  0  0
  185.0220  178.5250  144.4740 O   0  0  0  0  0  0  0  0  0  0  0  0
  1 10  1  0  0  0  0
  1 13  1  0  0  0  0
  2  9  2  0  0  0  0
  4 32  1  6  0  0  0
  4  7  1  0  0  0  0
  6 10  1  6  0  0  0
  6 12  1  0  0  0  0
  7  3  1  0  0  0  0
  8  3  1  0  0  0  0
  9 11  1  0  0  0  0
  9  4  1  0  0  0  0
 11  8  1  0  0  0  0
 12  2  2  0  0  0  0
 13  5  1  0  0  0  0
 13 11  2  0  0  0  0
 14 19  1  0  0  0  0
 15 14  1  6  0  0  0
 15  6  1  0  0  0  0
 16 30  1  6  0  0  0
 16 15  1  0  0  0  0
 17 18  1  1  0  0  0
 17 16  1  0  0  0  0
 18 19  1  0  0  0  0
 21 25  1  6  0  0  0
 21 23  1  0  0  0  0
 21 24  1  0  0  0  0
 22 23  1  6  0  0  0
 22 20  1  0  0  0  0
 22 17  1  0  0  0  0
 24 26  1  1  0  0  0
 24 20  1  0  0  0  0
 27 26  1  0  0  0  0
 28 29  1  0  0  0  0
 29 27  1  0  0  0  0
 31 30  1  0  0  0  0
 32 34  1  6  0  0  0
 34 33  1  6  0  0  0
 35 36  1  1  0  0  0
 35 38  1  0  0  0  0
 35 33  1  0  0  0  0
 37 34  1  0  0  0  0
 38 37  1  0  0  0  0
 39 40  1  0  0  0  0
 40 32  1  6  0  0  0
 40 43  1  0  0  0  0
 41 45  1  6  0  0  0
 41 42  1  0  0  0  0
 41 39  1  0  0  0  0
 42 43  1  0  0  0  0
 44 45  1  0  0  0  0
M  END
>  <MODEL>
6

>  <REMARK>
 VINA RESULT:      -7.3      1.250      1.706
  Name = 
  10 active torsions:
  status: ('A' for Active; 'I' for Inactive)
    1  A    between atoms: C_2  and  C_3
    2  A    between atoms: C_3  and  C_7
    3  A    between atoms: C_3  and  C_17
    4  A    between atoms: C_6  and  C_29
    5  A    between atoms: C_10  and  O_45
    6  A    between atoms: C_19  and  C_22
    7  A    between atoms: C_24  and  S_35
    8  A    between atoms: C_31  and  C_32
    9  A    between atoms: C_34  and  S_35
   10  A    between atoms: C_34  and  C_42
                            x       y       z     vdW  Elec       q    Type
                         _______ _______ _______ _____ _____    ______ ____

>  <TORSDO>
F 10

$$$$
=
 OpenBabel11062420463D

 45 50  0  0  1  0  0  0  0  0999 V2000
  191.8480  176.2300  145.6910 C   0  0  0  0  0  2  0  0  0  0  0  0
  192.6310  174.6210  143.4910 C   0  0  0  0  0  0  0  0  0  0  0  0
  196.3900  174.2810  144.7660 C   0  0  0  0  0  2  0  0  0  0  0  0
  194.6800  173.3290  143.6420 C   0  0  2  0  0  3  0  0  0  0  0  0
  193.8640  176.9410  146.9210 O   0  0  0  0  0  1  0  0  0  0  0  0
  190.8250  176.2720  143.3510 C   0  0  1  0  0  3  0  0  0  0  0  0
  195.7310  173.0620  144.5430 O   0  0  0  0  0  0  0  0  0  0  0  0
  195.5710  175.1280  145.7380 C   0  0  0  0  0  2  0  0  0  0  0  0
  193.6760  174.3070  144.2090 C   0  0  0  0  0  0  0  0  0  0  0  0
  191.5750  177.0690  144.4430 C   0  0  0  0  0  2  0  0  0  0  0  0
  194.1310  175.2290  145.2980 C   0  0  0  0  0  0  0  0  0  0  0  0
  191.5650  175.0440  142.8720 C   0  0  0  0  0  3  0  0  0  0  0  0
  193.3240  176.1050  145.9470 C   0  0  0  0  0  0  0  0  0  0  0  0
  188.8300  174.8700  143.0060 O   0  0  0  0  0  0  0  0  0  0  0  0
  189.3800  175.9330  143.7670 C   0  0  2  0  0  3  0  0  0  0  0  0
  188.4740  177.1840  143.8240 C   0  0  1  0  0  3  0  0  0  0  0  0
  187.1200  176.9520  143.1260 C   0  0  2  0  0  3  0  0  0  0  0  0
  187.2650  176.2260  141.7760 C   0  0  0  0  0  2  0  0  0  0  0  0
  188.5200  175.3590  141.7250 C   0  0  0  0  0  2  0  0  0  0  0  0
  185.0130  178.0580  142.2200 C   0  0  0  0  0  2  0  0  0  0  0  0
  184.4890  179.1960  144.2820 C   0  0  1  0  0  3  0  0  0  0  0  0
  186.3130  178.2510  142.9920 C   0  0  1  0  0  3  0  0  0  0  0  0
  185.9540  178.8230  144.3530 C   0  0  0  0  0  2  0  0  0  0  0  0
  183.8900  178.3200  143.2050 C   0  0  1  0  0  3  0  0  0  0  0  0
  183.8760  178.9320  145.5080 O   0  0  0  0  0  1  0  0  0  0  0  0
  182.7370  179.0380  142.5240 C   0  0  0  0  0  2  0  0  0  0  0  0
  182.3900  178.2820  140.9090 S   0  0  0  0  0  0  0  0  0  0  0  0
  179.9030  178.0880  140.0800 O   0  0  0  0  0  1  0  0  0  0  0  0
  180.6780  178.8780  140.9280 C   0  0  0  0  0  2  0  0  0  0  0  0
  188.2700  177.5670  145.2820 C   0  0  0  0  0  2  0  0  0  0  0  0
  187.6050  176.5450  145.9590 O   0  0  0  0  0  1  0  0  0  0  0  0
  194.0280  172.0190  143.1410 C   0  0  2  0  0  3  0  0  0  0  0  0
  195.2030  169.8050  143.6300 C   0  0  0  0  0  2  0  0  0  0  0  0
  194.2270  170.8490  144.1370 C   0  0  2  0  0  3  0  0  0  0  0  0
  194.8250  168.5080  144.3150 C   0  0  1  0  0  3  0  0  0  0  0  0
  195.6300  168.3260  145.4400 O   0  0  0  0  0  1  0  0  0  0  0  0
  192.9510  170.0660  144.3840 C   0  0  0  0  0  2  0  0  0  0  0  0
  193.3810  168.6580  144.7530 C   0  0  0  0  0  2  0  0  0  0  0  0
  193.4200  171.1820  140.8320 C   0  0  0  0  0  2  0  0  0  0  0  0
  194.5500  171.6760  141.7270 C   0  0  1  0  0  3  0  0  0  0  0  0
  193.0260  172.3540  139.9380 C   0  0  2  0  0  3  0  0  0  0  0  0
  193.9280  173.5270  140.2780 C   0  0  0  0  0  2  0  0  0  0  0  0
  195.0980  172.9070  141.0090 C   0  0  0  0  0  2  0  0  0  0  0  0
  191.0160  171.9040  140.9730 C   0  0  0  0  0  1  0  0  0  0  0  0
  191.6460  172.6660  139.9730 O   0  0  0  0  0  0  0  0  0  0  0  0
  1 13  1  0  0  0  0
  2  9  2  0  0  0  0
  3  8  1  0  0  0  0
  4 32  1  1  0  0  0
  4  9  1  0  0  0  0
  4  7  1  0  0  0  0
  6 12  1  1  0  0  0
  6 15  1  0  0  0  0
  6 10  1  0  0  0  0
  7  3  1  0  0  0  0
  9 11  1  0  0  0  0
 10  1  1  0  0  0  0
 11  8  1  0  0  0  0
 11 13  2  0  0  0  0
 12  2  2  0  0  0  0
 13  5  1  0  0  0  0
 15 14  1  6  0  0  0
 15 16  1  0  0  0  0
 16 30  1  1  0  0  0
 17 18  1  6  0  0  0
 17 16  1  0  0  0  0
 19 18  1  0  0  0  0
 19 14  1  0  0  0  0
 20 24  1  0  0  0  0
 21 23  1  0  0  0  0
 21 25  1  1  0  0  0
 22 20  1  6  0  0  0
 22 17  1  0  0  0  0
 22 23  1  0  0  0  0
 24 26  1  6  0  0  0
 24 21  1  0  0  0  0
 27 29  1  0  0  0  0
 27 26  1  0  0  0  0
 28 29  1  0  0  0  0
 30 31  1  0  0  0  0
 32 40  1  6  0  0  0
 33 34  1  0  0  0  0
 33 35  1  0  0  0  0
 34 32  1  6  0  0  0
 34 37  1  0  0  0  0
 35 38  1  0  0  0  0
 35 36  1  1  0  0  0
 37 38  1  0  0  0  0
 40 39  1  6  0  0  0
 41 45  1  1  0  0  0
 41 42  1  0  0  0  0
 41 39  1  0  0  0  0
 42 43  1  0  0  0  0
 43 40  1  0  0  0  0
 45 44  1  0  0  0  0
M  END
>  <MODEL>
7

>  <REMARK>
 VINA RESULT:      -7.3      3.251      9.244
  Name = 
  10 active torsions:
  status: ('A' for Active; 'I' for Inactive)
    1  A    between atoms: C_2  and  C_3
    2  A    between atoms: C_3  and  C_7
    3  A    between atoms: C_3  and  C_17
    4  A    between atoms: C_6  and  C_29
    5  A    between atoms: C_10  and  O_45
    6  A    between atoms: C_19  and  C_22
    7  A    between atoms: C_24  and  S_35
    8  A    between atoms: C_31  and  C_32
    9  A    between atoms: C_34  and  S_35
   10  A    between atoms: C_34  and  C_42
                            x       y       z     vdW  Elec       q    Type
                         _______ _______ _______ _____ _____    ______ ____

>  <TORSDO>
F 10

$$$$
=
 OpenBabel11062420463D

 45 50  0  0  1  0  0  0  0  0999 V2000
  188.4210  176.7950  142.6860 C   0  0  0  0  0  2  0  0  0  0  0  0
  189.7470  174.2890  142.7440 C   0  0  0  0  0  0  0  0  0  0  0  0
  188.5100  173.2760  139.0950 C   0  0  0  0  0  2  0  0  0  0  0  0
  190.1260  173.1040  140.6600 C   0  0  2  0  0  3  0  0  0  0  0  0
  186.8980  176.8500  140.7460 O   0  0  0  0  0  1  0  0  0  0  0  0
  188.9420  175.4120  144.7690 C   0  0  1  0  0  3  0  0  0  0  0  0
  189.9010  173.2430  139.2750 O   0  0  0  0  0  0  0  0  0  0  0  0
  187.9820  174.6580  139.4730 C   0  0  0  0  0  2  0  0  0  0  0  0
  189.5790  174.2720  141.4490 C   0  0  0  0  0  0  0  0  0  0  0  0
  187.8420  176.0450  143.8860 C   0  0  0  0  0  2  0  0  0  0  0  0
  188.4800  175.0820  140.8340 C   0  0  0  0  0  0  0  0  0  0  0  0
  189.8150  174.4170  144.0390 C   0  0  0  0  0  3  0  0  0  0  0  0
  187.9430  176.1960  141.3920 C   0  0  0  0  0  0  0  0  0  0  0  0
  190.0380  177.6150  144.6970 O   0  0  0  0  0  0  0  0  0  0  0  0
  189.7860  176.4740  145.4990 C   0  0  2  0  0  3  0  0  0  0  0  0
  191.0590  175.8770  146.1390 C   0  0  1  0  0  3  0  0  0  0  0  0
  192.3100  176.7280  145.8460 C   0  0  2  0  0  3  0  0  0  0  0  0
  192.3860  177.1840  144.3780 C   0  0  0  0  0  2  0  0  0  0  0  0
  191.0050  177.2740  143.7350 C   0  0  0  0  0  2  0  0  0  0  0  0
  193.6070  174.5390  145.9590 C   0  0  0  0  0  2  0  0  0  0  0  0
  195.6670  175.4910  145.1400 C   0  0  1  0  0  3  0  0  0  0  0  0
  193.6000  176.0260  146.2920 C   0  0  1  0  0  3  0  0  0  0  0  0
  194.8240  176.6460  145.6370 C   0  0  0  0  0  2  0  0  0  0  0  0
  194.7130  174.3350  144.9410 C   0  0  1  0  0  3  0  0  0  0  0  0
  196.2630  175.8320  143.9260 O   0  0  0  0  0  1  0  0  0  0  0  0
  195.4270  173.0160  145.1830 C   0  0  0  0  0  2  0  0  0  0  0  0
  195.8080  172.2080  143.6010 S   0  0  0  0  0  0  0  0  0  0  0  0
  195.9140  169.5870  143.4270 O   0  0  0  0  0  1  0  0  0  0  0  0
  195.9690  170.5870  144.3970 C   0  0  0  0  0  2  0  0  0  0  0  0
  190.8340  175.7500  147.6390 C   0  0  0  0  0  2  0  0  0  0  0  0
  191.1780  176.9410  148.2780 O   0  0  0  0  0  1  0  0  0  0  0  0
  191.6180  172.8230  140.9570 C   0  0  2  0  0  3  0  0  0  0  0  0
  193.4790  173.3450  139.2880 C   0  0  0  0  0  2  0  0  0  0  0  0
  192.5480  173.9020  140.3470 C   0  0  2  0  0  3  0  0  0  0  0  0
  194.6860  174.2610  139.2640 C   0  0  1  0  0  3  0  0  0  0  0  0
  194.5300  175.2050  138.2490 O   0  0  0  0  0  1  0  0  0  0  0  0
  193.4860  174.5140  141.3710 C   0  0  0  0  0  2  0  0  0  0  0  0
  194.7150  174.9690  140.6050 C   0  0  0  0  0  2  0  0  0  0  0  0
  193.0540  170.7860  141.3910 C   0  0  0  0  0  2  0  0  0  0  0  0
  191.9920  171.3990  140.4870 C   0  0  1  0  0  3  0  0  0  0  0  0
  192.3300  169.8250  142.3290 C   0  0  2  0  0  3  0  0  0  0  0  0
  190.8540  169.8460  141.9730 C   0  0  0  0  0  2  0  0  0  0  0  0
  190.8070  170.4390  140.5830 C   0  0  0  0  0  2  0  0  0  0  0  0
  192.0170  171.2810  144.0890 C   0  0  0  0  0  1  0  0  0  0  0  0
  192.5890  170.0570  143.7020 O   0  0  0  0  0  0  0  0  0  0  0  0
  1 10  1  0  0  0  0
  2 12  2  0  0  0  0
  3  7  1  0  0  0  0
  3  8  1  0  0  0  0
  4 32  1  6  0  0  0
  4  9  1  0  0  0  0
  5 13  1  0  0  0  0
  6 10  1  6  0  0  0
  6 15  1  0  0  0  0
  7  4  1  0  0  0  0
  8 11  1  0  0  0  0
  9  2  2  0  0  0  0
 11 13  2  0  0  0  0
 11  9  1  0  0  0  0
 12  6  1  0  0  0  0
 13  1  1  0  0  0  0
 15 14  1  6  0  0  0
 15 16  1  0  0  0  0
 16 30  1  1  0  0  0
 17 18  1  6  0  0  0
 17 16  1  0  0  0  0
 17 22  1  0  0  0  0
 19 18  1  0  0  0  0
 19 14  1  0  0  0  0
 20 22  1  0  0  0  0
 21 25  1  6  0  0  0
 21 23  1  0  0  0  0
 22 23  1  6  0  0  0
 24 21  1  0  0  0  0
 24 26  1  1  0  0  0
 24 20  1  0  0  0  0
 27 29  1  0  0  0  0
 27 26  1  0  0  0  0
 28 29  1  0  0  0  0
 30 31  1  0  0  0  0
 32 34  1  6  0  0  0
 34 33  1  6  0  0  0
 34 37  1  0  0  0  0
 35 36  1  6  0  0  0
 35 33  1  0  0  0  0
 35 38  1  0  0  0  0
 38 37  1  0  0  0  0
 39 41  1  0  0  0  0
 40 43  1  0  0  0  0
 40 32  1  1  0  0  0
 40 39  1  0  0  0  0
 41 45  1  1  0  0  0
 42 41  1  0  0  0  0
 43 42  1  0  0  0  0
 45 44  1  0  0  0  0
M  END
>  <MODEL>
8

>  <REMARK>
 VINA RESULT:      -7.1      2.228      7.318
  Name = 
  10 active torsions:
  status: ('A' for Active; 'I' for Inactive)
    1  A    between atoms: C_2  and  C_3
    2  A    between atoms: C_3  and  C_7
    3  A    between atoms: C_3  and  C_17
    4  A    between atoms: C_6  and  C_29
    5  A    between atoms: C_10  and  O_45
    6  A    between atoms: C_19  and  C_22
    7  A    between atoms: C_24  and  S_35
    8  A    between atoms: C_31  and  C_32
    9  A    between atoms: C_34  and  S_35
   10  A    between atoms: C_34  and  C_42
                            x       y       z     vdW  Elec       q    Type
                         _______ _______ _______ _____ _____    ______ ____

>  <TORSDO>
F 10

$$$$
=
 OpenBabel11062420463D

 45 50  0  0  1  0  0  0  0  0999 V2000
  193.8900  176.5330  145.0110 C   0  0  0  0  0  2  0  0  0  0  0  0
  192.0180  174.9500  143.5870 C   0  0  0  0  0  0  0  0  0  0  0  0
  189.3830  174.9450  146.5750 C   0  0  0  0  0  2  0  0  0  0  0  0
  189.7130  174.8780  144.3440 C   0  0  2  0  0  3  0  0  0  0  0  0
  193.1860  176.6780  147.3700 O   0  0  0  0  0  1  0  0  0  0  0  0
  194.4340  174.8190  143.1980 C   0  0  1  0  0  3  0  0  0  0  0  0
  188.8840  175.4140  145.3510 O   0  0  0  0  0  0  0  0  0  0  0  0
  190.6230  175.7490  146.9580 C   0  0  0  0  0  2  0  0  0  0  0  0
  191.1460  175.3440  144.4750 C   0  0  0  0  0  0  0  0  0  0  0  0
  194.6160  175.2290  144.6770 C   0  0  0  0  0  2  0  0  0  0  0  0
  191.6140  175.8050  145.8210 C   0  0  0  0  0  0  0  0  0  0  0  0
  192.9930  174.6080  142.7930 C   0  0  0  0  0  3  0  0  0  0  0  0
  192.8460  176.3150  146.0700 C   0  0  0  0  0  0  0  0  0  0  0  0
  194.2800  176.3430  141.2700 O   0  0  0  0  0  0  0  0  0  0  0  0
  195.1550  175.7810  142.2330 C   0  0  2  0  0  3  0  0  0  0  0  0
  196.4280  175.1550  141.6200 C   0  0  1  0  0  3  0  0  0  0  0  0
  196.5100  175.3830  140.0980 C   0  0  2  0  0  3  0  0  0  0  0  0
  195.1680  175.1320  139.3870 C   0  0  0  0  0  2  0  0  0  0  0  0
  193.9780  175.3540  140.3170 C   0  0  0  0  0  2  0  0  0  0  0  0
  197.4500  173.0760  139.5710 C   0  0  0  0  0  2  0  0  0  0  0  0
  197.9380  173.5870  137.2630 C   0  0  1  0  0  3  0  0  0  0  0  0
  197.6530  174.5810  139.4580 C   0  0  1  0  0  3  0  0  0  0  0  0
  197.8020  174.9120  137.9820 C   0  0  0  0  0  2  0  0  0  0  0  0
  197.2730  172.5620  138.1540 C   0  0  1  0  0  3  0  0  0  0  0  0
  197.2820  173.6480  136.0340 O   0  0  0  0  0  1  0  0  0  0  0  0
  197.9410  171.2080  137.9880 C   0  0  0  0  0  2  0  0  0  0  0  0
  196.6880  169.9020  137.8350 S   0  0  0  0  0  0  0  0  0  0  0  0
  195.2410  170.1290  135.6510 O   0  0  0  0  0  1  0  0  0  0  0  0
  196.5810  170.1290  136.0390 C   0  0  0  0  0  2  0  0  0  0  0  0
  197.6430  175.7470  142.3190 C   0  0  0  0  0  2  0  0  0  0  0  0
  197.2710  176.8650  143.0650 O   0  0  0  0  0  1  0  0  0  0  0  0
  189.1220  175.1360  142.9390 C   0  0  2  0  0  3  0  0  0  0  0  0
  186.7100  175.9650  142.7890 C   0  0  0  0  0  2  0  0  0  0  0  0
  188.1690  176.3580  142.9210 C   0  0  2  0  0  3  0  0  0  0  0  0
  186.0100  177.1490  142.1540 C   0  0  1  0  0  3  0  0  0  0  0  0
  185.4310  177.9330  143.1510 O   0  0  0  0  0  1  0  0  0  0  0  0
  188.4090  177.2720  141.7330 C   0  0  0  0  0  2  0  0  0  0  0  0
  187.0840  177.9540  141.4460 C   0  0  0  0  0  2  0  0  0  0  0  0
  188.7760  173.6200  140.9430 C   0  0  0  0  0  2  0  0  0  0  0  0
  188.4360  173.8560  142.4090 C   0  0  1  0  0  3  0  0  0  0  0  0
  189.8560  172.5430  140.9110 C   0  0  2  0  0  3  0  0  0  0  0  0
  190.1410  172.1220  142.3420 C   0  0  0  0  0  2  0  0  0  0  0  0
  188.9400  172.6040  143.1250 C   0  0  0  0  0  2  0  0  0  0  0  0
  190.6370  173.4400  138.9360 C   0  0  0  0  0  1  0  0  0  0  0  0
  191.0130  172.9100  140.1830 O   0  0  0  0  0  0  0  0  0  0  0  0
  1 13  1  0  0  0  0
  2  9  2  0  0  0  0
  3  8  1  0  0  0  0
  4 32  1  6  0  0  0
  4  9  1  0  0  0  0
  4  7  1  0  0  0  0
  6 12  1  6  0  0  0
  6 10  1  0  0  0  0
  7  3  1  0  0  0  0
  9 11  1  0  0  0  0
 10  1  1  0  0  0  0
 11 13  2  0  0  0  0
 11  8  1  0  0  0  0
 12  2  2  0  0  0  0
 13  5  1  0  0  0  0
 15 14  1  6  0  0  0
 15  6  1  0  0  0  0
 16 15  1  0  0  0  0
 16 30  1  1  0  0  0
 17 18  1  6  0  0  0
 17 16  1  0  0  0  0
 18 19  1  0  0  0  0
 19 14  1  0  0  0  0
 21 25  1  6  0  0  0
 21 23  1  0  0  0  0
 21 24  1  0  0  0  0
 22 23  1  6  0  0  0
 22 20  1  0  0  0  0
 22 17  1  0  0  0  0
 24 26  1  1  0  0  0
 24 20  1  0  0  0  0
 27 26  1  0  0  0  0
 28 29  1  0  0  0  0
 29 27  1  0  0  0  0
 30 31  1  0  0  0  0
 32 40  1  1  0  0  0
 33 34  1  0  0  0  0
 34 32  1  6  0  0  0
 35 33  1  0  0  0  0
 35 36  1  1  0  0  0
 37 34  1  0  0  0  0
 38 37  1  0  0  0  0
 38 35  1  0  0  0  0
 40 39  1  6  0  0  0
 40 43  1  0  0  0  0
 41 45  1  1  0  0  0
 41 39  1  0  0  0  0
 41 42  1  0  0  0  0
 42 43  1  0  0  0  0
 44 45  1  0  0  0  0
M  END
>  <MODEL>
9

>  <REMARK>
 VINA RESULT:      -7.1      2.576      5.496
  Name = 
  10 active torsions:
  status: ('A' for Active; 'I' for Inactive)
    1  A    between atoms: C_2  and  C_3
    2  A    between atoms: C_3  and  C_7
    3  A    between atoms: C_3  and  C_17
    4  A    between atoms: C_6  and  C_29
    5  A    between atoms: C_10  and  O_45
    6  A    between atoms: C_19  and  C_22
    7  A    between atoms: C_24  and  S_35
    8  A    between atoms: C_31  and  C_32
    9  A    between atoms: C_34  and  S_35
   10  A    between atoms: C_34  and  C_42
                            x       y       z     vdW  Elec       q    Type
                         _______ _______ _______ _____ _____    ______ ____

>  <TORSDO>
F 10

$$$$
