=
 OpenBabel11072409083D

 57 60  0  0  1  0  0  0  0  0999 V2000
  192.9850  174.5000  144.3820 C   0  0  0  0  0  0  0  0  0  0  0  0
  191.1410  171.5620  137.9350 C   0  0  0  0  0  2  0  0  0  0  0  0
  190.2140  175.9110  144.5240 C   0  0  1  0  0  3  0  0  0  0  0  0
  195.4670  173.6740  138.9000 C   0  0  2  0  0  3  0  0  0  0  0  0
  192.5260  171.9150  137.5030 C   0  0  0  0  0  0  0  0  0  0  0  0
  194.8390  172.5300  138.0790 C   0  0  2  0  0  3  0  0  0  0  0  0
  190.4670  173.8420  138.1910 O   0  0  0  0  0  1  0  0  0  0  0  0
  188.1930  174.7710  141.9480 C   0  0  0  0  0  2  0  0  0  0  0  0
  195.8840  174.6370  141.2260 C   0  0  0  0  0  2  0  0  0  0  0  0
  190.6130  174.5310  145.0790 C   0  0  2  0  0  3  0  0  0  0  0  0
  188.5860  174.2460  140.5830 C   0  0  0  0  0  2  0  0  0  0  0  0
  193.9670  175.7080  142.5100 C   0  0  0  0  0  0  0  0  0  0  0  0
  194.9590  175.7370  141.4770 N   0  0  0  0  0  2  0  0  0  0  0  0
  193.8720  174.5540  143.4240 C   0  0  0  0  0  3  0  0  0  0  0  0
  195.7010  172.2040  140.9560 C   0  0  0  0  0  1  0  0  0  0  0  0
  188.7990  172.7460  140.6580 C   0  0  0  0  0  2  0  0  0  0  0  0
  193.1870  176.6920  142.6420 O   0  0  0  0  0  0  0  0  0  0  0  0
  188.6610  177.0250  145.8190 C   0  0  2  0  0  3  0  0  0  0  0  0
  187.7630  176.4130  146.8770 C   0  0  0  0  0  1  0  0  0  0  0  0
  192.8250  171.8260  136.2860 O   0  0  0  0  0  0  0  0  0  0  0  0
  189.1670  172.1750  139.2950 C   0  0  0  0  0  2  0  0  0  0  0  0
  188.7260  176.1190  144.6250 C   0  0  1  0  0  3  0  0  0  0  0  0
  193.4780  172.3110  138.4400 O   0  0  0  0  0  0  0  0  0  0  0  0
  190.5570  172.6170  138.8620 C   0  0  1  0  0  3  0  0  0  0  0  0
  192.1000  174.4240  145.3390 C   0  0  0  0  0  3  0  0  0  0  0  0
  188.1730  176.8640  143.3950 C   0  0  1  0  0  3  0  0  0  0  0  0
  190.7860  176.9390  145.2910 O   0  0  0  0  0  0  0  0  0  0  0  0
  195.2010  173.5370  140.4190 C   0  0  2  0  0  3  0  0  0  0  0  0
  189.9680  177.1360  146.3200 O   0  0  0  0  0  0  0  0  0  0  0  0
  188.5410  176.2460  142.0380 C   0  0  0  0  0  2  0  0  0  0  0  0
  193.6230  175.2000  138.4100 O   0  0  0  0  0  1  0  0  0  0  0  0
  195.4670  175.2270  136.9290 C   0  0  0  0  0  1  0  0  0  0  0  0
  195.0120  175.0500  138.3670 C   0  0  2  0  0  3  0  0  0  0  0  0
  189.5790  172.2020  145.0820 C   0  0  0  0  0  2  0  0  0  0  0  0
  190.7590  172.2170  144.3070 O   0  0  0  0  0  0  0  0  0  0  0  0
  189.9650  173.3810  144.2670 C   0  0  2  0  0  3  0  0  0  0  0  0
  186.6780  177.1770  143.5080 C   0  0  0  0  0  2  0  0  0  0  0  0
  186.3990  178.6630  143.6790 C   0  0  0  0  0  2  0  0  0  0  0  0
  184.1840  179.1720  144.3800 O   0  0  0  0  0  1  0  0  0  0  0  0
  184.9790  178.9830  143.2520 C   0  0  2  0  0  3  0  0  0  0  0  0
  184.4490  177.8800  142.4700 N   0  0  0  0  0  2  0  0  0  0  0  0
  184.2000  178.3830  141.1300 C   0  0  1  0  0  3  0  0  0  0  0  0
  185.2980  177.9050  140.2010 C   0  0  0  0  0  1  0  0  0  0  0  0
  182.8640  177.8700  140.6250 C   0  0  0  0  0  2  0  0  0  0  0  0
  181.5070  178.9290  141.2280 S   0  0  0  0  0  0  0  0  0  0  0  0
  180.2430  178.0210  140.2800 C   0  0  0  0  0  2  0  0  0  0  0  0
  179.1020  178.8790  140.0260 N   0  0  0  0  0  2  0  0  0  0  0  0
  177.9660  178.2020  140.4870 N   0  0  0  0  0  2  0  0  0  0  0  0
  178.2160  176.8020  142.3230 F   0  0  0  0  0  0  0  0  0  0  0  0
  178.0670  178.1240  141.9340 C   0  0  0  0  0  2  0  0  0  0  0  0
  195.5730  171.3440  138.2190 O   0  0  0  0  0  0  0  0  0  0  0  0
  197.5900  168.7670  134.9970 C   0  0  0  0  0  1  0  0  0  0  0  0
  197.0750  171.8930  136.4660 C   0  0  0  0  0  2  0  0  0  0  0  0
  195.9590  170.9990  136.9230 C   0  0  1  0  0  3  0  0  0  0  0  0
  197.7900  169.6300  136.1430 N   0  0  0  0  0  0  0  0  0  0  0  0
  197.9410  170.9870  135.6280 C   0  0  0  0  0  2  0  0  0  0  0  0
  196.5540  169.6050  136.9160 C   0  0  0  0  0  2  0  0  0  0  0  0
  1 25  2  0  0  0  0
  2 24  1  0  0  0  0
  3 22  1  0  0  0  0
  3 10  1  0  0  0  0
  3 27  1  1  0  0  0
  4 33  1  6  0  0  0
  4 28  1  0  0  0  0
  5  2  1  0  0  0  0
  5 23  1  0  0  0  0
  6 51  1  1  0  0  0
  6 23  1  0  0  0  0
  6  4  1  0  0  0  0
  7 24  1  0  0  0  0
  8 30  1  0  0  0  0
  9 13  1  0  0  0  0
 10 25  1  6  0  0  0
 11 16  1  0  0  0  0
 11  8  1  0  0  0  0
 12 17  2  0  0  0  0
 12 14  1  0  0  0  0
 13 12  1  0  0  0  0
 14  1  2  0  0  0  0
 18 29  1  0  0  0  0
 18 19  1  1  0  0  0
 20  5  2  0  0  0  0
 21 16  1  0  0  0  0
 22 18  1  0  0  0  0
 24 21  1  0  0  0  0
 26 37  1  0  0  0  0
 26 22  1  0  0  0  0
 27 29  1  0  0  0  0
 28 15  1  0  0  0  0
 28  9  1  0  0  0  0
 30 26  1  0  0  0  0
 32 33  1  0  0  0  0
 33 31  1  0  0  0  0
 35 34  1  0  0  0  0
 36 35  1  0  0  0  0
 36 10  1  0  0  0  0
 36 34  1  0  0  0  0
 37 38  1  0  0  0  0
 40 38  1  0  0  0  0
 40 39  1  0  0  0  0
 41 40  1  0  0  0  0
 42 41  1  0  0  0  0
 43 42  1  0  0  0  0
 44 42  1  0  0  0  0
 44 45  1  0  0  0  0
 46 45  1  0  0  0  0
 47 46  1  0  0  0  0
 47 48  1  0  0  0  0
 48 50  1  0  0  0  0
 50 49  1  0  0  0  0
 52 55  1  0  0  0  0
 53 54  1  0  0  0  0
 54 51  1  0  0  0  0
 55 57  1  0  0  0  0
 56 55  1  0  0  0  0
 56 53  1  0  0  0  0
 57 54  1  0  0  0  0
M  END
>  <MODEL>
1

>  <REMARK>
 VINA RESULT:      -6.9      0.000      0.000
  Name = 
  15 active torsions:
  status: ('A' for Active; 'I' for Inactive)
    1  A    between atoms: C_4  and  N_5
    2  A    between atoms: C_4  and  S_10
    3  A    between atoms: N_5  and  N_35
    4  A    between atoms: C_8  and  C_43
    5  A    between atoms: S_10  and  C_34
    6  A    between atoms: C_13  and  O_56
    7  A    between atoms: C_17  and  N_18
    8  A    between atoms: C_17  and  C_34
    9  A    between atoms: N_18  and  C_36
   10  A    between atoms: C_19  and  C_31
   11  A    between atoms: C_27  and  N_35
   12  A    between atoms: C_30  and  C_36
   13  A    between atoms: C_30  and  C_39
   14  A    between atoms: C_39  and  C_50
   15  A    between atoms: C_40  and  O_56
                            x       y       z     vdW  Elec       q    Type
                         _______ _______ _______ _____ _____    ______ ____

>  <TORSDO>
F 15

$$$$
=
 OpenBabel11072409083D

 57 60  0  0  1  0  0  0  0  0999 V2000
  192.1730  175.1320  146.4930 C   0  0  0  0  0  0  0  0  0  0  0  0
  193.2090  172.0560  139.9300 C   0  0  0  0  0  2  0  0  0  0  0  0
  189.5240  176.4060  145.4710 C   0  0  1  0  0  3  0  0  0  0  0  0
  196.6870  174.3860  142.4960 C   0  0  2  0  0  3  0  0  0  0  0  0
  194.6350  172.4730  140.0820 C   0  0  0  0  0  0  0  0  0  0  0  0
  196.4910  173.2060  141.5240 C   0  0  2  0  0  3  0  0  0  0  0  0
  192.3940  174.3020  139.8320 O   0  0  0  0  0  1  0  0  0  0  0  0
  188.7620  175.1480  142.3310 C   0  0  0  0  0  2  0  0  0  0  0  0
  196.0910  175.3870  144.7670 C   0  0  0  0  0  2  0  0  0  0  0  0
  189.7230  175.0510  146.1760 C   0  0  2  0  0  3  0  0  0  0  0  0
  189.6940  174.6320  141.2540 C   0  0  0  0  0  2  0  0  0  0  0  0
  193.7750  176.3720  145.1420 C   0  0  0  0  0  0  0  0  0  0  0  0
  195.0970  176.4410  144.5950 N   0  0  0  0  0  2  0  0  0  0  0  0
  193.3680  175.2220  145.9720 C   0  0  0  0  0  3  0  0  0  0  0  0
  196.1340  172.9450  144.5120 C   0  0  0  0  0  1  0  0  0  0  0  0
  189.9220  173.1450  141.4480 C   0  0  0  0  0  2  0  0  0  0  0  0
  192.9680  177.3170  144.9230 O   0  0  0  0  0  0  0  0  0  0  0  0
  187.5350  177.4520  146.0010 C   0  0  2  0  0  3  0  0  0  0  0  0
  186.3140  176.8050  146.6240 C   0  0  0  0  0  1  0  0  0  0  0  0
  195.4030  172.3900  139.0910 O   0  0  0  0  0  0  0  0  0  0  0  0
  190.8310  172.5820  140.3650 C   0  0  0  0  0  2  0  0  0  0  0  0
  188.1150  176.5410  144.9590 C   0  0  1  0  0  3  0  0  0  0  0  0
  195.1110  172.9240  141.3130 O   0  0  0  0  0  0  0  0  0  0  0  0
  192.2570  173.0880  140.5150 C   0  0  1  0  0  3  0  0  0  0  0  0
  190.9820  175.0200  147.0150 C   0  0  0  0  0  3  0  0  0  0  0  0
  188.0740  177.2480  143.5900 C   0  0  1  0  0  3  0  0  0  0  0  0
  189.6940  177.4660  146.3750 O   0  0  0  0  0  0  0  0  0  0  0  0
  195.8380  174.2480  143.7830 C   0  0  2  0  0  3  0  0  0  0  0  0
  188.5240  177.6310  146.9830 O   0  0  0  0  0  0  0  0  0  0  0  0
  188.9830  176.6390  142.5140 C   0  0  0  0  0  2  0  0  0  0  0  0
  195.0930  175.8790  141.4030 O   0  0  0  0  0  1  0  0  0  0  0  0
  197.2980  175.8460  140.5500 C   0  0  0  0  0  1  0  0  0  0  0  0
  196.4280  175.7340  141.7890 C   0  0  2  0  0  3  0  0  0  0  0  0
  189.7790  172.5320  145.7960 C   0  0  0  0  0  2  0  0  0  0  0  0
  190.7110  173.1790  144.9560 O   0  0  0  0  0  0  0  0  0  0  0  0
  189.5050  173.8640  145.2030 C   0  0  2  0  0  3  0  0  0  0  0  0
  186.6480  177.4880  143.0840 C   0  0  0  0  0  2  0  0  0  0  0  0
  186.6050  178.3650  141.8410 C   0  0  0  0  0  2  0  0  0  0  0  0
  186.3520  177.6190  139.5970 O   0  0  0  0  0  1  0  0  0  0  0  0
  185.6740  177.7620  140.8060 C   0  0  2  0  0  3  0  0  0  0  0  0
  184.5320  178.6380  140.6140 N   0  0  0  0  0  2  0  0  0  0  0  0
  183.3980  178.0200  141.2800 C   0  0  1  0  0  3  0  0  0  0  0  0
  183.2310  178.6270  142.6590 C   0  0  0  0  0  1  0  0  0  0  0  0
  182.1340  178.2580  140.4760 C   0  0  0  0  0  2  0  0  0  0  0  0
  180.8050  178.8900  141.5530 S   0  0  0  0  0  0  0  0  0  0  0  0
  179.4850  178.2210  140.4870 C   0  0  0  0  0  2  0  0  0  0  0  0
  178.2980  177.9540  141.2760 N   0  0  0  0  0  2  0  0  0  0  0  0
  178.4930  178.5490  142.5280 N   0  0  0  0  0  2  0  0  0  0  0  0
  178.3320  176.2960  143.0660 F   0  0  0  0  0  0  0  0  0  0  0  0
  178.0970  177.5800  143.5340 C   0  0  0  0  0  2  0  0  0  0  0  0
  197.1560  172.0590  141.9790 O   0  0  0  0  0  0  0  0  0  0  0  0
  194.8030  168.1670  142.6190 C   0  0  0  0  0  1  0  0  0  0  0  0
  197.1120  170.0200  140.7670 C   0  0  0  0  0  2  0  0  0  0  0  0
  196.3370  170.9920  141.6080 C   0  0  1  0  0  3  0  0  0  0  0  0
  196.1130  168.7820  142.5560 N   0  0  0  0  0  0  0  0  0  0  0  0
  196.5640  168.6750  141.1730 C   0  0  0  0  0  2  0  0  0  0  0  0
  195.9320  170.2000  142.8360 C   0  0  0  0  0  2  0  0  0  0  0  0
  1 25  2  0  0  0  0
  2  5  1  0  0  0  0
  2 24  1  0  0  0  0
  3 10  1  0  0  0  0
  3 27  1  1  0  0  0
  4 33  1  6  0  0  0
  4 28  1  0  0  0  0
  5 23  1  0  0  0  0
  6 51  1  1  0  0  0
  6  4  1  0  0  0  0
  7 24  1  0  0  0  0
  8 30  1  0  0  0  0
 10 25  1  6  0  0  0
 11 16  1  0  0  0  0
 11  8  1  0  0  0  0
 12 14  1  0  0  0  0
 13  9  1  0  0  0  0
 13 12  1  0  0  0  0
 14  1  2  0  0  0  0
 17 12  2  0  0  0  0
 18 19  1  1  0  0  0
 18 29  1  0  0  0  0
 20  5  2  0  0  0  0
 21 24  1  0  0  0  0
 21 16  1  0  0  0  0
 22  3  1  0  0  0  0
 22 18  1  0  0  0  0
 23  6  1  0  0  0  0
 26 22  1  0  0  0  0
 27 29  1  0  0  0  0
 28 15  1  0  0  0  0
 28  9  1  0  0  0  0
 30 26  1  0  0  0  0
 31 33  1  0  0  0  0
 32 33  1  0  0  0  0
 35 36  1  0  0  0  0
 35 34  1  0  0  0  0
 36 34  1  0  0  0  0
 36 10  1  0  0  0  0
 37 26  1  0  0  0  0
 38 37  1  0  0  0  0
 39 40  1  0  0  0  0
 40 38  1  0  0  0  0
 41 40  1  0  0  0  0
 41 42  1  0  0  0  0
 42 43  1  0  0  0  0
 44 42  1  0  0  0  0
 44 45  1  0  0  0  0
 46 47  1  0  0  0  0
 46 45  1  0  0  0  0
 47 48  1  0  0  0  0
 48 50  1  0  0  0  0
 49 50  1  0  0  0  0
 53 56  1  0  0  0  0
 53 54  1  0  0  0  0
 54 51  1  0  0  0  0
 54 57  1  0  0  0  0
 55 52  1  0  0  0  0
 55 57  1  0  0  0  0
 56 55  1  0  0  0  0
M  END
>  <MODEL>
2

>  <REMARK>
 VINA RESULT:      -6.0      2.464      3.115
  Name = 
  15 active torsions:
  status: ('A' for Active; 'I' for Inactive)
    1  A    between atoms: C_4  and  N_5
    2  A    between atoms: C_4  and  S_10
    3  A    between atoms: N_5  and  N_35
    4  A    between atoms: C_8  and  C_43
    5  A    between atoms: S_10  and  C_34
    6  A    between atoms: C_13  and  O_56
    7  A    between atoms: C_17  and  N_18
    8  A    between atoms: C_17  and  C_34
    9  A    between atoms: N_18  and  C_36
   10  A    between atoms: C_19  and  C_31
   11  A    between atoms: C_27  and  N_35
   12  A    between atoms: C_30  and  C_36
   13  A    between atoms: C_30  and  C_39
   14  A    between atoms: C_39  and  C_50
   15  A    between atoms: C_40  and  O_56
                            x       y       z     vdW  Elec       q    Type
                         _______ _______ _______ _____ _____    ______ ____

>  <TORSDO>
F 15

$$$$
=
 OpenBabel11072409083D

 57 60  0  0  1  0  0  0  0  0999 V2000
  195.9650  174.6080  143.5240 C   0  0  0  0  0  0  0  0  0  0  0  0
  192.9590  171.1360  137.8220 C   0  0  0  0  0  2  0  0  0  0  0  0
  193.1240  175.2760  144.6070 C   0  0  1  0  0  3  0  0  0  0  0  0
  196.7030  174.2970  137.5030 C   0  0  2  0  0  3  0  0  0  0  0  0
  194.0030  171.8170  136.9990 C   0  0  0  0  0  0  0  0  0  0  0  0
  196.1510  173.0110  136.8570 C   0  0  2  0  0  3  0  0  0  0  0  0
  191.8590  173.1780  138.4060 O   0  0  0  0  0  1  0  0  0  0  0  0
  190.7390  173.5970  142.7320 C   0  0  0  0  0  2  0  0  0  0  0  0
  197.5850  175.3930  139.6330 C   0  0  0  0  0  2  0  0  0  0  0  0
  194.0070  174.0560  144.9290 C   0  0  2  0  0  3  0  0  0  0  0  0
  190.7960  173.1540  141.2850 C   0  0  0  0  0  2  0  0  0  0  0  0
  195.9710  175.9770  141.5110 C   0  0  0  0  0  0  0  0  0  0  0  0
  196.5450  176.2290  140.2230 N   0  0  0  0  0  2  0  0  0  0  0  0
  196.4600  174.8600  142.3420 C   0  0  0  0  0  3  0  0  0  0  0  0
  197.9340  172.9870  139.2960 C   0  0  0  0  0  1  0  0  0  0  0  0
  191.3860  171.7590  141.2040 C   0  0  0  0  0  2  0  0  0  0  0  0
  195.0560  176.7350  141.9370 O   0  0  0  0  0  0  0  0  0  0  0  0
  191.8370  175.9930  146.3840 C   0  0  2  0  0  3  0  0  0  0  0  0
  191.5020  175.2020  147.6330 C   0  0  0  0  0  1  0  0  0  0  0  0
  193.9130  171.7760  135.7470 O   0  0  0  0  0  0  0  0  0  0  0  0
  191.4320  171.2650  139.7650 C   0  0  0  0  0  2  0  0  0  0  0  0
  191.7430  175.1040  145.1800 C   0  0  1  0  0  3  0  0  0  0  0  0
  195.0740  172.4650  137.6130 O   0  0  0  0  0  0  0  0  0  0  0  0
  192.4570  172.0330  138.9440 C   0  0  1  0  0  3  0  0  0  0  0  0
  195.4770  174.3350  144.7040 C   0  0  0  0  0  3  0  0  0  0  0  0
  190.6620  175.6530  144.2290 C   0  0  1  0  0  3  0  0  0  0  0  0
  193.6360  176.4340  145.2140 O   0  0  0  0  0  0  0  0  0  0  0  0
  196.9750  174.1360  139.0180 C   0  0  2  0  0  3  0  0  0  0  0  0
  193.1650  176.4440  146.4570 O   0  0  0  0  0  0  0  0  0  0  0  0
  190.7220  175.1140  142.7930 C   0  0  0  0  0  2  0  0  0  0  0  0
  194.5310  175.3640  137.8370 O   0  0  0  0  0  1  0  0  0  0  0  0
  195.5550  175.6420  135.7240 C   0  0  0  0  0  1  0  0  0  0  0  0
  195.7770  175.5000  137.2190 C   0  0  2  0  0  3  0  0  0  0  0  0
  193.6190  171.5460  145.1320 C   0  0  0  0  0  2  0  0  0  0  0  0
  194.4650  171.8270  144.0390 O   0  0  0  0  0  0  0  0  0  0  0  0
  193.4410  172.7590  144.2980 C   0  0  2  0  0  3  0  0  0  0  0  0
  189.2510  175.5810  144.8220 C   0  0  0  0  0  2  0  0  0  0  0  0
  188.6870  176.9510  145.1670 C   0  0  0  0  0  2  0  0  0  0  0  0
  188.1030  175.7490  147.1350 O   0  0  0  0  0  1  0  0  0  0  0  0
  188.3640  177.0280  146.6470 C   0  0  2  0  0  3  0  0  0  0  0  0
  187.1930  177.8650  146.8440 N   0  0  0  0  0  2  0  0  0  0  0  0
  186.3480  177.7050  145.6740 C   0  0  1  0  0  3  0  0  0  0  0  0
  185.1930  176.7840  146.0090 C   0  0  0  0  0  1  0  0  0  0  0  0
  185.8000  179.0530  145.2440 C   0  0  0  0  0  2  0  0  0  0  0  0
  184.5430  178.8430  143.9400 S   0  0  0  0  0  0  0  0  0  0  0  0
  185.7910  178.5450  142.6450 C   0  0  0  0  0  2  0  0  0  0  0  0
  185.6810  177.1850  142.1540 N   0  0  0  0  0  2  0  0  0  0  0  0
  186.9820  176.6790  142.0500 N   0  0  0  0  0  2  0  0  0  0  0  0
  188.9910  177.8410  141.9830 F   0  0  0  0  0  0  0  0  0  0  0  0
  187.7750  177.6660  141.3400 C   0  0  0  0  0  2  0  0  0  0  0  0
  197.1610  172.0530  136.6920 O   0  0  0  0  0  0  0  0  0  0  0  0
  196.7560  168.1660  139.1050 C   0  0  0  0  0  1  0  0  0  0  0  0
  196.8560  169.7990  136.0190 C   0  0  0  0  0  2  0  0  0  0  0  0
  196.5780  170.8410  137.0630 C   0  0  1  0  0  3  0  0  0  0  0  0
  197.5390  168.8990  138.1310 N   0  0  0  0  0  0  0  0  0  0  0  0
  197.0290  168.5290  136.8150 C   0  0  0  0  0  2  0  0  0  0  0  0
  197.2410  170.3130  138.3200 C   0  0  0  0  0  2  0  0  0  0  0  0
  1 25  2  0  0  0  0
  2 24  1  0  0  0  0
  3 10  1  0  0  0  0
  3 22  1  0  0  0  0
  3 27  1  1  0  0  0
  4 33  1  1  0  0  0
  4 28  1  0  0  0  0
  5 23  1  0  0  0  0
  5  2  1  0  0  0  0
  6 51  1  1  0  0  0
  6  4  1  0  0  0  0
  6 23  1  0  0  0  0
  7 24  1  0  0  0  0
  8 30  1  0  0  0  0
  9 13  1  0  0  0  0
 10 25  1  6  0  0  0
 11  8  1  0  0  0  0
 12 17  2  0  0  0  0
 12 14  1  0  0  0  0
 13 12  1  0  0  0  0
 14  1  2  0  0  0  0
 16 11  1  0  0  0  0
 18 29  1  0  0  0  0
 18 19  1  1  0  0  0
 20  5  2  0  0  0  0
 21 16  1  0  0  0  0
 22 18  1  0  0  0  0
 24 21  1  0  0  0  0
 26 37  1  0  0  0  0
 26 22  1  0  0  0  0
 27 29  1  0  0  0  0
 28 15  1  0  0  0  0
 28  9  1  0  0  0  0
 30 26  1  0  0  0  0
 32 33  1  0  0  0  0
 33 31  1  0  0  0  0
 35 36  1  0  0  0  0
 35 34  1  0  0  0  0
 36 10  1  0  0  0  0
 36 34  1  0  0  0  0
 37 38  1  0  0  0  0
 38 40  1  0  0  0  0
 40 41  1  0  0  0  0
 40 39  1  0  0  0  0
 42 43  1  0  0  0  0
 42 41  1  0  0  0  0
 44 42  1  0  0  0  0
 45 44  1  0  0  0  0
 46 45  1  0  0  0  0
 47 46  1  0  0  0  0
 48 47  1  0  0  0  0
 50 49  1  0  0  0  0
 50 48  1  0  0  0  0
 51 54  1  0  0  0  0
 53 56  1  0  0  0  0
 53 54  1  0  0  0  0
 54 57  1  0  0  0  0
 55 57  1  0  0  0  0
 55 52  1  0  0  0  0
 56 55  1  0  0  0  0
M  END
>  <MODEL>
3

>  <REMARK>
 VINA RESULT:      -6.0      3.125      3.984
  Name = 
  15 active torsions:
  status: ('A' for Active; 'I' for Inactive)
    1  A    between atoms: C_4  and  N_5
    2  A    between atoms: C_4  and  S_10
    3  A    between atoms: N_5  and  N_35
    4  A    between atoms: C_8  and  C_43
    5  A    between atoms: S_10  and  C_34
    6  A    between atoms: C_13  and  O_56
    7  A    between atoms: C_17  and  N_18
    8  A    between atoms: C_17  and  C_34
    9  A    between atoms: N_18  and  C_36
   10  A    between atoms: C_19  and  C_31
   11  A    between atoms: C_27  and  N_35
   12  A    between atoms: C_30  and  C_36
   13  A    between atoms: C_30  and  C_39
   14  A    between atoms: C_39  and  C_50
   15  A    between atoms: C_40  and  O_56
                            x       y       z     vdW  Elec       q    Type
                         _______ _______ _______ _____ _____    ______ ____

>  <TORSDO>
F 15

$$$$
=
 OpenBabel11072409083D

 57 60  0  0  1  0  0  0  0  0999 V2000
  192.7230  169.6990  142.4450 C   0  0  0  0  0  0  0  0  0  0  0  0
  193.4590  176.6550  144.6050 C   0  0  0  0  0  2  0  0  0  0  0  0
  195.0760  170.0780  140.4430 C   0  0  1  0  0  3  0  0  0  0  0  0
  189.1700  174.4920  143.5850 C   0  0  2  0  0  3  0  0  0  0  0  0
  191.9670  176.7100  144.5620 C   0  0  0  0  0  0  0  0  0  0  0  0
  189.7980  175.5460  144.5190 C   0  0  2  0  0  3  0  0  0  0  0  0
  193.6760  176.3430  142.2440 O   0  0  0  0  0  1  0  0  0  0  0  0
  196.5750  173.1580  140.9790 C   0  0  0  0  0  2  0  0  0  0  0  0
  189.1590  172.0500  142.8440 C   0  0  0  0  0  2  0  0  0  0  0  0
  195.1310  169.5820  141.9010 C   0  0  2  0  0  3  0  0  0  0  0  0
  195.9700  174.4360  141.5210 C   0  0  0  0  0  2  0  0  0  0  0  0
  191.0670  171.1570  141.4170 C   0  0  0  0  0  0  0  0  0  0  0  0
  189.8640  171.9180  141.5730 N   0  0  0  0  0  2  0  0  0  0  0  0
  191.6320  170.4090  142.5560 C   0  0  0  0  0  3  0  0  0  0  0  0
  189.7800  172.5930  145.1560 C   0  0  0  0  0  1  0  0  0  0  0  0
  196.1050  174.4610  143.0310 C   0  0  0  0  0  2  0  0  0  0  0  0
  191.6280  171.1170  140.2870 O   0  0  0  0  0  0  0  0  0  0  0  0
  196.6330  169.0840  139.0590 C   0  0  2  0  0  3  0  0  0  0  0  0
  197.8780  168.3340  139.4930 C   0  0  0  0  0  1  0  0  0  0  0  0
  191.3960  177.8250  144.6650 O   0  0  0  0  0  0  0  0  0  0  0  0
  195.5360  175.7470  143.6140 C   0  0  0  0  0  2  0  0  0  0  0  0
  196.4620  170.3120  139.9040 C   0  0  1  0  0  3  0  0  0  0  0  0
  191.2200  175.5400  144.4340 O   0  0  0  0  0  0  0  0  0  0  0  0
  194.0200  175.7940  143.4850 C   0  0  1  0  0  3  0  0  0  0  0  0
  193.8160  168.9900  142.3570 C   0  0  0  0  0  3  0  0  0  0  0  0
  196.5150  171.5590  139.0000 C   0  0  1  0  0  3  0  0  0  0  0  0
  194.5120  169.1000  139.6080 O   0  0  0  0  0  0  0  0  0  0  0  0
  189.8340  173.1000  143.7230 C   0  0  2  0  0  3  0  0  0  0  0  0
  195.5020  168.2790  139.2720 O   0  0  0  0  0  0  0  0  0  0  0  0
  195.9560  172.8430  139.6280 C   0  0  0  0  0  2  0  0  0  0  0  0
  189.7600  176.2400  141.9850 O   0  0  0  0  0  1  0  0  0  0  0  0
  187.7510  175.0550  141.5950 C   0  0  0  0  0  1  0  0  0  0  0  0
  189.1740  174.9790  142.1210 C   0  0  2  0  0  3  0  0  0  0  0  0
  197.0010  170.1560  143.5350 C   0  0  0  0  0  2  0  0  0  0  0  0
  195.7470  170.2120  144.1800 O   0  0  0  0  0  0  0  0  0  0  0  0
  195.7830  170.6330  142.8360 C   0  0  2  0  0  3  0  0  0  0  0  0
  197.8900  171.7730  138.3580 C   0  0  0  0  0  2  0  0  0  0  0  0
  197.8540  172.7780  137.2160 C   0  0  0  0  0  2  0  0  0  0  0  0
  197.9410  172.2220  134.9050 O   0  0  0  0  0  1  0  0  0  0  0  0
  197.1150  172.1950  136.0260 C   0  0  2  0  0  3  0  0  0  0  0  0
  195.9230  172.9820  135.7640 N   0  0  0  0  0  2  0  0  0  0  0  0
  194.8890  172.0640  135.3200 C   0  0  1  0  0  3  0  0  0  0  0  0
  195.1870  170.6760  135.8490 C   0  0  0  0  0  1  0  0  0  0  0  0
  193.5380  172.5150  135.8430 C   0  0  0  0  0  2  0  0  0  0  0  0
  193.3330  174.3120  135.6080 S   0  0  0  0  0  0  0  0  0  0  0  0
  192.2510  174.4810  137.0650 C   0  0  0  0  0  2  0  0  0  0  0  0
  191.1780  173.5060  137.0020 N   0  0  0  0  0  2  0  0  0  0  0  0
  189.9890  174.2150  136.8010 N   0  0  0  0  0  2  0  0  0  0  0  0
  189.7970  173.8840  139.0920 F   0  0  0  0  0  0  0  0  0  0  0  0
  189.0950  173.8800  137.8960 C   0  0  0  0  0  2  0  0  0  0  0  0
  189.3920  175.3530  145.8460 O   0  0  0  0  0  0  0  0  0  0  0  0
  185.9490  177.7800  147.6780 C   0  0  0  0  0  1  0  0  0  0  0  0
  188.0360  177.0880  144.9640 C   0  0  0  0  0  2  0  0  0  0  0  0
  188.6910  176.5110  146.1850 C   0  0  1  0  0  3  0  0  0  0  0  0
  186.3430  176.8480  146.6400 N   0  0  0  0  0  0  0  0  0  0  0  0
  186.7340  177.6450  145.4830 C   0  0  0  0  0  2  0  0  0  0  0  0
  187.5420  176.1670  147.1120 C   0  0  0  0  0  2  0  0  0  0  0  0
  1 14  2  0  0  0  0
  3 27  1  6  0  0  0
  3 10  1  0  0  0  0
  4 33  1  6  0  0  0
  4 28  1  0  0  0  0
  4  6  1  0  0  0  0
  5  2  1  0  0  0  0
  5 20  2  0  0  0  0
  6 51  1  1  0  0  0
  7 24  1  0  0  0  0
  8 11  1  0  0  0  0
  9 28  1  0  0  0  0
 10 25  1  1  0  0  0
 10 36  1  0  0  0  0
 11 16  1  0  0  0  0
 12 13  1  0  0  0  0
 12 14  1  0  0  0  0
 13  9  1  0  0  0  0
 16 21  1  0  0  0  0
 17 12  2  0  0  0  0
 18 29  1  0  0  0  0
 18 19  1  1  0  0  0
 18 22  1  0  0  0  0
 22  3  1  0  0  0  0
 23  6  1  0  0  0  0
 23  5  1  0  0  0  0
 24 21  1  0  0  0  0
 24  2  1  0  0  0  0
 25  1  2  0  0  0  0
 26 30  1  0  0  0  0
 26 22  1  0  0  0  0
 28 15  1  0  0  0  0
 29 27  1  0  0  0  0
 30  8  1  0  0  0  0
 31 33  1  0  0  0  0
 32 33  1  0  0  0  0
 34 35  1  0  0  0  0
 36 34  1  0  0  0  0
 36 35  1  0  0  0  0
 37 26  1  0  0  0  0
 38 37  1  0  0  0  0
 39 40  1  0  0  0  0
 40 38  1  0  0  0  0
 41 40  1  0  0  0  0
 42 41  1  0  0  0  0
 42 44  1  0  0  0  0
 42 43  1  0  0  0  0
 45 44  1  0  0  0  0
 45 46  1  0  0  0  0
 47 46  1  0  0  0  0
 48 47  1  0  0  0  0
 48 50  1  0  0  0  0
 50 49  1  0  0  0  0
 51 54  1  0  0  0  0
 53 56  1  0  0  0  0
 53 54  1  0  0  0  0
 54 57  1  0  0  0  0
 55 57  1  0  0  0  0
 55 52  1  0  0  0  0
 56 55  1  0  0  0  0
M  END
>  <MODEL>
4

>  <REMARK>
 VINA RESULT:      -5.9      4.395     10.973
  Name = 
  15 active torsions:
  status: ('A' for Active; 'I' for Inactive)
    1  A    between atoms: C_4  and  N_5
    2  A    between atoms: C_4  and  S_10
    3  A    between atoms: N_5  and  N_35
    4  A    between atoms: C_8  and  C_43
    5  A    between atoms: S_10  and  C_34
    6  A    between atoms: C_13  and  O_56
    7  A    between atoms: C_17  and  N_18
    8  A    between atoms: C_17  and  C_34
    9  A    between atoms: N_18  and  C_36
   10  A    between atoms: C_19  and  C_31
   11  A    between atoms: C_27  and  N_35
   12  A    between atoms: C_30  and  C_36
   13  A    between atoms: C_30  and  C_39
   14  A    between atoms: C_39  and  C_50
   15  A    between atoms: C_40  and  O_56
                            x       y       z     vdW  Elec       q    Type
                         _______ _______ _______ _____ _____    ______ ____

>  <TORSDO>
F 15

$$$$
=
 OpenBabel11072409083D

 57 60  0  0  1  0  0  0  0  0999 V2000
  195.1830  175.1920  142.3950 C   0  0  0  0  0  0  0  0  0  0  0  0
  188.0130  174.4810  141.0940 C   0  0  0  0  0  2  0  0  0  0  0  0
  195.6930  172.4260  141.0620 C   0  0  1  0  0  3  0  0  0  0  0  0
  189.9370  175.9890  145.3530 C   0  0  2  0  0  3  0  0  0  0  0  0
  187.8220  175.0080  142.4780 C   0  0  0  0  0  0  0  0  0  0  0  0
  188.7130  176.2010  144.4380 C   0  0  2  0  0  3  0  0  0  0  0  0
  189.0700  172.4670  141.8340 O   0  0  0  0  0  1  0  0  0  0  0  0
  192.7700  171.2900  139.5820 C   0  0  0  0  0  2  0  0  0  0  0  0
  192.4740  176.1560  145.5760 C   0  0  0  0  0  2  0  0  0  0  0  0
  195.7090  173.8200  140.4080 C   0  0  2  0  0  3  0  0  0  0  0  0
  191.3320  171.5740  139.9610 C   0  0  0  0  0  2  0  0  0  0  0  0
  193.9590  174.4760  144.3750 C   0  0  0  0  0  0  0  0  0  0  0  0
  193.0690  174.8310  145.4390 N   0  0  0  0  0  2  0  0  0  0  0  0
  194.3660  175.4800  143.3730 C   0  0  0  0  0  3  0  0  0  0  0  0
  191.3000  177.7250  144.0970 C   0  0  0  0  0  1  0  0  0  0  0  0
  190.8490  172.8120  139.2300 C   0  0  0  0  0  2  0  0  0  0  0  0
  194.4080  173.2980  144.3150 O   0  0  0  0  0  0  0  0  0  0  0  0
  197.2240  170.9520  140.1600 C   0  0  2  0  0  3  0  0  0  0  0  0
  197.9230  171.0850  138.8210 C   0  0  0  0  0  1  0  0  0  0  0  0
  186.6790  174.9550  142.9970 O   0  0  0  0  0  0  0  0  0  0  0  0
  189.3940  173.1140  139.5610 C   0  0  0  0  0  2  0  0  0  0  0  0
  195.7830  171.3430  140.0200 C   0  0  1  0  0  3  0  0  0  0  0  0
  188.8910  175.5740  143.1720 O   0  0  0  0  0  0  0  0  0  0  0  0
  189.2350  173.5800  141.0010 C   0  0  1  0  0  3  0  0  0  0  0  0
  195.9910  174.9210  141.4070 C   0  0  0  0  0  3  0  0  0  0  0  0
  194.8940  170.1360  140.3770 C   0  0  1  0  0  3  0  0  0  0  0  0
  196.8200  172.2480  141.8800 O   0  0  0  0  0  0  0  0  0  0  0  0
  191.2760  176.3040  144.6420 C   0  0  2  0  0  3  0  0  0  0  0  0
  197.8010  171.8420  141.0810 O   0  0  0  0  0  0  0  0  0  0  0  0
  193.4270  170.4740  140.6800 C   0  0  0  0  0  2  0  0  0  0  0  0
  189.4000  173.6220  145.0780 O   0  0  0  0  0  1  0  0  0  0  0  0
  189.1210  174.5480  147.2360 C   0  0  0  0  0  1  0  0  0  0  0  0
  189.9370  174.5680  145.9560 C   0  0  2  0  0  3  0  0  0  0  0  0
  194.8410  174.1720  138.0380 C   0  0  0  0  0  2  0  0  0  0  0  0
  194.5340  175.2870  138.8470 O   0  0  0  0  0  0  0  0  0  0  0  0
  194.4910  174.0250  139.4720 C   0  0  2  0  0  3  0  0  0  0  0  0
  195.0340  168.9770  139.3860 C   0  0  0  0  0  2  0  0  0  0  0  0
  194.3460  169.2530  138.0570 C   0  0  0  0  0  2  0  0  0  0  0  0
  196.3640  168.4420  137.0940 O   0  0  0  0  0  1  0  0  0  0  0  0
  194.9780  168.4210  136.9570 C   0  0  2  0  0  3  0  0  0  0  0  0
  194.6160  168.9750  135.6640 N   0  0  0  0  0  2  0  0  0  0  0  0
  194.4100  170.4010  135.8480 C   0  0  1  0  0  3  0  0  0  0  0  0
  195.5900  171.1590  135.2730 C   0  0  0  0  0  1  0  0  0  0  0  0
  193.1440  170.8370  135.1340 C   0  0  0  0  0  2  0  0  0  0  0  0
  191.7860  169.6700  135.4790 S   0  0  0  0  0  0  0  0  0  0  0  0
  190.6910  170.9770  136.1230 C   0  0  0  0  0  2  0  0  0  0  0  0
  189.7480  171.3840  135.0990 N   0  0  0  0  0  2  0  0  0  0  0  0
  190.1070  172.6780  134.7010 N   0  0  0  0  0  2  0  0  0  0  0  0
  190.4710  174.5930  135.9620 F   0  0  0  0  0  0  0  0  0  0  0  0
  189.5480  173.6000  135.6740 C   0  0  0  0  0  2  0  0  0  0  0  0
  188.4380  177.5650  144.2690 O   0  0  0  0  0  0  0  0  0  0  0  0
  184.3460  179.6500  144.2570 C   0  0  0  0  0  1  0  0  0  0  0  0
  186.8830  178.0070  146.0060 C   0  0  0  0  0  2  0  0  0  0  0  0
  187.0770  177.6990  144.5490 C   0  0  1  0  0  3  0  0  0  0  0  0
  185.7050  179.6760  144.7570 N   0  0  0  0  0  0  0  0  0  0  0  0
  185.7040  178.9480  146.0210 C   0  0  0  0  0  2  0  0  0  0  0  0
  186.5180  178.9060  143.8230 C   0  0  0  0  0  2  0  0  0  0  0  0
  1 14  2  0  0  0  0
  2  5  1  0  0  0  0
  3 27  1  1  0  0  0
  4 33  1  6  0  0  0
  5 20  2  0  0  0  0
  5 23  1  0  0  0  0
  6 51  1  6  0  0  0
  6  4  1  0  0  0  0
  8 11  1  0  0  0  0
  8 30  1  0  0  0  0
 10  3  1  0  0  0  0
 10 25  1  1  0  0  0
 12 13  1  0  0  0  0
 13  9  1  0  0  0  0
 14 12  1  0  0  0  0
 15 28  1  0  0  0  0
 16 21  1  0  0  0  0
 16 11  1  0  0  0  0
 17 12  2  0  0  0  0
 18 19  1  6  0  0  0
 18 29  1  0  0  0  0
 21 24  1  0  0  0  0
 22 18  1  0  0  0  0
 22 26  1  0  0  0  0
 22  3  1  0  0  0  0
 23  6  1  0  0  0  0
 24  2  1  0  0  0  0
 24  7  1  0  0  0  0
 25  1  2  0  0  0  0
 26 30  1  0  0  0  0
 28  4  1  0  0  0  0
 28  9  1  0  0  0  0
 29 27  1  0  0  0  0
 31 33  1  0  0  0  0
 33 32  1  0  0  0  0
 34 35  1  0  0  0  0
 34 36  1  0  0  0  0
 35 36  1  0  0  0  0
 36 10  1  0  0  0  0
 37 26  1  0  0  0  0
 38 37  1  0  0  0  0
 40 39  1  0  0  0  0
 40 38  1  0  0  0  0
 41 42  1  0  0  0  0
 41 40  1  0  0  0  0
 43 42  1  0  0  0  0
 44 45  1  0  0  0  0
 44 42  1  0  0  0  0
 45 46  1  0  0  0  0
 47 46  1  0  0  0  0
 48 47  1  0  0  0  0
 48 50  1  0  0  0  0
 50 49  1  0  0  0  0
 51 54  1  0  0  0  0
 52 55  1  0  0  0  0
 53 56  1  0  0  0  0
 54 53  1  0  0  0  0
 55 56  1  0  0  0  0
 57 54  1  0  0  0  0
 57 55  1  0  0  0  0
M  END
>  <MODEL>
5

>  <REMARK>
 VINA RESULT:      -5.6      4.038     10.871
  Name = 
  15 active torsions:
  status: ('A' for Active; 'I' for Inactive)
    1  A    between atoms: C_4  and  N_5
    2  A    between atoms: C_4  and  S_10
    3  A    between atoms: N_5  and  N_35
    4  A    between atoms: C_8  and  C_43
    5  A    between atoms: S_10  and  C_34
    6  A    between atoms: C_13  and  O_56
    7  A    between atoms: C_17  and  N_18
    8  A    between atoms: C_17  and  C_34
    9  A    between atoms: N_18  and  C_36
   10  A    between atoms: C_19  and  C_31
   11  A    between atoms: C_27  and  N_35
   12  A    between atoms: C_30  and  C_36
   13  A    between atoms: C_30  and  C_39
   14  A    between atoms: C_39  and  C_50
   15  A    between atoms: C_40  and  O_56
                            x       y       z     vdW  Elec       q    Type
                         _______ _______ _______ _____ _____    ______ ____

>  <TORSDO>
F 15

$$$$
=
 OpenBabel11072409083D

 57 60  0  0  1  0  0  0  0  0999 V2000
  194.9940  176.1530  140.7550 C   0  0  0  0  0  0  0  0  0  0  0  0
  187.8110  174.7890  140.3800 C   0  0  0  0  0  2  0  0  0  0  0  0
  195.5660  173.5510  139.1460 C   0  0  1  0  0  3  0  0  0  0  0  0
  190.1720  176.2010  144.4480 C   0  0  2  0  0  3  0  0  0  0  0  0
  187.7710  175.2000  141.8150 C   0  0  0  0  0  0  0  0  0  0  0  0
  188.8160  176.3450  143.7280 C   0  0  2  0  0  3  0  0  0  0  0  0
  189.1470  172.8520  140.8060 O   0  0  0  0  0  1  0  0  0  0  0  0
  192.5820  172.2190  137.9870 C   0  0  0  0  0  2  0  0  0  0  0  0
  192.6880  176.6150  144.3400 C   0  0  0  0  0  2  0  0  0  0  0  0
  195.3590  174.9800  138.6100 C   0  0  2  0  0  3  0  0  0  0  0  0
  191.1920  172.3260  138.5780 C   0  0  0  0  0  2  0  0  0  0  0  0
  194.1380  175.1830  142.8170 C   0  0  0  0  0  0  0  0  0  0  0  0
  193.3780  175.3720  144.0170 N   0  0  0  0  0  2  0  0  0  0  0  0
  194.3020  176.2890  141.8550 C   0  0  0  0  0  3  0  0  0  0  0  0
  191.1730  178.1490  143.1640 C   0  0  0  0  0  1  0  0  0  0  0  0
  190.4970  173.5530  138.0220 C   0  0  0  0  0  2  0  0  0  0  0  0
  194.6820  174.0650  142.6020 O   0  0  0  0  0  0  0  0  0  0  0  0
  197.0850  172.3080  137.9300 C   0  0  2  0  0  3  0  0  0  0  0  0
  197.5710  172.6020  136.5240 C   0  0  0  0  0  1  0  0  0  0  0  0
  186.7230  174.9940  142.4780 O   0  0  0  0  0  0  0  0  0  0  0  0
  189.0820  173.6790  138.5700 C   0  0  0  0  0  2  0  0  0  0  0  0
  195.6080  172.5560  138.0170 C   0  0  1  0  0  3  0  0  0  0  0  0
  188.8690  175.8270  142.4020 O   0  0  0  0  0  0  0  0  0  0  0  0
  189.0870  174.0290  140.0510 C   0  0  1  0  0  3  0  0  0  0  0  0
  195.6760  176.0340  139.6480 C   0  0  0  0  0  3  0  0  0  0  0  0
  194.8960  171.2410  138.3930 C   0  0  1  0  0  3  0  0  0  0  0  0
  196.8100  173.4370  139.7870 O   0  0  0  0  0  0  0  0  0  0  0  0
  191.3600  176.7000  143.5910 C   0  0  2  0  0  3  0  0  0  0  0  0
  197.7020  173.1890  138.8340 O   0  0  0  0  0  0  0  0  0  0  0  0
  193.4620  171.4040  138.9170 C   0  0  0  0  0  2  0  0  0  0  0  0
  189.7130  173.8230  144.1330 O   0  0  0  0  0  1  0  0  0  0  0  0
  189.9030  174.5980  146.3590 C   0  0  0  0  0  1  0  0  0  0  0  0
  190.3900  174.7500  144.9290 C   0  0  2  0  0  3  0  0  0  0  0  0
  194.1260  175.1980  136.3910 C   0  0  0  0  0  2  0  0  0  0  0  0
  193.9240  176.3480  137.1830 O   0  0  0  0  0  0  0  0  0  0  0  0
  194.0060  175.1190  137.8670 C   0  0  2  0  0  3  0  0  0  0  0  0
  195.0020  170.1710  137.3010 C   0  0  0  0  0  2  0  0  0  0  0  0
  195.4790  168.8300  137.8380 C   0  0  0  0  0  2  0  0  0  0  0  0
  197.8500  168.6450  137.8590 O   0  0  0  0  0  1  0  0  0  0  0  0
  196.7550  169.0090  138.6390 C   0  0  2  0  0  3  0  0  0  0  0  0
  196.7060  168.1670  139.8210 N   0  0  0  0  0  2  0  0  0  0  0  0
  197.4110  168.8690  140.8800 C   0  0  1  0  0  3  0  0  0  0  0  0
  197.0670  170.3430  140.8220 C   0  0  0  0  0  1  0  0  0  0  0  0
  196.9980  168.3150  142.2310 C   0  0  0  0  0  2  0  0  0  0  0  0
  195.2010  168.5050  142.4740 S   0  0  0  0  0  0  0  0  0  0  0  0
  195.4060  169.3510  144.0760 C   0  0  0  0  0  2  0  0  0  0  0  0
  194.3490  168.9530  144.9860 N   0  0  0  0  0  2  0  0  0  0  0  0
  193.1430  169.4070  144.4400 N   0  0  0  0  0  2  0  0  0  0  0  0
  191.9380  171.3650  144.1130 F   0  0  0  0  0  0  0  0  0  0  0  0
  193.1870  170.8580  144.4370 C   0  0  0  0  0  2  0  0  0  0  0  0
  188.3930  177.6810  143.7080 O   0  0  0  0  0  0  0  0  0  0  0  0
  184.1310  179.2880  144.3010 C   0  0  0  0  0  1  0  0  0  0  0  0
  187.0390  177.8950  145.6440 C   0  0  0  0  0  2  0  0  0  0  0  0
  187.0740  177.6530  144.1630 C   0  0  1  0  0  3  0  0  0  0  0  0
  185.5340  179.4540  144.6260 N   0  0  0  0  0  0  0  0  0  0  0  0
  185.7770  178.6960  145.8470 C   0  0  0  0  0  2  0  0  0  0  0  0
  186.2960  178.8080  143.5650 C   0  0  0  0  0  2  0  0  0  0  0  0
  1 14  2  0  0  0  0
  2  5  1  0  0  0  0
  3 27  1  6  0  0  0
  4 33  1  6  0  0  0
  5 23  1  0  0  0  0
  5 20  2  0  0  0  0
  6 51  1  6  0  0  0
  6  4  1  0  0  0  0
  8 11  1  0  0  0  0
  8 30  1  0  0  0  0
 10  3  1  0  0  0  0
 10 25  1  1  0  0  0
 12 13  1  0  0  0  0
 13  9  1  0  0  0  0
 14 12  1  0  0  0  0
 15 28  1  0  0  0  0
 16 21  1  0  0  0  0
 16 11  1  0  0  0  0
 17 12  2  0  0  0  0
 18 19  1  6  0  0  0
 18 22  1  0  0  0  0
 18 29  1  0  0  0  0
 21 24  1  0  0  0  0
 22 26  1  0  0  0  0
 22  3  1  0  0  0  0
 23  6  1  0  0  0  0
 24  2  1  0  0  0  0
 24  7  1  0  0  0  0
 25  1  2  0  0  0  0
 26 30  1  0  0  0  0
 28  9  1  0  0  0  0
 28  4  1  0  0  0  0
 29 27  1  0  0  0  0
 31 33  1  0  0  0  0
 33 32  1  0  0  0  0
 34 35  1  0  0  0  0
 34 36  1  0  0  0  0
 35 36  1  0  0  0  0
 36 10  1  0  0  0  0
 37 38  1  0  0  0  0
 37 26  1  0  0  0  0
 38 40  1  0  0  0  0
 39 40  1  0  0  0  0
 40 41  1  0  0  0  0
 41 42  1  0  0  0  0
 42 44  1  0  0  0  0
 43 42  1  0  0  0  0
 44 45  1  0  0  0  0
 45 46  1  0  0  0  0
 46 47  1  0  0  0  0
 48 47  1  0  0  0  0
 49 50  1  0  0  0  0
 50 48  1  0  0  0  0
 51 54  1  0  0  0  0
 52 55  1  0  0  0  0
 53 56  1  0  0  0  0
 54 53  1  0  0  0  0
 55 56  1  0  0  0  0
 57 54  1  0  0  0  0
 57 55  1  0  0  0  0
M  END
>  <MODEL>
6

>  <REMARK>
 VINA RESULT:      -5.4      4.173     11.587
  Name = 
  15 active torsions:
  status: ('A' for Active; 'I' for Inactive)
    1  A    between atoms: C_4  and  N_5
    2  A    between atoms: C_4  and  S_10
    3  A    between atoms: N_5  and  N_35
    4  A    between atoms: C_8  and  C_43
    5  A    between atoms: S_10  and  C_34
    6  A    between atoms: C_13  and  O_56
    7  A    between atoms: C_17  and  N_18
    8  A    between atoms: C_17  and  C_34
    9  A    between atoms: N_18  and  C_36
   10  A    between atoms: C_19  and  C_31
   11  A    between atoms: C_27  and  N_35
   12  A    between atoms: C_30  and  C_36
   13  A    between atoms: C_30  and  C_39
   14  A    between atoms: C_39  and  C_50
   15  A    between atoms: C_40  and  O_56
                            x       y       z     vdW  Elec       q    Type
                         _______ _______ _______ _____ _____    ______ ____

>  <TORSDO>
F 15

$$$$
=
 OpenBabel11072409083D

 57 60  0  0  1  0  0  0  0  0999 V2000
  191.0620  171.1880  140.1880 C   0  0  0  0  0  0  0  0  0  0  0  0
  192.3050  176.8330  144.6810 C   0  0  0  0  0  2  0  0  0  0  0  0
  193.7640  171.7460  138.7480 C   0  0  1  0  0  3  0  0  0  0  0  0
  188.0220  175.9350  142.4530 C   0  0  2  0  0  3  0  0  0  0  0  0
  190.8660  177.1720  144.4730 C   0  0  0  0  0  0  0  0  0  0  0  0
  188.6060  176.5020  143.7620 C   0  0  2  0  0  3  0  0  0  0  0  0
  192.8990  177.2550  142.4030 O   0  0  0  0  0  1  0  0  0  0  0  0
  195.5340  174.1640  140.4920 C   0  0  0  0  0  2  0  0  0  0  0  0
  187.8240  173.9020  140.9220 C   0  0  0  0  0  2  0  0  0  0  0  0
  193.4920  170.8110  139.9420 C   0  0  2  0  0  3  0  0  0  0  0  0
  195.0150  175.2900  141.3610 C   0  0  0  0  0  2  0  0  0  0  0  0
  189.8230  173.1760  139.5250 C   0  0  0  0  0  0  0  0  0  0  0  0
  188.7210  174.0550  139.7820 N   0  0  0  0  0  2  0  0  0  0  0  0
  190.0710  172.0140  140.3990 C   0  0  0  0  0  3  0  0  0  0  0  0
  188.0860  173.5560  143.3380 C   0  0  0  0  0  1  0  0  0  0  0  0
  194.8800  174.8070  142.7920 C   0  0  0  0  0  2  0  0  0  0  0  0
  190.5670  173.3960  138.5290 O   0  0  0  0  0  0  0  0  0  0  0  0
  195.4000  170.9770  137.3130 C   0  0  2  0  0  3  0  0  0  0  0  0
  196.4370  169.9120  137.6140 C   0  0  0  0  0  1  0  0  0  0  0  0
  190.4360  178.2810  144.8810 O   0  0  0  0  0  0  0  0  0  0  0  0
  194.3880  175.9220  143.7050 C   0  0  0  0  0  2  0  0  0  0  0  0
  195.2430  171.8810  138.5000 C   0  0  1  0  0  3  0  0  0  0  0  0
  190.0070  176.2620  143.8590 O   0  0  0  0  0  0  0  0  0  0  0  0
  192.9400  176.2860  143.4120 C   0  0  1  0  0  3  0  0  0  0  0  0
  192.0500  170.3560  139.9990 C   0  0  0  0  0  3  0  0  0  0  0  0
  195.6210  173.3180  138.0940 C   0  0  1  0  0  3  0  0  0  0  0  0
  193.2360  171.2070  137.5650 O   0  0  0  0  0  0  0  0  0  0  0  0
  188.4620  174.4750  142.1850 C   0  0  2  0  0  3  0  0  0  0  0  0
  194.1530  170.3680  137.0940 O   0  0  0  0  0  0  0  0  0  0  0  0
  195.1320  174.4160  139.0500 C   0  0  0  0  0  2  0  0  0  0  0  0
  188.9630  178.0440  141.6590 O   0  0  0  0  0  1  0  0  0  0  0  0
  187.0810  177.2010  140.5030 C   0  0  0  0  0  1  0  0  0  0  0  0
  188.3520  176.8540  141.2570 C   0  0  2  0  0  3  0  0  0  0  0  0
  194.5090  170.3290  142.2280 C   0  0  0  0  0  2  0  0  0  0  0  0
  193.2980  171.0400  142.3670 O   0  0  0  0  0  0  0  0  0  0  0  0
  194.0970  171.3700  141.2540 C   0  0  2  0  0  3  0  0  0  0  0  0
  197.1040  173.4690  137.7410 C   0  0  0  0  0  2  0  0  0  0  0  0
  197.3500  173.4990  136.2400 C   0  0  0  0  0  2  0  0  0  0  0  0
  197.5450  175.7840  136.8690 O   0  0  0  0  0  1  0  0  0  0  0  0
  197.5810  174.9240  135.7740 C   0  0  2  0  0  3  0  0  0  0  0  0
  196.5400  175.3000  134.8340 N   0  0  0  0  0  2  0  0  0  0  0  0
  195.8770  176.4750  135.3730 C   0  0  1  0  0  3  0  0  0  0  0  0
  196.2440  177.6870  134.5410 C   0  0  0  0  0  1  0  0  0  0  0  0
  194.3720  176.2830  135.3340 C   0  0  0  0  0  2  0  0  0  0  0  0
  193.9560  174.6680  134.5950 S   0  0  0  0  0  0  0  0  0  0  0  0
  192.7010  174.2970  135.8640 C   0  0  0  0  0  2  0  0  0  0  0  0
  191.4650  174.9910  135.5580 N   0  0  0  0  0  2  0  0  0  0  0  0
  190.5830  174.0450  135.0250 N   0  0  0  0  0  2  0  0  0  0  0  0
  188.8580  174.7230  136.4250 F   0  0  0  0  0  0  0  0  0  0  0  0
  189.2470  174.6100  135.0990 C   0  0  0  0  0  2  0  0  0  0  0  0
  187.9460  175.9740  144.8810 O   0  0  0  0  0  0  0  0  0  0  0  0
  186.9300  178.8380  148.3250 C   0  0  0  0  0  1  0  0  0  0  0  0
  185.8730  176.7610  145.7240 C   0  0  0  0  0  2  0  0  0  0  0  0
  187.3230  177.0670  145.4860 C   0  0  1  0  0  3  0  0  0  0  0  0
  186.8040  177.4910  147.8060 N   0  0  0  0  0  0  0  0  0  0  0  0
  185.5690  177.4520  147.0300 C   0  0  0  0  0  2  0  0  0  0  0  0
  187.9020  177.2900  146.8690 C   0  0  0  0  0  2  0  0  0  0  0  0
  1 14  2  0  0  0  0
  3 27  1  6  0  0  0
  3 10  1  0  0  0  0
  4 33  1  6  0  0  0
  4  6  1  0  0  0  0
  5  2  1  0  0  0  0
  5 20  2  0  0  0  0
  6 23  1  0  0  0  0
  6 51  1  1  0  0  0
  7 24  1  0  0  0  0
  8 11  1  0  0  0  0
  9 28  1  0  0  0  0
 10 25  1  1  0  0  0
 10 36  1  0  0  0  0
 11 16  1  0  0  0  0
 12 13  1  0  0  0  0
 12 14  1  0  0  0  0
 13  9  1  0  0  0  0
 16 21  1  0  0  0  0
 17 12  2  0  0  0  0
 18 19  1  1  0  0  0
 18 22  1  0  0  0  0
 22  3  1  0  0  0  0
 23  5  1  0  0  0  0
 24 21  1  0  0  0  0
 24  2  1  0  0  0  0
 25  1  2  0  0  0  0
 26 22  1  0  0  0  0
 26 30  1  0  0  0  0
 28  4  1  0  0  0  0
 28 15  1  0  0  0  0
 29 18  1  0  0  0  0
 29 27  1  0  0  0  0
 30  8  1  0  0  0  0
 32 33  1  0  0  0  0
 33 31  1  0  0  0  0
 34 35  1  0  0  0  0
 36 34  1  0  0  0  0
 36 35  1  0  0  0  0
 37 26  1  0  0  0  0
 38 37  1  0  0  0  0
 40 38  1  0  0  0  0
 40 39  1  0  0  0  0
 41 42  1  0  0  0  0
 41 40  1  0  0  0  0
 43 42  1  0  0  0  0
 44 42  1  0  0  0  0
 45 44  1  0  0  0  0
 45 46  1  0  0  0  0
 47 46  1  0  0  0  0
 48 50  1  0  0  0  0
 48 47  1  0  0  0  0
 50 49  1  0  0  0  0
 51 54  1  0  0  0  0
 53 56  1  0  0  0  0
 54 53  1  0  0  0  0
 54 57  1  0  0  0  0
 55 52  1  0  0  0  0
 56 55  1  0  0  0  0
 57 55  1  0  0  0  0
M  END
>  <MODEL>
7

>  <REMARK>
 VINA RESULT:      -5.3      4.312     10.989
  Name = 
  15 active torsions:
  status: ('A' for Active; 'I' for Inactive)
    1  A    between atoms: C_4  and  N_5
    2  A    between atoms: C_4  and  S_10
    3  A    between atoms: N_5  and  N_35
    4  A    between atoms: C_8  and  C_43
    5  A    between atoms: S_10  and  C_34
    6  A    between atoms: C_13  and  O_56
    7  A    between atoms: C_17  and  N_18
    8  A    between atoms: C_17  and  C_34
    9  A    between atoms: N_18  and  C_36
   10  A    between atoms: C_19  and  C_31
   11  A    between atoms: C_27  and  N_35
   12  A    between atoms: C_30  and  C_36
   13  A    between atoms: C_30  and  C_39
   14  A    between atoms: C_39  and  C_50
   15  A    between atoms: C_40  and  O_56
                            x       y       z     vdW  Elec       q    Type
                         _______ _______ _______ _____ _____    ______ ____

>  <TORSDO>
F 15

$$$$
=
 OpenBabel11072409083D

 57 60  0  0  1  0  0  0  0  0999 V2000
  193.9710  174.0690  145.2460 C   0  0  0  0  0  0  0  0  0  0  0  0
  193.5530  172.0420  138.2230 C   0  0  0  0  0  2  0  0  0  0  0  0
  191.1870  175.4400  145.0100 C   0  0  1  0  0  3  0  0  0  0  0  0
  197.5310  174.0120  140.3240 C   0  0  2  0  0  3  0  0  0  0  0  0
  194.9860  172.4550  138.1340 C   0  0  0  0  0  0  0  0  0  0  0  0
  197.1160  172.9900  139.2470 C   0  0  2  0  0  3  0  0  0  0  0  0
  192.7730  174.2640  138.6410 O   0  0  0  0  0  1  0  0  0  0  0  0
  189.7620  174.6610  141.9470 C   0  0  0  0  0  2  0  0  0  0  0  0
  197.4420  174.6460  142.7940 C   0  0  0  0  0  2  0  0  0  0  0  0
  191.5090  173.9970  145.4440 C   0  0  2  0  0  3  0  0  0  0  0  0
  190.4380  174.3300  140.6320 C   0  0  0  0  0  2  0  0  0  0  0  0
  195.2730  175.5250  143.7930 C   0  0  0  0  0  0  0  0  0  0  0  0
  196.4520  175.6980  142.9980 N   0  0  0  0  0  2  0  0  0  0  0  0
  195.0310  174.2560  144.5050 C   0  0  0  0  0  3  0  0  0  0  0  0
  197.3910  172.2730  142.1680 C   0  0  0  0  0  1  0  0  0  0  0  0
  190.6770  172.8350  140.5470 C   0  0  0  0  0  2  0  0  0  0  0  0
  194.4530  176.4800  143.8950 O   0  0  0  0  0  0  0  0  0  0  0  0
  189.3720  176.3610  146.0990 C   0  0  2  0  0  3  0  0  0  0  0  0
  188.2990  175.6070  146.8600 C   0  0  0  0  0  1  0  0  0  0  0  0
  195.5270  172.5350  137.0030 O   0  0  0  0  0  0  0  0  0  0  0  0
  191.3280  172.4570  139.2230 C   0  0  0  0  0  2  0  0  0  0  0  0
  189.7040  175.6290  144.8330 C   0  0  1  0  0  3  0  0  0  0  0  0
  195.7180  172.7210  139.2900 O   0  0  0  0  0  0  0  0  0  0  0  0
  192.7630  172.9580  139.1450 C   0  0  1  0  0  3  0  0  0  0  0  0
  192.9150  173.8590  145.9840 C   0  0  0  0  0  3  0  0  0  0  0  0
  189.3880  176.5350  143.6270 C   0  0  1  0  0  3  0  0  0  0  0  0
  191.5610  176.3530  146.0080 O   0  0  0  0  0  0  0  0  0  0  0  0
  196.9690  173.6660  141.7240 C   0  0  2  0  0  3  0  0  0  0  0  0
  190.5480  176.4050  146.8670 O   0  0  0  0  0  0  0  0  0  0  0  0
  190.0400  176.1100  142.3040 C   0  0  0  0  0  2  0  0  0  0  0  0
  195.7670  175.6300  139.8380 O   0  0  0  0  0  1  0  0  0  0  0  0
  197.7350  175.7570  138.5330 C   0  0  0  0  0  1  0  0  0  0  0  0
  197.1510  175.4470  139.9000 C   0  0  2  0  0  3  0  0  0  0  0  0
  189.7020  172.4320  144.5610 C   0  0  0  0  0  2  0  0  0  0  0  0
  190.8470  171.7000  144.9400 O   0  0  0  0  0  0  0  0  0  0  0  0
  191.0720  172.9680  144.3700 C   0  0  2  0  0  3  0  0  0  0  0  0
  187.8910  176.8250  143.4740 C   0  0  0  0  0  2  0  0  0  0  0  0
  187.5900  177.7640  142.3150 C   0  0  0  0  0  2  0  0  0  0  0  0
  186.0330  178.2250  140.5780 O   0  0  0  0  0  1  0  0  0  0  0  0
  186.3340  177.3180  141.5920 C   0  0  2  0  0  3  0  0  0  0  0  0
  185.2280  177.2640  142.5310 N   0  0  0  0  0  2  0  0  0  0  0  0
  184.3680  178.4010  142.2500 C   0  0  1  0  0  3  0  0  0  0  0  0
  183.1240  177.9250  141.5270 C   0  0  0  0  0  1  0  0  0  0  0  0
  183.9610  179.0740  143.5480 C   0  0  0  0  0  2  0  0  0  0  0  0
  185.4120  179.3050  144.6270 S   0  0  0  0  0  0  0  0  0  0  0  0
  184.7850  178.1460  145.8880 C   0  0  0  0  0  2  0  0  0  0  0  0
  184.8730  178.7500  147.2030 N   0  0  0  0  0  2  0  0  0  0  0  0
  186.1060  178.3740  147.7480 N   0  0  0  0  0  2  0  0  0  0  0  0
  187.9860  179.3220  148.7280 F   0  0  0  0  0  0  0  0  0  0  0  0
  186.6470  179.5330  148.4350 C   0  0  0  0  0  2  0  0  0  0  0  0
  197.8420  171.7980  139.3720 O   0  0  0  0  0  0  0  0  0  0  0  0
  195.0900  168.1690  139.9580 C   0  0  0  0  0  1  0  0  0  0  0  0
  197.7140  169.7130  138.2480 C   0  0  0  0  0  2  0  0  0  0  0  0
  196.9630  170.7910  138.9740 C   0  0  1  0  0  3  0  0  0  0  0  0
  196.4520  168.6600  139.9900 N   0  0  0  0  0  0  0  0  0  0  0  0
  197.0100  168.4440  138.6590 C   0  0  0  0  0  2  0  0  0  0  0  0
  196.3810  170.1020  140.1920 C   0  0  0  0  0  2  0  0  0  0  0  0
  1 25  2  0  0  0  0
  2 24  1  0  0  0  0
  3 10  1  0  0  0  0
  3 27  1  1  0  0  0
  4 33  1  6  0  0  0
  4 28  1  0  0  0  0
  5  2  1  0  0  0  0
  5 23  1  0  0  0  0
  6 23  1  0  0  0  0
  6 51  1  1  0  0  0
  6  4  1  0  0  0  0
  7 24  1  0  0  0  0
  8 30  1  0  0  0  0
  9 13  1  0  0  0  0
 10 25  1  6  0  0  0
 11  8  1  0  0  0  0
 12 17  2  0  0  0  0
 12 14  1  0  0  0  0
 13 12  1  0  0  0  0
 14  1  2  0  0  0  0
 16 11  1  0  0  0  0
 18 19  1  1  0  0  0
 18 29  1  0  0  0  0
 20  5  2  0  0  0  0
 21 16  1  0  0  0  0
 22  3  1  0  0  0  0
 22 18  1  0  0  0  0
 24 21  1  0  0  0  0
 26 22  1  0  0  0  0
 27 29  1  0  0  0  0
 28 15  1  0  0  0  0
 28  9  1  0  0  0  0
 30 26  1  0  0  0  0
 31 33  1  0  0  0  0
 32 33  1  0  0  0  0
 34 35  1  0  0  0  0
 36 34  1  0  0  0  0
 36 35  1  0  0  0  0
 36 10  1  0  0  0  0
 37 26  1  0  0  0  0
 38 37  1  0  0  0  0
 39 40  1  0  0  0  0
 40 38  1  0  0  0  0
 40 41  1  0  0  0  0
 42 41  1  0  0  0  0
 42 44  1  0  0  0  0
 43 42  1  0  0  0  0
 44 45  1  0  0  0  0
 45 46  1  0  0  0  0
 46 47  1  0  0  0  0
 47 48  1  0  0  0  0
 48 50  1  0  0  0  0
 50 49  1  0  0  0  0
 52 55  1  0  0  0  0
 53 56  1  0  0  0  0
 53 54  1  0  0  0  0
 54 51  1  0  0  0  0
 54 57  1  0  0  0  0
 55 57  1  0  0  0  0
 56 55  1  0  0  0  0
M  END
>  <MODEL>
8

>  <REMARK>
 VINA RESULT:      -5.2      2.940      3.804
  Name = 
  15 active torsions:
  status: ('A' for Active; 'I' for Inactive)
    1  A    between atoms: C_4  and  N_5
    2  A    between atoms: C_4  and  S_10
    3  A    between atoms: N_5  and  N_35
    4  A    between atoms: C_8  and  C_43
    5  A    between atoms: S_10  and  C_34
    6  A    between atoms: C_13  and  O_56
    7  A    between atoms: C_17  and  N_18
    8  A    between atoms: C_17  and  C_34
    9  A    between atoms: N_18  and  C_36
   10  A    between atoms: C_19  and  C_31
   11  A    between atoms: C_27  and  N_35
   12  A    between atoms: C_30  and  C_36
   13  A    between atoms: C_30  and  C_39
   14  A    between atoms: C_39  and  C_50
   15  A    between atoms: C_40  and  O_56
                            x       y       z     vdW  Elec       q    Type
                         _______ _______ _______ _____ _____    ______ ____

>  <TORSDO>
F 15

$$$$
=
 OpenBabel11072409083D

 57 60  0  0  1  0  0  0  0  0999 V2000
  190.0280  171.5290  139.3690 C   0  0  0  0  0  0  0  0  0  0  0  0
  192.0760  176.1640  144.6530 C   0  0  0  0  0  2  0  0  0  0  0  0
  192.8100  171.8580  138.0110 C   0  0  1  0  0  3  0  0  0  0  0  0
  187.7440  176.3060  142.3450 C   0  0  2  0  0  3  0  0  0  0  0  0
  190.7130  176.7560  144.5090 C   0  0  0  0  0  0  0  0  0  0  0  0
  188.3880  176.5700  143.7210 C   0  0  2  0  0  3  0  0  0  0  0  0
  192.7690  176.8230  142.4610 O   0  0  0  0  0  1  0  0  0  0  0  0
  194.9110  173.6720  140.0880 C   0  0  0  0  0  2  0  0  0  0  0  0
  187.2520  174.5850  140.5270 C   0  0  0  0  0  2  0  0  0  0  0  0
  192.3720  170.8100  139.0510 C   0  0  2  0  0  3  0  0  0  0  0  0
  194.5630  174.7240  141.1200 C   0  0  0  0  0  2  0  0  0  0  0  0
  189.1330  173.7670  139.0220 C   0  0  0  0  0  0  0  0  0  0  0  0
  188.1810  174.7620  139.4160 N   0  0  0  0  0  2  0  0  0  0  0  0
  189.1790  172.4620  139.7090 C   0  0  0  0  0  3  0  0  0  0  0  0
  187.4130  173.8430  142.8610 C   0  0  0  0  0  1  0  0  0  0  0  0
  194.3280  174.0590  142.4630 C   0  0  0  0  0  2  0  0  0  0  0  0
  189.9200  174.0110  138.0660 O   0  0  0  0  0  0  0  0  0  0  0  0
  194.3280  171.0610  136.4650 C   0  0  2  0  0  3  0  0  0  0  0  0
  195.1770  169.8120  136.5940 C   0  0  0  0  0  1  0  0  0  0  0  0
  190.4580  177.8450  145.0830 O   0  0  0  0  0  0  0  0  0  0  0  0
  194.0050  175.0890  143.5370 C   0  0  0  0  0  2  0  0  0  0  0  0
  194.2950  171.7900  137.7750 C   0  0  1  0  0  3  0  0  0  0  0  0
  189.7310  176.0970  143.7710 O   0  0  0  0  0  0  0  0  0  0  0  0
  192.6380  175.7190  143.3120 C   0  0  1  0  0  3  0  0  0  0  0  0
  190.8750  170.5880  139.0490 C   0  0  0  0  0  3  0  0  0  0  0  0
  194.9040  173.1940  137.5880 C   0  0  1  0  0  3  0  0  0  0  0  0
  192.2230  171.5940  136.7640 O   0  0  0  0  0  0  0  0  0  0  0  0
  187.9500  174.8520  141.8570 C   0  0  2  0  0  3  0  0  0  0  0  0
  193.0030  170.7000  136.1650 O   0  0  0  0  0  0  0  0  0  0  0  0
  194.5790  174.1990  138.7030 C   0  0  0  0  0  2  0  0  0  0  0  0
  188.9880  178.3560  141.8790 O   0  0  0  0  0  1  0  0  0  0  0  0
  187.0510  177.9520  140.5830 C   0  0  0  0  0  1  0  0  0  0  0  0
  188.2370  177.3300  141.3000 C   0  0  2  0  0  3  0  0  0  0  0  0
  193.8490  169.9270  140.9310 C   0  0  0  0  0  2  0  0  0  0  0  0
  192.5420  170.1720  141.4040 O   0  0  0  0  0  0  0  0  0  0  0  0
  193.0360  171.0620  140.4290 C   0  0  2  0  0  3  0  0  0  0  0  0
  196.3980  173.1570  137.2520 C   0  0  0  0  0  2  0  0  0  0  0  0
  197.2810  173.2870  138.4840 C   0  0  0  0  0  2  0  0  0  0  0  0
  197.9410  171.1440  137.6910 O   0  0  0  0  0  1  0  0  0  0  0  0
  197.9010  171.9460  138.8300 C   0  0  2  0  0  3  0  0  0  0  0  0
  197.1010  171.2920  139.8500 N   0  0  0  0  0  2  0  0  0  0  0  0
  197.9160  171.2100  141.0490 C   0  0  1  0  0  3  0  0  0  0  0  0
  197.8060  172.5080  141.8230 C   0  0  0  0  0  1  0  0  0  0  0  0
  197.4330  170.0680  141.9250 C   0  0  0  0  0  2  0  0  0  0  0  0
  197.6470  170.4830  143.6870 S   0  0  0  0  0  0  0  0  0  0  0  0
  196.9050  168.9160  144.2500 C   0  0  0  0  0  2  0  0  0  0  0  0
  195.4720  168.9380  144.0270 N   0  0  0  0  0  2  0  0  0  0  0  0
  194.8690  169.2470  145.2520 N   0  0  0  0  0  2  0  0  0  0  0  0
  196.0270  169.4340  147.2560 F   0  0  0  0  0  0  0  0  0  0  0  0
  195.6020  168.5390  146.2860 C   0  0  0  0  0  2  0  0  0  0  0  0
  187.6330  175.9930  144.7520 O   0  0  0  0  0  0  0  0  0  0  0  0
  186.0490  178.4480  148.2950 C   0  0  0  0  0  1  0  0  0  0  0  0
  185.4970  176.9190  145.2040 C   0  0  0  0  0  2  0  0  0  0  0  0
  186.9820  177.0610  145.3700 C   0  0  1  0  0  3  0  0  0  0  0  0
  185.9330  177.2170  147.5400 N   0  0  0  0  0  0  0  0  0  0  0  0
  184.9380  177.4530  146.5000 C   0  0  0  0  0  2  0  0  0  0  0  0
  187.2090  177.0080  146.8670 C   0  0  0  0  0  2  0  0  0  0  0  0
  1 14  2  0  0  0  0
  3 27  1  6  0  0  0
  3 10  1  0  0  0  0
  4 33  1  6  0  0  0
  4  6  1  0  0  0  0
  5  2  1  0  0  0  0
  5 20  2  0  0  0  0
  6 23  1  0  0  0  0
  6 51  1  1  0  0  0
  7 24  1  0  0  0  0
  8 11  1  0  0  0  0
  9 28  1  0  0  0  0
 10 25  1  1  0  0  0
 10 36  1  0  0  0  0
 11 16  1  0  0  0  0
 12 13  1  0  0  0  0
 12 14  1  0  0  0  0
 13  9  1  0  0  0  0
 16 21  1  0  0  0  0
 17 12  2  0  0  0  0
 18 19  1  1  0  0  0
 18 22  1  0  0  0  0
 22  3  1  0  0  0  0
 23  5  1  0  0  0  0
 24 21  1  0  0  0  0
 24  2  1  0  0  0  0
 25  1  2  0  0  0  0
 26 22  1  0  0  0  0
 26 30  1  0  0  0  0
 28  4  1  0  0  0  0
 28 15  1  0  0  0  0
 29 18  1  0  0  0  0
 29 27  1  0  0  0  0
 30  8  1  0  0  0  0
 32 33  1  0  0  0  0
 33 31  1  0  0  0  0
 34 35  1  0  0  0  0
 36 34  1  0  0  0  0
 36 35  1  0  0  0  0
 37 26  1  0  0  0  0
 37 38  1  0  0  0  0
 38 40  1  0  0  0  0
 39 40  1  0  0  0  0
 40 41  1  0  0  0  0
 41 42  1  0  0  0  0
 42 43  1  0  0  0  0
 42 44  1  0  0  0  0
 44 45  1  0  0  0  0
 45 46  1  0  0  0  0
 47 46  1  0  0  0  0
 47 48  1  0  0  0  0
 48 50  1  0  0  0  0
 50 49  1  0  0  0  0
 51 54  1  0  0  0  0
 53 54  1  0  0  0  0
 53 56  1  0  0  0  0
 54 57  1  0  0  0  0
 55 52  1  0  0  0  0
 56 55  1  0  0  0  0
 57 55  1  0  0  0  0
M  END
>  <MODEL>
9

>  <REMARK>
 VINA RESULT:      -4.6      4.841     12.126
  Name = 
  15 active torsions:
  status: ('A' for Active; 'I' for Inactive)
    1  A    between atoms: C_4  and  N_5
    2  A    between atoms: C_4  and  S_10
    3  A    between atoms: N_5  and  N_35
    4  A    between atoms: C_8  and  C_43
    5  A    between atoms: S_10  and  C_34
    6  A    between atoms: C_13  and  O_56
    7  A    between atoms: C_17  and  N_18
    8  A    between atoms: C_17  and  C_34
    9  A    between atoms: N_18  and  C_36
   10  A    between atoms: C_19  and  C_31
   11  A    between atoms: C_27  and  N_35
   12  A    between atoms: C_30  and  C_36
   13  A    between atoms: C_30  and  C_39
   14  A    between atoms: C_39  and  C_50
   15  A    between atoms: C_40  and  O_56
                            x       y       z     vdW  Elec       q    Type
                         _______ _______ _______ _____ _____    ______ ____

>  <TORSDO>
F 15

$$$$
