=
 OpenBabel11062422243D

 36 41  0  0  1  0  0  0  0  0999 V2000
  190.6630  174.1280  142.5290 C   0  0  0  0  0  0  0  0  0  0  0  0
  190.0410  173.4630  140.3570 C   0  0  0  0  0  3  0  0  0  0  0  0
  189.3740  175.5300  143.7840 O   0  0  0  0  0  0  0  0  0  0  0  0
  188.3800  174.5970  141.7780 C   0  0  0  0  0  0  0  0  0  0  0  0
  191.5030  174.8630  143.1430 N   0  0  0  0  0  0  0  0  0  0  0  0
  188.7180  174.0950  140.5750 C   0  0  0  0  0  3  0  0  0  0  0  0
  190.7560  175.6650  144.0990 C   0  0  1  0  0  0  0  0  0  0  0  0
  189.2850  174.3840  142.9670 C   0  0  1  0  0  3  0  0  0  0  0  0
  191.1590  177.1250  143.9300 C   0  0  0  0  0  1  0  0  0  0  0  0
  190.9580  173.5010  141.2790 N   0  0  0  0  0  0  0  0  0  0  0  0
  192.2500  175.6960  146.0950 N   0  0  0  0  0  0  0  0  0  0  0  0
  191.9940  176.5080  147.1970 N   0  0  0  0  0  0  0  0  0  0  0  0
  190.7320  176.5430  147.4510 C   0  0  0  0  0  3  0  0  0  0  0  0
  191.0110  175.1640  145.5400 C   0  0  1  0  0  3  0  0  0  0  0  0
  189.9410  175.6970  146.5030 C   0  0  1  0  0  3  0  0  0  0  0  0
  189.3180  174.5380  147.2560 C   0  0  0  0  0  1  0  0  0  0  0  0
  195.6290  175.2170  145.2120 N   0  0  0  0  0  0  0  0  0  0  0  0
  195.2690  173.9350  145.4220 C   0  0  0  0  0  3  0  0  0  0  0  0
  193.5630  175.2120  145.7930 C   0  0  0  0  0  0  0  0  0  0  0  0
  194.5880  175.9990  145.4340 N   0  0  0  0  0  2  0  0  0  0  0  0
  193.9360  173.8840  145.7980 C   0  0  0  0  0  3  0  0  0  0  0  0
  187.0990  175.1980  141.9870 N   0  0  0  0  0  2  0  0  0  0  0  0
  186.8480  176.6300  141.8880 C   0  0  0  0  0  2  0  0  0  0  0  0
  184.5420  178.9130  144.1760 C   0  0  1  0  0  3  0  0  0  0  0  0
  185.5160  177.0070  145.4560 C   0  0  0  0  0  3  0  0  0  0  0  0
  183.9350  177.8690  141.8490 C   0  0  2  0  0  3  0  0  0  0  0  0
  186.0440  177.0930  143.0620 C   0  0  0  0  0  0  0  0  0  0  0  0
  185.4280  180.1390  144.3080 C   0  0  0  0  0  1  0  0  0  0  0  0
  186.2810  176.5700  144.2690 C   0  0  0  0  0  3  0  0  0  0  0  0
  184.9320  178.1020  142.9280 C   0  0  2  0  0  0  0  0  0  0  0  0
  184.6900  178.0620  145.4110 C   0  0  0  0  0  3  0  0  0  0  0  0
  184.9560  178.8420  141.7320 O   0  0  0  0  0  0  0  0  0  0  0  0
  182.6670  178.5310  142.1190 N   0  0  0  0  0  2  0  0  0  0  0  0
  181.7790  178.2150  141.0130 C   0  0  0  0  0  2  0  0  0  0  0  0
  180.3470  178.5660  141.3740 C   0  0  0  0  0  2  0  0  0  0  0  0
  179.7020  177.4490  141.8740 F   0  0  0  0  0  0  0  0  0  0  0  0
  1  8  1  0  0  0  0
  1  5  2  0  0  0  0
  2  6  1  0  0  0  0
  2 10  2  0  0  0  0
  3  7  1  0  0  0  0
  4 22  1  0  0  0  0
  5  7  1  0  0  0  0
  6  4  2  0  0  0  0
  7  9  1  6  0  0  0
  7 14  1  0  0  0  0
  8  4  1  6  0  0  0
  8  3  1  0  0  0  0
 10  1  1  0  0  0  0
 11 12  1  0  0  0  0
 12 13  2  0  0  0  0
 14 11  1  1  0  0  0
 14 15  1  0  0  0  0
 15 16  1  1  0  0  0
 15 13  1  0  0  0  0
 17 18  2  0  0  0  0
 17 20  1  0  0  0  0
 18 21  1  0  0  0  0
 19 21  2  0  0  0  0
 19 11  1  0  0  0  0
 20 19  1  0  0  0  0
 23 22  1  0  0  0  0
 23 27  1  0  0  0  0
 24 28  1  1  0  0  0
 24 31  1  0  0  0  0
 26 33  1  1  0  0  0
 26 30  1  0  0  0  0
 27 29  2  0  0  0  0
 29 25  1  0  0  0  0
 30 32  1  6  0  0  0
 30 27  1  0  0  0  0
 30 24  1  0  0  0  0
 31 25  2  0  0  0  0
 32 26  1  0  0  0  0
 34 35  1  0  0  0  0
 34 33  1  0  0  0  0
 35 36  1  0  0  0  0
M  END
>  <MODEL>
1

>  <REMARK>
 VINA RESULT:      -8.0      0.000      0.000
  Name = 
  8 active torsions:
  status: ('A' for Active; 'I' for Inactive)
    1  A    between atoms: C_5  and  C_11
    2  A    between atoms: C_5  and  N_28
    3  A    between atoms: N_6  and  C_20
    4  A    between atoms: C_8  and  N_28
    5  A    between atoms: C_9  and  C_31
    6  A    between atoms: C_12  and  N_18
    7  A    between atoms: N_18  and  C_31
    8  A    between atoms: C_21  and  C_23
                            x       y       z     vdW  Elec       q    Type
                         _______ _______ _______ _____ _____    ______ ____

>  <TORSDO>
F 8

$$$$
=
 OpenBabel11062422243D

 36 41  0  0  1  0  0  0  0  0999 V2000
  185.1090  177.7440  145.7000 C   0  0  0  0  0  0  0  0  0  0  0  0
  185.0130  178.0990  148.0260 C   0  0  0  0  0  3  0  0  0  0  0  0
  187.0620  177.8970  144.5290 O   0  0  0  0  0  0  0  0  0  0  0  0
  187.2120  177.8410  146.9490 C   0  0  0  0  0  0  0  0  0  0  0  0
  184.7740  178.2840  144.5960 N   0  0  0  0  0  0  0  0  0  0  0  0
  186.4950  178.1260  148.0520 C   0  0  0  0  0  3  0  0  0  0  0  0
  185.9400  178.2500  143.7270 C   0  0  1  0  0  0  0  0  0  0  0  0
  186.5210  177.3390  145.7060 C   0  0  1  0  0  3  0  0  0  0  0  0
  186.1630  179.6450  143.1560 C   0  0  0  0  0  1  0  0  0  0  0  0
  184.3690  177.9370  146.9070 N   0  0  0  0  0  0  0  0  0  0  0  0
  185.1150  177.7650  141.4240 N   0  0  0  0  0  0  0  0  0  0  0  0
  185.9720  177.7150  140.3280 N   0  0  0  0  0  0  0  0  0  0  0  0
  187.0840  177.1490  140.6470 C   0  0  0  0  0  3  0  0  0  0  0  0
  185.7490  177.1990  142.6090 C   0  0  1  0  0  3  0  0  0  0  0  0
  187.1060  176.7120  142.0780 C   0  0  1  0  0  3  0  0  0  0  0  0
  187.1590  175.1990  142.1450 C   0  0  0  0  0  1  0  0  0  0  0  0
  181.7030  178.5610  141.8110 N   0  0  0  0  0  0  0  0  0  0  0  0
  181.7050  178.2150  140.5080 C   0  0  0  0  0  3  0  0  0  0  0  0
  183.7150  178.0290  141.2870 C   0  0  0  0  0  0  0  0  0  0  0  0
  182.9280  178.4450  142.2900 N   0  0  0  0  0  2  0  0  0  0  0  0
  182.9880  177.8590  140.1260 C   0  0  0  0  0  3  0  0  0  0  0  0
  188.6430  177.8590  146.9810 N   0  0  0  0  0  2  0  0  0  0  0  0
  189.4740  176.6700  146.8480 C   0  0  0  0  0  2  0  0  0  0  0  0
  192.5800  176.2140  144.4170 C   0  0  1  0  0  3  0  0  0  0  0  0
  190.9950  177.9480  143.5770 C   0  0  0  0  0  3  0  0  0  0  0  0
  191.0190  174.3360  145.3680 C   0  0  2  0  0  3  0  0  0  0  0  0
  190.3440  176.7840  145.6360 C   0  0  0  0  0  0  0  0  0  0  0  0
  193.6690  176.8640  145.2530 C   0  0  0  0  0  1  0  0  0  0  0  0
  190.1500  177.7920  144.7800 C   0  0  0  0  0  3  0  0  0  0  0  0
  191.4110  175.7700  145.3140 C   0  0  2  0  0  0  0  0  0  0  0  0
  192.0940  177.2020  143.3880 C   0  0  0  0  0  3  0  0  0  0  0  0
  191.7800  174.9470  146.3920 O   0  0  0  0  0  0  0  0  0  0  0  0
  191.8880  173.4960  144.5580 N   0  0  0  0  0  2  0  0  0  0  0  0
  191.1970  172.2320  144.3630 C   0  0  0  0  0  2  0  0  0  0  0  0
  189.6990  172.4240  144.5180 C   0  0  0  0  0  2  0  0  0  0  0  0
  189.2340  171.6560  145.5690 F   0  0  0  0  0  0  0  0  0  0  0  0
  1  8  1  0  0  0  0
  1 10  1  0  0  0  0
  2  6  1  0  0  0  0
  4 22  1  0  0  0  0
  4  6  2  0  0  0  0
  5  1  2  0  0  0  0
  7  9  1  6  0  0  0
  7  3  1  0  0  0  0
  7  5  1  0  0  0  0
  8  3  1  6  0  0  0
  8  4  1  0  0  0  0
 10  2  2  0  0  0  0
 12 13  2  0  0  0  0
 12 11  1  0  0  0  0
 13 15  1  0  0  0  0
 14 11  1  6  0  0  0
 14  7  1  0  0  0  0
 15 16  1  6  0  0  0
 15 14  1  0  0  0  0
 17 20  1  0  0  0  0
 18 17  2  0  0  0  0
 19 11  1  0  0  0  0
 19 20  1  0  0  0  0
 21 18  1  0  0  0  0
 21 19  2  0  0  0  0
 23 22  1  0  0  0  0
 24 28  1  1  0  0  0
 24 30  1  0  0  0  0
 25 29  1  0  0  0  0
 26 33  1  6  0  0  0
 26 32  1  0  0  0  0
 27 23  1  0  0  0  0
 29 27  2  0  0  0  0
 30 26  1  0  0  0  0
 30 27  1  1  0  0  0
 30 32  1  0  0  0  0
 31 25  2  0  0  0  0
 31 24  1  0  0  0  0
 34 35  1  0  0  0  0
 34 33  1  0  0  0  0
 35 36  1  0  0  0  0
M  END
>  <MODEL>
2

>  <REMARK>
 VINA RESULT:      -7.7      3.005      8.861
  Name = 
  8 active torsions:
  status: ('A' for Active; 'I' for Inactive)
    1  A    between atoms: C_5  and  C_11
    2  A    between atoms: C_5  and  N_28
    3  A    between atoms: N_6  and  C_20
    4  A    between atoms: C_8  and  N_28
    5  A    between atoms: C_9  and  C_31
    6  A    between atoms: C_12  and  N_18
    7  A    between atoms: N_18  and  C_31
    8  A    between atoms: C_21  and  C_23
                            x       y       z     vdW  Elec       q    Type
                         _______ _______ _______ _____ _____    ______ ____

>  <TORSDO>
F 8

$$$$
=
 OpenBabel11062422243D

 36 41  0  0  1  0  0  0  0  0999 V2000
  190.5400  173.2700  143.3920 C   0  0  0  0  0  0  0  0  0  0  0  0
  188.9130  172.5570  141.8470 C   0  0  0  0  0  3  0  0  0  0  0  0
  190.6450  175.4250  144.1370 O   0  0  0  0  0  0  0  0  0  0  0  0
  188.6570  174.7600  142.9160 C   0  0  0  0  0  0  0  0  0  0  0  0
  191.7880  173.5120  143.4850 N   0  0  0  0  0  0  0  0  0  0  0  0
  188.2370  173.8680  142.0000 C   0  0  0  0  0  3  0  0  0  0  0  0
  191.9290  174.8110  144.1240 C   0  0  1  0  0  0  0  0  0  0  0  0
  189.7270  174.3790  143.9100 C   0  0  1  0  0  3  0  0  0  0  0  0
  192.8740  175.6650  143.2880 C   0  0  0  0  0  1  0  0  0  0  0  0
  190.0100  172.2940  142.4950 N   0  0  0  0  0  0  0  0  0  0  0  0
  193.8960  174.5750  145.6390 N   0  0  0  0  0  0  0  0  0  0  0  0
  194.4150  175.6550  146.3490 N   0  0  0  0  0  0  0  0  0  0  0  0
  193.4670  176.4080  146.7870 C   0  0  0  0  0  3  0  0  0  0  0  0
  192.4410  174.6450  145.5740 C   0  0  1  0  0  3  0  0  0  0  0  0
  192.1130  175.8880  146.4150 C   0  0  1  0  0  3  0  0  0  0  0  0
  191.3700  175.4680  147.6670 C   0  0  0  0  0  1  0  0  0  0  0  0
  196.2630  172.2120  144.5300 N   0  0  0  0  0  0  0  0  0  0  0  0
  195.3830  171.3830  145.1270 C   0  0  0  0  0  2  0  0  0  0  0  0
  194.6790  173.4180  145.3300 C   0  0  0  0  0  0  0  0  0  0  0  0
  195.8340  173.4550  144.6490 N   0  0  0  0  0  0  0  0  0  0  0  0
  194.3380  172.1210  145.6570 C   0  0  0  0  0  3  0  0  0  0  0  0
  187.9960  176.0210  143.0670 N   0  0  0  0  0  2  0  0  0  0  0  0
  186.6840  176.3220  142.5100 C   0  0  0  0  0  2  0  0  0  0  0  0
  184.4390  179.0870  144.2630 C   0  0  1  0  0  3  0  0  0  0  0  0
  185.1030  177.2880  145.8580 C   0  0  0  0  0  3  0  0  0  0  0  0
  183.9260  177.8030  142.0360 C   0  0  2  0  0  3  0  0  0  0  0  0
  185.8360  177.0070  143.5340 C   0  0  0  0  0  0  0  0  0  0  0  0
  185.4320  180.2350  144.3270 C   0  0  0  0  0  1  0  0  0  0  0  0
  185.9160  176.6300  144.8130 C   0  0  0  0  0  3  0  0  0  0  0  0
  184.8480  178.0860  143.1690 C   0  0  2  0  0  0  0  0  0  0  0  0
  184.3960  178.3990  145.6030 C   0  0  0  0  0  3  0  0  0  0  0  0
  185.0470  178.6550  141.8990 O   0  0  0  0  0  0  0  0  0  0  0  0
  182.7150  178.6070  142.0990 N   0  0  0  0  0  2  0  0  0  0  0  0
  181.9480  178.3140  140.8990 C   0  0  0  0  0  2  0  0  0  0  0  0
  180.4900  178.6810  141.1070 C   0  0  0  0  0  2  0  0  0  0  0  0
  180.3340  179.3150  142.3260 F   0  0  0  0  0  0  0  0  0  0  0  0
  1  5  2  0  0  0  0
  1  8  1  0  0  0  0
  2  6  1  0  0  0  0
  2 10  2  0  0  0  0
  4 22  1  0  0  0  0
  5  7  1  0  0  0  0
  6  4  2  0  0  0  0
  7  9  1  6  0  0  0
  7  3  1  0  0  0  0
  7 14  1  0  0  0  0
  8  4  1  6  0  0  0
  8  3  1  0  0  0  0
 10  1  1  0  0  0  0
 11 12  1  0  0  0  0
 12 13  2  0  0  0  0
 14 11  1  6  0  0  0
 14 15  1  0  0  0  0
 15 13  1  0  0  0  0
 15 16  1  1  0  0  0
 17 20  2  0  0  0  0
 17 18  1  0  0  0  0
 18 21  1  0  0  0  0
 19 11  1  0  0  0  0
 19 21  2  0  0  0  0
 20 19  1  0  0  0  0
 23 22  1  0  0  0  0
 23 27  1  0  0  0  0
 24 28  1  1  0  0  0
 24 31  1  0  0  0  0
 26 33  1  1  0  0  0
 26 30  1  0  0  0  0
 27 29  2  0  0  0  0
 29 25  1  0  0  0  0
 30 32  1  6  0  0  0
 30 27  1  0  0  0  0
 30 24  1  0  0  0  0
 31 25  2  0  0  0  0
 32 26  1  0  0  0  0
 34 35  1  0  0  0  0
 34 33  1  0  0  0  0
 35 36  1  0  0  0  0
M  END
>  <MODEL>
3

>  <REMARK>
 VINA RESULT:      -7.7      1.366      1.664
  Name = 
  8 active torsions:
  status: ('A' for Active; 'I' for Inactive)
    1  A    between atoms: C_5  and  C_11
    2  A    between atoms: C_5  and  N_28
    3  A    between atoms: N_6  and  C_20
    4  A    between atoms: C_8  and  N_28
    5  A    between atoms: C_9  and  C_31
    6  A    between atoms: C_12  and  N_18
    7  A    between atoms: N_18  and  C_31
    8  A    between atoms: C_21  and  C_23
                            x       y       z     vdW  Elec       q    Type
                         _______ _______ _______ _____ _____    ______ ____

>  <TORSDO>
F 8

$$$$
=
 OpenBabel11062422243D

 36 41  0  0  1  0  0  0  0  0999 V2000
  191.5650  174.5330  145.3260 C   0  0  0  0  0  0  0  0  0  0  0  0
  192.2220  175.5580  147.3420 C   0  0  0  0  0  3  0  0  0  0  0  0
  189.3730  174.3430  144.7190 O   0  0  0  0  0  0  0  0  0  0  0  0
  189.8940  175.8100  146.5790 C   0  0  0  0  0  0  0  0  0  0  0  0
  191.4900  173.3900  144.7690 N   0  0  0  0  0  0  0  0  0  0  0  0
  190.8200  176.0030  147.5360 C   0  0  0  0  0  3  0  0  0  0  0  0
  190.1570  173.2750  144.1970 C   0  0  1  0  0  0  0  0  0  0  0  0
  190.3010  175.2750  145.2280 C   0  0  1  0  0  3  0  0  0  0  0  0
  189.5470  171.9530  144.6450 C   0  0  0  0  0  1  0  0  0  0  0  0
  192.5570  174.8480  146.3050 N   0  0  0  0  0  0  0  0  0  0  0  0
  191.5650  173.1510  142.1430 N   0  0  0  0  0  0  0  0  0  0  0  0
  191.6030  172.0130  141.3410 N   0  0  0  0  0  0  0  0  0  0  0  0
  190.4310  171.4900  141.2400 C   0  0  0  0  0  3  0  0  0  0  0  0
  190.2200  173.3830  142.6550 C   0  0  1  0  0  3  0  0  0  0  0  0
  189.3980  172.2670  141.9940 C   0  0  1  0  0  3  0  0  0  0  0  0
  188.4110  172.8780  141.0200 C   0  0  0  0  0  1  0  0  0  0  0  0
  193.6450  175.9950  142.0570 N   0  0  0  0  0  0  0  0  0  0  0  0
  194.5810  175.0390  142.2250 C   0  0  0  0  0  2  0  0  0  0  0  0
  192.6300  174.1070  142.1600 C   0  0  0  0  0  0  0  0  0  0  0  0
  192.4530  175.4290  142.0140 N   0  0  0  0  0  0  0  0  0  0  0  0
  193.9680  173.7990  142.2940 C   0  0  0  0  0  3  0  0  0  0  0  0
  188.5450  176.2500  146.7670 N   0  0  0  0  0  2  0  0  0  0  0  0
  188.1630  177.6440  146.9530 C   0  0  0  0  0  2  0  0  0  0  0  0
  185.1800  178.6240  144.5250 C   0  0  1  0  0  3  0  0  0  0  0  0
  184.3870  178.2600  146.8620 C   0  0  0  0  0  3  0  0  0  0  0  0
  186.9700  176.7450  144.1620 C   0  0  2  0  0  3  0  0  0  0  0  0
  186.7730  177.8670  146.4480 C   0  0  0  0  0  0  0  0  0  0  0  0
  185.4900  180.0950  144.3020 C   0  0  0  0  0  1  0  0  0  0  0  0
  185.7740  178.0270  147.3200 C   0  0  0  0  0  3  0  0  0  0  0  0
  186.4440  177.8730  144.9770 C   0  0  2  0  0  0  0  0  0  0  0  0
  184.1040  178.5020  145.5740 C   0  0  0  0  0  3  0  0  0  0  0  0
  187.5540  178.0330  144.1300 O   0  0  0  0  0  0  0  0  0  0  0  0
  186.1970  176.5360  142.9470 N   0  0  0  0  0  2  0  0  0  0  0  0
  187.1440  176.2250  141.8890 C   0  0  0  0  0  2  0  0  0  0  0  0
  187.1300  177.3170  140.8350 C   0  0  0  0  0  2  0  0  0  0  0  0
  188.2070  178.1640  141.0220 F   0  0  0  0  0  0  0  0  0  0  0  0
  1 10  1  0  0  0  0
  2  6  1  0  0  0  0
  4 22  1  0  0  0  0
  4  6  2  0  0  0  0
  5  1  2  0  0  0  0
  7  9  1  1  0  0  0
  7  3  1  0  0  0  0
  7  5  1  0  0  0  0
  8  3  1  1  0  0  0
  8  1  1  0  0  0  0
  8  4  1  0  0  0  0
 10  2  2  0  0  0  0
 11 19  1  0  0  0  0
 12 11  1  0  0  0  0
 13 12  2  0  0  0  0
 13 15  1  0  0  0  0
 14 11  1  6  0  0  0
 14  7  1  0  0  0  0
 15 16  1  6  0  0  0
 15 14  1  0  0  0  0
 17 18  1  0  0  0  0
 18 21  1  0  0  0  0
 19 21  2  0  0  0  0
 20 17  2  0  0  0  0
 20 19  1  0  0  0  0
 22 23  1  0  0  0  0
 24 28  1  1  0  0  0
 24 30  1  0  0  0  0
 24 31  1  0  0  0  0
 25 29  1  0  0  0  0
 26 33  1  6  0  0  0
 26 30  1  0  0  0  0
 27 23  1  0  0  0  0
 27 29  2  0  0  0  0
 30 32  1  6  0  0  0
 30 27  1  0  0  0  0
 31 25  2  0  0  0  0
 32 26  1  0  0  0  0
 34 33  1  0  0  0  0
 35 36  1  0  0  0  0
 35 34  1  0  0  0  0
M  END
>  <MODEL>
4

>  <REMARK>
 VINA RESULT:      -7.4      2.653      4.775
  Name = 
  8 active torsions:
  status: ('A' for Active; 'I' for Inactive)
    1  A    between atoms: C_5  and  C_11
    2  A    between atoms: C_5  and  N_28
    3  A    between atoms: N_6  and  C_20
    4  A    between atoms: C_8  and  N_28
    5  A    between atoms: C_9  and  C_31
    6  A    between atoms: C_12  and  N_18
    7  A    between atoms: N_18  and  C_31
    8  A    between atoms: C_21  and  C_23
                            x       y       z     vdW  Elec       q    Type
                         _______ _______ _______ _____ _____    ______ ____

>  <TORSDO>
F 8

$$$$
=
 OpenBabel11062422243D

 36 41  0  0  1  0  0  0  0  0999 V2000
  192.3350  176.2160  146.3690 C   0  0  0  0  0  0  0  0  0  0  0  0
  191.0040  177.2050  148.0420 C   0  0  0  0  0  3  0  0  0  0  0  0
  191.5150  175.7290  144.2960 O   0  0  0  0  0  0  0  0  0  0  0  0
  190.1600  177.1410  145.7290 C   0  0  0  0  0  0  0  0  0  0  0  0
  192.8910  175.1120  146.0620 N   0  0  0  0  0  0  0  0  0  0  0  0
  189.9420  177.4150  147.0290 C   0  0  0  0  0  3  0  0  0  0  0  0
  192.5510  174.8290  144.6760 C   0  0  1  0  0  0  0  0  0  0  0  0
  191.5420  176.7590  145.2580 C   0  0  1  0  0  3  0  0  0  0  0  0
  192.0210  173.4030  144.5860 C   0  0  0  0  0  1  0  0  0  0  0  0
  192.1220  176.6200  147.7230 N   0  0  0  0  0  0  0  0  0  0  0  0
  194.6410  173.8620  143.7210 N   0  0  0  0  0  0  0  0  0  0  0  0
  194.6880  173.3280  142.4360 N   0  0  0  0  0  0  0  0  0  0  0  0
  193.9850  174.0380  141.6230 C   0  0  0  0  0  3  0  0  0  0  0  0
  193.7820  175.0400  143.7650 C   0  0  1  0  0  3  0  0  0  0  0  0
  193.3550  175.2150  142.3000 C   0  0  1  0  0  3  0  0  0  0  0  0
  193.9520  176.4950  141.7510 C   0  0  0  0  0  1  0  0  0  0  0  0
  196.6900  172.2500  146.0930 N   0  0  0  0  0  0  0  0  0  0  0  0
  197.0480  173.5300  146.3210 C   0  0  0  0  0  2  0  0  0  0  0  0
  195.5750  173.4860  144.7380 C   0  0  0  0  0  0  0  0  0  0  0  0
  195.7880  172.2200  145.1280 N   0  0  0  0  0  0  0  0  0  0  0  0
  196.3480  174.3660  145.4670 C   0  0  0  0  0  3  0  0  0  0  0  0
  189.1350  177.3540  144.7540 N   0  0  0  0  0  2  0  0  0  0  0  0
  188.0490  176.4170  144.4980 C   0  0  0  0  0  2  0  0  0  0  0  0
  184.9290  178.8710  144.5380 C   0  0  1  0  0  3  0  0  0  0  0  0
  184.9640  177.3880  146.5440 C   0  0  0  0  0  3  0  0  0  0  0  0
  185.6930  177.3060  142.5790 C   0  0  2  0  0  3  0  0  0  0  0  0
  186.7410  177.0270  144.8920 C   0  0  0  0  0  0  0  0  0  0  0  0
  185.6270  180.1850  144.8470 C   0  0  0  0  0  1  0  0  0  0  0  0
  186.2480  176.7960  146.1120 C   0  0  0  0  0  3  0  0  0  0  0  0
  185.9250  177.8640  143.9390 C   0  0  2  0  0  0  0  0  0  0  0  0
  184.3360  178.3180  145.8090 C   0  0  0  0  0  3  0  0  0  0  0  0
  186.6340  178.3350  142.8200 O   0  0  0  0  0  0  0  0  0  0  0  0
  184.5120  177.8730  141.9460 N   0  0  0  0  0  2  0  0  0  0  0  0
  184.9570  178.5380  140.7330 C   0  0  0  0  0  2  0  0  0  0  0  0
  185.6330  177.5430  139.8080 C   0  0  0  0  0  2  0  0  0  0  0  0
  186.9390  177.9320  139.5730 F   0  0  0  0  0  0  0  0  0  0  0  0
  1 10  1  0  0  0  0
  3  7  1  0  0  0  0
  4  6  2  0  0  0  0
  5  1  2  0  0  0  0
  6  2  1  0  0  0  0
  7  9  1  6  0  0  0
  7  5  1  0  0  0  0
  8  3  1  6  0  0  0
  8  4  1  0  0  0  0
  8  1  1  0  0  0  0
 10  2  2  0  0  0  0
 11 19  1  0  0  0  0
 12 11  1  0  0  0  0
 13 15  1  0  0  0  0
 13 12  2  0  0  0  0
 14 11  1  6  0  0  0
 14  7  1  0  0  0  0
 15 16  1  6  0  0  0
 15 14  1  0  0  0  0
 17 18  1  0  0  0  0
 19 20  1  0  0  0  0
 19 21  2  0  0  0  0
 20 17  2  0  0  0  0
 21 18  1  0  0  0  0
 22  4  1  0  0  0  0
 23 22  1  0  0  0  0
 23 27  1  0  0  0  0
 24 28  1  1  0  0  0
 24 31  1  0  0  0  0
 26 33  1  6  0  0  0
 26 32  1  0  0  0  0
 26 30  1  0  0  0  0
 27 29  2  0  0  0  0
 29 25  1  0  0  0  0
 30 32  1  6  0  0  0
 30 24  1  0  0  0  0
 30 27  1  0  0  0  0
 31 25  2  0  0  0  0
 34 33  1  0  0  0  0
 35 34  1  0  0  0  0
 36 35  1  0  0  0  0
M  END
>  <MODEL>
5

>  <REMARK>
 VINA RESULT:      -7.3      2.656      4.325
  Name = 
  8 active torsions:
  status: ('A' for Active; 'I' for Inactive)
    1  A    between atoms: C_5  and  C_11
    2  A    between atoms: C_5  and  N_28
    3  A    between atoms: N_6  and  C_20
    4  A    between atoms: C_8  and  N_28
    5  A    between atoms: C_9  and  C_31
    6  A    between atoms: C_12  and  N_18
    7  A    between atoms: N_18  and  C_31
    8  A    between atoms: C_21  and  C_23
                            x       y       z     vdW  Elec       q    Type
                         _______ _______ _______ _____ _____    ______ ____

>  <TORSDO>
F 8

$$$$
=
 OpenBabel11062422243D

 36 41  0  0  1  0  0  0  0  0999 V2000
  185.5680  177.4240  145.7040 C   0  0  0  0  0  0  0  0  0  0  0  0
  185.6880  177.7020  148.0390 C   0  0  0  0  0  3  0  0  0  0  0  0
  187.3940  177.6690  144.3570 O   0  0  0  0  0  0  0  0  0  0  0  0
  187.7790  177.5420  146.7490 C   0  0  0  0  0  0  0  0  0  0  0  0
  185.1140  177.9870  144.6560 N   0  0  0  0  0  0  0  0  0  0  0  0
  187.1650  177.7710  147.9240 C   0  0  0  0  0  3  0  0  0  0  0  0
  186.1910  178.0150  143.6790 C   0  0  1  0  0  0  0  0  0  0  0  0
  186.9840  177.0590  145.5610 C   0  0  1  0  0  3  0  0  0  0  0  0
  186.3220  179.4330  143.1370 C   0  0  0  0  0  1  0  0  0  0  0  0
  184.9440  177.5570  146.9820 N   0  0  0  0  0  0  0  0  0  0  0  0
  185.2810  177.6110  141.3920 N   0  0  0  0  0  0  0  0  0  0  0  0
  186.1050  177.5400  140.2720 N   0  0  0  0  0  0  0  0  0  0  0  0
  187.1970  176.9170  140.5510 C   0  0  0  0  0  3  0  0  0  0  0  0
  185.9200  176.9940  142.5490 C   0  0  1  0  0  3  0  0  0  0  0  0
  187.2370  176.4530  141.9730 C   0  0  1  0  0  3  0  0  0  0  0  0
  187.2200  174.9380  142.0130 C   0  0  0  0  0  1  0  0  0  0  0  0
  181.9090  178.5020  141.8970 N   0  0  0  0  0  0  0  0  0  0  0  0
  181.8860  178.2840  140.5660 C   0  0  0  0  0  3  0  0  0  0  0  0
  183.8920  177.9430  141.2980 C   0  0  0  0  0  0  0  0  0  0  0  0
  183.1320  178.2910  142.3470 N   0  0  0  0  0  2  0  0  0  0  0  0
  183.1500  177.9160  140.1350 C   0  0  0  0  0  3  0  0  0  0  0  0
  189.2050  177.6010  146.6440 N   0  0  0  0  0  2  0  0  0  0  0  0
  190.0990  176.5590  147.1340 C   0  0  0  0  0  2  0  0  0  0  0  0
  191.4540  175.1100  143.6950 C   0  0  1  0  0  3  0  0  0  0  0  0
  189.9580  173.4860  144.8570 C   0  0  0  0  0  3  0  0  0  0  0  0
  192.8600  176.1760  145.6330 C   0  0  2  0  0  3  0  0  0  0  0  0
  190.4070  175.5900  146.0370 C   0  0  0  0  0  0  0  0  0  0  0  0
  190.6520  175.9510  142.7170 C   0  0  0  0  0  1  0  0  0  0  0  0
  189.6930  174.4650  145.9330 C   0  0  0  0  0  3  0  0  0  0  0  0
  191.5360  175.8110  145.0620 C   0  0  2  0  0  0  0  0  0  0  0  0
  190.7920  173.7640  143.8440 C   0  0  0  0  0  3  0  0  0  0  0  0
  192.0180  177.1310  145.0160 O   0  0  0  0  0  0  0  0  0  0  0  0
  193.9570  175.8470  144.7340 N   0  0  0  0  0  2  0  0  0  0  0  0
  195.1820  175.9180  145.5140 C   0  0  0  0  0  2  0  0  0  0  0  0
  195.7250  174.5230  145.7640 C   0  0  0  0  0  2  0  0  0  0  0  0
  197.0310  174.4410  145.3150 F   0  0  0  0  0  0  0  0  0  0  0  0
  1 10  1  0  0  0  0
  4  6  2  0  0  0  0
  5  1  2  0  0  0  0
  6  2  1  0  0  0  0
  7  9  1  6  0  0  0
  7  3  1  0  0  0  0
  7  5  1  0  0  0  0
  8  3  1  6  0  0  0
  8  1  1  0  0  0  0
  8  4  1  0  0  0  0
 10  2  2  0  0  0  0
 12 13  2  0  0  0  0
 12 11  1  0  0  0  0
 13 15  1  0  0  0  0
 14 11  1  6  0  0  0
 14  7  1  0  0  0  0
 15 16  1  6  0  0  0
 15 14  1  0  0  0  0
 17 20  1  0  0  0  0
 18 17  2  0  0  0  0
 19 11  1  0  0  0  0
 19 20  1  0  0  0  0
 21 18  1  0  0  0  0
 21 19  2  0  0  0  0
 22  4  1  0  0  0  0
 22 23  1  0  0  0  0
 24 28  1  6  0  0  0
 24 31  1  0  0  0  0
 24 30  1  0  0  0  0
 25 29  1  0  0  0  0
 26 33  1  6  0  0  0
 27 23  1  0  0  0  0
 29 27  2  0  0  0  0
 30 32  1  6  0  0  0
 30 26  1  0  0  0  0
 30 27  1  0  0  0  0
 31 25  2  0  0  0  0
 32 26  1  0  0  0  0
 33 34  1  0  0  0  0
 34 35  1  0  0  0  0
 36 35  1  0  0  0  0
M  END
>  <MODEL>
6

>  <REMARK>
 VINA RESULT:      -7.3      3.605      9.313
  Name = 
  8 active torsions:
  status: ('A' for Active; 'I' for Inactive)
    1  A    between atoms: C_5  and  C_11
    2  A    between atoms: C_5  and  N_28
    3  A    between atoms: N_6  and  C_20
    4  A    between atoms: C_8  and  N_28
    5  A    between atoms: C_9  and  C_31
    6  A    between atoms: C_12  and  N_18
    7  A    between atoms: N_18  and  C_31
    8  A    between atoms: C_21  and  C_23
                            x       y       z     vdW  Elec       q    Type
                         _______ _______ _______ _____ _____    ______ ____

>  <TORSDO>
F 8

$$$$
=
 OpenBabel11062422243D

 36 41  0  0  1  0  0  0  0  0999 V2000
  191.7870  173.4970  144.3070 C   0  0  0  0  0  0  0  0  0  0  0  0
  189.6870  172.6920  145.0080 C   0  0  0  0  0  3  0  0  0  0  0  0
  192.4610  175.6390  144.7100 O   0  0  0  0  0  0  0  0  0  0  0  0
  190.4880  174.8510  145.8810 C   0  0  0  0  0  0  0  0  0  0  0  0
  192.4260  173.8290  143.2570 N   0  0  0  0  0  0  0  0  0  0  0  0
  189.4970  173.9460  145.7760 C   0  0  0  0  0  3  0  0  0  0  0  0
  193.0370  175.1230  143.5150 C   0  0  1  0  0  0  0  0  0  0  0  0
  191.8630  174.5320  145.3470 C   0  0  1  0  0  3  0  0  0  0  0  0
  192.7000  176.0600  142.3610 C   0  0  0  0  0  1  0  0  0  0  0  0
  190.7640  172.4990  144.3030 N   0  0  0  0  0  0  0  0  0  0  0  0
  195.3130  175.5280  142.5790 N   0  0  0  0  0  0  0  0  0  0  0  0
  196.1000  176.6000  142.9900 N   0  0  0  0  0  0  0  0  0  0  0  0
  195.9830  176.7900  144.2580 C   0  0  0  0  0  3  0  0  0  0  0  0
  194.5650  174.9710  143.7000 C   0  0  1  0  0  3  0  0  0  0  0  0
  195.0580  175.8010  144.8940 C   0  0  1  0  0  3  0  0  0  0  0  0
  195.8400  174.9100  145.8390 C   0  0  0  0  0  1  0  0  0  0  0  0
  195.5620  173.3420  139.8250 N   0  0  0  0  0  0  0  0  0  0  0  0
  195.9840  174.4830  139.2440 C   0  0  0  0  0  3  0  0  0  0  0  0
  195.4960  174.8890  141.3120 C   0  0  0  0  0  0  0  0  0  0  0  0
  195.2660  173.5860  141.0890 N   0  0  0  0  0  2  0  0  0  0  0  0
  195.9610  175.5110  140.1710 C   0  0  0  0  0  3  0  0  0  0  0  0
  190.3030  176.0550  146.6310 N   0  0  0  0  0  2  0  0  0  0  0  0
  189.7530  177.2830  146.0710 C   0  0  0  0  0  2  0  0  0  0  0  0
  186.0800  177.7030  144.6240 C   0  0  1  0  0  3  0  0  0  0  0  0
  186.0590  176.7900  146.9460 C   0  0  0  0  0  3  0  0  0  0  0  0
  188.1070  176.4940  143.4850 C   0  0  2  0  0  3  0  0  0  0  0  0
  188.2660  177.1670  145.9430 C   0  0  0  0  0  0  0  0  0  0  0  0
  185.9520  179.2170  144.6570 C   0  0  0  0  0  1  0  0  0  0  0  0
  187.5320  176.9030  147.0270 C   0  0  0  0  0  3  0  0  0  0  0  0
  187.5620  177.2920  144.6160 C   0  0  2  0  0  0  0  0  0  0  0  0
  185.3900  177.1250  145.8330 C   0  0  0  0  0  3  0  0  0  0  0  0
  188.3300  177.8860  143.6000 O   0  0  0  0  0  0  0  0  0  0  0  0
  187.1090  176.2500  142.4530 N   0  0  0  0  0  2  0  0  0  0  0  0
  187.8090  175.6830  141.3120 C   0  0  0  0  0  2  0  0  0  0  0  0
  189.0470  174.9370  141.7740 C   0  0  0  0  0  2  0  0  0  0  0  0
  188.7570  173.5920  141.9220 F   0  0  0  0  0  0  0  0  0  0  0  0
  2  6  1  0  0  0  0
  3  8  1  0  0  0  0
  4 22  1  0  0  0  0
  5  7  1  0  0  0  0
  5  1  2  0  0  0  0
  6  4  2  0  0  0  0
  7  9  1  6  0  0  0
  7 14  1  0  0  0  0
  7  3  1  0  0  0  0
  8  1  1  6  0  0  0
  8  4  1  0  0  0  0
 10  1  1  0  0  0  0
 10  2  2  0  0  0  0
 11 12  1  0  0  0  0
 12 13  2  0  0  0  0
 13 15  1  0  0  0  0
 14 11  1  6  0  0  0
 14 15  1  0  0  0  0
 15 16  1  1  0  0  0
 17 20  1  0  0  0  0
 18 17  2  0  0  0  0
 18 21  1  0  0  0  0
 19 11  1  0  0  0  0
 20 19  1  0  0  0  0
 21 19  2  0  0  0  0
 23 22  1  0  0  0  0
 24 28  1  1  0  0  0
 24 31  1  0  0  0  0
 25 29  1  0  0  0  0
 26 33  1  6  0  0  0
 26 32  1  0  0  0  0
 26 30  1  0  0  0  0
 27 23  1  0  0  0  0
 27 29  2  0  0  0  0
 30 32  1  6  0  0  0
 30 24  1  0  0  0  0
 30 27  1  0  0  0  0
 31 25  2  0  0  0  0
 34 35  1  0  0  0  0
 34 33  1  0  0  0  0
 35 36  1  0  0  0  0
M  END
>  <MODEL>
7

>  <REMARK>
 VINA RESULT:      -7.3      3.099      4.883
  Name = 
  8 active torsions:
  status: ('A' for Active; 'I' for Inactive)
    1  A    between atoms: C_5  and  C_11
    2  A    between atoms: C_5  and  N_28
    3  A    between atoms: N_6  and  C_20
    4  A    between atoms: C_8  and  N_28
    5  A    between atoms: C_9  and  C_31
    6  A    between atoms: C_12  and  N_18
    7  A    between atoms: N_18  and  C_31
    8  A    between atoms: C_21  and  C_23
                            x       y       z     vdW  Elec       q    Type
                         _______ _______ _______ _____ _____    ______ ____

>  <TORSDO>
F 8

$$$$
=
 OpenBabel11062422243D

 36 41  0  0  1  0  0  0  0  0999 V2000
  191.2440  174.4520  141.6350 C   0  0  0  0  0  0  0  0  0  0  0  0
  190.1460  173.6250  139.7230 C   0  0  0  0  0  3  0  0  0  0  0  0
  190.2010  175.8160  143.1390 O   0  0  0  0  0  0  0  0  0  0  0  0
  188.8130  174.7010  141.4920 C   0  0  0  0  0  0  0  0  0  0  0  0
  192.1450  175.2820  141.9860 N   0  0  0  0  0  0  0  0  0  0  0  0
  188.8730  174.1640  140.2590 C   0  0  0  0  0  3  0  0  0  0  0  0
  191.6000  176.0750  143.0780 C   0  0  1  0  0  0  0  0  0  0  0  0
  190.0080  174.6240  142.4100 C   0  0  1  0  0  3  0  0  0  0  0  0
  191.8150  177.5500  142.7630 C   0  0  0  0  0  1  0  0  0  0  0  0
  191.2620  173.7840  140.3730 N   0  0  0  0  0  0  0  0  0  0  0  0
  191.3850  174.8440  145.2360 N   0  0  0  0  0  0  0  0  0  0  0  0
  191.9300  173.5760  145.4200 N   0  0  0  0  0  0  0  0  0  0  0  0
  193.0790  173.4880  144.8460 C   0  0  0  0  0  3  0  0  0  0  0  0
  192.2610  175.6740  144.4170 C   0  0  1  0  0  3  0  0  0  0  0  0
  193.4770  174.7670  144.1780 C   0  0  1  0  0  3  0  0  0  0  0  0
  194.6870  175.3510  144.8790 C   0  0  0  0  0  1  0  0  0  0  0  0
  189.0270  176.6930  147.0920 N   0  0  0  0  0  0  0  0  0  0  0  0
  188.5260  175.4530  147.2650 C   0  0  0  0  0  2  0  0  0  0  0  0
  190.2940  175.3270  146.0260 C   0  0  0  0  0  0  0  0  0  0  0  0
  190.1090  176.6190  146.3380 N   0  0  0  0  0  0  0  0  0  0  0  0
  189.3170  174.5350  146.5940 C   0  0  0  0  0  3  0  0  0  0  0  0
  187.5800  175.2120  142.0090 N   0  0  0  0  0  2  0  0  0  0  0  0
  187.1310  176.5870  141.8290 C   0  0  0  0  0  2  0  0  0  0  0  0
  184.7230  178.7710  144.1070 C   0  0  1  0  0  3  0  0  0  0  0  0
  185.7420  176.8850  145.3820 C   0  0  0  0  0  3  0  0  0  0  0  0
  184.1800  177.7310  141.7630 C   0  0  2  0  0  3  0  0  0  0  0  0
  186.2980  177.0110  142.9960 C   0  0  0  0  0  0  0  0  0  0  0  0
  185.5680  180.0240  144.2630 C   0  0  0  0  0  1  0  0  0  0  0  0
  186.5360  176.4850  144.2010 C   0  0  0  0  0  3  0  0  0  0  0  0
  185.1560  177.9860  142.8570 C   0  0  2  0  0  0  0  0  0  0  0  0
  184.8830  177.9140  145.3360 C   0  0  0  0  0  3  0  0  0  0  0  0
  185.1700  178.7380  141.6690 O   0  0  0  0  0  0  0  0  0  0  0  0
  182.8880  178.3500  142.0220 N   0  0  0  0  0  2  0  0  0  0  0  0
  182.0140  177.9860  140.9190 C   0  0  0  0  0  2  0  0  0  0  0  0
  180.9600  179.0590  140.7120 C   0  0  0  0  0  2  0  0  0  0  0  0
  179.8790  178.5290  140.0300 F   0  0  0  0  0  0  0  0  0  0  0  0
  1  5  2  0  0  0  0
  1  8  1  0  0  0  0
  2  6  1  0  0  0  0
  2 10  2  0  0  0  0
  4 22  1  0  0  0  0
  5  7  1  0  0  0  0
  6  4  2  0  0  0  0
  7  9  1  6  0  0  0
  7  3  1  0  0  0  0
  7 14  1  0  0  0  0
  8  4  1  6  0  0  0
  8  3  1  0  0  0  0
 10  1  1  0  0  0  0
 11 12  1  0  0  0  0
 11 19  1  0  0  0  0
 13 12  2  0  0  0  0
 14 11  1  1  0  0  0
 15 14  1  0  0  0  0
 15 13  1  0  0  0  0
 15 16  1  1  0  0  0
 17 18  1  0  0  0  0
 19 20  1  0  0  0  0
 19 21  2  0  0  0  0
 20 17  2  0  0  0  0
 21 18  1  0  0  0  0
 23 22  1  0  0  0  0
 23 27  1  0  0  0  0
 24 28  1  1  0  0  0
 24 31  1  0  0  0  0
 26 33  1  1  0  0  0
 26 30  1  0  0  0  0
 27 29  2  0  0  0  0
 29 25  1  0  0  0  0
 30 32  1  6  0  0  0
 30 27  1  0  0  0  0
 30 24  1  0  0  0  0
 31 25  2  0  0  0  0
 32 26  1  0  0  0  0
 34 33  1  0  0  0  0
 35 34  1  0  0  0  0
 36 35  1  0  0  0  0
M  END
>  <MODEL>
8

>  <REMARK>
 VINA RESULT:      -7.2      1.331      2.714
  Name = 
  8 active torsions:
  status: ('A' for Active; 'I' for Inactive)
    1  A    between atoms: C_5  and  C_11
    2  A    between atoms: C_5  and  N_28
    3  A    between atoms: N_6  and  C_20
    4  A    between atoms: C_8  and  N_28
    5  A    between atoms: C_9  and  C_31
    6  A    between atoms: C_12  and  N_18
    7  A    between atoms: N_18  and  C_31
    8  A    between atoms: C_21  and  C_23
                            x       y       z     vdW  Elec       q    Type
                         _______ _______ _______ _____ _____    ______ ____

>  <TORSDO>
F 8

$$$$
=
 OpenBabel11062422243D

 36 41  0  0  1  0  0  0  0  0999 V2000
  191.5900  174.4660  141.8370 C   0  0  0  0  0  0  0  0  0  0  0  0
  190.1220  173.7040  140.1600 C   0  0  0  0  0  3  0  0  0  0  0  0
  190.9040  175.8620  143.5070 O   0  0  0  0  0  0  0  0  0  0  0  0
  189.1870  174.8230  142.1450 C   0  0  0  0  0  0  0  0  0  0  0  0
  192.5760  175.2520  142.0160 N   0  0  0  0  0  0  0  0  0  0  0  0
  188.9950  174.2940  140.9220 C   0  0  0  0  0  3  0  0  0  0  0  0
  192.2780  176.0590  143.1890 C   0  0  1  0  0  0  0  0  0  0  0  0
  190.5270  174.6860  142.8270 C   0  0  1  0  0  3  0  0  0  0  0  0
  192.4970  177.5260  142.8410 C   0  0  0  0  0  1  0  0  0  0  0  0
  191.3450  173.8090  140.5930 N   0  0  0  0  0  0  0  0  0  0  0  0
  194.4520  176.2850  144.3890 N   0  0  0  0  0  0  0  0  0  0  0  0
  194.5930  177.0900  145.5170 N   0  0  0  0  0  0  0  0  0  0  0  0
  193.5530  177.0010  146.2700 C   0  0  0  0  0  3  0  0  0  0  0  0
  193.1560  175.6180  144.3840 C   0  0  1  0  0  3  0  0  0  0  0  0
  192.5310  176.0590  145.7150 C   0  0  1  0  0  3  0  0  0  0  0  0
  192.3960  174.8590  146.6310 C   0  0  0  0  0  1  0  0  0  0  0  0
  196.8840  174.7390  142.3600 N   0  0  0  0  0  0  0  0  0  0  0  0
  197.4160  175.9750  142.4430 C   0  0  0  0  0  3  0  0  0  0  0  0
  195.5650  175.9310  143.5610 C   0  0  0  0  0  0  0  0  0  0  0  0
  195.7550  174.7080  143.0450 N   0  0  0  0  0  2  0  0  0  0  0  0
  196.5950  176.7810  143.2150 C   0  0  0  0  0  3  0  0  0  0  0  0
  188.0950  175.3840  142.8800 N   0  0  0  0  0  2  0  0  0  0  0  0
  187.4170  176.6200  142.5120 C   0  0  0  0  0  2  0  0  0  0  0  0
  184.7470  178.7410  144.5440 C   0  0  1  0  0  3  0  0  0  0  0  0
  185.6020  176.8130  145.8760 C   0  0  0  0  0  3  0  0  0  0  0  0
  184.4960  177.7750  142.1200 C   0  0  2  0  0  3  0  0  0  0  0  0
  186.4470  177.0110  143.5810 C   0  0  0  0  0  0  0  0  0  0  0  0
  185.5650  179.9860  144.8410 C   0  0  0  0  0  1  0  0  0  0  0  0
  186.5350  176.4470  144.7890 C   0  0  0  0  0  3  0  0  0  0  0  0
  185.3300  177.9930  143.3330 C   0  0  2  0  0  0  0  0  0  0  0  0
  184.7550  177.8460  145.7560 C   0  0  0  0  0  3  0  0  0  0  0  0
  185.4900  178.7810  142.1790 O   0  0  0  0  0  0  0  0  0  0  0  0
  183.1820  178.3900  142.2380 N   0  0  0  0  0  2  0  0  0  0  0  0
  182.4640  178.0980  141.0080 C   0  0  0  0  0  2  0  0  0  0  0  0
  180.9880  178.4100  141.1760 C   0  0  0  0  0  2  0  0  0  0  0  0
  180.2930  178.0150  140.0480 F   0  0  0  0  0  0  0  0  0  0  0  0
  1  5  2  0  0  0  0
  2 10  2  0  0  0  0
  2  6  1  0  0  0  0
  4  8  1  0  0  0  0
  4 22  1  0  0  0  0
  5  7  1  0  0  0  0
  6  4  2  0  0  0  0
  7  9  1  6  0  0  0
  7  3  1  0  0  0  0
  7 14  1  0  0  0  0
  8  1  1  6  0  0  0
  8  3  1  0  0  0  0
 10  1  1  0  0  0  0
 11 12  1  0  0  0  0
 12 13  2  0  0  0  0
 14 11  1  6  0  0  0
 14 15  1  0  0  0  0
 15 13  1  0  0  0  0
 15 16  1  1  0  0  0
 17 18  2  0  0  0  0
 17 20  1  0  0  0  0
 18 21  1  0  0  0  0
 19 11  1  0  0  0  0
 20 19  1  0  0  0  0
 21 19  2  0  0  0  0
 23 22  1  0  0  0  0
 23 27  1  0  0  0  0
 24 28  1  1  0  0  0
 24 31  1  0  0  0  0
 26 32  1  0  0  0  0
 26 33  1  1  0  0  0
 26 30  1  0  0  0  0
 27 29  2  0  0  0  0
 29 25  1  0  0  0  0
 30 32  1  6  0  0  0
 30 27  1  0  0  0  0
 30 24  1  0  0  0  0
 31 25  2  0  0  0  0
 34 35  1  0  0  0  0
 34 33  1  0  0  0  0
 36 35  1  0  0  0  0
M  END
>  <MODEL>
9

>  <REMARK>
 VINA RESULT:      -7.2      1.604      2.017
  Name = 
  8 active torsions:
  status: ('A' for Active; 'I' for Inactive)
    1  A    between atoms: C_5  and  C_11
    2  A    between atoms: C_5  and  N_28
    3  A    between atoms: N_6  and  C_20
    4  A    between atoms: C_8  and  N_28
    5  A    between atoms: C_9  and  C_31
    6  A    between atoms: C_12  and  N_18
    7  A    between atoms: N_18  and  C_31
    8  A    between atoms: C_21  and  C_23
                            x       y       z     vdW  Elec       q    Type
                         _______ _______ _______ _____ _____    ______ ____

>  <TORSDO>
F 8

$$$$
