=
 OpenBabel11062419123D

 54 59  0  0  1  0  0  0  0  0999 V2000
  189.1950  173.4160  142.4770 C   0  0  1  0  0  3  0  0  0  0  0  0
  190.4350  176.3220  142.4690 C   0  0  0  0  0  0  0  0  0  0  0  0
  193.0320  175.6960  144.0070 C   0  0  1  0  0  3  0  0  0  0  0  0
  193.8970  168.7480  143.8950 O   0  0  0  0  0  1  0  0  0  0  0  0
  193.4900  176.3120  145.3530 C   0  0  0  0  0  2  0  0  0  0  0  0
  192.7850  176.7670  143.1170 O   0  0  0  0  0  0  0  0  0  0  0  0
  194.0580  170.1050  143.6320 C   0  0  2  0  0  3  0  0  0  0  0  0
  188.4570  175.6000  141.6600 N   0  0  0  0  0  2  0  0  0  0  0  0
  190.4880  171.5670  141.4260 O   0  0  0  0  0  0  0  0  0  0  0  0
  192.5340  169.2410  141.0910 O   0  0  0  0  0  1  0  0  0  0  0  0
  195.0090  176.4150  145.4330 C   0  0  0  0  0  2  0  0  0  0  0  0
  194.1550  174.7740  143.4300 C   0  0  1  0  0  0  0  0  0  0  0  0
  193.3530  175.0340  141.1150 O   0  0  0  0  0  1  0  0  0  0  0  0
  190.7470  175.2020  141.9340 N   0  0  0  0  0  0  0  0  0  0  0  0
  193.3820  171.6850  141.9160 O   0  0  0  0  0  0  0  0  0  0  0  0
  195.5520  176.7730  144.1760 O   0  0  0  0  0  0  0  0  0  0  0  0
  189.1130  176.6160  142.3080 O   0  0  0  0  0  0  0  0  0  0  0  0
  191.9400  169.7680  142.2460 C   0  0  1  0  0  3  0  0  0  0  0  0
  196.3760  170.7660  144.3530 C   0  0  0  0  0  2  0  0  0  0  0  0
  192.1670  171.6360  143.9400 C   0  0  0  0  0  2  0  0  0  0  0  0
  192.7250  172.9170  142.0660 C   0  0  1  0  0  3  0  0  0  0  0  0
  191.6700  172.8220  143.1720 C   0  0  1  0  0  3  0  0  0  0  0  0
  187.8930  172.7220  142.0660 C   0  0  0  0  0  1  0  0  0  0  0  0
  192.8900  170.8030  142.9060 C   0  0  1  0  0  0  0  0  0  0  0  0
  190.3190  172.3630  142.5690 C   0  0  1  0  0  3  0  0  0  0  0  0
  195.4800  170.4470  143.1530 C   0  0  1  0  0  3  0  0  0  0  0  0
  193.7390  174.0910  142.0780 C   0  0  2  0  0  3  0  0  0  0  0  0
  191.4260  177.1890  143.2010 C   0  0  2  0  0  3  0  0  0  0  0  0
  195.8830  172.0200  145.0780 C   0  0  2  0  0  3  0  0  0  0  0  0
  195.4630  175.6550  143.3030 C   0  0  2  0  0  3  0  0  0  0  0  0
  194.4760  173.6510  144.4420 C   0  0  0  0  0  2  0  0  0  0  0  0
  190.5100  170.2590  141.9220 C   0  0  0  0  0  2  0  0  0  0  0  0
  195.7340  173.0830  144.1690 O   0  0  0  0  0  0  0  0  0  0  0  0
  189.5010  174.5720  141.5180 C   0  0  1  0  0  3  0  0  0  0  0  0
  196.8760  172.4070  146.1670 C   0  0  0  0  0  1  0  0  0  0  0  0
  196.0870  169.3840  142.2270 C   0  0  0  0  0  3  0  0  0  0  0  0
  195.9280  169.7910  140.9030 O   0  0  0  0  0  1  0  0  0  0  0  0
  197.4480  169.2050  142.4890 O   0  0  0  0  0  1  0  0  0  0  0  0
  190.9640  177.7500  144.5520 C   0  0  0  0  0  2  0  0  0  0  0  0
  189.8140  176.9430  145.0990 C   0  0  0  0  0  0  0  0  0  0  0  0
  188.5600  177.5840  145.3290 N   0  0  0  0  0  2  0  0  0  0  0  0
  189.9470  175.7110  145.3390 O   0  0  0  0  0  0  0  0  0  0  0  0
  187.3850  176.9050  145.2320 O   0  0  0  0  0  0  0  0  0  0  0  0
  186.3430  177.8540  145.3060 C   0  0  1  0  0  3  0  0  0  0  0  0
  183.9530  178.8700  143.9520 N   0  0  0  0  0  1  0  0  0  0  0  0
  186.4030  179.1900  142.9310 O   0  0  0  0  0  1  0  0  0  0  0  0
  185.5500  178.2020  143.6960 P   0  0  1  0  0  0  0  0  0  0  0  0
  185.4400  176.7530  142.8260 O   0  0  0  0  0  0  0  0  0  0  0  0
  185.0810  178.7210  147.3700 C   0  0  0  0  0  1  0  0  0  0  0  0
  184.7650  176.5670  146.5300 O   0  0  0  0  0  0  0  0  0  0  0  0
  185.3720  177.6180  146.4230 C   0  0  0  0  0  0  0  0  0  0  0  0
  195.8170  176.0190  141.9700 O   0  0  0  0  0  0  0  0  0  0  0  0
  197.0180  175.6880  141.3420 C   0  0  0  0  0  3  0  0  0  0  0  0
  197.7180  174.7160  141.7340 O   0  0  0  0  0  0  0  0  0  0  0  0
  1 23  1  6  0  0  0
  1 25  1  0  0  0  0
  2 28  1  0  0  0  0
  3  5  1  1  0  0  0
  5 11  1  0  0  0  0
  6 28  1  0  0  0  0
  6  3  1  0  0  0  0
  7  4  1  6  0  0  0
  8 17  1  0  0  0  0
  9 32  1  0  0  0  0
 12  3  1  0  0  0  0
 12 31  1  1  0  0  0
 14  2  2  0  0  0  0
 15 24  1  0  0  0  0
 16 11  1  0  0  0  0
 17  2  1  0  0  0  0
 18 10  1  6  0  0  0
 18 24  1  0  0  0  0
 19 29  1  0  0  0  0
 21 15  1  1  0  0  0
 21 27  1  0  0  0  0
 21 22  1  0  0  0  0
 22 20  1  1  0  0  0
 24  7  1  0  0  0  0
 24 20  1  1  0  0  0
 25  9  1  6  0  0  0
 25 22  1  0  0  0  0
 26 36  1  1  0  0  0
 26  7  1  0  0  0  0
 26 19  1  0  0  0  0
 27 13  1  6  0  0  0
 27 12  1  0  0  0  0
 28 39  1  1  0  0  0
 29 35  1  1  0  0  0
 30 52  1  6  0  0  0
 30 12  1  0  0  0  0
 30 16  1  0  0  0  0
 32 18  1  0  0  0  0
 33 31  1  0  0  0  0
 33 29  1  0  0  0  0
 34  8  1  1  0  0  0
 34 14  1  0  0  0  0
 34  1  1  0  0  0  0
 36 38  1  0  0  0  0
 37 36  1  0  0  0  0
 39 40  1  0  0  0  0
 40 41  1  0  0  0  0
 40 42  2  0  0  0  0
 43 41  1  0  0  0  0
 44 43  1  6  0  0  0
 44 51  1  0  0  0  0
 46 47  1  0  0  0  0
 47 48  2  6  0  0  0
 47 45  1  0  0  0  0
 47 44  1  0  0  0  0
 51 50  2  0  0  0  0
 51 49  1  0  0  0  0
 53 54  2  0  0  0  0
 53 52  1  0  0  0  0
M  END
>  <MODEL>
1

>  <REMARK>
 VINA RESULT:      -8.2      0.000      0.000
  Name = 
  9 active torsions:
  status: ('A' for Active; 'I' for Inactive)
    1  A    between atoms: C_1  and  P_37
    2  A    between atoms: C_1  and  O_43
    3  A    between atoms: C_1  and  C_47
    4  A    between atoms: C_3  and  C_6
    5  A    between atoms: N_5  and  O_43
    6  A    between atoms: C_6  and  C_44
    7  A    between atoms: O_11  and  C_21
    8  A    between atoms: O_11  and  C_49
    9  A    between atoms: C_23  and  C_41
                            x       y       z     vdW  Elec       q    Type
                         _______ _______ _______ _____ _____    ______ ____

>  <TORSDO>
F 9

$$$$
=
 OpenBabel11062419123D

 54 59  0  0  1  0  0  0  0  0999 V2000
  195.6480  176.3190  142.9940 C   0  0  1  0  0  3  0  0  0  0  0  0
  193.0460  176.0400  144.7640 C   0  0  0  0  0  0  0  0  0  0  0  0
  191.0930  175.1700  142.5430 C   0  0  1  0  0  3  0  0  0  0  0  0
  194.9470  173.0880  137.0790 O   0  0  0  0  0  1  0  0  0  0  0  0
  189.8060  175.9060  142.0930 C   0  0  0  0  0  2  0  0  0  0  0  0
  190.9840  174.9450  143.9340 O   0  0  0  0  0  0  0  0  0  0  0  0
  194.1140  173.0680  138.1940 C   0  0  2  0  0  3  0  0  0  0  0  0
  195.1190  176.7090  145.3490 N   0  0  0  0  0  2  0  0  0  0  0  0
  196.4630  174.3210  141.7530 O   0  0  0  0  0  0  0  0  0  0  0  0
  196.7760  172.1990  139.4930 O   0  0  0  0  0  1  0  0  0  0  0  0
  188.7430  174.9270  141.6080 C   0  0  0  0  0  2  0  0  0  0  0  0
  191.2220  173.8050  141.7910 C   0  0  1  0  0  0  0  0  0  0  0  0
  192.6180  172.8180  143.5630 O   0  0  0  0  0  1  0  0  0  0  0  0
  193.7930  175.2270  144.1150 N   0  0  0  0  0  0  0  0  0  0  0  0
  194.3330  172.6730  140.5810 O   0  0  0  0  0  0  0  0  0  0  0  0
  188.7450  173.7550  142.4000 O   0  0  0  0  0  0  0  0  0  0  0  0
  193.7720  176.9060  145.5260 O   0  0  0  0  0  0  0  0  0  0  0  0
  196.2980  173.5150  139.4420 C   0  0  1  0  0  3  0  0  0  0  0  0
  191.9040  172.0900  137.4970 C   0  0  0  0  0  2  0  0  0  0  0  0
  194.2140  174.9040  139.8170 C   0  0  0  0  0  2  0  0  0  0  0  0
  193.9090  173.4820  141.6470 C   0  0  1  0  0  3  0  0  0  0  0  0
  194.1350  174.9590  141.3130 C   0  0  1  0  0  3  0  0  0  0  0  0
  197.0940  176.7990  143.1450 C   0  0  0  0  0  1  0  0  0  0  0  0
  194.7480  173.5200  139.5270 C   0  0  1  0  0  0  0  0  0  0  0  0
  195.5520  175.3880  141.7660 C   0  0  1  0  0  3  0  0  0  0  0  0
  193.2170  171.8190  138.2370 C   0  0  1  0  0  3  0  0  0  0  0  0
  192.5270  173.0230  142.1790 C   0  0  2  0  0  3  0  0  0  0  0  0
  191.5420  176.0310  144.6670 C   0  0  2  0  0  3  0  0  0  0  0  0
  191.1020  173.1870  138.2010 C   0  0  2  0  0  3  0  0  0  0  0  0
  189.8980  172.9870  142.0810 C   0  0  2  0  0  3  0  0  0  0  0  0
  191.2610  174.0550  140.2660 C   0  0  0  0  0  2  0  0  0  0  0  0
  197.0430  174.3830  140.4810 C   0  0  0  0  0  2  0  0  0  0  0  0
  190.9440  172.8770  139.5640 O   0  0  0  0  0  0  0  0  0  0  0  0
  195.1660  175.6780  144.2990 C   0  0  1  0  0  3  0  0  0  0  0  0
  189.7360  173.3260  137.5410 C   0  0  0  0  0  1  0  0  0  0  0  0
  193.9180  170.5430  137.7510 C   0  0  0  0  0  3  0  0  0  0  0  0
  194.3950  169.8390  138.8560 O   0  0  0  0  0  1  0  0  0  0  0  0
  193.0400  169.7270  137.0340 O   0  0  0  0  0  1  0  0  0  0  0  0
  190.8700  177.3990  144.4860 C   0  0  0  0  0  2  0  0  0  0  0  0
  189.6440  177.5090  145.3560 C   0  0  0  0  0  0  0  0  0  0  0  0
  188.3590  177.6000  144.7420 N   0  0  0  0  0  2  0  0  0  0  0  0
  189.7440  177.5090  146.6140 O   0  0  0  0  0  0  0  0  0  0  0  0
  187.2420  177.1180  145.3510 O   0  0  0  0  0  0  0  0  0  0  0  0
  186.5420  178.2220  145.8810 C   0  0  1  0  0  3  0  0  0  0  0  0
  185.3220  180.2520  144.1590 N   0  0  0  0  0  1  0  0  0  0  0  0
  184.8220  177.6440  143.8480 O   0  0  0  0  0  0  0  0  0  0  0  0
  185.0670  178.6920  144.9110 P   0  0  1  0  0  0  0  0  0  0  0  0
  183.7350  178.7630  145.9560 O   0  0  0  0  0  1  0  0  0  0  0  0
  186.4680  179.3660  148.1820 C   0  0  0  0  0  1  0  0  0  0  0  0
  185.8970  177.1220  147.8870 O   0  0  0  0  0  0  0  0  0  0  0  0
  186.2990  178.1440  147.3590 C   0  0  0  0  0  0  0  0  0  0  0  0
  190.0510  171.8950  142.9850 O   0  0  0  0  0  0  0  0  0  0  0  0
  189.3260  171.7250  144.1640 C   0  0  0  0  0  3  0  0  0  0  0  0
  189.6850  172.2720  145.2420 O   0  0  0  0  0  0  0  0  0  0  0  0
  1 23  1  1  0  0  0
  1 34  1  0  0  0  0
  2 17  1  0  0  0  0
  3  5  1  6  0  0  0
  3  6  1  0  0  0  0
  6 28  1  0  0  0  0
  7  4  1  6  0  0  0
  7 26  1  0  0  0  0
  7 24  1  0  0  0  0
  8 17  1  0  0  0  0
 11  5  1  0  0  0  0
 11 16  1  0  0  0  0
 12 31  1  6  0  0  0
 12 30  1  0  0  0  0
 12 27  1  0  0  0  0
 12  3  1  0  0  0  0
 14  2  2  0  0  0  0
 18 10  1  1  0  0  0
 18 24  1  0  0  0  0
 18 32  1  0  0  0  0
 19 29  1  0  0  0  0
 19 26  1  0  0  0  0
 21 15  1  6  0  0  0
 21 27  1  0  0  0  0
 22 20  1  6  0  0  0
 22 21  1  0  0  0  0
 22 25  1  0  0  0  0
 24 20  1  1  0  0  0
 24 15  1  0  0  0  0
 25  9  1  1  0  0  0
 25  1  1  0  0  0  0
 26 36  1  6  0  0  0
 27 13  1  1  0  0  0
 28 39  1  6  0  0  0
 28  2  1  0  0  0  0
 29 35  1  6  0  0  0
 29 33  1  0  0  0  0
 30 16  1  0  0  0  0
 30 52  1  1  0  0  0
 32  9  1  0  0  0  0
 33 31  1  0  0  0  0
 34 14  1  6  0  0  0
 34  8  1  0  0  0  0
 36 37  1  0  0  0  0
 38 36  1  0  0  0  0
 39 40  1  0  0  0  0
 40 42  2  0  0  0  0
 41 43  1  0  0  0  0
 41 40  1  0  0  0  0
 44 43  1  6  0  0  0
 44 51  1  0  0  0  0
 45 47  1  0  0  0  0
 47 46  2  6  0  0  0
 47 44  1  0  0  0  0
 47 48  1  0  0  0  0
 51 50  2  0  0  0  0
 51 49  1  0  0  0  0
 52 53  1  0  0  0  0
 53 54  2  0  0  0  0
M  END
>  <MODEL>
2

>  <REMARK>
 VINA RESULT:      -8.0      2.526      5.505
  Name = 
  9 active torsions:
  status: ('A' for Active; 'I' for Inactive)
    1  A    between atoms: C_1  and  P_37
    2  A    between atoms: C_1  and  O_43
    3  A    between atoms: C_1  and  C_47
    4  A    between atoms: C_3  and  C_6
    5  A    between atoms: N_5  and  O_43
    6  A    between atoms: C_6  and  C_44
    7  A    between atoms: O_11  and  C_21
    8  A    between atoms: O_11  and  C_49
    9  A    between atoms: C_23  and  C_41
                            x       y       z     vdW  Elec       q    Type
                         _______ _______ _______ _____ _____    ______ ____

>  <TORSDO>
F 9

$$$$
=
 OpenBabel11062419123D

 54 59  0  0  1  0  0  0  0  0999 V2000
  193.6420  176.0970  145.4730 C   0  0  1  0  0  3  0  0  0  0  0  0
  190.6890  175.0410  145.0980 C   0  0  0  0  0  0  0  0  0  0  0  0
  190.9820  173.9160  142.2430 C   0  0  1  0  0  3  0  0  0  0  0  0
  197.8350  173.3150  140.9350 O   0  0  0  0  0  1  0  0  0  0  0  0
  190.1910  174.3520  140.9840 C   0  0  0  0  0  2  0  0  0  0  0  0
  190.0350  173.5520  143.2290 O   0  0  0  0  0  0  0  0  0  0  0  0
  196.5090  172.9970  141.2160 C   0  0  2  0  0  3  0  0  0  0  0  0
  191.6130  176.1430  146.8360 N   0  0  0  0  0  2  0  0  0  0  0  0
  195.5200  174.4730  145.2900 O   0  0  0  0  0  0  0  0  0  0  0  0
  197.7450  172.6940  144.0290 O   0  0  0  0  0  1  0  0  0  0  0  0
  189.9910  173.1890  140.0190 C   0  0  0  0  0  2  0  0  0  0  0  0
  191.8970  172.6940  141.9060 C   0  0  1  0  0  0  0  0  0  0  0  0
  191.9480  171.9280  144.2470 O   0  0  0  0  0  1  0  0  0  0  0  0
  191.8420  174.4940  145.1910 N   0  0  0  0  0  0  0  0  0  0  0  0
  195.1770  172.4630  143.1760 O   0  0  0  0  0  0  0  0  0  0  0  0
  189.7470  171.9890  140.7280 O   0  0  0  0  0  0  0  0  0  0  0  0
  190.4930  175.9890  146.0580 O   0  0  0  0  0  0  0  0  0  0  0  0
  197.1260  173.8530  143.5420 C   0  0  1  0  0  3  0  0  0  0  0  0
  195.6360  171.5730  139.3350 C   0  0  0  0  0  2  0  0  0  0  0  0
  195.0670  174.6550  142.3050 C   0  0  0  0  0  2  0  0  0  0  0  0
  193.9770  173.0490  143.6080 C   0  0  1  0  0  3  0  0  0  0  0  0
  194.0070  174.5600  143.3600 C   0  0  1  0  0  3  0  0  0  0  0  0
  194.4540  176.9010  146.4930 C   0  0  0  0  0  1  0  0  0  0  0  0
  195.9680  173.4730  142.5810 C   0  0  1  0  0  0  0  0  0  0  0  0
  194.6100  175.2810  144.5900 C   0  0  1  0  0  3  0  0  0  0  0  0
  196.1420  171.5680  140.7810 C   0  0  1  0  0  3  0  0  0  0  0  0
  192.7520  172.2230  143.1360 C   0  0  2  0  0  3  0  0  0  0  0  0
  189.6870  174.6750  144.0340 C   0  0  2  0  0  3  0  0  0  0  0  0
  194.3390  172.3760  139.2190 C   0  0  2  0  0  3  0  0  0  0  0  0
  190.9600  171.5560  141.3290 C   0  0  2  0  0  3  0  0  0  0  0  0
  192.8760  173.0760  140.7730 C   0  0  0  0  0  2  0  0  0  0  0  0
  196.7600  174.7850  144.7210 C   0  0  0  0  0  2  0  0  0  0  0  0
  193.3970  171.9210  140.1590 O   0  0  0  0  0  0  0  0  0  0  0  0
  192.5880  175.2480  146.1900 C   0  0  1  0  0  3  0  0  0  0  0  0
  193.7740  172.2350  137.8110 C   0  0  0  0  0  1  0  0  0  0  0  0
  197.2660  170.5480  141.0110 C   0  0  0  0  0  3  0  0  0  0  0  0
  197.0660  169.9230  142.2420 O   0  0  0  0  0  1  0  0  0  0  0  0
  197.2810  169.5790  140.0050 O   0  0  0  0  0  1  0  0  0  0  0  0
  189.0050  175.8470  143.3170 C   0  0  0  0  0  2  0  0  0  0  0  0
  187.5090  175.7820  143.4940 C   0  0  0  0  0  0  0  0  0  0  0  0
  186.9410  176.1190  144.7590 N   0  0  0  0  0  2  0  0  0  0  0  0
  186.7600  175.4480  142.5350 O   0  0  0  0  0  0  0  0  0  0  0  0
  185.6960  176.6560  144.8610 O   0  0  0  0  0  0  0  0  0  0  0  0
  185.8510  178.0320  145.1310 C   0  0  1  0  0  3  0  0  0  0  0  0
  183.8620  178.6500  143.0720 N   0  0  0  0  0  1  0  0  0  0  0  0
  185.3760  180.5460  144.1930 O   0  0  0  0  0  1  0  0  0  0  0  0
  185.4210  179.1110  143.7190 P   0  0  1  0  0  0  0  0  0  0  0  0
  186.6160  178.9430  142.5300 O   0  0  0  0  0  0  0  0  0  0  0  0
  186.1680  178.9160  147.5240 C   0  0  0  0  0  1  0  0  0  0  0  0
  184.0560  178.5480  146.6000 O   0  0  0  0  0  0  0  0  0  0  0  0
  185.2620  178.4740  146.4360 C   0  0  0  0  0  0  0  0  0  0  0  0
  190.7300  170.4610  142.2130 O   0  0  0  0  0  0  0  0  0  0  0  0
  190.8420  169.1140  141.8650 C   0  0  0  0  0  3  0  0  0  0  0  0
  191.6880  168.3610  142.4170 O   0  0  0  0  0  0  0  0  0  0  0  0
  1 34  1  0  0  0  0
  1 23  1  1  0  0  0
  2 14  2  0  0  0  0
  2 17  1  0  0  0  0
  3  5  1  6  0  0  0
  3  6  1  0  0  0  0
  6 28  1  0  0  0  0
  7  4  1  1  0  0  0
  7 24  1  0  0  0  0
 11 16  1  0  0  0  0
 11  5  1  0  0  0  0
 12 31  1  6  0  0  0
 12  3  1  0  0  0  0
 12 27  1  0  0  0  0
 16 30  1  0  0  0  0
 17  8  1  0  0  0  0
 18 10  1  1  0  0  0
 18 32  1  0  0  0  0
 19 26  1  0  0  0  0
 21 15  1  6  0  0  0
 22 20  1  6  0  0  0
 22 21  1  0  0  0  0
 22 25  1  0  0  0  0
 24 20  1  6  0  0  0
 24 15  1  0  0  0  0
 24 18  1  0  0  0  0
 25  9  1  1  0  0  0
 25  1  1  0  0  0  0
 26 36  1  6  0  0  0
 26  7  1  0  0  0  0
 27 21  1  0  0  0  0
 27 13  1  1  0  0  0
 28 39  1  6  0  0  0
 28  2  1  0  0  0  0
 29 35  1  6  0  0  0
 29 19  1  0  0  0  0
 29 33  1  0  0  0  0
 30 12  1  0  0  0  0
 30 52  1  1  0  0  0
 32  9  1  0  0  0  0
 33 31  1  0  0  0  0
 34 14  1  6  0  0  0
 34  8  1  0  0  0  0
 36 37  1  0  0  0  0
 38 36  1  0  0  0  0
 39 40  1  0  0  0  0
 40 41  1  0  0  0  0
 41 43  1  0  0  0  0
 42 40  2  0  0  0  0
 44 43  1  6  0  0  0
 44 51  1  0  0  0  0
 45 47  1  0  0  0  0
 47 48  2  6  0  0  0
 47 46  1  0  0  0  0
 47 44  1  0  0  0  0
 51 50  2  0  0  0  0
 51 49  1  0  0  0  0
 53 52  1  0  0  0  0
 53 54  2  0  0  0  0
M  END
>  <MODEL>
3

>  <REMARK>
 VINA RESULT:      -7.8      2.039      5.000
  Name = 
  9 active torsions:
  status: ('A' for Active; 'I' for Inactive)
    1  A    between atoms: C_1  and  P_37
    2  A    between atoms: C_1  and  O_43
    3  A    between atoms: C_1  and  C_47
    4  A    between atoms: C_3  and  C_6
    5  A    between atoms: N_5  and  O_43
    6  A    between atoms: C_6  and  C_44
    7  A    between atoms: O_11  and  C_21
    8  A    between atoms: O_11  and  C_49
    9  A    between atoms: C_23  and  C_41
                            x       y       z     vdW  Elec       q    Type
                         _______ _______ _______ _____ _____    ______ ____

>  <TORSDO>
F 9

$$$$
=
 OpenBabel11062419123D

 54 59  0  0  1  0  0  0  0  0999 V2000
  188.3040  175.6330  142.1670 C   0  0  1  0  0  3  0  0  0  0  0  0
  190.3900  177.2050  143.9430 C   0  0  0  0  0  0  0  0  0  0  0  0
  192.2420  174.8420  144.6430 C   0  0  1  0  0  3  0  0  0  0  0  0
  190.8050  169.6680  140.1480 O   0  0  0  0  0  1  0  0  0  0  0  0
  192.5700  174.3020  146.0580 C   0  0  0  0  0  2  0  0  0  0  0  0
  192.5560  176.2210  144.6370 O   0  0  0  0  0  0  0  0  0  0  0  0
  191.4520  170.7190  140.7930 C   0  0  2  0  0  3  0  0  0  0  0  0
  188.5130  177.9450  142.9360 N   0  0  0  0  0  2  0  0  0  0  0  0
  189.1230  174.4460  140.1380 O   0  0  0  0  0  0  0  0  0  0  0  0
  190.3230  172.2060  138.3350 O   0  0  0  0  0  1  0  0  0  0  0  0
  193.9830  173.7350  146.1270 C   0  0  0  0  0  2  0  0  0  0  0  0
  193.1020  174.0950  143.5710 C   0  0  1  0  0  0  0  0  0  0  0  0
  192.9530  175.9620  141.9700 O   0  0  0  0  0  1  0  0  0  0  0  0
  190.4310  176.6100  142.8100 N   0  0  0  0  0  0  0  0  0  0  0  0
  191.7170  173.1130  140.4820 O   0  0  0  0  0  0  0  0  0  0  0  0
  194.8740  174.5200  145.3560 O   0  0  0  0  0  0  0  0  0  0  0  0
  189.3050  178.0230  144.0540 O   0  0  0  0  0  0  0  0  0  0  0  0
  189.6950  172.1260  139.5860 C   0  0  1  0  0  3  0  0  0  0  0  0
  193.6430  169.8550  141.6800 C   0  0  0  0  0  2  0  0  0  0  0  0
  190.1420  172.3530  142.0680 C   0  0  0  0  0  2  0  0  0  0  0  0
  191.4810  174.1490  141.3990 C   0  0  1  0  0  3  0  0  0  0  0  0
  190.2370  173.8390  142.2380 C   0  0  1  0  0  3  0  0  0  0  0  0
  186.9700  175.8930  141.4610 C   0  0  0  0  0  1  0  0  0  0  0  0
  190.7620  172.0960  140.7130 C   0  0  1  0  0  0  0  0  0  0  0  0
  188.9770  174.3970  141.5320 C   0  0  1  0  0  3  0  0  0  0  0  0
  192.9760  170.6890  140.5820 C   0  0  1  0  0  3  0  0  0  0  0  0
  192.7920  174.5750  142.1090 C   0  0  2  0  0  3  0  0  0  0  0  0
  191.4250  176.9980  145.0190 C   0  0  2  0  0  3  0  0  0  0  0  0
  193.4380  170.5040  143.0510 C   0  0  2  0  0  3  0  0  0  0  0  0
  194.6190  174.2830  143.9780 C   0  0  2  0  0  3  0  0  0  0  0  0
  192.8110  172.5790  143.6380 C   0  0  0  0  0  2  0  0  0  0  0  0
  188.6100  173.2210  139.6980 C   0  0  0  0  0  2  0  0  0  0  0  0
  193.8450  171.8500  143.0200 O   0  0  0  0  0  0  0  0  0  0  0  0
  189.1700  176.8970  142.1390 C   0  0  1  0  0  3  0  0  0  0  0  0
  194.2400  169.7450  144.1010 C   0  0  0  0  0  1  0  0  0  0  0  0
  193.3920  170.2510  139.1710 C   0  0  0  0  0  3  0  0  0  0  0  0
  193.9400  171.3430  138.4990 O   0  0  0  0  0  1  0  0  0  0  0  0
  194.3380  169.2240  139.2200 O   0  0  0  0  0  1  0  0  0  0  0  0
  190.8870  176.7740  146.4380 C   0  0  0  0  0  2  0  0  0  0  0  0
  189.4820  176.2280  146.3960 C   0  0  0  0  0  0  0  0  0  0  0  0
  188.3970  177.0630  146.7960 N   0  0  0  0  0  2  0  0  0  0  0  0
  189.2600  175.0510  145.9990 O   0  0  0  0  0  0  0  0  0  0  0  0
  187.1540  176.9210  146.2610 O   0  0  0  0  0  0  0  0  0  0  0  0
  186.5400  178.1910  146.2800 C   0  0  1  0  0  3  0  0  0  0  0  0
  185.6330  179.8070  144.0120 N   0  0  0  0  0  1  0  0  0  0  0  0
  185.2180  177.1690  144.1270 O   0  0  0  0  0  0  0  0  0  0  0  0
  185.2600  178.4080  144.9940 P   0  0  1  0  0  0  0  0  0  0  0  0
  183.7610  178.6180  145.7560 O   0  0  0  0  0  1  0  0  0  0  0  0
  186.3170  180.0730  148.0170 C   0  0  0  0  0  1  0  0  0  0  0  0
  185.5490  177.9060  148.4210 O   0  0  0  0  0  0  0  0  0  0  0  0
  186.1170  178.6520  147.6420 C   0  0  0  0  0  0  0  0  0  0  0  0
  195.3540  175.1910  143.1600 O   0  0  0  0  0  0  0  0  0  0  0  0
  196.0700  176.2930  143.6300 C   0  0  0  0  0  3  0  0  0  0  0  0
  196.8260  176.9580  142.8710 O   0  0  0  0  0  0  0  0  0  0  0  0
  1 23  1  6  0  0  0
  2 17  1  0  0  0  0
  2 28  1  0  0  0  0
  3  5  1  1  0  0  0
  5 11  1  0  0  0  0
  6  3  1  0  0  0  0
  6 28  1  0  0  0  0
  7  4  1  6  0  0  0
  8 17  1  0  0  0  0
 12 31  1  1  0  0  0
 12 30  1  0  0  0  0
 12  3  1  0  0  0  0
 14  2  2  0  0  0  0
 15 24  1  0  0  0  0
 16 11  1  0  0  0  0
 18 10  1  6  0  0  0
 18 32  1  0  0  0  0
 18 24  1  0  0  0  0
 19 29  1  0  0  0  0
 21 15  1  1  0  0  0
 21 27  1  0  0  0  0
 21 22  1  0  0  0  0
 22 20  1  6  0  0  0
 24  7  1  0  0  0  0
 24 20  1  1  0  0  0
 25  9  1  6  0  0  0
 25  1  1  0  0  0  0
 25 22  1  0  0  0  0
 26 36  1  6  0  0  0
 26  7  1  0  0  0  0
 26 19  1  0  0  0  0
 27 13  1  1  0  0  0
 27 12  1  0  0  0  0
 28 39  1  1  0  0  0
 29 35  1  1  0  0  0
 30 52  1  6  0  0  0
 30 16  1  0  0  0  0
 32  9  1  0  0  0  0
 33 29  1  0  0  0  0
 33 31  1  0  0  0  0
 34  1  1  0  0  0  0
 34 14  1  1  0  0  0
 34  8  1  0  0  0  0
 36 38  1  0  0  0  0
 37 36  1  0  0  0  0
 40 39  1  0  0  0  0
 40 41  1  0  0  0  0
 42 40  2  0  0  0  0
 43 41  1  0  0  0  0
 44 43  1  1  0  0  0
 44 51  1  0  0  0  0
 46 47  2  0  0  0  0
 47 45  1  6  0  0  0
 47 48  1  0  0  0  0
 47 44  1  0  0  0  0
 51 49  1  0  0  0  0
 51 50  2  0  0  0  0
 52 53  1  0  0  0  0
 54 53  2  0  0  0  0
M  END
>  <MODEL>
4

>  <REMARK>
 VINA RESULT:      -7.7      1.868      2.770
  Name = 
  9 active torsions:
  status: ('A' for Active; 'I' for Inactive)
    1  A    between atoms: C_1  and  P_37
    2  A    between atoms: C_1  and  O_43
    3  A    between atoms: C_1  and  C_47
    4  A    between atoms: C_3  and  C_6
    5  A    between atoms: N_5  and  O_43
    6  A    between atoms: C_6  and  C_44
    7  A    between atoms: O_11  and  C_21
    8  A    between atoms: O_11  and  C_49
    9  A    between atoms: C_23  and  C_41
                            x       y       z     vdW  Elec       q    Type
                         _______ _______ _______ _____ _____    ______ ____

>  <TORSDO>
F 9

$$$$
=
 OpenBabel11062419123D

 54 59  0  0  1  0  0  0  0  0999 V2000
  195.5480  176.2070  142.8900 C   0  0  1  0  0  3  0  0  0  0  0  0
  192.9680  175.4880  144.5650 C   0  0  0  0  0  0  0  0  0  0  0  0
  191.1780  174.5520  142.2370 C   0  0  1  0  0  3  0  0  0  0  0  0
  195.3570  173.3520  136.7480 O   0  0  0  0  0  1  0  0  0  0  0  0
  189.8180  175.1580  141.8040 C   0  0  0  0  0  2  0  0  0  0  0  0
  191.0710  174.2150  143.6060 O   0  0  0  0  0  0  0  0  0  0  0  0
  194.5130  173.1510  137.8360 C   0  0  2  0  0  3  0  0  0  0  0  0
  194.9320  176.3590  145.2520 N   0  0  0  0  0  2  0  0  0  0  0  0
  196.6250  174.4170  141.5360 O   0  0  0  0  0  0  0  0  0  0  0  0
  197.2370  172.5180  139.1430 O   0  0  0  0  0  1  0  0  0  0  0  0
  188.8920  174.0960  141.2240 C   0  0  0  0  0  2  0  0  0  0  0  0
  191.4860  173.2710  141.3950 C   0  0  1  0  0  0  0  0  0  0  0  0
  192.9600  172.3340  143.1320 O   0  0  0  0  0  1  0  0  0  0  0  0
  193.8200  174.8200  143.8820 N   0  0  0  0  0  0  0  0  0  0  0  0
  194.7340  172.6140  140.1940 O   0  0  0  0  0  0  0  0  0  0  0  0
  189.0240  172.8770  141.9320 O   0  0  0  0  0  0  0  0  0  0  0  0
  193.5680  176.3780  145.4050 O   0  0  0  0  0  0  0  0  0  0  0  0
  196.6020  173.7670  139.1710 C   0  0  1  0  0  3  0  0  0  0  0  0
  192.4520  171.9660  137.0120 C   0  0  0  0  0  2  0  0  0  0  0  0
  194.3570  174.8640  139.5850 C   0  0  0  0  0  2  0  0  0  0  0  0
  194.1950  173.2860  141.3030 C   0  0  1  0  0  3  0  0  0  0  0  0
  194.2450  174.8000  141.0780 C   0  0  1  0  0  3  0  0  0  0  0  0
  196.9210  176.8460  143.1140 C   0  0  0  0  0  1  0  0  0  0  0  0
  195.0610  173.5790  139.2140 C   0  0  1  0  0  0  0  0  0  0  0  0
  195.5900  175.3630  141.5990 C   0  0  1  0  0  3  0  0  0  0  0  0
  193.7750  171.8030  137.7680 C   0  0  1  0  0  3  0  0  0  0  0  0
  192.8700  172.6260  141.7630 C   0  0  2  0  0  3  0  0  0  0  0  0
  191.4780  175.3050  144.4280 C   0  0  2  0  0  3  0  0  0  0  0  0
  191.5090  172.9040  137.7700 C   0  0  2  0  0  3  0  0  0  0  0  0
  190.2680  172.2800  141.5920 C   0  0  2  0  0  3  0  0  0  0  0  0
  191.5230  173.6330  139.8940 C   0  0  0  0  0  2  0  0  0  0  0  0
  197.2160  174.6420  140.2880 C   0  0  0  0  0  2  0  0  0  0  0  0
  191.3650  172.4790  139.1030 O   0  0  0  0  0  0  0  0  0  0  0  0
  195.1240  175.4200  144.1350 C   0  0  1  0  0  3  0  0  0  0  0  0
  190.1490  172.9250  137.0830 C   0  0  0  0  0  1  0  0  0  0  0  0
  194.6360  170.6600  137.2130 C   0  0  0  0  0  3  0  0  0  0  0  0
  194.7290  169.6550  138.1750 O   0  0  0  0  0  1  0  0  0  0  0  0
  194.0770  170.1270  136.0490 O   0  0  0  0  0  1  0  0  0  0  0  0
  190.6470  176.5910  144.3240 C   0  0  0  0  0  2  0  0  0  0  0  0
  189.3370  176.4390  145.0540 C   0  0  0  0  0  0  0  0  0  0  0  0
  188.4880  177.5750  145.2060 N   0  0  0  0  0  2  0  0  0  0  0  0
  188.9830  175.3200  145.5170 O   0  0  0  0  0  0  0  0  0  0  0  0
  187.1350  177.4490  145.2810 O   0  0  0  0  0  0  0  0  0  0  0  0
  186.5790  178.2700  144.2790 C   0  0  1  0  0  3  0  0  0  0  0  0
  184.8360  177.8970  141.9550 N   0  0  0  0  0  1  0  0  0  0  0  0
  187.5000  177.8050  141.7570 O   0  0  0  0  0  0  0  0  0  0  0  0
  186.3600  177.4240  142.6730 P   0  0  1  0  0  0  0  0  0  0  0  0
  186.3790  175.7500  142.9400 O   0  0  0  0  0  1  0  0  0  0  0  0
  184.4790  178.4790  145.7460 C   0  0  0  0  0  1  0  0  0  0  0  0
  185.1700  180.1840  144.3100 O   0  0  0  0  0  0  0  0  0  0  0  0
  185.3810  179.0550  144.7200 C   0  0  0  0  0  0  0  0  0  0  0  0
  190.5370  171.1520  142.4210 O   0  0  0  0  0  0  0  0  0  0  0  0
  190.7250  169.8480  141.9630 C   0  0  0  0  0  3  0  0  0  0  0  0
  191.1240  169.6150  140.7900 O   0  0  0  0  0  0  0  0  0  0  0  0
  1 23  1  1  0  0  0
  1 34  1  0  0  0  0
  2 17  1  0  0  0  0
  3  5  1  6  0  0  0
  3  6  1  0  0  0  0
  6 28  1  0  0  0  0
  7  4  1  6  0  0  0
  7 24  1  0  0  0  0
  8 17  1  0  0  0  0
 11  5  1  0  0  0  0
 11 16  1  0  0  0  0
 12 31  1  6  0  0  0
 12 30  1  0  0  0  0
 12 27  1  0  0  0  0
 12  3  1  0  0  0  0
 14  2  2  0  0  0  0
 18 10  1  1  0  0  0
 18 24  1  0  0  0  0
 18 32  1  0  0  0  0
 19 26  1  0  0  0  0
 19 29  1  0  0  0  0
 21 15  1  6  0  0  0
 21 27  1  0  0  0  0
 22 20  1  6  0  0  0
 22 21  1  0  0  0  0
 22 25  1  0  0  0  0
 24 20  1  1  0  0  0
 24 15  1  0  0  0  0
 25  9  1  1  0  0  0
 25  1  1  0  0  0  0
 26 36  1  6  0  0  0
 26  7  1  0  0  0  0
 27 13  1  1  0  0  0
 28 39  1  6  0  0  0
 28  2  1  0  0  0  0
 29 35  1  6  0  0  0
 29 33  1  0  0  0  0
 30 16  1  0  0  0  0
 30 52  1  1  0  0  0
 32  9  1  0  0  0  0
 33 31  1  0  0  0  0
 34 14  1  6  0  0  0
 34  8  1  0  0  0  0
 36 37  1  0  0  0  0
 38 36  1  0  0  0  0
 39 40  1  0  0  0  0
 40 41  1  0  0  0  0
 40 42  2  0  0  0  0
 41 43  1  0  0  0  0
 44 51  1  1  0  0  0
 44 43  1  0  0  0  0
 45 47  1  0  0  0  0
 47 46  2  6  0  0  0
 47 48  1  0  0  0  0
 47 44  1  0  0  0  0
 50 51  2  0  0  0  0
 51 49  1  0  0  0  0
 53 52  1  0  0  0  0
 54 53  2  0  0  0  0
M  END
>  <MODEL>
5

>  <REMARK>
 VINA RESULT:      -7.6      2.637      5.592
  Name = 
  9 active torsions:
  status: ('A' for Active; 'I' for Inactive)
    1  A    between atoms: C_1  and  P_37
    2  A    between atoms: C_1  and  O_43
    3  A    between atoms: C_1  and  C_47
    4  A    between atoms: C_3  and  C_6
    5  A    between atoms: N_5  and  O_43
    6  A    between atoms: C_6  and  C_44
    7  A    between atoms: O_11  and  C_21
    8  A    between atoms: O_11  and  C_49
    9  A    between atoms: C_23  and  C_41
                            x       y       z     vdW  Elec       q    Type
                         _______ _______ _______ _____ _____    ______ ____

>  <TORSDO>
F 9

$$$$
=
 OpenBabel11062419123D

 54 59  0  0  1  0  0  0  0  0999 V2000
  189.2900  172.9570  140.4310 C   0  0  1  0  0  3  0  0  0  0  0  0
  189.7740  174.7800  142.9650 C   0  0  0  0  0  0  0  0  0  0  0  0
  192.4860  173.6070  143.8400 C   0  0  1  0  0  3  0  0  0  0  0  0
  195.0360  169.9830  138.4160 O   0  0  0  0  0  1  0  0  0  0  0  0
  192.8150  172.9260  145.1930 C   0  0  0  0  0  2  0  0  0  0  0  0
  191.9580  174.8860  144.1300 O   0  0  0  0  0  0  0  0  0  0  0  0
  194.8500  170.9780  139.3730 C   0  0  2  0  0  3  0  0  0  0  0  0
  188.0140  174.7130  141.5560 N   0  0  0  0  0  2  0  0  0  0  0  0
  190.9700  173.0000  138.5940 O   0  0  0  0  0  0  0  0  0  0  0  0
  193.5160  172.3190  136.9330 O   0  0  0  0  0  1  0  0  0  0  0  0
  194.2630  173.1680  145.6030 C   0  0  0  0  0  2  0  0  0  0  0  0
  193.7860  173.7500  142.9820 C   0  0  1  0  0  0  0  0  0  0  0  0
  192.8800  175.6500  141.7010 O   0  0  0  0  0  1  0  0  0  0  0  0
  190.3380  174.6460  141.8230 N   0  0  0  0  0  0  0  0  0  0  0  0
  193.7580  173.1430  139.5090 O   0  0  0  0  0  0  0  0  0  0  0  0
  194.6670  174.4810  145.2620 O   0  0  0  0  0  0  0  0  0  0  0  0
  188.4170  174.8570  142.8600 O   0  0  0  0  0  0  0  0  0  0  0  0
  192.8430  171.5720  137.9090 C   0  0  1  0  0  3  0  0  0  0  0  0
  196.9520  171.1380  140.7460 C   0  0  0  0  0  2  0  0  0  0  0  0
  192.6490  171.2650  140.4150 C   0  0  0  0  0  2  0  0  0  0  0  0
  192.8210  173.5960  140.4530 C   0  0  1  0  0  3  0  0  0  0  0  0
  191.8530  172.4680  140.8210 C   0  0  1  0  0  3  0  0  0  0  0  0
  188.1890  172.6920  139.3990 C   0  0  0  0  0  1  0  0  0  0  0  0
  193.5250  171.7650  139.2900 C   0  0  1  0  0  0  0  0  0  0  0  0
  190.6420  172.4820  139.8570 C   0  0  1  0  0  3  0  0  0  0  0  0
  196.1300  171.7920  139.6310 C   0  0  1  0  0  3  0  0  0  0  0  0
  193.5140  174.4040  141.5810 C   0  0  2  0  0  3  0  0  0  0  0  0
  190.5400  174.8280  144.2610 C   0  0  2  0  0  3  0  0  0  0  0  0
  196.1840  171.1620  142.0690 C   0  0  2  0  0  3  0  0  0  0  0  0
  194.8320  174.5580  143.8520 C   0  0  2  0  0  3  0  0  0  0  0  0
  194.4020  172.3540  142.7350 C   0  0  0  0  0  2  0  0  0  0  0  0
  191.3280  171.8740  137.8460 C   0  0  0  0  0  2  0  0  0  0  0  0
  195.7530  172.4690  142.3600 O   0  0  0  0  0  0  0  0  0  0  0  0
  189.2750  174.4300  140.8510 C   0  0  1  0  0  3  0  0  0  0  0  0
  197.0820  170.6520  143.1900 C   0  0  0  0  0  1  0  0  0  0  0  0
  196.9540  172.0570  138.3640 C   0  0  0  0  0  3  0  0  0  0  0  0
  197.6760  173.2380  138.5310 O   0  0  0  0  0  1  0  0  0  0  0  0
  197.8460  171.0100  138.1150 O   0  0  0  0  0  1  0  0  0  0  0  0
  189.9920  173.9610  145.4020 C   0  0  0  0  0  2  0  0  0  0  0  0
  189.2590  174.8090  146.4110 C   0  0  0  0  0  0  0  0  0  0  0  0
  188.4860  175.9200  145.9580 N   0  0  0  0  0  2  0  0  0  0  0  0
  189.3130  174.5380  147.6420 O   0  0  0  0  0  0  0  0  0  0  0  0
  187.3820  176.3420  146.6310 O   0  0  0  0  0  0  0  0  0  0  0  0
  187.1570  177.6870  146.2710 C   0  0  1  0  0  3  0  0  0  0  0  0
  185.8280  179.4040  144.3070 N   0  0  0  0  0  1  0  0  0  0  0  0
  187.9900  177.9580  143.6900 O   0  0  0  0  0  0  0  0  0  0  0  0
  186.7200  177.9130  144.5110 P   0  0  1  0  0  0  0  0  0  0  0  0
  185.7720  176.5980  144.0180 O   0  0  0  0  0  1  0  0  0  0  0  0
  184.8160  178.1600  147.2190 C   0  0  0  0  0  1  0  0  0  0  0  0
  186.7280  179.2190  148.0360 O   0  0  0  0  0  0  0  0  0  0  0  0
  186.2720  178.4390  147.2190 C   0  0  0  0  0  0  0  0  0  0  0  0
  195.0480  175.9050  143.4360 O   0  0  0  0  0  0  0  0  0  0  0  0
  196.2600  176.4130  142.9670 C   0  0  0  0  0  3  0  0  0  0  0  0
  196.7110  176.0940  141.8340 O   0  0  0  0  0  0  0  0  0  0  0  0
  1 23  1  6  0  0  0
  1 34  1  0  0  0  0
  2 28  1  0  0  0  0
  3  6  1  0  0  0  0
  3  5  1  1  0  0  0
  5 11  1  0  0  0  0
  6 28  1  0  0  0  0
  7  4  1  6  0  0  0
  7 26  1  0  0  0  0
  8 17  1  0  0  0  0
 12 31  1  6  0  0  0
 12  3  1  0  0  0  0
 12 30  1  0  0  0  0
 14  2  2  0  0  0  0
 16 11  1  0  0  0  0
 17  2  1  0  0  0  0
 18 10  1  6  0  0  0
 18 24  1  0  0  0  0
 19 29  1  0  0  0  0
 21 15  1  1  0  0  0
 21 22  1  0  0  0  0
 21 27  1  0  0  0  0
 22 20  1  6  0  0  0
 24  7  1  0  0  0  0
 24 15  1  0  0  0  0
 24 20  1  1  0  0  0
 25  9  1  6  0  0  0
 25  1  1  0  0  0  0
 25 22  1  0  0  0  0
 26 36  1  6  0  0  0
 26 19  1  0  0  0  0
 27 13  1  1  0  0  0
 27 12  1  0  0  0  0
 28 39  1  1  0  0  0
 29 33  1  0  0  0  0
 29 35  1  1  0  0  0
 30 52  1  6  0  0  0
 30 16  1  0  0  0  0
 32 18  1  0  0  0  0
 32  9  1  0  0  0  0
 33 31  1  0  0  0  0
 34  8  1  1  0  0  0
 34 14  1  0  0  0  0
 36 37  1  0  0  0  0
 38 36  1  0  0  0  0
 39 40  1  0  0  0  0
 40 42  2  0  0  0  0
 41 40  1  0  0  0  0
 41 43  1  0  0  0  0
 44 43  1  1  0  0  0
 44 51  1  0  0  0  0
 45 47  1  0  0  0  0
 47 46  2  6  0  0  0
 47 44  1  0  0  0  0
 48 47  1  0  0  0  0
 49 51  1  0  0  0  0
 51 50  2  0  0  0  0
 53 52  1  0  0  0  0
 54 53  2  0  0  0  0
M  END
>  <MODEL>
6

>  <REMARK>
 VINA RESULT:      -7.4      2.393      2.905
  Name = 
  9 active torsions:
  status: ('A' for Active; 'I' for Inactive)
    1  A    between atoms: C_1  and  P_37
    2  A    between atoms: C_1  and  O_43
    3  A    between atoms: C_1  and  C_47
    4  A    between atoms: C_3  and  C_6
    5  A    between atoms: N_5  and  O_43
    6  A    between atoms: C_6  and  C_44
    7  A    between atoms: O_11  and  C_21
    8  A    between atoms: O_11  and  C_49
    9  A    between atoms: C_23  and  C_41
                            x       y       z     vdW  Elec       q    Type
                         _______ _______ _______ _____ _____    ______ ____

>  <TORSDO>
F 9

$$$$
=
 OpenBabel11062419123D

 54 59  0  0  1  0  0  0  0  0999 V2000
  189.1850  172.7760  140.4580 C   0  0  1  0  0  3  0  0  0  0  0  0
  189.4990  175.3250  142.2970 C   0  0  0  0  0  0  0  0  0  0  0  0
  191.7960  174.3030  144.0800 C   0  0  1  0  0  3  0  0  0  0  0  0
  194.6510  168.7900  140.8390 O   0  0  0  0  0  1  0  0  0  0  0  0
  191.7710  174.1170  145.6180 C   0  0  0  0  0  2  0  0  0  0  0  0
  191.4340  175.6430  143.8120 O   0  0  0  0  0  0  0  0  0  0  0  0
  194.4600  170.0700  141.3520 C   0  0  2  0  0  3  0  0  0  0  0  0
  188.0250  174.9220  140.6380 N   0  0  0  0  0  2  0  0  0  0  0  0
  191.1460  172.0210  139.1240 O   0  0  0  0  0  0  0  0  0  0  0  0
  193.8040  170.5760  138.3780 O   0  0  0  0  0  1  0  0  0  0  0  0
  193.1440  174.3590  146.2340 C   0  0  0  0  0  2  0  0  0  0  0  0
  193.2320  174.0190  143.5290 C   0  0  1  0  0  0  0  0  0  0  0  0
  192.8770  175.4170  141.5320 O   0  0  0  0  0  1  0  0  0  0  0  0
  190.2260  174.7490  141.4150 N   0  0  0  0  0  0  0  0  0  0  0  0
  193.7170  172.2310  140.5300 O   0  0  0  0  0  0  0  0  0  0  0  0
  193.8040  175.4260  145.5790 O   0  0  0  0  0  0  0  0  0  0  0  0
  188.2110  175.4800  141.8780 O   0  0  0  0  0  0  0  0  0  0  0  0
  192.8600  170.2840  139.3730 C   0  0  1  0  0  3  0  0  0  0  0  0
  196.2880  170.5180  143.0220 C   0  0  0  0  0  2  0  0  0  0  0  0
  192.1840  170.8990  141.7340 C   0  0  0  0  0  2  0  0  0  0  0  0
  192.7140  173.0690  141.0440 C   0  0  1  0  0  3  0  0  0  0  0  0
  191.5300  172.2330  141.5390 C   0  0  1  0  0  3  0  0  0  0  0  0
  188.2540  172.2630  139.3560 C   0  0  0  0  0  1  0  0  0  0  0  0
  193.3120  170.8910  140.7280 C   0  0  1  0  0  0  0  0  0  0  0  0
  190.5240  172.0130  140.3820 C   0  0  1  0  0  3  0  0  0  0  0  0
  195.7870  170.8070  141.6040 C   0  0  1  0  0  3  0  0  0  0  0  0
  193.3170  174.1580  141.9670 C   0  0  2  0  0  3  0  0  0  0  0  0
  190.0250  175.7600  143.6410 C   0  0  2  0  0  3  0  0  0  0  0  0
  195.3130  171.0750  144.0630 C   0  0  2  0  0  3  0  0  0  0  0  0
  194.2240  174.9860  144.2940 C   0  0  2  0  0  3  0  0  0  0  0  0
  193.6530  172.5780  143.8940 C   0  0  0  0  0  2  0  0  0  0  0  0
  191.4470  170.6760  138.8840 C   0  0  0  0  0  2  0  0  0  0  0  0
  195.0500  172.4330  143.8080 O   0  0  0  0  0  0  0  0  0  0  0  0
  189.3300  174.2980  140.3590 C   0  0  1  0  0  3  0  0  0  0  0  0
  195.9080  170.9170  145.4570 C   0  0  0  0  0  1  0  0  0  0  0  0
  196.8530  170.5340  140.5330 C   0  0  0  0  0  3  0  0  0  0  0  0
  197.3960  171.7480  140.1140 O   0  0  0  0  0  1  0  0  0  0  0  0
  197.8760  169.7250  141.0350 O   0  0  0  0  0  1  0  0  0  0  0  0
  189.1540  175.4030  144.8530 C   0  0  0  0  0  2  0  0  0  0  0  0
  188.6980  176.6500  145.5680 C   0  0  0  0  0  0  0  0  0  0  0  0
  188.3510  177.8040  144.8030 N   0  0  0  0  0  2  0  0  0  0  0  0
  188.6090  176.6760  146.8260 O   0  0  0  0  0  0  0  0  0  0  0  0
  187.4190  178.6940  145.2390 O   0  0  0  0  0  0  0  0  0  0  0  0
  186.1520  178.1770  144.8990 C   0  0  1  0  0  3  0  0  0  0  0  0
  185.6570  178.9340  147.6850 N   0  0  0  0  0  1  0  0  0  0  0  0
  183.6720  178.6760  145.9120 O   0  0  0  0  0  0  0  0  0  0  0  0
  184.9980  178.0700  146.3130 P   0  0  1  0  0  0  0  0  0  0  0  0
  184.7810  176.4370  146.7070 O   0  0  0  0  0  1  0  0  0  0  0  0
  184.8070  177.9120  142.7250 C   0  0  0  0  0  1  0  0  0  0  0  0
  185.5930  179.9840  143.4600 O   0  0  0  0  0  0  0  0  0  0  0  0
  185.5490  178.7840  143.6680 C   0  0  0  0  0  0  0  0  0  0  0  0
  194.7200  176.0760  143.5180 O   0  0  0  0  0  0  0  0  0  0  0  0
  196.0700  176.3590  143.3070 C   0  0  0  0  0  3  0  0  0  0  0  0
  196.4850  176.7820  142.1940 O   0  0  0  0  0  0  0  0  0  0  0  0
  1 23  1  6  0  0  0
  2 28  1  0  0  0  0
  3  5  1  1  0  0  0
  5 11  1  0  0  0  0
  6  3  1  0  0  0  0
  7  4  1  6  0  0  0
  7 26  1  0  0  0  0
  8 17  1  0  0  0  0
 12 31  1  1  0  0  0
 12  3  1  0  0  0  0
 12 30  1  0  0  0  0
 14  2  2  0  0  0  0
 15 24  1  0  0  0  0
 16 11  1  0  0  0  0
 17  2  1  0  0  0  0
 18 10  1  6  0  0  0
 18 24  1  0  0  0  0
 19 29  1  0  0  0  0
 21 15  1  1  0  0  0
 21 22  1  0  0  0  0
 21 27  1  0  0  0  0
 22 20  1  6  0  0  0
 24  7  1  0  0  0  0
 24 20  1  1  0  0  0
 25  9  1  6  0  0  0
 25  1  1  0  0  0  0
 25 22  1  0  0  0  0
 26 36  1  6  0  0  0
 26 19  1  0  0  0  0
 27 13  1  6  0  0  0
 27 12  1  0  0  0  0
 28  6  1  0  0  0  0
 28 39  1  1  0  0  0
 29 35  1  1  0  0  0
 30 52  1  6  0  0  0
 30 16  1  0  0  0  0
 32  9  1  0  0  0  0
 32 18  1  0  0  0  0
 33 31  1  0  0  0  0
 33 29  1  0  0  0  0
 34  1  1  0  0  0  0
 34  8  1  1  0  0  0
 34 14  1  0  0  0  0
 36 38  1  0  0  0  0
 37 36  1  0  0  0  0
 39 40  1  0  0  0  0
 40 42  2  0  0  0  0
 41 43  1  0  0  0  0
 41 40  1  0  0  0  0
 44 51  1  6  0  0  0
 44 43  1  0  0  0  0
 44 47  1  0  0  0  0
 47 46  2  6  0  0  0
 47 48  1  0  0  0  0
 47 45  1  0  0  0  0
 49 51  1  0  0  0  0
 50 51  2  0  0  0  0
 53 52  1  0  0  0  0
 54 53  2  0  0  0  0
M  END
>  <MODEL>
7

>  <REMARK>
 VINA RESULT:      -7.3      1.883      2.372
  Name = 
  9 active torsions:
  status: ('A' for Active; 'I' for Inactive)
    1  A    between atoms: C_1  and  P_37
    2  A    between atoms: C_1  and  O_43
    3  A    between atoms: C_1  and  C_47
    4  A    between atoms: C_3  and  C_6
    5  A    between atoms: N_5  and  O_43
    6  A    between atoms: C_6  and  C_44
    7  A    between atoms: O_11  and  C_21
    8  A    between atoms: O_11  and  C_49
    9  A    between atoms: C_23  and  C_41
                            x       y       z     vdW  Elec       q    Type
                         _______ _______ _______ _____ _____    ______ ____

>  <TORSDO>
F 9

$$$$
=
 OpenBabel11062419123D

 54 59  0  0  1  0  0  0  0  0999 V2000
  192.0230  175.7820  145.1100 C   0  0  1  0  0  3  0  0  0  0  0  0
  189.7340  173.8300  144.1430 C   0  0  0  0  0  0  0  0  0  0  0  0
  190.4550  173.7560  141.1470 C   0  0  1  0  0  3  0  0  0  0  0  0
  196.9830  176.2110  140.5130 O   0  0  0  0  0  1  0  0  0  0  0  0
  189.5580  174.1920  139.9620 C   0  0  0  0  0  2  0  0  0  0  0  0
  189.7300  172.7960  141.8920 O   0  0  0  0  0  0  0  0  0  0  0  0
  195.8930  175.3460  140.5510 C   0  0  2  0  0  3  0  0  0  0  0  0
  190.1410  174.6630  146.2000 N   0  0  0  0  0  2  0  0  0  0  0  0
  194.3920  175.1200  144.7280 O   0  0  0  0  0  0  0  0  0  0  0  0
  197.1430  174.7590  143.3110 O   0  0  0  0  0  1  0  0  0  0  0  0
  189.8380  173.3640  138.7130 C   0  0  0  0  0  2  0  0  0  0  0  0
  191.7810  173.1240  140.6120 C   0  0  1  0  0  0  0  0  0  0  0  0
  192.1310  171.8100  142.6660 O   0  0  0  0  0  1  0  0  0  0  0  0
  191.0110  173.7620  144.2220 N   0  0  0  0  0  0  0  0  0  0  0  0
  194.8810  173.8150  142.1420 O   0  0  0  0  0  0  0  0  0  0  0  0
  190.0910  172.0140  139.0560 O   0  0  0  0  0  0  0  0  0  0  0  0
  189.1760  174.3200  145.2870 O   0  0  0  0  0  0  0  0  0  0  0  0
  196.1140  175.6800  143.0730 C   0  0  1  0  0  3  0  0  0  0  0  0
  195.6610  174.2880  138.2790 C   0  0  0  0  0  2  0  0  0  0  0  0
  193.9080  175.9480  141.8590 C   0  0  0  0  0  2  0  0  0  0  0  0
  193.5450  173.7510  142.5720 C   0  0  1  0  0  3  0  0  0  0  0  0
  192.9720  175.1630  142.7270 C   0  0  1  0  0  3  0  0  0  0  0  0
  192.4460  176.5120  146.3870 C   0  0  0  0  0  1  0  0  0  0  0  0
  195.2050  175.1740  141.9210 C   0  0  1  0  0  0  0  0  0  0  0  0
  193.2370  175.6810  144.1620 C   0  0  1  0  0  3  0  0  0  0  0  0
  196.1250  174.0700  139.7230 C   0  0  1  0  0  3  0  0  0  0  0  0
  192.7520  172.6900  141.7670 C   0  0  2  0  0  3  0  0  0  0  0  0
  188.9630  173.4250  142.9140 C   0  0  2  0  0  3  0  0  0  0  0  0
  194.1510  174.5330  138.2280 C   0  0  2  0  0  3  0  0  0  0  0  0
  191.3760  171.9270  139.6590 C   0  0  2  0  0  3  0  0  0  0  0  0
  192.5290  174.1530  139.7340 C   0  0  0  0  0  2  0  0  0  0  0  0
  195.4060  176.0280  144.4030 C   0  0  0  0  0  2  0  0  0  0  0  0
  193.4670  173.5080  138.9060 O   0  0  0  0  0  0  0  0  0  0  0  0
  191.3920  174.4300  145.4590 C   0  0  1  0  0  3  0  0  0  0  0  0
  193.6900  174.5890  136.7770 C   0  0  0  0  0  1  0  0  0  0  0  0
  197.5610  173.5360  139.8080 C   0  0  0  0  0  3  0  0  0  0  0  0
  197.6680  172.6950  140.9150 O   0  0  0  0  0  1  0  0  0  0  0  0
  197.9030  172.8210  138.6570 O   0  0  0  0  0  1  0  0  0  0  0  0
  187.8710  174.3990  142.4520 C   0  0  0  0  0  2  0  0  0  0  0  0
  188.2160  175.8130  142.8450 C   0  0  0  0  0  0  0  0  0  0  0  0
  187.1790  176.6850  143.2910 N   0  0  0  0  0  2  0  0  0  0  0  0
  189.4090  176.2230  142.7940 O   0  0  0  0  0  0  0  0  0  0  0  0
  187.4230  177.6840  144.1820 O   0  0  0  0  0  0  0  0  0  0  0  0
  186.4370  177.6010  145.1870 C   0  0  1  0  0  3  0  0  0  0  0  0
  186.5750  178.9810  147.7670 N   0  0  0  0  0  1  0  0  0  0  0  0
  186.6440  176.3150  147.5810 O   0  0  0  0  0  1  0  0  0  0  0  0
  187.1170  177.5700  146.8840 P   0  0  1  0  0  0  0  0  0  0  0  0
  188.8090  177.5630  146.7850 O   0  0  0  0  0  0  0  0  0  0  0  0
  185.4660  179.7280  144.1190 C   0  0  0  0  0  1  0  0  0  0  0  0
  184.2050  178.3480  145.5170 O   0  0  0  0  0  0  0  0  0  0  0  0
  185.2930  178.5530  145.0080 C   0  0  0  0  0  0  0  0  0  0  0  0
  191.5990  170.6260  140.1980 O   0  0  0  0  0  0  0  0  0  0  0  0
  190.7400  169.5380  140.0460 C   0  0  0  0  0  3  0  0  0  0  0  0
  190.5080  168.7450  140.9980 O   0  0  0  0  0  0  0  0  0  0  0  0
  1 34  1  0  0  0  0
  1 23  1  1  0  0  0
  2 14  2  0  0  0  0
  2 17  1  0  0  0  0
  3  5  1  6  0  0  0
  3  6  1  0  0  0  0
  6 28  1  0  0  0  0
  7  4  1  1  0  0  0
  7 24  1  0  0  0  0
 11 16  1  0  0  0  0
 11  5  1  0  0  0  0
 12 31  1  6  0  0  0
 12  3  1  0  0  0  0
 12 27  1  0  0  0  0
 16 30  1  0  0  0  0
 17  8  1  0  0  0  0
 18 10  1  1  0  0  0
 18 32  1  0  0  0  0
 19 26  1  0  0  0  0
 21 15  1  6  0  0  0
 21 22  1  0  0  0  0
 22 20  1  6  0  0  0
 22 25  1  0  0  0  0
 24 20  1  1  0  0  0
 24 15  1  0  0  0  0
 24 18  1  0  0  0  0
 25  9  1  1  0  0  0
 25  1  1  0  0  0  0
 26 36  1  6  0  0  0
 26  7  1  0  0  0  0
 27 21  1  0  0  0  0
 27 13  1  1  0  0  0
 28 39  1  6  0  0  0
 28  2  1  0  0  0  0
 29 35  1  6  0  0  0
 29 19  1  0  0  0  0
 29 33  1  0  0  0  0
 30 52  1  1  0  0  0
 30 12  1  0  0  0  0
 32  9  1  0  0  0  0
 33 31  1  0  0  0  0
 34 14  1  6  0  0  0
 34  8  1  0  0  0  0
 36 37  1  0  0  0  0
 38 36  1  0  0  0  0
 39 40  1  0  0  0  0
 40 41  1  0  0  0  0
 41 43  1  0  0  0  0
 42 40  2  0  0  0  0
 44 43  1  6  0  0  0
 44 47  1  0  0  0  0
 47 48  2  6  0  0  0
 47 46  1  0  0  0  0
 47 45  1  0  0  0  0
 49 51  1  0  0  0  0
 51 44  1  0  0  0  0
 51 50  2  0  0  0  0
 53 52  1  0  0  0  0
 53 54  2  0  0  0  0
M  END
>  <MODEL>
8

>  <REMARK>
 VINA RESULT:      -7.2      2.449      5.537
  Name = 
  9 active torsions:
  status: ('A' for Active; 'I' for Inactive)
    1  A    between atoms: C_1  and  P_37
    2  A    between atoms: C_1  and  O_43
    3  A    between atoms: C_1  and  C_47
    4  A    between atoms: C_3  and  C_6
    5  A    between atoms: N_5  and  O_43
    6  A    between atoms: C_6  and  C_44
    7  A    between atoms: O_11  and  C_21
    8  A    between atoms: O_11  and  C_49
    9  A    between atoms: C_23  and  C_41
                            x       y       z     vdW  Elec       q    Type
                         _______ _______ _______ _____ _____    ______ ____

>  <TORSDO>
F 9

$$$$
=
 OpenBabel11062419123D

 54 59  0  0  1  0  0  0  0  0999 V2000
  189.9550  171.2000  138.5420 C   0  0  1  0  0  3  0  0  0  0  0  0
  189.3310  174.0120  139.8390 C   0  0  0  0  0  0  0  0  0  0  0  0
  190.8470  173.6200  142.4940 C   0  0  1  0  0  3  0  0  0  0  0  0
  195.1670  168.1740  141.6410 O   0  0  0  0  0  1  0  0  0  0  0  0
  190.2510  173.6640  143.9230 C   0  0  0  0  0  2  0  0  0  0  0  0
  190.5060  174.8370  141.8590 O   0  0  0  0  0  0  0  0  0  0  0  0
  194.6900  169.4740  141.7910 C   0  0  2  0  0  3  0  0  0  0  0  0
  188.6430  173.1510  137.8710 N   0  0  0  0  0  2  0  0  0  0  0  0
  192.3320  170.5560  138.1820 O   0  0  0  0  0  0  0  0  0  0  0  0
  195.1820  169.4280  138.7440 O   0  0  0  0  0  1  0  0  0  0  0  0
  191.2590  174.1970  144.9340 C   0  0  0  0  0  2  0  0  0  0  0  0
  192.4030  173.4750  142.5660 C   0  0  1  0  0  0  0  0  0  0  0  0
  192.7250  174.4920  140.3450 O   0  0  0  0  0  1  0  0  0  0  0  0
  190.3850  173.4260  139.4090 N   0  0  0  0  0  0  0  0  0  0  0  0
  194.1430  171.3530  140.3530 O   0  0  0  0  0  0  0  0  0  0  0  0
  192.0290  175.2410  144.3680 O   0  0  0  0  0  0  0  0  0  0  0  0
  188.2940  173.9090  138.9600 O   0  0  0  0  0  0  0  0  0  0  0  0
  193.9570  169.1500  139.3650 C   0  0  1  0  0  3  0  0  0  0  0  0
  195.6960  170.4330  143.8880 C   0  0  0  0  0  2  0  0  0  0  0  0
  192.3810  170.0020  141.1550 C   0  0  0  0  0  2  0  0  0  0  0  0
  192.9540  172.0990  140.2960 C   0  0  1  0  0  3  0  0  0  0  0  0
  191.7440  171.1790  140.4810 C   0  0  1  0  0  3  0  0  0  0  0  0
  189.5620  170.3950  137.3000 C   0  0  0  0  0  1  0  0  0  0  0  0
  193.8050  170.0120  140.6470 C   0  0  1  0  0  0  0  0  0  0  0  0
  191.2790  170.6420  139.1060 C   0  0  1  0  0  3  0  0  0  0  0  0
  195.7540  170.4290  142.3570 C   0  0  1  0  0  3  0  0  0  0  0  0
  193.0670  173.3920  141.1450 C   0  0  2  0  0  3  0  0  0  0  0  0
  189.2650  174.7160  141.1690 C   0  0  2  0  0  3  0  0  0  0  0  0
  194.3550  170.9870  144.3760 C   0  0  2  0  0  3  0  0  0  0  0  0
  192.9430  174.6830  143.4340 C   0  0  2  0  0  3  0  0  0  0  0  0
  192.7680  172.1830  143.3300 C   0  0  0  0  0  2  0  0  0  0  0  0
  192.8110  169.2500  138.3320 C   0  0  0  0  0  2  0  0  0  0  0  0
  194.0990  172.2370  143.7850 O   0  0  0  0  0  0  0  0  0  0  0  0
  190.0010  172.6950  138.2090 C   0  0  1  0  0  3  0  0  0  0  0  0
  194.3820  171.1280  145.8930 C   0  0  0  0  0  1  0  0  0  0  0  0
  197.1670  170.1620  141.8190 C   0  0  0  0  0  3  0  0  0  0  0  0
  197.7800  171.3810  141.5290 O   0  0  0  0  0  1  0  0  0  0  0  0
  197.9410  169.4740  142.7570 O   0  0  0  0  0  1  0  0  0  0  0  0
  188.0290  174.4180  142.0290 C   0  0  0  0  0  2  0  0  0  0  0  0
  187.1450  175.6340  142.1320 C   0  0  0  0  0  0  0  0  0  0  0  0
  186.4820  175.9130  143.3640 N   0  0  0  0  0  2  0  0  0  0  0  0
  186.9990  176.4090  141.1470 O   0  0  0  0  0  0  0  0  0  0  0  0
  186.1900  177.1860  143.7440 O   0  0  0  0  0  0  0  0  0  0  0  0
  186.1780  177.2120  145.1550 C   0  0  1  0  0  3  0  0  0  0  0  0
  189.0570  177.5100  144.7110 N   0  0  0  0  0  1  0  0  0  0  0  0
  187.9160  178.0990  147.0560 O   0  0  0  0  0  1  0  0  0  0  0  0
  187.8410  177.1190  145.9070 P   0  0  1  0  0  0  0  0  0  0  0  0
  188.0820  175.5450  146.4860 O   0  0  0  0  0  0  0  0  0  0  0  0
  184.5300  177.9780  146.9730 C   0  0  0  0  0  1  0  0  0  0  0  0
  185.2670  179.4040  145.2780 O   0  0  0  0  0  0  0  0  0  0  0  0
  185.3030  178.2780  145.7430 C   0  0  0  0  0  0  0  0  0  0  0  0
  193.6070  175.7060  142.6950 O   0  0  0  0  0  0  0  0  0  0  0  0
  194.9800  175.9540  142.7270 C   0  0  0  0  0  3  0  0  0  0  0  0
  195.7300  175.3890  143.5670 O   0  0  0  0  0  0  0  0  0  0  0  0
  1 23  1  6  0  0  0
  1 25  1  0  0  0  0
  2 28  1  0  0  0  0
  3 12  1  0  0  0  0
  3  5  1  1  0  0  0
  5 11  1  0  0  0  0
  6  3  1  0  0  0  0
  7  4  1  6  0  0  0
  7 26  1  0  0  0  0
  8 17  1  0  0  0  0
  9 32  1  0  0  0  0
 12 31  1  1  0  0  0
 12 30  1  0  0  0  0
 14  2  2  0  0  0  0
 15 24  1  0  0  0  0
 16 11  1  0  0  0  0
 17  2  1  0  0  0  0
 18 10  1  6  0  0  0
 18 24  1  0  0  0  0
 19 29  1  0  0  0  0
 21 15  1  1  0  0  0
 21 22  1  0  0  0  0
 21 27  1  0  0  0  0
 22 20  1  1  0  0  0
 24 20  1  1  0  0  0
 24  7  1  0  0  0  0
 25  9  1  6  0  0  0
 25 22  1  0  0  0  0
 26 36  1  1  0  0  0
 26 19  1  0  0  0  0
 27 13  1  6  0  0  0
 27 12  1  0  0  0  0
 28  6  1  0  0  0  0
 28 39  1  1  0  0  0
 29 35  1  1  0  0  0
 30 52  1  6  0  0  0
 30 16  1  0  0  0  0
 31 33  1  0  0  0  0
 32 18  1  0  0  0  0
 33 29  1  0  0  0  0
 34  8  1  1  0  0  0
 34  1  1  0  0  0  0
 34 14  1  0  0  0  0
 36 38  1  0  0  0  0
 37 36  1  0  0  0  0
 39 40  1  0  0  0  0
 40 41  1  0  0  0  0
 41 43  1  0  0  0  0
 42 40  2  0  0  0  0
 44 43  1  6  0  0  0
 44 51  1  0  0  0  0
 44 47  1  0  0  0  0
 47 45  1  6  0  0  0
 47 48  2  0  0  0  0
 47 46  1  0  0  0  0
 50 51  2  0  0  0  0
 51 49  1  0  0  0  0
 52 53  1  0  0  0  0
 53 54  2  0  0  0  0
M  END
>  <MODEL>
9

>  <REMARK>
 VINA RESULT:      -6.9      2.275      3.297
  Name = 
  9 active torsions:
  status: ('A' for Active; 'I' for Inactive)
    1  A    between atoms: C_1  and  P_37
    2  A    between atoms: C_1  and  O_43
    3  A    between atoms: C_1  and  C_47
    4  A    between atoms: C_3  and  C_6
    5  A    between atoms: N_5  and  O_43
    6  A    between atoms: C_6  and  C_44
    7  A    between atoms: O_11  and  C_21
    8  A    between atoms: O_11  and  C_49
    9  A    between atoms: C_23  and  C_41
                            x       y       z     vdW  Elec       q    Type
                         _______ _______ _______ _____ _____    ______ ____

>  <TORSDO>
F 9

$$$$
