=
 OpenBabel11062420113D

 52 54  0  0  1  0  0  0  0  0999 V2000
  190.1930  172.6300  142.7580 C   0  0  0  0  0  0  0  0  0  0  0  0
  191.3810  172.6840  143.2860 C   0  0  0  0  0  3  0  0  0  0  0  0
  189.0120  172.6200  142.1960 C   0  0  0  0  0  3  0  0  0  0  0  0
  187.3370  176.2500  140.7230 C   0  0  0  0  0  0  0  0  0  0  0  0
  187.9040  175.3490  139.8780 N   0  0  0  0  0  0  0  0  0  0  0  0
  186.7330  177.0260  143.0320 C   0  0  2  0  0  3  0  0  0  0  0  0
  187.2650  175.9760  142.0950 C   0  0  0  0  0  0  0  0  0  0  0  0
  186.1720  176.4230  144.1600 O   0  0  0  0  0  1  0  0  0  0  0  0
  187.8130  174.7860  142.5750 C   0  0  0  0  0  3  0  0  0  0  0  0
  188.4190  174.1670  140.3240 C   0  0  0  0  0  0  0  0  0  0  0  0
  185.6940  177.9430  142.3440 C   0  0  2  0  0  0  0  0  0  0  0  0
  188.3860  173.8600  141.6950 C   0  0  0  0  0  0  0  0  0  0  0  0
  184.4760  177.2840  142.2560 F   0  0  0  0  0  0  0  0  0  0  0  0
  186.8430  177.4960  140.2170 N   0  0  0  0  0  0  0  0  0  0  0  0
  186.1280  178.3030  140.9440 C   0  0  0  0  0  3  0  0  0  0  0  0
  185.5330  179.1580  143.0760 O   0  0  0  0  0  0  0  0  0  0  0  0
  183.5110  179.2310  144.1800 O   0  0  0  0  0  0  0  0  0  0  0  0
  184.7730  179.2420  144.2440 C   0  0  0  0  0  0  0  0  0  0  0  0
  185.4380  179.4540  145.5620 C   0  0  0  0  0  2  0  0  0  0  0  0
  185.8760  178.1450  147.6100 C   0  0  0  0  0  1  0  0  0  0  0  0
  184.8120  178.5580  146.6140 C   0  0  0  0  0  2  0  0  0  0  0  0
  189.0030  173.2790  139.4210 O   0  0  0  0  0  0  0  0  0  0  0  0
  190.2760  173.5010  138.9360 N   0  0  0  0  0  2  0  0  0  0  0  0
  190.5190  172.5890  137.8200 C   0  0  0  0  0  2  0  0  0  0  0  0
  191.6050  171.5540  138.1300 C   0  0  1  0  0  3  0  0  0  0  0  0
  193.8910  171.7030  137.9790 O   0  0  0  0  0  0  0  0  0  0  0  0
  192.8320  171.9310  137.4710 N   0  0  0  0  0  0  0  0  0  0  0  0
  191.8300  171.3410  139.6310 C   0  0  0  0  0  2  0  0  0  0  0  0
  191.0850  170.1280  140.1720 C   0  0  0  0  0  1  0  0  0  0  0  0
  191.9120  171.5740  144.0890 C   0  0  0  0  0  3  0  0  0  0  0  0
  193.1840  171.4260  144.2990 N   0  0  0  0  0  0  0  0  0  0  0  0
  194.2020  172.3360  143.7800 C   0  0  2  0  0  3  0  0  0  0  0  0
  195.2090  171.6000  143.1470 O   0  0  0  0  0  1  0  0  0  0  0  0
  194.8090  173.1870  144.9040 C   0  0  2  0  0  3  0  0  0  0  0  0
  195.7500  172.3310  145.7580 C   0  0  0  0  0  2  0  0  0  0  0  0
  197.1910  172.8100  145.7030 C   0  0  0  0  0  2  0  0  0  0  0  0
  197.9380  173.9340  143.7220 O   0  0  0  0  0  1  0  0  0  0  0  0
  197.3160  174.1270  144.9570 C   0  0  0  0  0  2  0  0  0  0  0  0
  193.7840  173.6980  145.7200 O   0  0  0  0  0  0  0  0  0  0  0  0
  193.8060  175.0930  145.5750 C   0  0  2  0  0  3  0  0  0  0  0  0
  194.5680  175.6750  146.5910 O   0  0  0  0  0  1  0  0  0  0  0  0
  191.2630  178.5460  143.6920 C   0  0  0  0  0  1  0  0  0  0  0  0
  192.3840  175.6460  145.6120 C   0  0  1  0  0  3  0  0  0  0  0  0
  191.3260  177.0850  144.1080 C   0  0  2  0  0  0  0  0  0  0  0  0
  191.9370  175.6740  146.9410 O   0  0  0  0  0  0  0  0  0  0  0  0
  189.9290  176.7050  144.6280 C   0  0  0  0  0  2  0  0  0  0  0  0
  190.6840  175.0550  146.9250 C   0  0  0  0  0  2  0  0  0  0  0  0
  189.5610  176.0880  147.0500 C   0  0  0  0  0  2  0  0  0  0  0  0
  189.6830  177.2280  146.0410 C   0  0  0  0  0  2  0  0  0  0  0  0
  192.3550  176.9530  145.0810 O   0  0  0  0  0  0  0  0  0  0  0  0
  191.6210  176.2420  142.8600 C   0  0  0  0  0  2  0  0  0  0  0  0
  192.9030  176.5110  142.3680 O   0  0  0  0  0  1  0  0  0  0  0  0
  1  2  2  0  0  0  0
  2 30  1  0  0  0  0
  3  1  2  0  0  0  0
  4  7  2  0  0  0  0
  5 10  2  0  0  0  0
  5  4  1  0  0  0  0
  6  8  1  1  0  0  0
  7  9  1  0  0  0  0
  7  6  1  0  0  0  0
 10 12  1  0  0  0  0
 11 13  1  6  0  0  0
 11  6  1  0  0  0  0
 11 16  1  0  0  0  0
 12  3  1  0  0  0  0
 12  9  2  0  0  0  0
 14  4  1  0  0  0  0
 14 15  2  0  0  0  0
 15 11  1  0  0  0  0
 16 18  1  0  0  0  0
 17 18  2  0  0  0  0
 18 19  1  0  0  0  0
 19 21  1  0  0  0  0
 21 20  1  0  0  0  0
 22 10  1  0  0  0  0
 23 22  1  0  0  0  0
 24 23  1  0  0  0  0
 25 24  1  1  0  0  0
 25 28  1  0  0  0  0
 27 26  2  0  0  0  0
 27 25  1  0  0  0  0
 28 29  1  0  0  0  0
 30 31  2  0  0  0  0
 32 33  1  1  0  0  0
 32 31  1  0  0  0  0
 32 34  1  0  0  0  0
 34 39  1  0  0  0  0
 34 35  1  1  0  0  0
 36 35  1  0  0  0  0
 37 38  1  0  0  0  0
 38 36  1  0  0  0  0
 40 39  1  0  0  0  0
 40 41  1  1  0  0  0
 43 40  1  1  0  0  0
 43 45  1  0  0  0  0
 44 42  1  6  0  0  0
 44 46  1  0  0  0  0
 44 50  1  0  0  0  0
 46 49  1  0  0  0  0
 47 45  1  0  0  0  0
 47 48  1  0  0  0  0
 49 48  1  0  0  0  0
 50 43  1  0  0  0  0
 51 44  1  0  0  0  0
 52 51  1  0  0  0  0
M  END
>  <MODEL>
1

>  <REMARK>
 VINA RESULT:      -6.5      0.000      0.000
  Name = 
  21 active torsions:
  status: ('A' for Active; 'I' for Inactive)
    1  A    between atoms: C_1  and  C_30
    2  A    between atoms: C_1  and  N_38
    3  A    between atoms: C_6  and  C_28
    4  A    between atoms: C_6  and  C_36
    5  A    between atoms: N_8  and  O_45
    6  A    between atoms: N_8  and  C_49
    7  A    between atoms: C_9  and  C_14
    8  A    between atoms: C_10  and  C_21
    9  A    between atoms: C_10  and  O_47
   10  A    between atoms: O_13  and  C_36
   11  A    between atoms: O_13  and  C_37
   12  A    between atoms: C_14  and  C_32
   13  A    between atoms: C_15  and  C_29
   14  A    between atoms: C_16  and  C_42
   15  A    between atoms: C_18  and  C_25
   16  A    between atoms: N_22  and  C_42
   17  A    between atoms: C_30  and  C_32
   18  A    between atoms: C_30  and  O_47
   19  A    between atoms: C_31  and  O_45
   20  A    between atoms: C_33  and  C_40
   21  A    between atoms: C_42  and  C_49
                            x       y       z     vdW  Elec       q    Type
                         _______ _______ _______ _____ _____    ______ ____

>  <TORSDO>
F 21

$$$$
=
 OpenBabel11062420113D

 52 54  0  0  1  0  0  0  0  0999 V2000
  194.1720  175.7480  142.5780 C   0  0  0  0  0  0  0  0  0  0  0  0
  194.2080  175.2460  141.3780 C   0  0  0  0  0  3  0  0  0  0  0  0
  194.1070  176.2080  143.8000 C   0  0  0  0  0  3  0  0  0  0  0  0
  190.8090  175.1550  146.2840 C   0  0  0  0  0  0  0  0  0  0  0  0
  192.0040  174.5200  146.4050 N   0  0  0  0  0  0  0  0  0  0  0  0
  189.3020  176.8180  145.1590 C   0  0  2  0  0  3  0  0  0  0  0  0
  190.6570  176.1960  145.3570 C   0  0  0  0  0  0  0  0  0  0  0  0
  189.4390  178.1400  144.7280 O   0  0  0  0  0  1  0  0  0  0  0  0
  191.7400  176.5400  144.5470 C   0  0  0  0  0  3  0  0  0  0  0  0
  193.0820  174.8610  145.6400 C   0  0  0  0  0  0  0  0  0  0  0  0
  188.4450  176.7610  146.4450 C   0  0  2  0  0  0  0  0  0  0  0  0
  192.9690  175.8860  144.6850 C   0  0  0  0  0  0  0  0  0  0  0  0
  188.8620  177.7480  147.3270 F   0  0  0  0  0  0  0  0  0  0  0  0
  189.6920  174.7390  147.0790 N   0  0  0  0  0  0  0  0  0  0  0  0
  188.5910  175.4280  147.1390 C   0  0  0  0  0  3  0  0  0  0  0  0
  187.0620  176.9420  146.1370 O   0  0  0  0  0  0  0  0  0  0  0  0
  185.9270  177.4870  148.0670 O   0  0  0  0  0  0  0  0  0  0  0  0
  186.2270  177.7820  146.8760 C   0  0  0  0  0  0  0  0  0  0  0  0
  185.5960  178.9720  146.2350 C   0  0  0  0  0  2  0  0  0  0  0  0
  184.7910  179.1820  143.9090 C   0  0  0  0  0  1  0  0  0  0  0  0
  186.0240  179.0710  144.7830 C   0  0  0  0  0  2  0  0  0  0  0  0
  194.2850  174.1720  145.7900 O   0  0  0  0  0  0  0  0  0  0  0  0
  194.3400  172.8030  145.6210 N   0  0  0  0  0  2  0  0  0  0  0  0
  194.7660  172.5160  144.2530 C   0  0  0  0  0  2  0  0  0  0  0  0
  196.2500  172.1450  144.1620 C   0  0  1  0  0  3  0  0  0  0  0  0
  197.5730  170.7980  145.4660 O   0  0  0  0  0  0  0  0  0  0  0  0
  196.5030  170.9710  144.9620 N   0  0  0  0  0  0  0  0  0  0  0  0
  196.7380  171.9460  142.7230 C   0  0  0  0  0  2  0  0  0  0  0  0
  197.2090  173.2420  142.0770 C   0  0  0  0  0  1  0  0  0  0  0  0
  195.1150  175.7790  140.3530 C   0  0  0  0  0  3  0  0  0  0  0  0
  195.3320  175.1550  139.2360 N   0  0  0  0  0  0  0  0  0  0  0  0
  194.6990  173.8880  138.8800 C   0  0  2  0  0  3  0  0  0  0  0  0
  195.6470  173.0370  138.3010 O   0  0  0  0  0  1  0  0  0  0  0  0
  193.5320  174.1050  137.9060 C   0  0  2  0  0  3  0  0  0  0  0  0
  193.6810  175.4600  137.2070 C   0  0  0  0  0  2  0  0  0  0  0  0
  192.5530  175.7450  136.2310 C   0  0  0  0  0  2  0  0  0  0  0  0
  191.1310  174.3040  134.9460 O   0  0  0  0  0  1  0  0  0  0  0  0
  192.4610  174.6770  135.1540 C   0  0  0  0  0  2  0  0  0  0  0  0
  192.3150  174.0810  138.6090 O   0  0  0  0  0  0  0  0  0  0  0  0
  192.0870  172.7470  138.9820 C   0  0  2  0  0  3  0  0  0  0  0  0
  191.2540  172.1190  138.0540 O   0  0  0  0  0  1  0  0  0  0  0  0
  189.4870  175.4050  141.8300 C   0  0  0  0  0  1  0  0  0  0  0  0
  191.4530  172.6930  140.3680 C   0  0  1  0  0  3  0  0  0  0  0  0
  189.7510  174.0200  141.2600 C   0  0  2  0  0  0  0  0  0  0  0  0
  192.3740  172.1460  141.2730 O   0  0  0  0  0  0  0  0  0  0  0  0
  189.4640  173.0090  142.3840 C   0  0  0  0  0  2  0  0  0  0  0  0
  191.6770  171.1430  141.9530 C   0  0  0  0  0  2  0  0  0  0  0  0
  191.3100  171.5940  143.3690 C   0  0  0  0  0  2  0  0  0  0  0  0
  190.6000  172.9460  143.4010 C   0  0  0  0  0  2  0  0  0  0  0  0
  191.0930  173.9890  140.7920 O   0  0  0  0  0  0  0  0  0  0  0  0
  188.7530  173.7700  140.1220 C   0  0  0  0  0  2  0  0  0  0  0  0
  187.9100  172.6960  140.4240 O   0  0  0  0  0  1  0  0  0  0  0  0
  1  3  2  0  0  0  0
  2  1  2  0  0  0  0
  3 12  1  0  0  0  0
  4  5  1  0  0  0  0
  4 14  1  0  0  0  0
  6  8  1  1  0  0  0
  6  7  1  0  0  0  0
  6 11  1  0  0  0  0
  7  4  2  0  0  0  0
  9 12  2  0  0  0  0
  9  7  1  0  0  0  0
 10 22  1  0  0  0  0
 10  5  2  0  0  0  0
 11 15  1  0  0  0  0
 11 13  1  1  0  0  0
 12 10  1  0  0  0  0
 14 15  2  0  0  0  0
 16 11  1  0  0  0  0
 16 18  1  0  0  0  0
 18 17  2  0  0  0  0
 19 18  1  0  0  0  0
 20 21  1  0  0  0  0
 21 19  1  0  0  0  0
 23 22  1  0  0  0  0
 24 23  1  0  0  0  0
 25 28  1  6  0  0  0
 25 24  1  0  0  0  0
 25 27  1  0  0  0  0
 27 26  2  0  0  0  0
 29 28  1  0  0  0  0
 30  2  1  0  0  0  0
 31 30  2  0  0  0  0
 32 33  1  6  0  0  0
 32 31  1  0  0  0  0
 34 35  1  1  0  0  0
 34 39  1  0  0  0  0
 34 32  1  0  0  0  0
 36 35  1  0  0  0  0
 37 38  1  0  0  0  0
 38 36  1  0  0  0  0
 39 40  1  0  0  0  0
 40 41  1  6  0  0  0
 43 40  1  6  0  0  0
 43 50  1  0  0  0  0
 43 45  1  0  0  0  0
 44 42  1  1  0  0  0
 44 46  1  0  0  0  0
 45 47  1  0  0  0  0
 46 49  1  0  0  0  0
 47 48  1  0  0  0  0
 48 49  1  0  0  0  0
 50 44  1  0  0  0  0
 51 52  1  0  0  0  0
 51 44  1  0  0  0  0
M  END
>  <MODEL>
2

>  <REMARK>
 VINA RESULT:      -5.9      2.823      6.585
  Name = 
  21 active torsions:
  status: ('A' for Active; 'I' for Inactive)
    1  A    between atoms: C_1  and  C_30
    2  A    between atoms: C_1  and  N_38
    3  A    between atoms: C_6  and  C_28
    4  A    between atoms: C_6  and  C_36
    5  A    between atoms: N_8  and  O_45
    6  A    between atoms: N_8  and  C_49
    7  A    between atoms: C_9  and  C_14
    8  A    between atoms: C_10  and  C_21
    9  A    between atoms: C_10  and  O_47
   10  A    between atoms: O_13  and  C_36
   11  A    between atoms: O_13  and  C_37
   12  A    between atoms: C_14  and  C_32
   13  A    between atoms: C_15  and  C_29
   14  A    between atoms: C_16  and  C_42
   15  A    between atoms: C_18  and  C_25
   16  A    between atoms: N_22  and  C_42
   17  A    between atoms: C_30  and  C_32
   18  A    between atoms: C_30  and  O_47
   19  A    between atoms: C_31  and  O_45
   20  A    between atoms: C_33  and  C_40
   21  A    between atoms: C_42  and  C_49
                            x       y       z     vdW  Elec       q    Type
                         _______ _______ _______ _____ _____    ______ ____

>  <TORSDO>
F 21

$$$$
=
 OpenBabel11062420113D

 52 54  0  0  1  0  0  0  0  0999 V2000
  193.0190  175.5320  142.0940 C   0  0  0  0  0  0  0  0  0  0  0  0
  193.0720  174.7250  141.0740 C   0  0  0  0  0  3  0  0  0  0  0  0
  192.9390  176.3020  143.1470 C   0  0  0  0  0  3  0  0  0  0  0  0
  189.7460  175.7830  145.9210 C   0  0  0  0  0  0  0  0  0  0  0  0
  191.0120  175.4010  146.2340 N   0  0  0  0  0  0  0  0  0  0  0  0
  188.0610  176.7080  144.3070 C   0  0  2  0  0  3  0  0  0  0  0  0
  189.4820  176.3880  144.6850 C   0  0  0  0  0  0  0  0  0  0  0  0
  188.0310  177.7910  143.4250 O   0  0  0  0  0  1  0  0  0  0  0  0
  190.5290  176.5590  143.7790 C   0  0  0  0  0  3  0  0  0  0  0  0
  192.0550  175.5850  145.3730 C   0  0  0  0  0  0  0  0  0  0  0  0
  187.1850  177.0050  145.5470 C   0  0  2  0  0  0  0  0  0  0  0  0
  191.8320  176.1710  144.1160 C   0  0  0  0  0  0  0  0  0  0  0  0
  187.4420  178.2910  146.0030 F   0  0  0  0  0  0  0  0  0  0  0  0
  188.6750  175.5360  146.8380 N   0  0  0  0  0  0  0  0  0  0  0  0
  187.4900  176.0450  146.6720 C   0  0  0  0  0  3  0  0  0  0  0  0
  185.7990  176.8750  145.2270 O   0  0  0  0  0  0  0  0  0  0  0  0
  184.2040  178.1760  146.2630 O   0  0  0  0  0  0  0  0  0  0  0  0
  184.9160  177.9560  145.2430 C   0  0  0  0  0  0  0  0  0  0  0  0
  184.7240  178.7900  144.0210 C   0  0  0  0  0  2  0  0  0  0  0  0
  185.0900  178.4710  141.6000 C   0  0  0  0  0  1  0  0  0  0  0  0
  184.4080  177.9070  142.8290 C   0  0  0  0  0  2  0  0  0  0  0  0
  193.3350  175.1650  145.7340 O   0  0  0  0  0  0  0  0  0  0  0  0
  193.6430  173.8220  145.8050 N   0  0  0  0  0  2  0  0  0  0  0  0
  194.7230  173.5370  144.8640 C   0  0  0  0  0  2  0  0  0  0  0  0
  195.4560  172.2290  145.1840 C   0  0  1  0  0  3  0  0  0  0  0  0
  197.0320  173.5760  146.1700 O   0  0  0  0  0  0  0  0  0  0  0  0
  196.5260  172.4930  146.1150 N   0  0  0  0  0  0  0  0  0  0  0  0
  194.5290  171.1280  145.7100 C   0  0  0  0  0  2  0  0  0  0  0  0
  193.7710  170.4160  144.5980 C   0  0  0  0  0  1  0  0  0  0  0  0
  193.9360  175.0080  139.9190 C   0  0  0  0  0  3  0  0  0  0  0  0
  194.3820  174.0650  139.1480 N   0  0  0  0  0  0  0  0  0  0  0  0
  194.0690  172.6500  139.3340 C   0  0  2  0  0  3  0  0  0  0  0  0
  195.2520  171.9030  139.3170 O   0  0  0  0  0  1  0  0  0  0  0  0
  193.1190  172.1450  138.2400 C   0  0  2  0  0  3  0  0  0  0  0  0
  193.3870  172.8920  136.9300 C   0  0  0  0  0  2  0  0  0  0  0  0
  193.6700  171.9560  135.7670 C   0  0  0  0  0  2  0  0  0  0  0  0
  195.2060  170.1650  136.1890 O   0  0  0  0  0  1  0  0  0  0  0  0
  193.8570  170.5230  136.2340 C   0  0  0  0  0  2  0  0  0  0  0  0
  191.7860  172.3620  138.6300 O   0  0  0  0  0  0  0  0  0  0  0  0
  191.4230  171.2870  139.4550 C   0  0  2  0  0  3  0  0  0  0  0  0
  190.7100  170.3340  138.7250 O   0  0  0  0  0  1  0  0  0  0  0  0
  188.5210  174.8060  140.5200 C   0  0  0  0  0  1  0  0  0  0  0  0
  190.5760  171.7850  140.6220 C   0  0  1  0  0  3  0  0  0  0  0  0
  188.8130  173.3160  140.6120 C   0  0  2  0  0  0  0  0  0  0  0  0
  191.3190  171.6790  141.8060 O   0  0  0  0  0  0  0  0  0  0  0  0
  188.3100  172.8440  141.9870 C   0  0  0  0  0  2  0  0  0  0  0  0
  190.4820  171.0220  142.7130 C   0  0  0  0  0  2  0  0  0  0  0  0
  189.9160  172.0010  143.7450 C   0  0  0  0  0  2  0  0  0  0  0  0
  189.2680  173.2300  143.1100 C   0  0  0  0  0  2  0  0  0  0  0  0
  190.2100  173.1320  140.4190 O   0  0  0  0  0  0  0  0  0  0  0  0
  187.9970  172.5990  139.5280 C   0  0  0  0  0  2  0  0  0  0  0  0
  188.2960  173.1070  138.2600 O   0  0  0  0  0  1  0  0  0  0  0  0
  1  3  2  0  0  0  0
  2  1  2  0  0  0  0
  3 12  1  0  0  0  0
  4  5  1  0  0  0  0
  4 14  1  0  0  0  0
  6  8  1  6  0  0  0
  6  7  1  0  0  0  0
  6 11  1  0  0  0  0
  7  4  2  0  0  0  0
  9 12  2  0  0  0  0
  9  7  1  0  0  0  0
 10 22  1  0  0  0  0
 10  5  2  0  0  0  0
 11 13  1  1  0  0  0
 11 15  1  0  0  0  0
 12 10  1  0  0  0  0
 15 14  2  0  0  0  0
 16 18  1  0  0  0  0
 16 11  1  0  0  0  0
 18 17  2  0  0  0  0
 19 18  1  0  0  0  0
 20 21  1  0  0  0  0
 21 19  1  0  0  0  0
 22 23  1  0  0  0  0
 24 23  1  0  0  0  0
 25 24  1  1  0  0  0
 25 28  1  0  0  0  0
 25 27  1  0  0  0  0
 27 26  2  0  0  0  0
 29 28  1  0  0  0  0
 30  2  1  0  0  0  0
 31 32  1  0  0  0  0
 31 30  2  0  0  0  0
 32 33  1  6  0  0  0
 34 35  1  6  0  0  0
 34 39  1  0  0  0  0
 34 32  1  0  0  0  0
 36 38  1  0  0  0  0
 36 35  1  0  0  0  0
 37 38  1  0  0  0  0
 39 40  1  0  0  0  0
 40 41  1  6  0  0  0
 43 40  1  6  0  0  0
 43 45  1  0  0  0  0
 44 42  1  6  0  0  0
 44 46  1  0  0  0  0
 45 47  1  0  0  0  0
 46 49  1  0  0  0  0
 47 48  1  0  0  0  0
 49 48  1  0  0  0  0
 50 44  1  0  0  0  0
 50 43  1  0  0  0  0
 51 44  1  0  0  0  0
 52 51  1  0  0  0  0
M  END
>  <MODEL>
3

>  <REMARK>
 VINA RESULT:      -5.8      2.424      6.308
  Name = 
  21 active torsions:
  status: ('A' for Active; 'I' for Inactive)
    1  A    between atoms: C_1  and  C_30
    2  A    between atoms: C_1  and  N_38
    3  A    between atoms: C_6  and  C_28
    4  A    between atoms: C_6  and  C_36
    5  A    between atoms: N_8  and  O_45
    6  A    between atoms: N_8  and  C_49
    7  A    between atoms: C_9  and  C_14
    8  A    between atoms: C_10  and  C_21
    9  A    between atoms: C_10  and  O_47
   10  A    between atoms: O_13  and  C_36
   11  A    between atoms: O_13  and  C_37
   12  A    between atoms: C_14  and  C_32
   13  A    between atoms: C_15  and  C_29
   14  A    between atoms: C_16  and  C_42
   15  A    between atoms: C_18  and  C_25
   16  A    between atoms: N_22  and  C_42
   17  A    between atoms: C_30  and  C_32
   18  A    between atoms: C_30  and  O_47
   19  A    between atoms: C_31  and  O_45
   20  A    between atoms: C_33  and  C_40
   21  A    between atoms: C_42  and  C_49
                            x       y       z     vdW  Elec       q    Type
                         _______ _______ _______ _____ _____    ______ ____

>  <TORSDO>
F 21

$$$$
=
 OpenBabel11062420113D

 52 54  0  0  1  0  0  0  0  0999 V2000
  190.9180  172.1780  139.9830 C   0  0  0  0  0  0  0  0  0  0  0  0
  192.1850  172.1920  139.6870 C   0  0  0  0  0  3  0  0  0  0  0  0
  189.6380  172.2090  140.2480 C   0  0  0  0  0  3  0  0  0  0  0  0
  187.5600  175.9280  140.1720 C   0  0  0  0  0  0  0  0  0  0  0  0
  187.6730  175.1690  139.0510 N   0  0  0  0  0  0  0  0  0  0  0  0
  188.0630  176.3730  142.5910 C   0  0  2  0  0  3  0  0  0  0  0  0
  188.1010  175.4760  141.3840 C   0  0  0  0  0  0  0  0  0  0  0  0
  188.0490  175.6060  143.7590 O   0  0  0  0  0  1  0  0  0  0  0  0
  188.7780  174.2570  141.4070 C   0  0  0  0  0  3  0  0  0  0  0  0
  188.3080  173.9610  139.0600 C   0  0  0  0  0  0  0  0  0  0  0  0
  186.8460  177.3280  142.5640 C   0  0  2  0  0  0  0  0  0  0  0  0
  188.8810  173.4770  140.2480 C   0  0  0  0  0  0  0  0  0  0  0  0
  185.7020  176.6370  142.9380 F   0  0  0  0  0  0  0  0  0  0  0  0
  186.9190  177.2080  140.1100 N   0  0  0  0  0  0  0  0  0  0  0  0
  186.6200  177.8840  141.1790 C   0  0  0  0  0  3  0  0  0  0  0  0
  187.0530  178.4310  143.4480 O   0  0  0  0  0  0  0  0  0  0  0  0
  185.3620  179.7270  144.3270 O   0  0  0  0  0  0  0  0  0  0  0  0
  186.1600  178.7580  144.4700 C   0  0  0  0  0  0  0  0  0  0  0  0
  186.2160  178.0410  145.7770 C   0  0  0  0  0  2  0  0  0  0  0  0
  186.5990  178.8820  148.0670 C   0  0  0  0  0  1  0  0  0  0  0  0
  185.6590  178.9210  146.8800 C   0  0  0  0  0  2  0  0  0  0  0  0
  188.4100  173.2220  137.8810 O   0  0  0  0  0  0  0  0  0  0  0  0
  188.9510  173.7820  136.7420 N   0  0  0  0  0  2  0  0  0  0  0  0
  190.3840  173.4960  136.7130 C   0  0  0  0  0  2  0  0  0  0  0  0
  190.7180  172.2370  135.9060 C   0  0  1  0  0  3  0  0  0  0  0  0
  192.9880  172.5100  136.1130 O   0  0  0  0  0  0  0  0  0  0  0  0
  192.0460  171.7850  136.2460 N   0  0  0  0  0  0  0  0  0  0  0  0
  189.6920  171.1130  136.0840 C   0  0  0  0  0  2  0  0  0  0  0  0
  190.1530  170.0450  137.0680 C   0  0  0  0  0  1  0  0  0  0  0  0
  193.0530  171.0450  139.9870 C   0  0  0  0  0  3  0  0  0  0  0  0
  193.8330  171.0280  141.0230 N   0  0  0  0  0  0  0  0  0  0  0  0
  193.9200  172.1200  141.9910 C   0  0  2  0  0  3  0  0  0  0  0  0
  195.2480  172.2730  142.4050 O   0  0  0  0  0  1  0  0  0  0  0  0
  193.0230  171.8540  143.2070 C   0  0  2  0  0  3  0  0  0  0  0  0
  192.4220  170.4490  143.1160 C   0  0  0  0  0  2  0  0  0  0  0  0
  192.8580  169.5470  144.2580 C   0  0  0  0  0  2  0  0  0  0  0  0
  194.4890  170.0790  145.9320 O   0  0  0  0  0  1  0  0  0  0  0  0
  194.3290  169.7330  144.5890 C   0  0  0  0  0  2  0  0  0  0  0  0
  191.9830  172.7990  143.2470 O   0  0  0  0  0  0  0  0  0  0  0  0
  191.5330  172.8540  144.5750 C   0  0  2  0  0  3  0  0  0  0  0  0
  190.1380  172.9040  144.6130 O   0  0  0  0  0  1  0  0  0  0  0  0
  190.2170  177.1120  146.0150 C   0  0  0  0  0  1  0  0  0  0  0  0
  192.1160  174.0780  145.2750 C   0  0  1  0  0  3  0  0  0  0  0  0
  191.0010  175.8440  146.3190 C   0  0  2  0  0  0  0  0  0  0  0  0
  193.3830  174.3520  144.7410 O   0  0  0  0  0  0  0  0  0  0  0  0
  192.2630  176.2710  147.0890 C   0  0  0  0  0  2  0  0  0  0  0  0
  194.2290  174.4940  145.8450 C   0  0  0  0  0  2  0  0  0  0  0  0
  194.5640  175.9670  146.0920 C   0  0  0  0  0  2  0  0  0  0  0  0
  193.3260  176.8580  146.1640 C   0  0  0  0  0  2  0  0  0  0  0  0
  191.2760  175.1950  145.0840 O   0  0  0  0  0  0  0  0  0  0  0  0
  190.1490  174.9620  147.2410 C   0  0  0  0  0  2  0  0  0  0  0  0
  188.7890  175.1050  146.9500 O   0  0  0  0  0  1  0  0  0  0  0  0
  1  3  2  0  0  0  0
  2  1  2  0  0  0  0
  2 30  1  0  0  0  0
  4  7  2  0  0  0  0
  5 10  2  0  0  0  0
  5  4  1  0  0  0  0
  6  8  1  1  0  0  0
  7  9  1  0  0  0  0
  7  6  1  0  0  0  0
 10 12  1  0  0  0  0
 11  6  1  0  0  0  0
 11 13  1  1  0  0  0
 11 16  1  0  0  0  0
 12  3  1  0  0  0  0
 12  9  2  0  0  0  0
 14  4  1  0  0  0  0
 14 15  2  0  0  0  0
 15 11  1  0  0  0  0
 16 18  1  0  0  0  0
 17 18  2  0  0  0  0
 18 19  1  0  0  0  0
 19 21  1  0  0  0  0
 21 20  1  0  0  0  0
 22 10  1  0  0  0  0
 23 22  1  0  0  0  0
 24 23  1  0  0  0  0
 25 28  1  1  0  0  0
 25 27  1  0  0  0  0
 25 24  1  0  0  0  0
 26 27  2  0  0  0  0
 28 29  1  0  0  0  0
 30 31  2  0  0  0  0
 31 32  1  0  0  0  0
 32 33  1  1  0  0  0
 32 34  1  0  0  0  0
 34 35  1  6  0  0  0
 34 39  1  0  0  0  0
 35 36  1  0  0  0  0
 36 38  1  0  0  0  0
 38 37  1  0  0  0  0
 39 40  1  0  0  0  0
 40 41  1  6  0  0  0
 43 40  1  6  0  0  0
 44 42  1  6  0  0  0
 44 46  1  0  0  0  0
 44 51  1  0  0  0  0
 45 43  1  0  0  0  0
 45 47  1  0  0  0  0
 47 48  1  0  0  0  0
 48 49  1  0  0  0  0
 49 46  1  0  0  0  0
 50 43  1  0  0  0  0
 50 44  1  0  0  0  0
 52 51  1  0  0  0  0
M  END
>  <MODEL>
4

>  <REMARK>
 VINA RESULT:      -5.7      1.874      3.038
  Name = 
  21 active torsions:
  status: ('A' for Active; 'I' for Inactive)
    1  A    between atoms: C_1  and  C_30
    2  A    between atoms: C_1  and  N_38
    3  A    between atoms: C_6  and  C_28
    4  A    between atoms: C_6  and  C_36
    5  A    between atoms: N_8  and  O_45
    6  A    between atoms: N_8  and  C_49
    7  A    between atoms: C_9  and  C_14
    8  A    between atoms: C_10  and  C_21
    9  A    between atoms: C_10  and  O_47
   10  A    between atoms: O_13  and  C_36
   11  A    between atoms: O_13  and  C_37
   12  A    between atoms: C_14  and  C_32
   13  A    between atoms: C_15  and  C_29
   14  A    between atoms: C_16  and  C_42
   15  A    between atoms: C_18  and  C_25
   16  A    between atoms: N_22  and  C_42
   17  A    between atoms: C_30  and  C_32
   18  A    between atoms: C_30  and  O_47
   19  A    between atoms: C_31  and  O_45
   20  A    between atoms: C_33  and  C_40
   21  A    between atoms: C_42  and  C_49
                            x       y       z     vdW  Elec       q    Type
                         _______ _______ _______ _____ _____    ______ ____

>  <TORSDO>
F 21

$$$$
=
 OpenBabel11062420113D

 52 54  0  0  1  0  0  0  0  0999 V2000
  192.3790  173.7380  140.0460 C   0  0  0  0  0  0  0  0  0  0  0  0
  191.4340  172.8430  140.0550 C   0  0  0  0  0  3  0  0  0  0  0  0
  193.3650  174.5970  140.0530 C   0  0  0  0  0  3  0  0  0  0  0  0
  196.7460  174.0400  142.5850 C   0  0  0  0  0  0  0  0  0  0  0  0
  196.8670  174.6730  141.3890 N   0  0  0  0  0  0  0  0  0  0  0  0
  195.3890  172.7990  144.2940 C   0  0  2  0  0  3  0  0  0  0  0  0
  195.4910  173.5910  143.0190 C   0  0  0  0  0  0  0  0  0  0  0  0
  194.1270  172.9740  144.8670 O   0  0  0  0  0  1  0  0  0  0  0  0
  194.3850  173.7770  142.1890 C   0  0  0  0  0  3  0  0  0  0  0  0
  195.7920  174.8880  140.5760 C   0  0  0  0  0  0  0  0  0  0  0  0
  196.4930  173.1860  145.3050 C   0  0  2  0  0  0  0  0  0  0  0  0
  194.5190  174.4380  140.9620 C   0  0  0  0  0  0  0  0  0  0  0  0
  196.1610  174.3830  145.9240 F   0  0  0  0  0  0  0  0  0  0  0  0
  197.9070  173.8000  143.3900 N   0  0  0  0  0  0  0  0  0  0  0  0
  197.8230  173.3740  144.6160 C   0  0  0  0  0  3  0  0  0  0  0  0
  196.6540  172.1630  146.2900 O   0  0  0  0  0  0  0  0  0  0  0  0
  196.1200  169.9510  146.6490 O   0  0  0  0  0  0  0  0  0  0  0  0
  196.7440  170.8090  145.9650 C   0  0  0  0  0  0  0  0  0  0  0  0
  197.6620  170.3540  144.8800 C   0  0  0  0  0  2  0  0  0  0  0  0
  197.5840  169.4880  142.5690 C   0  0  0  0  0  1  0  0  0  0  0  0
  196.9310  169.4200  143.9350 C   0  0  0  0  0  2  0  0  0  0  0  0
  195.9670  175.5300  139.3500 O   0  0  0  0  0  0  0  0  0  0  0  0
  197.1550  175.4160  138.6560 N   0  0  0  0  0  2  0  0  0  0  0  0
  196.8540  175.1620  137.2490 C   0  0  0  0  0  2  0  0  0  0  0  0
  197.2020  173.7330  136.8200 C   0  0  1  0  0  3  0  0  0  0  0  0
  197.9410  171.8440  137.8940 O   0  0  0  0  0  0  0  0  0  0  0  0
  197.8080  173.0320  137.9260 N   0  0  0  0  0  0  0  0  0  0  0  0
  196.0020  172.9560  136.2670 C   0  0  0  0  0  2  0  0  0  0  0  0
  194.6990  173.3060  136.9730 C   0  0  0  0  0  1  0  0  0  0  0  0
  190.1270  173.1060  139.4350 C   0  0  0  0  0  3  0  0  0  0  0  0
  189.0700  173.3590  140.1420 N   0  0  0  0  0  0  0  0  0  0  0  0
  189.0680  173.4230  141.6020 C   0  0  2  0  0  3  0  0  0  0  0  0
  187.9130  172.8090  142.0960 O   0  0  0  0  0  1  0  0  0  0  0  0
  189.1360  174.8760  142.0930 C   0  0  2  0  0  3  0  0  0  0  0  0
  190.4060  175.0890  142.9220 C   0  0  0  0  0  2  0  0  0  0  0  0
  190.9110  173.8080  143.5630 C   0  0  0  0  0  2  0  0  0  0  0  0
  189.6530  172.4480  145.0850 O   0  0  0  0  0  1  0  0  0  0  0  0
  190.3750  173.6380  144.9740 C   0  0  0  0  0  2  0  0  0  0  0  0
  188.0130  175.1620  142.8900 O   0  0  0  0  0  0  0  0  0  0  0  0
  187.2320  176.0840  142.1760 C   0  0  2  0  0  3  0  0  0  0  0  0
  188.0390  176.8530  141.3340 O   0  0  0  0  0  1  0  0  0  0  0  0
  186.7740  176.8010  146.7820 C   0  0  0  0  0  1  0  0  0  0  0  0
  186.4800  176.9920  143.1440 C   0  0  1  0  0  3  0  0  0  0  0  0
  186.9120  177.4180  145.3990 C   0  0  2  0  0  0  0  0  0  0  0  0
  185.1500  177.1150  142.7170 O   0  0  0  0  0  0  0  0  0  0  0  0
  186.0520  178.6940  145.3890 C   0  0  0  0  0  2  0  0  0  0  0  0
  184.8870  178.4880  142.7120 C   0  0  0  0  0  2  0  0  0  0  0  0
  184.0150  178.8840  143.9070 C   0  0  0  0  0  2  0  0  0  0  0  0
  184.5660  178.3810  145.2400 C   0  0  0  0  0  2  0  0  0  0  0  0
  186.5040  176.4460  144.4440 O   0  0  0  0  0  0  0  0  0  0  0  0
  188.3780  177.8240  145.1970 C   0  0  0  0  0  2  0  0  0  0  0  0
  189.2360  176.9370  145.8570 O   0  0  0  0  0  1  0  0  0  0  0  0
  1  3  2  0  0  0  0
  1  2  2  0  0  0  0
  3 12  1  0  0  0  0
  4  7  2  0  0  0  0
  4 14  1  0  0  0  0
  5  4  1  0  0  0  0
  6  8  1  1  0  0  0
  6 11  1  0  0  0  0
  7  6  1  0  0  0  0
  9  7  1  0  0  0  0
 10 12  1  0  0  0  0
 10  5  2  0  0  0  0
 11 13  1  1  0  0  0
 11 16  1  0  0  0  0
 12  9  2  0  0  0  0
 14 15  2  0  0  0  0
 15 11  1  0  0  0  0
 18 16  1  0  0  0  0
 18 17  2  0  0  0  0
 19 18  1  0  0  0  0
 20 21  1  0  0  0  0
 21 19  1  0  0  0  0
 22 10  1  0  0  0  0
 23 22  1  0  0  0  0
 24 23  1  0  0  0  0
 25 28  1  1  0  0  0
 25 24  1  0  0  0  0
 25 27  1  0  0  0  0
 26 27  2  0  0  0  0
 28 29  1  0  0  0  0
 30  2  1  0  0  0  0
 30 31  2  0  0  0  0
 31 32  1  0  0  0  0
 32 34  1  0  0  0  0
 32 33  1  6  0  0  0
 34 39  1  0  0  0  0
 34 35  1  1  0  0  0
 35 36  1  0  0  0  0
 36 38  1  0  0  0  0
 38 37  1  0  0  0  0
 40 41  1  6  0  0  0
 40 39  1  0  0  0  0
 43 40  1  6  0  0  0
 43 50  1  0  0  0  0
 44 42  1  1  0  0  0
 45 43  1  0  0  0  0
 46 44  1  0  0  0  0
 47 45  1  0  0  0  0
 47 48  1  0  0  0  0
 48 49  1  0  0  0  0
 49 46  1  0  0  0  0
 50 44  1  0  0  0  0
 51 44  1  0  0  0  0
 51 52  1  0  0  0  0
M  END
>  <MODEL>
5

>  <REMARK>
 VINA RESULT:      -5.3      3.587      8.632
  Name = 
  21 active torsions:
  status: ('A' for Active; 'I' for Inactive)
    1  A    between atoms: C_1  and  C_30
    2  A    between atoms: C_1  and  N_38
    3  A    between atoms: C_6  and  C_28
    4  A    between atoms: C_6  and  C_36
    5  A    between atoms: N_8  and  O_45
    6  A    between atoms: N_8  and  C_49
    7  A    between atoms: C_9  and  C_14
    8  A    between atoms: C_10  and  C_21
    9  A    between atoms: C_10  and  O_47
   10  A    between atoms: O_13  and  C_36
   11  A    between atoms: O_13  and  C_37
   12  A    between atoms: C_14  and  C_32
   13  A    between atoms: C_15  and  C_29
   14  A    between atoms: C_16  and  C_42
   15  A    between atoms: C_18  and  C_25
   16  A    between atoms: N_22  and  C_42
   17  A    between atoms: C_30  and  C_32
   18  A    between atoms: C_30  and  O_47
   19  A    between atoms: C_31  and  O_45
   20  A    between atoms: C_33  and  C_40
   21  A    between atoms: C_42  and  C_49
                            x       y       z     vdW  Elec       q    Type
                         _______ _______ _______ _____ _____    ______ ____

>  <TORSDO>
F 21

$$$$
=
 OpenBabel11062420113D

 52 54  0  0  1  0  0  0  0  0999 V2000
  193.7000  175.4040  145.7320 C   0  0  0  0  0  0  0  0  0  0  0  0
  192.8160  176.3580  145.6830 C   0  0  0  0  0  3  0  0  0  0  0  0
  194.6180  174.4730  145.7420 C   0  0  0  0  0  3  0  0  0  0  0  0
  197.0650  173.6980  142.3420 C   0  0  0  0  0  0  0  0  0  0  0  0
  197.3290  173.1130  143.5390 N   0  0  0  0  0  0  0  0  0  0  0  0
  195.7370  175.2670  140.9020 C   0  0  2  0  0  3  0  0  0  0  0  0
  195.9560  174.5420  142.2020 C   0  0  0  0  0  0  0  0  0  0  0  0
  194.3760  175.5260  140.7200 O   0  0  0  0  0  1  0  0  0  0  0  0
  195.1550  174.7930  143.3170 C   0  0  0  0  0  3  0  0  0  0  0  0
  196.5420  173.3230  144.6330 C   0  0  0  0  0  0  0  0  0  0  0  0
  196.2960  174.4760  139.6970 C   0  0  2  0  0  0  0  0  0  0  0  0
  195.4300  174.1780  144.5440 C   0  0  0  0  0  0  0  0  0  0  0  0
  195.4220  173.4480  139.3680 F   0  0  0  0  0  0  0  0  0  0  0  0
  197.9410  173.4810  141.2290 N   0  0  0  0  0  0  0  0  0  0  0  0
  197.6340  173.8590  140.0230 C   0  0  0  0  0  3  0  0  0  0  0  0
  196.4750  175.3350  138.5700 O   0  0  0  0  0  0  0  0  0  0  0  0
  196.9180  174.1200  136.6630 O   0  0  0  0  0  0  0  0  0  0  0  0
  196.1720  174.9430  137.2650 C   0  0  0  0  0  0  0  0  0  0  0  0
  195.0340  175.5710  136.5340 C   0  0  0  0  0  2  0  0  0  0  0  0
  192.6120  175.1270  136.3400 C   0  0  0  0  0  1  0  0  0  0  0  0
  193.7460  175.3840  137.3120 C   0  0  0  0  0  2  0  0  0  0  0  0
  196.8590  172.7110  145.8450 O   0  0  0  0  0  0  0  0  0  0  0  0
  197.0740  171.3490  145.9130 N   0  0  0  0  0  2  0  0  0  0  0  0
  195.7830  170.6670  145.8680 C   0  0  0  0  0  2  0  0  0  0  0  0
  195.7620  169.5080  144.8650 C   0  0  1  0  0  3  0  0  0  0  0  0
  193.9180  168.5270  145.8160 O   0  0  0  0  0  0  0  0  0  0  0  0
  195.0430  168.3940  145.4320 N   0  0  0  0  0  0  0  0  0  0  0  0
  195.1850  169.8980  143.5000 C   0  0  0  0  0  2  0  0  0  0  0  0
  196.2570  170.0530  142.4300 C   0  0  0  0  0  1  0  0  0  0  0  0
  191.7680  176.4810  146.7050 C   0  0  0  0  0  3  0  0  0  0  0  0
  190.5250  176.6850  146.3930 N   0  0  0  0  0  0  0  0  0  0  0  0
  190.0440  176.7990  145.0180 C   0  0  2  0  0  3  0  0  0  0  0  0
  190.0750  178.1400  144.6210 O   0  0  0  0  0  1  0  0  0  0  0  0
  188.6170  176.2490  144.8830 C   0  0  2  0  0  3  0  0  0  0  0  0
  187.8870  176.3570  146.2250 C   0  0  0  0  0  2  0  0  0  0  0  0
  186.7920  177.4090  146.2160 C   0  0  0  0  0  2  0  0  0  0  0  0
  184.4640  177.7480  145.7510 O   0  0  0  0  0  1  0  0  0  0  0  0
  185.4130  176.7820  146.0920 C   0  0  0  0  0  2  0  0  0  0  0  0
  188.6620  174.9000  144.4900 O   0  0  0  0  0  0  0  0  0  0  0  0
  189.2190  174.8700  143.2020 C   0  0  2  0  0  3  0  0  0  0  0  0
  188.2120  174.7770  142.2400 O   0  0  0  0  0  1  0  0  0  0  0  0
  190.2590  171.4340  140.1930 C   0  0  0  0  0  1  0  0  0  0  0  0
  190.1720  173.6850  143.0710 C   0  0  1  0  0  3  0  0  0  0  0  0
  190.7760  172.4890  141.1600 C   0  0  2  0  0  0  0  0  0  0  0  0
  190.2220  173.0000  144.2930 O   0  0  0  0  0  0  0  0  0  0  0  0
  192.0200  171.8970  141.8450 C   0  0  0  0  0  2  0  0  0  0  0  0
  191.5810  172.8470  144.5790 C   0  0  0  0  0  2  0  0  0  0  0  0
  192.0360  171.4070  144.3230 C   0  0  0  0  0  2  0  0  0  0  0  0
  191.6510  170.8960  142.9360 C   0  0  0  0  0  2  0  0  0  0  0  0
  189.7240  172.8080  142.0610 O   0  0  0  0  0  0  0  0  0  0  0  0
  191.2110  173.7140  140.3460 C   0  0  0  0  0  2  0  0  0  0  0  0
  190.7030  173.6540  139.0440 O   0  0  0  0  0  1  0  0  0  0  0  0
  1  3  2  0  0  0  0
  2  1  2  0  0  0  0
  2 30  1  0  0  0  0
  4  5  1  0  0  0  0
  5 10  2  0  0  0  0
  6  8  1  6  0  0  0
  6  7  1  0  0  0  0
  7  4  2  0  0  0  0
  7  9  1  0  0  0  0
  9 12  2  0  0  0  0
 10 22  1  0  0  0  0
 11 13  1  6  0  0  0
 11 15  1  0  0  0  0
 11  6  1  0  0  0  0
 12 10  1  0  0  0  0
 12  3  1  0  0  0  0
 14  4  1  0  0  0  0
 15 14  2  0  0  0  0
 16 11  1  0  0  0  0
 17 18  2  0  0  0  0
 18 16  1  0  0  0  0
 19 18  1  0  0  0  0
 19 21  1  0  0  0  0
 20 21  1  0  0  0  0
 22 23  1  0  0  0  0
 24 23  1  0  0  0  0
 25 28  1  6  0  0  0
 25 27  1  0  0  0  0
 25 24  1  0  0  0  0
 27 26  2  0  0  0  0
 29 28  1  0  0  0  0
 31 30  2  0  0  0  0
 32 33  1  1  0  0  0
 32 31  1  0  0  0  0
 34 32  1  0  0  0  0
 34 35  1  1  0  0  0
 36 35  1  0  0  0  0
 37 38  1  0  0  0  0
 38 36  1  0  0  0  0
 39 34  1  0  0  0  0
 40 41  1  6  0  0  0
 40 39  1  0  0  0  0
 43 40  1  1  0  0  0
 43 45  1  0  0  0  0
 44 42  1  6  0  0  0
 44 46  1  0  0  0  0
 44 50  1  0  0  0  0
 45 47  1  0  0  0  0
 46 49  1  0  0  0  0
 48 47  1  0  0  0  0
 49 48  1  0  0  0  0
 50 43  1  0  0  0  0
 51 44  1  0  0  0  0
 52 51  1  0  0  0  0
M  END
>  <MODEL>
6

>  <REMARK>
 VINA RESULT:      -5.3      3.548      9.086
  Name = 
  21 active torsions:
  status: ('A' for Active; 'I' for Inactive)
    1  A    between atoms: C_1  and  C_30
    2  A    between atoms: C_1  and  N_38
    3  A    between atoms: C_6  and  C_28
    4  A    between atoms: C_6  and  C_36
    5  A    between atoms: N_8  and  O_45
    6  A    between atoms: N_8  and  C_49
    7  A    between atoms: C_9  and  C_14
    8  A    between atoms: C_10  and  C_21
    9  A    between atoms: C_10  and  O_47
   10  A    between atoms: O_13  and  C_36
   11  A    between atoms: O_13  and  C_37
   12  A    between atoms: C_14  and  C_32
   13  A    between atoms: C_15  and  C_29
   14  A    between atoms: C_16  and  C_42
   15  A    between atoms: C_18  and  C_25
   16  A    between atoms: N_22  and  C_42
   17  A    between atoms: C_30  and  C_32
   18  A    between atoms: C_30  and  O_47
   19  A    between atoms: C_31  and  O_45
   20  A    between atoms: C_33  and  C_40
   21  A    between atoms: C_42  and  C_49
                            x       y       z     vdW  Elec       q    Type
                         _______ _______ _______ _____ _____    ______ ____

>  <TORSDO>
F 21

$$$$
=
 OpenBabel11062420113D

 52 54  0  0  1  0  0  0  0  0999 V2000
  188.5320  174.2770  141.3440 C   0  0  0  0  0  0  0  0  0  0  0  0
  188.2130  175.3940  141.9320 C   0  0  0  0  0  3  0  0  0  0  0  0
  188.8930  173.1490  140.7900 C   0  0  0  0  0  3  0  0  0  0  0  0
  192.9100  171.7310  140.7780 C   0  0  0  0  0  0  0  0  0  0  0  0
  192.4150  172.4330  139.7250 N   0  0  0  0  0  0  0  0  0  0  0  0
  192.6340  170.6250  143.0140 C   0  0  2  0  0  3  0  0  0  0  0  0
  192.1090  171.4940  141.9030 C   0  0  0  0  0  0  0  0  0  0  0  0
  192.0400  170.9860  144.2260 O   0  0  0  0  0  1  0  0  0  0  0  0
  190.7950  171.9610  141.9060 C   0  0  0  0  0  3  0  0  0  0  0  0
  191.1410  172.9220  139.7210 C   0  0  0  0  0  0  0  0  0  0  0  0
  194.1740  170.7010  143.1300 C   0  0  2  0  0  0  0  0  0  0  0  0
  190.2970  172.6920  140.8200 C   0  0  0  0  0  0  0  0  0  0  0  0
  194.5370  171.8790  143.7670 F   0  0  0  0  0  0  0  0  0  0  0  0
  194.2410  171.2010  140.7240 N   0  0  0  0  0  0  0  0  0  0  0  0
  194.8240  170.6910  141.7680 C   0  0  0  0  0  3  0  0  0  0  0  0
  194.6790  169.5820  143.8620 O   0  0  0  0  0  0  0  0  0  0  0  0
  196.8520  169.3060  144.5770 O   0  0  0  0  0  0  0  0  0  0  0  0
  195.6780  169.7010  144.8290 C   0  0  0  0  0  0  0  0  0  0  0  0
  195.3480  170.1900  146.1990 C   0  0  0  0  0  2  0  0  0  0  0  0
  195.1310  168.1790  147.6160 C   0  0  0  0  0  1  0  0  0  0  0  0
  196.0400  169.3320  147.2410 C   0  0  0  0  0  2  0  0  0  0  0  0
  190.6720  173.6260  138.6120 O   0  0  0  0  0  0  0  0  0  0  0  0
  190.5540  173.0100  137.3830 N   0  0  0  0  0  2  0  0  0  0  0  0
  189.6770  171.8490  137.5210 C   0  0  0  0  0  2  0  0  0  0  0  0
  190.2990  170.5690  136.9530 C   0  0  1  0  0  3  0  0  0  0  0  0
  192.2520  170.6350  135.7480 O   0  0  0  0  0  0  0  0  0  0  0  0
  191.7240  170.7450  136.8160 N   0  0  0  0  0  0  0  0  0  0  0  0
  189.9760  169.3190  137.7790 C   0  0  0  0  0  2  0  0  0  0  0  0
  190.6440  169.3290  139.1470 C   0  0  0  0  0  1  0  0  0  0  0  0
  186.9320  176.0620  141.6620 C   0  0  0  0  0  3  0  0  0  0  0  0
  186.7130  177.2920  142.0110 N   0  0  0  0  0  0  0  0  0  0  0  0
  187.7010  178.1330  142.6830 C   0  0  2  0  0  3  0  0  0  0  0  0
  188.8020  178.3250  141.8420 O   0  0  0  0  0  1  0  0  0  0  0  0
  188.1600  177.4990  144.0040 C   0  0  2  0  0  3  0  0  0  0  0  0
  187.2600  177.9700  145.1500 C   0  0  0  0  0  2  0  0  0  0  0  0
  186.2000  176.9470  145.5220 C   0  0  0  0  0  2  0  0  0  0  0  0
  186.2260  177.0990  147.9150 O   0  0  0  0  0  1  0  0  0  0  0  0
  185.4510  177.3500  146.7810 C   0  0  0  0  0  2  0  0  0  0  0  0
  189.4870  177.8750  144.2760 O   0  0  0  0  0  0  0  0  0  0  0  0
  190.0470  176.8540  145.0590 C   0  0  2  0  0  3  0  0  0  0  0  0
  190.2510  177.3010  146.3660 O   0  0  0  0  0  1  0  0  0  0  0  0
  194.5850  176.5830  146.1860 C   0  0  0  0  0  1  0  0  0  0  0  0
  191.3720  176.3980  144.4550 C   0  0  1  0  0  3  0  0  0  0  0  0
  193.3880  175.9130  145.5280 C   0  0  2  0  0  0  0  0  0  0  0  0
  191.4480  176.8430  143.1280 O   0  0  0  0  0  0  0  0  0  0  0  0
  193.9220  175.1340  144.3140 C   0  0  0  0  0  2  0  0  0  0  0  0
  191.8050  175.7190  142.3780 C   0  0  0  0  0  2  0  0  0  0  0  0
  193.2770  175.7840  141.9600 C   0  0  0  0  0  2  0  0  0  0  0  0
  194.2200  176.0510  143.1310 C   0  0  0  0  0  2  0  0  0  0  0  0
  192.4520  176.9290  145.1900 O   0  0  0  0  0  0  0  0  0  0  0  0
  192.7920  174.9080  146.5230 C   0  0  0  0  0  2  0  0  0  0  0  0
  193.1890  173.6040  146.2110 O   0  0  0  0  0  1  0  0  0  0  0  0
  1  2  2  0  0  0  0
  3 12  1  0  0  0  0
  3  1  2  0  0  0  0
  4  7  2  0  0  0  0
  5  4  1  0  0  0  0
  6 11  1  0  0  0  0
  6  8  1  1  0  0  0
  7  9  1  0  0  0  0
  7  6  1  0  0  0  0
 10  5  2  0  0  0  0
 10 12  1  0  0  0  0
 11 13  1  1  0  0  0
 11 16  1  0  0  0  0
 12  9  2  0  0  0  0
 14  4  1  0  0  0  0
 14 15  2  0  0  0  0
 15 11  1  0  0  0  0
 16 18  1  0  0  0  0
 17 18  2  0  0  0  0
 18 19  1  0  0  0  0
 19 21  1  0  0  0  0
 21 20  1  0  0  0  0
 22 10  1  0  0  0  0
 23 24  1  0  0  0  0
 23 22  1  0  0  0  0
 25 24  1  1  0  0  0
 25 28  1  0  0  0  0
 26 27  2  0  0  0  0
 27 25  1  0  0  0  0
 28 29  1  0  0  0  0
 30  2  1  0  0  0  0
 30 31  2  0  0  0  0
 31 32  1  0  0  0  0
 32 33  1  6  0  0  0
 32 34  1  0  0  0  0
 34 39  1  0  0  0  0
 34 35  1  1  0  0  0
 35 36  1  0  0  0  0
 36 38  1  0  0  0  0
 38 37  1  0  0  0  0
 39 40  1  0  0  0  0
 40 41  1  1  0  0  0
 43 40  1  1  0  0  0
 43 50  1  0  0  0  0
 44 42  1  1  0  0  0
 44 51  1  0  0  0  0
 45 43  1  0  0  0  0
 46 44  1  0  0  0  0
 47 45  1  0  0  0  0
 48 47  1  0  0  0  0
 48 49  1  0  0  0  0
 49 46  1  0  0  0  0
 50 44  1  0  0  0  0
 52 51  1  0  0  0  0
M  END
>  <MODEL>
7

>  <REMARK>
 VINA RESULT:      -5.2      2.706      7.954
  Name = 
  21 active torsions:
  status: ('A' for Active; 'I' for Inactive)
    1  A    between atoms: C_1  and  C_30
    2  A    between atoms: C_1  and  N_38
    3  A    between atoms: C_6  and  C_28
    4  A    between atoms: C_6  and  C_36
    5  A    between atoms: N_8  and  O_45
    6  A    between atoms: N_8  and  C_49
    7  A    between atoms: C_9  and  C_14
    8  A    between atoms: C_10  and  C_21
    9  A    between atoms: C_10  and  O_47
   10  A    between atoms: O_13  and  C_36
   11  A    between atoms: O_13  and  C_37
   12  A    between atoms: C_14  and  C_32
   13  A    between atoms: C_15  and  C_29
   14  A    between atoms: C_16  and  C_42
   15  A    between atoms: C_18  and  C_25
   16  A    between atoms: N_22  and  C_42
   17  A    between atoms: C_30  and  C_32
   18  A    between atoms: C_30  and  O_47
   19  A    between atoms: C_31  and  O_45
   20  A    between atoms: C_33  and  C_40
   21  A    between atoms: C_42  and  C_49
                            x       y       z     vdW  Elec       q    Type
                         _______ _______ _______ _____ _____    ______ ____

>  <TORSDO>
F 21

$$$$
=
 OpenBabel11062420113D

 52 54  0  0  1  0  0  0  0  0999 V2000
  193.1100  171.7960  144.0110 C   0  0  0  0  0  0  0  0  0  0  0  0
  193.5970  172.9440  144.3810 C   0  0  0  0  0  3  0  0  0  0  0  0
  192.6490  170.6460  143.5910 C   0  0  0  0  0  3  0  0  0  0  0  0
  192.3110  169.8800  139.4140 C   0  0  0  0  0  0  0  0  0  0  0  0
  193.1860  169.1810  140.1830 N   0  0  0  0  0  0  0  0  0  0  0  0
  190.5910  171.6850  139.1200 C   0  0  2  0  0  3  0  0  0  0  0  0
  191.4780  170.8440  139.9980 C   0  0  0  0  0  0  0  0  0  0  0  0
  189.4630  172.0980  139.8330 O   0  0  0  0  0  1  0  0  0  0  0  0
  191.5890  171.0920  141.3660 C   0  0  0  0  0  3  0  0  0  0  0  0
  193.2900  169.3890  141.5280 C   0  0  0  0  0  0  0  0  0  0  0  0
  190.1670  170.9320  137.8370 C   0  0  2  0  0  0  0  0  0  0  0  0
  192.4880  170.3590  142.1520 C   0  0  0  0  0  0  0  0  0  0  0  0
  189.1560  170.0300  138.1380 F   0  0  0  0  0  0  0  0  0  0  0  0
  192.2620  169.6570  138.0000 N   0  0  0  0  0  0  0  0  0  0  0  0
  191.3220  170.1560  137.2530 C   0  0  0  0  0  3  0  0  0  0  0  0
  189.7120  171.8510  136.8420 O   0  0  0  0  0  0  0  0  0  0  0  0
  189.4090  174.1140  137.1540 O   0  0  0  0  0  0  0  0  0  0  0  0
  190.1590  173.1720  136.7730 C   0  0  0  0  0  0  0  0  0  0  0  0
  191.4760  173.4900  136.1500 C   0  0  0  0  0  2  0  0  0  0  0  0
  192.5440  175.7170  136.1290 C   0  0  0  0  0  1  0  0  0  0  0  0
  192.2180  174.5130  136.9890 C   0  0  0  0  0  2  0  0  0  0  0  0
  194.2120  168.6560  142.2750 O   0  0  0  0  0  0  0  0  0  0  0  0
  195.5560  168.9680  142.2380 N   0  0  0  0  0  2  0  0  0  0  0  0
  196.0780  168.9550  143.6030 C   0  0  0  0  0  2  0  0  0  0  0  0
  196.7570  170.2740  143.9880 C   0  0  1  0  0  3  0  0  0  0  0  0
  197.3550  171.8460  142.4260 O   0  0  0  0  0  0  0  0  0  0  0  0
  196.4680  171.2730  142.9880 N   0  0  0  0  0  0  0  0  0  0  0  0
  196.3720  170.7670  145.3870 C   0  0  0  0  0  2  0  0  0  0  0  0
  197.0560  172.0770  145.7570 C   0  0  0  0  0  1  0  0  0  0  0  0
  193.4750  173.4150  145.7680 C   0  0  0  0  0  3  0  0  0  0  0  0
  193.0460  174.6060  146.0530 N   0  0  0  0  0  0  0  0  0  0  0  0
  192.6340  175.5820  145.0460 C   0  0  2  0  0  3  0  0  0  0  0  0
  193.1080  176.8490  145.4010 O   0  0  0  0  0  1  0  0  0  0  0  0
  191.1060  175.6180  144.9030 C   0  0  2  0  0  3  0  0  0  0  0  0
  190.7000  175.1320  143.5090 C   0  0  0  0  0  2  0  0  0  0  0  0
  190.0360  173.7660  143.5330 C   0  0  0  0  0  2  0  0  0  0  0  0
  189.6530  171.9270  145.0230 O   0  0  0  0  0  1  0  0  0  0  0  0
  189.7220  173.3200  144.9510 C   0  0  0  0  0  2  0  0  0  0  0  0
  190.6420  176.9330  145.0850 O   0  0  0  0  0  0  0  0  0  0  0  0
  189.5980  177.1260  144.1690 C   0  0  2  0  0  3  0  0  0  0  0  0
  189.8060  178.2950  143.4340 O   0  0  0  0  0  1  0  0  0  0  0  0
  185.5730  179.5180  144.0210 C   0  0  0  0  0  1  0  0  0  0  0  0
  188.2640  177.2080  144.9050 C   0  0  1  0  0  3  0  0  0  0  0  0
  186.2550  178.1710  144.2060 C   0  0  2  0  0  0  0  0  0  0  0  0
  188.4990  177.1580  146.2860 O   0  0  0  0  0  0  0  0  0  0  0  0
  185.4430  177.3990  145.2610 C   0  0  0  0  0  2  0  0  0  0  0  0
  187.6300  176.1780  146.7760 C   0  0  0  0  0  2  0  0  0  0  0  0
  186.4430  176.8140  147.5060 C   0  0  0  0  0  2  0  0  0  0  0  0
  185.7370  177.8850  146.6780 C   0  0  0  0  0  2  0  0  0  0  0  0
  187.6040  178.4130  144.5860 O   0  0  0  0  0  0  0  0  0  0  0  0
  186.1730  177.4040  142.8800 C   0  0  0  0  0  2  0  0  0  0  0  0
  185.9430  176.0430  143.1030 O   0  0  0  0  0  1  0  0  0  0  0  0
  1  2  2  0  0  0  0
  2 30  1  0  0  0  0
  3  1  2  0  0  0  0
  4  7  2  0  0  0  0
  4  5  1  0  0  0  0
  5 10  2  0  0  0  0
  6  8  1  1  0  0  0
  6  7  1  0  0  0  0
  7  9  1  0  0  0  0
  9 12  2  0  0  0  0
 10 12  1  0  0  0  0
 10 22  1  0  0  0  0
 11 13  1  1  0  0  0
 11  6  1  0  0  0  0
 12  3  1  0  0  0  0
 14  4  1  0  0  0  0
 15 11  1  0  0  0  0
 15 14  2  0  0  0  0
 16 11  1  0  0  0  0
 18 16  1  0  0  0  0
 18 17  2  0  0  0  0
 19 18  1  0  0  0  0
 19 21  1  0  0  0  0
 20 21  1  0  0  0  0
 23 22  1  0  0  0  0
 23 24  1  0  0  0  0
 25 24  1  6  0  0  0
 25 28  1  0  0  0  0
 26 27  2  0  0  0  0
 27 25  1  0  0  0  0
 28 29  1  0  0  0  0
 30 31  2  0  0  0  0
 32 33  1  1  0  0  0
 32 31  1  0  0  0  0
 34 35  1  6  0  0  0
 34 32  1  0  0  0  0
 34 39  1  0  0  0  0
 35 36  1  0  0  0  0
 36 38  1  0  0  0  0
 38 37  1  0  0  0  0
 40 41  1  1  0  0  0
 40 39  1  0  0  0  0
 43 40  1  6  0  0  0
 43 45  1  0  0  0  0
 44 42  1  6  0  0  0
 44 50  1  0  0  0  0
 44 46  1  0  0  0  0
 45 47  1  0  0  0  0
 46 49  1  0  0  0  0
 47 48  1  0  0  0  0
 49 48  1  0  0  0  0
 50 43  1  0  0  0  0
 51 52  1  0  0  0  0
 51 44  1  0  0  0  0
M  END
>  <MODEL>
8

>  <REMARK>
 VINA RESULT:      -5.1      2.947      7.316
  Name = 
  21 active torsions:
  status: ('A' for Active; 'I' for Inactive)
    1  A    between atoms: C_1  and  C_30
    2  A    between atoms: C_1  and  N_38
    3  A    between atoms: C_6  and  C_28
    4  A    between atoms: C_6  and  C_36
    5  A    between atoms: N_8  and  O_45
    6  A    between atoms: N_8  and  C_49
    7  A    between atoms: C_9  and  C_14
    8  A    between atoms: C_10  and  C_21
    9  A    between atoms: C_10  and  O_47
   10  A    between atoms: O_13  and  C_36
   11  A    between atoms: O_13  and  C_37
   12  A    between atoms: C_14  and  C_32
   13  A    between atoms: C_15  and  C_29
   14  A    between atoms: C_16  and  C_42
   15  A    between atoms: C_18  and  C_25
   16  A    between atoms: N_22  and  C_42
   17  A    between atoms: C_30  and  C_32
   18  A    between atoms: C_30  and  O_47
   19  A    between atoms: C_31  and  O_45
   20  A    between atoms: C_33  and  C_40
   21  A    between atoms: C_42  and  C_49
                            x       y       z     vdW  Elec       q    Type
                         _______ _______ _______ _____ _____    ______ ____

>  <TORSDO>
F 21

$$$$
=
 OpenBabel11062420113D

 52 54  0  0  1  0  0  0  0  0999 V2000
  188.3040  174.3600  141.3750 C   0  0  0  0  0  0  0  0  0  0  0  0
  188.4060  175.6530  141.2650 C   0  0  0  0  0  3  0  0  0  0  0  0
  188.2540  173.0600  141.5050 C   0  0  0  0  0  3  0  0  0  0  0  0
  191.6760  170.5440  141.1750 C   0  0  0  0  0  0  0  0  0  0  0  0
  190.9030  170.8170  140.0910 N   0  0  0  0  0  0  0  0  0  0  0  0
  192.1710  170.7250  143.6290 C   0  0  2  0  0  3  0  0  0  0  0  0
  191.3730  171.1190  142.4160 C   0  0  0  0  0  0  0  0  0  0  0  0
  192.1760  171.7660  144.5600 O   0  0  0  0  0  1  0  0  0  0  0  0
  190.2530  171.9450  142.5210 C   0  0  0  0  0  3  0  0  0  0  0  0
  189.8200  171.6440  140.1680 C   0  0  0  0  0  0  0  0  0  0  0  0
  193.6210  170.3280  143.2640 C   0  0  2  0  0  0  0  0  0  0  0  0
  189.4690  172.2280  141.3960 C   0  0  0  0  0  0  0  0  0  0  0  0
  194.3740  171.4710  143.0360 F   0  0  0  0  0  0  0  0  0  0  0  0
  192.7800  169.6390  141.0580 N   0  0  0  0  0  0  0  0  0  0  0  0
  193.6570  169.4920  142.0070 C   0  0  0  0  0  3  0  0  0  0  0  0
  194.2120  169.5620  144.3140 O   0  0  0  0  0  0  0  0  0  0  0  0
  196.5050  169.4320  144.1250 O   0  0  0  0  0  0  0  0  0  0  0  0
  195.5000  169.8050  144.7930 C   0  0  0  0  0  0  0  0  0  0  0  0
  195.7010  170.4060  146.1440 C   0  0  0  0  0  2  0  0  0  0  0  0
  196.2730  172.6840  145.3810 C   0  0  0  0  0  1  0  0  0  0  0  0
  196.7970  171.4530  146.0920 C   0  0  0  0  0  2  0  0  0  0  0  0
  189.0490  171.8850  139.0310 O   0  0  0  0  0  0  0  0  0  0  0  0
  189.6410  172.0150  137.7910 N   0  0  0  0  0  2  0  0  0  0  0  0
  190.0100  173.4150  137.5900 C   0  0  0  0  0  2  0  0  0  0  0  0
  191.4390  173.5780  137.0620 C   0  0  1  0  0  3  0  0  0  0  0  0
  192.6400  175.2430  136.0350 O   0  0  0  0  0  0  0  0  0  0  0  0
  191.5780  174.8720  136.4400 N   0  0  0  0  0  0  0  0  0  0  0  0
  192.5110  173.3670  138.1360 C   0  0  0  0  0  2  0  0  0  0  0  0
  192.1750  174.0630  139.4480 C   0  0  0  0  0  1  0  0  0  0  0  0
  187.2240  176.4960  141.0340 C   0  0  0  0  0  3  0  0  0  0  0  0
  186.9130  177.4750  141.8270 N   0  0  0  0  0  0  0  0  0  0  0  0
  187.6970  177.8440  143.0030 C   0  0  2  0  0  3  0  0  0  0  0  0
  189.0290  178.0550  142.6310 O   0  0  0  0  0  1  0  0  0  0  0  0
  187.6240  176.7550  144.0820 C   0  0  2  0  0  3  0  0  0  0  0  0
  186.4040  176.9890  144.9780 C   0  0  0  0  0  2  0  0  0  0  0  0
  186.4120  178.3570  145.6380 C   0  0  0  0  0  2  0  0  0  0  0  0
  185.9870  179.4500  147.7290 O   0  0  0  0  0  1  0  0  0  0  0  0
  185.6270  178.3570  146.9380 C   0  0  0  0  0  2  0  0  0  0  0  0
  188.7870  176.7870  144.8700 O   0  0  0  0  0  0  0  0  0  0  0  0
  189.3030  175.4820  144.8870 C   0  0  2  0  0  3  0  0  0  0  0  0
  188.9420  174.8320  146.0690 O   0  0  0  0  0  1  0  0  0  0  0  0
  193.0480  177.0900  147.1950 C   0  0  0  0  0  1  0  0  0  0  0  0
  190.8230  175.5190  144.7580 C   0  0  1  0  0  3  0  0  0  0  0  0
  192.4270  175.9530  146.3990 C   0  0  2  0  0  0  0  0  0  0  0  0
  191.1640  175.8340  143.4360 O   0  0  0  0  0  0  0  0  0  0  0  0
  193.5530  175.3310  145.5540 C   0  0  0  0  0  2  0  0  0  0  0  0
  192.1020  174.8700  143.0540 C   0  0  0  0  0  2  0  0  0  0  0  0
  193.5150  175.4600  143.0320 C   0  0  0  0  0  2  0  0  0  0  0  0
  193.8840  176.1780  144.3280 C   0  0  0  0  0  2  0  0  0  0  0  0
  191.3630  176.4920  145.6250 O   0  0  0  0  0  0  0  0  0  0  0  0
  191.9240  174.8930  147.3870 C   0  0  0  0  0  2  0  0  0  0  0  0
  191.1530  175.4780  148.3960 O   0  0  0  0  0  1  0  0  0  0  0  0
  1  3  2  0  0  0  0
  2  1  2  0  0  0  0
  4  7  2  0  0  0  0
  5 10  2  0  0  0  0
  5  4  1  0  0  0  0
  6  8  1  1  0  0  0
  7  9  1  0  0  0  0
  7  6  1  0  0  0  0
 10 12  1  0  0  0  0
 11 13  1  6  0  0  0
 11  6  1  0  0  0  0
 11 16  1  0  0  0  0
 12  3  1  0  0  0  0
 12  9  2  0  0  0  0
 14  4  1  0  0  0  0
 14 15  2  0  0  0  0
 15 11  1  0  0  0  0
 16 18  1  0  0  0  0
 17 18  2  0  0  0  0
 18 19  1  0  0  0  0
 20 21  1  0  0  0  0
 21 19  1  0  0  0  0
 22 10  1  0  0  0  0
 23 22  1  0  0  0  0
 24 23  1  0  0  0  0
 25 24  1  1  0  0  0
 25 28  1  0  0  0  0
 26 27  2  0  0  0  0
 27 25  1  0  0  0  0
 28 29  1  0  0  0  0
 30  2  1  0  0  0  0
 30 31  2  0  0  0  0
 31 32  1  0  0  0  0
 32 33  1  6  0  0  0
 32 34  1  0  0  0  0
 34 39  1  0  0  0  0
 34 35  1  1  0  0  0
 35 36  1  0  0  0  0
 36 38  1  0  0  0  0
 38 37  1  0  0  0  0
 39 40  1  0  0  0  0
 40 41  1  1  0  0  0
 43 40  1  6  0  0  0
 43 50  1  0  0  0  0
 44 42  1  1  0  0  0
 44 51  1  0  0  0  0
 45 43  1  0  0  0  0
 46 44  1  0  0  0  0
 47 45  1  0  0  0  0
 48 47  1  0  0  0  0
 48 49  1  0  0  0  0
 49 46  1  0  0  0  0
 50 44  1  0  0  0  0
 51 52  1  0  0  0  0
M  END
>  <MODEL>
9

>  <REMARK>
 VINA RESULT:      -5.1      2.670      7.923
  Name = 
  21 active torsions:
  status: ('A' for Active; 'I' for Inactive)
    1  A    between atoms: C_1  and  C_30
    2  A    between atoms: C_1  and  N_38
    3  A    between atoms: C_6  and  C_28
    4  A    between atoms: C_6  and  C_36
    5  A    between atoms: N_8  and  O_45
    6  A    between atoms: N_8  and  C_49
    7  A    between atoms: C_9  and  C_14
    8  A    between atoms: C_10  and  C_21
    9  A    between atoms: C_10  and  O_47
   10  A    between atoms: O_13  and  C_36
   11  A    between atoms: O_13  and  C_37
   12  A    between atoms: C_14  and  C_32
   13  A    between atoms: C_15  and  C_29
   14  A    between atoms: C_16  and  C_42
   15  A    between atoms: C_18  and  C_25
   16  A    between atoms: N_22  and  C_42
   17  A    between atoms: C_30  and  C_32
   18  A    between atoms: C_30  and  O_47
   19  A    between atoms: C_31  and  O_45
   20  A    between atoms: C_33  and  C_40
   21  A    between atoms: C_42  and  C_49
                            x       y       z     vdW  Elec       q    Type
                         _______ _______ _______ _____ _____    ______ ____

>  <TORSDO>
F 21

$$$$
