=
 OpenBabel11062421323D

 55 59  0  0  1  0  0  0  0  0999 V2000
  191.8600  176.2190  147.1700 S   0  0  0  0  0  0  0  0  0  0  0  0
  194.3890  177.0200  146.5320 C   0  0  0  0  0  1  0  0  0  0  0  0
  191.3780  176.2420  144.6150 C   0  0  0  0  0  2  0  0  0  0  0  0
  193.8310  174.7130  146.3290 O   0  0  0  0  0  1  0  0  0  0  0  0
  190.8330  175.6620  145.8390 N   0  0  0  0  0  0  0  0  0  0  0  0
  192.8990  176.2490  144.6970 C   0  0  1  0  0  3  0  0  0  0  0  0
  193.3340  176.0040  146.1420 C   0  0  1  0  0  0  0  0  0  0  0  0
  194.2790  174.5650  141.3920 C   0  0  2  0  0  3  0  0  0  0  0  0
  192.7310  175.2230  142.0700 S   0  0  0  0  0  0  0  0  0  0  0  0
  194.9560  175.7990  143.4160 N   0  0  0  0  0  2  0  0  0  0  0  0
  193.5930  175.3550  143.6570 C   0  0  1  0  0  3  0  0  0  0  0  0
  195.4370  175.0980  142.2340 C   0  0  1  0  0  3  0  0  0  0  0  0
  194.4640  174.9590  139.9630 C   0  0  0  0  0  0  0  0  0  0  0  0
  195.4720  175.6530  139.6440 O   0  0  0  0  0  0  0  0  0  0  0  0
  193.4870  174.6300  139.0180 O   0  0  0  0  0  0  0  0  0  0  0  0
  193.4240  173.4110  138.3340 C   0  0  0  0  0  0  0  0  0  0  0  0
  192.6070  172.5130  138.6830 O   0  0  0  0  0  0  0  0  0  0  0  0
  194.7170  172.0760  136.8730 O   0  0  0  0  0  1  0  0  0  0  0  0
  194.2310  173.2180  137.1270 C   0  0  0  0  0  0  0  0  0  0  0  0
  194.3800  174.2490  136.1980 O   0  0  0  0  0  0  0  0  0  0  0  0
  196.4400  174.0100  142.6070 C   0  0  0  0  0  2  0  0  0  0  0  0
  196.0380  172.6460  142.0410 C   0  0  0  0  0  2  0  0  0  0  0  0
  196.0450  171.6350  143.0910 N   0  0  0  0  0  0  0  0  0  0  0  0
  196.3760  170.0210  145.4760 C   0  0  2  0  0  3  0  0  0  0  0  0
  194.0740  169.2410  144.8930 C   0  0  0  0  0  1  0  0  0  0  0  0
  197.4450  170.9750  144.9630 C   0  0  0  0  0  2  0  0  0  0  0  0
  193.7670  171.8890  143.5850 O   0  0  0  0  0  0  0  0  0  0  0  0
  197.3280  171.0490  143.4520 C   0  0  0  0  0  2  0  0  0  0  0  0
  194.9480  170.4640  145.1000 C   0  0  2  0  0  3  0  0  0  0  0  0
  194.8700  171.3520  143.8780 C   0  0  0  0  0  0  0  0  0  0  0  0
  196.5080  169.9050  146.9840 C   0  0  0  0  0  2  0  0  0  0  0  0
  196.4340  168.4510  147.4060 C   0  0  0  0  0  1  0  0  0  0  0  0
  188.8520  174.5100  147.4100 O   0  0  0  0  0  0  0  0  0  0  0  0
  188.5830  175.6010  146.8350 C   0  0  0  0  0  0  0  0  0  0  0  0
  189.5750  176.2440  146.0370 N   0  0  0  0  0  2  0  0  0  0  0  0
  187.2700  176.2810  147.0640 C   0  0  0  0  0  2  0  0  0  0  0  0
  187.3480  177.7680  146.7420 C   0  0  0  0  0  2  0  0  0  0  0  0
  185.8430  179.3420  145.8700 O   0  0  0  0  0  0  0  0  0  0  0  0
  186.1860  178.1680  145.8780 C   0  0  0  0  0  0  0  0  0  0  0  0
  185.4150  177.1780  145.0430 C   0  0  0  0  0  2  0  0  0  0  0  0
  185.8380  177.1820  143.5730 C   0  0  1  0  0  3  0  0  0  0  0  0
  184.8440  177.8700  142.6780 C   0  0  0  0  0  0  0  0  0  0  0  0
  183.8230  178.4080  143.1930 O   0  0  0  0  0  0  0  0  0  0  0  0
  185.0520  177.9260  141.2990 O   0  0  0  0  0  0  0  0  0  0  0  0
  184.0450  178.3690  140.4040 C   0  0  0  0  0  1  0  0  0  0  0  0
  187.2470  177.7450  143.4030 C   0  0  0  0  0  2  0  0  0  0  0  0
  188.0250  176.9220  142.5840 O   0  0  0  0  0  0  0  0  0  0  0  0
  187.7040  175.6190  142.9830 C   0  0  0  0  0  2  0  0  0  0  0  0
  189.7450  172.0160  143.3210 C   0  0  0  0  0  1  0  0  0  0  0  0
  189.0330  172.2240  141.9940 C   0  0  1  0  0  3  0  0  0  0  0  0
  189.6890  173.7310  140.4070 C   0  0  0  0  0  3  0  0  0  0  0  0
  188.4720  174.3040  141.0530 C   0  0  2  0  0  3  0  0  0  0  0  0
  188.7030  174.5770  142.4760 C   0  0  2  0  0  3  0  0  0  0  0  0
  188.0400  173.3110  142.0700 N   0  0  2  0  0  0  0  0  0  0  0  0
  190.0010  172.5570  140.9190 C   0  0  0  0  0  3  0  0  0  0  0  0
  3  5  1  0  0  0  0
  5 35  1  0  0  0  0
  5  1  1  0  0  0  0
  6  3  1  1  0  0  0
  6  7  1  0  0  0  0
  7  4  1  0  0  0  0
  7  2  1  1  0  0  0
  7  1  1  0  0  0  0
  8 13  1  6  0  0  0
  8  9  1  0  0  0  0
  8 12  1  0  0  0  0
 10 11  1  0  0  0  0
 11  9  1  6  0  0  0
 11  6  1  0  0  0  0
 12 21  1  1  0  0  0
 12 10  1  0  0  0  0
 14 13  2  0  0  0  0
 15 13  1  0  0  0  0
 16 17  2  0  0  0  0
 16 15  1  0  0  0  0
 18 19  1  0  0  0  0
 19 16  1  0  0  0  0
 20 19  2  0  0  0  0
 22 21  1  0  0  0  0
 22 23  1  0  0  0  0
 23 28  1  0  0  0  0
 23 30  1  0  0  0  0
 24 31  1  1  0  0  0
 26 24  1  0  0  0  0
 27 30  2  0  0  0  0
 28 26  1  0  0  0  0
 29 25  1  6  0  0  0
 29 24  1  0  0  0  0
 30 29  1  0  0  0  0
 31 32  1  0  0  0  0
 34 36  1  0  0  0  0
 34 33  2  0  0  0  0
 35 34  1  0  0  0  0
 37 36  1  0  0  0  0
 38 39  2  0  0  0  0
 39 37  1  0  0  0  0
 40 39  1  0  0  0  0
 41 46  1  1  0  0  0
 41 40  1  0  0  0  0
 42 43  2  0  0  0  0
 42 41  1  0  0  0  0
 44 42  1  0  0  0  0
 45 44  1  0  0  0  0
 47 48  1  0  0  0  0
 47 46  1  0  0  0  0
 50 54  1  0  0  0  0
 50 49  1  1  0  0  0
 51 55  2  0  0  0  0
 52 51  1  6  0  0  0
 52 54  1  0  0  0  0
 52 53  1  0  0  0  0
 53 48  1  1  0  0  0
 54 53  1  0  0  0  0
 55 50  1  0  0  0  0
M  END
>  <MODEL>
1

>  <REMARK>
 VINA RESULT:      -6.4      0.000      0.000
  Name = 
  21 active torsions:
  status: ('A' for Active; 'I' for Inactive)
    1  A    between atoms: C_1  and  C_2
    2  A    between atoms: C_1  and  O_8
    3  A    between atoms: N_3  and  C_29
    4  A    between atoms: C_4  and  C_6
    5  A    between atoms: O_8  and  C_24
    6  A    between atoms: C_9  and  C_24
    7  A    between atoms: C_11  and  C_46
    8  A    between atoms: C_12  and  C_26
    9  A    between atoms: C_12  and  C_53
   10  A    between atoms: C_15  and  C_16
   11  A    between atoms: C_15  and  C_25
   12  A    between atoms: C_15  and  C_37
   13  A    between atoms: C_16  and  C_51
   14  A    between atoms: C_25  and  O_33
   15  A    between atoms: C_26  and  C_51
   16  A    between atoms: C_27  and  C_29
   17  A    between atoms: C_27  and  C_49
   18  A    between atoms: C_31  and  C_47
   19  A    between atoms: N_36  and  N_54
   20  A    between atoms: C_37  and  O_41
   21  A    between atoms: O_41  and  C_47
                            x       y       z     vdW  Elec       q    Type
                         _______ _______ _______ _____ _____    ______ ____

>  <TORSDO>
F 21

$$$$
=
 OpenBabel11062421323D

 55 59  0  0  1  0  0  0  0  0999 V2000
  188.5450  172.7450  139.9880 S   0  0  0  0  0  0  0  0  0  0  0  0
  188.2680  175.3350  140.8020 C   0  0  0  0  0  1  0  0  0  0  0  0
  191.0510  172.9740  140.6430 C   0  0  0  0  0  2  0  0  0  0  0  0
  188.2880  173.6110  142.4470 O   0  0  0  0  0  1  0  0  0  0  0  0
  190.0600  171.9290  140.4070 N   0  0  0  0  0  0  0  0  0  0  0  0
  190.3840  174.1490  141.3470 C   0  0  1  0  0  3  0  0  0  0  0  0
  188.8650  174.0120  141.2400 C   0  0  1  0  0  0  0  0  0  0  0  0
  192.4630  174.2690  144.7130 C   0  0  2  0  0  3  0  0  0  0  0  0
  191.8780  173.0670  143.4870 S   0  0  0  0  0  0  0  0  0  0  0  0
  191.6940  175.6370  142.8110 N   0  0  0  0  0  2  0  0  0  0  0  0
  190.9070  174.4150  142.7670 C   0  0  1  0  0  3  0  0  0  0  0  0
  192.3810  175.6640  144.0940 C   0  0  1  0  0  3  0  0  0  0  0  0
  193.8660  173.9820  145.1380 C   0  0  0  0  0  0  0  0  0  0  0  0
  194.7390  174.8890  145.0230 O   0  0  0  0  0  0  0  0  0  0  0  0
  194.2120  172.7000  145.5770 O   0  0  0  0  0  0  0  0  0  0  0  0
  195.2730  171.9460  145.0640 C   0  0  0  0  0  0  0  0  0  0  0  0
  195.2040  171.4260  143.9150 O   0  0  0  0  0  0  0  0  0  0  0  0
  196.9880  172.8880  146.3910 O   0  0  0  0  0  1  0  0  0  0  0  0
  196.5260  171.8570  145.8200 C   0  0  0  0  0  0  0  0  0  0  0  0
  197.1570  170.6270  146.0070 O   0  0  0  0  0  0  0  0  0  0  0  0
  191.7500  176.6870  145.0360 C   0  0  0  0  0  2  0  0  0  0  0  0
  190.7720  176.0320  146.0150 C   0  0  0  0  0  2  0  0  0  0  0  0
  189.4430  176.6140  145.8750 N   0  0  0  0  0  0  0  0  0  0  0  0
  186.8170  177.5310  145.0580 C   0  0  2  0  0  3  0  0  0  0  0  0
  186.2730  177.1430  147.4670 C   0  0  0  0  0  1  0  0  0  0  0  0
  187.9920  177.4160  144.0990 C   0  0  0  0  0  2  0  0  0  0  0  0
  188.4470  175.1220  147.3840 O   0  0  0  0  0  0  0  0  0  0  0  0
  189.2690  177.6630  144.8810 C   0  0  0  0  0  2  0  0  0  0  0  0
  186.8980  176.5290  146.2270 C   0  0  2  0  0  3  0  0  0  0  0  0
  188.2970  176.0550  146.5500 C   0  0  0  0  0  0  0  0  0  0  0  0
  185.5300  177.3260  144.2810 C   0  0  0  0  0  2  0  0  0  0  0  0
  185.8230  177.2360  142.7960 C   0  0  0  0  0  1  0  0  0  0  0  0
  190.7150  169.2280  140.4130 O   0  0  0  0  0  0  0  0  0  0  0  0
  190.8160  169.8530  139.3210 C   0  0  0  0  0  0  0  0  0  0  0  0
  190.4680  171.2350  139.2620 N   0  0  0  0  0  2  0  0  0  0  0  0
  191.1960  169.1360  138.0640 C   0  0  0  0  0  2  0  0  0  0  0  0
  191.6890  170.1060  136.9960 C   0  0  0  0  0  2  0  0  0  0  0  0
  193.7890  169.2760  137.6280 O   0  0  0  0  0  0  0  0  0  0  0  0
  193.1900  170.0920  136.9430 C   0  0  0  0  0  0  0  0  0  0  0  0
  193.9830  171.0550  136.0970 C   0  0  0  0  0  2  0  0  0  0  0  0
  194.9480  171.9130  136.9180 C   0  0  1  0  0  3  0  0  0  0  0  0
  196.3850  171.7240  136.5190 C   0  0  0  0  0  0  0  0  0  0  0  0
  197.2970  172.1210  137.2990 O   0  0  0  0  0  0  0  0  0  0  0  0
  196.7110  171.1040  135.3110 O   0  0  0  0  0  0  0  0  0  0  0  0
  197.3740  169.8520  135.2630 C   0  0  0  0  0  1  0  0  0  0  0  0
  194.5360  173.3820  136.9000 C   0  0  0  0  0  2  0  0  0  0  0  0
  193.4880  173.6260  137.7910 O   0  0  0  0  0  0  0  0  0  0  0  0
  193.7660  174.8890  138.3290 C   0  0  0  0  0  2  0  0  0  0  0  0
  196.1040  176.6920  141.2520 C   0  0  0  0  0  1  0  0  0  0  0  0
  195.3590  175.4480  141.7080 C   0  0  1  0  0  3  0  0  0  0  0  0
  195.8650  173.3260  141.0290 C   0  0  0  0  0  3  0  0  0  0  0  0
  194.6140  173.7090  140.3120 C   0  0  2  0  0  3  0  0  0  0  0  0
  194.8420  174.8480  139.4160 C   0  0  2  0  0  3  0  0  0  0  0  0
  194.2800  175.0810  140.7720 N   0  0  2  0  0  0  0  0  0  0  0  0
  196.2810  174.2910  141.8260 C   0  0  0  0  0  3  0  0  0  0  0  0
  1  5  1  0  0  0  0
  1  7  1  0  0  0  0
  5  3  1  0  0  0  0
  6  3  1  1  0  0  0
  6 11  1  0  0  0  0
  7  2  1  6  0  0  0
  7  6  1  0  0  0  0
  7  4  1  0  0  0  0
  8 13  1  6  0  0  0
  9  8  1  0  0  0  0
 10 12  1  0  0  0  0
 11 10  1  6  0  0  0
 11  9  1  0  0  0  0
 12  8  1  0  0  0  0
 12 21  1  1  0  0  0
 13 15  1  0  0  0  0
 14 13  2  0  0  0  0
 16 15  1  0  0  0  0
 16 19  1  0  0  0  0
 17 16  2  0  0  0  0
 19 20  2  0  0  0  0
 19 18  1  0  0  0  0
 21 22  1  0  0  0  0
 23 22  1  0  0  0  0
 23 30  1  0  0  0  0
 24 31  1  6  0  0  0
 24 29  1  0  0  0  0
 26 28  1  0  0  0  0
 26 24  1  0  0  0  0
 28 23  1  0  0  0  0
 29 30  1  0  0  0  0
 29 25  1  1  0  0  0
 30 27  2  0  0  0  0
 32 31  1  0  0  0  0
 34 33  2  0  0  0  0
 35 34  1  0  0  0  0
 35  5  1  0  0  0  0
 36 34  1  0  0  0  0
 37 36  1  0  0  0  0
 39 37  1  0  0  0  0
 39 38  2  0  0  0  0
 40 39  1  0  0  0  0
 41 40  1  6  0  0  0
 42 41  1  0  0  0  0
 42 43  2  0  0  0  0
 44 42  1  0  0  0  0
 45 44  1  0  0  0  0
 46 41  1  0  0  0  0
 46 47  1  0  0  0  0
 47 48  1  0  0  0  0
 50 49  1  6  0  0  0
 50 55  1  0  0  0  0
 51 55  2  0  0  0  0
 52 54  1  0  0  0  0
 52 51  1  1  0  0  0
 53 48  1  6  0  0  0
 53 52  1  0  0  0  0
 53 54  1  0  0  0  0
 54 50  1  0  0  0  0
M  END
>  <MODEL>
2

>  <REMARK>
 VINA RESULT:      -5.7      2.432      9.583
  Name = 
  21 active torsions:
  status: ('A' for Active; 'I' for Inactive)
    1  A    between atoms: C_1  and  C_2
    2  A    between atoms: C_1  and  O_8
    3  A    between atoms: N_3  and  C_29
    4  A    between atoms: C_4  and  C_6
    5  A    between atoms: O_8  and  C_24
    6  A    between atoms: C_9  and  C_24
    7  A    between atoms: C_11  and  C_46
    8  A    between atoms: C_12  and  C_26
    9  A    between atoms: C_12  and  C_53
   10  A    between atoms: C_15  and  C_16
   11  A    between atoms: C_15  and  C_25
   12  A    between atoms: C_15  and  C_37
   13  A    between atoms: C_16  and  C_51
   14  A    between atoms: C_25  and  O_33
   15  A    between atoms: C_26  and  C_51
   16  A    between atoms: C_27  and  C_29
   17  A    between atoms: C_27  and  C_49
   18  A    between atoms: C_31  and  C_47
   19  A    between atoms: N_36  and  N_54
   20  A    between atoms: C_37  and  O_41
   21  A    between atoms: O_41  and  C_47
                            x       y       z     vdW  Elec       q    Type
                         _______ _______ _______ _____ _____    ______ ____

>  <TORSDO>
F 21

$$$$
=
 OpenBabel11062421323D

 55 59  0  0  1  0  0  0  0  0999 V2000
  188.4830  172.9550  139.9830 S   0  0  0  0  0  0  0  0  0  0  0  0
  187.9120  175.5850  140.4320 C   0  0  0  0  0  1  0  0  0  0  0  0
  190.6670  173.3620  141.3360 C   0  0  0  0  0  2  0  0  0  0  0  0
  187.4720  174.0050  142.1600 O   0  0  0  0  0  1  0  0  0  0  0  0
  189.8180  172.2530  140.9120 N   0  0  0  0  0  0  0  0  0  0  0  0
  189.7900  174.5560  141.6950 C   0  0  1  0  0  3  0  0  0  0  0  0
  188.3790  174.3350  141.1500 C   0  0  1  0  0  0  0  0  0  0  0  0
  190.7450  175.0540  145.5030 C   0  0  2  0  0  3  0  0  0  0  0  0
  190.5870  173.7280  144.2760 S   0  0  0  0  0  0  0  0  0  0  0  0
  190.5610  176.2210  143.3400 N   0  0  0  0  0  2  0  0  0  0  0  0
  189.8510  174.9630  143.1750 C   0  0  1  0  0  3  0  0  0  0  0  0
  190.8240  176.3880  144.7610 C   0  0  1  0  0  3  0  0  0  0  0  0
  191.9580  174.8720  146.3560 C   0  0  0  0  0  0  0  0  0  0  0  0
  191.8920  175.1570  147.5860 O   0  0  0  0  0  0  0  0  0  0  0  0
  193.1650  174.4720  145.7730 O   0  0  0  0  0  0  0  0  0  0  0  0
  194.2560  175.3180  145.5480 C   0  0  0  0  0  0  0  0  0  0  0  0
  195.0190  175.6610  146.4960 O   0  0  0  0  0  0  0  0  0  0  0  0
  195.6690  176.3380  143.9500 O   0  0  0  0  0  1  0  0  0  0  0  0
  194.5880  175.7180  144.1780 C   0  0  0  0  0  0  0  0  0  0  0  0
  193.7820  175.3290  143.1080 O   0  0  0  0  0  0  0  0  0  0  0  0
  189.9160  177.4520  145.3710 C   0  0  0  0  0  2  0  0  0  0  0  0
  188.6310  176.8460  145.9410 C   0  0  0  0  0  2  0  0  0  0  0  0
  187.4600  177.5170  145.3900 N   0  0  0  0  0  0  0  0  0  0  0  0
  185.1970  178.4710  143.8510 C   0  0  2  0  0  3  0  0  0  0  0  0
  184.2090  178.8440  146.1170 C   0  0  0  0  0  1  0  0  0  0  0  0
  186.4760  177.9520  143.2120 C   0  0  0  0  0  2  0  0  0  0  0  0
  185.9930  176.6390  146.9940 O   0  0  0  0  0  0  0  0  0  0  0  0
  187.6310  178.2570  144.1480 C   0  0  0  0  0  2  0  0  0  0  0  0
  184.9150  177.8370  145.2280 C   0  0  2  0  0  3  0  0  0  0  0  0
  186.1420  177.3110  145.9380 C   0  0  0  0  0  0  0  0  0  0  0  0
  184.0380  178.2090  142.9060 C   0  0  0  0  0  2  0  0  0  0  0  0
  184.5500  178.0000  141.4950 C   0  0  0  0  0  1  0  0  0  0  0  0
  190.9160  169.7820  141.5540 O   0  0  0  0  0  0  0  0  0  0  0  0
  191.1330  170.2360  140.3970 C   0  0  0  0  0  0  0  0  0  0  0  0
  190.5710  171.4890  140.0110 N   0  0  0  0  0  2  0  0  0  0  0  0
  191.8860  169.4280  139.3890 C   0  0  0  0  0  2  0  0  0  0  0  0
  193.2800  169.0680  139.8900 C   0  0  0  0  0  2  0  0  0  0  0  0
  193.9690  170.2560  137.9900 O   0  0  0  0  0  0  0  0  0  0  0  0
  194.3200  169.7410  139.0410 C   0  0  0  0  0  0  0  0  0  0  0  0
  195.7780  169.7860  139.4240 C   0  0  0  0  0  2  0  0  0  0  0  0
  196.2770  171.2050  139.7020 C   0  0  1  0  0  3  0  0  0  0  0  0
  196.5000  171.4730  141.1640 C   0  0  0  0  0  0  0  0  0  0  0  0
  197.1570  172.4960  141.5090 O   0  0  0  0  0  0  0  0  0  0  0  0
  195.9760  170.6120  142.1310 O   0  0  0  0  0  0  0  0  0  0  0  0
  194.7530  170.8850  142.7960 C   0  0  0  0  0  1  0  0  0  0  0  0
  197.5100  171.5330  138.8640 C   0  0  0  0  0  2  0  0  0  0  0  0
  197.4620  172.8450  138.3840 O   0  0  0  0  0  0  0  0  0  0  0  0
  196.2680  172.9110  137.6540 C   0  0  0  0  0  2  0  0  0  0  0  0
  194.5320  175.0050  134.5130 C   0  0  0  0  0  1  0  0  0  0  0  0
  195.0450  175.8720  135.6520 C   0  0  1  0  0  3  0  0  0  0  0  0
  197.2570  176.2000  136.1220 C   0  0  0  0  0  3  0  0  0  0  0  0
  196.7370  175.2760  137.1720 C   0  0  2  0  0  3  0  0  0  0  0  0
  196.2830  174.0080  136.5880 C   0  0  2  0  0  3  0  0  0  0  0  0
  195.2960  175.0820  136.8720 N   0  0  2  0  0  0  0  0  0  0  0  0
  196.3100  176.5510  135.2740 C   0  0  0  0  0  3  0  0  0  0  0  0
  1  5  1  0  0  0  0
  1  7  1  0  0  0  0
  5  3  1  0  0  0  0
  6  3  1  1  0  0  0
  6 11  1  0  0  0  0
  7  2  1  6  0  0  0
  7  6  1  0  0  0  0
  7  4  1  0  0  0  0
  8 13  1  6  0  0  0
  9  8  1  0  0  0  0
 10 12  1  0  0  0  0
 11 10  1  6  0  0  0
 11  9  1  0  0  0  0
 12 21  1  1  0  0  0
 12  8  1  0  0  0  0
 13 14  2  0  0  0  0
 15 13  1  0  0  0  0
 16 15  1  0  0  0  0
 16 17  2  0  0  0  0
 18 19  1  0  0  0  0
 19 16  1  0  0  0  0
 20 19  2  0  0  0  0
 21 22  1  0  0  0  0
 23 30  1  0  0  0  0
 23 22  1  0  0  0  0
 24 31  1  6  0  0  0
 24 29  1  0  0  0  0
 26 24  1  0  0  0  0
 26 28  1  0  0  0  0
 28 23  1  0  0  0  0
 29 30  1  0  0  0  0
 29 25  1  1  0  0  0
 30 27  2  0  0  0  0
 32 31  1  0  0  0  0
 34 33  2  0  0  0  0
 35 34  1  0  0  0  0
 35  5  1  0  0  0  0
 36 37  1  0  0  0  0
 36 34  1  0  0  0  0
 38 39  2  0  0  0  0
 39 40  1  0  0  0  0
 39 37  1  0  0  0  0
 40 41  1  0  0  0  0
 41 46  1  6  0  0  0
 41 42  1  0  0  0  0
 42 43  2  0  0  0  0
 42 44  1  0  0  0  0
 44 45  1  0  0  0  0
 47 46  1  0  0  0  0
 48 47  1  0  0  0  0
 50 49  1  6  0  0  0
 50 54  1  0  0  0  0
 52 51  1  6  0  0  0
 53 54  1  0  0  0  0
 53 52  1  0  0  0  0
 53 48  1  1  0  0  0
 54 52  1  0  0  0  0
 55 50  1  0  0  0  0
 55 51  2  0  0  0  0
M  END
>  <MODEL>
3

>  <REMARK>
 VINA RESULT:      -5.6      2.820     10.243
  Name = 
  21 active torsions:
  status: ('A' for Active; 'I' for Inactive)
    1  A    between atoms: C_1  and  C_2
    2  A    between atoms: C_1  and  O_8
    3  A    between atoms: N_3  and  C_29
    4  A    between atoms: C_4  and  C_6
    5  A    between atoms: O_8  and  C_24
    6  A    between atoms: C_9  and  C_24
    7  A    between atoms: C_11  and  C_46
    8  A    between atoms: C_12  and  C_26
    9  A    between atoms: C_12  and  C_53
   10  A    between atoms: C_15  and  C_16
   11  A    between atoms: C_15  and  C_25
   12  A    between atoms: C_15  and  C_37
   13  A    between atoms: C_16  and  C_51
   14  A    between atoms: C_25  and  O_33
   15  A    between atoms: C_26  and  C_51
   16  A    between atoms: C_27  and  C_29
   17  A    between atoms: C_27  and  C_49
   18  A    between atoms: C_31  and  C_47
   19  A    between atoms: N_36  and  N_54
   20  A    between atoms: C_37  and  O_41
   21  A    between atoms: O_41  and  C_47
                            x       y       z     vdW  Elec       q    Type
                         _______ _______ _______ _____ _____    ______ ____

>  <TORSDO>
F 21

$$$$
=
 OpenBabel11062421323D

 55 59  0  0  1  0  0  0  0  0999 V2000
  188.9050  175.3120  147.2620 S   0  0  0  0  0  0  0  0  0  0  0  0
  191.5660  175.0540  147.8110 C   0  0  0  0  0  1  0  0  0  0  0  0
  189.6030  177.1020  145.5090 C   0  0  0  0  0  2  0  0  0  0  0  0
  190.6760  173.9410  145.9010 O   0  0  0  0  0  1  0  0  0  0  0  0
  188.4700  176.2340  145.8140 N   0  0  0  0  0  0  0  0  0  0  0  0
  190.8990  176.3560  145.8010 C   0  0  1  0  0  3  0  0  0  0  0  0
  190.5970  175.1190  146.6470 C   0  0  1  0  0  0  0  0  0  0  0  0
  193.8630  175.7550  143.2470 C   0  0  2  0  0  3  0  0  0  0  0  0
  193.3940  176.8850  144.5860 S   0  0  0  0  0  0  0  0  0  0  0  0
  191.9460  174.6630  144.3470 N   0  0  0  0  0  2  0  0  0  0  0  0
  191.7680  176.0900  144.5620 C   0  0  1  0  0  3  0  0  0  0  0  0
  192.9950  174.5020  143.3520 C   0  0  1  0  0  3  0  0  0  0  0  0
  195.3080  175.3840  143.3220 C   0  0  0  0  0  0  0  0  0  0  0  0
  196.1770  176.2240  142.9500 O   0  0  0  0  0  0  0  0  0  0  0  0
  195.6760  174.0950  143.7190 O   0  0  0  0  0  0  0  0  0  0  0  0
  195.8780  173.7020  145.0470 C   0  0  0  0  0  0  0  0  0  0  0  0
  196.2090  174.5420  145.9300 O   0  0  0  0  0  0  0  0  0  0  0  0
  196.5420  171.5270  145.6930 O   0  0  0  0  0  1  0  0  0  0  0  0
  195.5880  172.3210  145.4420 C   0  0  0  0  0  0  0  0  0  0  0  0
  194.2730  171.9020  145.6510 O   0  0  0  0  0  0  0  0  0  0  0  0
  192.4180  174.0750  142.0050 C   0  0  0  0  0  2  0  0  0  0  0  0
  193.4940  174.0070  140.9190 C   0  0  0  0  0  2  0  0  0  0  0  0
  193.0720  173.1300  139.8340 N   0  0  0  0  0  0  0  0  0  0  0  0
  191.7090  171.4010  137.9490 C   0  0  2  0  0  3  0  0  0  0  0  0
  193.2070  172.5350  136.3000 C   0  0  0  0  0  1  0  0  0  0  0  0
  191.4020  171.4100  139.4390 C   0  0  0  0  0  2  0  0  0  0  0  0
  193.1810  174.8120  138.2050 O   0  0  0  0  0  0  0  0  0  0  0  0
  192.6740  171.7730  140.1820 C   0  0  0  0  0  2  0  0  0  0  0  0
  192.2250  172.7600  137.4360 C   0  0  2  0  0  3  0  0  0  0  0  0
  192.8690  173.6250  138.4950 C   0  0  0  0  0  0  0  0  0  0  0  0
  190.4540  170.9980  137.1940 C   0  0  0  0  0  2  0  0  0  0  0  0
  189.5850  170.1090  138.0610 C   0  0  0  0  0  1  0  0  0  0  0  0
  185.8460  175.8060  145.0020 O   0  0  0  0  0  0  0  0  0  0  0  0
  186.0810  176.8200  145.7170 C   0  0  0  0  0  0  0  0  0  0  0  0
  187.4070  177.0690  146.1790 N   0  0  0  0  0  2  0  0  0  0  0  0
  184.9650  177.7060  146.1720 C   0  0  0  0  0  2  0  0  0  0  0  0
  185.3080  179.1790  145.9800 C   0  0  0  0  0  2  0  0  0  0  0  0
  185.5050  180.6270  144.1450 O   0  0  0  0  0  0  0  0  0  0  0  0
  185.0020  179.5960  144.5690 C   0  0  0  0  0  0  0  0  0  0  0  0
  184.0850  178.8080  143.6690 C   0  0  0  0  0  2  0  0  0  0  0  0
  184.8220  178.1350  142.5110 C   0  0  1  0  0  3  0  0  0  0  0  0
  184.0700  178.2120  141.2110 C   0  0  0  0  0  0  0  0  0  0  0  0
  184.7030  178.0810  140.1250 O   0  0  0  0  0  0  0  0  0  0  0  0
  182.6870  178.4110  141.2030 O   0  0  0  0  0  0  0  0  0  0  0  0
  181.8460  177.8010  140.2380 C   0  0  0  0  0  1  0  0  0  0  0  0
  186.2480  178.6630  142.3790 C   0  0  0  0  0  2  0  0  0  0  0  0
  187.1860  177.6750  142.6970 O   0  0  0  0  0  0  0  0  0  0  0  0
  187.8030  177.3670  141.4780 C   0  0  0  0  0  2  0  0  0  0  0  0
  188.5270  174.1330  138.9730 C   0  0  0  0  0  1  0  0  0  0  0  0
  189.0790  173.9850  140.3820 C   0  0  1  0  0  3  0  0  0  0  0  0
  187.7890  173.6850  142.2440 C   0  0  0  0  0  3  0  0  0  0  0  0
  188.2750  175.0960  142.2910 C   0  0  2  0  0  3  0  0  0  0  0  0
  187.7670  175.8720  141.1550 C   0  0  2  0  0  3  0  0  0  0  0  0
  189.1280  175.2780  141.0900 N   0  0  2  0  0  0  0  0  0  0  0  0
  188.2490  173.0520  141.1830 C   0  0  0  0  0  3  0  0  0  0  0  0
  3  5  1  0  0  0  0
  4  7  1  0  0  0  0
  5 35  1  0  0  0  0
  5  1  1  0  0  0  0
  6  3  1  6  0  0  0
  6  7  1  0  0  0  0
  7  1  1  0  0  0  0
  7  2  1  1  0  0  0
  8 13  1  1  0  0  0
  8 12  1  0  0  0  0
  8  9  1  0  0  0  0
 11 10  1  1  0  0  0
 11  9  1  0  0  0  0
 11  6  1  0  0  0  0
 12 21  1  6  0  0  0
 12 10  1  0  0  0  0
 13 15  1  0  0  0  0
 14 13  2  0  0  0  0
 15 16  1  0  0  0  0
 16 19  1  0  0  0  0
 16 17  2  0  0  0  0
 19 20  2  0  0  0  0
 19 18  1  0  0  0  0
 22 21  1  0  0  0  0
 23 28  1  0  0  0  0
 23 22  1  0  0  0  0
 24 31  1  6  0  0  0
 24 26  1  0  0  0  0
 26 28  1  0  0  0  0
 27 30  2  0  0  0  0
 29 25  1  6  0  0  0
 29 24  1  0  0  0  0
 29 30  1  0  0  0  0
 30 23  1  0  0  0  0
 31 32  1  0  0  0  0
 33 34  2  0  0  0  0
 34 36  1  0  0  0  0
 34 35  1  0  0  0  0
 37 36  1  0  0  0  0
 38 39  2  0  0  0  0
 39 37  1  0  0  0  0
 40 39  1  0  0  0  0
 41 46  1  6  0  0  0
 41 40  1  0  0  0  0
 42 41  1  0  0  0  0
 43 42  2  0  0  0  0
 44 42  1  0  0  0  0
 45 44  1  0  0  0  0
 46 47  1  0  0  0  0
 48 47  1  0  0  0  0
 50 49  1  6  0  0  0
 50 54  1  0  0  0  0
 50 55  1  0  0  0  0
 52 51  1  6  0  0  0
 53 48  1  1  0  0  0
 53 52  1  0  0  0  0
 54 53  1  0  0  0  0
 54 52  1  0  0  0  0
 55 51  2  0  0  0  0
M  END
>  <MODEL>
4

>  <REMARK>
 VINA RESULT:      -5.5      2.214      5.045
  Name = 
  21 active torsions:
  status: ('A' for Active; 'I' for Inactive)
    1  A    between atoms: C_1  and  C_2
    2  A    between atoms: C_1  and  O_8
    3  A    between atoms: N_3  and  C_29
    4  A    between atoms: C_4  and  C_6
    5  A    between atoms: O_8  and  C_24
    6  A    between atoms: C_9  and  C_24
    7  A    between atoms: C_11  and  C_46
    8  A    between atoms: C_12  and  C_26
    9  A    between atoms: C_12  and  C_53
   10  A    between atoms: C_15  and  C_16
   11  A    between atoms: C_15  and  C_25
   12  A    between atoms: C_15  and  C_37
   13  A    between atoms: C_16  and  C_51
   14  A    between atoms: C_25  and  O_33
   15  A    between atoms: C_26  and  C_51
   16  A    between atoms: C_27  and  C_29
   17  A    between atoms: C_27  and  C_49
   18  A    between atoms: C_31  and  C_47
   19  A    between atoms: N_36  and  N_54
   20  A    between atoms: C_37  and  O_41
   21  A    between atoms: O_41  and  C_47
                            x       y       z     vdW  Elec       q    Type
                         _______ _______ _______ _____ _____    ______ ____

>  <TORSDO>
F 21

$$$$
=
 OpenBabel11062421323D

 55 59  0  0  1  0  0  0  0  0999 V2000
  190.0790  171.9720  140.5960 S   0  0  0  0  0  0  0  0  0  0  0  0
  188.3880  174.0910  140.2790 C   0  0  0  0  0  1  0  0  0  0  0  0
  191.8920  173.7190  141.2460 C   0  0  0  0  0  2  0  0  0  0  0  0
  188.7970  173.2680  142.4780 O   0  0  0  0  0  1  0  0  0  0  0  0
  191.6260  172.2910  141.3950 N   0  0  0  0  0  0  0  0  0  0  0  0
  190.5830  174.4890  141.3760 C   0  0  1  0  0  3  0  0  0  0  0  0
  189.4070  173.5220  141.2470 C   0  0  1  0  0  0  0  0  0  0  0  0
  189.4600  176.7400  144.4320 C   0  0  2  0  0  3  0  0  0  0  0  0
  189.0250  176.4400  142.6970 S   0  0  0  0  0  0  0  0  0  0  0  0
  190.6570  174.6700  143.8330 N   0  0  0  0  0  2  0  0  0  0  0  0
  190.5170  175.4210  142.5960 C   0  0  1  0  0  3  0  0  0  0  0  0
  190.3010  175.5630  144.9260 C   0  0  1  0  0  3  0  0  0  0  0  0
  188.2430  176.8910  145.2850 C   0  0  0  0  0  0  0  0  0  0  0  0
  187.9990  176.0160  146.1650 O   0  0  0  0  0  0  0  0  0  0  0  0
  187.3520  177.9420  145.0480 O   0  0  0  0  0  0  0  0  0  0  0  0
  186.0190  177.7780  144.6540 C   0  0  0  0  0  0  0  0  0  0  0  0
  185.7240  177.5170  143.4540 O   0  0  0  0  0  0  0  0  0  0  0  0
  184.1430  178.7590  145.7070 O   0  0  0  0  0  0  0  0  0  0  0  0
  184.9610  177.7920  145.6680 C   0  0  0  0  0  0  0  0  0  0  0  0
  184.7770  176.7030  146.5190 O   0  0  0  0  0  1  0  0  0  0  0  0
  191.5370  176.0110  145.7000 C   0  0  0  0  0  2  0  0  0  0  0  0
  192.4100  176.9630  144.8780 C   0  0  0  0  0  2  0  0  0  0  0  0
  193.7850  176.4810  144.8290 N   0  0  0  0  0  0  0  0  0  0  0  0
  196.2910  175.0300  144.9560 C   0  0  2  0  0  3  0  0  0  0  0  0
  196.7770  176.3010  142.8580 C   0  0  0  0  0  1  0  0  0  0  0  0
  195.1850  174.8710  145.9890 C   0  0  0  0  0  2  0  0  0  0  0  0
  193.8310  176.3450  142.4890 O   0  0  0  0  0  0  0  0  0  0  0  0
  194.4420  176.1890  146.0940 C   0  0  0  0  0  2  0  0  0  0  0  0
  195.7580  175.4250  143.5640 C   0  0  2  0  0  3  0  0  0  0  0  0
  194.4180  176.1240  143.5830 C   0  0  0  0  0  0  0  0  0  0  0  0
  197.0700  173.7300  144.8700 C   0  0  0  0  0  2  0  0  0  0  0  0
  196.9190  172.9420  146.1550 C   0  0  0  0  0  1  0  0  0  0  0  0
  192.9820  170.0530  142.3320 O   0  0  0  0  0  0  0  0  0  0  0  0
  193.2880  170.4870  141.1870 C   0  0  0  0  0  0  0  0  0  0  0  0
  192.6040  171.6180  140.6520 N   0  0  0  0  0  2  0  0  0  0  0  0
  194.2880  169.7660  140.3400 C   0  0  0  0  0  2  0  0  0  0  0  0
  194.6750  170.5830  139.1130 C   0  0  0  0  0  2  0  0  0  0  0  0
  196.6350  170.9900  140.3360 O   0  0  0  0  0  0  0  0  0  0  0  0
  195.9600  171.3180  139.3700 C   0  0  0  0  0  0  0  0  0  0  0  0
  196.4360  172.4530  138.4990 C   0  0  0  0  0  2  0  0  0  0  0  0
  196.2770  173.8200  139.1650 C   0  0  1  0  0  3  0  0  0  0  0  0
  197.2810  174.8290  138.6800 C   0  0  0  0  0  0  0  0  0  0  0  0
  197.7630  175.6600  139.5010 O   0  0  0  0  0  0  0  0  0  0  0  0
  197.6880  174.8400  137.3440 O   0  0  0  0  0  0  0  0  0  0  0  0
  197.1380  175.7430  136.3990 C   0  0  0  0  0  1  0  0  0  0  0  0
  194.8450  174.3330  139.0430 C   0  0  0  0  0  2  0  0  0  0  0  0
  194.2410  173.8760  137.8680 O   0  0  0  0  0  0  0  0  0  0  0  0
  193.0440  174.5970  137.7820 C   0  0  0  0  0  2  0  0  0  0  0  0
  189.0610  174.0020  136.7560 C   0  0  0  0  0  1  0  0  0  0  0  0
  190.0530  173.1310  136.0000 C   0  0  1  0  0  3  0  0  0  0  0  0
  191.2290  171.4130  136.9390 C   0  0  0  0  0  3  0  0  0  0  0  0
  192.1980  172.5320  136.7500 C   0  0  2  0  0  3  0  0  0  0  0  0
  191.8250  173.7010  137.5540 C   0  0  2  0  0  3  0  0  0  0  0  0
  191.4320  173.6380  136.1230 N   0  0  2  0  0  0  0  0  0  0  0  0
  190.0270  171.7370  136.5060 C   0  0  0  0  0  3  0  0  0  0  0  0
  1  7  1  0  0  0  0
  1  5  1  0  0  0  0
  3  5  1  0  0  0  0
  6  3  1  1  0  0  0
  6 11  1  0  0  0  0
  7  2  1  6  0  0  0
  7  6  1  0  0  0  0
  7  4  1  0  0  0  0
  8 12  1  0  0  0  0
  8 13  1  1  0  0  0
  9  8  1  0  0  0  0
 10 12  1  0  0  0  0
 11  9  1  1  0  0  0
 11 10  1  0  0  0  0
 12 21  1  6  0  0  0
 13 14  2  0  0  0  0
 15 13  1  0  0  0  0
 16 15  1  0  0  0  0
 16 19  1  0  0  0  0
 17 16  2  0  0  0  0
 19 18  2  0  0  0  0
 19 20  1  0  0  0  0
 22 21  1  0  0  0  0
 23 22  1  0  0  0  0
 23 28  1  0  0  0  0
 24 31  1  6  0  0  0
 24 26  1  0  0  0  0
 26 28  1  0  0  0  0
 27 30  2  0  0  0  0
 29 25  1  1  0  0  0
 29 30  1  0  0  0  0
 29 24  1  0  0  0  0
 30 23  1  0  0  0  0
 31 32  1  0  0  0  0
 34 33  2  0  0  0  0
 35 34  1  0  0  0  0
 35  5  1  0  0  0  0
 36 34  1  0  0  0  0
 37 39  1  0  0  0  0
 37 36  1  0  0  0  0
 39 38  2  0  0  0  0
 40 39  1  0  0  0  0
 41 40  1  6  0  0  0
 42 41  1  0  0  0  0
 42 43  2  0  0  0  0
 44 42  1  0  0  0  0
 45 44  1  0  0  0  0
 46 41  1  0  0  0  0
 47 46  1  0  0  0  0
 48 47  1  0  0  0  0
 50 54  1  0  0  0  0
 50 55  1  0  0  0  0
 50 49  1  1  0  0  0
 52 51  1  1  0  0  0
 52 53  1  0  0  0  0
 53 48  1  6  0  0  0
 54 52  1  0  0  0  0
 54 53  1  0  0  0  0
 55 51  2  0  0  0  0
M  END
>  <MODEL>
5

>  <REMARK>
 VINA RESULT:      -5.4      2.774      8.883
  Name = 
  21 active torsions:
  status: ('A' for Active; 'I' for Inactive)
    1  A    between atoms: C_1  and  C_2
    2  A    between atoms: C_1  and  O_8
    3  A    between atoms: N_3  and  C_29
    4  A    between atoms: C_4  and  C_6
    5  A    between atoms: O_8  and  C_24
    6  A    between atoms: C_9  and  C_24
    7  A    between atoms: C_11  and  C_46
    8  A    between atoms: C_12  and  C_26
    9  A    between atoms: C_12  and  C_53
   10  A    between atoms: C_15  and  C_16
   11  A    between atoms: C_15  and  C_25
   12  A    between atoms: C_15  and  C_37
   13  A    between atoms: C_16  and  C_51
   14  A    between atoms: C_25  and  O_33
   15  A    between atoms: C_26  and  C_51
   16  A    between atoms: C_27  and  C_29
   17  A    between atoms: C_27  and  C_49
   18  A    between atoms: C_31  and  C_47
   19  A    between atoms: N_36  and  N_54
   20  A    between atoms: C_37  and  O_41
   21  A    between atoms: O_41  and  C_47
                            x       y       z     vdW  Elec       q    Type
                         _______ _______ _______ _____ _____    ______ ____

>  <TORSDO>
F 21

$$$$
=
 OpenBabel11062421323D

 55 59  0  0  1  0  0  0  0  0999 V2000
  188.1100  177.4640  146.9530 S   0  0  0  0  0  0  0  0  0  0  0  0
  185.5600  176.9110  146.1530 C   0  0  0  0  0  1  0  0  0  0  0  0
  188.8750  176.4180  144.6980 C   0  0  0  0  0  2  0  0  0  0  0  0
  186.6370  178.8540  145.2910 O   0  0  0  0  0  1  0  0  0  0  0  0
  189.3850  177.3110  145.7340 N   0  0  0  0  0  0  0  0  0  0  0  0
  187.3920  176.6920  144.4860 C   0  0  1  0  0  3  0  0  0  0  0  0
  186.8530  177.5220  145.6510 C   0  0  1  0  0  0  0  0  0  0  0  0
  186.9500  177.2990  140.5990 C   0  0  2  0  0  3  0  0  0  0  0  0
  188.2320  176.8240  141.7920 S   0  0  0  0  0  0  0  0  0  0  0  0
  185.7210  176.8010  142.6770 N   0  0  0  0  0  2  0  0  0  0  0  0
  187.0430  177.2390  143.0930 C   0  0  1  0  0  3  0  0  0  0  0  0
  185.5860  177.1110  141.2620 C   0  0  1  0  0  3  0  0  0  0  0  0
  187.0290  176.4800  139.3530 C   0  0  0  0  0  0  0  0  0  0  0  0
  187.5130  175.3140  139.4150 O   0  0  0  0  0  0  0  0  0  0  0  0
  186.6480  177.0380  138.1280 O   0  0  0  0  0  0  0  0  0  0  0  0
  186.6930  176.3640  136.9020 C   0  0  0  0  0  0  0  0  0  0  0  0
  187.7890  175.9500  136.4290 O   0  0  0  0  0  0  0  0  0  0  0  0
  185.4350  175.8950  134.9570 O   0  0  0  0  0  0  0  0  0  0  0  0
  185.4420  176.0310  136.2160 C   0  0  0  0  0  0  0  0  0  0  0  0
  184.2840  175.7550  136.9430 O   0  0  0  0  0  1  0  0  0  0  0  0
  184.6590  178.3030  141.0430 C   0  0  0  0  0  2  0  0  0  0  0  0
  183.4720  178.2870  142.0090 C   0  0  0  0  0  2  0  0  0  0  0  0
  182.2190  178.4480  141.2820 N   0  0  0  0  0  0  0  0  0  0  0  0
  179.6990  178.1800  139.8740 C   0  0  2  0  0  3  0  0  0  0  0  0
  179.1830  180.3400  141.0220 C   0  0  0  0  0  1  0  0  0  0  0  0
  180.8240  177.1610  139.7660 C   0  0  0  0  0  2  0  0  0  0  0  0
  181.0950  179.4170  143.0970 O   0  0  0  0  0  0  0  0  0  0  0  0
  182.1430  177.8900  139.9400 C   0  0  0  0  0  2  0  0  0  0  0  0
  179.6930  178.9240  141.2240 C   0  0  2  0  0  3  0  0  0  0  0  0
  181.0340  178.9670  141.9210 C   0  0  0  0  0  0  0  0  0  0  0  0
  178.3740  177.4700  139.6610 C   0  0  0  0  0  2  0  0  0  0  0  0
  178.2130  177.0880  138.2030 C   0  0  0  0  0  1  0  0  0  0  0  0
  191.9880  177.3610  144.7620 O   0  0  0  0  0  0  0  0  0  0  0  0
  191.7650  176.6830  145.8020 C   0  0  0  0  0  0  0  0  0  0  0  0
  190.4500  176.6450  146.3540 N   0  0  0  0  0  2  0  0  0  0  0  0
  192.8840  176.0020  146.5240 C   0  0  0  0  0  2  0  0  0  0  0  0
  194.2390  176.5600  146.1060 C   0  0  0  0  0  2  0  0  0  0  0  0
  195.3110  174.4800  146.2750 O   0  0  0  0  0  0  0  0  0  0  0  0
  195.1050  175.4560  145.5680 C   0  0  0  0  0  0  0  0  0  0  0  0
  195.7440  175.5160  144.2030 C   0  0  0  0  0  2  0  0  0  0  0  0
  194.7470  175.8510  143.0930 C   0  0  1  0  0  3  0  0  0  0  0  0
  195.4090  176.3820  141.8510 C   0  0  0  0  0  0  0  0  0  0  0  0
  196.4470  177.0940  141.9640 O   0  0  0  0  0  0  0  0  0  0  0  0
  194.8920  176.0820  140.5890 O   0  0  0  0  0  0  0  0  0  0  0  0
  195.6390  175.3610  139.6230 C   0  0  0  0  0  1  0  0  0  0  0  0
  193.8320  174.6670  142.7930 C   0  0  0  0  0  2  0  0  0  0  0  0
  194.5390  173.4610  142.8170 O   0  0  0  0  0  0  0  0  0  0  0  0
  193.7170  172.5830  143.5340 C   0  0  0  0  0  2  0  0  0  0  0  0
  190.3090  173.6240  141.3970 C   0  0  0  0  0  1  0  0  0  0  0  0
  190.1330  172.4500  142.3460 C   0  0  1  0  0  3  0  0  0  0  0  0
  190.1180  172.6290  144.6240 C   0  0  0  0  0  3  0  0  0  0  0  0
  191.4340  172.0280  144.2580 C   0  0  2  0  0  3  0  0  0  0  0  0
  192.2340  172.9520  143.4470 C   0  0  2  0  0  3  0  0  0  0  0  0
  191.4300  171.8960  142.7790 N   0  0  2  0  0  0  0  0  0  0  0  0
  189.3760  172.8540  143.5560 C   0  0  0  0  0  3  0  0  0  0  0  0
  3  5  1  0  0  0  0
  4  7  1  0  0  0  0
  5 35  1  0  0  0  0
  5  1  1  0  0  0  0
  6  3  1  1  0  0  0
  6  7  1  0  0  0  0
  7  2  1  1  0  0  0
  7  1  1  0  0  0  0
  8 13  1  6  0  0  0
  8 12  1  0  0  0  0
  8  9  1  0  0  0  0
 10 11  1  0  0  0  0
 11  9  1  6  0  0  0
 11  6  1  0  0  0  0
 12 21  1  1  0  0  0
 12 10  1  0  0  0  0
 13 14  2  0  0  0  0
 15 13  1  0  0  0  0
 16 15  1  0  0  0  0
 17 16  2  0  0  0  0
 18 19  2  0  0  0  0
 19 16  1  0  0  0  0
 19 20  1  0  0  0  0
 21 22  1  0  0  0  0
 23 30  1  0  0  0  0
 23 22  1  0  0  0  0
 24 31  1  1  0  0  0
 24 29  1  0  0  0  0
 26 24  1  0  0  0  0
 26 28  1  0  0  0  0
 28 23  1  0  0  0  0
 29 25  1  6  0  0  0
 29 30  1  0  0  0  0
 30 27  2  0  0  0  0
 32 31  1  0  0  0  0
 33 34  2  0  0  0  0
 34 35  1  0  0  0  0
 34 36  1  0  0  0  0
 37 36  1  0  0  0  0
 39 37  1  0  0  0  0
 39 38  2  0  0  0  0
 40 39  1  0  0  0  0
 41 46  1  6  0  0  0
 41 40  1  0  0  0  0
 42 43  2  0  0  0  0
 42 41  1  0  0  0  0
 44 42  1  0  0  0  0
 45 44  1  0  0  0  0
 46 47  1  0  0  0  0
 47 48  1  0  0  0  0
 50 49  1  6  0  0  0
 50 54  1  0  0  0  0
 50 55  1  0  0  0  0
 52 51  1  6  0  0  0
 53 48  1  1  0  0  0
 53 52  1  0  0  0  0
 54 53  1  0  0  0  0
 54 52  1  0  0  0  0
 55 51  2  0  0  0  0
M  END
>  <MODEL>
6

>  <REMARK>
 VINA RESULT:      -5.4      3.275     10.523
  Name = 
  21 active torsions:
  status: ('A' for Active; 'I' for Inactive)
    1  A    between atoms: C_1  and  C_2
    2  A    between atoms: C_1  and  O_8
    3  A    between atoms: N_3  and  C_29
    4  A    between atoms: C_4  and  C_6
    5  A    between atoms: O_8  and  C_24
    6  A    between atoms: C_9  and  C_24
    7  A    between atoms: C_11  and  C_46
    8  A    between atoms: C_12  and  C_26
    9  A    between atoms: C_12  and  C_53
   10  A    between atoms: C_15  and  C_16
   11  A    between atoms: C_15  and  C_25
   12  A    between atoms: C_15  and  C_37
   13  A    between atoms: C_16  and  C_51
   14  A    between atoms: C_25  and  O_33
   15  A    between atoms: C_26  and  C_51
   16  A    between atoms: C_27  and  C_29
   17  A    between atoms: C_27  and  C_49
   18  A    between atoms: C_31  and  C_47
   19  A    between atoms: N_36  and  N_54
   20  A    between atoms: C_37  and  O_41
   21  A    between atoms: O_41  and  C_47
                            x       y       z     vdW  Elec       q    Type
                         _______ _______ _______ _____ _____    ______ ____

>  <TORSDO>
F 21

$$$$
=
 OpenBabel11062421323D

 55 59  0  0  1  0  0  0  0  0999 V2000
  186.6050  177.4430  146.4530 S   0  0  0  0  0  0  0  0  0  0  0  0
  189.2580  177.7000  147.0370 C   0  0  0  0  0  1  0  0  0  0  0  0
  187.3200  177.4150  143.9530 C   0  0  0  0  0  2  0  0  0  0  0  0
  188.4010  175.5370  146.5220 O   0  0  0  0  0  1  0  0  0  0  0  0
  186.1870  177.0220  144.7850 N   0  0  0  0  0  0  0  0  0  0  0  0
  188.6150  177.1310  144.7040 C   0  0  1  0  0  3  0  0  0  0  0  0
  188.3060  176.8880  146.1810 C   0  0  1  0  0  0  0  0  0  0  0  0
  190.2570  174.4490  142.3000 C   0  0  2  0  0  3  0  0  0  0  0  0
  188.6320  174.9060  142.9630 S   0  0  0  0  0  0  0  0  0  0  0  0
  190.5930  176.6740  143.3060 N   0  0  0  0  0  2  0  0  0  0  0  0
  189.5040  176.0620  144.0490 C   0  0  1  0  0  3  0  0  0  0  0  0
  191.2040  175.6330  142.4940 C   0  0  1  0  0  3  0  0  0  0  0  0
  190.1790  174.0900  140.8520 C   0  0  0  0  0  0  0  0  0  0  0  0
  189.0650  174.1750  140.2590 O   0  0  0  0  0  0  0  0  0  0  0  0
  191.3080  173.5900  140.1970 O   0  0  0  0  0  0  0  0  0  0  0  0
  191.8050  172.2910  140.3530 C   0  0  0  0  0  0  0  0  0  0  0  0
  193.0380  172.0850  140.5350 O   0  0  0  0  0  0  0  0  0  0  0  0
  190.5280  170.5650  139.3640 O   0  0  0  0  0  0  0  0  0  0  0  0
  190.8700  171.1650  140.4250 C   0  0  0  0  0  0  0  0  0  0  0  0
  190.4380  170.6770  141.6590 O   0  0  0  0  0  1  0  0  0  0  0  0
  192.5580  175.2130  143.0610 C   0  0  0  0  0  2  0  0  0  0  0  0
  192.5440  173.7640  143.5540 C   0  0  0  0  0  2  0  0  0  0  0  0
  193.8070  173.4330  144.2040 N   0  0  0  0  0  0  0  0  0  0  0  0
  196.1520  172.2180  145.3970 C   0  0  2  0  0  3  0  0  0  0  0  0
  197.2960  174.2270  144.4460 C   0  0  0  0  0  1  0  0  0  0  0  0
  194.7640  171.5990  145.4770 C   0  0  0  0  0  2  0  0  0  0  0  0
  195.1210  174.2100  142.4250 O   0  0  0  0  0  0  0  0  0  0  0  0
  193.7440  172.7220  145.4730 C   0  0  0  0  0  2  0  0  0  0  0  0
  196.3510  173.0790  144.1350 C   0  0  2  0  0  3  0  0  0  0  0  0
  195.0730  173.6250  143.5410 C   0  0  0  0  0  0  0  0  0  0  0  0
  197.1850  171.1060  145.4420 C   0  0  0  0  0  2  0  0  0  0  0  0
  196.8000  170.0740  146.4830 C   0  0  0  0  0  1  0  0  0  0  0  0
  185.1810  177.1700  142.1980 O   0  0  0  0  0  0  0  0  0  0  0  0
  184.6500  177.9050  143.0760 C   0  0  0  0  0  0  0  0  0  0  0  0
  185.1150  177.8470  144.4230 N   0  0  0  0  0  2  0  0  0  0  0  0
  183.4690  178.7600  142.7430 C   0  0  0  0  0  2  0  0  0  0  0  0
  182.5960  178.1140  141.6720 C   0  0  0  0  0  2  0  0  0  0  0  0
  180.8800  179.3860  142.6390 O   0  0  0  0  0  0  0  0  0  0  0  0
  181.2440  178.7670  141.6500 C   0  0  0  0  0  0  0  0  0  0  0  0
  180.3140  178.6710  140.4670 C   0  0  0  0  0  2  0  0  0  0  0  0
  178.8580  178.9660  140.8300 C   0  0  1  0  0  3  0  0  0  0  0  0
  178.3980  180.3180  140.3600 C   0  0  0  0  0  0  0  0  0  0  0  0
  177.7510  181.0580  141.1550 O   0  0  0  0  0  0  0  0  0  0  0  0
  178.6930  180.7580  139.0680 O   0  0  0  0  0  0  0  0  0  0  0  0
  179.1880  182.0620  138.8130 C   0  0  0  0  0  1  0  0  0  0  0  0
  177.9310  177.8490  140.3570 C   0  0  0  0  0  2  0  0  0  0  0  0
  178.6480  176.8290  139.7240 O   0  0  0  0  0  0  0  0  0  0  0  0
  177.9700  176.6160  138.5170 C   0  0  0  0  0  2  0  0  0  0  0  0
  177.6960  173.5980  135.6750 C   0  0  0  0  0  1  0  0  0  0  0  0
  178.8300  174.5850  135.4510 C   0  0  1  0  0  3  0  0  0  0  0  0
  180.6980  174.7160  136.7600 C   0  0  0  0  0  3  0  0  0  0  0  0
  179.8540  175.8950  137.1120 C   0  0  2  0  0  3  0  0  0  0  0  0
  178.5710  175.4780  137.6900 C   0  0  2  0  0  3  0  0  0  0  0  0
  178.6510  175.8140  136.2450 N   0  0  2  0  0  0  0  0  0  0  0  0
  180.1370  173.9850  135.8170 C   0  0  0  0  0  3  0  0  0  0  0  0
  3  5  1  0  0  0  0
  5  1  1  0  0  0  0
  6  3  1  6  0  0  0
  6  7  1  0  0  0  0
  7  1  1  0  0  0  0
  7  4  1  0  0  0  0
  7  2  1  1  0  0  0
  8 13  1  6  0  0  0
  8 12  1  0  0  0  0
  8  9  1  0  0  0  0
 10 11  1  0  0  0  0
 11  9  1  6  0  0  0
 11  6  1  0  0  0  0
 12 21  1  1  0  0  0
 12 10  1  0  0  0  0
 14 13  2  0  0  0  0
 15 16  1  0  0  0  0
 15 13  1  0  0  0  0
 16 19  1  0  0  0  0
 16 17  2  0  0  0  0
 18 19  2  0  0  0  0
 19 20  1  0  0  0  0
 21 22  1  0  0  0  0
 22 23  1  0  0  0  0
 23 28  1  0  0  0  0
 24 31  1  6  0  0  0
 24 26  1  0  0  0  0
 27 30  2  0  0  0  0
 28 26  1  0  0  0  0
 29 25  1  1  0  0  0
 29 24  1  0  0  0  0
 30 29  1  0  0  0  0
 30 23  1  0  0  0  0
 31 32  1  0  0  0  0
 33 34  2  0  0  0  0
 34 35  1  0  0  0  0
 35  5  1  0  0  0  0
 36 34  1  0  0  0  0
 37 36  1  0  0  0  0
 39 37  1  0  0  0  0
 39 38  2  0  0  0  0
 40 41  1  0  0  0  0
 40 39  1  0  0  0  0
 41 46  1  6  0  0  0
 42 41  1  0  0  0  0
 42 43  2  0  0  0  0
 44 42  1  0  0  0  0
 45 44  1  0  0  0  0
 47 46  1  0  0  0  0
 48 47  1  0  0  0  0
 50 49  1  1  0  0  0
 50 55  1  0  0  0  0
 50 54  1  0  0  0  0
 52 51  1  6  0  0  0
 52 53  1  0  0  0  0
 53 48  1  1  0  0  0
 54 52  1  0  0  0  0
 54 53  1  0  0  0  0
 55 51  2  0  0  0  0
M  END
>  <MODEL>
7

>  <REMARK>
 VINA RESULT:      -5.4      4.331      6.619
  Name = 
  21 active torsions:
  status: ('A' for Active; 'I' for Inactive)
    1  A    between atoms: C_1  and  C_2
    2  A    between atoms: C_1  and  O_8
    3  A    between atoms: N_3  and  C_29
    4  A    between atoms: C_4  and  C_6
    5  A    between atoms: O_8  and  C_24
    6  A    between atoms: C_9  and  C_24
    7  A    between atoms: C_11  and  C_46
    8  A    between atoms: C_12  and  C_26
    9  A    between atoms: C_12  and  C_53
   10  A    between atoms: C_15  and  C_16
   11  A    between atoms: C_15  and  C_25
   12  A    between atoms: C_15  and  C_37
   13  A    between atoms: C_16  and  C_51
   14  A    between atoms: C_25  and  O_33
   15  A    between atoms: C_26  and  C_51
   16  A    between atoms: C_27  and  C_29
   17  A    between atoms: C_27  and  C_49
   18  A    between atoms: C_31  and  C_47
   19  A    between atoms: N_36  and  N_54
   20  A    between atoms: C_37  and  O_41
   21  A    between atoms: O_41  and  C_47
                            x       y       z     vdW  Elec       q    Type
                         _______ _______ _______ _____ _____    ______ ____

>  <TORSDO>
F 21

$$$$
=
 OpenBabel11062421323D

 55 59  0  0  1  0  0  0  0  0999 V2000
  190.9790  176.4640  146.8500 S   0  0  0  0  0  0  0  0  0  0  0  0
  188.3760  175.7050  147.1510 C   0  0  0  0  0  1  0  0  0  0  0  0
  191.0810  174.7650  144.8840 C   0  0  0  0  0  2  0  0  0  0  0  0
  188.9220  177.2780  145.4470 O   0  0  0  0  0  1  0  0  0  0  0  0
  191.8060  175.9330  145.3760 N   0  0  0  0  0  0  0  0  0  0  0  0
  189.5890  174.9680  145.1100 C   0  0  1  0  0  3  0  0  0  0  0  0
  189.3730  176.1220  146.0890 C   0  0  1  0  0  0  0  0  0  0  0  0
  187.2270  176.0720  142.1320 C   0  0  2  0  0  3  0  0  0  0  0  0
  187.2560  176.0560  143.9450 S   0  0  0  0  0  0  0  0  0  0  0  0
  189.5660  175.5570  142.7170 N   0  0  0  0  0  2  0  0  0  0  0  0
  188.7600  175.0570  143.8190 C   0  0  1  0  0  3  0  0  0  0  0  0
  188.6570  175.8820  141.6270 C   0  0  1  0  0  3  0  0  0  0  0  0
  186.6660  177.3520  141.6030 C   0  0  0  0  0  0  0  0  0  0  0  0
  186.5910  177.5170  140.3520 O   0  0  0  0  0  0  0  0  0  0  0  0
  186.3100  178.3750  142.4870 O   0  0  0  0  0  0  0  0  0  0  0  0
  185.0050  178.6230  142.9280 C   0  0  0  0  0  0  0  0  0  0  0  0
  184.0100  178.1520  142.3090 O   0  0  0  0  0  0  0  0  0  0  0  0
  185.5140  180.3430  144.4680 O   0  0  0  0  0  0  0  0  0  0  0  0
  184.7940  179.3400  144.1890 C   0  0  0  0  0  0  0  0  0  0  0  0
  183.7390  178.9960  145.0340 O   0  0  0  0  0  1  0  0  0  0  0  0
  188.7500  174.8510  140.5060 C   0  0  0  0  0  2  0  0  0  0  0  0
  188.1900  173.4920  140.9330 C   0  0  0  0  0  2  0  0  0  0  0  0
  189.1070  172.4210  140.5600 N   0  0  0  0  0  0  0  0  0  0  0  0
  191.2250  170.7230  139.5440 C   0  0  2  0  0  3  0  0  0  0  0  0
  190.8790  169.5230  141.7100 C   0  0  0  0  0  1  0  0  0  0  0  0
  190.6810  171.9210  138.7790 C   0  0  0  0  0  2  0  0  0  0  0  0
  189.9360  172.1450  142.7360 O   0  0  0  0  0  0  0  0  0  0  0  0
  189.2190  172.0930  139.1460 C   0  0  0  0  0  2  0  0  0  0  0  0
  191.1010  170.8830  141.0730 C   0  0  2  0  0  3  0  0  0  0  0  0
  190.0110  171.8320  141.5170 C   0  0  0  0  0  0  0  0  0  0  0  0
  192.6770  170.5130  139.1550 C   0  0  0  0  0  2  0  0  0  0  0  0
  192.7650  169.8980  137.7720 C   0  0  0  0  0  1  0  0  0  0  0  0
  194.0630  176.1420  143.7690 O   0  0  0  0  0  0  0  0  0  0  0  0
  194.1970  175.5960  144.8980 C   0  0  0  0  0  0  0  0  0  0  0  0
  193.0730  175.4870  145.7700 N   0  0  0  0  0  2  0  0  0  0  0  0
  195.5440  175.1550  145.3780 C   0  0  0  0  0  2  0  0  0  0  0  0
  196.0860  174.0040  144.5380 C   0  0  0  0  0  2  0  0  0  0  0  0
  197.5720  175.5830  143.6440 O   0  0  0  0  0  0  0  0  0  0  0  0
  196.9700  174.5370  143.4470 C   0  0  0  0  0  0  0  0  0  0  0  0
  197.1260  173.8450  142.1160 C   0  0  0  0  0  2  0  0  0  0  0  0
  195.8350  173.8370  141.2960 C   0  0  1  0  0  3  0  0  0  0  0  0
  195.9480  174.6210  140.0170 C   0  0  0  0  0  0  0  0  0  0  0  0
  195.1700  175.5980  139.8240 O   0  0  0  0  0  0  0  0  0  0  0  0
  196.9090  174.2840  139.0610 O   0  0  0  0  0  0  0  0  0  0  0  0
  197.5610  175.2670  138.2740 C   0  0  0  0  0  1  0  0  0  0  0  0
  195.3410  172.4140  141.0530 C   0  0  0  0  0  2  0  0  0  0  0  0
  196.4090  171.5240  140.9100 O   0  0  0  0  0  0  0  0  0  0  0  0
  196.0320  170.3960  141.6510 C   0  0  0  0  0  2  0  0  0  0  0  0
  193.0970  171.8550  144.2040 C   0  0  0  0  0  1  0  0  0  0  0  0
  193.6430  170.4860  144.5750 C   0  0  1  0  0  3  0  0  0  0  0  0
  195.7450  170.1180  145.3900 C   0  0  0  0  0  3  0  0  0  0  0  0
  195.7540  169.6440  143.9750 C   0  0  2  0  0  3  0  0  0  0  0  0
  195.5030  170.7490  143.0430 C   0  0  2  0  0  3  0  0  0  0  0  0
  194.3800  169.8680  143.4580 N   0  0  2  0  0  0  0  0  0  0  0  0
  194.5590  170.5770  145.7390 C   0  0  0  0  0  3  0  0  0  0  0  0
  3  5  1  0  0  0  0
  4  7  1  0  0  0  0
  5 35  1  0  0  0  0
  5  1  1  0  0  0  0
  6  3  1  6  0  0  0
  6  7  1  0  0  0  0
  7  1  1  0  0  0  0
  7  2  1  1  0  0  0
  8 13  1  1  0  0  0
  8  9  1  0  0  0  0
 11 10  1  6  0  0  0
 11  9  1  0  0  0  0
 11  6  1  0  0  0  0
 12 21  1  6  0  0  0
 12  8  1  0  0  0  0
 12 10  1  0  0  0  0
 13 15  1  0  0  0  0
 14 13  2  0  0  0  0
 15 16  1  0  0  0  0
 16 19  1  0  0  0  0
 17 16  2  0  0  0  0
 19 18  2  0  0  0  0
 19 20  1  0  0  0  0
 21 22  1  0  0  0  0
 23 22  1  0  0  0  0
 23 30  1  0  0  0  0
 24 31  1  1  0  0  0
 24 29  1  0  0  0  0
 26 28  1  0  0  0  0
 26 24  1  0  0  0  0
 28 23  1  0  0  0  0
 29 30  1  0  0  0  0
 29 25  1  1  0  0  0
 30 27  2  0  0  0  0
 32 31  1  0  0  0  0
 33 34  2  0  0  0  0
 34 36  1  0  0  0  0
 34 35  1  0  0  0  0
 37 36  1  0  0  0  0
 39 38  2  0  0  0  0
 39 37  1  0  0  0  0
 40 39  1  0  0  0  0
 41 46  1  6  0  0  0
 41 40  1  0  0  0  0
 42 41  1  0  0  0  0
 43 42  2  0  0  0  0
 44 42  1  0  0  0  0
 45 44  1  0  0  0  0
 47 46  1  0  0  0  0
 47 48  1  0  0  0  0
 50 49  1  6  0  0  0
 50 55  1  0  0  0  0
 51 55  2  0  0  0  0
 52 51  1  1  0  0  0
 53 48  1  6  0  0  0
 53 54  1  0  0  0  0
 53 52  1  0  0  0  0
 54 52  1  0  0  0  0
 54 50  1  0  0  0  0
M  END
>  <MODEL>
8

>  <REMARK>
 VINA RESULT:      -5.3      2.214      8.726
  Name = 
  21 active torsions:
  status: ('A' for Active; 'I' for Inactive)
    1  A    between atoms: C_1  and  C_2
    2  A    between atoms: C_1  and  O_8
    3  A    between atoms: N_3  and  C_29
    4  A    between atoms: C_4  and  C_6
    5  A    between atoms: O_8  and  C_24
    6  A    between atoms: C_9  and  C_24
    7  A    between atoms: C_11  and  C_46
    8  A    between atoms: C_12  and  C_26
    9  A    between atoms: C_12  and  C_53
   10  A    between atoms: C_15  and  C_16
   11  A    between atoms: C_15  and  C_25
   12  A    between atoms: C_15  and  C_37
   13  A    between atoms: C_16  and  C_51
   14  A    between atoms: C_25  and  O_33
   15  A    between atoms: C_26  and  C_51
   16  A    between atoms: C_27  and  C_29
   17  A    between atoms: C_27  and  C_49
   18  A    between atoms: C_31  and  C_47
   19  A    between atoms: N_36  and  N_54
   20  A    between atoms: C_37  and  O_41
   21  A    between atoms: O_41  and  C_47
                            x       y       z     vdW  Elec       q    Type
                         _______ _______ _______ _____ _____    ______ ____

>  <TORSDO>
F 21

$$$$
=
 OpenBabel11062421323D

 55 59  0  0  1  0  0  0  0  0999 V2000
  196.5360  175.9050  143.7470 S   0  0  0  0  0  0  0  0  0  0  0  0
  195.1880  174.6740  145.7750 C   0  0  0  0  0  1  0  0  0  0  0  0
  194.4410  175.4320  142.2810 C   0  0  0  0  0  2  0  0  0  0  0  0
  194.6770  176.9460  145.2720 O   0  0  0  0  0  1  0  0  0  0  0  0
  195.6070  176.3110  142.2950 N   0  0  0  0  0  0  0  0  0  0  0  0
  193.9350  175.2460  143.7060 C   0  0  1  0  0  3  0  0  0  0  0  0
  195.0030  175.7180  144.6920 C   0  0  1  0  0  0  0  0  0  0  0  0
  190.3610  176.9210  143.4080 C   0  0  2  0  0  3  0  0  0  0  0  0
  192.0790  177.2200  142.9070 S   0  0  0  0  0  0  0  0  0  0  0  0
  191.5170  174.7840  143.8230 N   0  0  0  0  0  2  0  0  0  0  0  0
  192.5310  175.8170  143.9570 C   0  0  1  0  0  3  0  0  0  0  0  0
  190.2230  175.4480  143.7890 C   0  0  1  0  0  3  0  0  0  0  0  0
  189.4030  177.2580  142.3130 C   0  0  0  0  0  0  0  0  0  0  0  0
  189.2820  178.4640  141.9540 O   0  0  0  0  0  0  0  0  0  0  0  0
  188.5990  176.2570  141.7600 O   0  0  0  0  0  0  0  0  0  0  0  0
  187.2160  176.3640  141.5740 C   0  0  0  0  0  0  0  0  0  0  0  0
  186.4080  175.8750  142.4130 O   0  0  0  0  0  0  0  0  0  0  0  0
  186.9790  176.8170  139.2660 O   0  0  0  0  0  0  0  0  0  0  0  0
  186.6970  177.1540  140.4540 C   0  0  0  0  0  0  0  0  0  0  0  0
  185.8090  178.2060  140.6770 O   0  0  0  0  0  1  0  0  0  0  0  0
  189.4660  175.2500  145.0990 C   0  0  0  0  0  2  0  0  0  0  0  0
  189.6440  176.4400  146.0450 C   0  0  0  0  0  2  0  0  0  0  0  0
  188.3790  177.1410  146.2290 N   0  0  0  0  0  0  0  0  0  0  0  0
  185.7720  178.3920  146.0300 C   0  0  2  0  0  3  0  0  0  0  0  0
  185.5710  177.6350  148.4040 C   0  0  0  0  0  1  0  0  0  0  0  0
  186.7640  178.3510  144.8770 C   0  0  0  0  0  2  0  0  0  0  0  0
  187.4760  175.4930  147.6310 O   0  0  0  0  0  0  0  0  0  0  0  0
  188.1660  178.3580  145.4580 C   0  0  0  0  0  2  0  0  0  0  0  0
  185.9260  177.1980  146.9940 C   0  0  2  0  0  3  0  0  0  0  0  0
  187.2990  176.5660  146.9930 C   0  0  0  0  0  0  0  0  0  0  0  0
  184.3640  178.4280  145.4620 C   0  0  0  0  0  2  0  0  0  0  0  0
  184.4050  178.2970  143.9520 C   0  0  0  0  0  1  0  0  0  0  0  0
  196.6220  173.7490  141.9300 O   0  0  0  0  0  0  0  0  0  0  0  0
  196.9170  174.6250  141.0700 C   0  0  0  0  0  0  0  0  0  0  0  0
  196.4010  175.9470  141.2000 N   0  0  0  0  0  2  0  0  0  0  0  0
  197.7180  174.2640  139.8590 C   0  0  0  0  0  2  0  0  0  0  0  0
  197.9320  175.4700  138.9520 C   0  0  0  0  0  2  0  0  0  0  0  0
  197.6500  175.7900  136.6450 O   0  0  0  0  0  0  0  0  0  0  0  0
  197.1960  175.2740  137.6560 C   0  0  0  0  0  0  0  0  0  0  0  0
  195.9140  174.4870  137.5610 C   0  0  0  0  0  2  0  0  0  0  0  0
  194.6670  175.3670  137.6610 C   0  0  1  0  0  3  0  0  0  0  0  0
  193.9920  175.5820  136.3340 C   0  0  0  0  0  0  0  0  0  0  0  0
  193.2330  174.6810  135.8780 O   0  0  0  0  0  0  0  0  0  0  0  0
  194.1890  176.7670  135.6220 O   0  0  0  0  0  0  0  0  0  0  0  0
  195.1530  176.8700  134.5880 C   0  0  0  0  0  1  0  0  0  0  0  0
  193.6990  174.8400  138.7170 C   0  0  0  0  0  2  0  0  0  0  0  0
  193.6320  173.4440  138.6920 O   0  0  0  0  0  0  0  0  0  0  0  0
  192.2830  173.1510  138.9220 C   0  0  0  0  0  2  0  0  0  0  0  0
  189.7440  171.8640  141.9490 C   0  0  0  0  0  1  0  0  0  0  0  0
  191.0270  171.0600  141.8070 C   0  0  1  0  0  3  0  0  0  0  0  0
  193.1020  171.8450  142.3520 C   0  0  0  0  0  3  0  0  0  0  0  0
  193.0330  171.8390  140.8610 C   0  0  2  0  0  3  0  0  0  0  0  0
  191.9980  172.7570  140.3730 C   0  0  2  0  0  3  0  0  0  0  0  0
  191.6900  171.3100  140.5140 N   0  0  2  0  0  0  0  0  0  0  0  0
  191.9850  171.3940  142.8890 C   0  0  0  0  0  3  0  0  0  0  0  0
  1  7  1  0  0  0  0
  3  5  1  0  0  0  0
  5  1  1  0  0  0  0
  6  3  1  6  0  0  0
  6 11  1  0  0  0  0
  6  7  1  0  0  0  0
  7  4  1  0  0  0  0
  7  2  1  1  0  0  0
  8 13  1  6  0  0  0
  8 12  1  0  0  0  0
  9  8  1  0  0  0  0
 10 11  1  0  0  0  0
 11  9  1  6  0  0  0
 12 10  1  0  0  0  0
 12 21  1  1  0  0  0
 14 13  2  0  0  0  0
 15 13  1  0  0  0  0
 16 15  1  0  0  0  0
 16 17  2  0  0  0  0
 18 19  2  0  0  0  0
 19 20  1  0  0  0  0
 19 16  1  0  0  0  0
 21 22  1  0  0  0  0
 22 23  1  0  0  0  0
 23 30  1  0  0  0  0
 24 31  1  6  0  0  0
 24 29  1  0  0  0  0
 26 28  1  0  0  0  0
 26 24  1  0  0  0  0
 28 23  1  0  0  0  0
 29 25  1  1  0  0  0
 30 29  1  0  0  0  0
 30 27  2  0  0  0  0
 32 31  1  0  0  0  0
 34 35  1  0  0  0  0
 34 33  2  0  0  0  0
 35  5  1  0  0  0  0
 36 34  1  0  0  0  0
 37 36  1  0  0  0  0
 38 39  2  0  0  0  0
 39 37  1  0  0  0  0
 40 39  1  0  0  0  0
 41 40  1  6  0  0  0
 41 46  1  0  0  0  0
 42 41  1  0  0  0  0
 43 42  2  0  0  0  0
 44 42  1  0  0  0  0
 45 44  1  0  0  0  0
 47 46  1  0  0  0  0
 47 48  1  0  0  0  0
 50 49  1  1  0  0  0
 50 55  1  0  0  0  0
 51 55  2  0  0  0  0
 52 51  1  1  0  0  0
 53 48  1  6  0  0  0
 53 54  1  0  0  0  0
 53 52  1  0  0  0  0
 54 52  1  0  0  0  0
 54 50  1  0  0  0  0
M  END
>  <MODEL>
9

>  <REMARK>
 VINA RESULT:      -5.1      2.675      9.062
  Name = 
  21 active torsions:
  status: ('A' for Active; 'I' for Inactive)
    1  A    between atoms: C_1  and  C_2
    2  A    between atoms: C_1  and  O_8
    3  A    between atoms: N_3  and  C_29
    4  A    between atoms: C_4  and  C_6
    5  A    between atoms: O_8  and  C_24
    6  A    between atoms: C_9  and  C_24
    7  A    between atoms: C_11  and  C_46
    8  A    between atoms: C_12  and  C_26
    9  A    between atoms: C_12  and  C_53
   10  A    between atoms: C_15  and  C_16
   11  A    between atoms: C_15  and  C_25
   12  A    between atoms: C_15  and  C_37
   13  A    between atoms: C_16  and  C_51
   14  A    between atoms: C_25  and  O_33
   15  A    between atoms: C_26  and  C_51
   16  A    between atoms: C_27  and  C_29
   17  A    between atoms: C_27  and  C_49
   18  A    between atoms: C_31  and  C_47
   19  A    between atoms: N_36  and  N_54
   20  A    between atoms: C_37  and  O_41
   21  A    between atoms: O_41  and  C_47
                            x       y       z     vdW  Elec       q    Type
                         _______ _______ _______ _____ _____    ______ ____

>  <TORSDO>
F 21

$$$$
