=
 OpenBabel11062418543D

 33 34  0  0  1  0  0  0  0  0999 V2000
  187.7410  176.4670  146.0760 C   0  0  0  0  0  3  0  0  0  0  0  0
  189.3760  175.7280  144.4230 C   0  0  0  0  0  0  0  0  0  0  0  0
  189.3770  174.8040  146.6800 C   0  0  0  0  0  3  0  0  0  0  0  0
  189.9200  174.8450  145.3920 C   0  0  0  0  0  0  0  0  0  0  0  0
  188.2870  175.6020  147.0190 C   0  0  0  0  0  3  0  0  0  0  0  0
  188.2810  176.5570  144.7890 C   0  0  0  0  0  0  0  0  0  0  0  0
  191.0610  173.9510  145.1050 C   0  0  0  0  0  0  0  0  0  0  0  0
  190.8310  172.7800  144.6990 O   0  0  0  0  0  0  0  0  0  0  0  0
  194.8730  174.0140  144.8230 C   0  0  0  0  0  0  0  0  0  0  0  0
  195.8160  173.2130  144.5890 O   0  0  0  0  0  0  0  0  0  0  0  0
  192.7280  175.5760  145.7300 N   0  0  0  0  0  0  0  0  0  0  0  0
  192.4590  174.4090  145.2240 C   0  0  0  0  0  0  0  0  0  0  0  0
  195.1580  175.4640  145.0820 C   0  0  2  0  0  3  0  0  0  0  0  0
  193.5230  173.5540  144.7940 N   0  0  0  0  0  2  0  0  0  0  0  0
  194.0480  176.0560  145.8310 N   0  0  0  0  0  2  0  0  0  0  0  0
  194.4670  176.0610  142.7140 N   0  0  0  0  0  2  0  0  0  0  0  0
  196.5300  176.7590  143.5660 N   0  0  0  0  0  1  0  0  0  0  0  0
  195.3800  176.2170  143.7970 C   0  0  0  0  0  0  0  0  0  0  0  0
  189.9890  175.7680  143.0730 C   0  0  0  0  0  3  0  0  0  0  0  0
  190.8880  176.5870  142.7500 O   0  0  0  0  0  0  0  0  0  0  0  0
  187.6560  177.5450  143.8460 C   0  0  0  0  0  2  0  0  0  0  0  0
  185.8280  176.0590  143.8610 F   0  0  0  0  0  0  0  0  0  0  0  0
  186.4550  176.9960  143.0550 C   0  0  0  0  0  0  0  0  0  0  0  0
  186.8930  176.3270  141.9230 F   0  0  0  0  0  0  0  0  0  0  0  0
  184.1320  177.6130  142.8540 F   0  0  0  0  0  0  0  0  0  0  0  0
  185.4250  178.0950  142.6630 C   0  0  2  0  0  0  0  0  0  0  0  0
  184.4440  178.2970  140.5780 C   0  0  0  0  0  1  0  0  0  0  0  0
  185.6130  178.5210  141.3250 O   0  0  0  0  0  0  0  0  0  0  0  0
  185.5980  179.3380  143.5460 C   0  0  0  0  0  2  0  0  0  0  0  0
  184.4830  179.4990  144.5710 C   0  0  0  0  0  2  0  0  0  0  0  0
  184.2660  177.6640  146.2430 O   0  0  0  0  0  0  0  0  0  0  0  0
  185.7420  179.3850  146.5870 O   0  0  0  0  0  1  0  0  0  0  0  0
  184.8760  178.8490  145.8500 C   0  0  0  0  0  0  0  0  0  0  0  0
  1  5  1  0  0  0  0
  2  6  1  0  0  0  0
  2  4  2  0  0  0  0
  3  5  2  0  0  0  0
  4  3  1  0  0  0  0
  6  1  2  0  0  0  0
  7 12  1  0  0  0  0
  7  4  1  0  0  0  0
  8  7  2  0  0  0  0
  9 13  1  0  0  0  0
 10  9  2  0  0  0  0
 11 15  1  0  0  0  0
 12 11  2  0  0  0  0
 13 18  1  6  0  0  0
 13 15  1  0  0  0  0
 14  9  1  0  0  0  0
 14 12  1  0  0  0  0
 16 18  2  0  0  0  0
 17 18  1  0  0  0  0
 19  2  1  0  0  0  0
 20 19  2  0  0  0  0
 21  6  1  0  0  0  0
 23 21  1  0  0  0  0
 23 22  1  0  0  0  0
 24 23  1  0  0  0  0
 26 25  1  1  0  0  0
 26 23  1  0  0  0  0
 26 29  1  0  0  0  0
 27 28  1  0  0  0  0
 28 26  1  0  0  0  0
 29 30  1  0  0  0  0
 30 33  1  0  0  0  0
 33 31  2  0  0  0  0
 33 32  1  0  0  0  0
M  END
>  <MODEL>
1

>  <REMARK>
 VINA RESULT:      -7.1      0.000      0.000
  Name = 
  11 active torsions:
  status: ('A' for Active; 'I' for Inactive)
    1  A    between atoms: C_5  and  C_25
    2  A    between atoms: C_9  and  C_14
    3  A    between atoms: C_9  and  C_28
    4  A    between atoms: C_11  and  C_19
    5  A    between atoms: C_11  and  C_32
    6  A    between atoms: C_14  and  C_33
    7  A    between atoms: C_15  and  C_22
    8  A    between atoms: C_18  and  C_24
    9  A    between atoms: C_19  and  C_28
   10  A    between atoms: O_21  and  C_28
   11  A    between atoms: C_23  and  C_24
                            x       y       z     vdW  Elec       q    Type
                         _______ _______ _______ _____ _____    ______ ____

>  <TORSDO>
F 11

$$$$
=
 OpenBabel11062418543D

 33 34  0  0  1  0  0  0  0  0999 V2000
  187.8390  176.5130  146.1090 C   0  0  0  0  0  3  0  0  0  0  0  0
  189.1370  175.4160  144.3580 C   0  0  0  0  0  0  0  0  0  0  0  0
  189.2690  174.6560  146.6720 C   0  0  0  0  0  3  0  0  0  0  0  0
  189.6550  174.5250  145.3340 C   0  0  0  0  0  0  0  0  0  0  0  0
  188.3590  175.6370  147.0570 C   0  0  0  0  0  3  0  0  0  0  0  0
  188.2290  176.4300  144.7690 C   0  0  0  0  0  0  0  0  0  0  0  0
  190.6070  173.4450  145.0020 C   0  0  0  0  0  0  0  0  0  0  0  0
  190.1610  172.2880  144.7750 O   0  0  0  0  0  0  0  0  0  0  0  0
  194.1240  174.7450  145.7470 C   0  0  0  0  0  0  0  0  0  0  0  0
  194.6760  175.6140  146.4720 O   0  0  0  0  0  0  0  0  0  0  0  0
  192.7330  173.1540  143.9030 N   0  0  0  0  0  0  0  0  0  0  0  0
  192.0550  173.6970  144.8720 C   0  0  0  0  0  0  0  0  0  0  0  0
  194.9510  173.8660  144.8560 C   0  0  2  0  0  3  0  0  0  0  0  0
  192.7110  174.5580  145.8080 N   0  0  0  0  0  2  0  0  0  0  0  0
  194.1200  173.3500  143.7670 N   0  0  0  0  0  2  0  0  0  0  0  0
  196.9190  172.8130  146.0640 N   0  0  0  0  0  1  0  0  0  0  0  0
  194.9840  171.5740  145.6310 N   0  0  0  0  0  2  0  0  0  0  0  0
  195.5660  172.7270  145.6260 C   0  0  0  0  0  0  0  0  0  0  0  0
  189.5840  175.2690  142.9520 C   0  0  0  0  0  3  0  0  0  0  0  0
  190.5500  175.9130  142.4660 O   0  0  0  0  0  0  0  0  0  0  0  0
  187.6510  177.4400  143.8190 C   0  0  0  0  0  2  0  0  0  0  0  0
  185.7530  176.0480  143.8960 F   0  0  0  0  0  0  0  0  0  0  0  0
  186.3910  176.9620  143.0740 C   0  0  0  0  0  0  0  0  0  0  0  0
  186.7460  176.2870  141.9170 F   0  0  0  0  0  0  0  0  0  0  0  0
  184.0920  177.6660  142.8820 F   0  0  0  0  0  0  0  0  0  0  0  0
  185.4030  178.1170  142.7390 C   0  0  2  0  0  0  0  0  0  0  0  0
  184.5180  178.3400  140.6140 C   0  0  0  0  0  1  0  0  0  0  0  0
  185.6250  178.6200  141.4330 O   0  0  0  0  0  0  0  0  0  0  0  0
  185.6010  179.2960  143.7010 C   0  0  0  0  0  2  0  0  0  0  0  0
  184.4870  179.4170  144.7310 C   0  0  0  0  0  2  0  0  0  0  0  0
  184.4100  177.5090  146.3320 O   0  0  0  0  0  0  0  0  0  0  0  0
  185.6780  179.3640  146.7910 O   0  0  0  0  0  1  0  0  0  0  0  0
  184.9010  178.7660  146.0030 C   0  0  0  0  0  0  0  0  0  0  0  0
  1  5  1  0  0  0  0
  2  6  1  0  0  0  0
  2  4  2  0  0  0  0
  3  5  2  0  0  0  0
  4  3  1  0  0  0  0
  6  1  2  0  0  0  0
  7  4  1  0  0  0  0
  8  7  2  0  0  0  0
  9 14  1  0  0  0  0
  9 10  2  0  0  0  0
 11 12  2  0  0  0  0
 12  7  1  0  0  0  0
 12 14  1  0  0  0  0
 13 18  1  1  0  0  0
 13  9  1  0  0  0  0
 15 11  1  0  0  0  0
 15 13  1  0  0  0  0
 18 17  2  0  0  0  0
 18 16  1  0  0  0  0
 19  2  1  0  0  0  0
 20 19  2  0  0  0  0
 21  6  1  0  0  0  0
 23 21  1  0  0  0  0
 23 22  1  0  0  0  0
 24 23  1  0  0  0  0
 26 25  1  1  0  0  0
 26 23  1  0  0  0  0
 26 29  1  0  0  0  0
 27 28  1  0  0  0  0
 28 26  1  0  0  0  0
 29 30  1  0  0  0  0
 30 33  1  0  0  0  0
 33 31  2  0  0  0  0
 33 32  1  0  0  0  0
M  END
>  <MODEL>
2

>  <REMARK>
 VINA RESULT:      -7.1      1.300      1.901
  Name = 
  11 active torsions:
  status: ('A' for Active; 'I' for Inactive)
    1  A    between atoms: C_5  and  C_25
    2  A    between atoms: C_9  and  C_14
    3  A    between atoms: C_9  and  C_28
    4  A    between atoms: C_11  and  C_19
    5  A    between atoms: C_11  and  C_32
    6  A    between atoms: C_14  and  C_33
    7  A    between atoms: C_15  and  C_22
    8  A    between atoms: C_18  and  C_24
    9  A    between atoms: C_19  and  C_28
   10  A    between atoms: O_21  and  C_28
   11  A    between atoms: C_23  and  C_24
                            x       y       z     vdW  Elec       q    Type
                         _______ _______ _______ _____ _____    ______ ____

>  <TORSDO>
F 11

$$$$
=
 OpenBabel11062418543D

 33 34  0  0  1  0  0  0  0  0999 V2000
  189.8460  177.8780  144.4330 C   0  0  0  0  0  3  0  0  0  0  0  0
  191.1290  176.8340  146.2270 C   0  0  0  0  0  0  0  0  0  0  0  0
  192.1250  177.2070  144.0320 C   0  0  0  0  0  3  0  0  0  0  0  0
  192.2390  176.7450  145.3480 C   0  0  0  0  0  0  0  0  0  0  0  0
  190.9400  177.7800  143.5790 C   0  0  0  0  0  3  0  0  0  0  0  0
  189.9150  177.3970  145.7440 C   0  0  0  0  0  0  0  0  0  0  0  0
  193.5370  176.1720  145.7590 C   0  0  0  0  0  0  0  0  0  0  0  0
  194.2760  176.8330  146.5380 O   0  0  0  0  0  0  0  0  0  0  0  0
  195.3840  173.4010  143.8810 C   0  0  0  0  0  0  0  0  0  0  0  0
  196.0830  173.2690  142.8420 O   0  0  0  0  0  0  0  0  0  0  0  0
  193.4880  173.7670  145.9150 N   0  0  0  0  0  0  0  0  0  0  0  0
  193.9650  174.8260  145.3300 C   0  0  0  0  0  0  0  0  0  0  0  0
  195.1040  172.2200  144.7620 C   0  0  2  0  0  3  0  0  0  0  0  0
  194.8960  174.6890  144.2520 N   0  0  0  0  0  2  0  0  0  0  0  0
  193.8960  172.4700  145.5500 N   0  0  0  0  0  2  0  0  0  0  0  0
  196.4390  170.6160  146.2050 N   0  0  0  0  0  1  0  0  0  0  0  0
  196.9260  172.9030  146.2010 N   0  0  0  0  0  2  0  0  0  0  0  0
  196.2680  171.9250  145.6710 C   0  0  0  0  0  0  0  0  0  0  0  0
  191.2710  176.3140  147.6080 C   0  0  0  0  0  3  0  0  0  0  0  0
  191.4950  177.0540  148.6020 O   0  0  0  0  0  0  0  0  0  0  0  0
  188.6760  177.5060  146.5860 C   0  0  0  0  0  2  0  0  0  0  0  0
  187.1310  175.9280  147.4060 F   0  0  0  0  0  0  0  0  0  0  0  0
  187.5710  176.4970  146.2220 C   0  0  0  0  0  0  0  0  0  0  0  0
  188.0940  175.4710  145.4510 F   0  0  0  0  0  0  0  0  0  0  0  0
  186.5280  178.5340  145.4620 F   0  0  0  0  0  0  0  0  0  0  0  0
  186.3600  177.1510  145.4940 C   0  0  2  0  0  0  0  0  0  0  0  0
  184.4450  177.9640  146.5030 C   0  0  0  0  0  1  0  0  0  0  0  0
  185.1370  176.8040  146.1180 O   0  0  0  0  0  0  0  0  0  0  0  0
  186.2690  176.6560  144.0450 C   0  0  0  0  0  2  0  0  0  0  0  0
  186.3870  177.7780  143.0230 C   0  0  0  0  0  2  0  0  0  0  0  0
  185.0750  178.0390  140.9200 O   0  0  0  0  0  0  0  0  0  0  0  0
  184.0220  178.0310  142.9570 O   0  0  0  0  0  1  0  0  0  0  0  0
  185.0950  177.9470  142.3060 C   0  0  0  0  0  0  0  0  0  0  0  0
  1  6  1  0  0  0  0
  2 19  1  0  0  0  0
  3  4  2  0  0  0  0
  4  7  1  0  0  0  0
  4  2  1  0  0  0  0
  5  3  1  0  0  0  0
  5  1  2  0  0  0  0
  6  2  2  0  0  0  0
  6 21  1  0  0  0  0
  7  8  2  0  0  0  0
  9 14  1  0  0  0  0
  9 13  1  0  0  0  0
 10  9  2  0  0  0  0
 12  7  1  0  0  0  0
 12 11  2  0  0  0  0
 13 15  1  0  0  0  0
 13 18  1  1  0  0  0
 14 12  1  0  0  0  0
 15 11  1  0  0  0  0
 18 17  2  0  0  0  0
 18 16  1  0  0  0  0
 19 20  2  0  0  0  0
 23 21  1  0  0  0  0
 23 22  1  0  0  0  0
 24 23  1  0  0  0  0
 26 25  1  1  0  0  0
 26 28  1  0  0  0  0
 26 23  1  0  0  0  0
 28 27  1  0  0  0  0
 29 26  1  0  0  0  0
 30 29  1  0  0  0  0
 31 33  2  0  0  0  0
 33 32  1  0  0  0  0
 33 30  1  0  0  0  0
M  END
>  <MODEL>
3

>  <REMARK>
 VINA RESULT:      -6.9      2.465      3.946
  Name = 
  11 active torsions:
  status: ('A' for Active; 'I' for Inactive)
    1  A    between atoms: C_5  and  C_25
    2  A    between atoms: C_9  and  C_14
    3  A    between atoms: C_9  and  C_28
    4  A    between atoms: C_11  and  C_19
    5  A    between atoms: C_11  and  C_32
    6  A    between atoms: C_14  and  C_33
    7  A    between atoms: C_15  and  C_22
    8  A    between atoms: C_18  and  C_24
    9  A    between atoms: C_19  and  C_28
   10  A    between atoms: O_21  and  C_28
   11  A    between atoms: C_23  and  C_24
                            x       y       z     vdW  Elec       q    Type
                         _______ _______ _______ _____ _____    ______ ____

>  <TORSDO>
F 11

$$$$
=
 OpenBabel11062418543D

 33 34  0  0  1  0  0  0  0  0999 V2000
  188.2840  175.6100  146.9810 C   0  0  0  0  0  3  0  0  0  0  0  0
  189.3520  176.3610  144.9210 C   0  0  0  0  0  0  0  0  0  0  0  0
  190.0650  174.3040  146.0190 C   0  0  0  0  0  3  0  0  0  0  0  0
  190.1880  175.2150  144.9650 C   0  0  0  0  0  0  0  0  0  0  0  0
  189.1130  174.4930  147.0160 C   0  0  0  0  0  3  0  0  0  0  0  0
  188.4020  176.5570  145.9590 C   0  0  0  0  0  0  0  0  0  0  0  0
  191.2070  174.9310  143.9330 C   0  0  0  0  0  0  0  0  0  0  0  0
  190.8960  174.2000  142.9540 O   0  0  0  0  0  0  0  0  0  0  0  0
  194.3120  176.7130  145.2730 C   0  0  0  0  0  0  0  0  0  0  0  0
  194.6360  177.4390  146.2490 O   0  0  0  0  0  0  0  0  0  0  0  0
  193.3510  175.4480  142.9610 N   0  0  0  0  0  0  0  0  0  0  0  0
  192.5560  175.5250  143.9870 C   0  0  0  0  0  0  0  0  0  0  0  0
  195.3310  176.3330  144.2390 C   0  0  2  0  0  3  0  0  0  0  0  0
  192.9820  176.2070  145.1720 N   0  0  0  0  0  2  0  0  0  0  0  0
  194.6540  175.9790  142.9900 N   0  0  0  0  0  2  0  0  0  0  0  0
  197.2900  174.7530  143.9170 N   0  0  0  0  0  2  0  0  0  0  0  0
  195.7640  174.4200  145.6570 N   0  0  0  0  0  1  0  0  0  0  0  0
  196.1890  175.1890  144.7090 C   0  0  0  0  0  0  0  0  0  0  0  0
  189.5210  177.3220  143.8040 C   0  0  0  0  0  3  0  0  0  0  0  0
  190.3490  178.2700  143.8320 O   0  0  0  0  0  0  0  0  0  0  0  0
  187.4950  177.7530  146.0200 C   0  0  0  0  0  2  0  0  0  0  0  0
  185.1990  177.8310  146.5400 F   0  0  0  0  0  0  0  0  0  0  0  0
  186.0640  177.4910  145.5130 C   0  0  0  0  0  0  0  0  0  0  0  0
  185.8860  176.1400  145.2630 F   0  0  0  0  0  0  0  0  0  0  0  0
  186.8360  178.9860  143.7840 F   0  0  0  0  0  0  0  0  0  0  0  0
  185.7010  178.3230  144.2490 C   0  0  2  0  0  0  0  0  0  0  0  0
  183.5410  178.9550  143.7140 C   0  0  0  0  0  1  0  0  0  0  0  0
  184.6560  179.2400  144.5200 O   0  0  0  0  0  0  0  0  0  0  0  0
  185.1990  177.4080  143.1240 C   0  0  0  0  0  2  0  0  0  0  0  0
  186.3040  176.9750  142.1710 C   0  0  0  0  0  2  0  0  0  0  0  0
  185.0140  178.4460  140.6280 O   0  0  0  0  0  1  0  0  0  0  0  0
  186.9030  177.3680  139.9020 O   0  0  0  0  0  0  0  0  0  0  0  0
  186.1020  177.6090  140.8410 C   0  0  0  0  0  0  0  0  0  0  0  0
  1  5  1  0  0  0  0
  2  4  2  0  0  0  0
  2  6  1  0  0  0  0
  3  5  2  0  0  0  0
  4  3  1  0  0  0  0
  6 21  1  0  0  0  0
  6  1  2  0  0  0  0
  7 12  1  0  0  0  0
  7  4  1  0  0  0  0
  8  7  2  0  0  0  0
  9 10  2  0  0  0  0
 11 15  1  0  0  0  0
 11 12  2  0  0  0  0
 12 14  1  0  0  0  0
 13 18  1  1  0  0  0
 13  9  1  0  0  0  0
 14  9  1  0  0  0  0
 15 13  1  0  0  0  0
 16 18  2  0  0  0  0
 18 17  1  0  0  0  0
 19 20  2  0  0  0  0
 19  2  1  0  0  0  0
 23 21  1  0  0  0  0
 23 22  1  0  0  0  0
 24 23  1  0  0  0  0
 26 25  1  6  0  0  0
 26 28  1  0  0  0  0
 26 23  1  0  0  0  0
 27 28  1  0  0  0  0
 29 26  1  0  0  0  0
 30 29  1  0  0  0  0
 31 33  1  0  0  0  0
 32 33  2  0  0  0  0
 33 30  1  0  0  0  0
M  END
>  <MODEL>
4

>  <REMARK>
 VINA RESULT:      -6.9      1.824      3.037
  Name = 
  11 active torsions:
  status: ('A' for Active; 'I' for Inactive)
    1  A    between atoms: C_5  and  C_25
    2  A    between atoms: C_9  and  C_14
    3  A    between atoms: C_9  and  C_28
    4  A    between atoms: C_11  and  C_19
    5  A    between atoms: C_11  and  C_32
    6  A    between atoms: C_14  and  C_33
    7  A    between atoms: C_15  and  C_22
    8  A    between atoms: C_18  and  C_24
    9  A    between atoms: C_19  and  C_28
   10  A    between atoms: O_21  and  C_28
   11  A    between atoms: C_23  and  C_24
                            x       y       z     vdW  Elec       q    Type
                         _______ _______ _______ _____ _____    ______ ____

>  <TORSDO>
F 11

$$$$
=
 OpenBabel11062418543D

 33 34  0  0  1  0  0  0  0  0999 V2000
  188.7330  175.2320  146.4930 C   0  0  0  0  0  3  0  0  0  0  0  0
  190.6510  176.0600  145.2310 C   0  0  0  0  0  0  0  0  0  0  0  0
  190.9150  175.2450  147.5150 C   0  0  0  0  0  3  0  0  0  0  0  0
  191.4770  175.7760  146.3490 C   0  0  0  0  0  0  0  0  0  0  0  0
  189.5530  174.9640  147.5840 C   0  0  0  0  0  3  0  0  0  0  0  0
  189.2570  175.7940  145.3240 C   0  0  0  0  0  0  0  0  0  0  0  0
  192.9340  176.0240  146.3470 C   0  0  0  0  0  0  0  0  0  0  0  0
  193.3880  176.9920  147.0150 O   0  0  0  0  0  0  0  0  0  0  0  0
  196.0390  174.8210  144.4700 C   0  0  0  0  0  0  0  0  0  0  0  0
  197.0240  175.3150  143.8600 O   0  0  0  0  0  0  0  0  0  0  0  0
  193.6030  173.8740  145.4860 N   0  0  0  0  0  0  0  0  0  0  0  0
  193.8730  175.1380  145.6340 C   0  0  0  0  0  0  0  0  0  0  0  0
  195.8940  173.3330  144.5960 C   0  0  2  0  0  3  0  0  0  0  0  0
  195.0810  175.6780  145.0870 N   0  0  0  0  0  2  0  0  0  0  0  0
  194.4900  172.9960  144.8370 N   0  0  0  0  0  2  0  0  0  0  0  0
  196.8660  171.3830  145.8970 N   0  0  0  0  0  2  0  0  0  0  0  0
  197.1530  173.5780  146.6490 N   0  0  0  0  0  1  0  0  0  0  0  0
  196.7580  172.7900  145.7040 C   0  0  0  0  0  0  0  0  0  0  0  0
  191.2700  176.6450  144.0180 C   0  0  0  0  0  3  0  0  0  0  0  0
  191.2980  177.8830  143.7890 O   0  0  0  0  0  0  0  0  0  0  0  0
  188.2950  176.0880  144.2090 C   0  0  0  0  0  2  0  0  0  0  0  0
  187.9670  178.1890  143.1940 F   0  0  0  0  0  0  0  0  0  0  0  0
  187.6020  177.4600  144.3140 C   0  0  0  0  0  0  0  0  0  0  0  0
  188.0740  178.1500  145.4180 F   0  0  0  0  0  0  0  0  0  0  0  0
  185.6800  176.2820  145.1730 F   0  0  0  0  0  0  0  0  0  0  0  0
  186.0490  177.3580  144.3670 C   0  0  2  0  0  0  0  0  0  0  0  0
  184.8030  178.4010  142.7230 C   0  0  0  0  0  1  0  0  0  0  0  0
  185.4980  177.2300  143.0690 O   0  0  0  0  0  0  0  0  0  0  0  0
  185.4450  178.6290  144.9780 C   0  0  0  0  0  2  0  0  0  0  0  0
  184.6890  178.3670  146.2730 C   0  0  0  0  0  2  0  0  0  0  0  0
  186.0330  179.7640  147.8390 O   0  0  0  0  0  0  0  0  0  0  0  0
  186.0260  177.4790  148.0300 O   0  0  0  0  0  1  0  0  0  0  0  0
  185.6110  178.5050  147.4320 C   0  0  0  0  0  0  0  0  0  0  0  0
  1  5  1  0  0  0  0
  2  6  1  0  0  0  0
  2  4  2  0  0  0  0
  3  5  2  0  0  0  0
  4  3  1  0  0  0  0
  6  1  2  0  0  0  0
  7  4  1  0  0  0  0
  7  8  2  0  0  0  0
  9 13  1  0  0  0  0
  9 14  1  0  0  0  0
 10  9  2  0  0  0  0
 11 12  2  0  0  0  0
 12  7  1  0  0  0  0
 13 15  1  0  0  0  0
 13 18  1  1  0  0  0
 14 12  1  0  0  0  0
 15 11  1  0  0  0  0
 18 16  2  0  0  0  0
 18 17  1  0  0  0  0
 19  2  1  0  0  0  0
 20 19  2  0  0  0  0
 21 23  1  0  0  0  0
 21  6  1  0  0  0  0
 22 23  1  0  0  0  0
 23 26  1  0  0  0  0
 23 24  1  0  0  0  0
 26 29  1  0  0  0  0
 26 25  1  1  0  0  0
 27 28  1  0  0  0  0
 28 26  1  0  0  0  0
 29 30  1  0  0  0  0
 30 33  1  0  0  0  0
 33 31  2  0  0  0  0
 33 32  1  0  0  0  0
M  END
>  <MODEL>
5

>  <REMARK>
 VINA RESULT:      -6.8      2.070      2.784
  Name = 
  11 active torsions:
  status: ('A' for Active; 'I' for Inactive)
    1  A    between atoms: C_5  and  C_25
    2  A    between atoms: C_9  and  C_14
    3  A    between atoms: C_9  and  C_28
    4  A    between atoms: C_11  and  C_19
    5  A    between atoms: C_11  and  C_32
    6  A    between atoms: C_14  and  C_33
    7  A    between atoms: C_15  and  C_22
    8  A    between atoms: C_18  and  C_24
    9  A    between atoms: C_19  and  C_28
   10  A    between atoms: O_21  and  C_28
   11  A    between atoms: C_23  and  C_24
                            x       y       z     vdW  Elec       q    Type
                         _______ _______ _______ _____ _____    ______ ____

>  <TORSDO>
F 11

$$$$
=
 OpenBabel11062418543D

 33 34  0  0  1  0  0  0  0  0999 V2000
  188.8530  175.3300  146.0520 C   0  0  0  0  0  3  0  0  0  0  0  0
  190.9750  176.0120  145.0590 C   0  0  0  0  0  0  0  0  0  0  0  0
  190.8590  175.2910  147.3860 C   0  0  0  0  0  3  0  0  0  0  0  0
  191.6130  175.7430  146.2970 C   0  0  0  0  0  0  0  0  0  0  0  0
  189.4900  175.0760  147.2630 C   0  0  0  0  0  3  0  0  0  0  0  0
  189.5710  175.8140  144.9540 C   0  0  0  0  0  0  0  0  0  0  0  0
  193.0650  175.9240  146.5020 C   0  0  0  0  0  0  0  0  0  0  0  0
  193.4750  176.9780  147.0600 O   0  0  0  0  0  0  0  0  0  0  0  0
  194.5000  172.5860  145.3150 C   0  0  0  0  0  0  0  0  0  0  0  0
  194.1130  171.4000  145.1410 O   0  0  0  0  0  0  0  0  0  0  0  0
  195.3150  175.1400  146.1380 N   0  0  0  0  0  0  0  0  0  0  0  0
  194.0400  174.8830  146.1260 C   0  0  0  0  0  0  0  0  0  0  0  0
  195.9150  172.9750  145.0040 C   0  0  2  0  0  3  0  0  0  0  0  0
  193.5780  173.5780  145.7630 N   0  0  0  0  0  2  0  0  0  0  0  0
  196.2700  174.1790  145.7570 N   0  0  0  0  0  2  0  0  0  0  0  0
  195.1710  173.9970  142.8040 N   0  0  0  0  0  2  0  0  0  0  0  0
  196.9340  172.4630  142.8690 N   0  0  0  0  0  1  0  0  0  0  0  0
  196.1090  173.2060  143.5290 C   0  0  0  0  0  0  0  0  0  0  0  0
  191.7950  176.5130  143.9300 C   0  0  0  0  0  3  0  0  0  0  0  0
  192.1160  175.8000  142.9430 O   0  0  0  0  0  0  0  0  0  0  0  0
  188.7990  176.1000  143.6970 C   0  0  0  0  0  2  0  0  0  0  0  0
  189.0440  178.1030  142.4820 F   0  0  0  0  0  0  0  0  0  0  0  0
  188.3460  177.5640  143.5500 C   0  0  0  0  0  0  0  0  0  0  0  0
  188.7030  178.2900  144.6750 F   0  0  0  0  0  0  0  0  0  0  0  0
  186.2860  176.4650  142.9460 F   0  0  0  0  0  0  0  0  0  0  0  0
  186.8190  177.7080  143.2810 C   0  0  2  0  0  0  0  0  0  0  0  0
  185.9290  178.0410  141.1730 C   0  0  0  0  0  1  0  0  0  0  0  0
  186.5650  178.6590  142.2630 O   0  0  0  0  0  0  0  0  0  0  0  0
  186.0930  178.2070  144.5370 C   0  0  0  0  0  2  0  0  0  0  0  0
  185.5670  177.0750  145.4100 C   0  0  0  0  0  2  0  0  0  0  0  0
  186.3160  177.1500  147.7850 O   0  0  0  0  0  1  0  0  0  0  0  0
  184.4420  178.2910  147.1180 O   0  0  0  0  0  0  0  0  0  0  0  0
  185.4100  177.5490  146.8110 C   0  0  0  0  0  0  0  0  0  0  0  0
  1  5  1  0  0  0  0
  2  4  2  0  0  0  0
  4  7  1  0  0  0  0
  4  3  1  0  0  0  0
  5  3  2  0  0  0  0
  6  2  1  0  0  0  0
  6  1  2  0  0  0  0
  7  8  2  0  0  0  0
  9 14  1  0  0  0  0
 10  9  2  0  0  0  0
 12 11  2  0  0  0  0
 12  7  1  0  0  0  0
 13 18  1  6  0  0  0
 13  9  1  0  0  0  0
 13 15  1  0  0  0  0
 14 12  1  0  0  0  0
 15 11  1  0  0  0  0
 16 18  2  0  0  0  0
 17 18  1  0  0  0  0
 19  2  1  0  0  0  0
 20 19  2  0  0  0  0
 21  6  1  0  0  0  0
 22 23  1  0  0  0  0
 23 21  1  0  0  0  0
 23 24  1  0  0  0  0
 26 25  1  6  0  0  0
 26 23  1  0  0  0  0
 26 29  1  0  0  0  0
 27 28  1  0  0  0  0
 28 26  1  0  0  0  0
 29 30  1  0  0  0  0
 30 33  1  0  0  0  0
 33 32  2  0  0  0  0
 33 31  1  0  0  0  0
M  END
>  <MODEL>
6

>  <REMARK>
 VINA RESULT:      -6.6      2.097      2.509
  Name = 
  11 active torsions:
  status: ('A' for Active; 'I' for Inactive)
    1  A    between atoms: C_5  and  C_25
    2  A    between atoms: C_9  and  C_14
    3  A    between atoms: C_9  and  C_28
    4  A    between atoms: C_11  and  C_19
    5  A    between atoms: C_11  and  C_32
    6  A    between atoms: C_14  and  C_33
    7  A    between atoms: C_15  and  C_22
    8  A    between atoms: C_18  and  C_24
    9  A    between atoms: C_19  and  C_28
   10  A    between atoms: O_21  and  C_28
   11  A    between atoms: C_23  and  C_24
                            x       y       z     vdW  Elec       q    Type
                         _______ _______ _______ _____ _____    ______ ____

>  <TORSDO>
F 11

$$$$
=
 OpenBabel11062418543D

 33 34  0  0  1  0  0  0  0  0999 V2000
  188.6510  175.3720  146.7790 C   0  0  0  0  0  3  0  0  0  0  0  0
  190.3590  176.6710  145.6190 C   0  0  0  0  0  0  0  0  0  0  0  0
  190.9510  175.2060  147.4760 C   0  0  0  0  0  3  0  0  0  0  0  0
  191.3370  176.1080  146.4790 C   0  0  0  0  0  0  0  0  0  0  0  0
  189.6190  174.8310  147.6200 C   0  0  0  0  0  3  0  0  0  0  0  0
  188.9980  176.3010  145.7930 C   0  0  0  0  0  0  0  0  0  0  0  0
  192.7740  176.4370  146.3760 C   0  0  0  0  0  0  0  0  0  0  0  0
  193.2990  177.1590  147.2660 O   0  0  0  0  0  0  0  0  0  0  0  0
  195.6370  176.0930  143.8660 C   0  0  0  0  0  0  0  0  0  0  0  0
  196.5470  176.8070  143.3690 O   0  0  0  0  0  0  0  0  0  0  0  0
  193.3290  174.7590  144.7370 N   0  0  0  0  0  0  0  0  0  0  0  0
  193.6210  175.8960  145.2960 C   0  0  0  0  0  0  0  0  0  0  0  0
  195.5000  174.6530  143.4680 C   0  0  2  0  0  3  0  0  0  0  0  0
  194.7600  176.6400  144.8500 N   0  0  0  0  0  2  0  0  0  0  0  0
  194.1310  174.2010  143.7240 N   0  0  0  0  0  2  0  0  0  0  0  0
  196.7310  172.4530  143.7620 N   0  0  0  0  0  2  0  0  0  0  0  0
  196.8680  174.1230  145.3930 N   0  0  0  0  0  1  0  0  0  0  0  0
  196.4830  173.7840  144.2080 C   0  0  0  0  0  0  0  0  0  0  0  0
  190.7940  177.6430  144.5860 C   0  0  0  0  0  3  0  0  0  0  0  0
  191.0950  177.3090  143.4100 O   0  0  0  0  0  0  0  0  0  0  0  0
  187.8850  176.8650  144.9550 C   0  0  0  0  0  2  0  0  0  0  0  0
  187.3130  178.1470  146.8470 F   0  0  0  0  0  0  0  0  0  0  0  0
  186.7390  177.4990  145.7650 C   0  0  0  0  0  0  0  0  0  0  0  0
  185.9120  176.5120  146.2760 F   0  0  0  0  0  0  0  0  0  0  0  0
  185.9470  179.7690  145.5740 F   0  0  0  0  0  0  0  0  0  0  0  0
  185.9050  178.5260  144.9450 C   0  0  2  0  0  0  0  0  0  0  0  0
  183.7100  178.8380  145.6000 C   0  0  0  0  0  1  0  0  0  0  0  0
  184.5690  178.0870  144.7800 O   0  0  0  0  0  0  0  0  0  0  0  0
  186.4880  178.6940  143.5350 C   0  0  0  0  0  2  0  0  0  0  0  0
  185.5030  178.3250  142.4350 C   0  0  0  0  0  2  0  0  0  0  0  0
  187.5760  177.5300  141.3030 O   0  0  0  0  0  1  0  0  0  0  0  0
  185.6660  177.9210  140.0950 O   0  0  0  0  0  0  0  0  0  0  0  0
  186.2420  177.9080  141.2140 C   0  0  0  0  0  0  0  0  0  0  0  0
  1  5  1  0  0  0  0
  2  6  1  0  0  0  0
  2  4  2  0  0  0  0
  3  5  2  0  0  0  0
  4  3  1  0  0  0  0
  6  1  2  0  0  0  0
  7  4  1  0  0  0  0
  7  8  2  0  0  0  0
  9 14  1  0  0  0  0
 10  9  2  0  0  0  0
 11 12  2  0  0  0  0
 12  7  1  0  0  0  0
 13 15  1  0  0  0  0
 13  9  1  0  0  0  0
 13 18  1  1  0  0  0
 14 12  1  0  0  0  0
 15 11  1  0  0  0  0
 16 18  2  0  0  0  0
 18 17  1  0  0  0  0
 19  2  1  0  0  0  0
 20 19  2  0  0  0  0
 21 23  1  0  0  0  0
 21  6  1  0  0  0  0
 23 24  1  0  0  0  0
 23 22  1  0  0  0  0
 26 25  1  1  0  0  0
 26 23  1  0  0  0  0
 28 26  1  0  0  0  0
 28 27  1  0  0  0  0
 29 26  1  0  0  0  0
 30 29  1  0  0  0  0
 32 33  2  0  0  0  0
 33 31  1  0  0  0  0
 33 30  1  0  0  0  0
M  END
>  <MODEL>
7

>  <REMARK>
 VINA RESULT:      -6.6      2.204      3.353
  Name = 
  11 active torsions:
  status: ('A' for Active; 'I' for Inactive)
    1  A    between atoms: C_5  and  C_25
    2  A    between atoms: C_9  and  C_14
    3  A    between atoms: C_9  and  C_28
    4  A    between atoms: C_11  and  C_19
    5  A    between atoms: C_11  and  C_32
    6  A    between atoms: C_14  and  C_33
    7  A    between atoms: C_15  and  C_22
    8  A    between atoms: C_18  and  C_24
    9  A    between atoms: C_19  and  C_28
   10  A    between atoms: O_21  and  C_28
   11  A    between atoms: C_23  and  C_24
                            x       y       z     vdW  Elec       q    Type
                         _______ _______ _______ _____ _____    ______ ____

>  <TORSDO>
F 11

$$$$
=
 OpenBabel11062418543D

 33 34  0  0  1  0  0  0  0  0999 V2000
  189.8380  177.9390  144.2690 C   0  0  0  0  0  3  0  0  0  0  0  0
  191.0360  176.7720  146.0450 C   0  0  0  0  0  0  0  0  0  0  0  0
  192.0650  177.1150  143.8610 C   0  0  0  0  0  3  0  0  0  0  0  0
  192.1400  176.6210  145.1670 C   0  0  0  0  0  0  0  0  0  0  0  0
  190.9250  177.7790  143.4160 C   0  0  0  0  0  3  0  0  0  0  0  0
  189.8680  177.4290  145.5700 C   0  0  0  0  0  0  0  0  0  0  0  0
  193.3930  175.9480  145.5700 C   0  0  0  0  0  0  0  0  0  0  0  0
  194.3010  176.6290  146.1200 O   0  0  0  0  0  0  0  0  0  0  0  0
  192.7300  172.3100  144.6020 C   0  0  0  0  0  0  0  0  0  0  0  0
  191.7570  171.5860  144.2620 O   0  0  0  0  0  0  0  0  0  0  0  0
  194.7010  173.9330  145.7620 N   0  0  0  0  0  0  0  0  0  0  0  0
  193.5860  174.4950  145.4000 C   0  0  0  0  0  0  0  0  0  0  0  0
  194.1100  171.7300  144.6970 C   0  0  2  0  0  3  0  0  0  0  0  0
  192.5300  173.7000  144.8510 N   0  0  0  0  0  2  0  0  0  0  0  0
  194.9290  172.5550  145.5870 N   0  0  0  0  0  2  0  0  0  0  0  0
  194.4110  172.5560  142.3160 N   0  0  0  0  0  2  0  0  0  0  0  0
  195.3830  170.5470  143.0120 N   0  0  0  0  0  1  0  0  0  0  0  0
  194.7560  171.6280  143.3400 C   0  0  0  0  0  0  0  0  0  0  0  0
  191.1360  176.2170  147.4170 C   0  0  0  0  0  3  0  0  0  0  0  0
  190.6690  175.0930  147.7400 O   0  0  0  0  0  0  0  0  0  0  0  0
  188.6360  177.6100  146.4110 C   0  0  0  0  0  2  0  0  0  0  0  0
  187.1110  176.0470  147.2950 F   0  0  0  0  0  0  0  0  0  0  0  0
  187.5000  176.6200  146.0950 C   0  0  0  0  0  0  0  0  0  0  0  0
  187.9700  175.5940  145.2910 F   0  0  0  0  0  0  0  0  0  0  0  0
  186.4690  178.6740  145.3640 F   0  0  0  0  0  0  0  0  0  0  0  0
  186.2650  177.2970  145.4330 C   0  0  2  0  0  0  0  0  0  0  0  0
  184.4400  178.1840  146.5430 C   0  0  0  0  0  1  0  0  0  0  0  0
  185.0740  176.9970  146.1400 O   0  0  0  0  0  0  0  0  0  0  0  0
  186.0660  176.7800  144.0020 C   0  0  0  0  0  2  0  0  0  0  0  0
  186.2640  177.8590  142.9460 C   0  0  0  0  0  2  0  0  0  0  0  0
  183.8370  178.4100  143.0650 O   0  0  0  0  0  1  0  0  0  0  0  0
  184.8830  178.1910  141.0370 O   0  0  0  0  0  0  0  0  0  0  0  0
  184.9650  178.1700  142.2920 C   0  0  0  0  0  0  0  0  0  0  0  0
  1  6  1  0  0  0  0
  2 19  1  0  0  0  0
  3  4  2  0  0  0  0
  4  7  1  0  0  0  0
  4  2  1  0  0  0  0
  5  3  1  0  0  0  0
  5  1  2  0  0  0  0
  6  2  2  0  0  0  0
  6 21  1  0  0  0  0
  7  8  2  0  0  0  0
  9 13  1  0  0  0  0
  9 14  1  0  0  0  0
 10  9  2  0  0  0  0
 12  7  1  0  0  0  0
 12 11  2  0  0  0  0
 13 18  1  6  0  0  0
 13 15  1  0  0  0  0
 14 12  1  0  0  0  0
 15 11  1  0  0  0  0
 16 18  2  0  0  0  0
 17 18  1  0  0  0  0
 19 20  2  0  0  0  0
 23 21  1  0  0  0  0
 23 22  1  0  0  0  0
 24 23  1  0  0  0  0
 26 25  1  6  0  0  0
 26 23  1  0  0  0  0
 26 28  1  0  0  0  0
 28 27  1  0  0  0  0
 29 26  1  0  0  0  0
 30 29  1  0  0  0  0
 32 33  2  0  0  0  0
 33 30  1  0  0  0  0
 33 31  1  0  0  0  0
M  END
>  <MODEL>
8

>  <REMARK>
 VINA RESULT:      -6.6      2.361      3.885
  Name = 
  11 active torsions:
  status: ('A' for Active; 'I' for Inactive)
    1  A    between atoms: C_5  and  C_25
    2  A    between atoms: C_9  and  C_14
    3  A    between atoms: C_9  and  C_28
    4  A    between atoms: C_11  and  C_19
    5  A    between atoms: C_11  and  C_32
    6  A    between atoms: C_14  and  C_33
    7  A    between atoms: C_15  and  C_22
    8  A    between atoms: C_18  and  C_24
    9  A    between atoms: C_19  and  C_28
   10  A    between atoms: O_21  and  C_28
   11  A    between atoms: C_23  and  C_24
                            x       y       z     vdW  Elec       q    Type
                         _______ _______ _______ _____ _____    ______ ____

>  <TORSDO>
F 11

$$$$
=
 OpenBabel11062418543D

 33 34  0  0  1  0  0  0  0  0999 V2000
  188.1930  175.6780  146.3510 C   0  0  0  0  0  3  0  0  0  0  0  0
  189.6940  175.1240  144.5090 C   0  0  0  0  0  0  0  0  0  0  0  0
  190.3020  174.6080  146.8140 C   0  0  0  0  0  3  0  0  0  0  0  0
  190.6070  174.5780  145.4490 C   0  0  0  0  0  0  0  0  0  0  0  0
  189.0990  175.1450  147.2630 C   0  0  0  0  0  3  0  0  0  0  0  0
  188.4810  175.6940  144.9830 C   0  0  0  0  0  0  0  0  0  0  0  0
  191.8940  173.9710  145.0510 C   0  0  0  0  0  0  0  0  0  0  0  0
  191.8980  172.7940  144.5990 O   0  0  0  0  0  0  0  0  0  0  0  0
  195.6280  174.7260  145.3690 C   0  0  0  0  0  0  0  0  0  0  0  0
  196.6780  174.1490  145.7570 O   0  0  0  0  0  0  0  0  0  0  0  0
  193.1730  176.0100  144.9350 N   0  0  0  0  0  0  0  0  0  0  0  0
  193.1620  174.7220  145.1130 C   0  0  0  0  0  0  0  0  0  0  0  0
  195.6850  176.1260  144.8350 C   0  0  2  0  0  3  0  0  0  0  0  0
  194.3830  174.0290  145.3890 N   0  0  0  0  0  2  0  0  0  0  0  0
  194.3680  176.7530  144.9590 N   0  0  0  0  0  2  0  0  0  0  0  0
  197.5290  176.2240  143.0940 N   0  0  0  0  0  1  0  0  0  0  0  0
  195.2840  176.3980  142.4640 N   0  0  0  0  0  2  0  0  0  0  0  0
  196.1390  176.1480  143.3990 C   0  0  0  0  0  0  0  0  0  0  0  0
  190.0550  175.1000  143.0710 C   0  0  0  0  0  3  0  0  0  0  0  0
  190.6990  176.0240  142.5080 O   0  0  0  0  0  0  0  0  0  0  0  0
  187.4660  176.3240  144.0720 C   0  0  0  0  0  2  0  0  0  0  0  0
  187.7410  178.3060  142.8280 F   0  0  0  0  0  0  0  0  0  0  0  0
  187.4510  177.8640  144.1080 C   0  0  0  0  0  0  0  0  0  0  0  0
  188.4580  178.3330  144.9360 F   0  0  0  0  0  0  0  0  0  0  0  0
  186.2790  179.4270  145.5220 F   0  0  0  0  0  0  0  0  0  0  0  0
  186.0780  178.4510  144.5480 C   0  0  2  0  0  0  0  0  0  0  0  0
  184.8590  177.6850  146.3580 C   0  0  0  0  0  1  0  0  0  0  0  0
  185.2120  177.4350  145.0210 O   0  0  0  0  0  0  0  0  0  0  0  0
  185.3680  179.1140  143.3600 C   0  0  0  0  0  2  0  0  0  0  0  0
  184.3400  178.2070  142.6980 C   0  0  0  0  0  2  0  0  0  0  0  0
  185.7140  178.1350  140.6210 O   0  0  0  0  0  1  0  0  0  0  0  0
  183.4570  178.5260  140.5120 O   0  0  0  0  0  0  0  0  0  0  0  0
  184.4700  178.2910  141.2190 C   0  0  0  0  0  0  0  0  0  0  0  0
  1  5  1  0  0  0  0
  2  6  1  0  0  0  0
  2  4  2  0  0  0  0
  3  5  2  0  0  0  0
  4  3  1  0  0  0  0
  6  1  2  0  0  0  0
  7 12  1  0  0  0  0
  7  4  1  0  0  0  0
  8  7  2  0  0  0  0
  9 14  1  0  0  0  0
  9 10  2  0  0  0  0
 11 15  1  0  0  0  0
 11 12  2  0  0  0  0
 12 14  1  0  0  0  0
 13 18  1  6  0  0  0
 13 15  1  0  0  0  0
 13  9  1  0  0  0  0
 16 18  1  0  0  0  0
 17 18  2  0  0  0  0
 19  2  1  0  0  0  0
 20 19  2  0  0  0  0
 21 23  1  0  0  0  0
 21  6  1  0  0  0  0
 22 23  1  0  0  0  0
 23 26  1  0  0  0  0
 23 24  1  0  0  0  0
 26 28  1  0  0  0  0
 26 25  1  1  0  0  0
 28 27  1  0  0  0  0
 29 26  1  0  0  0  0
 30 29  1  0  0  0  0
 31 33  1  0  0  0  0
 32 33  2  0  0  0  0
 33 30  1  0  0  0  0
M  END
>  <MODEL>
9

>  <REMARK>
 VINA RESULT:      -6.6      1.420      2.650
  Name = 
  11 active torsions:
  status: ('A' for Active; 'I' for Inactive)
    1  A    between atoms: C_5  and  C_25
    2  A    between atoms: C_9  and  C_14
    3  A    between atoms: C_9  and  C_28
    4  A    between atoms: C_11  and  C_19
    5  A    between atoms: C_11  and  C_32
    6  A    between atoms: C_14  and  C_33
    7  A    between atoms: C_15  and  C_22
    8  A    between atoms: C_18  and  C_24
    9  A    between atoms: C_19  and  C_28
   10  A    between atoms: O_21  and  C_28
   11  A    between atoms: C_23  and  C_24
                            x       y       z     vdW  Elec       q    Type
                         _______ _______ _______ _____ _____    ______ ____

>  <TORSDO>
F 11

$$$$
