=
 OpenBabel11062421453D

 70 78  0  0  1  0  0  0  0  0999 V2000
  188.6710  176.3210  141.5060 C   0  0  0  0  0  3  0  0  0  0  0  0
  190.6570  174.8350  146.2380 O   0  0  0  0  0  0  0  0  0  0  0  0
  191.2920  176.5370  147.7090 O   0  0  0  0  0  1  0  0  0  0  0  0
  188.6360  171.9880  139.5950 C   0  0  0  0  0  2  0  0  0  0  0  0
  191.3100  173.0880  142.0600 N   0  0  0  0  0  0  0  0  0  0  0  0
  190.4010  177.1620  145.5750 C   0  0  0  0  0  2  0  0  0  0  0  0
  189.5170  171.8540  140.8530 C   0  0  0  0  0  2  0  0  0  0  0  0
  190.2520  173.0860  144.1450 O   0  0  0  0  0  0  0  0  0  0  0  0
  188.6490  174.5560  139.7740 C   0  0  2  0  0  3  0  0  0  0  0  0
  191.9560  174.5890  146.3410 O   0  0  0  0  0  0  0  0  0  0  0  0
  190.0280  173.2090  141.3650 C   0  0  2  0  0  3  0  0  0  0  0  0
  189.0450  177.6310  143.4970 C   0  0  0  0  0  2  0  0  0  0  0  0
  187.9790  175.4060  140.7080 O   0  0  0  0  0  0  0  0  0  0  0  0
  191.3240  173.2420  143.4960 C   0  0  0  0  0  0  0  0  0  0  0  0
  189.7360  176.5790  144.3430 C   0  0  0  0  0  2  0  0  0  0  0  0
  187.8040  173.2780  139.5990 C   0  0  0  0  0  2  0  0  0  0  0  0
  188.9960  176.1410  147.3330 C   0  0  0  0  0  1  0  0  0  0  0  0
  190.3830  176.1430  146.7210 C   0  0  1  0  0  0  0  0  0  0  0  0
  192.5130  174.8250  145.0710 C   0  0  2  0  0  3  0  0  0  0  0  0
  192.5910  173.5320  144.2510 C   0  0  0  0  0  2  0  0  0  0  0  0
  190.0820  174.2400  140.2380 C   0  0  0  0  0  2  0  0  0  0  0  0
  188.1220  176.9040  142.5720 C   0  0  0  0  0  0  0  0  0  0  0  0
  194.6780  173.6900  140.4750 O   0  0  0  0  0  0  0  0  0  0  0  0
  193.1260  175.2960  141.4830 C   0  0  0  0  0  1  0  0  0  0  0  0
  194.4260  172.8860  138.2140 C   0  0  0  0  0  2  0  0  0  0  0  0
  193.2160  171.9550  138.1920 C   0  0  0  0  0  2  0  0  0  0  0  0
  193.3540  170.7540  139.1340 C   0  0  2  0  0  3  0  0  0  0  0  0
  193.9700  171.1040  140.3450 O   0  0  0  0  0  0  0  0  0  0  0  0
  194.1990  174.0300  139.1940 C   0  0  0  0  0  2  0  0  0  0  0  0
  192.9400  171.3310  141.2730 C   0  0  2  0  0  3  0  0  0  0  0  0
  192.5100  172.8150  141.2500 C   0  0  2  0  0  3  0  0  0  0  0  0
  193.6410  173.8520  141.4260 C   0  0  1  0  0  3  0  0  0  0  0  0
  193.3040  170.8400  142.6840 C   0  0  0  0  0  3  0  0  0  0  0  0
  192.3810  169.7250  143.1370 C   0  0  0  0  0  2  0  0  0  0  0  0
  193.7990  169.4040  142.7050 C   0  0  0  0  0  2  0  0  0  0  0  0
  194.8990  168.7760  139.4520 C   0  0  0  0  0  1  0  0  0  0  0  0
  194.0880  169.5950  138.4530 C   0  0  1  0  0  3  0  0  0  0  0  0
  193.0870  168.7160  137.7170 C   0  0  0  0  0  2  0  0  0  0  0  0
  193.5290  168.4820  136.2850 C   0  0  0  0  0  2  0  0  0  0  0  0
  193.4620  169.6800  135.5770 O   0  0  0  0  0  1  0  0  0  0  0  0
  186.5900  176.3020  144.3560 N   0  0  0  0  0  2  0  0  0  0  0  0
  186.6820  176.6420  142.9530 C   0  0  1  0  0  3  0  0  0  0  0  0
  185.8130  177.8520  142.7880 C   0  0  2  0  0  3  0  0  0  0  0  0
  185.4160  176.8990  144.8530 N   0  0  0  0  0  2  0  0  0  0  0  0
  185.0560  177.9770  144.0170 N   0  0  0  0  0  2  0  0  0  0  0  0
  184.8720  177.6990  141.6070 C   0  0  0  0  0  2  0  0  0  0  0  0
  183.6410  178.5610  141.8230 C   0  0  0  0  0  2  0  0  0  0  0  0
  182.4900  177.8090  141.5870 O   0  0  0  0  0  0  0  0  0  0  0  0
  181.9690  178.3260  140.4000 C   0  0  0  0  0  2  0  0  0  0  0  0
  180.5100  178.7000  140.6030 C   0  0  2  0  0  3  0  0  0  0  0  0
  177.9070  182.5320  139.9850 C   0  0  0  0  0  2  0  0  0  0  0  0
  178.1670  182.2440  138.5180 C   0  0  2  0  0  3  0  0  0  0  0  0
  177.7510  180.8080  138.1630 C   0  0  0  0  0  2  0  0  0  0  0  0
  178.6260  179.9550  138.8750 O   0  0  0  0  0  0  0  0  0  0  0  0
  179.4860  180.6820  139.6680 C   0  0  0  0  0  0  0  0  0  0  0  0
  180.3650  180.1430  140.4560 N   0  0  0  0  0  0  0  0  0  0  0  0
  179.3010  182.1410  139.5390 C   0  0  2  0  0  3  0  0  0  0  0  0
  178.6500  178.7090  142.1630 C   0  0  2  0  0  3  0  0  0  0  0  0
  178.9510  177.2900  141.9060 N   0  0  0  0  0  2  0  0  0  0  0  0
  180.0400  178.2760  141.9930 C   0  0  1  0  0  3  0  0  0  0  0  0
  178.3640  178.9170  143.5770 N   0  0  0  0  0  0  0  0  0  0  0  0
  178.3990  177.9780  144.5410 C   0  0  0  0  0  3  0  0  0  0  0  0
  177.9260  180.0660  144.1160 C   0  0  0  0  0  3  0  0  0  0  0  0
  177.6920  179.8700  145.4640 C   0  0  0  0  0  3  0  0  0  0  0  0
  177.9950  178.5440  145.7340 C   0  0  0  0  0  3  0  0  0  0  0  0
  193.8890  175.4730  145.2650 C   0  0  2  0  0  3  0  0  0  0  0  0
  194.5190  175.1220  146.5990 C   0  0  0  0  0  1  0  0  0  0  0  0
  194.6400  177.8270  145.8650 N   0  0  0  0  0  1  0  0  0  0  0  0
  193.2120  177.4310  144.0780 O   0  0  0  0  0  0  0  0  0  0  0  0
  193.8930  176.9540  145.0230 C   0  0  0  0  0  0  0  0  0  0  0  0
  1 22  2  0  0  0  0
  2 10  1  0  0  0  0
  2 18  1  0  0  0  0
  4 16  1  0  0  0  0
  4  7  1  0  0  0  0
  5 14  1  0  0  0  0
  6 18  1  0  0  0  0
  7 11  1  0  0  0  0
  9 16  1  1  0  0  0
  9 21  1  0  0  0  0
  9 13  1  0  0  0  0
 11 21  1  6  0  0  0
 11  5  1  0  0  0  0
 12 15  1  0  0  0  0
 13  1  1  0  0  0  0
 14  8  2  0  0  0  0
 14 20  1  0  0  0  0
 15  6  1  0  0  0  0
 18 17  1  1  0  0  0
 18  3  1  0  0  0  0
 19 66  1  1  0  0  0
 19 10  1  0  0  0  0
 20 19  1  0  0  0  0
 22 12  1  0  0  0  0
 23 32  1  0  0  0  0
 25 29  1  0  0  0  0
 26 25  1  0  0  0  0
 26 27  1  0  0  0  0
 27 37  1  6  0  0  0
 27 28  1  0  0  0  0
 28 30  1  0  0  0  0
 29 23  1  0  0  0  0
 30 33  1  1  0  0  0
 31 30  1  0  0  0  0
 31 32  1  0  0  0  0
 31  5  1  1  0  0  0
 32 24  1  6  0  0  0
 33 35  1  0  0  0  0
 33 34  1  0  0  0  0
 35 34  1  0  0  0  0
 37 36  1  1  0  0  0
 38 37  1  0  0  0  0
 39 38  1  0  0  0  0
 40 39  1  0  0  0  0
 41 44  1  0  0  0  0
 42 22  1  1  0  0  0
 42 41  1  0  0  0  0
 43 46  1  6  0  0  0
 43 42  1  0  0  0  0
 43 45  1  0  0  0  0
 45 44  1  0  0  0  0
 46 47  1  0  0  0  0
 48 47  1  0  0  0  0
 49 48  1  0  0  0  0
 50 49  1  1  0  0  0
 52 53  1  1  0  0  0
 52 57  1  0  0  0  0
 52 51  1  0  0  0  0
 53 54  1  0  0  0  0
 54 55  1  0  0  0  0
 55 56  2  0  0  0  0
 56 50  1  0  0  0  0
 57 55  1  0  0  0  0
 57 51  1  1  0  0  0
 58 61  1  1  0  0  0
 59 60  1  0  0  0  0
 59 58  1  0  0  0  0
 60 50  1  6  0  0  0
 60 58  1  0  0  0  0
 61 63  1  0  0  0  0
 61 62  1  0  0  0  0
 62 65  2  0  0  0  0
 63 64  2  0  0  0  0
 64 65  1  0  0  0  0
 66 67  1  1  0  0  0
 69 70  2  0  0  0  0
 70 66  1  0  0  0  0
 70 68  1  0  0  0  0
M  END
>  <MODEL>
1

>  <REMARK>
 VINA RESULT:      -6.5      0.000      0.000
  Name = 
  16 active torsions:
  status: ('A' for Active; 'I' for Inactive)
    1  A    between atoms: C_9  and  N_49
    2  A    between atoms: C_9  and  C_61
    3  A    between atoms: C_9  and  C_70
    4  A    between atoms: C_10  and  C_57
    5  A    between atoms: C_11  and  C_66
    6  A    between atoms: N_12  and  C_55
    7  A    between atoms: C_17  and  C_51
    8  A    between atoms: C_18  and  N_24
    9  A    between atoms: C_20  and  C_26
   10  A    between atoms: C_26  and  C_44
   11  A    between atoms: C_27  and  C_54
   12  A    between atoms: C_27  and  C_56
   13  A    between atoms: C_33  and  C_63
   14  A    between atoms: O_38  and  C_44
   15  A    between atoms: O_38  and  C_61
   16  A    between atoms: C_57  and  C_63
                            x       y       z     vdW  Elec       q    Type
                         _______ _______ _______ _____ _____    ______ ____

>  <TORSDO>
F 16

$$$$
=
 OpenBabel11062421453D

 70 78  0  0  1  0  0  0  0  0999 V2000
  192.0290  170.9080  141.6470 C   0  0  0  0  0  3  0  0  0  0  0  0
  195.5330  174.7740  140.4960 O   0  0  0  0  0  0  0  0  0  0  0  0
  197.8020  174.2150  140.5780 O   0  0  0  0  0  1  0  0  0  0  0  0
  188.2150  173.7120  141.7750 C   0  0  0  0  0  2  0  0  0  0  0  0
  191.6410  174.9100  142.8980 N   0  0  0  0  0  0  0  0  0  0  0  0
  196.1990  172.5110  141.0930 C   0  0  0  0  0  2  0  0  0  0  0  0
  189.4140  174.6800  141.8120 C   0  0  0  0  0  2  0  0  0  0  0  0
  192.8480  175.2370  140.9220 O   0  0  0  0  0  0  0  0  0  0  0  0
  189.7470  171.6870  142.1970 C   0  0  2  0  0  3  0  0  0  0  0  0
  195.9420  175.5810  141.4660 O   0  0  0  0  0  0  0  0  0  0  0  0
  190.7200  173.9890  142.2300 C   0  0  2  0  0  3  0  0  0  0  0  0
  194.3880  170.7530  141.1620 C   0  0  0  0  0  2  0  0  0  0  0  0
  190.6800  171.0530  141.3170 O   0  0  0  0  0  0  0  0  0  0  0  0
  192.8220  175.3310  142.1810 C   0  0  0  0  0  0  0  0  0  0  0  0
  194.7080  172.2320  141.0790 C   0  0  0  0  0  2  0  0  0  0  0  0
  188.6200  172.2970  141.3390 C   0  0  0  0  0  2  0  0  0  0  0  0
  196.4800  173.3960  138.8020 C   0  0  0  0  0  1  0  0  0  0  0  0
  196.5110  173.7670  140.2720 C   0  0  1  0  0  0  0  0  0  0  0  0
  195.3030  175.1510  142.6430 C   0  0  2  0  0  3  0  0  0  0  0  0
  194.0070  175.9310  142.8860 C   0  0  0  0  0  2  0  0  0  0  0  0
  190.4410  172.7450  143.0730 C   0  0  0  0  0  2  0  0  0  0  0  0
  192.9600  170.5950  140.7460 C   0  0  0  0  0  0  0  0  0  0  0  0
  191.9890  175.3240  146.6300 O   0  0  0  0  0  0  0  0  0  0  0  0
  193.1040  173.7380  145.1320 C   0  0  0  0  0  1  0  0  0  0  0  0
  189.7610  174.9590  147.4810 C   0  0  0  0  0  2  0  0  0  0  0  0
  188.7910  175.1470  146.3170 C   0  0  0  0  0  2  0  0  0  0  0  0
  188.8580  176.5420  145.6870 C   0  0  2  0  0  3  0  0  0  0  0  0
  190.1750  177.0200  145.6090 O   0  0  0  0  0  0  0  0  0  0  0  0
  191.0590  174.3300  146.9930 C   0  0  0  0  0  2  0  0  0  0  0  0
  190.6320  176.7400  144.3100 C   0  0  2  0  0  3  0  0  0  0  0  0
  191.3060  175.3500  144.2630 C   0  0  2  0  0  3  0  0  0  0  0  0
  192.4240  175.1020  145.3000 C   0  0  1  0  0  3  0  0  0  0  0  0
  191.5320  177.8550  143.7520 C   0  0  0  0  0  3  0  0  0  0  0  0
  190.9780  178.4180  142.4580 C   0  0  0  0  0  2  0  0  0  0  0  0
  190.8570  179.2160  143.7430 C   0  0  0  0  0  2  0  0  0  0  0  0
  187.3160  178.5350  145.4700 C   0  0  0  0  0  1  0  0  0  0  0  0
  187.9530  177.5310  146.4250 C   0  0  1  0  0  3  0  0  0  0  0  0
  186.8870  176.7710  147.2010 C   0  0  0  0  0  2  0  0  0  0  0  0
  185.4990  177.1440  146.7150 C   0  0  0  0  0  2  0  0  0  0  0  0
  184.9540  178.1060  147.5620 O   0  0  0  0  0  1  0  0  0  0  0  0
  193.7880  170.2360  138.4920 N   0  0  0  0  0  2  0  0  0  0  0  0
  192.5940  170.3250  139.3030 C   0  0  1  0  0  3  0  0  0  0  0  0
  191.9010  169.0080  139.1220 C   0  0  2  0  0  3  0  0  0  0  0  0
  193.5720  169.2200  137.5420 N   0  0  0  0  0  2  0  0  0  0  0  0
  192.5680  168.3490  138.0180 N   0  0  0  0  0  2  0  0  0  0  0  0
  190.4280  169.1970  138.8050 C   0  0  0  0  0  2  0  0  0  0  0  0
  190.1910  170.6170  138.3250 C   0  0  0  0  0  2  0  0  0  0  0  0
  190.5220  170.7220  136.9750 O   0  0  0  0  0  0  0  0  0  0  0  0
  189.6150  171.6510  136.4610 C   0  0  0  0  0  2  0  0  0  0  0  0
  190.1020  173.0590  136.7610 C   0  0  2  0  0  3  0  0  0  0  0  0
  188.2540  177.1350  135.4130 C   0  0  0  0  0  2  0  0  0  0  0  0
  186.9450  176.4010  135.6350 C   0  0  2  0  0  3  0  0  0  0  0  0
  186.8850  175.8120  137.0530 C   0  0  0  0  0  2  0  0  0  0  0  0
  187.8890  174.8170  137.1110 O   0  0  0  0  0  0  0  0  0  0  0  0
  188.5970  174.7620  135.9320 C   0  0  0  0  0  0  0  0  0  0  0  0
  189.6010  173.9640  135.7350 N   0  0  0  0  0  0  0  0  0  0  0  0
  188.1050  175.7120  134.9140 C   0  0  2  0  0  3  0  0  0  0  0  0
  192.0510  174.5050  136.8160 C   0  0  2  0  0  3  0  0  0  0  0  0
  192.1240  173.6880  138.0390 N   0  0  0  0  0  2  0  0  0  0  0  0
  191.6280  173.1020  136.7830 C   0  0  1  0  0  3  0  0  0  0  0  0
  193.3740  174.6400  136.2170 N   0  0  0  0  0  0  0  0  0  0  0  0
  193.9330  173.7950  135.3300 C   0  0  0  0  0  3  0  0  0  0  0  0
  194.2760  175.5800  136.5380 C   0  0  0  0  0  3  0  0  0  0  0  0
  195.4380  175.3510  135.8250 C   0  0  0  0  0  3  0  0  0  0  0  0
  195.2190  174.2190  135.0560 C   0  0  0  0  0  3  0  0  0  0  0  0
  196.2930  175.2940  143.8050 C   0  0  2  0  0  3  0  0  0  0  0  0
  197.4510  176.2180  143.4770 C   0  0  0  0  0  1  0  0  0  0  0  0
  197.9360  173.3530  143.8240 N   0  0  0  0  0  1  0  0  0  0  0  0
  196.1210  173.4170  145.2700 O   0  0  0  0  0  0  0  0  0  0  0  0
  196.7700  173.9810  144.3510 C   0  0  0  0  0  0  0  0  0  0  0  0
  2 10  1  0  0  0  0
  4  7  1  0  0  0  0
  8 14  2  0  0  0  0
  9 16  1  6  0  0  0
  9 21  1  0  0  0  0
 10 19  1  0  0  0  0
 11  7  1  1  0  0  0
 11  5  1  0  0  0  0
 11 21  1  0  0  0  0
 13  1  1  0  0  0  0
 13  9  1  0  0  0  0
 14 20  1  0  0  0  0
 14  5  1  0  0  0  0
 15  6  1  0  0  0  0
 15 12  1  0  0  0  0
 16  4  1  0  0  0  0
 18 17  1  6  0  0  0
 18  2  1  0  0  0  0
 18  3  1  0  0  0  0
 18  6  1  0  0  0  0
 19 20  1  0  0  0  0
 19 66  1  1  0  0  0
 22 12  1  0  0  0  0
 22  1  2  0  0  0  0
 23 29  1  0  0  0  0
 26 25  1  0  0  0  0
 27 26  1  0  0  0  0
 27 37  1  1  0  0  0
 28 27  1  0  0  0  0
 29 25  1  0  0  0  0
 30 33  1  1  0  0  0
 30 28  1  0  0  0  0
 31  5  1  6  0  0  0
 31 30  1  0  0  0  0
 31 32  1  0  0  0  0
 32 24  1  1  0  0  0
 32 23  1  0  0  0  0
 34 35  1  0  0  0  0
 34 33  1  0  0  0  0
 35 33  1  0  0  0  0
 37 36  1  6  0  0  0
 37 38  1  0  0  0  0
 39 38  1  0  0  0  0
 39 40  1  0  0  0  0
 41 42  1  0  0  0  0
 42 22  1  1  0  0  0
 43 46  1  6  0  0  0
 43 42  1  0  0  0  0
 44 45  1  0  0  0  0
 44 41  1  0  0  0  0
 45 43  1  0  0  0  0
 47 46  1  0  0  0  0
 48 47  1  0  0  0  0
 49 48  1  0  0  0  0
 50 49  1  6  0  0  0
 52 51  1  1  0  0  0
 52 53  1  0  0  0  0
 53 54  1  0  0  0  0
 55 54  1  0  0  0  0
 56 55  2  0  0  0  0
 56 50  1  0  0  0  0
 57 51  1  1  0  0  0
 57 52  1  0  0  0  0
 57 55  1  0  0  0  0
 58 61  1  6  0  0  0
 58 59  1  0  0  0  0
 60 50  1  1  0  0  0
 60 58  1  0  0  0  0
 60 59  1  0  0  0  0
 61 63  1  0  0  0  0
 62 61  1  0  0  0  0
 64 63  2  0  0  0  0
 65 62  2  0  0  0  0
 65 64  1  0  0  0  0
 66 67  1  6  0  0  0
 66 70  1  0  0  0  0
 68 70  1  0  0  0  0
 70 69  2  0  0  0  0
M  END
>  <MODEL>
2

>  <REMARK>
 VINA RESULT:      -6.5      5.487     10.415
  Name = 
  16 active torsions:
  status: ('A' for Active; 'I' for Inactive)
    1  A    between atoms: C_9  and  N_49
    2  A    between atoms: C_9  and  C_61
    3  A    between atoms: C_9  and  C_70
    4  A    between atoms: C_10  and  C_57
    5  A    between atoms: C_11  and  C_66
    6  A    between atoms: N_12  and  C_55
    7  A    between atoms: C_17  and  C_51
    8  A    between atoms: C_18  and  N_24
    9  A    between atoms: C_20  and  C_26
   10  A    between atoms: C_26  and  C_44
   11  A    between atoms: C_27  and  C_54
   12  A    between atoms: C_27  and  C_56
   13  A    between atoms: C_33  and  C_63
   14  A    between atoms: O_38  and  C_44
   15  A    between atoms: O_38  and  C_61
   16  A    between atoms: C_57  and  C_63
                            x       y       z     vdW  Elec       q    Type
                         _______ _______ _______ _____ _____    ______ ____

>  <TORSDO>
F 16

$$$$
=
 OpenBabel11062421453D

 70 78  0  0  1  0  0  0  0  0999 V2000
  189.0250  174.0500  140.8400 C   0  0  0  0  0  3  0  0  0  0  0  0
  191.6830  172.2650  136.5620 O   0  0  0  0  0  0  0  0  0  0  0  0
  190.5660  170.7580  135.1660 O   0  0  0  0  0  1  0  0  0  0  0  0
  192.7210  176.2210  142.8550 C   0  0  0  0  0  2  0  0  0  0  0  0
  193.1080  173.0200  140.8440 N   0  0  0  0  0  0  0  0  0  0  0  0
  189.4110  171.5790  137.0970 C   0  0  0  0  0  2  0  0  0  0  0  0
  193.3400  175.3190  141.7690 C   0  0  0  0  0  2  0  0  0  0  0  0
  192.8750  173.6740  138.6110 O   0  0  0  0  0  0  0  0  0  0  0  0
  190.4300  175.0740  142.5980 C   0  0  2  0  0  3  0  0  0  0  0  0
  192.4630  171.2000  136.6880 O   0  0  0  0  0  0  0  0  0  0  0  0
  192.3870  174.2070  141.3070 C   0  0  2  0  0  3  0  0  0  0  0  0
  188.2050  172.8730  138.8990 C   0  0  0  0  0  2  0  0  0  0  0  0
  189.4760  175.1730  141.5370 O   0  0  0  0  0  0  0  0  0  0  0  0
  193.1200  172.7410  139.4260 C   0  0  0  0  0  0  0  0  0  0  0  0
  189.5300  172.5950  138.2170 C   0  0  0  0  0  2  0  0  0  0  0  0
  191.2080  176.4040  142.6680 C   0  0  0  0  0  2  0  0  0  0  0  0
  189.9170  173.0280  135.1600 C   0  0  0  0  0  1  0  0  0  0  0  0
  190.4370  171.8760  135.9980 C   0  0  1  0  0  0  0  0  0  0  0  0
  192.3550  170.7780  138.0260 C   0  0  2  0  0  3  0  0  0  0  0  0
  193.4700  171.3820  138.8880 C   0  0  0  0  0  2  0  0  0  0  0  0
  191.3660  173.8700  142.3940 C   0  0  0  0  0  2  0  0  0  0  0  0
  188.3770  174.1380  139.6780 C   0  0  0  0  0  0  0  0  0  0  0  0
  193.7700  170.0110  143.0170 O   0  0  0  0  0  0  0  0  0  0  0  0
  191.7510  170.6080  141.7650 C   0  0  0  0  0  1  0  0  0  0  0  0
  194.2750  170.9410  145.1860 C   0  0  0  0  0  2  0  0  0  0  0  0
  194.6570  172.4040  144.9780 C   0  0  0  0  0  2  0  0  0  0  0  0
  195.8720  172.5920  144.0630 C   0  0  2  0  0  3  0  0  0  0  0  0
  195.8630  171.6920  142.9870 O   0  0  0  0  0  0  0  0  0  0  0  0
  193.1950  170.5280  144.1950 C   0  0  0  0  0  2  0  0  0  0  0  0
  195.3090  172.3750  141.8910 C   0  0  2  0  0  3  0  0  0  0  0  0
  193.7770  172.1820  141.8540 C   0  0  2  0  0  3  0  0  0  0  0  0
  193.2750  170.7220  141.8970 C   0  0  1  0  0  3  0  0  0  0  0  0
  195.9880  171.9990  140.5630 C   0  0  0  0  0  3  0  0  0  0  0  0
  196.6140  173.2100  139.8990 C   0  0  0  0  0  2  0  0  0  0  0  0
  197.4950  172.1860  140.5900 C   0  0  0  0  0  2  0  0  0  0  0  0
  196.9550  172.6920  146.3470 C   0  0  0  0  0  1  0  0  0  0  0  0
  197.1820  172.5020  144.8500 C   0  0  1  0  0  3  0  0  0  0  0  0
  197.8580  171.1680  144.5710 C   0  0  0  0  0  2  0  0  0  0  0  0
  197.6100  170.1910  145.7050 C   0  0  0  0  0  2  0  0  0  0  0  0
  197.2250  168.9590  145.1810 O   0  0  0  0  0  1  0  0  0  0  0  0
  187.4890  175.3050  137.7430 N   0  0  0  0  0  2  0  0  0  0  0  0
  188.0450  175.4810  139.0670 C   0  0  1  0  0  3  0  0  0  0  0  0
  186.9910  176.2190  139.8360 C   0  0  2  0  0  3  0  0  0  0  0  0
  186.4720  176.2650  137.5860 N   0  0  0  0  0  2  0  0  0  0  0  0
  186.0200  176.6710  138.8610 N   0  0  0  0  0  2  0  0  0  0  0  0
  187.5780  177.4060  140.5780 C   0  0  0  0  0  2  0  0  0  0  0  0
  187.1690  177.3450  142.0380 C   0  0  0  0  0  2  0  0  0  0  0  0
  186.5510  176.1240  142.3060 O   0  0  0  0  0  0  0  0  0  0  0  0
  185.6850  176.3920  143.3690 C   0  0  0  0  0  2  0  0  0  0  0  0
  185.0790  177.7750  143.1950 C   0  0  2  0  0  3  0  0  0  0  0  0
  185.9250  179.3670  147.5070 C   0  0  0  0  0  2  0  0  0  0  0  0
  185.8660  177.8920  147.8600 C   0  0  2  0  0  3  0  0  0  0  0  0
  186.8450  177.0860  146.9920 C   0  0  0  0  0  2  0  0  0  0  0  0
  186.3620  177.1740  145.6660 O   0  0  0  0  0  0  0  0  0  0  0  0
  185.2490  177.9810  145.5990 C   0  0  0  0  0  0  0  0  0  0  0  0
  184.6320  178.2640  144.4930 N   0  0  0  0  0  0  0  0  0  0  0  0
  184.8300  178.5020  146.9150 C   0  0  2  0  0  3  0  0  0  0  0  0
  183.1830  179.0000  142.3020 C   0  0  2  0  0  3  0  0  0  0  0  0
  184.0480  178.7050  141.1480 N   0  0  0  0  0  2  0  0  0  0  0  0
  183.8960  177.7210  142.2310 C   0  0  1  0  0  3  0  0  0  0  0  0
  181.7820  178.8080  141.9460 N   0  0  0  0  0  0  0  0  0  0  0  0
  180.7250  179.3940  142.5400 C   0  0  0  0  0  3  0  0  0  0  0  0
  181.3290  177.9390  141.0300 C   0  0  0  0  0  3  0  0  0  0  0  0
  179.9470  177.9790  141.0160 C   0  0  0  0  0  3  0  0  0  0  0  0
  179.5640  178.9050  141.9730 C   0  0  0  0  0  3  0  0  0  0  0  0
  192.3710  169.2460  138.0470 C   0  0  2  0  0  3  0  0  0  0  0  0
  193.1230  168.6510  136.8720 C   0  0  0  0  0  1  0  0  0  0  0  0
  190.3880  168.5520  139.4800 N   0  0  0  0  0  1  0  0  0  0  0  0
  190.4190  168.1700  137.1900 O   0  0  0  0  0  0  0  0  0  0  0  0
  191.0100  168.6350  138.2010 C   0  0  0  0  0  0  0  0  0  0  0  0
  1 13  1  0  0  0  0
  2 10  1  0  0  0  0
  3 18  1  0  0  0  0
  5 11  1  0  0  0  0
  6 15  1  0  0  0  0
  7  4  1  0  0  0  0
  8 14  2  0  0  0  0
  9 21  1  6  0  0  0
  9 16  1  0  0  0  0
 10 19  1  0  0  0  0
 11  7  1  1  0  0  0
 11 21  1  0  0  0  0
 12 22  1  0  0  0  0
 13  9  1  0  0  0  0
 14  5  1  0  0  0  0
 15 12  1  0  0  0  0
 16  4  1  0  0  0  0
 18 17  1  6  0  0  0
 18  2  1  0  0  0  0
 18  6  1  0  0  0  0
 19 66  1  6  0  0  0
 19 20  1  0  0  0  0
 20 14  1  0  0  0  0
 22  1  2  0  0  0  0
 23 29  1  0  0  0  0
 26 25  1  0  0  0  0
 27 37  1  1  0  0  0
 27 26  1  0  0  0  0
 28 27  1  0  0  0  0
 29 25  1  0  0  0  0
 30 33  1  6  0  0  0
 30 28  1  0  0  0  0
 31  5  1  6  0  0  0
 31 30  1  0  0  0  0
 31 32  1  0  0  0  0
 32 24  1  1  0  0  0
 32 23  1  0  0  0  0
 33 35  1  0  0  0  0
 34 33  1  0  0  0  0
 34 35  1  0  0  0  0
 37 36  1  1  0  0  0
 38 37  1  0  0  0  0
 38 39  1  0  0  0  0
 40 39  1  0  0  0  0
 41 42  1  0  0  0  0
 42 22  1  1  0  0  0
 42 43  1  0  0  0  0
 43 46  1  6  0  0  0
 44 41  1  0  0  0  0
 44 45  1  0  0  0  0
 45 43  1  0  0  0  0
 46 47  1  0  0  0  0
 47 48  1  0  0  0  0
 48 49  1  0  0  0  0
 50 49  1  1  0  0  0
 50 56  1  0  0  0  0
 51 52  1  0  0  0  0
 52 53  1  6  0  0  0
 54 53  1  0  0  0  0
 55 54  1  0  0  0  0
 55 57  1  0  0  0  0
 56 55  2  0  0  0  0
 57 51  1  6  0  0  0
 57 52  1  0  0  0  0
 58 61  1  6  0  0  0
 59 60  1  0  0  0  0
 59 58  1  0  0  0  0
 60 58  1  0  0  0  0
 60 50  1  1  0  0  0
 61 62  1  0  0  0  0
 63 61  1  0  0  0  0
 64 63  2  0  0  0  0
 64 65  1  0  0  0  0
 65 62  2  0  0  0  0
 66 67  1  6  0  0  0
 66 70  1  0  0  0  0
 69 70  2  0  0  0  0
 70 68  1  0  0  0  0
M  END
>  <MODEL>
3

>  <REMARK>
 VINA RESULT:      -6.2      2.979      7.376
  Name = 
  16 active torsions:
  status: ('A' for Active; 'I' for Inactive)
    1  A    between atoms: C_9  and  N_49
    2  A    between atoms: C_9  and  C_61
    3  A    between atoms: C_9  and  C_70
    4  A    between atoms: C_10  and  C_57
    5  A    between atoms: C_11  and  C_66
    6  A    between atoms: N_12  and  C_55
    7  A    between atoms: C_17  and  C_51
    8  A    between atoms: C_18  and  N_24
    9  A    between atoms: C_20  and  C_26
   10  A    between atoms: C_26  and  C_44
   11  A    between atoms: C_27  and  C_54
   12  A    between atoms: C_27  and  C_56
   13  A    between atoms: C_33  and  C_63
   14  A    between atoms: O_38  and  C_44
   15  A    between atoms: O_38  and  C_61
   16  A    between atoms: C_57  and  C_63
                            x       y       z     vdW  Elec       q    Type
                         _______ _______ _______ _____ _____    ______ ____

>  <TORSDO>
F 16

$$$$
=
 OpenBabel11062421453D

 70 78  0  0  1  0  0  0  0  0999 V2000
  191.4250  171.0480  142.4920 C   0  0  0  0  0  3  0  0  0  0  0  0
  195.3680  174.6130  141.9430 O   0  0  0  0  0  0  0  0  0  0  0  0
  197.5030  173.9530  142.6290 O   0  0  0  0  0  1  0  0  0  0  0  0
  187.9010  174.0360  141.4490 C   0  0  0  0  0  2  0  0  0  0  0  0
  191.0290  175.1640  143.2880 N   0  0  0  0  0  0  0  0  0  0  0  0
  195.7070  172.3850  142.8630 C   0  0  0  0  0  2  0  0  0  0  0  0
  189.1210  174.9430  141.7050 C   0  0  0  0  0  2  0  0  0  0  0  0
  192.6990  175.2440  141.6530 O   0  0  0  0  0  0  0  0  0  0  0  0
  189.1390  171.9870  142.3960 C   0  0  2  0  0  3  0  0  0  0  0  0
  195.5860  175.4860  142.9180 O   0  0  0  0  0  0  0  0  0  0  0  0
  190.2350  174.2320  142.4870 C   0  0  2  0  0  3  0  0  0  0  0  0
  193.8140  170.7330  142.6210 C   0  0  0  0  0  2  0  0  0  0  0  0
  190.2090  171.2280  141.8280 O   0  0  0  0  0  0  0  0  0  0  0  0
  192.3760  175.4580  142.8550 C   0  0  0  0  0  0  0  0  0  0  0  0
  194.2480  172.1800  142.5030 C   0  0  0  0  0  2  0  0  0  0  0  0
  188.2990  172.5680  141.2410 C   0  0  0  0  0  2  0  0  0  0  0  0
  196.5970  173.0360  140.6510 C   0  0  0  0  0  1  0  0  0  0  0  0
  196.2980  173.5420  142.0490 C   0  0  1  0  0  0  0  0  0  0  0  0
  194.6520  175.2000  143.9300 C   0  0  2  0  0  3  0  0  0  0  0  0
  193.3930  176.0630  143.7820 C   0  0  0  0  0  2  0  0  0  0  0  0
  189.6720  173.0870  143.3300 C   0  0  0  0  0  2  0  0  0  0  0  0
  192.5220  170.6070  141.8770 C   0  0  0  0  0  0  0  0  0  0  0  0
  190.4450  175.8540  146.9490 O   0  0  0  0  0  0  0  0  0  0  0  0
  191.7210  174.0490  145.8920 C   0  0  0  0  0  1  0  0  0  0  0  0
  188.0460  175.7750  147.1960 C   0  0  0  0  0  2  0  0  0  0  0  0
  187.4380  175.9570  145.8070 C   0  0  0  0  0  2  0  0  0  0  0  0
  187.8250  177.2810  145.1410 C   0  0  2  0  0  3  0  0  0  0  0  0
  189.1630  177.6230  145.3900 O   0  0  0  0  0  0  0  0  0  0  0  0
  189.3460  174.9860  147.1060 C   0  0  0  0  0  2  0  0  0  0  0  0
  189.9050  177.1930  144.2770 C   0  0  2  0  0  3  0  0  0  0  0  0
  190.4050  175.7470  144.4880 C   0  0  2  0  0  3  0  0  0  0  0  0
  191.1810  175.4810  145.7970 C   0  0  1  0  0  3  0  0  0  0  0  0
  191.0400  178.1680  143.9180 C   0  0  0  0  0  3  0  0  0  0  0  0
  190.9530  178.6090  142.4690 C   0  0  0  0  0  2  0  0  0  0  0  0
  190.5420  179.5620  143.5760 C   0  0  0  0  0  2  0  0  0  0  0  0
  186.3120  179.1470  144.3470 C   0  0  0  0  0  1  0  0  0  0  0  0
  186.8780  178.4110  145.5570 C   0  0  1  0  0  3  0  0  0  0  0  0
  185.7580  177.8500  146.4210 C   0  0  0  0  0  2  0  0  0  0  0  0
  185.5300  178.7240  147.6400 C   0  0  0  0  0  2  0  0  0  0  0  0
  186.7520  178.9930  148.2530 O   0  0  0  0  0  1  0  0  0  0  0  0
  193.8430  170.2000  139.8810 N   0  0  0  0  0  2  0  0  0  0  0  0
  192.4980  170.2210  140.4150 C   0  0  1  0  0  3  0  0  0  0  0  0
  191.9710  168.8350  140.1940 C   0  0  2  0  0  3  0  0  0  0  0  0
  193.9200  169.1160  138.9870 N   0  0  0  0  0  2  0  0  0  0  0  0
  192.9110  168.1810  139.3070 N   0  0  0  0  0  2  0  0  0  0  0  0
  190.5900  168.8640  139.5620 C   0  0  0  0  0  2  0  0  0  0  0  0
  190.5120  170.0070  138.5660 C   0  0  0  0  0  2  0  0  0  0  0  0
  190.9290  169.5680  137.3090 O   0  0  0  0  0  0  0  0  0  0  0  0
  190.3560  170.4720  136.4120 C   0  0  0  0  0  2  0  0  0  0  0  0
  191.0630  171.8140  136.5200 C   0  0  2  0  0  3  0  0  0  0  0  0
  189.4310  176.0040  135.2460 C   0  0  0  0  0  2  0  0  0  0  0  0
  188.1060  175.4160  135.6930 C   0  0  2  0  0  3  0  0  0  0  0  0
  188.2040  174.8900  137.1340 C   0  0  0  0  0  2  0  0  0  0  0  0
  189.1050  173.8000  137.0970 O   0  0  0  0  0  0  0  0  0  0  0  0
  189.6200  173.6300  135.8320 C   0  0  0  0  0  0  0  0  0  0  0  0
  190.5020  172.7260  135.5320 N   0  0  0  0  0  0  0  0  0  0  0  0
  189.0740  174.5860  134.8480 C   0  0  2  0  0  3  0  0  0  0  0  0
  192.7620  171.2770  134.8730 C   0  0  2  0  0  3  0  0  0  0  0  0
  193.0560  172.6490  135.3170 N   0  0  0  0  0  2  0  0  0  0  0  0
  192.5610  171.6490  136.2760 C   0  0  1  0  0  3  0  0  0  0  0  0
  193.9980  170.5150  134.7320 N   0  0  0  0  0  0  0  0  0  0  0  0
  194.1330  169.1860  134.8960 C   0  0  0  0  0  3  0  0  0  0  0  0
  195.2120  171.0440  134.5130 C   0  0  0  0  0  3  0  0  0  0  0  0
  196.1510  170.0310  134.5130 C   0  0  0  0  0  3  0  0  0  0  0  0
  195.4660  168.8500  134.7540 C   0  0  0  0  0  3  0  0  0  0  0  0
  195.3380  175.4030  145.2850 C   0  0  2  0  0  3  0  0  0  0  0  0
  195.4240  174.1230  146.0950 C   0  0  0  0  0  1  0  0  0  0  0  0
  194.9660  177.8840  145.7030 N   0  0  0  0  0  1  0  0  0  0  0  0
  194.0930  176.2720  147.1280 O   0  0  0  0  0  0  0  0  0  0  0  0
  194.7560  176.5280  146.0890 C   0  0  0  0  0  0  0  0  0  0  0  0
  2 18  1  0  0  0  0
  2 10  1  0  0  0  0
  4  7  1  0  0  0  0
  8 14  2  0  0  0  0
  9 16  1  6  0  0  0
  9 21  1  0  0  0  0
 10 19  1  0  0  0  0
 11  7  1  1  0  0  0
 11  5  1  0  0  0  0
 11 21  1  0  0  0  0
 13  9  1  0  0  0  0
 13  1  1  0  0  0  0
 14  5  1  0  0  0  0
 14 20  1  0  0  0  0
 15 12  1  0  0  0  0
 15  6  1  0  0  0  0
 16  4  1  0  0  0  0
 18 17  1  6  0  0  0
 18  3  1  0  0  0  0
 18  6  1  0  0  0  0
 19 66  1  1  0  0  0
 20 19  1  0  0  0  0
 22  1  2  0  0  0  0
 22 12  1  0  0  0  0
 23 29  1  0  0  0  0
 26 25  1  0  0  0  0
 27 28  1  0  0  0  0
 27 37  1  1  0  0  0
 27 26  1  0  0  0  0
 29 25  1  0  0  0  0
 30 33  1  1  0  0  0
 30 31  1  0  0  0  0
 30 28  1  0  0  0  0
 31  5  1  6  0  0  0
 31 32  1  0  0  0  0
 32 24  1  1  0  0  0
 32 23  1  0  0  0  0
 34 35  1  0  0  0  0
 34 33  1  0  0  0  0
 35 33  1  0  0  0  0
 37 36  1  6  0  0  0
 37 38  1  0  0  0  0
 38 39  1  0  0  0  0
 39 40  1  0  0  0  0
 41 42  1  0  0  0  0
 42 22  1  1  0  0  0
 43 46  1  6  0  0  0
 43 42  1  0  0  0  0
 44 45  1  0  0  0  0
 44 41  1  0  0  0  0
 45 43  1  0  0  0  0
 47 46  1  0  0  0  0
 48 47  1  0  0  0  0
 49 48  1  0  0  0  0
 50 49  1  6  0  0  0
 52 51  1  1  0  0  0
 52 53  1  0  0  0  0
 54 53  1  0  0  0  0
 55 54  1  0  0  0  0
 56 55  2  0  0  0  0
 56 50  1  0  0  0  0
 57 51  1  1  0  0  0
 57 52  1  0  0  0  0
 57 55  1  0  0  0  0
 58 61  1  1  0  0  0
 58 59  1  0  0  0  0
 58 60  1  0  0  0  0
 59 60  1  0  0  0  0
 60 50  1  6  0  0  0
 61 62  1  0  0  0  0
 63 64  2  0  0  0  0
 63 61  1  0  0  0  0
 64 65  1  0  0  0  0
 65 62  2  0  0  0  0
 66 70  1  0  0  0  0
 66 67  1  1  0  0  0
 68 70  1  0  0  0  0
 70 69  2  0  0  0  0
M  END
>  <MODEL>
4

>  <REMARK>
 VINA RESULT:      -6.0      5.270     11.086
  Name = 
  16 active torsions:
  status: ('A' for Active; 'I' for Inactive)
    1  A    between atoms: C_9  and  N_49
    2  A    between atoms: C_9  and  C_61
    3  A    between atoms: C_9  and  C_70
    4  A    between atoms: C_10  and  C_57
    5  A    between atoms: C_11  and  C_66
    6  A    between atoms: N_12  and  C_55
    7  A    between atoms: C_17  and  C_51
    8  A    between atoms: C_18  and  N_24
    9  A    between atoms: C_20  and  C_26
   10  A    between atoms: C_26  and  C_44
   11  A    between atoms: C_27  and  C_54
   12  A    between atoms: C_27  and  C_56
   13  A    between atoms: C_33  and  C_63
   14  A    between atoms: O_38  and  C_44
   15  A    between atoms: O_38  and  C_61
   16  A    between atoms: C_57  and  C_63
                            x       y       z     vdW  Elec       q    Type
                         _______ _______ _______ _____ _____    ______ ____

>  <TORSDO>
F 16

$$$$
=
 OpenBabel11062421453D

 70 78  0  0  1  0  0  0  0  0999 V2000
  194.0270  175.8310  142.8440 C   0  0  0  0  0  3  0  0  0  0  0  0
  190.8790  171.5140  142.7820 O   0  0  0  0  0  0  0  0  0  0  0  0
  190.3560  170.6060  140.6920 O   0  0  0  0  0  1  0  0  0  0  0  0
  193.4870  176.7770  147.4530 C   0  0  0  0  0  2  0  0  0  0  0  0
  190.6890  175.2940  145.3540 N   0  0  0  0  0  0  0  0  0  0  0  0
  191.7610  172.5450  140.7620 C   0  0  0  0  0  2  0  0  0  0  0  0
  192.3700  175.7660  147.1270 C   0  0  0  0  0  2  0  0  0  0  0  0
  191.2930  173.0580  145.0290 O   0  0  0  0  0  0  0  0  0  0  0  0
  194.0010  177.1210  144.9530 C   0  0  2  0  0  3  0  0  0  0  0  0
  189.5630  171.6780  142.7730 O   0  0  0  0  0  0  0  0  0  0  0  0
  192.0780  175.6710  145.6230 C   0  0  2  0  0  3  0  0  0  0  0  0
  193.5660  174.2880  141.0470 C   0  0  0  0  0  2  0  0  0  0  0  0
  194.6450  176.2410  144.0280 O   0  0  0  0  0  0  0  0  0  0  0  0
  190.4290  173.9630  144.8560 C   0  0  0  0  0  0  0  0  0  0  0  0
  192.5110  173.4410  141.7300 C   0  0  0  0  0  2  0  0  0  0  0  0
  194.5640  176.8310  146.3600 C   0  0  0  0  0  2  0  0  0  0  0  0
  192.5390  170.3350  141.5490 C   0  0  0  0  0  1  0  0  0  0  0  0
  191.3330  171.2500  141.4610 C   0  0  1  0  0  0  0  0  0  0  0  0
  189.3300  173.0660  142.7610 C   0  0  2  0  0  3  0  0  0  0  0  0
  189.1340  173.6070  144.1820 C   0  0  0  0  0  2  0  0  0  0  0  0
  192.4710  176.9600  144.9020 C   0  0  0  0  0  2  0  0  0  0  0  0
  194.4700  174.8020  142.1210 C   0  0  0  0  0  0  0  0  0  0  0  0
  188.8330  178.0450  147.1440 O   0  0  0  0  0  0  0  0  0  0  0  0
  190.5630  176.5310  147.9920 C   0  0  0  0  0  1  0  0  0  0  0  0
  186.5130  177.4030  146.9810 C   0  0  0  0  0  2  0  0  0  0  0  0
  186.3970  176.3930  145.8420 C   0  0  0  0  0  2  0  0  0  0  0  0
  186.8550  176.9460  144.4880 C   0  0  2  0  0  3  0  0  0  0  0  0
  187.9880  177.7640  144.6110 O   0  0  0  0  0  0  0  0  0  0  0  0
  187.8370  177.2280  147.7130 C   0  0  0  0  0  2  0  0  0  0  0  0
  189.1020  176.9590  144.3200 C   0  0  2  0  0  3  0  0  0  0  0  0
  189.6410  176.2970  145.6080 C   0  0  2  0  0  3  0  0  0  0  0  0
  189.9480  177.2500  146.7840 C   0  0  1  0  0  3  0  0  0  0  0  0
  190.1900  177.7230  143.5450 C   0  0  0  0  0  3  0  0  0  0  0  0
  190.5440  177.0180  142.2490 C   0  0  0  0  0  2  0  0  0  0  0  0
  189.6980  178.2780  142.2200 C   0  0  0  0  0  2  0  0  0  0  0  0
  185.9160  179.1920  143.7980 C   0  0  0  0  0  1  0  0  0  0  0  0
  185.7170  177.6800  143.7730 C   0  0  1  0  0  3  0  0  0  0  0  0
  185.5980  177.1730  142.3430 C   0  0  0  0  0  2  0  0  0  0  0  0
  186.4010  178.0440  141.3950 C   0  0  0  0  0  2  0  0  0  0  0  0
  186.5000  177.4140  140.1570 O   0  0  0  0  0  1  0  0  0  0  0  0
  195.3600  172.8670  143.2860 N   0  0  0  0  0  2  0  0  0  0  0  0
  195.7160  174.0430  142.5220 C   0  0  1  0  0  3  0  0  0  0  0  0
  196.4790  173.5240  141.3410 C   0  0  2  0  0  3  0  0  0  0  0  0
  196.2410  171.8380  142.9010 N   0  0  0  0  0  2  0  0  0  0  0  0
  196.7650  172.1320  141.6240 N   0  0  0  0  0  2  0  0  0  0  0  0
  197.7720  174.2920  141.1380 C   0  0  0  0  0  2  0  0  0  0  0  0
  197.5980  175.2900  140.0070 C   0  0  0  0  0  2  0  0  0  0  0  0
  197.4550  174.6120  138.7960 O   0  0  0  0  0  0  0  0  0  0  0  0
  196.4180  175.2790  138.1400 C   0  0  0  0  0  2  0  0  0  0  0  0
  195.9090  174.4230  136.9910 C   0  0  2  0  0  3  0  0  0  0  0  0
  191.5290  173.1690  135.9510 C   0  0  0  0  0  2  0  0  0  0  0  0
  191.2180  174.5890  136.3850 C   0  0  2  0  0  3  0  0  0  0  0  0
  192.0740  175.5970  135.6020 C   0  0  0  0  0  2  0  0  0  0  0  0
  193.4130  175.3680  135.9950 O   0  0  0  0  0  0  0  0  0  0  0  0
  193.4950  174.3090  136.8710 C   0  0  0  0  0  0  0  0  0  0  0  0
  194.6140  173.8630  137.3550 N   0  0  0  0  0  0  0  0  0  0  0  0
  192.1810  173.7240  137.2010 C   0  0  2  0  0  3  0  0  0  0  0  0
  196.4400  172.5980  135.4830 C   0  0  2  0  0  3  0  0  0  0  0  0
  197.5850  173.5210  135.4130 N   0  0  0  0  0  2  0  0  0  0  0  0
  196.8920  173.2940  136.6910 C   0  0  1  0  0  3  0  0  0  0  0  0
  196.9050  171.2160  135.5030 N   0  0  0  0  0  0  0  0  0  0  0  0
  197.5650  170.5860  134.5130 C   0  0  0  0  0  3  0  0  0  0  0  0
  196.6560  170.3300  136.4800 C   0  0  0  0  0  3  0  0  0  0  0  0
  197.1870  169.1050  136.1230 C   0  0  0  0  0  3  0  0  0  0  0  0
  197.7660  169.2680  134.8750 C   0  0  0  0  0  3  0  0  0  0  0  0
  188.1190  173.3400  141.8630 C   0  0  2  0  0  3  0  0  0  0  0  0
  187.0400  172.2820  141.9950 C   0  0  0  0  0  1  0  0  0  0  0  0
  188.1440  172.6380  139.4190 N   0  0  0  0  0  1  0  0  0  0  0  0
  189.1060  174.6330  140.1150 O   0  0  0  0  0  0  0  0  0  0  0  0
  188.4800  173.5860  140.4280 C   0  0  0  0  0  0  0  0  0  0  0  0
  1 13  1  0  0  0  0
  3 18  1  0  0  0  0
  5 11  1  0  0  0  0
  6 18  1  0  0  0  0
  6 15  1  0  0  0  0
  7  4  1  0  0  0  0
  9 21  1  1  0  0  0
  9 16  1  0  0  0  0
 10  2  1  0  0  0  0
 11 21  1  6  0  0  0
 11  7  1  0  0  0  0
 12 15  1  0  0  0  0
 12 22  1  0  0  0  0
 13  9  1  0  0  0  0
 14  8  2  0  0  0  0
 14  5  1  0  0  0  0
 16  4  1  0  0  0  0
 18 17  1  1  0  0  0
 18  2  1  0  0  0  0
 19 66  1  6  0  0  0
 19 10  1  0  0  0  0
 19 20  1  0  0  0  0
 20 14  1  0  0  0  0
 22  1  2  0  0  0  0
 23 29  1  0  0  0  0
 25 29  1  0  0  0  0
 26 25  1  0  0  0  0
 27 37  1  1  0  0  0
 27 28  1  0  0  0  0
 27 26  1  0  0  0  0
 30 33  1  1  0  0  0
 30 28  1  0  0  0  0
 30 31  1  0  0  0  0
 31  5  1  6  0  0  0
 31 32  1  0  0  0  0
 32 23  1  0  0  0  0
 32 24  1  1  0  0  0
 34 33  1  0  0  0  0
 35 34  1  0  0  0  0
 35 33  1  0  0  0  0
 37 36  1  6  0  0  0
 38 37  1  0  0  0  0
 39 38  1  0  0  0  0
 40 39  1  0  0  0  0
 42 22  1  6  0  0  0
 42 41  1  0  0  0  0
 43 46  1  1  0  0  0
 43 45  1  0  0  0  0
 43 42  1  0  0  0  0
 44 41  1  0  0  0  0
 45 44  1  0  0  0  0
 47 46  1  0  0  0  0
 48 47  1  0  0  0  0
 49 48  1  0  0  0  0
 50 56  1  0  0  0  0
 50 49  1  1  0  0  0
 51 52  1  0  0  0  0
 52 53  1  6  0  0  0
 52 57  1  0  0  0  0
 53 54  1  0  0  0  0
 54 55  1  0  0  0  0
 55 57  1  0  0  0  0
 55 56  2  0  0  0  0
 57 51  1  6  0  0  0
 58 61  1  1  0  0  0
 58 60  1  0  0  0  0
 59 58  1  0  0  0  0
 59 60  1  0  0  0  0
 60 50  1  6  0  0  0
 61 63  1  0  0  0  0
 62 65  2  0  0  0  0
 62 61  1  0  0  0  0
 64 63  2  0  0  0  0
 65 64  1  0  0  0  0
 66 67  1  6  0  0  0
 68 70  1  0  0  0  0
 69 70  2  0  0  0  0
 70 66  1  0  0  0  0
M  END
>  <MODEL>
5

>  <REMARK>
 VINA RESULT:      -5.6      4.803     12.286
  Name = 
  16 active torsions:
  status: ('A' for Active; 'I' for Inactive)
    1  A    between atoms: C_9  and  N_49
    2  A    between atoms: C_9  and  C_61
    3  A    between atoms: C_9  and  C_70
    4  A    between atoms: C_10  and  C_57
    5  A    between atoms: C_11  and  C_66
    6  A    between atoms: N_12  and  C_55
    7  A    between atoms: C_17  and  C_51
    8  A    between atoms: C_18  and  N_24
    9  A    between atoms: C_20  and  C_26
   10  A    between atoms: C_26  and  C_44
   11  A    between atoms: C_27  and  C_54
   12  A    between atoms: C_27  and  C_56
   13  A    between atoms: C_33  and  C_63
   14  A    between atoms: O_38  and  C_44
   15  A    between atoms: O_38  and  C_61
   16  A    between atoms: C_57  and  C_63
                            x       y       z     vdW  Elec       q    Type
                         _______ _______ _______ _____ _____    ______ ____

>  <TORSDO>
F 16

$$$$
=
 OpenBabel11062421453D

 70 78  0  0  1  0  0  0  0  0999 V2000
  191.3650  171.6170  144.1090 C   0  0  0  0  0  3  0  0  0  0  0  0
  194.5620  175.6400  142.6410 O   0  0  0  0  0  0  0  0  0  0  0  0
  196.6810  175.7300  143.6250 O   0  0  0  0  0  1  0  0  0  0  0  0
  187.4820  173.2490  141.9440 C   0  0  0  0  0  2  0  0  0  0  0  0
  190.0640  175.5720  143.4830 N   0  0  0  0  0  0  0  0  0  0  0  0
  195.2160  173.9450  144.2600 C   0  0  0  0  0  2  0  0  0  0  0  0
  188.4560  174.4440  141.9560 C   0  0  0  0  0  2  0  0  0  0  0  0
  191.8800  175.5240  142.0090 O   0  0  0  0  0  0  0  0  0  0  0  0
  188.9700  171.9310  143.5800 C   0  0  2  0  0  3  0  0  0  0  0  0
  194.4770  176.7960  143.2850 O   0  0  0  0  0  0  0  0  0  0  0  0
  189.5790  174.2820  142.9890 C   0  0  2  0  0  3  0  0  0  0  0  0
  193.7330  171.9110  144.4680 C   0  0  0  0  0  2  0  0  0  0  0  0
  190.2330  171.2990  143.3550 O   0  0  0  0  0  0  0  0  0  0  0  0
  191.3700  176.0180  143.0540 C   0  0  0  0  0  0  0  0  0  0  0  0
  193.8840  173.3100  143.9060 C   0  0  0  0  0  2  0  0  0  0  0  0
  188.1860  171.9200  142.2530 C   0  0  0  0  0  2  0  0  0  0  0  0
  196.2330  174.0670  142.0110 C   0  0  0  0  0  1  0  0  0  0  0  0
  195.6640  174.8960  143.1450 C   0  0  1  0  0  0  0  0  0  0  0  0
  193.4960  176.6310  144.2800 C   0  0  2  0  0  3  0  0  0  0  0  0
  192.1210  177.0950  143.7860 C   0  0  0  0  0  2  0  0  0  0  0  0
  189.1520  173.3570  144.1290 C   0  0  0  0  0  2  0  0  0  0  0  0
  192.5980  171.2700  143.7360 C   0  0  0  0  0  0  0  0  0  0  0  0
  188.9100  177.2330  146.6650 O   0  0  0  0  0  0  0  0  0  0  0  0
  190.6630  175.5520  146.3370 C   0  0  0  0  0  1  0  0  0  0  0  0
  186.5720  176.6560  146.8250 C   0  0  0  0  0  2  0  0  0  0  0  0
  186.1110  176.2300  145.4330 C   0  0  0  0  0  2  0  0  0  0  0  0
  186.2800  177.3240  144.3740 C   0  0  2  0  0  3  0  0  0  0  0  0
  187.4730  178.0430  144.5470 O   0  0  0  0  0  0  0  0  0  0  0  0
  188.0130  176.2210  147.0620 C   0  0  0  0  0  2  0  0  0  0  0  0
  188.4190  177.4730  143.6770 C   0  0  2  0  0  3  0  0  0  0  0  0
  189.1900  176.3380  144.3870 C   0  0  2  0  0  3  0  0  0  0  0  0
  189.8420  176.7020  145.7400 C   0  0  1  0  0  3  0  0  0  0  0  0
  189.3520  178.5270  143.0560 C   0  0  0  0  0  3  0  0  0  0  0  0
  189.2620  178.5210  141.5420 C   0  0  0  0  0  2  0  0  0  0  0  0
  188.6030  179.6340  142.3350 C   0  0  0  0  0  2  0  0  0  0  0  0
  185.4800  179.7210  144.5050 C   0  0  0  0  0  1  0  0  0  0  0  0
  185.0690  178.2610  144.3420 C   0  0  1  0  0  3  0  0  0  0  0  0
  184.2970  178.0570  143.0460 C   0  0  0  0  0  2  0  0  0  0  0  0
  185.2460  177.9370  141.8680 C   0  0  0  0  0  2  0  0  0  0  0  0
  184.6640  178.5150  140.7430 O   0  0  0  0  0  1  0  0  0  0  0  0
  194.2550  170.2440  142.2890 N   0  0  0  0  0  2  0  0  0  0  0  0
  192.8370  170.4570  142.4830 C   0  0  1  0  0  3  0  0  0  0  0  0
  192.2450  169.0830  142.5670 C   0  0  2  0  0  3  0  0  0  0  0  0
  194.4150  168.9370  141.7920 N   0  0  0  0  0  2  0  0  0  0  0  0
  193.2840  168.1680  142.1410 N   0  0  0  0  0  2  0  0  0  0  0  0
  191.0300  168.9490  141.6660 C   0  0  0  0  0  2  0  0  0  0  0  0
  191.2830  169.6790  140.3600 C   0  0  0  0  0  2  0  0  0  0  0  0
  192.0670  168.8870  139.5200 O   0  0  0  0  0  0  0  0  0  0  0  0
  191.7850  169.3510  138.2340 C   0  0  0  0  0  2  0  0  0  0  0  0
  191.9840  170.8570  138.1810 C   0  0  2  0  0  3  0  0  0  0  0  0
  189.6380  174.4410  136.3130 C   0  0  0  0  0  2  0  0  0  0  0  0
  188.5560  173.9920  137.2760 C   0  0  2  0  0  3  0  0  0  0  0  0
  189.0990  173.9240  138.7120 C   0  0  0  0  0  2  0  0  0  0  0  0
  190.0640  172.8900  138.7220 O   0  0  0  0  0  0  0  0  0  0  0  0
  190.2270  172.3570  137.4630 C   0  0  0  0  0  0  0  0  0  0  0  0
  191.0820  171.4210  137.1850 N   0  0  0  0  0  0  0  0  0  0  0  0
  189.3350  172.9640  136.4550 C   0  0  2  0  0  3  0  0  0  0  0  0
  193.8250  172.3940  138.5510 C   0  0  2  0  0  3  0  0  0  0  0  0
  194.3140  171.0740  138.9830 N   0  0  0  0  0  2  0  0  0  0  0  0
  193.4280  171.1920  137.8140 C   0  0  1  0  0  3  0  0  0  0  0  0
  194.8680  173.1040  137.8190 N   0  0  0  0  0  0  0  0  0  0  0  0
  194.7680  173.5890  136.5670 C   0  0  0  0  0  3  0  0  0  0  0  0
  196.1240  173.2960  138.2520 C   0  0  0  0  0  3  0  0  0  0  0  0
  196.8470  173.9390  137.2650 C   0  0  0  0  0  3  0  0  0  0  0  0
  195.9850  174.1270  136.1960 C   0  0  0  0  0  3  0  0  0  0  0  0
  193.9500  177.3940  145.5300 C   0  0  2  0  0  3  0  0  0  0  0  0
  195.3420  177.9810  145.3850 C   0  0  0  0  0  1  0  0  0  0  0  0
  194.3440  175.2850  146.8960 N   0  0  0  0  0  1  0  0  0  0  0  0
  193.2020  177.1030  147.7780 O   0  0  0  0  0  0  0  0  0  0  0  0
  193.8130  176.6030  146.7970 C   0  0  0  0  0  0  0  0  0  0  0  0
  2 18  1  0  0  0  0
  2 10  1  0  0  0  0
  4  7  1  0  0  0  0
  4 16  1  0  0  0  0
  8 14  2  0  0  0  0
  9 16  1  6  0  0  0
  9 21  1  0  0  0  0
 10 19  1  0  0  0  0
 11  7  1  6  0  0  0
 11  5  1  0  0  0  0
 11 21  1  0  0  0  0
 13  9  1  0  0  0  0
 13  1  1  0  0  0  0
 14  5  1  0  0  0  0
 14 20  1  0  0  0  0
 15  6  1  0  0  0  0
 15 12  1  0  0  0  0
 18 17  1  6  0  0  0
 18  3  1  0  0  0  0
 18  6  1  0  0  0  0
 19 66  1  1  0  0  0
 20 19  1  0  0  0  0
 22  1  2  0  0  0  0
 22 12  1  0  0  0  0
 23 29  1  0  0  0  0
 25 29  1  0  0  0  0
 26 25  1  0  0  0  0
 27 37  1  1  0  0  0
 27 28  1  0  0  0  0
 27 26  1  0  0  0  0
 30 33  1  1  0  0  0
 30 31  1  0  0  0  0
 30 28  1  0  0  0  0
 31  5  1  6  0  0  0
 31 32  1  0  0  0  0
 32 24  1  1  0  0  0
 32 23  1  0  0  0  0
 34 35  1  0  0  0  0
 34 33  1  0  0  0  0
 35 33  1  0  0  0  0
 37 36  1  6  0  0  0
 38 37  1  0  0  0  0
 39 38  1  0  0  0  0
 40 39  1  0  0  0  0
 41 42  1  0  0  0  0
 42 43  1  0  0  0  0
 42 22  1  1  0  0  0
 43 46  1  6  0  0  0
 44 45  1  0  0  0  0
 44 41  1  0  0  0  0
 45 43  1  0  0  0  0
 47 46  1  0  0  0  0
 48 47  1  0  0  0  0
 49 48  1  0  0  0  0
 50 49  1  6  0  0  0
 52 51  1  6  0  0  0
 52 53  1  0  0  0  0
 53 54  1  0  0  0  0
 55 54  1  0  0  0  0
 56 55  2  0  0  0  0
 56 50  1  0  0  0  0
 57 51  1  6  0  0  0
 57 52  1  0  0  0  0
 57 55  1  0  0  0  0
 58 61  1  6  0  0  0
 58 59  1  0  0  0  0
 60 50  1  1  0  0  0
 60 58  1  0  0  0  0
 60 59  1  0  0  0  0
 61 63  1  0  0  0  0
 62 61  1  0  0  0  0
 64 63  2  0  0  0  0
 65 62  2  0  0  0  0
 65 64  1  0  0  0  0
 66 67  1  6  0  0  0
 66 70  1  0  0  0  0
 70 68  1  0  0  0  0
 70 69  2  0  0  0  0
M  END
>  <MODEL>
6

>  <REMARK>
 VINA RESULT:      -5.6      4.320     10.915
  Name = 
  16 active torsions:
  status: ('A' for Active; 'I' for Inactive)
    1  A    between atoms: C_9  and  N_49
    2  A    between atoms: C_9  and  C_61
    3  A    between atoms: C_9  and  C_70
    4  A    between atoms: C_10  and  C_57
    5  A    between atoms: C_11  and  C_66
    6  A    between atoms: N_12  and  C_55
    7  A    between atoms: C_17  and  C_51
    8  A    between atoms: C_18  and  N_24
    9  A    between atoms: C_20  and  C_26
   10  A    between atoms: C_26  and  C_44
   11  A    between atoms: C_27  and  C_54
   12  A    between atoms: C_27  and  C_56
   13  A    between atoms: C_33  and  C_63
   14  A    between atoms: O_38  and  C_44
   15  A    between atoms: O_38  and  C_61
   16  A    between atoms: C_57  and  C_63
                            x       y       z     vdW  Elec       q    Type
                         _______ _______ _______ _____ _____    ______ ____

>  <TORSDO>
F 16

$$$$
=
 OpenBabel11062421453D

 70 79  0  0  1  0  0  0  0  0999 V2000
  190.8380  173.9740  144.3240 C   0  0  0  0  0  3  0  0  0  0  0  0
  190.7900  173.1150  139.0500 O   0  0  0  0  0  0  0  0  0  0  0  0
  189.2240  171.5830  138.2350 O   0  0  0  0  0  1  0  0  0  0  0  0
  194.8150  176.5460  144.3750 C   0  0  0  0  0  2  0  0  0  0  0  0
  194.2950  173.6790  141.9380 N   0  0  0  0  0  0  0  0  0  0  0  0
  189.2810  171.9920  140.5940 C   0  0  0  0  0  2  0  0  0  0  0  0
  194.7970  175.8790  142.9860 C   0  0  0  0  0  2  0  0  0  0  0  0
  192.7930  174.5000  140.3440 O   0  0  0  0  0  0  0  0  0  0  0  0
  192.8890  175.0470  145.1950 C   0  0  2  0  0  3  0  0  0  0  0  0
  191.5990  172.1960  138.5410 O   0  0  0  0  0  0  0  0  0  0  0  0
  193.8540  174.6690  142.9210 C   0  0  2  0  0  3  0  0  0  0  0  0
  189.1820  172.8700  142.9600 C   0  0  0  0  0  2  0  0  0  0  0  0
  191.5000  175.0830  144.8560 O   0  0  0  0  0  0  0  0  0  0  0  0
  193.5360  173.5490  140.7150 C   0  0  0  0  0  0  0  0  0  0  0  0
  189.9150  172.8970  141.6340 C   0  0  0  0  0  2  0  0  0  0  0  0
  193.4480  176.4790  145.0720 C   0  0  0  0  0  2  0  0  0  0  0  0
  188.4820  173.6930  138.9890 C   0  0  0  0  0  1  0  0  0  0  0  0
  189.4830  172.5730  139.1900 C   0  0  1  0  0  0  0  0  0  0  0  0
  192.2980  171.6310  139.6230 C   0  0  2  0  0  3  0  0  0  0  0  0
  193.6440  172.3320  139.8390 C   0  0  0  0  0  2  0  0  0  0  0  0
  193.6530  174.0520  144.3050 C   0  0  1  0  0  3  0  0  0  0  0  0
  189.6460  174.0620  143.7350 C   0  0  0  0  0  0  0  0  0  0  0  0
  197.9340  172.6970  142.0370 O   0  0  0  0  0  0  0  0  0  0  0  0
  196.8030  174.3270  140.5990 C   0  0  0  0  0  1  0  0  0  0  0  0
  197.9260  170.3290  141.5720 C   0  0  0  0  0  2  0  0  0  0  0  0
  196.5150  169.8150  141.8450 C   0  0  0  0  0  2  0  0  0  0  0  0
  196.0550  170.0380  143.2900 C   0  0  2  0  0  3  0  0  0  0  0  0
  196.4760  171.2790  143.7900 O   0  0  0  0  0  0  0  0  0  0  0  0
  197.8750  171.7420  141.0030 C   0  0  0  0  0  2  0  0  0  0  0  0
  195.4000  172.1680  143.6270 C   0  0  2  0  0  3  0  0  0  0  0  0
  195.4870  172.8740  142.2550 C   0  0  2  0  0  3  0  0  0  0  0  0
  196.8260  173.5740  141.9350 C   0  0  1  0  0  3  0  0  0  0  0  0
  195.2770  173.1580  144.7980 C   0  0  0  0  0  0  0  0  0  0  0  0
  195.7330  172.5310  146.1020 C   0  0  0  0  0  2  0  0  0  0  0  0
  196.6190  173.5420  145.3970 C   0  0  0  0  0  2  0  0  0  0  0  0
  197.7020  169.2870  145.0570 C   0  0  0  0  0  1  0  0  0  0  0  0
  196.5040  168.8920  144.2000 C   0  0  1  0  0  3  0  0  0  0  0  0
  195.3400  168.4420  145.0710 C   0  0  0  0  0  2  0  0  0  0  0  0
  194.0370  168.4950  144.2970 C   0  0  0  0  0  2  0  0  0  0  0  0
  193.3900  169.7010  144.5600 O   0  0  0  0  0  1  0  0  0  0  0  0
  188.9440  176.0530  144.9330 N   0  0  0  0  0  2  0  0  0  0  0  0
  188.9090  175.3800  143.6530 C   0  0  1  0  0  3  0  0  0  0  0  0
  189.5460  176.3380  142.6930 C   0  0  2  0  0  3  0  0  0  0  0  0
  189.0940  177.4290  144.6770 N   0  0  0  0  0  2  0  0  0  0  0  0
  189.6560  177.6010  143.3940 N   0  0  0  0  0  2  0  0  0  0  0  0
  188.7030  176.5070  141.4410 C   0  0  0  0  0  2  0  0  0  0  0  0
  187.6880  177.6140  141.6580 C   0  0  0  0  0  2  0  0  0  0  0  0
  186.3990  177.0790  141.6620 O   0  0  0  0  0  0  0  0  0  0  0  0
  185.5820  178.1260  141.2310 C   0  0  0  0  0  2  0  0  0  0  0  0
  184.4430  178.3230  142.2170 C   0  0  2  0  0  3  0  0  0  0  0  0
  184.5290  177.7460  146.8540 C   0  0  0  0  0  2  0  0  0  0  0  0
  185.9440  178.2720  146.7050 C   0  0  2  0  0  3  0  0  0  0  0  0
  185.9480  179.6200  145.9670 C   0  0  0  0  0  2  0  0  0  0  0  0
  185.5060  179.3520  144.6500 O   0  0  0  0  0  0  0  0  0  0  0  0
  185.1730  178.0240  144.5040 C   0  0  0  0  0  0  0  0  0  0  0  0
  184.6990  177.5200  143.4060 N   0  0  0  0  0  0  0  0  0  0  0  0
  185.4000  177.2290  145.7270 C   0  0  2  0  0  3  0  0  0  0  0  0
  182.5270  179.0690  140.9270 C   0  0  2  0  0  3  0  0  0  0  0  0
  183.1630  178.0120  140.1230 N   0  0  0  0  0  2  0  0  0  0  0  0
  183.1160  177.9020  141.5900 C   0  0  1  0  0  3  0  0  0  0  0  0
  181.0750  178.9340  140.8810 N   0  0  0  0  0  0  0  0  0  0  0  0
  180.2000  179.8970  140.5360 C   0  0  0  0  0  3  0  0  0  0  0  0
  180.3860  177.8510  141.2710 C   0  0  0  0  0  3  0  0  0  0  0  0
  179.0340  178.1120  141.1560 C   0  0  0  0  0  3  0  0  0  0  0  0
  178.9160  179.4110  140.6870 C   0  0  0  0  0  3  0  0  0  0  0  0
  192.4610  170.1300  139.3570 C   0  0  2  0  0  3  0  0  0  0  0  0
  192.4950  169.7980  137.8770 C   0  0  0  0  0  1  0  0  0  0  0  0
  191.6800  168.9290  141.4580 N   0  0  0  0  0  1  0  0  0  0  0  0
  190.4480  168.8530  139.4910 O   0  0  0  0  0  0  0  0  0  0  0  0
  191.4690  169.2800  140.0930 C   0  0  0  0  0  0  0  0  0  0  0  0
  1 13  1  0  0  0  0
  2 18  1  0  0  0  0
  3 18  1  0  0  0  0
  4 16  1  0  0  0  0
  5 11  1  0  0  0  0
  6 15  1  0  0  0  0
  7  4  1  0  0  0  0
  8 14  2  0  0  0  0
  9 16  1  6  0  0  0
 10  2  1  0  0  0  0
 10 19  1  0  0  0  0
 11  7  1  1  0  0  0
 11 21  1  0  0  0  0
 12 22  1  0  0  0  0
 13  9  1  0  0  0  0
 14  5  1  0  0  0  0
 15 12  1  0  0  0  0
 18 17  1  6  0  0  0
 18  6  1  0  0  0  0
 19 66  1  6  0  0  0
 19 20  1  0  0  0  0
 20 14  1  0  0  0  0
 21 33  1  1  0  0  0
 21  9  1  0  0  0  0
 22  1  2  0  0  0  0
 25 26  1  0  0  0  0
 26 27  1  0  0  0  0
 27 28  1  0  0  0  0
 27 37  1  1  0  0  0
 29 25  1  0  0  0  0
 29 23  1  0  0  0  0
 30 28  1  1  0  0  0
 30 33  1  0  0  0  0
 31  5  1  1  0  0  0
 31 30  1  0  0  0  0
 32 24  1  6  0  0  0
 32 23  1  0  0  0  0
 32 31  1  0  0  0  0
 33 35  1  0  0  0  0
 33 34  1  0  0  0  0
 35 34  1  0  0  0  0
 37 36  1  1  0  0  0
 37 38  1  0  0  0  0
 39 40  1  0  0  0  0
 39 38  1  0  0  0  0
 42 22  1  1  0  0  0
 42 41  1  0  0  0  0
 43 46  1  6  0  0  0
 43 45  1  0  0  0  0
 43 42  1  0  0  0  0
 44 41  1  0  0  0  0
 45 44  1  0  0  0  0
 46 47  1  0  0  0  0
 47 48  1  0  0  0  0
 49 48  1  0  0  0  0
 50 49  1  6  0  0  0
 50 56  1  0  0  0  0
 52 53  1  6  0  0  0
 52 51  1  0  0  0  0
 54 53  1  0  0  0  0
 55 54  1  0  0  0  0
 55 57  1  0  0  0  0
 56 55  2  0  0  0  0
 57 52  1  0  0  0  0
 57 51  1  1  0  0  0
 58 61  1  6  0  0  0
 58 60  1  0  0  0  0
 59 58  1  0  0  0  0
 59 60  1  0  0  0  0
 60 50  1  1  0  0  0
 61 63  1  0  0  0  0
 62 65  2  0  0  0  0
 62 61  1  0  0  0  0
 64 63  2  0  0  0  0
 65 64  1  0  0  0  0
 66 67  1  6  0  0  0
 66 70  1  0  0  0  0
 69 70  2  0  0  0  0
 70 68  1  0  0  0  0
M  END
>  <MODEL>
7

>  <REMARK>
 VINA RESULT:      -5.2      2.625      6.469
  Name = 
  16 active torsions:
  status: ('A' for Active; 'I' for Inactive)
    1  A    between atoms: C_9  and  N_49
    2  A    between atoms: C_9  and  C_61
    3  A    between atoms: C_9  and  C_70
    4  A    between atoms: C_10  and  C_57
    5  A    between atoms: C_11  and  C_66
    6  A    between atoms: N_12  and  C_55
    7  A    between atoms: C_17  and  C_51
    8  A    between atoms: C_18  and  N_24
    9  A    between atoms: C_20  and  C_26
   10  A    between atoms: C_26  and  C_44
   11  A    between atoms: C_27  and  C_54
   12  A    between atoms: C_27  and  C_56
   13  A    between atoms: C_33  and  C_63
   14  A    between atoms: O_38  and  C_44
   15  A    between atoms: O_38  and  C_61
   16  A    between atoms: C_57  and  C_63
                            x       y       z     vdW  Elec       q    Type
                         _______ _______ _______ _____ _____    ______ ____

>  <TORSDO>
F 16

$$$$
=
 OpenBabel11062421453D

 70 78  0  0  1  0  0  0  0  0999 V2000
  195.3460  172.2020  143.2920 C   0  0  0  0  0  3  0  0  0  0  0  0
  190.7420  173.2840  140.8050 O   0  0  0  0  0  0  0  0  0  0  0  0
  188.9560  171.8260  141.1890 O   0  0  0  0  0  1  0  0  0  0  0  0
  197.9340  175.4250  140.9800 C   0  0  0  0  0  2  0  0  0  0  0  0
  195.0620  173.5720  139.3210 N   0  0  0  0  0  0  0  0  0  0  0  0
  191.0390  171.3730  142.2820 C   0  0  0  0  0  2  0  0  0  0  0  0
  196.6310  175.3100  140.1640 C   0  0  0  0  0  2  0  0  0  0  0  0
  193.1240  174.5380  140.2040 O   0  0  0  0  0  0  0  0  0  0  0  0
  197.3370  173.3350  142.3600 C   0  0  2  0  0  3  0  0  0  0  0  0
  190.5490  172.8160  139.5790 O   0  0  0  0  0  0  0  0  0  0  0  0
  195.8550  174.0200  140.4670 C   0  0  2  0  0  3  0  0  0  0  0  0
  193.1390  171.3070  143.6810 C   0  0  0  0  0  2  0  0  0  0  0  0
  196.3490  173.1700  143.3810 O   0  0  0  0  0  0  0  0  0  0  0  0
  193.6260  173.7140  139.3890 C   0  0  0  0  0  0  0  0  0  0  0  0
  192.4110  171.9700  142.5290 C   0  0  0  0  0  2  0  0  0  0  0  0
  197.8040  174.8050  142.3790 C   0  0  0  0  0  2  0  0  0  0  0  0
  189.6250  173.3020  142.9060 C   0  0  0  0  0  1  0  0  0  0  0  0
  190.0830  172.4440  141.7430 C   0  0  1  0  0  0  0  0  0  0  0  0
  191.6990  172.0800  139.2420 C   0  0  2  0  0  3  0  0  0  0  0  0
  192.7080  172.9470  138.4790 C   0  0  0  0  0  2  0  0  0  0  0  0
  196.7860  172.9230  140.9830 C   0  0  0  0  0  2  0  0  0  0  0  0
  194.2610  172.2180  144.0660 C   0  0  0  0  0  0  0  0  0  0  0  0
  197.5140  173.3900  136.4620 O   0  0  0  0  0  0  0  0  0  0  0  0
  196.7120  175.3470  137.6990 C   0  0  0  0  0  1  0  0  0  0  0  0
  196.2570  172.3890  134.6620 C   0  0  0  0  0  2  0  0  0  0  0  0
  195.0500  171.6890  135.2810 C   0  0  0  0  0  2  0  0  0  0  0  0
  195.4290  170.5970  136.2880 C   0  0  2  0  0  3  0  0  0  0  0  0
  196.5270  170.9700  137.0780 O   0  0  0  0  0  0  0  0  0  0  0  0
  196.5880  173.6590  135.4340 C   0  0  0  0  0  2  0  0  0  0  0  0
  196.0070  171.4790  138.2800 C   0  0  2  0  0  3  0  0  0  0  0  0
  195.7780  173.0030  138.1670 C   0  0  2  0  0  3  0  0  0  0  0  0
  196.9900  173.8390  137.6990 C   0  0  1  0  0  3  0  0  0  0  0  0
  196.8660  171.0960  139.4970 C   0  0  0  0  0  3  0  0  0  0  0  0
  196.1980  170.0160  140.3270 C   0  0  0  0  0  2  0  0  0  0  0  0
  197.3780  169.6670  139.4390 C   0  0  0  0  0  2  0  0  0  0  0  0
  197.1580  168.8930  135.5780 C   0  0  0  0  0  1  0  0  0  0  0  0
  195.6770  169.2580  135.5890 C   0  0  1  0  0  3  0  0  0  0  0  0
  194.8570  168.1670  136.2630 C   0  0  0  0  0  2  0  0  0  0  0  0
  193.3740  168.3930  136.0370 C   0  0  0  0  0  2  0  0  0  0  0  0
  193.1280  168.5270  134.6720 O   0  0  0  0  0  1  0  0  0  0  0  0
  195.3510  173.6120  145.7280 N   0  0  0  0  0  2  0  0  0  0  0  0
  194.0770  173.2740  145.1340 C   0  0  1  0  0  3  0  0  0  0  0  0
  193.5490  174.5640  144.5840 C   0  0  2  0  0  3  0  0  0  0  0  0
  195.3430  174.9980  145.9710 N   0  0  0  0  0  2  0  0  0  0  0  0
  194.3930  175.6100  145.1250 N   0  0  0  0  0  2  0  0  0  0  0  0
  192.1050  174.7910  144.9960 C   0  0  0  0  0  2  0  0  0  0  0  0
  191.7600  176.2620  144.8470 C   0  0  0  0  0  2  0  0  0  0  0  0
  190.4310  176.4750  145.2150 O   0  0  0  0  0  0  0  0  0  0  0  0
  189.7330  176.5130  144.0060 C   0  0  0  0  0  2  0  0  0  0  0  0
  188.4270  177.2670  144.1950 C   0  0  2  0  0  3  0  0  0  0  0  0
  184.6550  176.6910  146.8930 C   0  0  0  0  0  2  0  0  0  0  0  0
  185.0690  178.0450  147.4380 C   0  0  2  0  0  3  0  0  0  0  0  0
  185.2120  179.0680  146.3010 C   0  0  0  0  0  2  0  0  0  0  0  0
  186.3010  178.6320  145.5110 O   0  0  0  0  0  0  0  0  0  0  0  0
  186.8050  177.4400  145.9820 C   0  0  0  0  0  0  0  0  0  0  0  0
  187.7810  176.7990  145.4150 N   0  0  0  0  0  0  0  0  0  0  0  0
  186.1160  176.9560  147.1950 C   0  0  2  0  0  3  0  0  0  0  0  0
  187.1490  178.3410  142.4330 C   0  0  2  0  0  3  0  0  0  0  0  0
  188.1300  177.4820  141.7490 N   0  0  0  0  0  2  0  0  0  0  0  0
  187.5010  177.0370  143.0030 C   0  0  1  0  0  3  0  0  0  0  0  0
  185.8540  178.2590  141.7680 N   0  0  0  0  0  0  0  0  0  0  0  0
  185.6400  178.3120  140.4390 C   0  0  0  0  0  3  0  0  0  0  0  0
  184.6660  178.2150  142.3900 C   0  0  0  0  0  3  0  0  0  0  0  0
  183.6610  178.2180  141.4420 C   0  0  0  0  0  3  0  0  0  0  0  0
  184.2800  178.2780  140.2030 C   0  0  0  0  0  3  0  0  0  0  0  0
  191.2630  170.8520  138.4360 C   0  0  2  0  0  3  0  0  0  0  0  0
  189.8040  170.9100  138.0240 C   0  0  0  0  0  1  0  0  0  0  0  0
  190.7970  168.3920  138.8830 N   0  0  0  0  0  1  0  0  0  0  0  0
  192.5910  169.4840  139.8740 O   0  0  0  0  0  0  0  0  0  0  0  0
  191.6000  169.5490  139.1000 C   0  0  0  0  0  0  0  0  0  0  0  0
  1 13  1  0  0  0  0
  1 22  2  0  0  0  0
  2 18  1  0  0  0  0
  3 18  1  0  0  0  0
  4 16  1  0  0  0  0
  5 14  1  0  0  0  0
  5 11  1  0  0  0  0
  6 15  1  0  0  0  0
  7  4  1  0  0  0  0
  9 21  1  6  0  0  0
  9 16  1  0  0  0  0
  9 13  1  0  0  0  0
 10  2  1  0  0  0  0
 11  7  1  6  0  0  0
 11 21  1  0  0  0  0
 12 22  1  0  0  0  0
 14  8  2  0  0  0  0
 15 12  1  0  0  0  0
 18  6  1  0  0  0  0
 18 17  1  1  0  0  0
 19 66  1  6  0  0  0
 19 10  1  0  0  0  0
 20 19  1  0  0  0  0
 20 14  1  0  0  0  0
 23 32  1  0  0  0  0
 25 26  1  0  0  0  0
 25 29  1  0  0  0  0
 26 27  1  0  0  0  0
 27 37  1  6  0  0  0
 27 28  1  0  0  0  0
 28 30  1  0  0  0  0
 29 23  1  0  0  0  0
 30 33  1  1  0  0  0
 31 30  1  0  0  0  0
 31  5  1  1  0  0  0
 32 24  1  6  0  0  0
 32 31  1  0  0  0  0
 33 34  1  0  0  0  0
 35 33  1  0  0  0  0
 35 34  1  0  0  0  0
 37 36  1  1  0  0  0
 37 38  1  0  0  0  0
 39 38  1  0  0  0  0
 40 39  1  0  0  0  0
 41 44  1  0  0  0  0
 42 22  1  6  0  0  0
 42 41  1  0  0  0  0
 43 46  1  1  0  0  0
 43 45  1  0  0  0  0
 43 42  1  0  0  0  0
 45 44  1  0  0  0  0
 47 46  1  0  0  0  0
 47 48  1  0  0  0  0
 49 48  1  0  0  0  0
 50 49  1  6  0  0  0
 50 56  1  0  0  0  0
 51 52  1  0  0  0  0
 52 53  1  6  0  0  0
 54 55  1  0  0  0  0
 54 53  1  0  0  0  0
 55 57  1  0  0  0  0
 56 55  2  0  0  0  0
 57 51  1  6  0  0  0
 57 52  1  0  0  0  0
 58 61  1  6  0  0  0
 58 60  1  0  0  0  0
 59 58  1  0  0  0  0
 59 60  1  0  0  0  0
 60 50  1  1  0  0  0
 61 63  1  0  0  0  0
 62 61  1  0  0  0  0
 64 63  2  0  0  0  0
 65 62  2  0  0  0  0
 65 64  1  0  0  0  0
 66 67  1  1  0  0  0
 66 70  1  0  0  0  0
 68 70  1  0  0  0  0
 70 69  2  0  0  0  0
M  END
>  <MODEL>
8

>  <REMARK>
 VINA RESULT:      -5.1      3.726      7.678
  Name = 
  16 active torsions:
  status: ('A' for Active; 'I' for Inactive)
    1  A    between atoms: C_9  and  N_49
    2  A    between atoms: C_9  and  C_61
    3  A    between atoms: C_9  and  C_70
    4  A    between atoms: C_10  and  C_57
    5  A    between atoms: C_11  and  C_66
    6  A    between atoms: N_12  and  C_55
    7  A    between atoms: C_17  and  C_51
    8  A    between atoms: C_18  and  N_24
    9  A    between atoms: C_20  and  C_26
   10  A    between atoms: C_26  and  C_44
   11  A    between atoms: C_27  and  C_54
   12  A    between atoms: C_27  and  C_56
   13  A    between atoms: C_33  and  C_63
   14  A    between atoms: O_38  and  C_44
   15  A    between atoms: O_38  and  C_61
   16  A    between atoms: C_57  and  C_63
                            x       y       z     vdW  Elec       q    Type
                         _______ _______ _______ _____ _____    ______ ____

>  <TORSDO>
F 16

$$$$
=
 OpenBabel11062421453D

 70 78  0  0  1  0  0  0  0  0999 V2000
  190.6910  174.9820  141.1250 C   0  0  0  0  0  3  0  0  0  0  0  0
  194.4660  173.4190  144.5690 O   0  0  0  0  0  0  0  0  0  0  0  0
  195.5580  175.0910  145.7840 O   0  0  0  0  0  1  0  0  0  0  0  0
  190.0900  170.7500  139.0860 C   0  0  0  0  0  2  0  0  0  0  0  0
  193.4740  171.9160  140.3620 N   0  0  0  0  0  0  0  0  0  0  0  0
  193.8630  175.7510  144.2260 C   0  0  0  0  0  2  0  0  0  0  0  0
  191.4050  170.6190  139.8800 C   0  0  0  0  0  2  0  0  0  0  0  0
  193.3370  171.7450  142.6900 O   0  0  0  0  0  0  0  0  0  0  0  0
  190.0590  173.3020  139.4240 C   0  0  2  0  0  3  0  0  0  0  0  0
  195.7080  173.2580  144.1320 O   0  0  0  0  0  0  0  0  0  0  0  0
  192.0170  171.9810  140.2420 C   0  0  2  0  0  3  0  0  0  0  0  0
  191.7700  176.2210  142.8920 C   0  0  0  0  0  2  0  0  0  0  0  0
  189.7800  174.0600  140.6050 O   0  0  0  0  0  0  0  0  0  0  0  0
  194.0530  172.0040  141.6830 C   0  0  0  0  0  0  0  0  0  0  0  0
  192.7870  175.1820  143.3200 C   0  0  0  0  0  2  0  0  0  0  0  0
  189.2720  171.9790  139.5090 C   0  0  0  0  0  2  0  0  0  0  0  0
  193.3230  174.5550  146.3200 C   0  0  0  0  0  1  0  0  0  0  0  0
  194.3480  174.6810  145.2110 C   0  0  1  0  0  0  0  0  0  0  0  0
  195.7000  173.5910  142.7650 C   0  0  2  0  0  3  0  0  0  0  0  0
  195.5020  172.3460  141.8930 C   0  0  0  0  0  2  0  0  0  0  0  0
  191.5700  173.0640  139.2600 C   0  0  0  0  0  2  0  0  0  0  0  0
  190.5880  175.4760  142.3590 C   0  0  0  0  0  0  0  0  0  0  0  0
  194.7030  170.3470  137.1610 O   0  0  0  0  0  0  0  0  0  0  0  0
  193.4350  169.3380  138.9980 C   0  0  0  0  0  1  0  0  0  0  0  0
  197.0980  170.6310  137.2390 C   0  0  0  0  0  2  0  0  0  0  0  0
  197.3940  171.7370  138.2480 C   0  0  0  0  0  2  0  0  0  0  0  0
  196.7470  173.0790  137.8890 C   0  0  2  0  0  3  0  0  0  0  0  0
  195.4580  172.9160  137.3600 O   0  0  0  0  0  0  0  0  0  0  0  0
  195.8950  169.8110  137.6870 C   0  0  0  0  0  2  0  0  0  0  0  0
  194.5570  173.1070  138.4210 C   0  0  2  0  0  3  0  0  0  0  0  0
  194.2620  171.7650  139.1260 C   0  0  2  0  0  3  0  0  0  0  0  0
  193.7950  170.6070  138.2160 C   0  0  1  0  0  3  0  0  0  0  0  0
  193.2790  173.8400  137.9790 C   0  0  0  0  0  3  0  0  0  0  0  0
  193.5950  175.2130  137.4160 C   0  0  0  0  0  2  0  0  0  0  0  0
  193.2190  174.0800  136.4800 C   0  0  0  0  0  2  0  0  0  0  0  0
  197.6630  173.2910  135.5400 C   0  0  0  0  0  1  0  0  0  0  0  0
  197.6360  173.8900  136.9420 C   0  0  1  0  0  3  0  0  0  0  0  0
  197.1610  175.3350  136.9040 C   0  0  0  0  0  2  0  0  0  0  0  0
  197.2420  175.8910  135.4950 C   0  0  0  0  0  2  0  0  0  0  0  0
  196.6370  177.1450  135.4550 O   0  0  0  0  0  1  0  0  0  0  0  0
  189.9270  174.5140  144.4880 N   0  0  0  0  0  2  0  0  0  0  0  0
  189.4330  175.0980  143.2600 C   0  0  1  0  0  3  0  0  0  0  0  0
  188.6270  176.2860  143.6910 C   0  0  2  0  0  3  0  0  0  0  0  0
  189.0970  174.9710  145.5290 N   0  0  0  0  0  2  0  0  0  0  0  0
  188.4630  176.1650  145.1250 N   0  0  0  0  0  2  0  0  0  0  0  0
  187.2700  176.3080  143.0100 C   0  0  0  0  0  2  0  0  0  0  0  0
  187.3110  177.2580  141.8270 C   0  0  0  0  0  2  0  0  0  0  0  0
  186.0290  177.4130  141.3000 O   0  0  0  0  0  0  0  0  0  0  0  0
  185.1820  177.3490  142.4080 C   0  0  0  0  0  2  0  0  0  0  0  0
  184.1510  178.4630  142.3270 C   0  0  2  0  0  3  0  0  0  0  0  0
  185.5630  179.1820  146.7230 C   0  0  0  0  0  2  0  0  0  0  0  0
  184.7440  177.9340  146.9920 C   0  0  2  0  0  3  0  0  0  0  0  0
  185.1940  176.7810  146.0810 C   0  0  0  0  0  2  0  0  0  0  0  0
  184.8660  177.1690  144.7610 O   0  0  0  0  0  0  0  0  0  0  0  0
  184.3290  178.4370  144.7390 C   0  0  0  0  0  0  0  0  0  0  0  0
  183.9800  179.0490  143.6500 N   0  0  0  0  0  0  0  0  0  0  0  0
  184.1980  179.0360  146.0820 C   0  0  2  0  0  3  0  0  0  0  0  0
  182.0820  179.0090  141.1820 C   0  0  2  0  0  3  0  0  0  0  0  0
  182.7310  177.9730  140.3620 N   0  0  0  0  0  2  0  0  0  0  0  0
  182.8140  177.9170  141.8300 C   0  0  1  0  0  3  0  0  0  0  0  0
  180.6470  178.7620  141.2650 N   0  0  0  0  0  0  0  0  0  0  0  0
  179.9250  178.6500  142.3960 C   0  0  0  0  0  3  0  0  0  0  0  0
  179.8430  178.5120  140.2200 C   0  0  0  0  0  3  0  0  0  0  0  0
  178.5680  178.2530  140.6840 C   0  0  0  0  0  3  0  0  0  0  0  0
  178.6190  178.3440  142.0660 C   0  0  0  0  0  3  0  0  0  0  0  0
  197.0080  174.3220  142.4430 C   0  0  2  0  0  3  0  0  0  0  0  0
  197.8020  174.6770  143.6860 C   0  0  0  0  0  1  0  0  0  0  0  0
  197.6540  175.6940  140.4020 N   0  0  0  0  0  1  0  0  0  0  0  0
  195.9420  176.3650  141.8180 O   0  0  0  0  0  0  0  0  0  0  0  0
  196.8250  175.5100  141.5460 C   0  0  0  0  0  0  0  0  0  0  0  0
  1 22  2  0  0  0  0
  2 18  1  0  0  0  0
  4 16  1  0  0  0  0
  4  7  1  0  0  0  0
  5 14  1  0  0  0  0
  6 18  1  0  0  0  0
  7 11  1  0  0  0  0
  9 21  1  1  0  0  0
  9 16  1  0  0  0  0
  9 13  1  0  0  0  0
 10  2  1  0  0  0  0
 11 21  1  6  0  0  0
 11  5  1  0  0  0  0
 12 15  1  0  0  0  0
 13  1  1  0  0  0  0
 14 20  1  0  0  0  0
 14  8  2  0  0  0  0
 15  6  1  0  0  0  0
 18  3  1  0  0  0  0
 18 17  1  1  0  0  0
 19 66  1  6  0  0  0
 19 10  1  0  0  0  0
 20 19  1  0  0  0  0
 22 12  1  0  0  0  0
 23 29  1  0  0  0  0
 23 32  1  0  0  0  0
 25 29  1  0  0  0  0
 25 26  1  0  0  0  0
 27 37  1  6  0  0  0
 27 26  1  0  0  0  0
 28 27  1  0  0  0  0
 28 30  1  0  0  0  0
 30 33  1  6  0  0  0
 30 31  1  0  0  0  0
 31  5  1  1  0  0  0
 32 24  1  1  0  0  0
 32 31  1  0  0  0  0
 34 33  1  0  0  0  0
 35 34  1  0  0  0  0
 35 33  1  0  0  0  0
 37 36  1  6  0  0  0
 38 37  1  0  0  0  0
 39 38  1  0  0  0  0
 40 39  1  0  0  0  0
 41 44  1  0  0  0  0
 42 22  1  6  0  0  0
 42 43  1  0  0  0  0
 42 41  1  0  0  0  0
 43 46  1  6  0  0  0
 43 45  1  0  0  0  0
 45 44  1  0  0  0  0
 47 46  1  0  0  0  0
 48 47  1  0  0  0  0
 48 49  1  0  0  0  0
 50 49  1  1  0  0  0
 50 56  1  0  0  0  0
 51 52  1  0  0  0  0
 52 53  1  6  0  0  0
 54 53  1  0  0  0  0
 55 54  1  0  0  0  0
 55 57  1  0  0  0  0
 56 55  2  0  0  0  0
 57 51  1  6  0  0  0
 57 52  1  0  0  0  0
 58 61  1  1  0  0  0
 58 60  1  0  0  0  0
 59 58  1  0  0  0  0
 59 60  1  0  0  0  0
 60 50  1  6  0  0  0
 61 62  1  0  0  0  0
 63 64  2  0  0  0  0
 63 61  1  0  0  0  0
 64 65  1  0  0  0  0
 65 62  2  0  0  0  0
 66 67  1  1  0  0  0
 68 70  1  0  0  0  0
 70 69  2  0  0  0  0
 70 66  1  0  0  0  0
M  END
>  <MODEL>
9

>  <REMARK>
 VINA RESULT:      -4.9      2.746      5.177
  Name = 
  16 active torsions:
  status: ('A' for Active; 'I' for Inactive)
    1  A    between atoms: C_9  and  N_49
    2  A    between atoms: C_9  and  C_61
    3  A    between atoms: C_9  and  C_70
    4  A    between atoms: C_10  and  C_57
    5  A    between atoms: C_11  and  C_66
    6  A    between atoms: N_12  and  C_55
    7  A    between atoms: C_17  and  C_51
    8  A    between atoms: C_18  and  N_24
    9  A    between atoms: C_20  and  C_26
   10  A    between atoms: C_26  and  C_44
   11  A    between atoms: C_27  and  C_54
   12  A    between atoms: C_27  and  C_56
   13  A    between atoms: C_33  and  C_63
   14  A    between atoms: O_38  and  C_44
   15  A    between atoms: O_38  and  C_61
   16  A    between atoms: C_57  and  C_63
                            x       y       z     vdW  Elec       q    Type
                         _______ _______ _______ _____ _____    ______ ____

>  <TORSDO>
F 16

$$$$
