=
 OpenBabel11062418583D

 33 35  0  0  1  0  0  0  0  0999 V2000
  187.2630  177.6920  143.3370 N   0  0  0  0  0  0  0  0  0  0  0  0
  185.5620  177.7370  139.9160 C   0  0  0  0  0  1  0  0  0  0  0  0
  188.2270  175.9590  141.7890 C   0  0  0  0  0  0  0  0  0  0  0  0
  188.0990  176.4780  143.2110 C   0  0  1  0  0  3  0  0  0  0  0  0
  189.9640  174.4060  142.7130 C   0  0  0  0  0  2  0  0  0  0  0  0
  189.2480  174.9070  141.4610 C   0  0  0  0  0  2  0  0  0  0  0  0
  190.5420  175.5650  143.5230 C   0  0  1  0  0  3  0  0  0  0  0  0
  189.4850  176.6060  143.8240 C   0  0  0  0  0  0  0  0  0  0  0  0
  186.3420  178.0350  142.2830 C   0  0  0  0  0  0  0  0  0  0  0  0
  187.4320  176.3760  140.8060 C   0  0  0  0  0  3  0  0  0  0  0  0
  189.7650  177.5350  144.5640 O   0  0  0  0  0  0  0  0  0  0  0  0
  186.4400  177.3770  141.0170 N   0  0  0  0  0  0  0  0  0  0  0  0
  185.4490  178.9080  142.4700 O   0  0  0  0  0  0  0  0  0  0  0  0
  187.0550  178.2640  144.6710 C   0  0  0  0  0  2  0  0  0  0  0  0
  186.1470  177.3900  145.5370 C   0  0  1  0  0  3  0  0  0  0  0  0
  185.9840  176.6240  148.1520 O   0  0  0  0  0  1  0  0  0  0  0  0
  186.9970  176.9770  147.0870 P   0  0  0  0  0  0  0  0  0  0  0  0
  187.9110  178.3040  147.6000 O   0  0  0  0  0  1  0  0  0  0  0  0
  188.0250  175.6580  146.8330 O   0  0  0  0  0  0  0  0  0  0  0  0
  183.8620  178.5710  146.0580 N   0  0  0  0  0  0  0  0  0  0  0  0
  184.8710  178.0510  145.8300 C   0  0  0  0  0  0  0  0  0  0  0  0
  191.1120  175.0430  144.7600 N   0  0  0  0  0  2  0  0  0  0  0  0
  195.2760  174.3370  145.5240 C   0  0  0  0  0  0  0  0  0  0  0  0
  194.7850  175.7730  145.4720 C   0  0  0  0  0  0  0  0  0  0  0  0
  193.4840  175.9040  144.6660 C   0  0  0  0  0  2  0  0  0  0  0  0
  195.7330  176.5850  144.8760 F   0  0  0  0  0  0  0  0  0  0  0  0
  192.9580  173.5790  145.2780 C   0  0  0  0  0  3  0  0  0  0  0  0
  192.5080  174.7960  144.9520 C   0  0  0  0  0  0  0  0  0  0  0  0
  194.3930  173.3310  145.4780 C   0  0  0  0  0  3  0  0  0  0  0  0
  194.5620  176.2210  146.7620 F   0  0  0  0  0  0  0  0  0  0  0  0
  197.5610  174.1450  144.8860 O   0  0  0  0  0  0  0  0  0  0  0  0
  196.6920  174.0200  145.7890 C   0  0  0  0  0  0  0  0  0  0  0  0
  197.0790  173.5960  147.0200 F   0  0  0  0  0  0  0  0  0  0  0  0
  1 14  1  0  0  0  0
  2 12  1  0  0  0  0
  4  3  1  6  0  0  0
  4  1  1  0  0  0  0
  4  8  1  0  0  0  0
  5  7  1  0  0  0  0
  6  3  1  0  0  0  0
  6  5  1  0  0  0  0
  7  8  1  0  0  0  0
  7 22  1  1  0  0  0
  8 11  2  0  0  0  0
  9 13  2  0  0  0  0
  9  1  1  0  0  0  0
 10 12  1  0  0  0  0
 10  3  2  0  0  0  0
 12  9  1  0  0  0  0
 15 14  1  6  0  0  0
 15 21  1  0  0  0  0
 15 17  1  0  0  0  0
 17 18  1  0  0  0  0
 17 16  1  0  0  0  0
 19 17  2  0  0  0  0
 21 20  3  0  0  0  0
 22 28  1  0  0  0  0
 23 32  1  0  0  0  0
 24 23  1  0  0  0  0
 24 30  1  0  0  0  0
 25 28  1  0  0  0  0
 25 24  1  0  0  0  0
 26 24  1  0  0  0  0
 27 29  1  0  0  0  0
 28 27  2  0  0  0  0
 29 23  2  0  0  0  0
 31 32  2  0  0  0  0
 32 33  1  0  0  0  0
M  END
>  <MODEL>
1

>  <REMARK>
 VINA RESULT:      -7.4      0.000      0.000
  Name = 
  7 active torsions:
  status: ('A' for Active; 'I' for Inactive)
    1  A    between atoms: C_1  and  C_21
    2  A    between atoms: C_2  and  N_3
    3  A    between atoms: C_2  and  C_9
    4  A    between atoms: N_5  and  C_22
    5  A    between atoms: N_5  and  C_27
    6  A    between atoms: C_9  and  P_11
    7  A    between atoms: C_9  and  C_23
                            x       y       z     vdW  Elec       q    Type
                         _______ _______ _______ _____ _____    ______ ____

>  <TORSDO>
F 7

$$$$
=
 OpenBabel11062418583D

 33 35  0  0  1  0  0  0  0  0999 V2000
  193.4610  172.8060  145.2370 N   0  0  0  0  0  0  0  0  0  0  0  0
  193.6150  169.1370  144.1810 C   0  0  0  0  0  1  0  0  0  0  0  0
  191.3800  172.0960  144.0130 C   0  0  0  0  0  0  0  0  0  0  0  0
  192.2300  173.2400  144.5410 C   0  0  1  0  0  3  0  0  0  0  0  0
  189.6550  173.8480  143.5300 C   0  0  0  0  0  2  0  0  0  0  0  0
  189.9830  172.3570  143.5280 C   0  0  0  0  0  2  0  0  0  0  0  0
  189.9390  174.4770  144.8930 C   0  0  1  0  0  3  0  0  0  0  0  0
  191.3520  174.1830  145.3500 C   0  0  0  0  0  0  0  0  0  0  0  0
  193.9710  171.4770  145.0190 C   0  0  0  0  0  0  0  0  0  0  0  0
  191.8420  170.8500  143.9250 C   0  0  0  0  0  3  0  0  0  0  0  0
  191.7670  174.7170  146.3660 O   0  0  0  0  0  0  0  0  0  0  0  0
  193.1510  170.5020  144.3690 N   0  0  0  0  0  0  0  0  0  0  0  0
  195.1370  171.1680  145.3920 O   0  0  0  0  0  0  0  0  0  0  0  0
  194.3640  173.8330  145.7650 C   0  0  0  0  0  2  0  0  0  0  0  0
  195.2040  174.4830  144.6650 C   0  0  1  0  0  3  0  0  0  0  0  0
  193.5880  176.5080  143.8020 O   0  0  0  0  0  0  0  0  0  0  0  0
  194.8490  176.2630  144.6000 P   0  0  0  0  0  0  0  0  0  0  0  0
  196.1420  177.0680  143.8670 O   0  0  0  0  0  1  0  0  0  0  0  0
  194.6420  176.8550  146.1700 O   0  0  0  0  0  1  0  0  0  0  0  0
  197.7730  174.1010  145.0450 N   0  0  0  0  0  0  0  0  0  0  0  0
  196.6400  174.2690  144.8760 C   0  0  0  0  0  0  0  0  0  0  0  0
  189.7190  175.9160  144.8070 N   0  0  0  0  0  2  0  0  0  0  0  0
  186.0490  177.7430  146.0780 C   0  0  0  0  0  0  0  0  0  0  0  0
  186.5350  178.0070  144.6630 C   0  0  0  0  0  0  0  0  0  0  0  0
  188.0490  177.7900  144.5290 C   0  0  0  0  0  2  0  0  0  0  0  0
  186.2620  179.3130  144.2970 F   0  0  0  0  0  0  0  0  0  0  0  0
  187.9080  176.1740  146.3800 C   0  0  0  0  0  3  0  0  0  0  0  0
  188.5300  176.5690  145.2620 C   0  0  0  0  0  0  0  0  0  0  0  0
  186.6840  176.8450  146.8420 C   0  0  0  0  0  3  0  0  0  0  0  0
  185.8790  177.1530  143.7950 F   0  0  0  0  0  0  0  0  0  0  0  0
  183.8210  178.5330  145.8080 O   0  0  0  0  0  0  0  0  0  0  0  0
  184.7940  178.3330  146.5810 C   0  0  0  0  0  0  0  0  0  0  0  0
  184.6700  178.6580  147.8940 F   0  0  0  0  0  0  0  0  0  0  0  0
  1 14  1  0  0  0  0
  2 12  1  0  0  0  0
  4  3  1  1  0  0  0
  4  1  1  0  0  0  0
  4  8  1  0  0  0  0
  5  7  1  0  0  0  0
  6  5  1  0  0  0  0
  6  3  1  0  0  0  0
  7 22  1  6  0  0  0
  7  8  1  0  0  0  0
  8 11  2  0  0  0  0
  9  1  1  0  0  0  0
  9 13  2  0  0  0  0
 10  3  2  0  0  0  0
 10 12  1  0  0  0  0
 12  9  1  0  0  0  0
 15 21  1  1  0  0  0
 15 14  1  0  0  0  0
 16 17  2  0  0  0  0
 17 15  1  0  0  0  0
 17 19  1  0  0  0  0
 18 17  1  0  0  0  0
 21 20  3  0  0  0  0
 22 28  1  0  0  0  0
 23 32  1  0  0  0  0
 23 29  2  0  0  0  0
 24 23  1  0  0  0  0
 25 24  1  0  0  0  0
 25 28  1  0  0  0  0
 26 24  1  0  0  0  0
 27 29  1  0  0  0  0
 28 27  2  0  0  0  0
 30 24  1  0  0  0  0
 31 32  2  0  0  0  0
 32 33  1  0  0  0  0
M  END
>  <MODEL>
2

>  <REMARK>
 VINA RESULT:      -7.4      4.466      8.931
  Name = 
  7 active torsions:
  status: ('A' for Active; 'I' for Inactive)
    1  A    between atoms: C_1  and  C_21
    2  A    between atoms: C_2  and  N_3
    3  A    between atoms: C_2  and  C_9
    4  A    between atoms: N_5  and  C_22
    5  A    between atoms: N_5  and  C_27
    6  A    between atoms: C_9  and  P_11
    7  A    between atoms: C_9  and  C_23
                            x       y       z     vdW  Elec       q    Type
                         _______ _______ _______ _____ _____    ______ ____

>  <TORSDO>
F 7

$$$$
=
 OpenBabel11062418583D

 33 35  0  0  1  0  0  0  0  0999 V2000
  193.4000  175.5450  142.6380 N   0  0  0  0  0  0  0  0  0  0  0  0
  197.0390  176.5440  143.2330 C   0  0  0  0  0  1  0  0  0  0  0  0
  193.8160  176.1820  145.0360 C   0  0  0  0  0  0  0  0  0  0  0  0
  192.8920  175.5210  144.0270 C   0  0  1  0  0  3  0  0  0  0  0  0
  191.9230  175.9210  146.6580 C   0  0  0  0  0  2  0  0  0  0  0  0
  193.3270  176.4750  146.4250 C   0  0  0  0  0  2  0  0  0  0  0  0
  190.9550  176.3900  145.5740 C   0  0  1  0  0  3  0  0  0  0  0  0
  191.4880  176.0840  144.1910 C   0  0  0  0  0  0  0  0  0  0  0  0
  194.8010  175.7740  142.3960 C   0  0  0  0  0  0  0  0  0  0  0  0
  195.0800  176.4840  144.7490 C   0  0  0  0  0  3  0  0  0  0  0  0
  190.7740  176.2910  143.2230 O   0  0  0  0  0  0  0  0  0  0  0  0
  195.6330  176.2520  143.4570 N   0  0  0  0  0  0  0  0  0  0  0  0
  195.3000  175.5520  141.2580 O   0  0  0  0  0  0  0  0  0  0  0  0
  192.5950  174.9140  141.5880 C   0  0  0  0  0  2  0  0  0  0  0  0
  192.4500  173.4070  141.8000 C   0  0  1  0  0  3  0  0  0  0  0  0
  189.9540  173.9440  140.8340 O   0  0  0  0  0  0  0  0  0  0  0  0
  190.6990  172.9400  141.6840 P   0  0  0  0  0  0  0  0  0  0  0  0
  190.0220  172.9050  143.2330 O   0  0  0  0  0  1  0  0  0  0  0  0
  190.5690  171.4060  140.9840 O   0  0  0  0  0  1  0  0  0  0  0  0
  193.8570  172.0370  140.0580 N   0  0  0  0  0  0  0  0  0  0  0  0
  193.2350  172.6400  140.8260 C   0  0  0  0  0  0  0  0  0  0  0  0
  189.6640  175.7420  145.7780 N   0  0  0  0  0  2  0  0  0  0  0  0
  185.9010  177.7410  146.2970 C   0  0  0  0  0  0  0  0  0  0  0  0
  186.6250  177.8990  144.9720 C   0  0  0  0  0  0  0  0  0  0  0  0
  188.1320  177.6350  145.1090 C   0  0  0  0  0  2  0  0  0  0  0  0
  186.4650  179.1840  144.4850 F   0  0  0  0  0  0  0  0  0  0  0  0
  187.6260  176.1490  147.0040 C   0  0  0  0  0  3  0  0  0  0  0  0
  188.4390  176.4540  145.9860 C   0  0  0  0  0  0  0  0  0  0  0  0
  186.3670  176.8800  147.2110 C   0  0  0  0  0  3  0  0  0  0  0  0
  186.0930  177.0050  144.0580 F   0  0  0  0  0  0  0  0  0  0  0  0
  183.8660  178.7490  145.5850 O   0  0  0  0  0  0  0  0  0  0  0  0
  184.6010  178.3940  146.5440 C   0  0  0  0  0  0  0  0  0  0  0  0
  184.1760  178.6100  147.8160 F   0  0  0  0  0  0  0  0  0  0  0  0
  1  4  1  0  0  0  0
  2 12  1  0  0  0  0
  3  6  1  0  0  0  0
  4  8  1  6  0  0  0
  4  3  1  0  0  0  0
  6  5  1  0  0  0  0
  7 22  1  1  0  0  0
  7  5  1  0  0  0  0
  8  7  1  0  0  0  0
  9  1  1  0  0  0  0
  9 12  1  0  0  0  0
 10  3  2  0  0  0  0
 11  8  2  0  0  0  0
 12 10  1  0  0  0  0
 13  9  2  0  0  0  0
 14 15  1  0  0  0  0
 14  1  1  0  0  0  0
 15 21  1  6  0  0  0
 16 17  2  0  0  0  0
 17 15  1  0  0  0  0
 17 18  1  0  0  0  0
 19 17  1  0  0  0  0
 20 21  3  0  0  0  0
 22 28  1  0  0  0  0
 23 32  1  0  0  0  0
 23 29  2  0  0  0  0
 24 25  1  0  0  0  0
 24 23  1  0  0  0  0
 25 28  1  0  0  0  0
 26 24  1  0  0  0  0
 27 29  1  0  0  0  0
 28 27  2  0  0  0  0
 30 24  1  0  0  0  0
 31 32  2  0  0  0  0
 32 33  1  0  0  0  0
M  END
>  <MODEL>
3

>  <REMARK>
 VINA RESULT:      -7.3      4.589      8.600
  Name = 
  7 active torsions:
  status: ('A' for Active; 'I' for Inactive)
    1  A    between atoms: C_1  and  C_21
    2  A    between atoms: C_2  and  N_3
    3  A    between atoms: C_2  and  C_9
    4  A    between atoms: N_5  and  C_22
    5  A    between atoms: N_5  and  C_27
    6  A    between atoms: C_9  and  P_11
    7  A    between atoms: C_9  and  C_23
                            x       y       z     vdW  Elec       q    Type
                         _______ _______ _______ _____ _____    ______ ____

>  <TORSDO>
F 7

$$$$
=
 OpenBabel11062418583D

 33 35  0  0  1  0  0  0  0  0999 V2000
  186.6870  176.8730  144.8660 N   0  0  0  0  0  0  0  0  0  0  0  0
  185.0540  178.6740  147.8130 C   0  0  0  0  0  1  0  0  0  0  0  0
  188.3630  177.4670  146.6450 C   0  0  0  0  0  0  0  0  0  0  0  0
  188.1170  177.0170  145.2140 C   0  0  1  0  0  3  0  0  0  0  0  0
  190.7780  176.9730  146.1850 C   0  0  0  0  0  2  0  0  0  0  0  0
  189.7460  177.4000  147.2280 C   0  0  0  0  0  2  0  0  0  0  0  0
  190.3610  175.6790  145.4900 C   0  0  1  0  0  3  0  0  0  0  0  0
  188.9610  175.7850  144.9260 C   0  0  0  0  0  0  0  0  0  0  0  0
  185.6880  177.5230  145.6740 C   0  0  0  0  0  0  0  0  0  0  0  0
  187.3940  177.9630  147.4100 C   0  0  0  0  0  3  0  0  0  0  0  0
  188.5300  174.8730  144.2380 O   0  0  0  0  0  0  0  0  0  0  0  0
  186.0490  178.0590  146.9500 N   0  0  0  0  0  0  0  0  0  0  0  0
  184.4990  177.6270  145.2620 O   0  0  0  0  0  0  0  0  0  0  0  0
  186.3380  176.4650  143.5010 C   0  0  0  0  0  2  0  0  0  0  0  0
  186.3120  177.6500  142.5350 C   0  0  1  0  0  3  0  0  0  0  0  0
  186.9180  177.7880  139.8760 O   0  0  0  0  0  0  0  0  0  0  0  0
  187.5160  177.3760  141.2020 P   0  0  0  0  0  0  0  0  0  0  0  0
  187.9300  175.7370  141.1460 O   0  0  0  0  0  1  0  0  0  0  0  0
  188.9060  178.2920  141.5010 O   0  0  0  0  0  1  0  0  0  0  0  0
  183.9250  178.0240  141.5100 N   0  0  0  0  0  0  0  0  0  0  0  0
  184.9770  177.8600  141.9640 C   0  0  0  0  0  0  0  0  0  0  0  0
  191.3180  175.3800  144.4300 N   0  0  0  0  0  2  0  0  0  0  0  0
  195.4040  174.4140  145.3160 C   0  0  0  0  0  0  0  0  0  0  0  0
  195.0550  175.8600  145.0100 C   0  0  0  0  0  0  0  0  0  0  0  0
  193.7610  175.9740  144.1910 C   0  0  0  0  0  2  0  0  0  0  0  0
  196.0680  176.4560  144.2810 F   0  0  0  0  0  0  0  0  0  0  0  0
  193.0210  173.8560  145.2030 C   0  0  0  0  0  3  0  0  0  0  0  0
  192.6860  175.0350  144.6660 C   0  0  0  0  0  0  0  0  0  0  0  0
  194.4280  173.5070  145.4470 C   0  0  0  0  0  3  0  0  0  0  0  0
  194.8960  176.5470  146.2000 F   0  0  0  0  0  0  0  0  0  0  0  0
  197.6900  174.0500  144.7590 O   0  0  0  0  0  0  0  0  0  0  0  0
  196.7870  174.0100  145.6360 C   0  0  0  0  0  0  0  0  0  0  0  0
  197.1060  173.5980  146.8900 F   0  0  0  0  0  0  0  0  0  0  0  0
  1  4  1  0  0  0  0
  1  9  1  0  0  0  0
  3  6  1  0  0  0  0
  3 10  2  0  0  0  0
  4  8  1  1  0  0  0
  4  3  1  0  0  0  0
  5  6  1  0  0  0  0
  7 22  1  6  0  0  0
  7  5  1  0  0  0  0
  8  7  1  0  0  0  0
  9 12  1  0  0  0  0
 11  8  2  0  0  0  0
 12 10  1  0  0  0  0
 12  2  1  0  0  0  0
 13  9  2  0  0  0  0
 14  1  1  0  0  0  0
 15 21  1  6  0  0  0
 15 14  1  0  0  0  0
 16 17  2  0  0  0  0
 17 19  1  0  0  0  0
 17 15  1  0  0  0  0
 18 17  1  0  0  0  0
 20 21  3  0  0  0  0
 22 28  1  0  0  0  0
 23 29  2  0  0  0  0
 23 32  1  0  0  0  0
 24 23  1  0  0  0  0
 24 30  1  0  0  0  0
 25 28  1  0  0  0  0
 25 24  1  0  0  0  0
 26 24  1  0  0  0  0
 27 29  1  0  0  0  0
 28 27  2  0  0  0  0
 31 32  2  0  0  0  0
 32 33  1  0  0  0  0
M  END
>  <MODEL>
4

>  <REMARK>
 VINA RESULT:      -7.2      2.206      3.962
  Name = 
  7 active torsions:
  status: ('A' for Active; 'I' for Inactive)
    1  A    between atoms: C_1  and  C_21
    2  A    between atoms: C_2  and  N_3
    3  A    between atoms: C_2  and  C_9
    4  A    between atoms: N_5  and  C_22
    5  A    between atoms: N_5  and  C_27
    6  A    between atoms: C_9  and  P_11
    7  A    between atoms: C_9  and  C_23
                            x       y       z     vdW  Elec       q    Type
                         _______ _______ _______ _____ _____    ______ ____

>  <TORSDO>
F 7

$$$$
=
 OpenBabel11062418583D

 33 35  0  0  1  0  0  0  0  0999 V2000
  192.3780  172.8660  144.6700 N   0  0  0  0  0  0  0  0  0  0  0  0
  192.8750  169.4060  143.1270 C   0  0  0  0  0  1  0  0  0  0  0  0
  190.8060  172.4640  142.7480 C   0  0  0  0  0  0  0  0  0  0  0  0
  191.4370  173.4660  143.7000 C   0  0  1  0  0  3  0  0  0  0  0  0
  189.3240  174.3560  142.0370 C   0  0  0  0  0  2  0  0  0  0  0  0
  189.6390  172.8690  141.8930 C   0  0  0  0  0  2  0  0  0  0  0  0
  189.1520  174.7470  143.5030 C   0  0  1  0  0  3  0  0  0  0  0  0
  190.3420  174.3130  144.3310 C   0  0  0  0  0  0  0  0  0  0  0  0
  192.9360  171.5640  144.4090 C   0  0  0  0  0  0  0  0  0  0  0  0
  191.2740  171.2260  142.6070 C   0  0  0  0  0  3  0  0  0  0  0  0
  190.4070  174.6590  145.5000 O   0  0  0  0  0  0  0  0  0  0  0  0
  192.3710  170.7460  143.3800 N   0  0  0  0  0  0  0  0  0  0  0  0
  193.9190  171.1410  145.0780 O   0  0  0  0  0  0  0  0  0  0  0  0
  193.0610  173.7500  145.6200 C   0  0  0  0  0  2  0  0  0  0  0  0
  194.0460  174.6910  144.9270 C   0  0  1  0  0  3  0  0  0  0  0  0
  192.6630  176.9570  144.2870 O   0  0  0  0  0  0  0  0  0  0  0  0
  193.6230  176.4130  145.3210 P   0  0  0  0  0  0  0  0  0  0  0  0
  195.0300  177.3510  145.3280 O   0  0  0  0  0  1  0  0  0  0  0  0
  192.9000  176.4810  146.8480 O   0  0  0  0  0  1  0  0  0  0  0  0
  196.5270  174.2050  145.6300 N   0  0  0  0  0  0  0  0  0  0  0  0
  195.4330  174.4170  145.3200 C   0  0  0  0  0  0  0  0  0  0  0  0
  188.9670  176.1910  143.5910 N   0  0  0  0  0  2  0  0  0  0  0  0
  185.5990  177.9310  145.6030 C   0  0  0  0  0  0  0  0  0  0  0  0
  185.7780  178.2110  144.1210 C   0  0  0  0  0  0  0  0  0  0  0  0
  187.2370  178.0280  143.6770 C   0  0  0  0  0  2  0  0  0  0  0  0
  185.4080  179.5120  143.8290 F   0  0  0  0  0  0  0  0  0  0  0  0
  187.5120  176.4030  145.5040 C   0  0  0  0  0  3  0  0  0  0  0  0
  187.8830  176.8160  144.2860 C   0  0  0  0  0  0  0  0  0  0  0  0
  186.3960  177.0450  146.2130 C   0  0  0  0  0  3  0  0  0  0  0  0
  184.9760  177.3460  143.3980 F   0  0  0  0  0  0  0  0  0  0  0  0
  184.5180  178.6200  147.6080 O   0  0  0  0  0  0  0  0  0  0  0  0
  184.4610  178.4910  146.3570 C   0  0  0  0  0  0  0  0  0  0  0  0
  183.3370  178.8840  145.7050 F   0  0  0  0  0  0  0  0  0  0  0  0
  1 14  1  0  0  0  0
  2 12  1  0  0  0  0
  4  3  1  1  0  0  0
  4  8  1  0  0  0  0
  4  1  1  0  0  0  0
  5  7  1  0  0  0  0
  6  5  1  0  0  0  0
  6  3  1  0  0  0  0
  7 22  1  6  0  0  0
  7  8  1  0  0  0  0
  8 11  2  0  0  0  0
  9  1  1  0  0  0  0
  9 13  2  0  0  0  0
 10  3  2  0  0  0  0
 10 12  1  0  0  0  0
 12  9  1  0  0  0  0
 15 21  1  1  0  0  0
 15 17  1  0  0  0  0
 15 14  1  0  0  0  0
 16 17  2  0  0  0  0
 17 18  1  0  0  0  0
 17 19  1  0  0  0  0
 21 20  3  0  0  0  0
 22 28  1  0  0  0  0
 23 29  2  0  0  0  0
 23 32  1  0  0  0  0
 24 23  1  0  0  0  0
 25 24  1  0  0  0  0
 25 28  1  0  0  0  0
 26 24  1  0  0  0  0
 27 29  1  0  0  0  0
 28 27  2  0  0  0  0
 30 24  1  0  0  0  0
 32 31  2  0  0  0  0
 33 32  1  0  0  0  0
M  END
>  <MODEL>
5

>  <REMARK>
 VINA RESULT:      -7.1      4.392      8.568
  Name = 
  7 active torsions:
  status: ('A' for Active; 'I' for Inactive)
    1  A    between atoms: C_1  and  C_21
    2  A    between atoms: C_2  and  N_3
    3  A    between atoms: C_2  and  C_9
    4  A    between atoms: N_5  and  C_22
    5  A    between atoms: N_5  and  C_27
    6  A    between atoms: C_9  and  P_11
    7  A    between atoms: C_9  and  C_23
                            x       y       z     vdW  Elec       q    Type
                         _______ _______ _______ _____ _____    ______ ____

>  <TORSDO>
F 7

$$$$
=
 OpenBabel11062418583D

 33 35  0  0  1  0  0  0  0  0999 V2000
  193.5260  174.0220  143.6210 N   0  0  0  0  0  0  0  0  0  0  0  0
  197.1760  174.5570  144.6140 C   0  0  0  0  0  1  0  0  0  0  0  0
  193.7320  175.2980  145.7800 C   0  0  0  0  0  0  0  0  0  0  0  0
  192.8370  174.5140  144.8340 C   0  0  1  0  0  3  0  0  0  0  0  0
  191.6210  175.8650  147.0070 C   0  0  0  0  0  2  0  0  0  0  0  0
  193.1290  176.0850  146.9080 C   0  0  0  0  0  2  0  0  0  0  0  0
  190.9340  176.1220  145.6670 C   0  0  1  0  0  3  0  0  0  0  0  0
  191.5760  175.3180  144.5570 C   0  0  0  0  0  0  0  0  0  0  0  0
  194.9640  173.9350  143.6050 C   0  0  0  0  0  0  0  0  0  0  0  0
  195.0590  175.2890  145.6730 C   0  0  0  0  0  3  0  0  0  0  0  0
  191.0640  175.3260  143.4490 O   0  0  0  0  0  0  0  0  0  0  0  0
  195.7230  174.5790  144.6310 N   0  0  0  0  0  0  0  0  0  0  0  0
  195.5570  173.2920  142.6940 O   0  0  0  0  0  0  0  0  0  0  0  0
  192.7580  173.2330  142.6530 C   0  0  0  0  0  2  0  0  0  0  0  0
  192.1560  171.9760  143.2820 C   0  0  1  0  0  3  0  0  0  0  0  0
  189.4470  171.8820  143.6140 O   0  0  0  0  0  1  0  0  0  0  0  0
  190.5160  171.6630  142.5670 P   0  0  0  0  0  0  0  0  0  0  0  0
  190.4390  170.0680  142.0120 O   0  0  0  0  0  1  0  0  0  0  0  0
  190.2550  172.7170  141.2700 O   0  0  0  0  0  0  0  0  0  0  0  0
  193.6940  169.8770  142.9400 N   0  0  0  0  0  0  0  0  0  0  0  0
  193.0150  170.8030  143.0880 C   0  0  0  0  0  0  0  0  0  0  0  0
  189.5190  175.7870  145.7870 N   0  0  0  0  0  2  0  0  0  0  0  0
  186.2170  178.4280  145.0510 C   0  0  0  0  0  0  0  0  0  0  0  0
  186.9070  177.7860  143.8600 C   0  0  0  0  0  0  0  0  0  0  0  0
  188.3420  177.3550  144.1960 C   0  0  0  0  0  2  0  0  0  0  0  0
  186.9700  178.6760  142.8030 F   0  0  0  0  0  0  0  0  0  0  0  0
  187.6400  177.0990  146.5400 C   0  0  0  0  0  3  0  0  0  0  0  0
  188.4570  176.7170  145.5520 C   0  0  0  0  0  0  0  0  0  0  0  0
  186.5480  178.0520  146.2930 C   0  0  0  0  0  3  0  0  0  0  0  0
  186.1840  176.6740  143.4650 F   0  0  0  0  0  0  0  0  0  0  0  0
  183.9300  179.0350  145.3090 O   0  0  0  0  0  0  0  0  0  0  0  0
  185.0710  179.3410  144.8740 C   0  0  0  0  0  0  0  0  0  0  0  0
  185.2390  180.5330  144.2450 F   0  0  0  0  0  0  0  0  0  0  0  0
  1  4  1  0  0  0  0
  2 12  1  0  0  0  0
  3  6  1  0  0  0  0
  4  8  1  6  0  0  0
  4  3  1  0  0  0  0
  6  5  1  0  0  0  0
  7 22  1  1  0  0  0
  7  5  1  0  0  0  0
  8  7  1  0  0  0  0
  9  1  1  0  0  0  0
  9 12  1  0  0  0  0
 10  3  2  0  0  0  0
 11  8  2  0  0  0  0
 12 10  1  0  0  0  0
 13  9  2  0  0  0  0
 14  1  1  0  0  0  0
 15 14  1  6  0  0  0
 17 15  1  0  0  0  0
 17 16  1  0  0  0  0
 18 17  1  0  0  0  0
 19 17  2  0  0  0  0
 20 21  3  0  0  0  0
 21 15  1  0  0  0  0
 23 29  2  0  0  0  0
 24 25  1  0  0  0  0
 24 23  1  0  0  0  0
 25 28  1  0  0  0  0
 26 24  1  0  0  0  0
 28 22  1  0  0  0  0
 28 27  2  0  0  0  0
 29 27  1  0  0  0  0
 30 24  1  0  0  0  0
 32 23  1  0  0  0  0
 32 31  2  0  0  0  0
 33 32  1  0  0  0  0
M  END
>  <MODEL>
6

>  <REMARK>
 VINA RESULT:      -7.0      4.370      8.864
  Name = 
  7 active torsions:
  status: ('A' for Active; 'I' for Inactive)
    1  A    between atoms: C_1  and  C_21
    2  A    between atoms: C_2  and  N_3
    3  A    between atoms: C_2  and  C_9
    4  A    between atoms: N_5  and  C_22
    5  A    between atoms: N_5  and  C_27
    6  A    between atoms: C_9  and  P_11
    7  A    between atoms: C_9  and  C_23
                            x       y       z     vdW  Elec       q    Type
                         _______ _______ _______ _____ _____    ______ ____

>  <TORSDO>
F 7

$$$$
=
 OpenBabel11062418583D

 33 35  0  0  1  0  0  0  0  0999 V2000
  188.0580  177.1550  143.0190 N   0  0  0  0  0  0  0  0  0  0  0  0
  186.3120  177.3720  139.6270 C   0  0  0  0  0  1  0  0  0  0  0  0
  188.5230  175.1340  141.5960 C   0  0  0  0  0  0  0  0  0  0  0  0
  188.5690  175.7680  142.9760 C   0  0  1  0  0  3  0  0  0  0  0  0
  189.8590  173.2720  142.6130 C   0  0  0  0  0  2  0  0  0  0  0  0
  189.2470  173.8440  141.3360 C   0  0  0  0  0  2  0  0  0  0  0  0
  190.7260  174.3100  143.3240 C   0  0  1  0  0  3  0  0  0  0  0  0
  189.9640  175.5960  143.5580 C   0  0  0  0  0  0  0  0  0  0  0  0
  187.2160  177.6380  141.9540 C   0  0  0  0  0  0  0  0  0  0  0  0
  187.8230  175.6620  140.5940 C   0  0  0  0  0  3  0  0  0  0  0  0
  190.4840  176.4790  144.2220 O   0  0  0  0  0  0  0  0  0  0  0  0
  187.1100  176.8880  140.7410 N   0  0  0  0  0  0  0  0  0  0  0  0
  186.5680  178.7130  142.0860 O   0  0  0  0  0  0  0  0  0  0  0  0
  188.0370  177.8530  144.3080 C   0  0  0  0  0  2  0  0  0  0  0  0
  186.9000  177.3690  145.2070 C   0  0  1  0  0  3  0  0  0  0  0  0
  188.4900  177.9170  147.3580 O   0  0  0  0  0  1  0  0  0  0  0  0
  187.5710  176.8470  146.8120 P   0  0  0  0  0  0  0  0  0  0  0  0
  188.4370  175.4080  146.6200 O   0  0  0  0  0  0  0  0  0  0  0  0
  186.3010  176.5920  147.8990 O   0  0  0  0  0  1  0  0  0  0  0  0
  185.0750  179.2220  145.5610 N   0  0  0  0  0  0  0  0  0  0  0  0
  185.8810  178.4060  145.4070 C   0  0  0  0  0  0  0  0  0  0  0  0
  191.1900  173.7520  144.5900 N   0  0  0  0  0  2  0  0  0  0  0  0
  195.3720  173.5360  145.5290 C   0  0  0  0  0  0  0  0  0  0  0  0
  194.7880  172.4930  144.5930 C   0  0  0  0  0  0  0  0  0  0  0  0
  193.2730  172.3370  144.7850 C   0  0  0  0  0  2  0  0  0  0  0  0
  195.3710  171.2600  144.8220 F   0  0  0  0  0  0  0  0  0  0  0  0
  193.2030  174.6760  145.5470 C   0  0  0  0  0  3  0  0  0  0  0  0
  192.5690  173.6540  144.9590 C   0  0  0  0  0  0  0  0  0  0  0  0
  194.6210  174.5730  145.9220 C   0  0  0  0  0  3  0  0  0  0  0  0
  195.0400  172.8700  143.2850 F   0  0  0  0  0  0  0  0  0  0  0  0
  197.6850  173.2870  145.0260 O   0  0  0  0  0  0  0  0  0  0  0  0
  196.8030  173.5270  145.8910 C   0  0  0  0  0  0  0  0  0  0  0  0
  197.1860  173.7900  147.1680 F   0  0  0  0  0  0  0  0  0  0  0  0
  1 14  1  0  0  0  0
  2 12  1  0  0  0  0
  4  3  1  6  0  0  0
  4  1  1  0  0  0  0
  4  8  1  0  0  0  0
  5  7  1  0  0  0  0
  6  3  1  0  0  0  0
  6  5  1  0  0  0  0
  7  8  1  0  0  0  0
  7 22  1  1  0  0  0
  8 11  2  0  0  0  0
  9 13  2  0  0  0  0
  9  1  1  0  0  0  0
 10 12  1  0  0  0  0
 10  3  2  0  0  0  0
 12  9  1  0  0  0  0
 15 14  1  6  0  0  0
 15 21  1  0  0  0  0
 15 17  1  0  0  0  0
 17 16  1  0  0  0  0
 17 19  1  0  0  0  0
 18 17  2  0  0  0  0
 21 20  3  0  0  0  0
 22 28  1  0  0  0  0
 23 32  1  0  0  0  0
 23 29  2  0  0  0  0
 24 25  1  0  0  0  0
 24 26  1  0  0  0  0
 24 23  1  0  0  0  0
 25 28  1  0  0  0  0
 27 29  1  0  0  0  0
 28 27  2  0  0  0  0
 30 24  1  0  0  0  0
 31 32  2  0  0  0  0
 32 33  1  0  0  0  0
M  END
>  <MODEL>
7

>  <REMARK>
 VINA RESULT:      -6.7      1.326      1.968
  Name = 
  7 active torsions:
  status: ('A' for Active; 'I' for Inactive)
    1  A    between atoms: C_1  and  C_21
    2  A    between atoms: C_2  and  N_3
    3  A    between atoms: C_2  and  C_9
    4  A    between atoms: N_5  and  C_22
    5  A    between atoms: N_5  and  C_27
    6  A    between atoms: C_9  and  P_11
    7  A    between atoms: C_9  and  C_23
                            x       y       z     vdW  Elec       q    Type
                         _______ _______ _______ _____ _____    ______ ____

>  <TORSDO>
F 7

$$$$
=
 OpenBabel11062418583D

 33 35  0  0  1  0  0  0  0  0999 V2000
  192.7010  172.9510  142.7230 N   0  0  0  0  0  0  0  0  0  0  0  0
  192.0880  170.5750  139.7940 C   0  0  0  0  0  1  0  0  0  0  0  0
  190.3790  173.1990  141.7860 C   0  0  0  0  0  0  0  0  0  0  0  0
  191.4740  173.7760  142.6680 C   0  0  1  0  0  3  0  0  0  0  0  0
  188.9200  174.9980  142.7440 C   0  0  0  0  0  2  0  0  0  0  0  0
  188.9900  173.7700  141.8400 C   0  0  0  0  0  2  0  0  0  0  0  0
  189.4960  174.7020  144.1270 C   0  0  1  0  0  3  0  0  0  0  0  0
  190.8890  174.1210  144.0290 C   0  0  0  0  0  0  0  0  0  0  0  0
  192.9460  171.9700  141.6970 C   0  0  0  0  0  0  0  0  0  0  0  0
  190.6080  172.2120  140.9220 C   0  0  0  0  0  3  0  0  0  0  0  0
  191.5280  173.9420  145.0540 O   0  0  0  0  0  0  0  0  0  0  0  0
  191.8900  171.6000  140.8050 N   0  0  0  0  0  0  0  0  0  0  0  0
  194.0840  171.4380  141.5770 O   0  0  0  0  0  0  0  0  0  0  0  0
  193.8290  173.4290  143.5280 C   0  0  0  0  0  2  0  0  0  0  0  0
  194.4360  174.7140  142.9640 C   0  0  1  0  0  3  0  0  0  0  0  0
  193.5440  176.7250  144.5810 O   0  0  0  0  0  1  0  0  0  0  0  0
  194.7680  175.8770  144.3180 P   0  0  0  0  0  0  0  0  0  0  0  0
  196.0640  176.8790  143.8950 O   0  0  0  0  0  0  0  0  0  0  0  0
  195.1650  175.0150  145.7180 O   0  0  0  0  0  1  0  0  0  0  0  0
  196.6500  174.2470  141.6330 N   0  0  0  0  0  0  0  0  0  0  0  0
  195.6720  174.4530  142.2180 C   0  0  0  0  0  0  0  0  0  0  0  0
  189.5090  175.9340  144.9090 N   0  0  0  0  0  2  0  0  0  0  0  0
  185.8630  177.8240  146.1550 C   0  0  0  0  0  0  0  0  0  0  0  0
  186.3710  178.0920  144.7490 C   0  0  0  0  0  0  0  0  0  0  0  0
  187.8820  177.8440  144.6300 C   0  0  0  0  0  2  0  0  0  0  0  0
  186.1300  179.4060  144.3920 F   0  0  0  0  0  0  0  0  0  0  0  0
  187.6850  176.2130  146.4630 C   0  0  0  0  0  3  0  0  0  0  0  0
  188.3290  176.6070  145.3570 C   0  0  0  0  0  0  0  0  0  0  0  0
  186.4700  176.9050  146.9180 C   0  0  0  0  0  3  0  0  0  0  0  0
  185.7080  177.2590  143.8640 F   0  0  0  0  0  0  0  0  0  0  0  0
  183.6910  178.7490  145.8530 O   0  0  0  0  0  0  0  0  0  0  0  0
  184.6140  178.4340  146.6490 C   0  0  0  0  0  0  0  0  0  0  0  0
  184.4410  178.6550  147.9780 F   0  0  0  0  0  0  0  0  0  0  0  0
  1 14  1  0  0  0  0
  2 12  1  0  0  0  0
  3  6  1  0  0  0  0
  4  3  1  6  0  0  0
  4  1  1  0  0  0  0
  4  8  1  0  0  0  0
  5  7  1  0  0  0  0
  6  5  1  0  0  0  0
  7 22  1  1  0  0  0
  8  7  1  0  0  0  0
  8 11  2  0  0  0  0
  9  1  1  0  0  0  0
 10  3  2  0  0  0  0
 12 10  1  0  0  0  0
 12  9  1  0  0  0  0
 13  9  2  0  0  0  0
 15 21  1  1  0  0  0
 15 14  1  0  0  0  0
 15 17  1  0  0  0  0
 17 16  1  0  0  0  0
 17 19  1  0  0  0  0
 18 17  2  0  0  0  0
 20 21  3  0  0  0  0
 22 28  1  0  0  0  0
 23 32  1  0  0  0  0
 23 29  2  0  0  0  0
 24 23  1  0  0  0  0
 25 24  1  0  0  0  0
 25 28  1  0  0  0  0
 26 24  1  0  0  0  0
 27 29  1  0  0  0  0
 28 27  2  0  0  0  0
 30 24  1  0  0  0  0
 31 32  2  0  0  0  0
 32 33  1  0  0  0  0
M  END
>  <MODEL>
8

>  <REMARK>
 VINA RESULT:      -6.7      4.542      8.506
  Name = 
  7 active torsions:
  status: ('A' for Active; 'I' for Inactive)
    1  A    between atoms: C_1  and  C_21
    2  A    between atoms: C_2  and  N_3
    3  A    between atoms: C_2  and  C_9
    4  A    between atoms: N_5  and  C_22
    5  A    between atoms: N_5  and  C_27
    6  A    between atoms: C_9  and  P_11
    7  A    between atoms: C_9  and  C_23
                            x       y       z     vdW  Elec       q    Type
                         _______ _______ _______ _____ _____    ______ ____

>  <TORSDO>
F 7

$$$$
=
 OpenBabel11062418583D

 33 35  0  0  1  0  0  0  0  0999 V2000
  193.9610  172.8680  144.4420 N   0  0  0  0  0  0  0  0  0  0  0  0
  193.7750  169.1400  143.6280 C   0  0  0  0  0  1  0  0  0  0  0  0
  191.5840  172.0810  144.1960 C   0  0  0  0  0  0  0  0  0  0  0  0
  192.5440  173.2570  144.2720 C   0  0  1  0  0  3  0  0  0  0  0  0
  189.7650  173.8000  144.3410 C   0  0  0  0  0  2  0  0  0  0  0  0
  190.1030  172.3110  144.2950 C   0  0  0  0  0  2  0  0  0  0  0  0
  190.5540  174.5140  145.4380 C   0  0  1  0  0  3  0  0  0  0  0  0
  192.0380  174.2490  145.3080 C   0  0  0  0  0  0  0  0  0  0  0  0
  194.3760  171.5280  144.1160 C   0  0  0  0  0  0  0  0  0  0  0  0
  192.0050  170.8330  144.0040 C   0  0  0  0  0  3  0  0  0  0  0  0
  192.8110  174.8470  146.0400 O   0  0  0  0  0  0  0  0  0  0  0  0
  193.3900  170.5140  143.9060 N   0  0  0  0  0  0  0  0  0  0  0  0
  195.6020  171.2440  144.0090 O   0  0  0  0  0  0  0  0  0  0  0  0
  194.9740  173.9270  144.5040 C   0  0  0  0  0  2  0  0  0  0  0  0
  194.8910  174.8750  143.3080 C   0  0  1  0  0  3  0  0  0  0  0  0
  197.4900  175.4680  143.9000 O   0  0  0  0  0  1  0  0  0  0  0  0
  196.2100  176.1180  143.4220 P   0  0  0  0  0  0  0  0  0  0  0  0
  195.7530  177.3260  144.5130 O   0  0  0  0  0  1  0  0  0  0  0  0
  196.4670  176.8090  141.9000 O   0  0  0  0  0  0  0  0  0  0  0  0
  195.0730  173.5860  141.0290 N   0  0  0  0  0  0  0  0  0  0  0  0
  194.9930  174.1560  142.0330 C   0  0  0  0  0  0  0  0  0  0  0  0
  190.2800  175.9440  145.3640 N   0  0  0  0  0  2  0  0  0  0  0  0
  186.3810  177.5520  146.1560 C   0  0  0  0  0  0  0  0  0  0  0  0
  186.9660  177.7300  144.7660 C   0  0  0  0  0  0  0  0  0  0  0  0
  188.4990  177.6340  144.7750 C   0  0  0  0  0  2  0  0  0  0  0  0
  186.6240  178.9690  144.2550 F   0  0  0  0  0  0  0  0  0  0  0  0
  188.3240  176.1830  146.7550 C   0  0  0  0  0  3  0  0  0  0  0  0
  189.0080  176.5290  145.6580 C   0  0  0  0  0  0  0  0  0  0  0  0
  187.0150  176.7830  147.0510 C   0  0  0  0  0  3  0  0  0  0  0  0
  186.4580  176.7480  143.9340 F   0  0  0  0  0  0  0  0  0  0  0  0
  184.8290  178.6170  147.6130 O   0  0  0  0  0  0  0  0  0  0  0  0
  185.0430  178.0720  146.4980 C   0  0  0  0  0  0  0  0  0  0  0  0
  184.0250  177.9780  145.6050 F   0  0  0  0  0  0  0  0  0  0  0  0
  1 14  1  0  0  0  0
  2 12  1  0  0  0  0
  3  6  1  0  0  0  0
  4  3  1  1  0  0  0
  4  1  1  0  0  0  0
  4  8  1  0  0  0  0
  5  7  1  0  0  0  0
  6  5  1  0  0  0  0
  7 22  1  6  0  0  0
  8  7  1  0  0  0  0
  8 11  2  0  0  0  0
  9  1  1  0  0  0  0
 10  3  2  0  0  0  0
 12 10  1  0  0  0  0
 12  9  1  0  0  0  0
 13  9  2  0  0  0  0
 15 21  1  6  0  0  0
 15 17  1  0  0  0  0
 15 14  1  0  0  0  0
 17 16  1  0  0  0  0
 17 18  1  0  0  0  0
 19 17  2  0  0  0  0
 20 21  3  0  0  0  0
 22 28  1  0  0  0  0
 23 32  1  0  0  0  0
 23 29  2  0  0  0  0
 24 25  1  0  0  0  0
 24 23  1  0  0  0  0
 25 28  1  0  0  0  0
 26 24  1  0  0  0  0
 27 29  1  0  0  0  0
 28 27  2  0  0  0  0
 30 24  1  0  0  0  0
 32 31  2  0  0  0  0
 33 32  1  0  0  0  0
M  END
>  <MODEL>
9

>  <REMARK>
 VINA RESULT:      -6.5      4.551      9.008
  Name = 
  7 active torsions:
  status: ('A' for Active; 'I' for Inactive)
    1  A    between atoms: C_1  and  C_21
    2  A    between atoms: C_2  and  N_3
    3  A    between atoms: C_2  and  C_9
    4  A    between atoms: N_5  and  C_22
    5  A    between atoms: N_5  and  C_27
    6  A    between atoms: C_9  and  P_11
    7  A    between atoms: C_9  and  C_23
                            x       y       z     vdW  Elec       q    Type
                         _______ _______ _______ _____ _____    ______ ____

>  <TORSDO>
F 7

$$$$
