=
 OpenBabel11062420063D

 35 40  0  0  1  0  0  0  0  0999 V2000
  186.9630  178.3400  147.4910 C   0  0  0  0  0  2  0  0  0  0  0  0
  190.4260  176.0150  145.5850 C   0  0  0  0  0  0  0  0  0  0  0  0
  189.7000  177.1470  146.6070 S   0  0  0  0  0  0  0  0  0  0  0  0
  185.7060  177.0730  145.6340 C   0  0  2  0  0  3  0  0  0  0  0  0
  188.1890  176.8330  145.9230 C   0  0  0  0  0  0  0  0  0  0  0  0
  184.6090  177.9360  147.5970 O   0  0  0  0  0  0  0  0  0  0  0  0
  189.5140  175.4400  144.7680 N   0  0  0  0  0  0  0  0  0  0  0  0
  184.4870  177.8030  146.2100 C   0  0  0  0  0  2  0  0  0  0  0  0
  188.2750  175.8920  144.9560 N   0  0  0  0  0  0  0  0  0  0  0  0
  186.9560  177.4680  146.3080 N   0  0  0  0  0  0  0  0  0  0  0  0
  185.5820  178.9250  147.7720 C   0  0  0  0  0  2  0  0  0  0  0  0
  196.0040  174.5840  145.5090 C   0  0  0  0  0  2  0  0  0  0  0  0
  194.5520  174.9760  145.5660 C   0  0  0  0  0  0  0  0  0  0  0  0
  192.2350  174.3630  145.5700 N   0  0  0  0  0  0  0  0  0  0  0  0
  195.1230  177.3010  145.5350 F   0  0  0  0  0  0  0  0  0  0  0  0
  191.8560  175.6700  145.5690 C   0  0  0  0  0  0  0  0  0  0  0  0
  193.9090  172.5390  145.6240 C   0  0  0  0  0  2  0  0  0  0  0  0
  196.1880  173.1020  145.8380 C   0  0  0  0  0  2  0  0  0  0  0  0
  193.5440  173.9950  145.5530 C   0  0  0  0  0  0  0  0  0  0  0  0
  192.8300  176.6740  145.5560 C   0  0  0  0  0  3  0  0  0  0  0  0
  194.1820  176.3260  145.5530 C   0  0  0  0  0  0  0  0  0  0  0  0
  195.2420  172.3020  145.0570 N   0  0  1  0  0  0  0  0  0  0  0  0
  196.5260  169.5470  146.9600 C   0  0  0  0  0  2  0  0  0  0  0  0
  196.8220  170.7270  146.0890 C   0  0  0  0  0  2  0  0  0  0  0  0
  195.1330  169.1340  146.5520 C   0  0  0  0  0  2  0  0  0  0  0  0
  195.5710  170.8840  145.2410 C   0  0  1  0  0  3  0  0  0  0  0  0
  194.5250  170.2160  145.9030 O   0  0  0  0  0  0  0  0  0  0  0  0
  185.9350  179.6640  144.4630 O   0  0  0  0  0  0  0  0  0  0  0  0
  185.9370  178.6700  143.6860 C   0  0  0  0  0  0  0  0  0  0  0  0
  185.7990  177.3470  144.2050 N   0  0  0  0  0  2  0  0  0  0  0  0
  186.8610  177.3610  140.4770 C   0  0  0  0  0  2  0  0  0  0  0  0
  186.0320  178.8650  142.2080 C   0  0  0  0  0  3  0  0  0  0  0  0
  184.8580  178.2330  141.4860 C   0  0  0  0  0  2  0  0  0  0  0  0
  185.4230  177.7320  140.1780 C   0  0  0  0  0  2  0  0  0  0  0  0
  187.2890  178.2180  141.6550 C   0  0  0  0  0  2  0  0  0  0  0  0
  1 11  1  0  0  0  0
  2  3  1  0  0  0  0
  4 30  1  6  0  0  0
  4  8  1  0  0  0  0
  4 10  1  0  0  0  0
  5 10  1  0  0  0  0
  5  3  1  0  0  0  0
  6 11  1  0  0  0  0
  7  9  1  0  0  0  0
  7  2  2  0  0  0  0
  8  6  1  0  0  0  0
  9  5  2  0  0  0  0
 10  1  1  0  0  0  0
 12 13  1  0  0  0  0
 12 18  1  0  0  0  0
 15 21  1  0  0  0  0
 16 14  2  0  0  0  0
 16  2  1  0  0  0  0
 19 13  2  0  0  0  0
 19 14  1  0  0  0  0
 19 17  1  0  0  0  0
 20 16  1  0  0  0  0
 21 20  2  0  0  0  0
 21 13  1  0  0  0  0
 22 26  1  0  0  0  0
 22 17  1  1  0  0  0
 22 18  1  0  0  0  0
 24 23  1  0  0  0  0
 25 23  1  0  0  0  0
 26 27  1  0  0  0  0
 26 24  1  1  0  0  0
 27 25  1  0  0  0  0
 29 30  1  0  0  0  0
 29 28  2  0  0  0  0
 31 35  1  0  0  0  0
 32 29  1  0  0  0  0
 33 32  1  0  0  0  0
 34 31  1  0  0  0  0
 34 33  1  0  0  0  0
 35 32  1  0  0  0  0
M  END
>  <MODEL>
1

>  <REMARK>
 VINA RESULT:      -9.0      0.000      0.000
  Name = 
  4 active torsions:
  status: ('A' for Active; 'I' for Inactive)
    1  A    between atoms: C_3  and  C_16
    2  A    between atoms: C_6  and  N_35
    3  A    between atoms: C_15  and  C_29
    4  A    between atoms: C_22  and  N_33
                            x       y       z     vdW  Elec       q    Type
                         _______ _______ _______ _____ _____    ______ ____

>  <TORSDO>
F 4

$$$$
=
 OpenBabel11062420063D

 35 40  0  0  1  0  0  0  0  0999 V2000
  187.5870  176.6200  140.7110 C   0  0  0  0  0  2  0  0  0  0  0  0
  190.8980  176.6200  143.8840 C   0  0  0  0  0  0  0  0  0  0  0  0
  190.0880  176.1070  142.4940 S   0  0  0  0  0  0  0  0  0  0  0  0
  186.5960  178.2770  142.4160 C   0  0  2  0  0  3  0  0  0  0  0  0
  188.8050  177.1540  142.8230 C   0  0  0  0  0  0  0  0  0  0  0  0
  185.9310  178.2330  140.1010 O   0  0  0  0  0  0  0  0  0  0  0  0
  190.1820  177.5570  144.5470 N   0  0  0  0  0  0  0  0  0  0  0  0
  185.4440  178.3460  141.4080 C   0  0  0  0  0  2  0  0  0  0  0  0
  189.0240  177.8540  143.9590 N   0  0  0  0  0  0  0  0  0  0  0  0
  187.6260  177.3020  142.0120 N   0  0  0  0  0  0  0  0  0  0  0  0
  186.2790  176.8850  139.9700 C   0  0  0  0  0  2  0  0  0  0  0  0
  196.0240  174.6580  145.6280 C   0  0  0  0  0  2  0  0  0  0  0  0
  194.6780  175.1860  145.2100 C   0  0  0  0  0  0  0  0  0  0  0  0
  192.4710  174.8030  144.3570 N   0  0  0  0  0  0  0  0  0  0  0  0
  195.3900  177.4430  145.5770 F   0  0  0  0  0  0  0  0  0  0  0  0
  192.2120  176.1390  144.3350 C   0  0  0  0  0  0  0  0  0  0  0  0
  193.8810  172.8240  144.8330 C   0  0  0  0  0  2  0  0  0  0  0  0
  195.9720  173.1490  145.8720 C   0  0  0  0  0  2  0  0  0  0  0  0
  193.6720  174.3100  144.7640 C   0  0  0  0  0  0  0  0  0  0  0  0
  193.1980  177.0420  144.7470 C   0  0  0  0  0  3  0  0  0  0  0  0
  194.4350  176.5640  145.1840 C   0  0  0  0  0  0  0  0  0  0  0  0
  195.3070  172.4890  144.7460 N   0  0  1  0  0  0  0  0  0  0  0  0
  196.1330  169.5600  146.6440 C   0  0  0  0  0  2  0  0  0  0  0  0
  196.6210  170.7090  145.8190 C   0  0  0  0  0  2  0  0  0  0  0  0
  194.7240  169.3330  146.1540 C   0  0  0  0  0  2  0  0  0  0  0  0
  195.4470  171.0380  144.9120 C   0  0  1  0  0  3  0  0  0  0  0  0
  194.2920  170.4950  145.5010 O   0  0  0  0  0  0  0  0  0  0  0  0
  185.6330  180.1370  144.3520 O   0  0  0  0  0  0  0  0  0  0  0  0
  185.5750  178.9110  144.6420 C   0  0  0  0  0  0  0  0  0  0  0  0
  186.0650  177.9290  143.7290 N   0  0  0  0  0  2  0  0  0  0  0  0
  185.9340  176.8530  147.5570 C   0  0  0  0  0  2  0  0  0  0  0  0
  185.0420  178.4710  145.9660 C   0  0  0  0  0  3  0  0  0  0  0  0
  185.7130  179.2070  147.1100 C   0  0  0  0  0  2  0  0  0  0  0  0
  185.7920  178.2010  148.2330 C   0  0  0  0  0  2  0  0  0  0  0  0
  185.2940  176.9900  146.1880 C   0  0  0  0  0  2  0  0  0  0  0  0
  1 10  1  0  0  0  0
  2 16  1  0  0  0  0
  2  7  2  0  0  0  0
  3  5  1  0  0  0  0
  3  2  1  0  0  0  0
  4 30  1  1  0  0  0
  5  9  2  0  0  0  0
  6  8  1  0  0  0  0
  8  4  1  0  0  0  0
  9  7  1  0  0  0  0
 10  4  1  0  0  0  0
 10  5  1  0  0  0  0
 11  6  1  0  0  0  0
 11  1  1  0  0  0  0
 12 18  1  0  0  0  0
 13 12  1  0  0  0  0
 14 19  1  0  0  0  0
 16 14  2  0  0  0  0
 16 20  1  0  0  0  0
 19 17  1  0  0  0  0
 19 13  2  0  0  0  0
 20 21  2  0  0  0  0
 21 13  1  0  0  0  0
 21 15  1  0  0  0  0
 22 17  1  1  0  0  0
 22 26  1  0  0  0  0
 22 18  1  0  0  0  0
 24 23  1  0  0  0  0
 25 23  1  0  0  0  0
 26 27  1  0  0  0  0
 26 24  1  1  0  0  0
 27 25  1  0  0  0  0
 28 29  2  0  0  0  0
 29 32  1  0  0  0  0
 30 29  1  0  0  0  0
 31 34  1  0  0  0  0
 32 35  1  0  0  0  0
 32 33  1  0  0  0  0
 33 34  1  0  0  0  0
 35 31  1  0  0  0  0
M  END
>  <MODEL>
2

>  <REMARK>
 VINA RESULT:      -9.0      1.557      3.671
  Name = 
  4 active torsions:
  status: ('A' for Active; 'I' for Inactive)
    1  A    between atoms: C_3  and  C_16
    2  A    between atoms: C_6  and  N_35
    3  A    between atoms: C_15  and  C_29
    4  A    between atoms: C_22  and  N_33
                            x       y       z     vdW  Elec       q    Type
                         _______ _______ _______ _____ _____    ______ ____

>  <TORSDO>
F 4

$$$$
=
 OpenBabel11062420063D

 35 40  0  0  1  0  0  0  0  0999 V2000
  192.0740  171.2270  144.2570 C   0  0  0  0  0  2  0  0  0  0  0  0
  189.8630  175.0670  145.4410 C   0  0  0  0  0  0  0  0  0  0  0  0
  190.0310  173.5160  144.7940 S   0  0  0  0  0  0  0  0  0  0  0  0
  194.0600  172.7090  144.9610 C   0  0  2  0  0  3  0  0  0  0  0  0
  191.7040  173.5750  145.0210 C   0  0  0  0  0  0  0  0  0  0  0  0
  194.1780  170.3030  144.9180 O   0  0  0  0  0  0  0  0  0  0  0  0
  191.0630  175.5760  145.8050 N   0  0  0  0  0  0  0  0  0  0  0  0
  194.8820  171.4680  144.5960 C   0  0  0  0  0  2  0  0  0  0  0  0
  192.0820  174.7500  145.5740 N   0  0  0  0  0  0  0  0  0  0  0  0
  192.6240  172.5220  144.6830 N   0  0  0  0  0  0  0  0  0  0  0  0
  193.1750  170.2170  143.9470 C   0  0  0  0  0  2  0  0  0  0  0  0
  184.8860  177.9070  146.0120 C   0  0  0  0  0  2  0  0  0  0  0  0
  186.2050  177.1940  145.8860 C   0  0  0  0  0  0  0  0  0  0  0  0
  187.9700  176.3200  144.5210 N   0  0  0  0  0  0  0  0  0  0  0  0
  186.2730  176.7900  148.2450 F   0  0  0  0  0  0  0  0  0  0  0  0
  188.5940  175.7910  145.6080 C   0  0  0  0  0  0  0  0  0  0  0  0
  186.1830  177.6180  143.4010 C   0  0  0  0  0  2  0  0  0  0  0  0
  184.5490  178.6730  144.7320 C   0  0  0  0  0  2  0  0  0  0  0  0
  186.7940  176.9960  144.6240 C   0  0  0  0  0  0  0  0  0  0  0  0
  188.0240  175.9460  146.8770 C   0  0  0  0  0  3  0  0  0  0  0  0
  186.8260  176.6470  147.0150 C   0  0  0  0  0  0  0  0  0  0  0  0
  184.7370  177.8020  143.5710 N   0  0  1  0  0  0  0  0  0  0  0  0
  184.0730  178.0390  140.0550 C   0  0  0  0  0  2  0  0  0  0  0  0
  185.0680  178.1740  141.1640 C   0  0  0  0  0  2  0  0  0  0  0  0
  182.7430  178.2770  140.7280 C   0  0  0  0  0  2  0  0  0  0  0  0
  184.2210  178.4930  142.3840 C   0  0  1  0  0  3  0  0  0  0  0  0
  182.9060  178.0810  142.1060 O   0  0  0  0  0  0  0  0  0  0  0  0
  196.0050  174.5620  145.9210 O   0  0  0  0  0  0  0  0  0  0  0  0
  195.5630  174.7320  144.7520 C   0  0  0  0  0  0  0  0  0  0  0  0
  194.5690  173.8560  144.2210 N   0  0  0  0  0  2  0  0  0  0  0  0
  197.3330  175.9060  141.8620 C   0  0  0  0  0  2  0  0  0  0  0  0
  196.0350  175.8840  143.9250 C   0  0  0  0  0  3  0  0  0  0  0  0
  195.1100  176.1430  142.7510 C   0  0  0  0  0  2  0  0  0  0  0  0
  196.0130  176.6120  141.6350 C   0  0  0  0  0  2  0  0  0  0  0  0
  197.4120  175.6100  143.3490 C   0  0  0  0  0  2  0  0  0  0  0  0
  1 10  1  0  0  0  0
  2 16  1  0  0  0  0
  2  7  2  0  0  0  0
  3  5  1  0  0  0  0
  3  2  1  0  0  0  0
  4 30  1  6  0  0  0
  5  9  2  0  0  0  0
  8  6  1  0  0  0  0
  8  4  1  0  0  0  0
  9  7  1  0  0  0  0
 10  4  1  0  0  0  0
 10  5  1  0  0  0  0
 11  1  1  0  0  0  0
 11  6  1  0  0  0  0
 13 12  1  0  0  0  0
 13 21  1  0  0  0  0
 14 19  1  0  0  0  0
 14 16  2  0  0  0  0
 16 20  1  0  0  0  0
 17 19  1  0  0  0  0
 18 12  1  0  0  0  0
 19 13  2  0  0  0  0
 20 21  2  0  0  0  0
 21 15  1  0  0  0  0
 22 17  1  6  0  0  0
 22 18  1  0  0  0  0
 23 25  1  0  0  0  0
 23 24  1  0  0  0  0
 25 27  1  0  0  0  0
 26 24  1  6  0  0  0
 26 22  1  0  0  0  0
 27 26  1  0  0  0  0
 29 28  2  0  0  0  0
 30 29  1  0  0  0  0
 31 35  1  0  0  0  0
 32 29  1  0  0  0  0
 33 32  1  0  0  0  0
 34 31  1  0  0  0  0
 34 33  1  0  0  0  0
 35 32  1  0  0  0  0
M  END
>  <MODEL>
3

>  <REMARK>
 VINA RESULT:      -8.9      2.701     10.258
  Name = 
  4 active torsions:
  status: ('A' for Active; 'I' for Inactive)
    1  A    between atoms: C_3  and  C_16
    2  A    between atoms: C_6  and  N_35
    3  A    between atoms: C_15  and  C_29
    4  A    between atoms: C_22  and  N_33
                            x       y       z     vdW  Elec       q    Type
                         _______ _______ _______ _____ _____    ______ ____

>  <TORSDO>
F 4

$$$$
=
 OpenBabel11062420063D

 35 40  0  0  1  0  0  0  0  0999 V2000
  195.2150  172.9960  145.8600 C   0  0  0  0  0  2  0  0  0  0  0  0
  191.5820  175.7060  145.1600 C   0  0  0  0  0  0  0  0  0  0  0  0
  192.4020  174.3200  145.6660 S   0  0  0  0  0  0  0  0  0  0  0  0
  196.2950  174.8670  144.4580 C   0  0  2  0  0  3  0  0  0  0  0  0
  193.8460  174.9030  145.0120 C   0  0  0  0  0  0  0  0  0  0  0  0
  197.5670  173.4240  145.9080 O   0  0  0  0  0  0  0  0  0  0  0  0
  192.4150  176.5590  144.5190 N   0  0  0  0  0  0  0  0  0  0  0  0
  197.5640  174.0290  144.6460 C   0  0  0  0  0  2  0  0  0  0  0  0
  193.6690  176.1150  144.4390 N   0  0  0  0  0  0  0  0  0  0  0  0
  195.1120  174.2200  145.0530 N   0  0  0  0  0  0  0  0  0  0  0  0
  196.6190  172.4000  145.8100 C   0  0  0  0  0  2  0  0  0  0  0  0
  185.9860  176.8190  145.9380 C   0  0  0  0  0  2  0  0  0  0  0  0
  187.4570  176.5530  145.7670 C   0  0  0  0  0  0  0  0  0  0  0  0
  189.4380  176.6300  144.4200 N   0  0  0  0  0  0  0  0  0  0  0  0
  187.5690  175.4920  147.9100 F   0  0  0  0  0  0  0  0  0  0  0  0
  190.1550  175.9840  145.3790 C   0  0  0  0  0  0  0  0  0  0  0  0
  187.3870  177.6830  143.5140 C   0  0  0  0  0  2  0  0  0  0  0  0
  185.4810  177.8170  144.8940 C   0  0  0  0  0  2  0  0  0  0  0  0
  188.1150  176.9070  144.5750 C   0  0  0  0  0  0  0  0  0  0  0  0
  189.5270  175.5930  146.5670 C   0  0  0  0  0  3  0  0  0  0  0  0
  188.1750  175.8770  146.7600 C   0  0  0  0  0  0  0  0  0  0  0  0
  185.9450  177.4180  143.5640 N   0  0  1  0  0  0  0  0  0  0  0  0
  184.8120  178.1510  140.2410 C   0  0  0  0  0  2  0  0  0  0  0  0
  185.9520  178.1250  141.2100 C   0  0  0  0  0  2  0  0  0  0  0  0
  183.5930  178.2960  141.1190 C   0  0  0  0  0  2  0  0  0  0  0  0
  185.2880  178.2710  142.5680 C   0  0  1  0  0  3  0  0  0  0  0  0
  183.9370  177.9070  142.4200 O   0  0  0  0  0  0  0  0  0  0  0  0
  197.2340  177.1230  142.9860 O   0  0  0  0  0  0  0  0  0  0  0  0
  196.5980  176.2360  142.3530 C   0  0  0  0  0  0  0  0  0  0  0  0
  196.0770  175.0960  143.0350 N   0  0  0  0  0  2  0  0  0  0  0  0
  196.7060  174.8350  139.0530 C   0  0  0  0  0  2  0  0  0  0  0  0
  196.3340  176.3930  140.8910 C   0  0  0  0  0  3  0  0  0  0  0  0
  195.0140  175.7620  140.4920 C   0  0  0  0  0  2  0  0  0  0  0  0
  195.2420  175.2200  139.1000 C   0  0  0  0  0  2  0  0  0  0  0  0
  197.4140  175.7130  140.0680 C   0  0  0  0  0  2  0  0  0  0  0  0
  2 16  1  0  0  0  0
  2  3  1  0  0  0  0
  4 30  1  6  0  0  0
  4  8  1  0  0  0  0
  4 10  1  0  0  0  0
  5 10  1  0  0  0  0
  5  3  1  0  0  0  0
  7  2  2  0  0  0  0
  8  6  1  0  0  0  0
  9  7  1  0  0  0  0
  9  5  2  0  0  0  0
 10  1  1  0  0  0  0
 11  1  1  0  0  0  0
 11  6  1  0  0  0  0
 13 12  1  0  0  0  0
 13 21  1  0  0  0  0
 14 19  1  0  0  0  0
 14 16  2  0  0  0  0
 16 20  1  0  0  0  0
 17 19  1  0  0  0  0
 18 12  1  0  0  0  0
 19 13  2  0  0  0  0
 20 21  2  0  0  0  0
 21 15  1  0  0  0  0
 22 17  1  1  0  0  0
 22 18  1  0  0  0  0
 23 25  1  0  0  0  0
 23 24  1  0  0  0  0
 25 27  1  0  0  0  0
 26 24  1  6  0  0  0
 26 22  1  0  0  0  0
 27 26  1  0  0  0  0
 29 28  2  0  0  0  0
 29 30  1  0  0  0  0
 31 34  1  0  0  0  0
 31 35  1  0  0  0  0
 32 29  1  0  0  0  0
 33 32  1  0  0  0  0
 34 33  1  0  0  0  0
 35 32  1  0  0  0  0
M  END
>  <MODEL>
4

>  <REMARK>
 VINA RESULT:      -8.7      3.428     10.085
  Name = 
  4 active torsions:
  status: ('A' for Active; 'I' for Inactive)
    1  A    between atoms: C_3  and  C_16
    2  A    between atoms: C_6  and  N_35
    3  A    between atoms: C_15  and  C_29
    4  A    between atoms: C_22  and  N_33
                            x       y       z     vdW  Elec       q    Type
                         _______ _______ _______ _____ _____    ______ ____

>  <TORSDO>
F 4

$$$$
=
 OpenBabel11062420063D

 35 40  0  0  1  0  0  0  0  0999 V2000
  195.7070  176.7710  143.5120 C   0  0  0  0  0  2  0  0  0  0  0  0
  191.5070  175.4080  144.7490 C   0  0  0  0  0  0  0  0  0  0  0  0
  192.7520  176.5120  144.4600 S   0  0  0  0  0  0  0  0  0  0  0  0
  196.0300  174.2160  143.5120 C   0  0  2  0  0  3  0  0  0  0  0  0
  193.8300  175.2510  144.1420 C   0  0  0  0  0  0  0  0  0  0  0  0
  197.4510  175.7100  142.2670 O   0  0  0  0  0  0  0  0  0  0  0  0
  191.9390  174.1350  144.5980 N   0  0  0  0  0  0  0  0  0  0  0  0
  197.4570  174.5770  143.0870 C   0  0  0  0  0  2  0  0  0  0  0  0
  193.2250  174.0480  144.2600 N   0  0  0  0  0  0  0  0  0  0  0  0
  195.2140  175.4140  143.7840 N   0  0  0  0  0  0  0  0  0  0  0  0
  197.1860  176.7730  143.1360 C   0  0  0  0  0  2  0  0  0  0  0  0
  186.0780  176.7890  146.0850 C   0  0  0  0  0  2  0  0  0  0  0  0
  187.5100  176.4520  145.7670 C   0  0  0  0  0  0  0  0  0  0  0  0
  189.3470  176.4380  144.2280 N   0  0  0  0  0  0  0  0  0  0  0  0
  187.7850  175.3770  147.8900 F   0  0  0  0  0  0  0  0  0  0  0  0
  190.1240  175.7540  145.1110 C   0  0  0  0  0  0  0  0  0  0  0  0
  187.2700  177.5940  143.5320 C   0  0  0  0  0  2  0  0  0  0  0  0
  185.5210  177.8150  145.0970 C   0  0  0  0  0  2  0  0  0  0  0  0
  188.0620  176.7780  144.5150 C   0  0  0  0  0  0  0  0  0  0  0  0
  189.6010  175.3890  146.3560 C   0  0  0  0  0  3  0  0  0  0  0  0
  188.2900  175.7380  146.6840 C   0  0  0  0  0  0  0  0  0  0  0  0
  185.8280  177.3980  143.7270 N   0  0  1  0  0  0  0  0  0  0  0  0
  184.5190  178.2560  140.5000 C   0  0  0  0  0  2  0  0  0  0  0  0
  185.7090  178.1970  141.4050 C   0  0  0  0  0  2  0  0  0  0  0  0
  183.3480  178.3610  141.4460 C   0  0  0  0  0  2  0  0  0  0  0  0
  185.1170  178.2870  142.8020 C   0  0  1  0  0  3  0  0  0  0  0  0
  183.7620  177.9220  142.7110 O   0  0  0  0  0  0  0  0  0  0  0  0
  195.8540  171.3690  143.5070 O   0  0  0  0  0  0  0  0  0  0  0  0
  196.0130  171.9420  144.6190 C   0  0  0  0  0  0  0  0  0  0  0  0
  196.0810  173.3660  144.6950 N   0  0  0  0  0  2  0  0  0  0  0  0
  195.1730  168.9370  146.3880 C   0  0  0  0  0  2  0  0  0  0  0  0
  196.0780  171.1430  145.8800 C   0  0  0  0  0  3  0  0  0  0  0  0
  197.1950  170.1180  145.8320 C   0  0  0  0  0  2  0  0  0  0  0  0
  196.6710  168.9300  146.6050 C   0  0  0  0  0  2  0  0  0  0  0  0
  194.7860  170.3780  146.1050 C   0  0  0  0  0  2  0  0  0  0  0  0
  1 10  1  0  0  0  0
  2 16  1  0  0  0  0
  3  2  1  0  0  0  0
  4 10  1  0  0  0  0
  4 30  1  1  0  0  0
  5  9  2  0  0  0  0
  5  3  1  0  0  0  0
  6  8  1  0  0  0  0
  6 11  1  0  0  0  0
  7  2  2  0  0  0  0
  8  4  1  0  0  0  0
  9  7  1  0  0  0  0
 10  5  1  0  0  0  0
 11  1  1  0  0  0  0
 13 12  1  0  0  0  0
 13 21  1  0  0  0  0
 14 19  1  0  0  0  0
 14 16  2  0  0  0  0
 16 20  1  0  0  0  0
 17 19  1  0  0  0  0
 18 12  1  0  0  0  0
 19 13  2  0  0  0  0
 20 21  2  0  0  0  0
 21 15  1  0  0  0  0
 22 17  1  6  0  0  0
 22 18  1  0  0  0  0
 23 24  1  0  0  0  0
 23 25  1  0  0  0  0
 25 27  1  0  0  0  0
 26 24  1  6  0  0  0
 26 22  1  0  0  0  0
 27 26  1  0  0  0  0
 28 29  2  0  0  0  0
 29 30  1  0  0  0  0
 29 32  1  0  0  0  0
 31 34  1  0  0  0  0
 32 35  1  0  0  0  0
 33 32  1  0  0  0  0
 33 34  1  0  0  0  0
 35 31  1  0  0  0  0
M  END
>  <MODEL>
5

>  <REMARK>
 VINA RESULT:      -8.6      2.527     10.765
  Name = 
  4 active torsions:
  status: ('A' for Active; 'I' for Inactive)
    1  A    between atoms: C_3  and  C_16
    2  A    between atoms: C_6  and  N_35
    3  A    between atoms: C_15  and  C_29
    4  A    between atoms: C_22  and  N_33
                            x       y       z     vdW  Elec       q    Type
                         _______ _______ _______ _____ _____    ______ ____

>  <TORSDO>
F 4

$$$$
=
 OpenBabel11062420063D

 35 40  0  0  1  0  0  0  0  0999 V2000
  187.3300  178.0720  147.2780 C   0  0  0  0  0  2  0  0  0  0  0  0
  190.8200  176.1940  144.9700 C   0  0  0  0  0  0  0  0  0  0  0  0
  190.0830  177.1900  146.1170 S   0  0  0  0  0  0  0  0  0  0  0  0
  186.0450  176.8160  145.4330 C   0  0  2  0  0  3  0  0  0  0  0  0
  188.5540  176.7840  145.5250 C   0  0  0  0  0  0  0  0  0  0  0  0
  185.0350  177.4510  147.5260 O   0  0  0  0  0  0  0  0  0  0  0  0
  189.8990  175.5920  144.1830 N   0  0  0  0  0  0  0  0  0  0  0  0
  184.8170  177.3950  146.1450 C   0  0  0  0  0  2  0  0  0  0  0  0
  188.6450  175.9170  144.4900 N   0  0  0  0  0  0  0  0  0  0  0  0
  187.3060  177.2790  146.0400 N   0  0  0  0  0  0  0  0  0  0  0  0
  185.9310  178.5110  147.6980 C   0  0  0  0  0  2  0  0  0  0  0  0
  196.4860  175.3840  144.3250 C   0  0  0  0  0  2  0  0  0  0  0  0
  195.0010  175.5570  144.5080 C   0  0  0  0  0  0  0  0  0  0  0  0
  192.8370  176.0240  143.5900 N   0  0  0  0  0  0  0  0  0  0  0  0
  195.2080  175.2860  146.8780 F   0  0  0  0  0  0  0  0  0  0  0  0
  192.2680  175.9820  144.8260 C   0  0  0  0  0  0  0  0  0  0  0  0
  194.7380  175.8250  142.0150 C   0  0  0  0  0  2  0  0  0  0  0  0
  196.8360  175.1560  142.8540 C   0  0  0  0  0  2  0  0  0  0  0  0
  194.1720  175.8360  143.4070 C   0  0  0  0  0  0  0  0  0  0  0  0
  193.0660  175.7320  145.9480 C   0  0  0  0  0  3  0  0  0  0  0  0
  194.4370  175.5210  145.7880 C   0  0  0  0  0  0  0  0  0  0  0  0
  196.1670  176.1600  142.0250 N   0  0  1  0  0  0  0  0  0  0  0  0
  197.5040  174.2960  139.2690 C   0  0  0  0  0  2  0  0  0  0  0  0
  197.7640  174.9870  140.5700 C   0  0  0  0  0  2  0  0  0  0  0  0
  196.2870  174.9990  138.7200 C   0  0  0  0  0  2  0  0  0  0  0  0
  196.6740  176.0420  140.6530 C   0  0  1  0  0  3  0  0  0  0  0  0
  195.6430  175.6550  139.7780 O   0  0  0  0  0  0  0  0  0  0  0  0
  185.9470  179.4850  144.4320 O   0  0  0  0  0  0  0  0  0  0  0  0
  185.9800  178.5460  143.5900 C   0  0  0  0  0  0  0  0  0  0  0  0
  186.0020  177.1870  144.0240 N   0  0  0  0  0  2  0  0  0  0  0  0
  186.5520  177.4410  140.2260 C   0  0  0  0  0  2  0  0  0  0  0  0
  185.9420  178.8420  142.1250 C   0  0  0  0  0  3  0  0  0  0  0  0
  184.6840  178.2950  141.4790 C   0  0  0  0  0  2  0  0  0  0  0  0
  185.1070  177.8710  140.0920 C   0  0  0  0  0  2  0  0  0  0  0  0
  187.1190  178.2000  141.4120 C   0  0  0  0  0  2  0  0  0  0  0  0
  1 11  1  0  0  0  0
  2  3  1  0  0  0  0
  4 30  1  6  0  0  0
  4 10  1  0  0  0  0
  4  8  1  0  0  0  0
  5 10  1  0  0  0  0
  5  3  1  0  0  0  0
  6 11  1  0  0  0  0
  7  9  1  0  0  0  0
  7  2  2  0  0  0  0
  8  6  1  0  0  0  0
  9  5  2  0  0  0  0
 10  1  1  0  0  0  0
 12 13  1  0  0  0  0
 13 21  1  0  0  0  0
 14 16  2  0  0  0  0
 16  2  1  0  0  0  0
 16 20  1  0  0  0  0
 17 19  1  0  0  0  0
 18 12  1  0  0  0  0
 19 14  1  0  0  0  0
 19 13  2  0  0  0  0
 21 20  2  0  0  0  0
 21 15  1  0  0  0  0
 22 17  1  6  0  0  0
 22 18  1  0  0  0  0
 23 24  1  0  0  0  0
 25 23  1  0  0  0  0
 25 27  1  0  0  0  0
 26 24  1  1  0  0  0
 26 22  1  0  0  0  0
 27 26  1  0  0  0  0
 29 30  1  0  0  0  0
 29 28  2  0  0  0  0
 31 35  1  0  0  0  0
 32 29  1  0  0  0  0
 33 32  1  0  0  0  0
 34 31  1  0  0  0  0
 34 33  1  0  0  0  0
 35 32  1  0  0  0  0
M  END
>  <MODEL>
6

>  <REMARK>
 VINA RESULT:      -8.4      2.850      3.553
  Name = 
  4 active torsions:
  status: ('A' for Active; 'I' for Inactive)
    1  A    between atoms: C_3  and  C_16
    2  A    between atoms: C_6  and  N_35
    3  A    between atoms: C_15  and  C_29
    4  A    between atoms: C_22  and  N_33
                            x       y       z     vdW  Elec       q    Type
                         _______ _______ _______ _____ _____    ______ ____

>  <TORSDO>
F 4

$$$$
=
 OpenBabel11062420063D

 35 40  0  0  1  0  0  0  0  0999 V2000
  193.3530  169.9460  144.6560 C   0  0  0  0  0  2  0  0  0  0  0  0
  191.2280  173.9250  143.8300 C   0  0  0  0  0  0  0  0  0  0  0  0
  191.4500  172.2520  143.7840 S   0  0  0  0  0  0  0  0  0  0  0  0
  195.1520  171.6080  145.4540 C   0  0  2  0  0  3  0  0  0  0  0  0
  192.9730  172.4080  144.4960 C   0  0  0  0  0  0  0  0  0  0  0  0
  195.0680  169.3190  146.1990 O   0  0  0  0  0  0  0  0  0  0  0  0
  192.3000  174.5440  144.3760 N   0  0  0  0  0  0  0  0  0  0  0  0
  195.9360  170.3300  145.7710 C   0  0  0  0  0  2  0  0  0  0  0  0
  193.2660  173.7040  144.7460 N   0  0  0  0  0  0  0  0  0  0  0  0
  193.8580  171.3180  144.8100 N   0  0  0  0  0  0  0  0  0  0  0  0
  194.4040  168.9080  145.0390 C   0  0  0  0  0  2  0  0  0  0  0  0
  186.5570  176.7820  142.0440 C   0  0  0  0  0  2  0  0  0  0  0  0
  187.7580  176.0000  142.5040 C   0  0  0  0  0  0  0  0  0  0  0  0
  189.3610  175.4660  144.2040 N   0  0  0  0  0  0  0  0  0  0  0  0
  188.0160  175.0170  140.3350 F   0  0  0  0  0  0  0  0  0  0  0  0
  190.0360  174.6440  143.3550 C   0  0  0  0  0  0  0  0  0  0  0  0
  187.5080  176.9940  144.8070 C   0  0  0  0  0  2  0  0  0  0  0  0
  185.7960  177.3730  143.2320 C   0  0  0  0  0  2  0  0  0  0  0  0
  188.2550  176.1530  143.8110 C   0  0  0  0  0  0  0  0  0  0  0  0
  189.5860  174.4860  142.0400 C   0  0  0  0  0  3  0  0  0  0  0  0
  188.4450  175.1680  141.6130 C   0  0  0  0  0  0  0  0  0  0  0  0
  186.7330  178.0440  144.1350 N   0  0  1  0  0  0  0  0  0  0  0  0
  184.1120  178.2890  146.5690 C   0  0  0  0  0  2  0  0  0  0  0  0
  184.5030  178.3380  145.1260 C   0  0  0  0  0  2  0  0  0  0  0  0
  185.3730  178.6780  147.3010 C   0  0  0  0  0  2  0  0  0  0  0  0
  185.9610  178.7650  145.1520 C   0  0  1  0  0  3  0  0  0  0  0  0
  186.4600  178.4890  146.4380 O   0  0  0  0  0  0  0  0  0  0  0  0
  196.7540  173.7950  146.3390 O   0  0  0  0  0  0  0  0  0  0  0  0
  196.7590  173.5290  145.1060 C   0  0  0  0  0  0  0  0  0  0  0  0
  195.9580  172.4650  144.5940 N   0  0  0  0  0  2  0  0  0  0  0  0
  197.4560  174.5040  141.7250 C   0  0  0  0  0  2  0  0  0  0  0  0
  197.5620  174.3580  144.1560 C   0  0  0  0  0  3  0  0  0  0  0  0
  196.8250  175.6220  143.7600 C   0  0  0  0  0  2  0  0  0  0  0  0
  197.2200  175.8740  142.3240 C   0  0  0  0  0  2  0  0  0  0  0  0
  197.8460  173.5930  142.8760 C   0  0  0  0  0  2  0  0  0  0  0  0
  1 10  1  0  0  0  0
  1 11  1  0  0  0  0
  2  7  2  0  0  0  0
  3  2  1  0  0  0  0
  3  5  1  0  0  0  0
  4 30  1  6  0  0  0
  4  8  1  0  0  0  0
  5  9  2  0  0  0  0
  5 10  1  0  0  0  0
  7  9  1  0  0  0  0
  8  6  1  0  0  0  0
 10  4  1  0  0  0  0
 11  6  1  0  0  0  0
 12 13  1  0  0  0  0
 12 18  1  0  0  0  0
 13 19  1  0  0  0  0
 15 21  1  0  0  0  0
 16  2  1  0  0  0  0
 16 14  1  0  0  0  0
 19 14  2  0  0  0  0
 19 17  1  0  0  0  0
 20 16  2  0  0  0  0
 21 20  1  0  0  0  0
 21 13  2  0  0  0  0
 22 18  1  6  0  0  0
 22 17  1  0  0  0  0
 22 26  1  0  0  0  0
 23 25  1  0  0  0  0
 24 23  1  0  0  0  0
 26 24  1  1  0  0  0
 26 27  1  0  0  0  0
 27 25  1  0  0  0  0
 29 28  2  0  0  0  0
 30 29  1  0  0  0  0
 31 34  1  0  0  0  0
 31 35  1  0  0  0  0
 32 29  1  0  0  0  0
 33 32  1  0  0  0  0
 34 33  1  0  0  0  0
 35 32  1  0  0  0  0
M  END
>  <MODEL>
7

>  <REMARK>
 VINA RESULT:      -8.3      2.799     10.352
  Name = 
  4 active torsions:
  status: ('A' for Active; 'I' for Inactive)
    1  A    between atoms: C_3  and  C_16
    2  A    between atoms: C_6  and  N_35
    3  A    between atoms: C_15  and  C_29
    4  A    between atoms: C_22  and  N_33
                            x       y       z     vdW  Elec       q    Type
                         _______ _______ _______ _____ _____    ______ ____

>  <TORSDO>
F 4

$$$$
=
 OpenBabel11062420063D

 35 40  0  0  1  0  0  0  0  0999 V2000
  195.9650  175.7830  141.2350 C   0  0  0  0  0  2  0  0  0  0  0  0
  192.4620  174.7460  144.0070 C   0  0  0  0  0  0  0  0  0  0  0  0
  193.4510  175.7460  143.0720 S   0  0  0  0  0  0  0  0  0  0  0  0
  196.5350  173.3380  141.8080 C   0  0  2  0  0  3  0  0  0  0  0  0
  194.5150  174.4680  142.7840 C   0  0  0  0  0  0  0  0  0  0  0  0
  197.3760  174.4470  139.8420 O   0  0  0  0  0  0  0  0  0  0  0  0
  192.9610  173.4900  144.0710 N   0  0  0  0  0  0  0  0  0  0  0  0
  197.7350  173.5910  140.8890 C   0  0  0  0  0  2  0  0  0  0  0  0
  194.0970  173.3350  143.3930 N   0  0  0  0  0  0  0  0  0  0  0  0
  195.7140  174.5480  141.9910 N   0  0  0  0  0  0  0  0  0  0  0  0
  197.2650  175.7070  140.4390 C   0  0  0  0  0  2  0  0  0  0  0  0
  187.5450  176.3730  146.5250 C   0  0  0  0  0  2  0  0  0  0  0  0
  188.8510  175.9700  145.8950 C   0  0  0  0  0  0  0  0  0  0  0  0
  190.3100  175.9150  143.9940 N   0  0  0  0  0  0  0  0  0  0  0  0
  189.5070  174.7990  147.8780 F   0  0  0  0  0  0  0  0  0  0  0  0
  191.2140  175.1540  144.6690 C   0  0  0  0  0  0  0  0  0  0  0  0
  188.2080  177.2110  143.7960 C   0  0  0  0  0  2  0  0  0  0  0  0
  186.8540  177.4670  145.7080 C   0  0  0  0  0  2  0  0  0  0  0  0
  189.1400  176.3150  144.5620 C   0  0  0  0  0  0  0  0  0  0  0  0
  190.9480  174.7700  145.9880 C   0  0  0  0  0  3  0  0  0  0  0  0
  189.7630  175.1780  146.6010 C   0  0  0  0  0  0  0  0  0  0  0  0
  186.8330  177.0890  144.2940 N   0  0  1  0  0  0  0  0  0  0  0  0
  185.0880  178.2370  141.3790 C   0  0  0  0  0  2  0  0  0  0  0  0
  186.3910  178.1110  142.1020 C   0  0  0  0  0  2  0  0  0  0  0  0
  184.0570  178.2270  142.4820 C   0  0  0  0  0  2  0  0  0  0  0  0
  185.9970  178.0520  143.5690 C   0  0  1  0  0  3  0  0  0  0  0  0
  184.6440  177.6730  143.6280 O   0  0  0  0  0  0  0  0  0  0  0  0
  196.7270  170.5990  142.5800 O   0  0  0  0  0  0  0  0  0  0  0  0
  197.1070  171.4680  143.4120 C   0  0  0  0  0  0  0  0  0  0  0  0
  197.0120  172.8570  143.0990 N   0  0  0  0  0  2  0  0  0  0  0  0
  196.4360  170.0230  146.6250 C   0  0  0  0  0  2  0  0  0  0  0  0
  197.6110  171.0580  144.7570 C   0  0  0  0  0  3  0  0  0  0  0  0
  197.9410  169.5780  144.8010 C   0  0  0  0  0  2  0  0  0  0  0  0
  197.5910  169.1390  146.2040 C   0  0  0  0  0  2  0  0  0  0  0  0
  196.5660  171.3090  145.8290 C   0  0  0  0  0  2  0  0  0  0  0  0
  1 10  1  0  0  0  0
  2  7  2  0  0  0  0
  2 16  1  0  0  0  0
  3  2  1  0  0  0  0
  4 10  1  0  0  0  0
  4 30  1  1  0  0  0
  5  3  1  0  0  0  0
  5  9  2  0  0  0  0
  6 11  1  0  0  0  0
  6  8  1  0  0  0  0
  8  4  1  0  0  0  0
  9  7  1  0  0  0  0
 10  5  1  0  0  0  0
 11  1  1  0  0  0  0
 13 12  1  0  0  0  0
 13 21  1  0  0  0  0
 14 19  1  0  0  0  0
 14 16  2  0  0  0  0
 16 20  1  0  0  0  0
 17 19  1  0  0  0  0
 18 12  1  0  0  0  0
 19 13  2  0  0  0  0
 20 21  2  0  0  0  0
 21 15  1  0  0  0  0
 22 17  1  6  0  0  0
 22 18  1  0  0  0  0
 23 24  1  0  0  0  0
 23 25  1  0  0  0  0
 25 27  1  0  0  0  0
 26 24  1  6  0  0  0
 26 27  1  0  0  0  0
 26 22  1  0  0  0  0
 28 29  2  0  0  0  0
 29 32  1  0  0  0  0
 30 29  1  0  0  0  0
 32 33  1  0  0  0  0
 32 35  1  0  0  0  0
 33 34  1  0  0  0  0
 34 31  1  0  0  0  0
 35 31  1  0  0  0  0
M  END
>  <MODEL>
8

>  <REMARK>
 VINA RESULT:      -8.1      3.051     10.930
  Name = 
  4 active torsions:
  status: ('A' for Active; 'I' for Inactive)
    1  A    between atoms: C_3  and  C_16
    2  A    between atoms: C_6  and  N_35
    3  A    between atoms: C_15  and  C_29
    4  A    between atoms: C_22  and  N_33
                            x       y       z     vdW  Elec       q    Type
                         _______ _______ _______ _____ _____    ______ ____

>  <TORSDO>
F 4

$$$$
=
 OpenBabel11062420063D

 35 40  0  0  1  0  0  0  0  0999 V2000
  192.0500  175.7280  145.1790 C   0  0  0  0  0  2  0  0  0  0  0  0
  189.5250  174.2240  141.6590 C   0  0  0  0  0  0  0  0  0  0  0  0
  190.9370  174.6720  142.4690 S   0  0  0  0  0  0  0  0  0  0  0  0
  189.6800  176.1410  146.0980 C   0  0  2  0  0  3  0  0  0  0  0  0
  190.0390  175.1920  143.8010 C   0  0  0  0  0  0  0  0  0  0  0  0
  191.6100  175.9160  147.5210 O   0  0  0  0  0  0  0  0  0  0  0  0
  188.4300  174.4780  142.4120 N   0  0  0  0  0  0  0  0  0  0  0  0
  190.4400  176.6570  147.3240 C   0  0  0  0  0  2  0  0  0  0  0  0
  188.7140  175.0130  143.5980 N   0  0  0  0  0  0  0  0  0  0  0  0
  190.5910  175.7510  145.0060 N   0  0  0  0  0  0  0  0  0  0  0  0
  192.4740  176.3450  146.5090 C   0  0  0  0  0  2  0  0  0  0  0  0
  189.3150  171.8130  136.4330 C   0  0  0  0  0  2  0  0  0  0  0  0
  189.3890  172.4770  137.7820 C   0  0  0  0  0  0  0  0  0  0  0  0
  190.1370  172.4730  140.0590 N   0  0  0  0  0  0  0  0  0  0  0  0
  187.9490  174.2440  137.0510 F   0  0  0  0  0  0  0  0  0  0  0  0
  189.4610  173.6260  140.3170 C   0  0  0  0  0  0  0  0  0  0  0  0
  190.9260  170.6460  138.5840 C   0  0  0  0  0  2  0  0  0  0  0  0
  190.3880  170.7320  136.2910 C   0  0  0  0  0  2  0  0  0  0  0  0
  190.1070  171.8800  138.8350 C   0  0  0  0  0  0  0  0  0  0  0  0
  188.7150  174.2330  139.3010 C   0  0  0  0  0  3  0  0  0  0  0  0
  188.6780  173.6560  138.0310 C   0  0  0  0  0  0  0  0  0  0  0  0
  190.3740  169.8650  137.4710 N   0  0  1  0  0  0  0  0  0  0  0  0
  193.0300  168.2240  135.7070 C   0  0  0  0  0  2  0  0  0  0  0  0
  191.5840  168.6060  135.7410 C   0  0  0  0  0  2  0  0  0  0  0  0
  193.4270  168.1720  137.1620 C   0  0  0  0  0  2  0  0  0  0  0  0
  191.2680  168.7290  137.2220 C   0  0  1  0  0  3  0  0  0  0  0  0
  192.4880  168.9030  137.9010 O   0  0  0  0  0  0  0  0  0  0  0  0
  186.9470  176.3760  146.8780 O   0  0  0  0  0  0  0  0  0  0  0  0
  187.4050  177.2460  146.0880 C   0  0  0  0  0  0  0  0  0  0  0  0
  188.7570  177.1700  145.6370 N   0  0  0  0  0  2  0  0  0  0  0  0
  184.5780  178.2200  144.1070 C   0  0  0  0  0  2  0  0  0  0  0  0
  186.5250  178.3360  145.5700 C   0  0  0  0  0  3  0  0  0  0  0  0
  185.2640  178.4760  146.3990 C   0  0  0  0  0  2  0  0  0  0  0  0
  184.1880  178.8740  145.4160 C   0  0  0  0  0  2  0  0  0  0  0  0
  186.0860  178.0490  144.1450 C   0  0  0  0  0  2  0  0  0  0  0  0
  1 11  1  0  0  0  0
  2  7  2  0  0  0  0
  2  3  1  0  0  0  0
  3  5  1  0  0  0  0
  4 30  1  6  0  0  0
  4  8  1  0  0  0  0
  5 10  1  0  0  0  0
  7  9  1  0  0  0  0
  8  6  1  0  0  0  0
  9  5  2  0  0  0  0
 10  1  1  0  0  0  0
 10  4  1  0  0  0  0
 11  6  1  0  0  0  0
 12 13  1  0  0  0  0
 13 21  2  0  0  0  0
 13 19  1  0  0  0  0
 14 16  1  0  0  0  0
 15 21  1  0  0  0  0
 16  2  1  0  0  0  0
 17 19  1  0  0  0  0
 18 12  1  0  0  0  0
 19 14  2  0  0  0  0
 20 16  2  0  0  0  0
 21 20  1  0  0  0  0
 22 18  1  6  0  0  0
 22 17  1  0  0  0  0
 23 24  1  0  0  0  0
 23 25  1  0  0  0  0
 25 27  1  0  0  0  0
 26 24  1  6  0  0  0
 26 22  1  0  0  0  0
 26 27  1  0  0  0  0
 29 28  2  0  0  0  0
 30 29  1  0  0  0  0
 31 35  1  0  0  0  0
 31 34  1  0  0  0  0
 32 29  1  0  0  0  0
 32 33  1  0  0  0  0
 34 33  1  0  0  0  0
 35 32  1  0  0  0  0
M  END
>  <MODEL>
9

>  <REMARK>
 VINA RESULT:      -7.8      5.745      7.328
  Name = 
  4 active torsions:
  status: ('A' for Active; 'I' for Inactive)
    1  A    between atoms: C_3  and  C_16
    2  A    between atoms: C_6  and  N_35
    3  A    between atoms: C_15  and  C_29
    4  A    between atoms: C_22  and  N_33
                            x       y       z     vdW  Elec       q    Type
                         _______ _______ _______ _____ _____    ______ ____

>  <TORSDO>
F 4

$$$$
