=
 OpenBabel11062422223D

 41 46  0  0  1  0  0  0  0  0999 V2000
  191.2050  175.2710  148.2880 O   0  0  0  0  0  0  0  0  0  0  0  0
  190.8740  175.1460  147.0790 C   0  0  0  0  0  0  0  0  0  0  0  0
  194.0310  175.8710  144.9750 C   0  0  0  0  0  0  0  0  0  0  0  0
  191.9070  175.0950  146.0270 C   0  0  0  0  0  0  0  0  0  0  0  0
  191.7220  174.2870  144.9550 C   0  0  0  0  0  3  0  0  0  0  0  0
  195.5960  176.0300  143.3930 N   0  0  0  0  0  0  0  0  0  0  0  0
  193.7690  174.9850  143.8900 C   0  0  0  0  0  0  0  0  0  0  0  0
  194.7990  175.1460  142.9340 N   0  0  0  0  0  0  0  0  0  0  0  0
  195.1460  176.5090  144.6720 C   0  0  0  0  0  3  0  0  0  0  0  0
  192.6920  174.2070  143.8340 C   0  0  0  0  0  0  0  0  0  0  0  0
  193.1430  175.9800  146.1720 C   0  0  0  0  0  2  0  0  0  0  0  0
  192.4320  173.3300  142.6570 C   0  0  0  0  0  2  0  0  0  0  0  0
  191.0530  172.8680  142.6770 N   0  0  0  0  0  2  0  0  0  0  0  0
  188.4180  172.8340  140.2870 N   0  0  0  0  0  0  0  0  0  0  0  0
  190.2070  172.9830  141.5360 C   0  0  0  0  0  0  0  0  0  0  0  0
  188.9760  172.5950  141.5430 N   0  0  0  0  0  0  0  0  0  0  0  0
  189.3080  173.3670  139.5170 C   0  0  0  0  0  0  0  0  0  0  0  0
  190.6120  173.5480  140.2160 C   0  0  0  0  0  2  0  0  0  0  0  0
  189.0410  173.7390  138.1230 C   0  0  0  0  0  0  0  0  0  0  0  0
  187.8860  174.4380  137.7960 O   0  0  0  0  0  1  0  0  0  0  0  0
  189.8670  173.4450  137.2200 O   0  0  0  0  0  0  0  0  0  0  0  0
  189.4250  175.0120  146.7310 C   0  0  0  0  0  2  0  0  0  0  0  0
  189.6130  177.9270  145.0280 C   0  0  0  0  0  1  0  0  0  0  0  0
  187.3550  176.2350  147.4600 C   0  0  0  0  0  2  0  0  0  0  0  0
  184.8280  178.9940  146.5640 C   0  0  0  0  0  2  0  0  0  0  0  0
  188.7090  176.3600  146.7680 C   0  0  2  0  0  3  0  0  0  0  0  0
  185.2200  177.7900  144.3050 C   0  0  2  0  0  3  0  0  0  0  0  0
  184.2830  178.6610  145.1660 C   0  0  0  0  0  2  0  0  0  0  0  0
  185.3400  177.7760  147.3570 C   0  0  0  0  0  2  0  0  0  0  0  0
  188.4670  177.0060  145.3960 C   0  0  1  0  0  0  0  0  0  0  0  0
  187.1920  177.7940  145.6000 C   0  0  2  0  0  3  0  0  0  0  0  0
  188.2860  176.0420  144.3960 O   0  0  0  0  0  1  0  0  0  0  0  0
  186.3590  176.9480  146.5690 C   0  0  1  0  0  3  0  0  0  0  0  0
  186.5730  178.1990  144.3790 O   0  0  0  0  0  0  0  0  0  0  0  0
  184.7750  177.8160  142.9220 N   0  0  0  0  0  2  0  0  0  0  0  0
  185.4840  178.0530  140.4750 C   0  0  2  0  0  3  0  0  0  0  0  0
  186.9290  177.5120  139.5090 S   0  0  0  0  0  0  0  0  0  0  0  0
  187.3570  176.2570  140.7570 C   0  0  0  0  0  2  0  0  0  0  0  0
  185.6310  177.4680  141.8340 C   0  0  0  0  0  0  0  0  0  0  0  0
  186.5750  176.5590  141.9800 C   0  0  0  0  0  3  0  0  0  0  0  0
  184.3310  177.5620  139.8850 F   0  0  0  0  0  0  0  0  0  0  0  0
  2  1  2  0  0  0  0
  3 11  1  0  0  0  0
  4 11  1  0  0  0  0
  4  2  1  0  0  0  0
  5  4  2  0  0  0  0
  6  9  1  0  0  0  0
  7  3  1  0  0  0  0
  8  6  2  0  0  0  0
  8  7  1  0  0  0  0
  9  3  2  0  0  0  0
 10  7  2  0  0  0  0
 10  5  1  0  0  0  0
 12 13  1  0  0  0  0
 12 10  1  0  0  0  0
 14 16  1  0  0  0  0
 15 16  2  0  0  0  0
 15 13  1  0  0  0  0
 17 18  1  0  0  0  0
 17 14  2  0  0  0  0
 18 15  1  0  0  0  0
 19 17  1  0  0  0  0
 20 19  1  0  0  0  0
 21 19  2  0  0  0  0
 22  2  1  0  0  0  0
 25 29  1  0  0  0  0
 26 22  1  6  0  0  0
 26 24  1  0  0  0  0
 27 35  1  6  0  0  0
 27 34  1  0  0  0  0
 27 28  1  0  0  0  0
 28 25  1  0  0  0  0
 30 23  1  6  0  0  0
 30 31  1  0  0  0  0
 30 26  1  0  0  0  0
 31 34  1  6  0  0  0
 31 33  1  0  0  0  0
 32 30  1  0  0  0  0
 33 29  1  1  0  0  0
 33 24  1  0  0  0  0
 36 41  1  6  0  0  0
 36 39  1  0  0  0  0
 37 36  1  0  0  0  0
 37 38  1  0  0  0  0
 38 40  1  0  0  0  0
 39 40  2  0  0  0  0
 39 35  1  0  0  0  0
M  END
>  <MODEL>
1

>  <REMARK>
 VINA RESULT:      -8.8      0.000      0.000
  Name = 
  8 active torsions:
  status: ('A' for Active; 'I' for Inactive)
    1  A    between atoms: N_1  and  C_13
    2  A    between atoms: N_1  and  C_34
    3  A    between atoms: C_6  and  C_12
    4  A    between atoms: C_6  and  C_40
    5  A    between atoms: N_7  and  C_10
    6  A    between atoms: C_8  and  C_40
    7  A    between atoms: C_10  and  C_31
    8  A    between atoms: C_15  and  C_30
                            x       y       z     vdW  Elec       q    Type
                         _______ _______ _______ _____ _____    ______ ____

>  <TORSDO>
F 8

$$$$
=
 OpenBabel11062422223D

 41 46  0  0  1  0  0  0  0  0999 V2000
  187.5430  176.4600  140.7130 O   0  0  0  0  0  0  0  0  0  0  0  0
  187.4480  175.8900  141.8330 C   0  0  0  0  0  0  0  0  0  0  0  0
  184.9850  177.9490  143.9810 C   0  0  0  0  0  0  0  0  0  0  0  0
  186.8100  176.5840  142.9680 C   0  0  0  0  0  0  0  0  0  0  0  0
  187.4690  176.6680  144.1490 C   0  0  0  0  0  3  0  0  0  0  0  0
  183.9660  179.1710  145.5450 N   0  0  0  0  0  0  0  0  0  0  0  0
  185.7360  177.9800  145.1920 C   0  0  2  0  0  3  0  0  0  0  0  0
  185.0280  178.7710  146.1270 N   0  0  0  0  0  0  0  0  0  0  0  0
  183.9050  178.6760  144.1960 C   0  0  0  0  0  3  0  0  0  0  0  0
  186.9170  177.3830  145.3270 C   0  0  0  0  0  0  0  0  0  0  0  0
  185.4320  177.2100  142.7620 C   0  0  0  0  0  3  0  0  0  0  0  0
  187.6910  177.4810  146.5960 C   0  0  0  0  0  2  0  0  0  0  0  0
  188.3150  176.2020  146.8980 N   0  0  0  0  0  2  0  0  0  0  0  0
  191.6540  174.9820  146.7620 N   0  0  0  0  0  0  0  0  0  0  0  0
  189.7180  175.9980  146.7490 C   0  0  0  0  0  0  0  0  0  0  0  0
  190.2830  174.8650  146.9950 N   0  0  0  0  0  0  0  0  0  0  0  0
  191.9220  176.1860  146.3770 C   0  0  0  0  0  0  0  0  0  0  0  0
  190.6970  177.0330  146.3060 C   0  0  0  0  0  2  0  0  0  0  0  0
  193.2790  176.6390  146.0530 C   0  0  0  0  0  0  0  0  0  0  0  0
  193.6900  176.7260  144.7290 O   0  0  0  0  0  0  0  0  0  0  0  0
  194.0700  176.9730  146.9730 O   0  0  0  0  0  1  0  0  0  0  0  0
  187.9530  174.4900  141.9830 C   0  0  0  0  0  2  0  0  0  0  0  0
  190.8220  176.0950  142.7730 C   0  0  0  0  0  1  0  0  0  0  0  0
  189.7280  172.9950  141.0200 C   0  0  0  0  0  2  0  0  0  0  0  0
  193.4290  171.9580  141.1940 C   0  0  0  0  0  2  0  0  0  0  0  0
  189.4250  174.3770  141.5920 C   0  0  2  0  0  3  0  0  0  0  0  0
  192.7580  172.1870  143.6840 C   0  0  2  0  0  3  0  0  0  0  0  0
  193.7100  171.5540  142.6500 C   0  0  0  0  0  2  0  0  0  0  0  0
  191.9580  171.8080  140.7610 C   0  0  0  0  0  2  0  0  0  0  0  0
  190.4220  174.6330  142.7310 C   0  0  1  0  0  0  0  0  0  0  0  0
  191.6050  173.7650  142.3630 C   0  0  2  0  0  3  0  0  0  0  0  0
  189.9010  174.2420  143.9710 O   0  0  0  0  0  1  0  0  0  0  0  0
  190.9900  172.5220  141.7100 C   0  0  1  0  0  3  0  0  0  0  0  0
  192.5170  173.5610  143.4410 O   0  0  0  0  0  0  0  0  0  0  0  0
  193.3050  172.0150  145.0200 N   0  0  0  0  0  2  0  0  0  0  0  0
  195.2870  173.5960  145.3550 C   0  0  2  0  0  3  0  0  0  0  0  0
  196.9720  173.4060  146.0190 S   0  0  0  0  0  0  0  0  0  0  0  0
  196.9140  171.6010  145.7840 C   0  0  0  0  0  2  0  0  0  0  0  0
  194.6820  172.2390  145.3200 C   0  0  0  0  0  0  0  0  0  0  0  0
  195.5010  171.2280  145.5340 C   0  0  0  0  0  3  0  0  0  0  0  0
  195.3580  174.1020  144.0680 F   0  0  0  0  0  0  0  0  0  0  0  0
  1  2  2  0  0  0  0
  2 22  1  0  0  0  0
  2  4  1  0  0  0  0
  3  9  2  0  0  0  0
  4  5  1  0  0  0  0
  5 10  2  0  0  0  0
  6  8  2  0  0  0  0
  7  3  1  6  0  0  0
  7 10  1  0  0  0  0
  7  8  1  0  0  0  0
  9  6  1  0  0  0  0
 10 12  1  0  0  0  0
 11  4  2  0  0  0  0
 11  3  1  0  0  0  0
 12 13  1  0  0  0  0
 14 16  1  0  0  0  0
 15 13  1  0  0  0  0
 15 16  2  0  0  0  0
 17 14  2  0  0  0  0
 18 17  1  0  0  0  0
 18 15  1  0  0  0  0
 19 17  1  0  0  0  0
 19 21  1  0  0  0  0
 20 19  2  0  0  0  0
 24 26  1  0  0  0  0
 24 33  1  0  0  0  0
 25 28  1  0  0  0  0
 26 22  1  1  0  0  0
 26 30  1  0  0  0  0
 27 35  1  1  0  0  0
 28 27  1  0  0  0  0
 29 25  1  0  0  0  0
 30 23  1  1  0  0  0
 30 32  1  0  0  0  0
 31 30  1  0  0  0  0
 31 34  1  1  0  0  0
 33 29  1  6  0  0  0
 33 31  1  0  0  0  0
 34 27  1  0  0  0  0
 35 39  1  0  0  0  0
 36 41  1  6  0  0  0
 36 37  1  0  0  0  0
 38 37  1  0  0  0  0
 39 36  1  0  0  0  0
 39 40  2  0  0  0  0
 40 38  1  0  0  0  0
M  END
>  <MODEL>
2

>  <REMARK>
 VINA RESULT:      -8.4      3.867      8.911
  Name = 
  8 active torsions:
  status: ('A' for Active; 'I' for Inactive)
    1  A    between atoms: N_1  and  C_13
    2  A    between atoms: N_1  and  C_34
    3  A    between atoms: C_6  and  C_12
    4  A    between atoms: C_6  and  C_40
    5  A    between atoms: N_7  and  C_10
    6  A    between atoms: C_8  and  C_40
    7  A    between atoms: C_10  and  C_31
    8  A    between atoms: C_15  and  C_30
                            x       y       z     vdW  Elec       q    Type
                         _______ _______ _______ _____ _____    ______ ____

>  <TORSDO>
F 8

$$$$
=
 OpenBabel11062422223D

 41 46  0  0  1  0  0  0  0  0999 V2000
  194.9420  177.6140  146.1170 O   0  0  0  0  0  0  0  0  0  0  0  0
  194.3250  176.5160  146.0780 C   0  0  0  0  0  0  0  0  0  0  0  0
  190.6280  175.6020  146.7230 C   0  0  0  0  0  0  0  0  0  0  0  0
  192.8500  176.4940  146.0270 C   0  0  0  0  0  0  0  0  0  0  0  0
  192.2060  177.2760  145.1280 C   0  0  0  0  0  3  0  0  0  0  0  0
  188.4140  175.3330  146.6540 N   0  0  0  0  0  0  0  0  0  0  0  0
  190.0260  176.4650  145.7610 C   0  0  0  0  0  0  0  0  0  0  0  0
  188.6310  176.2330  145.7770 N   0  0  0  0  0  0  0  0  0  0  0  0
  189.6440  174.9110  147.2680 C   0  0  0  0  0  3  0  0  0  0  0  0
  190.7290  177.2840  144.9840 C   0  0  0  0  0  0  0  0  0  0  0  0
  192.1000  175.5650  146.9790 C   0  0  0  0  0  2  0  0  0  0  0  0
  190.0630  178.1340  143.9560 C   0  0  0  0  0  2  0  0  0  0  0  0
  189.6940  177.3250  142.8050 N   0  0  0  0  0  2  0  0  0  0  0  0
  186.6920  176.8860  140.9480 N   0  0  0  0  0  0  0  0  0  0  0  0
  188.3780  177.3560  142.2580 C   0  0  0  0  0  0  0  0  0  0  0  0
  188.0310  176.6310  141.2490 N   0  0  0  0  0  0  0  0  0  0  0  0
  186.2270  177.7650  141.7730 C   0  0  0  0  0  0  0  0  0  0  0  0
  187.2570  178.2050  142.7560 C   0  0  0  0  0  2  0  0  0  0  0  0
  184.8450  178.2560  141.7240 C   0  0  0  0  0  0  0  0  0  0  0  0
  184.2920  178.6650  140.5170 O   0  0  0  0  0  0  0  0  0  0  0  0
  184.1480  178.2870  142.7710 O   0  0  0  0  0  1  0  0  0  0  0  0
  195.1060  175.2410  146.0430 C   0  0  0  0  0  2  0  0  0  0  0  0
  195.4930  172.4440  144.1830 C   0  0  0  0  0  1  0  0  0  0  0  0
  195.5020  176.1420  143.7310 C   0  0  0  0  0  2  0  0  0  0  0  0
  195.3410  175.3730  139.9650 C   0  0  0  0  0  2  0  0  0  0  0  0
  195.5840  174.9120  144.6300 C   0  0  2  0  0  3  0  0  0  0  0  0
  193.1620  174.3170  140.8810 C   0  0  2  0  0  3  0  0  0  0  0  0
  193.9070  174.9050  139.6670 C   0  0  0  0  0  2  0  0  0  0  0  0
  195.4720  176.2890  141.1960 C   0  0  0  0  0  2  0  0  0  0  0  0
  194.8190  173.7790  143.9320 C   0  0  1  0  0  0  0  0  0  0  0  0
  194.8990  174.1510  142.4690 C   0  0  2  0  0  3  0  0  0  0  0  0
  193.4820  173.7260  144.3470 O   0  0  0  0  0  1  0  0  0  0  0  0
  194.8360  175.6830  142.4510 C   0  0  1  0  0  3  0  0  0  0  0  0
  193.9680  173.4430  141.6510 O   0  0  0  0  0  0  0  0  0  0  0  0
  191.9730  173.6130  140.4290 N   0  0  0  0  0  0  0  0  0  0  0  0
  189.6520  172.6210  140.8440 C   0  0  2  0  0  3  0  0  0  0  0  0
  188.5660  172.4850  142.2990 S   0  0  0  0  0  0  0  0  0  0  0  0
  189.4620  173.8190  143.1560 C   0  0  0  0  0  2  0  0  0  0  0  0
  190.8230  173.4380  141.2560 C   0  0  0  0  0  0  0  0  0  0  0  0
  190.7300  174.0460  142.4220 C   0  0  0  0  0  2  0  0  0  0  0  0
  188.9730  173.2710  139.8270 F   0  0  0  0  0  0  0  0  0  0  0  0
  2  1  2  0  0  0  0
  3 11  1  0  0  0  0
  3  9  2  0  0  0  0
  4  2  1  0  0  0  0
  4 11  1  0  0  0  0
  5  4  2  0  0  0  0
  6  9  1  0  0  0  0
  7  8  1  0  0  0  0
  7  3  1  0  0  0  0
  8  6  2  0  0  0  0
 10  5  1  0  0  0  0
 10  7  2  0  0  0  0
 12 10  1  0  0  0  0
 13 12  1  0  0  0  0
 14 16  1  0  0  0  0
 14 17  2  0  0  0  0
 15 18  1  0  0  0  0
 15 13  1  0  0  0  0
 16 15  2  0  0  0  0
 17 18  1  0  0  0  0
 19 17  1  0  0  0  0
 19 21  1  0  0  0  0
 20 19  2  0  0  0  0
 22  2  1  0  0  0  0
 24 26  1  0  0  0  0
 25 29  1  0  0  0  0
 26 22  1  1  0  0  0
 27 35  1  6  0  0  0
 27 34  1  0  0  0  0
 28 25  1  0  0  0  0
 28 27  1  0  0  0  0
 30 23  1  1  0  0  0
 30 32  1  0  0  0  0
 30 26  1  0  0  0  0
 31 34  1  6  0  0  0
 31 30  1  0  0  0  0
 33 29  1  6  0  0  0
 33 31  1  0  0  0  0
 33 24  1  0  0  0  0
 35 39  2  0  0  0  0
 36 41  1  6  0  0  0
 36 39  1  0  0  0  0
 36 37  1  0  0  0  0
 37 38  1  0  0  0  0
 39 40  1  0  0  0  0
 40 38  1  0  0  0  0
M  END
>  <MODEL>
3

>  <REMARK>
 VINA RESULT:      -8.2      3.260      6.991
  Name = 
  8 active torsions:
  status: ('A' for Active; 'I' for Inactive)
    1  A    between atoms: N_1  and  C_13
    2  A    between atoms: N_1  and  C_34
    3  A    between atoms: C_6  and  C_12
    4  A    between atoms: C_6  and  C_40
    5  A    between atoms: N_7  and  C_10
    6  A    between atoms: C_8  and  C_40
    7  A    between atoms: C_10  and  C_31
    8  A    between atoms: C_15  and  C_30
                            x       y       z     vdW  Elec       q    Type
                         _______ _______ _______ _____ _____    ______ ____

>  <TORSDO>
F 8

$$$$
=
 OpenBabel11062422223D

 41 46  0  0  1  0  0  0  0  0999 V2000
  189.1020  178.2260  142.0350 O   0  0  0  0  0  0  0  0  0  0  0  0
  188.7480  177.4120  142.9290 C   0  0  0  0  0  0  0  0  0  0  0  0
  186.7070  177.9290  146.1670 C   0  0  0  0  0  0  0  0  0  0  0  0
  187.6710  177.7670  143.8730 C   0  0  0  0  0  0  0  0  0  0  0  0
  186.4770  178.1880  143.3890 C   0  0  0  0  0  3  0  0  0  0  0  0
  185.1290  178.2650  147.7090 N   0  0  0  0  0  0  0  0  0  0  0  0
  185.4890  178.3790  145.5800 C   0  0  0  0  0  0  0  0  0  0  0  0
  184.5450  178.5660  146.6160 N   0  0  0  0  0  0  0  0  0  0  0  0
  186.4880  177.8600  147.4670 C   0  0  0  0  0  3  0  0  0  0  0  0
  185.3300  178.5250  144.2670 C   0  0  0  0  0  0  0  0  0  0  0  0
  187.9330  177.6200  145.3700 C   0  0  0  0  0  2  0  0  0  0  0  0
  184.0230  178.9520  143.6910 C   0  0  0  0  0  2  0  0  0  0  0  0
  183.8630  178.3950  142.3570 N   0  0  0  0  0  2  0  0  0  0  0  0
  181.1050  178.0360  140.1370 N   0  0  0  0  0  0  0  0  0  0  0  0
  182.6020  178.3910  141.6920 C   0  0  0  0  0  0  0  0  0  0  0  0
  182.4400  177.8840  140.5160 N   0  0  0  0  0  0  0  0  0  0  0  0
  180.4580  178.6350  141.0810 C   0  0  0  0  0  0  0  0  0  0  0  0
  181.3350  178.9560  142.2420 C   0  0  0  0  0  2  0  0  0  0  0  0
  179.0280  178.9510  140.9940 C   0  0  0  0  0  0  0  0  0  0  0  0
  178.3310  178.7160  139.8150 O   0  0  0  0  0  0  0  0  0  0  0  0
  178.4210  179.4150  141.9940 O   0  0  0  0  0  1  0  0  0  0  0  0
  189.4060  176.0700  142.9950 C   0  0  0  0  0  2  0  0  0  0  0  0
  190.0630  173.7280  145.3440 C   0  0  0  0  0  1  0  0  0  0  0  0
  191.4740  176.9510  144.1190 C   0  0  0  0  0  2  0  0  0  0  0  0
  194.5670  176.0410  146.2180 C   0  0  0  0  0  2  0  0  0  0  0  0
  190.3240  175.9520  144.2100 C   0  0  2  0  0  3  0  0  0  0  0  0
  194.4210  174.1060  144.5030 C   0  0  2  0  0  3  0  0  0  0  0  0
  195.3080  174.9280  145.4590 C   0  0  0  0  0  2  0  0  0  0  0  0
  193.7060  176.9580  145.3280 C   0  0  0  0  0  2  0  0  0  0  0  0
  190.9380  174.5620  144.4290 C   0  0  1  0  0  0  0  0  0  0  0  0
  192.2650  174.8650  145.0880 C   0  0  2  0  0  3  0  0  0  0  0  0
  191.1410  173.8900  143.2160 O   0  0  0  0  0  1  0  0  0  0  0  0
  192.7330  176.1740  144.4430 C   0  0  1  0  0  3  0  0  0  0  0  0
  193.1710  173.7620  145.0730 O   0  0  0  0  0  0  0  0  0  0  0  0
  195.1250  172.8990  144.1020 N   0  0  0  0  0  2  0  0  0  0  0  0
  193.8210  170.7000  144.0280 C   0  0  2  0  0  3  0  0  0  0  0  0
  193.9510  169.1100  144.9060 S   0  0  0  0  0  0  0  0  0  0  0  0
  194.9300  169.8700  146.2410 C   0  0  0  0  0  2  0  0  0  0  0  0
  194.8170  171.6150  144.6440 C   0  0  0  0  0  0  0  0  0  0  0  0
  195.3780  171.2010  145.7630 C   0  0  0  0  0  3  0  0  0  0  0  0
  192.5490  171.2160  144.2060 F   0  0  0  0  0  0  0  0  0  0  0  0
  1  2  2  0  0  0  0
  2 22  1  0  0  0  0
  2  4  1  0  0  0  0
  3  9  2  0  0  0  0
  4 11  1  0  0  0  0
  5  4  2  0  0  0  0
  5 10  1  0  0  0  0
  7  3  1  0  0  0  0
  7  8  1  0  0  0  0
  8  6  2  0  0  0  0
  9  6  1  0  0  0  0
 10  7  2  0  0  0  0
 11  3  1  0  0  0  0
 12 10  1  0  0  0  0
 13 12  1  0  0  0  0
 14 16  1  0  0  0  0
 14 17  2  0  0  0  0
 15 18  1  0  0  0  0
 15 13  1  0  0  0  0
 16 15  2  0  0  0  0
 17 18  1  0  0  0  0
 19 17  1  0  0  0  0
 19 21  1  0  0  0  0
 20 19  2  0  0  0  0
 24 26  1  0  0  0  0
 26 22  1  6  0  0  0
 26 30  1  0  0  0  0
 27 35  1  1  0  0  0
 27 34  1  0  0  0  0
 27 28  1  0  0  0  0
 28 25  1  0  0  0  0
 29 25  1  0  0  0  0
 30 31  1  0  0  0  0
 30 23  1  1  0  0  0
 31 34  1  6  0  0  0
 32 30  1  0  0  0  0
 33 24  1  1  0  0  0
 33 31  1  0  0  0  0
 33 29  1  0  0  0  0
 35 39  1  0  0  0  0
 36 41  1  1  0  0  0
 36 39  1  0  0  0  0
 36 37  1  0  0  0  0
 37 38  1  0  0  0  0
 39 40  2  0  0  0  0
 40 38  1  0  0  0  0
M  END
>  <MODEL>
4

>  <REMARK>
 VINA RESULT:      -8.2      4.352      9.125
  Name = 
  8 active torsions:
  status: ('A' for Active; 'I' for Inactive)
    1  A    between atoms: N_1  and  C_13
    2  A    between atoms: N_1  and  C_34
    3  A    between atoms: C_6  and  C_12
    4  A    between atoms: C_6  and  C_40
    5  A    between atoms: N_7  and  C_10
    6  A    between atoms: C_8  and  C_40
    7  A    between atoms: C_10  and  C_31
    8  A    between atoms: C_15  and  C_30
                            x       y       z     vdW  Elec       q    Type
                         _______ _______ _______ _____ _____    ______ ____

>  <TORSDO>
F 8

$$$$
=
 OpenBabel11062422223D

 41 46  0  0  1  0  0  0  0  0999 V2000
  187.4920  174.8440  142.3870 O   0  0  0  0  0  0  0  0  0  0  0  0
  187.9280  175.8640  142.9830 C   0  0  0  0  0  0  0  0  0  0  0  0
  186.2680  177.3610  146.1340 C   0  0  0  0  0  0  0  0  0  0  0  0
  187.0440  176.6370  143.8760 C   0  0  0  0  0  0  0  0  0  0  0  0
  186.0090  177.3320  143.3460 C   0  0  0  0  0  3  0  0  0  0  0  0
  184.9260  178.3390  147.6240 N   0  0  0  0  0  0  0  0  0  0  0  0
  185.2140  178.0770  145.4970 C   0  0  0  0  0  0  0  0  0  0  0  0
  184.4110  178.6630  146.5040 N   0  0  0  0  0  0  0  0  0  0  0  0
  186.0930  177.5200  147.4320 C   0  0  0  0  0  3  0  0  0  0  0  0
  185.0490  178.1010  144.1770 C   0  0  0  0  0  0  0  0  0  0  0  0
  187.3130  176.6050  145.3790 C   0  0  0  0  0  2  0  0  0  0  0  0
  183.9030  178.8230  143.5550 C   0  0  0  0  0  2  0  0  0  0  0  0
  183.6230  178.2700  142.2390 N   0  0  0  0  0  2  0  0  0  0  0  0
  180.7350  178.1570  140.1640 N   0  0  0  0  0  0  0  0  0  0  0  0
  182.3360  178.3820  141.6370 C   0  0  0  0  0  0  0  0  0  0  0  0
  182.0660  177.8800  140.4790 N   0  0  0  0  0  0  0  0  0  0  0  0
  180.1970  178.8270  141.1290 C   0  0  0  0  0  0  0  0  0  0  0  0
  181.1590  179.0740  142.2400 C   0  0  0  0  0  2  0  0  0  0  0  0
  178.8010  179.2800  141.1080 C   0  0  0  0  0  0  0  0  0  0  0  0
  178.3120  179.9840  140.0150 O   0  0  0  0  0  0  0  0  0  0  0  0
  178.0350  179.0120  142.0700 O   0  0  0  0  0  1  0  0  0  0  0  0
  189.3610  176.2560  142.8050 C   0  0  0  0  0  2  0  0  0  0  0  0
  190.5180  173.2560  143.8500 C   0  0  0  0  0  1  0  0  0  0  0  0
  191.0820  176.8750  144.5280 C   0  0  0  0  0  2  0  0  0  0  0  0
  194.2240  175.7160  146.4220 C   0  0  0  0  0  2  0  0  0  0  0  0
  190.2310  175.7470  143.9520 C   0  0  2  0  0  3  0  0  0  0  0  0
  194.6540  174.9030  144.0010 C   0  0  2  0  0  3  0  0  0  0  0  0
  195.2580  175.3090  145.3600 C   0  0  0  0  0  2  0  0  0  0  0  0
  193.1870  176.7490  145.9410 C   0  0  0  0  0  2  0  0  0  0  0  0
  191.1780  174.5950  143.5880 C   0  0  1  0  0  0  0  0  0  0  0  0
  192.3540  174.8020  144.5170 C   0  0  2  0  0  3  0  0  0  0  0  0
  191.5950  174.6710  142.2530 O   0  0  0  0  0  1  0  0  0  0  0  0
  192.4870  176.3230  144.6480 C   0  0  1  0  0  3  0  0  0  0  0  0
  193.5170  174.0690  144.1320 O   0  0  0  0  0  0  0  0  0  0  0  0
  195.6640  174.2300  143.2000 N   0  0  0  0  0  2  0  0  0  0  0  0
  196.3430  175.5930  141.1450 C   0  0  2  0  0  3  0  0  0  0  0  0
  196.4650  175.2370  139.3630 S   0  0  0  0  0  0  0  0  0  0  0  0
  195.3690  173.7920  139.5260 C   0  0  0  0  0  2  0  0  0  0  0  0
  195.7510  174.3890  141.7850 C   0  0  0  0  0  0  0  0  0  0  0  0
  195.2560  173.4780  140.9700 C   0  0  0  0  0  3  0  0  0  0  0  0
  195.5030  176.6760  141.3370 F   0  0  0  0  0  0  0  0  0  0  0  0
  1  2  2  0  0  0  0
  2  4  1  0  0  0  0
  3  9  2  0  0  0  0
  4 11  1  0  0  0  0
  5  4  2  0  0  0  0
  5 10  1  0  0  0  0
  7  3  1  0  0  0  0
  7  8  1  0  0  0  0
  8  6  2  0  0  0  0
  9  6  1  0  0  0  0
 10  7  2  0  0  0  0
 11  3  1  0  0  0  0
 12 10  1  0  0  0  0
 13 12  1  0  0  0  0
 14 16  1  0  0  0  0
 14 17  2  0  0  0  0
 15 13  1  0  0  0  0
 15 18  1  0  0  0  0
 16 15  2  0  0  0  0
 17 18  1  0  0  0  0
 19 17  1  0  0  0  0
 19 21  1  0  0  0  0
 20 19  2  0  0  0  0
 22  2  1  0  0  0  0
 26 22  1  6  0  0  0
 26 24  1  0  0  0  0
 27 35  1  6  0  0  0
 27 34  1  0  0  0  0
 27 28  1  0  0  0  0
 28 25  1  0  0  0  0
 29 25  1  0  0  0  0
 30 23  1  1  0  0  0
 30 26  1  0  0  0  0
 30 31  1  0  0  0  0
 31 34  1  6  0  0  0
 31 33  1  0  0  0  0
 32 30  1  0  0  0  0
 33 24  1  1  0  0  0
 33 29  1  0  0  0  0
 36 41  1  6  0  0  0
 36 39  1  0  0  0  0
 37 38  1  0  0  0  0
 37 36  1  0  0  0  0
 38 40  1  0  0  0  0
 39 35  1  0  0  0  0
 40 39  2  0  0  0  0
M  END
>  <MODEL>
5

>  <REMARK>
 VINA RESULT:      -8.1      4.198      8.988
  Name = 
  8 active torsions:
  status: ('A' for Active; 'I' for Inactive)
    1  A    between atoms: N_1  and  C_13
    2  A    between atoms: N_1  and  C_34
    3  A    between atoms: C_6  and  C_12
    4  A    between atoms: C_6  and  C_40
    5  A    between atoms: N_7  and  C_10
    6  A    between atoms: C_8  and  C_40
    7  A    between atoms: C_10  and  C_31
    8  A    between atoms: C_15  and  C_30
                            x       y       z     vdW  Elec       q    Type
                         _______ _______ _______ _____ _____    ______ ____

>  <TORSDO>
F 8

$$$$
=
 OpenBabel11062422223D

 41 46  0  0  1  0  0  0  0  0999 V2000
  190.3890  177.3750  147.6820 O   0  0  0  0  0  0  0  0  0  0  0  0
  189.8150  176.7000  146.7870 C   0  0  0  0  0  0  0  0  0  0  0  0
  186.2150  178.0980  146.7170 C   0  0  0  0  0  0  0  0  0  0  0  0
  188.4490  177.0510  146.3530 C   0  0  0  0  0  0  0  0  0  0  0  0
  187.9840  176.5720  145.1740 C   0  0  0  0  0  3  0  0  0  0  0  0
  184.0800  178.5760  146.2800 N   0  0  0  0  0  0  0  0  0  0  0  0
  185.8070  177.5690  145.4580 C   0  0  0  0  0  0  0  0  0  0  0  0
  184.4500  177.9110  145.2570 N   0  0  0  0  0  0  0  0  0  0  0  0
  185.1600  178.7130  147.2190 C   0  0  0  0  0  3  0  0  0  0  0  0
  186.6100  176.8440  144.6830 C   0  0  0  0  0  0  0  0  0  0  0  0
  187.5930  177.9250  147.2680 C   0  0  0  0  0  2  0  0  0  0  0  0
  186.1280  176.2680  143.3960 C   0  0  0  0  0  2  0  0  0  0  0  0
  187.1250  176.4720  142.3560 N   0  0  0  0  0  2  0  0  0  0  0  0
  189.6170  174.4100  140.8760 N   0  0  0  0  0  0  0  0  0  0  0  0
  188.0140  175.4330  141.9550 C   0  0  0  0  0  0  0  0  0  0  0  0
  188.9150  175.6040  141.0470 N   0  0  0  0  0  0  0  0  0  0  0  0
  189.1420  173.5150  141.6770 C   0  0  0  0  0  0  0  0  0  0  0  0
  188.0250  174.0470  142.5060 C   0  0  0  0  0  2  0  0  0  0  0  0
  189.6610  172.1440  141.7420 C   0  0  0  0  0  0  0  0  0  0  0  0
  189.7070  171.4710  142.9560 O   0  0  0  0  0  1  0  0  0  0  0  0
  190.0470  171.5640  140.6940 O   0  0  0  0  0  0  0  0  0  0  0  0
  190.5500  175.5660  146.1450 C   0  0  0  0  0  2  0  0  0  0  0  0
  193.6890  176.7540  146.5550 C   0  0  0  0  0  1  0  0  0  0  0  0
  191.4760  175.5530  143.8100 C   0  0  0  0  0  2  0  0  0  0  0  0
  194.6760  175.4880  141.6740 C   0  0  0  0  0  2  0  0  0  0  0  0
  191.6690  176.0640  145.2340 C   0  0  2  0  0  3  0  0  0  0  0  0
  195.1940  173.8060  143.5740 C   0  0  2  0  0  3  0  0  0  0  0  0
  195.4940  174.2710  142.1340 C   0  0  0  0  0  2  0  0  0  0  0  0
  193.1590  175.3690  141.9180 C   0  0  0  0  0  2  0  0  0  0  0  0
  193.0880  175.6760  145.6750 C   0  0  1  0  0  0  0  0  0  0  0  0
  193.8440  175.5700  144.3690 C   0  0  2  0  0  3  0  0  0  0  0  0
  193.1020  174.4460  146.3450 O   0  0  0  0  0  1  0  0  0  0  0  0
  192.8220  175.0160  143.3690 C   0  0  1  0  0  3  0  0  0  0  0  0
  195.0890  174.8830  144.4880 O   0  0  0  0  0  0  0  0  0  0  0  0
  196.2320  172.8890  144.0150 N   0  0  0  0  0  2  0  0  0  0  0  0
  194.6930  170.9530  144.6680 C   0  0  2  0  0  3  0  0  0  0  0  0
  194.8910  169.4530  145.6810 S   0  0  0  0  0  0  0  0  0  0  0  0
  196.3480  170.1520  146.5210 C   0  0  0  0  0  2  0  0  0  0  0  0
  195.9500  171.7340  144.8050 C   0  0  0  0  0  0  0  0  0  0  0  0
  196.7880  171.3340  145.7410 C   0  0  0  0  0  3  0  0  0  0  0  0
  193.6330  171.6970  145.1560 F   0  0  0  0  0  0  0  0  0  0  0  0
  2  1  2  0  0  0  0
  3  9  2  0  0  0  0
  3 11  1  0  0  0  0
  4  2  1  0  0  0  0
  4 11  1  0  0  0  0
  5  4  2  0  0  0  0
  6  9  1  0  0  0  0
  7  3  1  0  0  0  0
  8  7  1  0  0  0  0
  8  6  2  0  0  0  0
 10  5  1  0  0  0  0
 10  7  2  0  0  0  0
 12 10  1  0  0  0  0
 13 12  1  0  0  0  0
 14 16  1  0  0  0  0
 14 17  2  0  0  0  0
 15 13  1  0  0  0  0
 15 18  1  0  0  0  0
 16 15  2  0  0  0  0
 17 19  1  0  0  0  0
 17 18  1  0  0  0  0
 19 20  1  0  0  0  0
 21 19  2  0  0  0  0
 22  2  1  0  0  0  0
 24 26  1  0  0  0  0
 25 29  1  0  0  0  0
 25 28  1  0  0  0  0
 26 30  1  0  0  0  0
 26 22  1  1  0  0  0
 27 35  1  1  0  0  0
 27 34  1  0  0  0  0
 28 27  1  0  0  0  0
 30 32  1  0  0  0  0
 30 23  1  1  0  0  0
 31 34  1  1  0  0  0
 31 30  1  0  0  0  0
 33 29  1  6  0  0  0
 33 24  1  0  0  0  0
 33 31  1  0  0  0  0
 35 39  1  0  0  0  0
 36 39  1  0  0  0  0
 36 41  1  1  0  0  0
 36 37  1  0  0  0  0
 37 38  1  0  0  0  0
 39 40  2  0  0  0  0
 40 38  1  0  0  0  0
M  END
>  <MODEL>
6

>  <REMARK>
 VINA RESULT:      -8.0      3.805      8.131
  Name = 
  8 active torsions:
  status: ('A' for Active; 'I' for Inactive)
    1  A    between atoms: N_1  and  C_13
    2  A    between atoms: N_1  and  C_34
    3  A    between atoms: C_6  and  C_12
    4  A    between atoms: C_6  and  C_40
    5  A    between atoms: N_7  and  C_10
    6  A    between atoms: C_8  and  C_40
    7  A    between atoms: C_10  and  C_31
    8  A    between atoms: C_15  and  C_30
                            x       y       z     vdW  Elec       q    Type
                         _______ _______ _______ _____ _____    ______ ____

>  <TORSDO>
F 8

$$$$
=
 OpenBabel11062422223D

 41 46  0  0  1  0  0  0  0  0999 V2000
  189.4150  172.0230  144.7010 O   0  0  0  0  0  0  0  0  0  0  0  0
  190.1580  172.2460  143.7080 C   0  0  0  0  0  0  0  0  0  0  0  0
  189.1850  172.8130  140.0130 C   0  0  0  0  0  0  0  0  0  0  0  0
  189.5940  172.8250  142.4730 C   0  0  0  0  0  0  0  0  0  0  0  0
  189.0030  174.0430  142.5220 C   0  0  0  0  0  3  0  0  0  0  0  0
  188.5340  173.6260  138.0400 N   0  0  0  0  0  0  0  0  0  0  0  0
  188.5660  174.0900  140.1510 C   0  0  2  0  0  3  0  0  0  0  0  0
  188.1860  174.5350  138.8640 N   0  0  0  0  0  0  0  0  0  0  0  0
  189.1650  172.5300  138.7240 C   0  0  0  0  0  3  0  0  0  0  0  0
  188.4480  174.7140  141.3200 C   0  0  0  0  0  0  0  0  0  0  0  0
  189.7220  172.0370  141.1710 C   0  0  0  0  0  3  0  0  0  0  0  0
  187.8380  176.0710  141.4130 C   0  0  0  0  0  2  0  0  0  0  0  0
  188.5500  176.8700  142.3980 N   0  0  0  0  0  2  0  0  0  0  0  0
  187.7930  178.0010  145.6850 N   0  0  0  0  0  0  0  0  0  0  0  0
  187.9840  177.1690  143.6710 C   0  0  0  0  0  0  0  0  0  0  0  0
  188.5960  177.8920  144.5480 N   0  0  0  0  0  0  0  0  0  0  0  0
  186.6960  177.3440  145.4990 C   0  0  0  0  0  0  0  0  0  0  0  0
  186.6520  176.7030  144.1540 C   0  0  0  0  0  2  0  0  0  0  0  0
  185.6360  177.2550  146.5090 C   0  0  0  0  0  0  0  0  0  0  0  0
  185.9430  176.8900  147.8140 O   0  0  0  0  0  1  0  0  0  0  0  0
  184.4470  177.5320  146.2040 O   0  0  0  0  0  0  0  0  0  0  0  0
  191.6210  171.9540  143.8120 C   0  0  0  0  0  2  0  0  0  0  0  0
  194.6290  171.9860  145.3560 C   0  0  0  0  0  1  0  0  0  0  0  0
  191.5540  174.0780  145.1520 C   0  0  0  0  0  2  0  0  0  0  0  0
  193.6550  176.7920  146.8900 C   0  0  0  0  0  2  0  0  0  0  0  0
  192.2760  172.7510  144.9390 C   0  0  2  0  0  3  0  0  0  0  0  0
  194.9320  176.3780  144.6760 C   0  0  2  0  0  3  0  0  0  0  0  0
  194.6250  177.3470  145.8360 C   0  0  0  0  0  2  0  0  0  0  0  0
  192.3610  176.1870  146.3130 C   0  0  0  0  0  2  0  0  0  0  0  0
  193.7640  173.0640  144.7340 C   0  0  1  0  0  0  0  0  0  0  0  0
  193.9480  174.3800  145.4560 C   0  0  2  0  0  3  0  0  0  0  0  0
  194.0800  173.2080  143.3760 O   0  0  0  0  0  1  0  0  0  0  0  0
  192.6340  175.1360  145.2330 C   0  0  1  0  0  3  0  0  0  0  0  0
  195.1610  175.0510  145.1150 O   0  0  0  0  0  0  0  0  0  0  0  0
  196.0880  176.8550  143.9350 N   0  0  0  0  0  2  0  0  0  0  0  0
  195.9150  176.4520  141.4150 C   0  0  2  0  0  3  0  0  0  0  0  0
  196.9820  175.6490  140.1770 S   0  0  0  0  0  0  0  0  0  0  0  0
  197.8830  174.7380  141.4700 C   0  0  0  0  0  2  0  0  0  0  0  0
  196.5480  176.2240  142.7410 C   0  0  0  0  0  0  0  0  0  0  0  0
  197.5400  175.3570  142.7730 C   0  0  0  0  0  3  0  0  0  0  0  0
  194.6650  175.8590  141.3930 F   0  0  0  0  0  0  0  0  0  0  0  0
  2 22  1  0  0  0  0
  2  1  2  0  0  0  0
  3  7  1  0  0  0  0
  3 11  1  0  0  0  0
  4  5  1  0  0  0  0
  4  2  1  0  0  0  0
  6  9  1  0  0  0  0
  6  8  2  0  0  0  0
  7  8  1  6  0  0  0
  7 10  1  0  0  0  0
  9  3  2  0  0  0  0
 10 12  1  0  0  0  0
 10  5  2  0  0  0  0
 11  4  2  0  0  0  0
 12 13  1  0  0  0  0
 13 15  1  0  0  0  0
 15 18  1  0  0  0  0
 15 16  2  0  0  0  0
 16 14  1  0  0  0  0
 17 14  2  0  0  0  0
 17 19  1  0  0  0  0
 18 17  1  0  0  0  0
 19 20  1  0  0  0  0
 21 19  2  0  0  0  0
 26 22  1  6  0  0  0
 26 24  1  0  0  0  0
 27 35  1  1  0  0  0
 27 34  1  0  0  0  0
 27 28  1  0  0  0  0
 28 25  1  0  0  0  0
 29 25  1  0  0  0  0
 30 26  1  0  0  0  0
 30 23  1  1  0  0  0
 30 31  1  0  0  0  0
 31 34  1  6  0  0  0
 32 30  1  0  0  0  0
 33 24  1  1  0  0  0
 33 31  1  0  0  0  0
 33 29  1  0  0  0  0
 36 41  1  1  0  0  0
 36 39  1  0  0  0  0
 37 36  1  0  0  0  0
 37 38  1  0  0  0  0
 38 40  1  0  0  0  0
 39 40  2  0  0  0  0
 39 35  1  0  0  0  0
M  END
>  <MODEL>
7

>  <REMARK>
 VINA RESULT:      -7.9      3.584      8.064
  Name = 
  8 active torsions:
  status: ('A' for Active; 'I' for Inactive)
    1  A    between atoms: N_1  and  C_13
    2  A    between atoms: N_1  and  C_34
    3  A    between atoms: C_6  and  C_12
    4  A    between atoms: C_6  and  C_40
    5  A    between atoms: N_7  and  C_10
    6  A    between atoms: C_8  and  C_40
    7  A    between atoms: C_10  and  C_31
    8  A    between atoms: C_15  and  C_30
                            x       y       z     vdW  Elec       q    Type
                         _______ _______ _______ _____ _____    ______ ____

>  <TORSDO>
F 8

$$$$
=
 OpenBabel11062422223D

 41 46  0  0  1  0  0  0  0  0999 V2000
  192.7730  171.9750  140.4350 O   0  0  0  0  0  0  0  0  0  0  0  0
  192.1840  171.7990  141.5350 C   0  0  0  0  0  0  0  0  0  0  0  0
  193.5470  169.5830  144.3900 C   0  0  0  0  0  0  0  0  0  0  0  0
  192.9360  171.3250  142.7130 C   0  0  0  0  0  0  0  0  0  0  0  0
  193.7060  172.1990  143.4050 C   0  0  0  0  0  3  0  0  0  0  0  0
  194.4840  168.7560  146.2380 N   0  0  0  0  0  0  0  0  0  0  0  0
  194.3460  170.5590  145.0520 C   0  0  0  0  0  0  0  0  0  0  0  0
  194.9000  169.9610  146.2080 N   0  0  0  0  0  0  0  0  0  0  0  0
  193.6310  168.4820  145.1140 C   0  0  0  0  0  2  0  0  0  0  0  0
  194.4610  171.8130  144.6230 C   0  0  0  0  0  0  0  0  0  0  0  0
  192.7960  169.8610  143.1280 C   0  0  0  0  0  3  0  0  0  0  0  0
  195.2680  172.8160  145.3740 C   0  0  0  0  0  2  0  0  0  0  0  0
  195.1330  174.1260  144.7570 N   0  0  0  0  0  2  0  0  0  0  0  0
  192.8300  176.8120  145.1310 N   0  0  0  0  0  0  0  0  0  0  0  0
  194.0820  175.0190  145.1170 C   0  0  0  0  0  0  0  0  0  0  0  0
  193.9370  176.1770  144.5660 N   0  0  0  0  0  0  0  0  0  0  0  0
  192.3040  176.0420  146.0250 C   0  0  0  0  0  0  0  0  0  0  0  0
  193.0400  174.7520  146.1500 C   0  0  0  0  0  2  0  0  0  0  0  0
  191.1230  176.4180  146.8090 C   0  0  0  0  0  0  0  0  0  0  0  0
  189.8600  176.3840  146.2310 O   0  0  0  0  0  0  0  0  0  0  0  0
  191.2460  176.7520  148.0160 O   0  0  0  0  0  1  0  0  0  0  0  0
  190.7260  172.1160  141.6400 C   0  0  0  0  0  2  0  0  0  0  0  0
  188.5460  173.7340  139.6240 C   0  0  0  0  0  1  0  0  0  0  0  0
  190.9910  174.5200  142.3220 C   0  0  0  0  0  2  0  0  0  0  0  0
  189.3360  177.9930  142.3880 C   0  0  0  0  0  2  0  0  0  0  0  0
  190.4370  173.5690  141.2660 C   0  0  2  0  0  3  0  0  0  0  0  0
  187.3930  176.3960  143.0040 C   0  0  2  0  0  3  0  0  0  0  0  0
  187.9730  177.8230  143.0760 C   0  0  0  0  0  2  0  0  0  0  0  0
  190.3900  176.9430  142.7880 C   0  0  0  0  0  2  0  0  0  0  0  0
  188.9520  173.9080  141.0740 C   0  0  1  0  0  0  0  0  0  0  0  0
  188.8690  175.3620  141.4820 C   0  0  2  0  0  3  0  0  0  0  0  0
  188.1330  173.1260  141.8990 O   0  0  0  0  0  1  0  0  0  0  0  0
  189.8830  175.5070  142.6220 C   0  0  1  0  0  3  0  0  0  0  0  0
  187.5360  175.8090  141.7240 O   0  0  0  0  0  0  0  0  0  0  0  0
  185.9890  176.4210  143.3780 N   0  0  0  0  0  2  0  0  0  0  0  0
  184.5840  178.2760  144.4410 C   0  0  2  0  0  3  0  0  0  0  0  0
  184.0660  178.6660  146.1430 S   0  0  0  0  0  0  0  0  0  0  0  0
  185.3920  177.6280  146.8380 C   0  0  0  0  0  2  0  0  0  0  0  0
  185.5130  177.1190  144.5290 C   0  0  0  0  0  0  0  0  0  0  0  0
  185.9250  176.7900  145.7370 C   0  0  0  0  0  3  0  0  0  0  0  0
  185.2520  179.3640  143.9070 F   0  0  0  0  0  0  0  0  0  0  0  0
  1  2  2  0  0  0  0
  2 22  1  0  0  0  0
  2  4  1  0  0  0  0
  3  7  2  0  0  0  0
  3  9  1  0  0  0  0
  4 11  2  0  0  0  0
  4  5  1  0  0  0  0
  5 10  2  0  0  0  0
  7  8  1  0  0  0  0
  8  6  2  0  0  0  0
  9  6  1  0  0  0  0
 10  7  1  0  0  0  0
 10 12  1  0  0  0  0
 11  3  1  0  0  0  0
 13 15  1  0  0  0  0
 13 12  1  0  0  0  0
 14 17  2  0  0  0  0
 15 18  1  0  0  0  0
 16 15  2  0  0  0  0
 16 14  1  0  0  0  0
 17 18  1  0  0  0  0
 17 19  1  0  0  0  0
 19 21  1  0  0  0  0
 20 19  2  0  0  0  0
 25 29  1  0  0  0  0
 25 28  1  0  0  0  0
 26 22  1  1  0  0  0
 26 24  1  0  0  0  0
 27 28  1  0  0  0  0
 27 35  1  6  0  0  0
 30 23  1  6  0  0  0
 30 26  1  0  0  0  0
 30 31  1  0  0  0  0
 30 32  1  0  0  0  0
 31 34  1  1  0  0  0
 31 33  1  0  0  0  0
 33 24  1  6  0  0  0
 33 29  1  0  0  0  0
 34 27  1  0  0  0  0
 35 39  1  0  0  0  0
 36 41  1  1  0  0  0
 36 39  1  0  0  0  0
 36 37  1  0  0  0  0
 37 38  1  0  0  0  0
 39 40  2  0  0  0  0
 40 38  1  0  0  0  0
M  END
>  <MODEL>
8

>  <REMARK>
 VINA RESULT:      -7.9      3.052      6.176
  Name = 
  8 active torsions:
  status: ('A' for Active; 'I' for Inactive)
    1  A    between atoms: N_1  and  C_13
    2  A    between atoms: N_1  and  C_34
    3  A    between atoms: C_6  and  C_12
    4  A    between atoms: C_6  and  C_40
    5  A    between atoms: N_7  and  C_10
    6  A    between atoms: C_8  and  C_40
    7  A    between atoms: C_10  and  C_31
    8  A    between atoms: C_15  and  C_30
                            x       y       z     vdW  Elec       q    Type
                         _______ _______ _______ _____ _____    ______ ____

>  <TORSDO>
F 8

$$$$
=
 OpenBabel11062422223D

 41 46  0  0  1  0  0  0  0  0999 V2000
  186.6920  176.9150  141.3490 O   0  0  0  0  0  0  0  0  0  0  0  0
  186.9710  176.1650  142.3220 C   0  0  0  0  0  0  0  0  0  0  0  0
  185.3750  177.6670  145.5030 C   0  0  0  0  0  0  0  0  0  0  0  0
  186.7610  176.6340  143.7060 C   0  0  0  0  0  0  0  0  0  0  0  0
  187.8000  176.6190  144.5750 C   0  0  0  0  0  3  0  0  0  0  0  0
  184.9450  178.5610  147.5010 N   0  0  0  0  0  0  0  0  0  0  0  0
  186.5120  177.6040  146.3600 C   0  0  2  0  0  3  0  0  0  0  0  0
  186.1610  178.1900  147.5990 N   0  0  0  0  0  0  0  0  0  0  0  0
  184.4180  178.2510  146.2000 C   0  0  0  0  0  3  0  0  0  0  0  0
  187.6850  177.1110  145.9710 C   0  0  0  0  0  0  0  0  0  0  0  0
  185.3780  177.1460  144.1020 C   0  0  0  0  0  3  0  0  0  0  0  0
  188.8630  177.1090  146.8840 C   0  0  0  0  0  2  0  0  0  0  0  0
  189.5440  175.8260  146.8150 N   0  0  0  0  0  2  0  0  0  0  0  0
  192.8090  174.8040  145.8370 N   0  0  0  0  0  0  0  0  0  0  0  0
  190.8950  175.7160  146.3750 C   0  0  0  0  0  0  0  0  0  0  0  0
  191.5070  174.5830  146.2900 N   0  0  0  0  0  0  0  0  0  0  0  0
  192.9880  176.0700  145.6490 C   0  0  0  0  0  0  0  0  0  0  0  0
  191.7650  176.8580  145.9680 C   0  0  0  0  0  2  0  0  0  0  0  0
  194.2560  176.6360  145.1760 C   0  0  0  0  0  0  0  0  0  0  0  0
  194.7700  177.7850  145.7620 O   0  0  0  0  0  1  0  0  0  0  0  0
  194.8950  176.0700  144.2510 O   0  0  0  0  0  0  0  0  0  0  0  0
  187.4770  174.7820  142.0560 C   0  0  0  0  0  2  0  0  0  0  0  0
  190.7170  175.5270  142.6700 C   0  0  0  0  0  1  0  0  0  0  0  0
  188.6580  173.9280  140.0090 C   0  0  0  0  0  2  0  0  0  0  0  0
  192.0140  172.7260  138.5630 C   0  0  0  0  0  2  0  0  0  0  0  0
  188.7760  174.8040  141.2530 C   0  0  2  0  0  3  0  0  0  0  0  0
  191.9490  171.6260  140.9060 C   0  0  2  0  0  3  0  0  0  0  0  0
  192.5080  171.5870  139.4690 C   0  0  0  0  0  2  0  0  0  0  0  0
  190.4870  172.9260  138.5610 C   0  0  0  0  0  2  0  0  0  0  0  0
  190.0230  174.3450  142.0230 C   0  0  1  0  0  0  0  0  0  0  0  0
  190.8950  173.7370  140.9470 C   0  0  2  0  0  3  0  0  0  0  0  0
  189.7080  173.3840  142.9920 O   0  0  0  0  0  1  0  0  0  0  0  0
  189.9120  173.0790  139.9720 C   0  0  1  0  0  3  0  0  0  0  0  0
  191.9520  172.9290  141.4620 O   0  0  0  0  0  0  0  0  0  0  0  0
  192.7190  170.7300  141.7530 N   0  0  0  0  0  2  0  0  0  0  0  0
  193.0040  171.0610  144.2730 C   0  0  2  0  0  3  0  0  0  0  0  0
  194.3920  171.5510  145.3450 S   0  0  0  0  0  0  0  0  0  0  0  0
  195.2860  172.2850  143.9380 C   0  0  0  0  0  2  0  0  0  0  0  0
  193.4770  171.1930  142.8700 C   0  0  0  0  0  0  0  0  0  0  0  0
  194.6280  171.8120  142.6960 C   0  0  0  0  0  3  0  0  0  0  0  0
  191.9400  171.9220  144.4830 F   0  0  0  0  0  0  0  0  0  0  0  0
  1  2  2  0  0  0  0
  2  4  1  0  0  0  0
  3  9  2  0  0  0  0
  4 11  2  0  0  0  0
  4  5  1  0  0  0  0
  5 10  2  0  0  0  0
  6  8  2  0  0  0  0
  7  3  1  6  0  0  0
  7  8  1  0  0  0  0
  9  6  1  0  0  0  0
 10  7  1  0  0  0  0
 10 12  1  0  0  0  0
 11  3  1  0  0  0  0
 13 12  1  0  0  0  0
 14 16  1  0  0  0  0
 15 13  1  0  0  0  0
 16 15  2  0  0  0  0
 17 14  2  0  0  0  0
 17 18  1  0  0  0  0
 18 15  1  0  0  0  0
 19 17  1  0  0  0  0
 19 20  1  0  0  0  0
 21 19  2  0  0  0  0
 22  2  1  0  0  0  0
 24 26  1  0  0  0  0
 25 28  1  0  0  0  0
 26 30  1  0  0  0  0
 26 22  1  1  0  0  0
 27 34  1  0  0  0  0
 27 35  1  1  0  0  0
 28 27  1  0  0  0  0
 29 25  1  0  0  0  0
 30 23  1  1  0  0  0
 30 32  1  0  0  0  0
 31 34  1  1  0  0  0
 31 30  1  0  0  0  0
 33 29  1  6  0  0  0
 33 24  1  0  0  0  0
 33 31  1  0  0  0  0
 35 39  1  0  0  0  0
 36 41  1  6  0  0  0
 36 37  1  0  0  0  0
 38 37  1  0  0  0  0
 39 36  1  0  0  0  0
 40 39  2  0  0  0  0
 40 38  1  0  0  0  0
M  END
>  <MODEL>
9

>  <REMARK>
 VINA RESULT:      -7.9      3.604      8.541
  Name = 
  8 active torsions:
  status: ('A' for Active; 'I' for Inactive)
    1  A    between atoms: N_1  and  C_13
    2  A    between atoms: N_1  and  C_34
    3  A    between atoms: C_6  and  C_12
    4  A    between atoms: C_6  and  C_40
    5  A    between atoms: N_7  and  C_10
    6  A    between atoms: C_8  and  C_40
    7  A    between atoms: C_10  and  C_31
    8  A    between atoms: C_15  and  C_30
                            x       y       z     vdW  Elec       q    Type
                         _______ _______ _______ _____ _____    ______ ____

>  <TORSDO>
F 8

$$$$
