=
 OpenBabel11062421373D

 52 57  0  0  1  0  0  0  0  0999 V2000
  189.4710  173.0380  139.7690 C   0  0  0  0  0  3  0  0  0  0  0  0
  190.1400  171.9620  140.2620 N   0  0  0  0  0  0  0  0  0  0  0  0
  189.3850  174.2130  140.5190 C   0  0  0  0  0  3  0  0  0  0  0  0
  190.7260  171.9810  141.4920 C   0  0  0  0  0  0  0  0  0  0  0  0
  190.6580  173.1430  142.2730 C   0  0  0  0  0  3  0  0  0  0  0  0
  189.9870  174.2720  141.7790 C   0  0  0  0  0  0  0  0  0  0  0  0
  191.4920  170.7760  141.9480 C   0  0  1  0  0  3  0  0  0  0  0  0
  190.6740  169.6410  142.1050 O   0  0  0  0  0  0  0  0  0  0  0  0
  191.1430  168.7090  141.2920 O   0  0  0  0  0  1  0  0  0  0  0  0
  192.6610  170.4970  141.1190 N   0  0  0  0  0  2  0  0  0  0  0  0
  193.7920  171.2020  141.7090 C   0  0  0  0  0  2  0  0  0  0  0  0
  193.7560  171.1190  143.2340 C   0  0  0  0  0  2  0  0  0  0  0  0
  196.1270  171.2120  144.3790 C   0  0  1  0  0  0  0  0  0  0  0  0
  194.2680  171.2950  145.9490 O   0  0  0  0  0  1  0  0  0  0  0  0
  194.9730  170.3840  143.8240 C   0  0  1  0  0  0  0  0  0  0  0  0
  195.2070  170.4530  145.3430 C   0  0  1  0  0  3  0  0  0  0  0  0
  197.4000  170.6700  144.1900 O   0  0  0  0  0  1  0  0  0  0  0  0
  196.0270  172.6750  144.3300 N   0  0  0  0  0  0  0  0  0  0  0  0
  197.0370  174.5910  143.4630 O   0  0  0  0  0  0  0  0  0  0  0  0
  196.5900  173.4340  143.2410 C   0  0  0  0  0  0  0  0  0  0  0  0
  196.6580  172.9310  141.9410 O   0  0  0  0  0  0  0  0  0  0  0  0
  196.6920  173.7300  140.8660 O   0  0  0  0  0  1  0  0  0  0  0  0
  195.4100  173.3130  145.3940 O   0  0  0  0  0  0  0  0  0  0  0  0
  193.1380  176.8180  144.9050 C   0  0  0  0  0  3  0  0  0  0  0  0
  194.2450  176.8310  145.7570 C   0  0  0  0  0  3  0  0  0  0  0  0
  193.5490  174.4830  144.4050 C   0  0  0  0  0  3  0  0  0  0  0  0
  195.0040  175.6700  145.9330 C   0  0  0  0  0  3  0  0  0  0  0  0
  194.6550  174.4850  145.2620 C   0  0  0  0  0  0  0  0  0  0  0  0
  192.7920  175.6460  144.2280 C   0  0  0  0  0  3  0  0  0  0  0  0
  195.3590  169.0980  143.2420 N   0  0  0  0  0  2  0  0  0  0  0  0
  194.2460  168.1670  143.3710 C   0  0  0  0  0  1  0  0  0  0  0  0
  189.9120  175.4780  142.4940 O   0  0  0  0  0  0  0  0  0  0  0  0
  187.7740  178.0990  144.0840 C   0  0  2  0  0  3  0  0  0  0  0  0
  186.3290  176.7970  142.2730 C   0  0  1  0  0  3  0  0  0  0  0  0
  186.4190  178.2840  141.9360 C   0  0  2  0  0  3  0  0  0  0  0  0
  187.6330  176.1060  141.8410 C   0  0  0  0  0  2  0  0  0  0  0  0
  186.4140  177.8540  143.3870 C   0  0  2  0  0  3  0  0  0  0  0  0
  188.9810  177.5750  143.3010 C   0  0  0  0  0  2  0  0  0  0  0  0
  188.7150  176.1410  142.9070 C   0  0  2  0  0  3  0  0  0  0  0  0
  185.1010  178.7930  141.5910 N   0  0  0  0  0  2  0  0  0  0  0  0
  184.1320  177.9290  142.2450 C   0  0  0  0  0  1  0  0  0  0  0  0
  187.7600  177.5460  145.5290 C   0  0  2  0  0  3  0  0  0  0  0  0
  191.0220  176.7130  147.4930 C   0  0  0  0  0  2  0  0  0  0  0  0
  189.7280  177.4510  147.1650 C   0  0  0  0  0  2  0  0  0  0  0  0
  188.7890  175.3220  146.1800 C   0  0  0  0  0  2  0  0  0  0  0  0
  190.7360  175.2390  147.7560 C   0  0  0  0  0  2  0  0  0  0  0  0
  190.0910  174.6040  146.5270 C   0  0  0  0  0  2  0  0  0  0  0  0
  189.0440  176.8100  145.9520 C   0  0  0  0  0  3  0  0  0  0  0  0
  186.5570  176.6310  145.7630 C   0  0  0  0  0  2  0  0  0  0  0  0
  185.6870  177.1470  146.9010 C   0  0  0  0  0  2  0  0  0  0  0  0
  184.4410  177.7820  146.3770 C   0  0  0  0  0  3  0  0  0  0  0  0
  184.4110  178.9770  146.1390 O   0  0  0  0  0  0  0  0  0  0  0  0
  1  2  2  0  0  0  0
  1  3  1  0  0  0  0
  2  4  1  0  0  0  0
  3  6  2  0  0  0  0
  4  7  1  0  0  0  0
  4  5  2  0  0  0  0
  6  5  1  0  0  0  0
  6 32  1  0  0  0  0
  7 10  1  6  0  0  0
  7  8  1  0  0  0  0
  9  8  1  0  0  0  0
 10 11  1  0  0  0  0
 11 12  1  0  0  0  0
 13 17  1  6  0  0  0
 13 16  1  0  0  0  0
 15 12  1  6  0  0  0
 15 13  1  0  0  0  0
 15 16  1  0  0  0  0
 16 14  1  1  0  0  0
 18 13  1  0  0  0  0
 18 23  1  0  0  0  0
 20 19  2  0  0  0  0
 20 18  1  0  0  0  0
 21 20  1  0  0  0  0
 22 21  1  0  0  0  0
 24 25  1  0  0  0  0
 25 27  2  0  0  0  0
 26 28  2  0  0  0  0
 28 23  1  0  0  0  0
 28 27  1  0  0  0  0
 29 26  1  0  0  0  0
 29 24  2  0  0  0  0
 30 31  1  0  0  0  0
 30 15  1  0  0  0  0
 32 39  1  0  0  0  0
 33 42  1  1  0  0  0
 34 36  1  6  0  0  0
 34 37  1  0  0  0  0
 35 40  1  1  0  0  0
 35 34  1  0  0  0  0
 35 37  1  0  0  0  0
 36 39  1  0  0  0  0
 37 33  1  0  0  0  0
 38 33  1  0  0  0  0
 39 38  1  0  0  0  0
 40 41  1  0  0  0  0
 42 49  1  0  0  0  0
 42 48  1  0  0  0  0
 43 46  1  0  0  0  0
 44 43  1  0  0  0  0
 45 47  1  0  0  0  0
 47 46  1  0  0  0  0
 48 45  1  0  0  0  0
 48 44  1  0  0  0  0
 49 50  1  0  0  0  0
 51 50  1  0  0  0  0
 52 51  2  0  0  0  0
M  END
>  <MODEL>
1

>  <REMARK>
 VINA RESULT:      -6.7      0.000      0.000
  Name = 
  19 active torsions:
  status: ('A' for Active; 'I' for Inactive)
    1  A    between atoms: C_1  and  O_22
    2  A    between atoms: C_1  and  C_38
    3  A    between atoms: C_1  and  N_47
    4  A    between atoms: C_2  and  C_39
    5  A    between atoms: N_3  and  C_17
    6  A    between atoms: C_4  and  N_5
    7  A    between atoms: N_5  and  O_42
    8  A    between atoms: C_7  and  N_13
    9  A    between atoms: O_9  and  C_48
   10  A    between atoms: O_9  and  C_49
   11  A    between atoms: C_15  and  C_39
   12  A    between atoms: C_15  and  C_51
   13  A    between atoms: C_17  and  C_32
   14  A    between atoms: C_21  and  O_24
   15  A    between atoms: C_32  and  C_43
   16  A    between atoms: C_39  and  C_52
   17  A    between atoms: C_40  and  C_51
   18  A    between atoms: O_42  and  C_44
   19  A    between atoms: C_43  and  N_47
                            x       y       z     vdW  Elec       q    Type
                         _______ _______ _______ _____ _____    ______ ____

>  <TORSDO>
F 19

$$$$
=
 OpenBabel11062421373D

 52 57  0  0  1  0  0  0  0  0999 V2000
  194.1040  176.6330  146.5290 C   0  0  0  0  0  3  0  0  0  0  0  0
  194.8640  175.7810  145.7900 N   0  0  0  0  0  0  0  0  0  0  0  0
  192.7350  176.3980  146.6790 C   0  0  0  0  0  3  0  0  0  0  0  0
  194.3270  174.6960  145.1650 C   0  0  0  0  0  0  0  0  0  0  0  0
  192.9570  174.4310  145.2940 C   0  0  0  0  0  3  0  0  0  0  0  0
  192.1540  175.2860  146.0630 C   0  0  0  0  0  0  0  0  0  0  0  0
  195.2360  173.7710  144.4120 C   0  0  1  0  0  3  0  0  0  0  0  0
  196.4590  174.3760  144.0670 O   0  0  0  0  0  0  0  0  0  0  0  0
  196.3050  174.9030  142.8640 O   0  0  0  0  0  1  0  0  0  0  0  0
  195.4300  172.4900  145.0860 N   0  0  0  0  0  2  0  0  0  0  0  0
  195.1700  171.4410  144.1100 C   0  0  0  0  0  2  0  0  0  0  0  0
  194.1410  171.8950  143.0750 C   0  0  0  0  0  2  0  0  0  0  0  0
  193.5040  171.4680  140.5540 C   0  0  1  0  0  0  0  0  0  0  0  0
  195.7910  172.2350  140.8790 O   0  0  0  0  0  1  0  0  0  0  0  0
  194.0230  170.9280  141.8830 C   0  0  1  0  0  0  0  0  0  0  0  0
  194.9860  171.1050  140.6970 C   0  0  1  0  0  3  0  0  0  0  0  0
  192.7220  170.5820  139.8100 O   0  0  0  0  0  1  0  0  0  0  0  0
  193.1410  172.8880  140.4690 N   0  0  0  0  0  0  0  0  0  0  0  0
  193.8060  174.9380  139.5750 O   0  0  0  0  0  0  0  0  0  0  0  0
  193.5810  173.7140  139.3720 C   0  0  0  0  0  0  0  0  0  0  0  0
  193.7660  173.2060  138.0850 O   0  0  0  0  0  0  0  0  0  0  0  0
  194.9830  172.9740  137.5780 O   0  0  0  0  0  1  0  0  0  0  0  0
  192.3970  173.4240  141.5070 O   0  0  0  0  0  0  0  0  0  0  0  0
  188.2440  172.8890  141.8990 C   0  0  0  0  0  3  0  0  0  0  0  0
  188.7580  173.4320  140.7190 C   0  0  0  0  0  3  0  0  0  0  0  0
  190.4870  172.7250  142.8000 C   0  0  0  0  0  3  0  0  0  0  0  0
  190.1370  173.6210  140.5790 C   0  0  0  0  0  3  0  0  0  0  0  0
  191.0100  173.2750  141.6240 C   0  0  0  0  0  0  0  0  0  0  0  0
  189.1080  172.5330  142.9370 C   0  0  0  0  0  3  0  0  0  0  0  0
  193.6950  169.5270  142.1510 N   0  0  0  0  0  2  0  0  0  0  0  0
  192.4690  169.4700  142.9360 C   0  0  0  0  0  1  0  0  0  0  0  0
  190.7840  175.0580  146.2620 O   0  0  0  0  0  0  0  0  0  0  0  0
  187.7830  176.5210  144.5800 C   0  0  2  0  0  3  0  0  0  0  0  0
  187.9660  177.5250  147.0340 C   0  0  1  0  0  3  0  0  0  0  0  0
  186.6490  176.7750  146.8450 C   0  0  2  0  0  3  0  0  0  0  0  0
  189.0900  176.5080  147.2840 C   0  0  0  0  0  2  0  0  0  0  0  0
  187.2640  177.4950  145.6650 C   0  0  2  0  0  3  0  0  0  0  0  0
  188.6600  175.3880  145.1230 C   0  0  0  0  0  2  0  0  0  0  0  0
  189.7280  175.9880  146.0080 C   0  0  2  0  0  3  0  0  0  0  0  0
  185.5470  177.5730  147.3600 N   0  0  0  0  0  2  0  0  0  0  0  0
  185.3830  178.6980  146.4550 C   0  0  0  0  0  1  0  0  0  0  0  0
  188.5020  177.2900  143.4460 C   0  0  2  0  0  3  0  0  0  0  0  0
  186.6950  177.5410  140.0020 C   0  0  0  0  0  2  0  0  0  0  0  0
  187.5800  176.9310  141.0840 C   0  0  0  0  0  2  0  0  0  0  0  0
  186.1580  178.0500  142.8470 C   0  0  0  0  0  2  0  0  0  0  0  0
  185.2750  177.7250  140.5240 C   0  0  0  0  0  2  0  0  0  0  0  0
  185.2820  178.6410  141.7460 C   0  0  0  0  0  2  0  0  0  0  0  0
  187.5780  177.8170  142.3340 C   0  0  0  0  0  3  0  0  0  0  0  0
  189.6110  176.4450  142.8170 C   0  0  0  0  0  2  0  0  0  0  0  0
  190.9420  177.1850  142.8330 C   0  0  0  0  0  2  0  0  0  0  0  0
  190.9320  178.2810  143.8490 C   0  0  0  0  0  3  0  0  0  0  0  0
  191.6430  179.2610  143.7040 O   0  0  0  0  0  0  0  0  0  0  0  0
  1  3  1  0  0  0  0
  2  1  2  0  0  0  0
  4  5  2  0  0  0  0
  4  2  1  0  0  0  0
  5  6  1  0  0  0  0
  6 32  1  0  0  0  0
  6  3  2  0  0  0  0
  7  8  1  1  0  0  0
  7 10  1  0  0  0  0
  7  4  1  0  0  0  0
  9  8  1  0  0  0  0
 11 10  1  0  0  0  0
 12 11  1  0  0  0  0
 13 17  1  6  0  0  0
 13 16  1  0  0  0  0
 13 15  1  0  0  0  0
 15 30  1  0  0  0  0
 15 12  1  1  0  0  0
 16 14  1  1  0  0  0
 16 15  1  0  0  0  0
 18 13  1  0  0  0  0
 18 23  1  0  0  0  0
 20 19  2  0  0  0  0
 20 18  1  0  0  0  0
 21 20  1  0  0  0  0
 22 21  1  0  0  0  0
 23 28  1  0  0  0  0
 24 29  1  0  0  0  0
 25 24  2  0  0  0  0
 26 29  2  0  0  0  0
 27 25  1  0  0  0  0
 27 28  2  0  0  0  0
 28 26  1  0  0  0  0
 30 31  1  0  0  0  0
 33 42  1  6  0  0  0
 33 38  1  0  0  0  0
 33 37  1  0  0  0  0
 34 36  1  6  0  0  0
 35 34  1  0  0  0  0
 35 40  1  1  0  0  0
 37 35  1  0  0  0  0
 37 34  1  0  0  0  0
 38 39  1  0  0  0  0
 39 32  1  0  0  0  0
 39 36  1  0  0  0  0
 41 40  1  0  0  0  0
 43 46  1  0  0  0  0
 43 44  1  0  0  0  0
 44 48  1  0  0  0  0
 46 47  1  0  0  0  0
 47 45  1  0  0  0  0
 48 45  1  0  0  0  0
 48 42  1  0  0  0  0
 49 50  1  0  0  0  0
 49 42  1  0  0  0  0
 50 51  1  0  0  0  0
 52 51  2  0  0  0  0
M  END
>  <MODEL>
2

>  <REMARK>
 VINA RESULT:      -6.6      2.165      5.609
  Name = 
  19 active torsions:
  status: ('A' for Active; 'I' for Inactive)
    1  A    between atoms: C_1  and  O_22
    2  A    between atoms: C_1  and  C_38
    3  A    between atoms: C_1  and  N_47
    4  A    between atoms: C_2  and  C_39
    5  A    between atoms: N_3  and  C_17
    6  A    between atoms: C_4  and  N_5
    7  A    between atoms: N_5  and  O_42
    8  A    between atoms: C_7  and  N_13
    9  A    between atoms: O_9  and  C_48
   10  A    between atoms: O_9  and  C_49
   11  A    between atoms: C_15  and  C_39
   12  A    between atoms: C_15  and  C_51
   13  A    between atoms: C_17  and  C_32
   14  A    between atoms: C_21  and  O_24
   15  A    between atoms: C_32  and  C_43
   16  A    between atoms: C_39  and  C_52
   17  A    between atoms: C_40  and  C_51
   18  A    between atoms: O_42  and  C_44
   19  A    between atoms: C_43  and  N_47
                            x       y       z     vdW  Elec       q    Type
                         _______ _______ _______ _____ _____    ______ ____

>  <TORSDO>
F 19

$$$$
=
 OpenBabel11062421373D

 52 57  0  0  1  0  0  0  0  0999 V2000
  194.6580  175.5260  146.3190 C   0  0  0  0  0  3  0  0  0  0  0  0
  195.5360  175.2590  145.3150 N   0  0  0  0  0  0  0  0  0  0  0  0
  193.4750  176.2160  146.0480 C   0  0  0  0  0  3  0  0  0  0  0  0
  195.3070  175.6620  144.0340 C   0  0  0  0  0  0  0  0  0  0  0  0
  194.1300  176.3580  143.7270 C   0  0  0  0  0  3  0  0  0  0  0  0
  193.2010  176.6320  144.7420 C   0  0  0  0  0  0  0  0  0  0  0  0
  196.2940  175.2850  142.9690 C   0  0  1  0  0  3  0  0  0  0  0  0
  197.5720  175.8290  143.1980 O   0  0  0  0  0  0  0  0  0  0  0  0
  197.4340  177.1440  143.2300 O   0  0  0  0  0  1  0  0  0  0  0  0
  196.3470  173.8460  142.7260 N   0  0  0  0  0  2  0  0  0  0  0  0
  196.8680  173.6510  141.3800 C   0  0  0  0  0  2  0  0  0  0  0  0
  195.8630  174.1170  140.3280 C   0  0  0  0  0  2  0  0  0  0  0  0
  194.4660  172.5090  138.7770 C   0  0  1  0  0  0  0  0  0  0  0  0
  194.3490  174.8520  138.1310 O   0  0  0  0  0  1  0  0  0  0  0  0
  195.7950  173.1800  139.1080 C   0  0  1  0  0  0  0  0  0  0  0  0
  194.9900  173.6350  137.8790 C   0  0  1  0  0  3  0  0  0  0  0  0
  194.5590  171.2150  138.2600 O   0  0  0  0  0  1  0  0  0  0  0  0
  193.3080  172.7860  139.6350 N   0  0  0  0  0  0  0  0  0  0  0  0
  191.1390  173.6480  139.6290 O   0  0  0  0  0  0  0  0  0  0  0  0
  191.9720  172.8650  139.0970 C   0  0  0  0  0  0  0  0  0  0  0  0
  191.5640  172.1000  138.0030 O   0  0  0  0  0  0  0  0  0  0  0  0
  191.4850  172.6080  136.7670 O   0  0  0  0  0  1  0  0  0  0  0  0
  193.5450  173.0190  140.9800 O   0  0  0  0  0  0  0  0  0  0  0  0
  192.6420  170.3260  144.0800 C   0  0  0  0  0  3  0  0  0  0  0  0
  192.8090  169.8450  142.7800 C   0  0  0  0  0  3  0  0  0  0  0  0
  193.0610  172.5810  143.3000 C   0  0  0  0  0  3  0  0  0  0  0  0
  193.1030  170.7310  141.7390 C   0  0  0  0  0  3  0  0  0  0  0  0
  193.2240  172.1080  141.9930 C   0  0  0  0  0  0  0  0  0  0  0  0
  192.7700  171.6920  144.3400 C   0  0  0  0  0  3  0  0  0  0  0  0
  196.9840  172.4020  138.7600 N   0  0  0  0  0  2  0  0  0  0  0  0
  197.9410  173.2730  138.0910 C   0  0  0  0  0  1  0  0  0  0  0  0
  191.9880  177.2930  144.4960 O   0  0  0  0  0  0  0  0  0  0  0  0
  188.7490  176.6990  142.7270 C   0  0  2  0  0  3  0  0  0  0  0  0
  189.4560  174.4720  143.9940 C   0  0  1  0  0  3  0  0  0  0  0  0
  189.3420  174.2340  142.4890 C   0  0  2  0  0  3  0  0  0  0  0  0
  190.7980  175.1580  144.2910 C   0  0  0  0  0  2  0  0  0  0  0  0
  188.4280  175.2450  143.1490 C   0  0  2  0  0  3  0  0  0  0  0  0
  190.2320  177.0670  142.8280 C   0  0  0  0  0  2  0  0  0  0  0  0
  190.7350  176.6730  144.1970 C   0  0  2  0  0  3  0  0  0  0  0  0
  188.5900  173.0150  142.2360 N   0  0  0  0  0  2  0  0  0  0  0  0
  189.5240  171.9100  142.3730 C   0  0  0  0  0  1  0  0  0  0  0  0
  187.8690  177.7060  143.5060 C   0  0  2  0  0  3  0  0  0  0  0  0
  187.1960  176.6580  147.2000 C   0  0  0  0  0  2  0  0  0  0  0  0
  187.9340  177.3130  146.0360 C   0  0  0  0  0  2  0  0  0  0  0  0
  185.7260  177.6600  144.8590 C   0  0  0  0  0  2  0  0  0  0  0  0
  185.7940  177.2420  147.3300 C   0  0  0  0  0  2  0  0  0  0  0  0
  185.0090  177.0100  146.0410 C   0  0  0  0  0  2  0  0  0  0  0  0
  187.1480  177.1210  144.7340 C   0  0  0  0  0  3  0  0  0  0  0  0
  186.8400  178.3700  142.5900 C   0  0  0  0  0  2  0  0  0  0  0  0
  186.9960  177.8930  141.1520 C   0  0  0  0  0  2  0  0  0  0  0  0
  185.6930  177.9510  140.4240 C   0  0  0  0  0  3  0  0  0  0  0  0
  184.6560  178.1560  141.0320 O   0  0  0  0  0  0  0  0  0  0  0  0
  2  1  2  0  0  0  0
  3  1  1  0  0  0  0
  4  2  1  0  0  0  0
  5  4  2  0  0  0  0
  5  6  1  0  0  0  0
  6  3  2  0  0  0  0
  7 10  1  1  0  0  0
  7  8  1  0  0  0  0
  7  4  1  0  0  0  0
  8  9  1  0  0  0  0
 11 10  1  0  0  0  0
 12 11  1  0  0  0  0
 13 17  1  6  0  0  0
 13 15  1  0  0  0  0
 13 18  1  0  0  0  0
 15 12  1  1  0  0  0
 16 14  1  1  0  0  0
 16 13  1  0  0  0  0
 16 15  1  0  0  0  0
 18 23  1  0  0  0  0
 20 19  2  0  0  0  0
 20 18  1  0  0  0  0
 21 20  1  0  0  0  0
 22 21  1  0  0  0  0
 23 28  1  0  0  0  0
 24 29  1  0  0  0  0
 25 24  2  0  0  0  0
 26 29  2  0  0  0  0
 27 28  2  0  0  0  0
 27 25  1  0  0  0  0
 28 26  1  0  0  0  0
 30 15  1  0  0  0  0
 31 30  1  0  0  0  0
 32  6  1  0  0  0  0
 33 38  1  0  0  0  0
 33 37  1  0  0  0  0
 33 42  1  1  0  0  0
 34 36  1  6  0  0  0
 35 40  1  1  0  0  0
 35 37  1  0  0  0  0
 35 34  1  0  0  0  0
 37 34  1  0  0  0  0
 38 39  1  0  0  0  0
 39 36  1  0  0  0  0
 39 32  1  0  0  0  0
 40 41  1  0  0  0  0
 42 48  1  0  0  0  0
 43 46  1  0  0  0  0
 44 43  1  0  0  0  0
 45 47  1  0  0  0  0
 47 46  1  0  0  0  0
 48 45  1  0  0  0  0
 48 44  1  0  0  0  0
 49 42  1  0  0  0  0
 50 49  1  0  0  0  0
 51 52  2  0  0  0  0
 51 50  1  0  0  0  0
M  END
>  <MODEL>
3

>  <REMARK>
 VINA RESULT:      -6.6      2.722      5.861
  Name = 
  19 active torsions:
  status: ('A' for Active; 'I' for Inactive)
    1  A    between atoms: C_1  and  O_22
    2  A    between atoms: C_1  and  C_38
    3  A    between atoms: C_1  and  N_47
    4  A    between atoms: C_2  and  C_39
    5  A    between atoms: N_3  and  C_17
    6  A    between atoms: C_4  and  N_5
    7  A    between atoms: N_5  and  O_42
    8  A    between atoms: C_7  and  N_13
    9  A    between atoms: O_9  and  C_48
   10  A    between atoms: O_9  and  C_49
   11  A    between atoms: C_15  and  C_39
   12  A    between atoms: C_15  and  C_51
   13  A    between atoms: C_17  and  C_32
   14  A    between atoms: C_21  and  O_24
   15  A    between atoms: C_32  and  C_43
   16  A    between atoms: C_39  and  C_52
   17  A    between atoms: C_40  and  C_51
   18  A    between atoms: O_42  and  C_44
   19  A    between atoms: C_43  and  N_47
                            x       y       z     vdW  Elec       q    Type
                         _______ _______ _______ _____ _____    ______ ____

>  <TORSDO>
F 19

$$$$
=
 OpenBabel11062421373D

 52 57  0  0  1  0  0  0  0  0999 V2000
  188.6040  177.6980  144.7700 C   0  0  0  0  0  3  0  0  0  0  0  0
  187.9310  176.9660  143.8420 N   0  0  0  0  0  0  0  0  0  0  0  0
  189.9920  177.8270  144.6860 C   0  0  0  0  0  3  0  0  0  0  0  0
  188.5740  176.3280  142.8250 C   0  0  0  0  0  0  0  0  0  0  0  0
  189.9670  176.4360  142.7110 C   0  0  0  0  0  3  0  0  0  0  0  0
  190.6830  177.1980  143.6470 C   0  0  0  0  0  0  0  0  0  0  0  0
  187.7610  175.5840  141.8080 C   0  0  1  0  0  3  0  0  0  0  0  0
  187.6380  176.2860  140.5940 O   0  0  0  0  0  0  0  0  0  0  0  0
  186.5540  177.0370  140.6890 O   0  0  0  0  0  1  0  0  0  0  0  0
  188.2230  174.2140  141.6040 N   0  0  0  0  0  2  0  0  0  0  0  0
  188.5790  174.0800  140.1970 C   0  0  0  0  0  2  0  0  0  0  0  0
  190.0260  173.6170  140.0380 C   0  0  0  0  0  2  0  0  0  0  0  0
  191.4810  171.7130  138.9420 C   0  0  1  0  0  0  0  0  0  0  0  0
  190.0920  170.9550  140.7910 O   0  0  0  0  0  1  0  0  0  0  0  0
  190.1930  172.5300  138.9610 C   0  0  1  0  0  0  0  0  0  0  0  0
  190.1730  171.0550  139.3980 C   0  0  1  0  0  3  0  0  0  0  0  0
  191.9430  171.3500  137.6750 O   0  0  0  0  0  1  0  0  0  0  0  0
  192.5060  171.9980  139.9530 N   0  0  0  0  0  0  0  0  0  0  0  0
  193.4580  171.1990  141.9280 O   0  0  0  0  0  0  0  0  0  0  0  0
  193.0940  170.9470  140.7480 C   0  0  0  0  0  0  0  0  0  0  0  0
  193.2780  169.6550  140.2540 O   0  0  0  0  0  0  0  0  0  0  0  0
  192.6150  168.6010  140.7460 O   0  0  0  0  0  1  0  0  0  0  0  0
  192.8590  173.3220  140.1560 O   0  0  0  0  0  0  0  0  0  0  0  0
  196.1210  175.1260  138.2080 C   0  0  0  0  0  3  0  0  0  0  0  0
  196.3120  174.5270  139.4560 C   0  0  0  0  0  3  0  0  0  0  0  0
  193.7730  174.5320  138.2820 C   0  0  0  0  0  3  0  0  0  0  0  0
  195.2330  173.9290  140.1160 C   0  0  0  0  0  3  0  0  0  0  0  0
  193.9540  173.9350  139.5350 C   0  0  0  0  0  0  0  0  0  0  0  0
  194.8530  175.1260  137.6210 C   0  0  0  0  0  3  0  0  0  0  0  0
  189.5800  172.7480  137.6500 N   0  0  0  0  0  2  0  0  0  0  0  0
  190.1400  173.9550  137.0600 C   0  0  0  0  0  1  0  0  0  0  0  0
  192.0730  177.3750  143.5700 O   0  0  0  0  0  0  0  0  0  0  0  0
  194.0050  174.1770  143.6670 C   0  0  2  0  0  3  0  0  0  0  0  0
  195.4930  176.1100  144.7220 C   0  0  1  0  0  3  0  0  0  0  0  0
  196.1770  175.4950  143.5030 C   0  0  2  0  0  3  0  0  0  0  0  0
  194.4140  177.0960  144.2460 C   0  0  0  0  0  2  0  0  0  0  0  0
  195.3050  174.6220  144.3800 C   0  0  2  0  0  3  0  0  0  0  0  0
  193.2370  175.3190  142.9940 C   0  0  0  0  0  2  0  0  0  0  0  0
  193.0670  176.4400  143.9940 C   0  0  2  0  0  3  0  0  0  0  0  0
  197.5730  175.2200  143.8060 N   0  0  0  0  0  2  0  0  0  0  0  0
  197.5870  174.1380  144.7770 C   0  0  0  0  0  1  0  0  0  0  0  0
  193.0930  173.3820  144.6310 C   0  0  2  0  0  3  0  0  0  0  0  0
  189.5280  174.3740  145.8560 C   0  0  0  0  0  2  0  0  0  0  0  0
  190.6110  173.4840  145.2550 C   0  0  0  0  0  2  0  0  0  0  0  0
  192.3330  174.6440  146.6940 C   0  0  0  0  0  2  0  0  0  0  0  0
  189.8990  174.7680  147.2810 C   0  0  0  0  0  2  0  0  0  0  0  0
  191.2290  175.5170  147.2870 C   0  0  0  0  0  2  0  0  0  0  0  0
  191.9640  174.2030  145.2800 C   0  0  0  0  0  3  0  0  0  0  0  0
  193.9080  172.6950  145.7290 C   0  0  0  0  0  2  0  0  0  0  0  0
  194.2020  171.2450  145.3680 C   0  0  0  0  0  2  0  0  0  0  0  0
  195.6740  170.9840  145.3560 C   0  0  0  0  0  3  0  0  0  0  0  0
  196.2610  170.8150  144.3010 O   0  0  0  0  0  0  0  0  0  0  0  0
  2  1  2  0  0  0  0
  3  1  1  0  0  0  0
  4  2  1  0  0  0  0
  5  4  2  0  0  0  0
  5  6  1  0  0  0  0
  6  3  2  0  0  0  0
  7  8  1  6  0  0  0
  7  4  1  0  0  0  0
  8  9  1  0  0  0  0
 10  7  1  0  0  0  0
 11 10  1  0  0  0  0
 12 11  1  0  0  0  0
 13 17  1  6  0  0  0
 13 15  1  0  0  0  0
 13 16  1  0  0  0  0
 13 18  1  0  0  0  0
 15 16  1  0  0  0  0
 15 12  1  1  0  0  0
 16 14  1  1  0  0  0
 18 23  1  0  0  0  0
 18 20  1  0  0  0  0
 20 19  2  0  0  0  0
 21 22  1  0  0  0  0
 21 20  1  0  0  0  0
 24 25  1  0  0  0  0
 25 27  2  0  0  0  0
 26 28  2  0  0  0  0
 28 27  1  0  0  0  0
 28 23  1  0  0  0  0
 29 24  2  0  0  0  0
 29 26  1  0  0  0  0
 30 15  1  0  0  0  0
 31 30  1  0  0  0  0
 32  6  1  0  0  0  0
 32 39  1  0  0  0  0
 33 37  1  0  0  0  0
 33 42  1  1  0  0  0
 34 36  1  6  0  0  0
 35 40  1  1  0  0  0
 35 37  1  0  0  0  0
 35 34  1  0  0  0  0
 37 34  1  0  0  0  0
 38 33  1  0  0  0  0
 38 39  1  0  0  0  0
 39 36  1  0  0  0  0
 40 41  1  0  0  0  0
 42 48  1  0  0  0  0
 42 49  1  0  0  0  0
 43 46  1  0  0  0  0
 44 48  1  0  0  0  0
 44 43  1  0  0  0  0
 45 47  1  0  0  0  0
 46 47  1  0  0  0  0
 48 45  1  0  0  0  0
 50 49  1  0  0  0  0
 51 50  1  0  0  0  0
 52 51  2  0  0  0  0
M  END
>  <MODEL>
4

>  <REMARK>
 VINA RESULT:      -6.4      2.552      7.398
  Name = 
  19 active torsions:
  status: ('A' for Active; 'I' for Inactive)
    1  A    between atoms: C_1  and  O_22
    2  A    between atoms: C_1  and  C_38
    3  A    between atoms: C_1  and  N_47
    4  A    between atoms: C_2  and  C_39
    5  A    between atoms: N_3  and  C_17
    6  A    between atoms: C_4  and  N_5
    7  A    between atoms: N_5  and  O_42
    8  A    between atoms: C_7  and  N_13
    9  A    between atoms: O_9  and  C_48
   10  A    between atoms: O_9  and  C_49
   11  A    between atoms: C_15  and  C_39
   12  A    between atoms: C_15  and  C_51
   13  A    between atoms: C_17  and  C_32
   14  A    between atoms: C_21  and  O_24
   15  A    between atoms: C_32  and  C_43
   16  A    between atoms: C_39  and  C_52
   17  A    between atoms: C_40  and  C_51
   18  A    between atoms: O_42  and  C_44
   19  A    between atoms: C_43  and  N_47
                            x       y       z     vdW  Elec       q    Type
                         _______ _______ _______ _____ _____    ______ ____

>  <TORSDO>
F 19

$$$$
=
 OpenBabel11062421373D

 52 57  0  0  1  0  0  0  0  0999 V2000
  195.7120  175.7460  141.9200 C   0  0  0  0  0  3  0  0  0  0  0  0
  195.8780  174.4040  142.0700 N   0  0  0  0  0  0  0  0  0  0  0  0
  194.4320  176.3020  141.9700 C   0  0  0  0  0  3  0  0  0  0  0  0
  194.8210  173.5650  142.2520 C   0  0  0  0  0  0  0  0  0  0  0  0
  193.5220  174.0890  142.3050 C   0  0  0  0  0  3  0  0  0  0  0  0
  193.3260  175.4710  142.1690 C   0  0  0  0  0  0  0  0  0  0  0  0
  195.0850  172.1040  142.4630 C   0  0  1  0  0  3  0  0  0  0  0  0
  194.0860  171.4790  143.2350 O   0  0  0  0  0  0  0  0  0  0  0  0
  194.6980  170.8370  144.2150 O   0  0  0  0  0  1  0  0  0  0  0  0
  195.3430  171.3860  141.2180 N   0  0  0  0  0  2  0  0  0  0  0  0
  194.0630  170.8900  140.7280 C   0  0  0  0  0  2  0  0  0  0  0  0
  193.8870  171.1970  139.2420 C   0  0  0  0  0  2  0  0  0  0  0  0
  191.5520  170.8740  138.0630 C   0  0  1  0  0  0  0  0  0  0  0  0
  193.3410  171.5320  136.5490 O   0  0  0  0  0  1  0  0  0  0  0  0
  192.8640  170.2730  138.5560 C   0  0  1  0  0  0  0  0  0  0  0  0
  192.6170  170.4440  137.0480 C   0  0  1  0  0  3  0  0  0  0  0  0
  190.4340  170.0460  138.1710 O   0  0  0  0  0  1  0  0  0  0  0  0
  191.3220  172.3100  138.2620 N   0  0  0  0  0  0  0  0  0  0  0  0
  191.4360  174.3870  137.2040 O   0  0  0  0  0  0  0  0  0  0  0  0
  191.0440  173.1900  137.1530 C   0  0  0  0  0  0  0  0  0  0  0  0
  190.3500  172.7630  136.0200 O   0  0  0  0  0  0  0  0  0  0  0  0
  189.4830  173.5520  135.3730 O   0  0  0  0  0  1  0  0  0  0  0  0
  191.4270  172.8060  139.5510 O   0  0  0  0  0  0  0  0  0  0  0  0
  188.3970  172.4990  142.4510 C   0  0  0  0  0  3  0  0  0  0  0  0
  189.5710  171.7570  142.6030 C   0  0  0  0  0  3  0  0  0  0  0  0
  189.2460  173.4160  140.3760 C   0  0  0  0  0  3  0  0  0  0  0  0
  190.5830  171.8460  141.6420 C   0  0  0  0  0  3  0  0  0  0  0  0
  190.4230  172.6720  140.5170 C   0  0  0  0  0  0  0  0  0  0  0  0
  188.2360  173.3290  141.3400 C   0  0  0  0  0  3  0  0  0  0  0  0
  192.7780  168.8800  138.9980 N   0  0  0  0  0  2  0  0  0  0  0  0
  194.0100  168.1920  138.6370 C   0  0  0  0  0  1  0  0  0  0  0  0
  192.0560  176.0640  142.2490 O   0  0  0  0  0  0  0  0  0  0  0  0
  189.2720  175.9130  144.7380 C   0  0  2  0  0  3  0  0  0  0  0  0
  191.4780  176.7390  145.9680 C   0  0  1  0  0  3  0  0  0  0  0  0
  190.9600  175.4410  146.5840 C   0  0  2  0  0  3  0  0  0  0  0  0
  192.2330  176.4110  144.6700 C   0  0  0  0  0  2  0  0  0  0  0  0
  189.9700  176.4350  146.0160 C   0  0  2  0  0  3  0  0  0  0  0  0
  190.2310  175.3450  143.6880 C   0  0  0  0  0  2  0  0  0  0  0  0
  191.3330  176.3510  143.4480 C   0  0  2  0  0  3  0  0  0  0  0  0
  190.9560  175.5490  148.0350 N   0  0  0  0  0  2  0  0  0  0  0  0
  191.3800  176.9010  148.3570 C   0  0  0  0  0  1  0  0  0  0  0  0
  188.3540  176.9990  144.1280 C   0  0  2  0  0  3  0  0  0  0  0  0
  185.4830  179.2580  145.4870 C   0  0  0  0  0  2  0  0  0  0  0  0
  186.4450  178.6740  144.4570 C   0  0  0  0  0  2  0  0  0  0  0  0
  186.4620  176.4980  145.7400 C   0  0  0  0  0  2  0  0  0  0  0  0
  184.6140  178.1560  146.0810 C   0  0  0  0  0  2  0  0  0  0  0  0
  185.4920  177.1030  146.7520 C   0  0  0  0  0  2  0  0  0  0  0  0
  187.3160  177.5890  145.1000 C   0  0  0  0  0  3  0  0  0  0  0  0
  187.6360  176.4830  142.8800 C   0  0  0  0  0  2  0  0  0  0  0  0
  188.0450  177.2740  141.6440 C   0  0  0  0  0  2  0  0  0  0  0  0
  186.9870  177.2080  140.5920 C   0  0  0  0  0  3  0  0  0  0  0  0
  186.1220  178.0660  140.5330 O   0  0  0  0  0  0  0  0  0  0  0  0
  1  3  2  0  0  0  0
  1  2  1  0  0  0  0
  2  4  2  0  0  0  0
  3  6  1  0  0  0  0
  4  5  1  0  0  0  0
  4  7  1  0  0  0  0
  6 32  1  0  0  0  0
  6  5  2  0  0  0  0
  7 10  1  6  0  0  0
  7  8  1  0  0  0  0
  8  9  1  0  0  0  0
 11 10  1  0  0  0  0
 12 11  1  0  0  0  0
 13 17  1  1  0  0  0
 13 18  1  0  0  0  0
 13 15  1  0  0  0  0
 15 30  1  0  0  0  0
 15 12  1  1  0  0  0
 16 14  1  1  0  0  0
 16 13  1  0  0  0  0
 16 15  1  0  0  0  0
 18 23  1  0  0  0  0
 20 19  2  0  0  0  0
 20 18  1  0  0  0  0
 21 20  1  0  0  0  0
 22 21  1  0  0  0  0
 23 28  1  0  0  0  0
 24 25  1  0  0  0  0
 26 28  2  0  0  0  0
 26 29  1  0  0  0  0
 27 25  2  0  0  0  0
 28 27  1  0  0  0  0
 29 24  2  0  0  0  0
 31 30  1  0  0  0  0
 32 39  1  0  0  0  0
 33 42  1  6  0  0  0
 33 37  1  0  0  0  0
 34 36  1  6  0  0  0
 34 37  1  0  0  0  0
 34 35  1  0  0  0  0
 35 40  1  1  0  0  0
 37 35  1  0  0  0  0
 38 33  1  0  0  0  0
 39 38  1  0  0  0  0
 39 36  1  0  0  0  0
 40 41  1  0  0  0  0
 42 48  1  0  0  0  0
 43 46  1  0  0  0  0
 44 48  1  0  0  0  0
 44 43  1  0  0  0  0
 45 47  1  0  0  0  0
 46 47  1  0  0  0  0
 48 45  1  0  0  0  0
 49 42  1  0  0  0  0
 50 49  1  0  0  0  0
 51 50  1  0  0  0  0
 52 51  2  0  0  0  0
M  END
>  <MODEL>
5

>  <REMARK>
 VINA RESULT:      -6.4      3.006      6.091
  Name = 
  19 active torsions:
  status: ('A' for Active; 'I' for Inactive)
    1  A    between atoms: C_1  and  O_22
    2  A    between atoms: C_1  and  C_38
    3  A    between atoms: C_1  and  N_47
    4  A    between atoms: C_2  and  C_39
    5  A    between atoms: N_3  and  C_17
    6  A    between atoms: C_4  and  N_5
    7  A    between atoms: N_5  and  O_42
    8  A    between atoms: C_7  and  N_13
    9  A    between atoms: O_9  and  C_48
   10  A    between atoms: O_9  and  C_49
   11  A    between atoms: C_15  and  C_39
   12  A    between atoms: C_15  and  C_51
   13  A    between atoms: C_17  and  C_32
   14  A    between atoms: C_21  and  O_24
   15  A    between atoms: C_32  and  C_43
   16  A    between atoms: C_39  and  C_52
   17  A    between atoms: C_40  and  C_51
   18  A    between atoms: O_42  and  C_44
   19  A    between atoms: C_43  and  N_47
                            x       y       z     vdW  Elec       q    Type
                         _______ _______ _______ _____ _____    ______ ____

>  <TORSDO>
F 19

$$$$
=
 OpenBabel11062421373D

 52 57  0  0  1  0  0  0  0  0999 V2000
  194.3810  176.6600  146.6660 C   0  0  0  0  0  3  0  0  0  0  0  0
  195.1230  175.7480  145.9830 N   0  0  0  0  0  0  0  0  0  0  0  0
  193.0140  176.4490  146.8560 C   0  0  0  0  0  3  0  0  0  0  0  0
  194.5690  174.6220  145.4530 C   0  0  0  0  0  0  0  0  0  0  0  0
  193.1990  174.3790  145.6240 C   0  0  0  0  0  3  0  0  0  0  0  0
  192.4150  175.2970  146.3380 C   0  0  0  0  0  0  0  0  0  0  0  0
  195.4580  173.6340  144.7590 C   0  0  1  0  0  3  0  0  0  0  0  0
  196.4620  174.2560  143.9920 O   0  0  0  0  0  0  0  0  0  0  0  0
  195.9110  174.6060  142.8420 O   0  0  0  0  0  1  0  0  0  0  0  0
  196.0050  172.6270  145.6630 N   0  0  0  0  0  2  0  0  0  0  0  0
  196.2380  171.4200  144.8810 C   0  0  0  0  0  2  0  0  0  0  0  0
  195.0980  171.1770  143.8930 C   0  0  0  0  0  2  0  0  0  0  0  0
  194.1090  169.3140  142.3130 C   0  0  1  0  0  0  0  0  0  0  0  0
  196.3170  170.0990  141.6540 O   0  0  0  0  0  1  0  0  0  0  0  0
  194.8970  169.6860  143.5650 C   0  0  1  0  0  0  0  0  0  0  0  0
  195.6270  169.0980  142.3460 C   0  0  1  0  0  3  0  0  0  0  0  0
  193.3220  168.1660  142.4180 O   0  0  0  0  0  1  0  0  0  0  0  0
  193.5790  170.3940  141.4720 N   0  0  0  0  0  0  0  0  0  0  0  0
  193.7440  171.3730  139.3600 O   0  0  0  0  0  0  0  0  0  0  0  0
  193.6120  170.3150  140.0320 C   0  0  0  0  0  0  0  0  0  0  0  0
  193.5010  169.1010  139.3510 O   0  0  0  0  0  0  0  0  0  0  0  0
  193.8010  168.9810  138.0520 O   0  0  0  0  0  1  0  0  0  0  0  0
  193.0860  171.5210  142.1080 O   0  0  0  0  0  0  0  0  0  0  0  0
  189.0770  171.9950  143.2850 C   0  0  0  0  0  3  0  0  0  0  0  0
  190.0740  171.9150  144.2600 C   0  0  0  0  0  3  0  0  0  0  0  0
  190.7520  171.7450  141.5520 C   0  0  0  0  0  3  0  0  0  0  0  0
  191.4100  171.7510  143.8820 C   0  0  0  0  0  3  0  0  0  0  0  0
  191.7560  171.6570  142.5230 C   0  0  0  0  0  0  0  0  0  0  0  0
  189.4160  171.9130  141.9330 C   0  0  0  0  0  3  0  0  0  0  0  0
  194.7770  168.7390  144.6750 N   0  0  0  0  0  2  0  0  0  0  0  0
  194.1860  169.4210  145.8180 C   0  0  0  0  0  1  0  0  0  0  0  0
  191.0470  175.0960  146.5760 O   0  0  0  0  0  0  0  0  0  0  0  0
  188.0710  175.9020  144.4610 C   0  0  2  0  0  3  0  0  0  0  0  0
  188.1260  177.5640  146.5350 C   0  0  1  0  0  3  0  0  0  0  0  0
  186.8410  176.7380  146.5270 C   0  0  2  0  0  3  0  0  0  0  0  0
  189.2700  176.7050  147.0960 C   0  0  0  0  0  2  0  0  0  0  0  0
  187.4800  177.1210  145.2100 C   0  0  2  0  0  3  0  0  0  0  0  0
  188.9600  175.0060  145.3280 C   0  0  0  0  0  2  0  0  0  0  0  0
  189.9740  175.8730  146.0380 C   0  0  2  0  0  3  0  0  0  0  0  0
  185.6950  177.6030  146.7630 N   0  0  0  0  0  2  0  0  0  0  0  0
  186.1460  178.6650  147.6480 C   0  0  0  0  0  1  0  0  0  0  0  0
  188.8110  176.3500  143.1780 C   0  0  2  0  0  3  0  0  0  0  0  0
  192.3830  175.0940  142.2560 C   0  0  0  0  0  2  0  0  0  0  0  0
  190.8740  175.2630  142.1190 C   0  0  0  0  0  2  0  0  0  0  0  0
  191.0510  177.5360  143.2070 C   0  0  0  0  0  2  0  0  0  0  0  0
  193.0730  176.4520  142.1980 C   0  0  0  0  0  2  0  0  0  0  0  0
  192.5620  177.3480  143.3240 C   0  0  0  0  0  2  0  0  0  0  0  0
  190.3400  176.1850  143.2210 C   0  0  0  0  0  3  0  0  0  0  0  0
  188.4720  177.7970  142.8170 C   0  0  0  0  0  2  0  0  0  0  0  0
  187.7520  177.8750  141.4770 C   0  0  0  0  0  2  0  0  0  0  0  0
  186.3200  178.2620  141.6610 C   0  0  0  0  0  3  0  0  0  0  0  0
  185.5530  177.5190  142.2490 O   0  0  0  0  0  0  0  0  0  0  0  0
  1  3  1  0  0  0  0
  2  1  2  0  0  0  0
  4  5  2  0  0  0  0
  4  2  1  0  0  0  0
  5  6  1  0  0  0  0
  6 32  1  0  0  0  0
  6  3  2  0  0  0  0
  7  8  1  1  0  0  0
  7  4  1  0  0  0  0
  7 10  1  0  0  0  0
  9  8  1  0  0  0  0
 11 10  1  0  0  0  0
 12 11  1  0  0  0  0
 13 16  1  0  0  0  0
 13 17  1  1  0  0  0
 13 15  1  0  0  0  0
 15 12  1  1  0  0  0
 15 30  1  0  0  0  0
 16 14  1  6  0  0  0
 16 15  1  0  0  0  0
 18 23  1  0  0  0  0
 18 13  1  0  0  0  0
 19 20  2  0  0  0  0
 20 18  1  0  0  0  0
 21 20  1  0  0  0  0
 22 21  1  0  0  0  0
 23 28  1  0  0  0  0
 24 25  1  0  0  0  0
 26 29  1  0  0  0  0
 26 28  2  0  0  0  0
 27 25  2  0  0  0  0
 28 27  1  0  0  0  0
 29 24  2  0  0  0  0
 30 31  1  0  0  0  0
 33 42  1  6  0  0  0
 33 37  1  0  0  0  0
 33 38  1  0  0  0  0
 34 36  1  1  0  0  0
 35 34  1  0  0  0  0
 35 40  1  6  0  0  0
 37 35  1  0  0  0  0
 37 34  1  0  0  0  0
 38 39  1  0  0  0  0
 39 32  1  0  0  0  0
 39 36  1  0  0  0  0
 40 41  1  0  0  0  0
 42 48  1  0  0  0  0
 44 43  1  0  0  0  0
 44 48  1  0  0  0  0
 45 48  1  0  0  0  0
 45 47  1  0  0  0  0
 46 43  1  0  0  0  0
 46 47  1  0  0  0  0
 49 42  1  0  0  0  0
 50 51  1  0  0  0  0
 50 49  1  0  0  0  0
 51 52  2  0  0  0  0
M  END
>  <MODEL>
6

>  <REMARK>
 VINA RESULT:      -6.3      2.115      5.195
  Name = 
  19 active torsions:
  status: ('A' for Active; 'I' for Inactive)
    1  A    between atoms: C_1  and  O_22
    2  A    between atoms: C_1  and  C_38
    3  A    between atoms: C_1  and  N_47
    4  A    between atoms: C_2  and  C_39
    5  A    between atoms: N_3  and  C_17
    6  A    between atoms: C_4  and  N_5
    7  A    between atoms: N_5  and  O_42
    8  A    between atoms: C_7  and  N_13
    9  A    between atoms: O_9  and  C_48
   10  A    between atoms: O_9  and  C_49
   11  A    between atoms: C_15  and  C_39
   12  A    between atoms: C_15  and  C_51
   13  A    between atoms: C_17  and  C_32
   14  A    between atoms: C_21  and  O_24
   15  A    between atoms: C_32  and  C_43
   16  A    between atoms: C_39  and  C_52
   17  A    between atoms: C_40  and  C_51
   18  A    between atoms: O_42  and  C_44
   19  A    between atoms: C_43  and  N_47
                            x       y       z     vdW  Elec       q    Type
                         _______ _______ _______ _____ _____    ______ ____

>  <TORSDO>
F 19

$$$$
=
 OpenBabel11062421373D

 52 57  0  0  1  0  0  0  0  0999 V2000
  194.1340  175.9430  145.8110 C   0  0  0  0  0  3  0  0  0  0  0  0
  194.1460  174.5940  145.6430 N   0  0  0  0  0  0  0  0  0  0  0  0
  193.2910  176.7380  145.0310 C   0  0  0  0  0  3  0  0  0  0  0  0
  193.3640  173.9780  144.7140 C   0  0  0  0  0  0  0  0  0  0  0  0
  192.5060  174.7450  143.9130 C   0  0  0  0  0  3  0  0  0  0  0  0
  192.4640  176.1380  144.0770 C   0  0  0  0  0  0  0  0  0  0  0  0
  193.3890  172.4810  144.6220 C   0  0  1  0  0  3  0  0  0  0  0  0
  193.9640  171.8790  145.7570 O   0  0  0  0  0  0  0  0  0  0  0  0
  195.1060  171.3350  145.3720 O   0  0  0  0  0  1  0  0  0  0  0  0
  192.0860  171.9080  144.2990 N   0  0  0  0  0  2  0  0  0  0  0  0
  192.2950  170.9100  143.2590 C   0  0  0  0  0  2  0  0  0  0  0  0
  192.4680  171.5690  141.8910 C   0  0  0  0  0  2  0  0  0  0  0  0
  194.0110  171.5730  139.7540 C   0  0  1  0  0  0  0  0  0  0  0  0
  195.0040  172.6610  141.6920 O   0  0  0  0  0  1  0  0  0  0  0  0
  193.5270  170.8700  141.0190 C   0  0  1  0  0  0  0  0  0  0  0  0
  194.9440  171.4670  140.9660 C   0  0  1  0  0  3  0  0  0  0  0  0
  194.3040  170.7360  138.6770 O   0  0  0  0  0  1  0  0  0  0  0  0
  193.4470  172.8880  139.4250 N   0  0  0  0  0  0  0  0  0  0  0  0
  193.9250  175.1710  139.3830 O   0  0  0  0  0  0  0  0  0  0  0  0
  194.2900  174.0050  139.0760 C   0  0  0  0  0  0  0  0  0  0  0  0
  195.5030  173.8400  138.4050 O   0  0  0  0  0  0  0  0  0  0  0  0
  196.6820  173.8860  139.0380 O   0  0  0  0  0  1  0  0  0  0  0  0
  192.0720  173.0360  139.5060 O   0  0  0  0  0  0  0  0  0  0  0  0
  189.4070  172.2840  136.3400 C   0  0  0  0  0  3  0  0  0  0  0  0
  189.6950  171.2660  137.2530 C   0  0  0  0  0  3  0  0  0  0  0  0
  190.9000  173.7740  137.5330 C   0  0  0  0  0  3  0  0  0  0  0  0
  190.5840  171.5020  138.3060 C   0  0  0  0  0  3  0  0  0  0  0  0
  191.1990  172.7570  138.4470 C   0  0  0  0  0  0  0  0  0  0  0  0
  190.0080  173.5380  136.4820 C   0  0  0  0  0  3  0  0  0  0  0  0
  193.5170  169.4080  140.9480 N   0  0  0  0  0  2  0  0  0  0  0  0
  192.2220  168.9680  140.4480 C   0  0  0  0  0  1  0  0  0  0  0  0
  191.6040  176.9590  143.3330 O   0  0  0  0  0  0  0  0  0  0  0  0
  188.1030  178.0550  144.0510 C   0  0  2  0  0  3  0  0  0  0  0  0
  188.0660  176.3460  142.0170 C   0  0  1  0  0  3  0  0  0  0  0  0
  187.5000  177.7030  141.6030 C   0  0  2  0  0  3  0  0  0  0  0  0
  189.6010  176.4240  142.0220 C   0  0  0  0  0  2  0  0  0  0  0  0
  187.3000  177.2220  143.0240 C   0  0  2  0  0  3  0  0  0  0  0  0
  189.5760  178.2560  143.6810 C   0  0  0  0  0  2  0  0  0  0  0  0
  190.1750  176.9110  143.3420 C   0  0  2  0  0  3  0  0  0  0  0  0
  186.2600  177.5170  140.8650 N   0  0  0  0  0  2  0  0  0  0  0  0
  186.6300  177.1630  139.5040 C   0  0  0  0  0  1  0  0  0  0  0  0
  187.9600  177.4640  145.4740 C   0  0  2  0  0  3  0  0  0  0  0  0
  191.0740  176.7790  147.7150 C   0  0  0  0  0  2  0  0  0  0  0  0
  189.7910  177.4700  147.2630 C   0  0  0  0  0  2  0  0  0  0  0  0
  188.9910  175.2890  146.2710 C   0  0  0  0  0  2  0  0  0  0  0  0
  190.8060  175.3050  147.9990 C   0  0  0  0  0  2  0  0  0  0  0  0
  190.2790  174.6180  146.7410 C   0  0  0  0  0  2  0  0  0  0  0  0
  189.2240  176.7770  146.0200 C   0  0  0  0  0  3  0  0  0  0  0  0
  186.7840  176.4880  145.5540 C   0  0  0  0  0  2  0  0  0  0  0  0
  185.5960  177.1170  146.2700 C   0  0  0  0  0  2  0  0  0  0  0  0
  185.9600  177.5180  147.6620 C   0  0  0  0  0  3  0  0  0  0  0  0
  186.1200  178.6940  147.9420 O   0  0  0  0  0  0  0  0  0  0  0  0
  2  1  1  0  0  0  0
  3  1  2  0  0  0  0
  4  2  2  0  0  0  0
  5  6  2  0  0  0  0
  5  4  1  0  0  0  0
  6  3  1  0  0  0  0
  7 10  1  1  0  0  0
  7  4  1  0  0  0  0
  7  8  1  0  0  0  0
  9  8  1  0  0  0  0
 11 10  1  0  0  0  0
 12 11  1  0  0  0  0
 13 17  1  6  0  0  0
 13 16  1  0  0  0  0
 13 15  1  0  0  0  0
 15 12  1  1  0  0  0
 16 15  1  0  0  0  0
 16 14  1  1  0  0  0
 18 23  1  0  0  0  0
 18 13  1  0  0  0  0
 20 19  2  0  0  0  0
 20 18  1  0  0  0  0
 21 22  1  0  0  0  0
 21 20  1  0  0  0  0
 24 29  2  0  0  0  0
 24 25  1  0  0  0  0
 25 27  2  0  0  0  0
 26 28  2  0  0  0  0
 27 28  1  0  0  0  0
 28 23  1  0  0  0  0
 29 26  1  0  0  0  0
 30 15  1  0  0  0  0
 31 30  1  0  0  0  0
 32 39  1  0  0  0  0
 32  6  1  0  0  0  0
 33 42  1  1  0  0  0
 34 36  1  1  0  0  0
 34 37  1  0  0  0  0
 35 40  1  6  0  0  0
 35 34  1  0  0  0  0
 35 37  1  0  0  0  0
 36 39  1  0  0  0  0
 37 33  1  0  0  0  0
 38 33  1  0  0  0  0
 39 38  1  0  0  0  0
 41 40  1  0  0  0  0
 42 49  1  0  0  0  0
 42 48  1  0  0  0  0
 43 46  1  0  0  0  0
 44 43  1  0  0  0  0
 45 47  1  0  0  0  0
 47 46  1  0  0  0  0
 48 45  1  0  0  0  0
 48 44  1  0  0  0  0
 49 50  1  0  0  0  0
 50 51  1  0  0  0  0
 51 52  2  0  0  0  0
M  END
>  <MODEL>
7

>  <REMARK>
 VINA RESULT:      -6.2      2.065      4.715
  Name = 
  19 active torsions:
  status: ('A' for Active; 'I' for Inactive)
    1  A    between atoms: C_1  and  O_22
    2  A    between atoms: C_1  and  C_38
    3  A    between atoms: C_1  and  N_47
    4  A    between atoms: C_2  and  C_39
    5  A    between atoms: N_3  and  C_17
    6  A    between atoms: C_4  and  N_5
    7  A    between atoms: N_5  and  O_42
    8  A    between atoms: C_7  and  N_13
    9  A    between atoms: O_9  and  C_48
   10  A    between atoms: O_9  and  C_49
   11  A    between atoms: C_15  and  C_39
   12  A    between atoms: C_15  and  C_51
   13  A    between atoms: C_17  and  C_32
   14  A    between atoms: C_21  and  O_24
   15  A    between atoms: C_32  and  C_43
   16  A    between atoms: C_39  and  C_52
   17  A    between atoms: C_40  and  C_51
   18  A    between atoms: O_42  and  C_44
   19  A    between atoms: C_43  and  N_47
                            x       y       z     vdW  Elec       q    Type
                         _______ _______ _______ _____ _____    ______ ____

>  <TORSDO>
F 19

$$$$
=
 OpenBabel11062421373D

 52 57  0  0  1  0  0  0  0  0999 V2000
  188.6750  172.7190  140.2090 C   0  0  0  0  0  3  0  0  0  0  0  0
  189.7390  172.1310  139.5990 N   0  0  0  0  0  0  0  0  0  0  0  0
  188.6730  172.8990  141.5940 C   0  0  0  0  0  3  0  0  0  0  0  0
  190.8160  171.6870  140.3050 C   0  0  0  0  0  0  0  0  0  0  0  0
  190.8480  171.8510  141.6970 C   0  0  0  0  0  3  0  0  0  0  0  0
  189.7690  172.4680  142.3470 C   0  0  0  0  0  0  0  0  0  0  0  0
  191.9770  171.0980  139.5600 C   0  0  1  0  0  3  0  0  0  0  0  0
  191.6050  170.0010  138.7590 O   0  0  0  0  0  0  0  0  0  0  0  0
  191.1240  169.0730  139.5690 O   0  0  0  0  0  1  0  0  0  0  0  0
  192.7360  172.0930  138.8080 N   0  0  0  0  0  2  0  0  0  0  0  0
  194.1450  171.8860  139.1120 C   0  0  0  0  0  2  0  0  0  0  0  0
  194.7040  173.0410  139.9420 C   0  0  0  0  0  2  0  0  0  0  0  0
  196.7940  174.6400  140.0810 C   0  0  1  0  0  0  0  0  0  0  0  0
  197.3190  172.2930  140.4560 O   0  0  0  0  0  1  0  0  0  0  0  0
  195.8560  173.7820  139.2380 C   0  0  1  0  0  0  0  0  0  0  0  0
  197.2970  173.3130  139.5000 C   0  0  1  0  0  3  0  0  0  0  0  0
  197.2640  175.8000  139.4630 O   0  0  0  0  0  1  0  0  0  0  0  0
  196.5600  174.7200  141.5280 N   0  0  0  0  0  0  0  0  0  0  0  0
  195.9390  176.1720  143.2450 O   0  0  0  0  0  0  0  0  0  0  0  0
  195.6870  175.7170  142.0970 C   0  0  0  0  0  0  0  0  0  0  0  0
  194.5650  176.1970  141.4200 O   0  0  0  0  0  0  0  0  0  0  0  0
  193.3320  175.7350  141.6630 O   0  0  0  0  0  1  0  0  0  0  0  0
  197.2450  173.8310  142.3400 O   0  0  0  0  0  0  0  0  0  0  0  0
  195.5280  172.1580  145.7950 C   0  0  0  0  0  3  0  0  0  0  0  0
  196.7350  172.8530  145.8960 C   0  0  0  0  0  3  0  0  0  0  0  0
  195.4900  172.5720  143.4080 C   0  0  0  0  0  3  0  0  0  0  0  0
  197.3190  173.4090  144.7530 C   0  0  0  0  0  3  0  0  0  0  0  0
  196.7030  173.2640  143.5000 C   0  0  0  0  0  0  0  0  0  0  0  0
  194.9050  172.0200  144.5520 C   0  0  0  0  0  3  0  0  0  0  0  0
  195.6460  174.2570  137.8700 N   0  0  0  0  0  2  0  0  0  0  0  0
  194.4720  175.1180  137.8430 C   0  0  0  0  0  1  0  0  0  0  0  0
  189.7520  172.6940  143.7320 O   0  0  0  0  0  0  0  0  0  0  0  0
  189.5580  175.3530  146.3520 C   0  0  2  0  0  3  0  0  0  0  0  0
  191.8340  175.6370  145.0090 C   0  0  1  0  0  3  0  0  0  0  0  0
  192.1000  175.3880  146.4930 C   0  0  2  0  0  3  0  0  0  0  0  0
  191.5090  174.2990  144.3270 C   0  0  0  0  0  2  0  0  0  0  0  0
  190.8570  176.1490  146.0830 C   0  0  2  0  0  3  0  0  0  0  0  0
  189.5860  173.9130  145.8300 C   0  0  0  0  0  2  0  0  0  0  0  0
  190.0360  173.9320  144.3880 C   0  0  2  0  0  3  0  0  0  0  0  0
  193.0900  176.3330  146.9830 N   0  0  0  0  0  2  0  0  0  0  0  0
  194.3720  175.9230  146.4330 C   0  0  0  0  0  1  0  0  0  0  0  0
  188.3230  176.1170  145.8190 C   0  0  2  0  0  3  0  0  0  0  0  0
  187.0520  176.4300  142.1480 C   0  0  0  0  0  2  0  0  0  0  0  0
  186.9590  176.2070  143.6540 C   0  0  0  0  0  2  0  0  0  0  0  0
  188.9210  177.7630  143.9850 C   0  0  0  0  0  2  0  0  0  0  0  0
  187.6020  177.8220  141.8550 C   0  0  0  0  0  2  0  0  0  0  0  0
  188.9880  177.9780  142.4750 C   0  0  0  0  0  2  0  0  0  0  0  0
  188.3340  176.3900  144.3040 C   0  0  0  0  0  3  0  0  0  0  0  0
  188.1210  177.4380  146.5650 C   0  0  0  0  0  2  0  0  0  0  0  0
  186.7280  177.5170  147.1760 C   0  0  0  0  0  2  0  0  0  0  0  0
  185.9540  178.6560  146.5970 C   0  0  0  0  0  3  0  0  0  0  0  0
  185.2970  178.5010  145.5810 O   0  0  0  0  0  0  0  0  0  0  0  0
  1  3  1  0  0  0  0
  2  1  2  0  0  0  0
  2  4  1  0  0  0  0
  3  6  2  0  0  0  0
  4  5  2  0  0  0  0
  5  6  1  0  0  0  0
  6 32  1  0  0  0  0
  7  8  1  6  0  0  0
  7  4  1  0  0  0  0
  8  9  1  0  0  0  0
 10 11  1  0  0  0  0
 10  7  1  0  0  0  0
 11 12  1  0  0  0  0
 13 17  1  6  0  0  0
 13 18  1  0  0  0  0
 15 16  1  0  0  0  0
 15 12  1  1  0  0  0
 15 13  1  0  0  0  0
 16 13  1  0  0  0  0
 16 14  1  1  0  0  0
 18 20  1  0  0  0  0
 18 23  1  0  0  0  0
 20 19  2  0  0  0  0
 21 22  1  0  0  0  0
 21 20  1  0  0  0  0
 23 28  1  0  0  0  0
 24 25  1  0  0  0  0
 26 28  2  0  0  0  0
 26 29  1  0  0  0  0
 27 25  2  0  0  0  0
 28 27  1  0  0  0  0
 29 24  2  0  0  0  0
 30 15  1  0  0  0  0
 31 30  1  0  0  0  0
 32 39  1  0  0  0  0
 33 42  1  6  0  0  0
 34 36  1  6  0  0  0
 34 37  1  0  0  0  0
 34 35  1  0  0  0  0
 35 40  1  1  0  0  0
 36 39  1  0  0  0  0
 37 33  1  0  0  0  0
 37 35  1  0  0  0  0
 38 33  1  0  0  0  0
 39 38  1  0  0  0  0
 41 40  1  0  0  0  0
 42 49  1  0  0  0  0
 43 44  1  0  0  0  0
 44 48  1  0  0  0  0
 45 48  1  0  0  0  0
 46 43  1  0  0  0  0
 46 47  1  0  0  0  0
 47 45  1  0  0  0  0
 48 42  1  0  0  0  0
 49 50  1  0  0  0  0
 51 50  1  0  0  0  0
 52 51  2  0  0  0  0
M  END
>  <MODEL>
8

>  <REMARK>
 VINA RESULT:      -6.2      2.433      4.743
  Name = 
  19 active torsions:
  status: ('A' for Active; 'I' for Inactive)
    1  A    between atoms: C_1  and  O_22
    2  A    between atoms: C_1  and  C_38
    3  A    between atoms: C_1  and  N_47
    4  A    between atoms: C_2  and  C_39
    5  A    between atoms: N_3  and  C_17
    6  A    between atoms: C_4  and  N_5
    7  A    between atoms: N_5  and  O_42
    8  A    between atoms: C_7  and  N_13
    9  A    between atoms: O_9  and  C_48
   10  A    between atoms: O_9  and  C_49
   11  A    between atoms: C_15  and  C_39
   12  A    between atoms: C_15  and  C_51
   13  A    between atoms: C_17  and  C_32
   14  A    between atoms: C_21  and  O_24
   15  A    between atoms: C_32  and  C_43
   16  A    between atoms: C_39  and  C_52
   17  A    between atoms: C_40  and  C_51
   18  A    between atoms: O_42  and  C_44
   19  A    between atoms: C_43  and  N_47
                            x       y       z     vdW  Elec       q    Type
                         _______ _______ _______ _____ _____    ______ ____

>  <TORSDO>
F 19

$$$$
=
 OpenBabel11062421373D

 52 57  0  0  1  0  0  0  0  0999 V2000
  188.2690  174.2010  138.0180 C   0  0  0  0  0  3  0  0  0  0  0  0
  189.3300  173.6100  137.4050 N   0  0  0  0  0  0  0  0  0  0  0  0
  188.1940  174.2300  139.4120 C   0  0  0  0  0  3  0  0  0  0  0  0
  190.3310  173.0190  138.1140 C   0  0  0  0  0  0  0  0  0  0  0  0
  190.2870  173.0280  139.5150 C   0  0  0  0  0  3  0  0  0  0  0  0
  189.2110  173.6450  140.1710 C   0  0  0  0  0  0  0  0  0  0  0  0
  191.4960  172.4340  137.3720 C   0  0  1  0  0  3  0  0  0  0  0  0
  191.8920  173.2240  136.2760 O   0  0  0  0  0  0  0  0  0  0  0  0
  191.4770  172.6060  135.1820 O   0  0  0  0  0  1  0  0  0  0  0  0
  192.6200  172.1070  138.2440 N   0  0  0  0  0  2  0  0  0  0  0  0
  193.8400  172.4910  137.5450 C   0  0  0  0  0  2  0  0  0  0  0  0
  194.9310  172.9060  138.5300 C   0  0  0  0  0  2  0  0  0  0  0  0
  194.9870  174.7340  140.4280 C   0  0  1  0  0  0  0  0  0  0  0  0
  197.1750  174.2020  139.5040 O   0  0  0  0  0  1  0  0  0  0  0  0
  194.8290  174.3830  138.9510 C   0  0  1  0  0  0  0  0  0  0  0  0
  196.1010  175.0960  139.4390 C   0  0  1  0  0  3  0  0  0  0  0  0
  194.1980  175.7930  140.8810 O   0  0  0  0  0  1  0  0  0  0  0  0
  195.2320  173.6470  141.3830 N   0  0  0  0  0  0  0  0  0  0  0  0
  196.9000  172.5900  142.6260 O   0  0  0  0  0  0  0  0  0  0  0  0
  196.3570  173.6750  142.2850 C   0  0  0  0  0  0  0  0  0  0  0  0
  196.8690  174.8670  142.7990 O   0  0  0  0  0  0  0  0  0  0  0  0
  197.5520  174.9140  143.9500 O   0  0  0  0  0  1  0  0  0  0  0  0
  194.3700  172.5630  141.3600 O   0  0  0  0  0  0  0  0  0  0  0  0
  191.3900  171.9380  144.2600 C   0  0  0  0  0  3  0  0  0  0  0  0
  191.2630  171.3380  143.0050 C   0  0  0  0  0  3  0  0  0  0  0  0
  193.4780  172.9520  143.5650 C   0  0  0  0  0  3  0  0  0  0  0  0
  192.2440  171.5430  142.0300 C   0  0  0  0  0  3  0  0  0  0  0  0
  193.3550  172.3590  142.3030 C   0  0  0  0  0  0  0  0  0  0  0  0
  192.4970  172.7420  144.5400 C   0  0  0  0  0  3  0  0  0  0  0  0
  193.9310  175.2610  138.2000 N   0  0  0  0  0  2  0  0  0  0  0  0
  194.5280  175.5520  136.9040 C   0  0  0  0  0  1  0  0  0  0  0  0
  189.1240  173.7210  141.5690 O   0  0  0  0  0  0  0  0  0  0  0  0
  188.8620  176.0510  144.4800 C   0  0  2  0  0  3  0  0  0  0  0  0
  191.1500  176.5180  143.2100 C   0  0  1  0  0  3  0  0  0  0  0  0
  191.4010  176.1000  144.6580 C   0  0  2  0  0  3  0  0  0  0  0  0
  190.8520  175.2650  142.3720 C   0  0  0  0  0  2  0  0  0  0  0  0
  190.1540  176.8890  144.3240 C   0  0  2  0  0  3  0  0  0  0  0  0
  188.9160  174.6830  143.7930 C   0  0  0  0  0  2  0  0  0  0  0  0
  189.3830  174.8770  142.3690 C   0  0  2  0  0  3  0  0  0  0  0  0
  192.3730  176.9930  145.2690 N   0  0  0  0  0  2  0  0  0  0  0  0
  192.7480  176.3980  146.5410 C   0  0  0  0  0  1  0  0  0  0  0  0
  187.6230  176.8580  144.0230 C   0  0  2  0  0  3  0  0  0  0  0  0
  186.0920  177.1510  147.5950 C   0  0  0  0  0  2  0  0  0  0  0  0
  187.1410  176.8230  146.5380 C   0  0  0  0  0  2  0  0  0  0  0  0
  186.2450  178.6950  145.0980 C   0  0  0  0  0  2  0  0  0  0  0  0
  185.7490  178.6360  147.5540 C   0  0  0  0  0  2  0  0  0  0  0  0
  185.2100  179.0100  146.1760 C   0  0  0  0  0  2  0  0  0  0  0  0
  186.6350  177.2200  145.1470 C   0  0  0  0  0  3  0  0  0  0  0  0
  186.8690  176.1340  142.9070 C   0  0  0  0  0  2  0  0  0  0  0  0
  186.1720  177.1240  141.9820 C   0  0  0  0  0  2  0  0  0  0  0  0
  187.0580  177.5070  140.8420 C   0  0  0  0  0  3  0  0  0  0  0  0
  186.6420  177.4610  139.6970 O   0  0  0  0  0  0  0  0  0  0  0  0
  1  3  1  0  0  0  0
  2  1  2  0  0  0  0
  2  4  1  0  0  0  0
  3  6  2  0  0  0  0
  4  5  2  0  0  0  0
  5  6  1  0  0  0  0
  6 32  1  0  0  0  0
  7  8  1  6  0  0  0
  7  4  1  0  0  0  0
  7 10  1  0  0  0  0
  9  8  1  0  0  0  0
 11 10  1  0  0  0  0
 11 12  1  0  0  0  0
 13 17  1  1  0  0  0
 13 18  1  0  0  0  0
 15 12  1  6  0  0  0
 15 16  1  0  0  0  0
 15 13  1  0  0  0  0
 16 14  1  1  0  0  0
 16 13  1  0  0  0  0
 18 20  1  0  0  0  0
 20 19  2  0  0  0  0
 20 21  1  0  0  0  0
 21 22  1  0  0  0  0
 23 18  1  0  0  0  0
 23 28  1  0  0  0  0
 24 29  1  0  0  0  0
 25 24  2  0  0  0  0
 26 29  2  0  0  0  0
 27 28  2  0  0  0  0
 27 25  1  0  0  0  0
 28 26  1  0  0  0  0
 30 15  1  0  0  0  0
 31 30  1  0  0  0  0
 32 39  1  0  0  0  0
 33 42  1  6  0  0  0
 34 36  1  6  0  0  0
 34 37  1  0  0  0  0
 34 35  1  0  0  0  0
 35 40  1  1  0  0  0
 37 33  1  0  0  0  0
 37 35  1  0  0  0  0
 38 33  1  0  0  0  0
 39 36  1  0  0  0  0
 39 38  1  0  0  0  0
 40 41  1  0  0  0  0
 42 48  1  0  0  0  0
 44 43  1  0  0  0  0
 45 48  1  0  0  0  0
 45 47  1  0  0  0  0
 46 43  1  0  0  0  0
 47 46  1  0  0  0  0
 48 44  1  0  0  0  0
 49 42  1  0  0  0  0
 50 49  1  0  0  0  0
 51 50  1  0  0  0  0
 52 51  2  0  0  0  0
M  END
>  <MODEL>
9

>  <REMARK>
 VINA RESULT:      -6.1      2.909      5.083
  Name = 
  19 active torsions:
  status: ('A' for Active; 'I' for Inactive)
    1  A    between atoms: C_1  and  O_22
    2  A    between atoms: C_1  and  C_38
    3  A    between atoms: C_1  and  N_47
    4  A    between atoms: C_2  and  C_39
    5  A    between atoms: N_3  and  C_17
    6  A    between atoms: C_4  and  N_5
    7  A    between atoms: N_5  and  O_42
    8  A    between atoms: C_7  and  N_13
    9  A    between atoms: O_9  and  C_48
   10  A    between atoms: O_9  and  C_49
   11  A    between atoms: C_15  and  C_39
   12  A    between atoms: C_15  and  C_51
   13  A    between atoms: C_17  and  C_32
   14  A    between atoms: C_21  and  O_24
   15  A    between atoms: C_32  and  C_43
   16  A    between atoms: C_39  and  C_52
   17  A    between atoms: C_40  and  C_51
   18  A    between atoms: O_42  and  C_44
   19  A    between atoms: C_43  and  N_47
                            x       y       z     vdW  Elec       q    Type
                         _______ _______ _______ _____ _____    ______ ____

>  <TORSDO>
F 19

$$$$
