=
 OpenBabel11072409383D

 25 26  0  0  1  0  0  0  0  0999 V2000
  187.2600  176.4130  146.9500 C   0  0  0  0  0  3  0  0  0  0  0  0
  189.2930  173.2730  142.6570 C   0  0  0  0  0  2  0  0  0  0  0  0
  187.3580  177.9240  144.8630 C   0  0  0  0  0  2  0  0  0  0  0  0
  186.1250  178.6170  146.9310 C   0  0  0  0  0  2  0  0  0  0  0  0
  190.2440  174.1070  145.3310 C   0  0  2  0  0  3  0  0  0  0  0  0
  190.3020  172.4640  143.4280 C   0  0  0  0  0  0  0  0  0  0  0  0
  189.4360  174.7600  142.9540 C   0  0  2  0  0  3  0  0  0  0  0  0
  187.7260  176.6540  145.5750 C   0  0  0  0  0  0  0  0  0  0  0  0
  186.0390  178.4740  145.4090 C   0  0  1  0  0  3  0  0  0  0  0  0
  186.4900  177.3070  147.5740 C   0  0  0  0  0  3  0  0  0  0  0  0
  190.7070  172.8440  144.6460 C   0  0  0  0  0  3  0  0  0  0  0  0
  189.3800  174.9710  144.4510 C   0  0  0  0  0  0  0  0  0  0  0  0
  188.5480  175.8140  145.0130 C   0  0  0  0  0  0  0  0  0  0  0  0
  192.8630  174.1250  145.9500 O   0  0  0  0  0  0  0  0  0  0  0  0
  191.6540  175.0190  145.9480 S   0  0  0  0  0  0  0  0  0  0  0  0
  191.9060  176.2060  145.0600 O   0  0  0  0  0  0  0  0  0  0  0  0
  190.9350  176.8080  147.8170 C   0  0  0  0  0  2  0  0  0  0  0  0
  191.3350  175.5620  147.5860 C   0  0  0  0  0  3  0  0  0  0  0  0
  188.4300  175.5180  142.1910 C   0  0  0  0  0  0  0  0  0  0  0  0
  187.6070  176.1410  141.5660 C   0  0  0  0  0  3  0  0  0  0  0  0
  190.4480  170.8090  141.6060 N   0  0  0  0  0  1  0  0  0  0  0  0
  190.7950  171.2360  142.8940 N   0  0  0  0  0  2  0  0  0  0  0  0
  185.7750  179.7170  144.8340 O   0  0  0  0  0  0  0  0  0  0  0  0
  185.4600  179.4360  143.5040 C   0  0  0  0  0  2  0  0  0  0  0  0
  184.1560  178.6680  143.4460 C   0  0  0  0  0  1  0  0  0  0  0  0
  1 10  2  0  0  0  0
  2  7  1  0  0  0  0
  2  6  1  0  0  0  0
  3  9  1  0  0  0  0
  3  8  1  0  0  0  0
  4 10  1  0  0  0  0
  5 15  1  6  0  0  0
  6 11  2  0  0  0  0
  7 19  1  6  0  0  0
  7 12  1  0  0  0  0
  8  1  1  0  0  0  0
  9 23  1  6  0  0  0
  9  4  1  0  0  0  0
 11  5  1  0  0  0  0
 12 13  2  0  0  0  0
 12  5  1  0  0  0  0
 13  8  2  0  0  0  0
 15 14  2  0  0  0  0
 15 18  1  0  0  0  0
 16 15  2  0  0  0  0
 18 17  2  0  0  0  0
 20 19  3  0  0  0  0
 21 22  1  0  0  0  0
 22  6  1  0  0  0  0
 24 23  1  0  0  0  0
 25 24  1  0  0  0  0
M  END
>  <MODEL>
1

>  <REMARK>
 VINA RESULT:      -6.5      0.000      0.000
  Name = 
  6 active torsions:
  status: ('A' for Active; 'I' for Inactive)
    1  A    between atoms: C_3  and  C_17
    2  A    between atoms: O_4  and  C_9
    3  A    between atoms: O_4  and  C_20
    4  A    between atoms: S_6  and  C_12
    5  A    between atoms: S_6  and  C_15
    6  A    between atoms: C_13  and  N_14
                            x       y       z     vdW  Elec       q    Type
                         _______ _______ _______ _____ _____    ______ ____

>  <TORSDO>
F 6

$$$$
=
 OpenBabel11072409383D

 25 26  0  0  1  0  0  0  0  0999 V2000
  186.8770  176.8240  147.1350 C   0  0  0  0  0  3  0  0  0  0  0  0
  189.4680  173.4630  143.3380 C   0  0  0  0  0  2  0  0  0  0  0  0
  186.7040  177.9760  144.8350 C   0  0  0  0  0  2  0  0  0  0  0  0
  185.3570  178.7530  146.7990 C   0  0  0  0  0  2  0  0  0  0  0  0
  190.2390  174.8710  145.8230 C   0  0  2  0  0  3  0  0  0  0  0  0
  190.6050  172.9840  144.2010 C   0  0  0  0  0  0  0  0  0  0  0  0
  189.3350  174.9800  143.3940 C   0  0  2  0  0  3  0  0  0  0  0  0
  187.2960  176.9240  145.7280 C   0  0  0  0  0  0  0  0  0  0  0  0
  185.3040  178.3570  145.3210 C   0  0  1  0  0  3  0  0  0  0  0  0
  185.9530  177.6510  147.6300 C   0  0  0  0  0  3  0  0  0  0  0  0
  190.9290  173.6210  145.3330 C   0  0  0  0  0  3  0  0  0  0  0  0
  189.2340  175.4120  144.8400 C   0  0  0  0  0  0  0  0  0  0  0  0
  188.2600  176.1690  145.2840 C   0  0  0  0  0  0  0  0  0  0  0  0
  191.6050  177.0780  145.1120 O   0  0  0  0  0  0  0  0  0  0  0  0
  191.4560  176.1100  146.2530 S   0  0  0  0  0  0  0  0  0  0  0  0
  191.0030  176.8460  147.4830 O   0  0  0  0  0  0  0  0  0  0  0  0
  194.1290  176.0370  146.4940 C   0  0  0  0  0  2  0  0  0  0  0  0
  193.0020  175.3380  146.5600 C   0  0  0  0  0  3  0  0  0  0  0  0
  188.2090  175.4110  142.5470 C   0  0  0  0  0  0  0  0  0  0  0  0
  187.2850  175.7630  141.8550 C   0  0  0  0  0  3  0  0  0  0  0  0
  192.6160  171.5620  144.3180 N   0  0  0  0  0  1  0  0  0  0  0  0
  191.3160  171.7970  143.8530 N   0  0  0  0  0  2  0  0  0  0  0  0
  184.8190  179.4240  144.5650 O   0  0  0  0  0  0  0  0  0  0  0  0
  185.0720  179.0670  143.2400 C   0  0  0  0  0  2  0  0  0  0  0  0
  183.8910  178.2960  142.6890 C   0  0  0  0  0  1  0  0  0  0  0  0
  1 10  2  0  0  0  0
  2  7  1  0  0  0  0
  2  6  1  0  0  0  0
  3  9  1  0  0  0  0
  3  8  1  0  0  0  0
  4 10  1  0  0  0  0
  5 15  1  6  0  0  0
  6 11  2  0  0  0  0
  7 19  1  6  0  0  0
  7 12  1  0  0  0  0
  8  1  1  0  0  0  0
  9 23  1  6  0  0  0
  9  4  1  0  0  0  0
 11  5  1  0  0  0  0
 12 13  2  0  0  0  0
 12  5  1  0  0  0  0
 13  8  2  0  0  0  0
 14 15  2  0  0  0  0
 15 18  1  0  0  0  0
 15 16  2  0  0  0  0
 17 18  2  0  0  0  0
 20 19  3  0  0  0  0
 22  6  1  0  0  0  0
 22 21  1  0  0  0  0
 24 23  1  0  0  0  0
 25 24  1  0  0  0  0
M  END
>  <MODEL>
2

>  <REMARK>
 VINA RESULT:      -6.4      1.297      1.546
  Name = 
  6 active torsions:
  status: ('A' for Active; 'I' for Inactive)
    1  A    between atoms: C_3  and  C_17
    2  A    between atoms: O_4  and  C_9
    3  A    between atoms: O_4  and  C_20
    4  A    between atoms: S_6  and  C_12
    5  A    between atoms: S_6  and  C_15
    6  A    between atoms: C_13  and  N_14
                            x       y       z     vdW  Elec       q    Type
                         _______ _______ _______ _____ _____    ______ ____

>  <TORSDO>
F 6

$$$$
=
 OpenBabel11072409383D

 25 26  0  0  1  0  0  0  0  0999 V2000
  187.9930  177.6470  141.9820 C   0  0  0  0  0  3  0  0  0  0  0  0
  189.4520  177.7460  147.4850 C   0  0  0  0  0  2  0  0  0  0  0  0
  185.8540  177.2250  143.3580 C   0  0  0  0  0  2  0  0  0  0  0  0
  185.7600  177.7480  140.9100 C   0  0  0  0  0  2  0  0  0  0  0  0
  190.2070  176.1630  145.1020 C   0  0  2  0  0  3  0  0  0  0  0  0
  190.7920  177.0680  147.3740 C   0  0  0  0  0  0  0  0  0  0  0  0
  188.3720  176.9530  146.7570 C   0  0  2  0  0  3  0  0  0  0  0  0
  187.3490  177.3240  143.2650 C   0  0  0  0  0  0  0  0  0  0  0  0
  185.1980  178.1010  142.2890 C   0  0  1  0  0  3  0  0  0  0  0  0
  187.2580  177.8760  140.8900 C   0  0  0  0  0  3  0  0  0  0  0  0
  191.1260  176.3730  146.2810 C   0  0  0  0  0  3  0  0  0  0  0  0
  188.8200  176.7030  145.3340 C   0  0  0  0  0  0  0  0  0  0  0  0
  188.0820  177.0170  144.2970 C   0  0  0  0  0  0  0  0  0  0  0  0
  191.5640  173.8940  144.6030 O   0  0  0  0  0  0  0  0  0  0  0  0
  190.1610  174.4290  144.6650 S   0  0  0  0  0  0  0  0  0  0  0  0
  189.3790  173.6750  145.7040 O   0  0  0  0  0  0  0  0  0  0  0  0
  190.0440  174.5830  141.9860 C   0  0  0  0  0  2  0  0  0  0  0  0
  189.3990  174.2360  143.0950 C   0  0  0  0  0  3  0  0  0  0  0  0
  187.0790  177.6490  146.8780 C   0  0  0  0  0  0  0  0  0  0  0  0
  186.0210  178.2200  146.9790 C   0  0  0  0  0  3  0  0  0  0  0  0
  191.4950  177.9960  149.5480 N   0  0  0  0  0  1  0  0  0  0  0  0
  191.7570  177.2160  148.4150 N   0  0  0  0  0  2  0  0  0  0  0  0
  183.8170  177.9010  142.3000 O   0  0  0  0  0  0  0  0  0  0  0  0
  183.4020  178.2050  141.0030 C   0  0  0  0  0  2  0  0  0  0  0  0
  181.8890  178.1790  140.9380 C   0  0  0  0  0  1  0  0  0  0  0  0
  1  8  1  0  0  0  0
  4  9  1  0  0  0  0
  5 15  1  1  0  0  0
  5 12  1  0  0  0  0
  5 11  1  0  0  0  0
  6  2  1  0  0  0  0
  6 22  1  0  0  0  0
  7 19  1  6  0  0  0
  7  2  1  0  0  0  0
  8  3  1  0  0  0  0
  8 13  2  0  0  0  0
  9 23  1  6  0  0  0
  9  3  1  0  0  0  0
 10  4  1  0  0  0  0
 10  1  2  0  0  0  0
 11  6  2  0  0  0  0
 12  7  1  0  0  0  0
 13 12  2  0  0  0  0
 14 15  2  0  0  0  0
 15 16  2  0  0  0  0
 17 18  2  0  0  0  0
 18 15  1  0  0  0  0
 19 20  3  0  0  0  0
 22 21  1  0  0  0  0
 24 23  1  0  0  0  0
 25 24  1  0  0  0  0
M  END
>  <MODEL>
3

>  <REMARK>
 VINA RESULT:      -6.3      3.152      5.015
  Name = 
  6 active torsions:
  status: ('A' for Active; 'I' for Inactive)
    1  A    between atoms: C_3  and  C_17
    2  A    between atoms: O_4  and  C_9
    3  A    between atoms: O_4  and  C_20
    4  A    between atoms: S_6  and  C_12
    5  A    between atoms: S_6  and  C_15
    6  A    between atoms: C_13  and  N_14
                            x       y       z     vdW  Elec       q    Type
                         _______ _______ _______ _____ _____    ______ ____

>  <TORSDO>
F 6

$$$$
=
 OpenBabel11072409383D

 25 26  0  0  1  0  0  0  0  0999 V2000
  187.2760  178.1220  143.0210 C   0  0  0  0  0  3  0  0  0  0  0  0
  191.5330  174.8830  144.9720 C   0  0  0  0  0  2  0  0  0  0  0  0
  186.3250  176.6480  144.9100 C   0  0  0  0  0  2  0  0  0  0  0  0
  185.0420  178.5920  143.9880 C   0  0  0  0  0  2  0  0  0  0  0  0
  190.1780  175.2940  142.3740 C   0  0  2  0  0  3  0  0  0  0  0  0
  192.2280  174.6120  143.6630 C   0  0  0  0  0  0  0  0  0  0  0  0
  190.0390  174.6040  144.8710 C   0  0  2  0  0  3  0  0  0  0  0  0
  187.4170  176.9760  143.9330 C   0  0  0  0  0  0  0  0  0  0  0  0
  185.5360  177.9100  145.2660 C   0  0  1  0  0  3  0  0  0  0  0  0
  186.1880  178.8960  143.0630 C   0  0  0  0  0  3  0  0  0  0  0  0
  191.6070  174.8220  142.4960 C   0  0  0  0  0  3  0  0  0  0  0  0
  189.4710  175.3780  143.7010 C   0  0  0  0  0  0  0  0  0  0  0  0
  188.4420  176.1810  143.8200 C   0  0  0  0  0  0  0  0  0  0  0  0
  188.1920  175.0450  140.5760 O   0  0  0  0  0  0  0  0  0  0  0  0
  189.2860  174.2480  141.2300 S   0  0  0  0  0  0  0  0  0  0  0  0
  190.2330  173.7360  140.1810 O   0  0  0  0  0  0  0  0  0  0  0  0
  189.3350  171.8900  142.5140 C   0  0  0  0  0  2  0  0  0  0  0  0
  188.5750  172.8970  142.0970 C   0  0  0  0  0  3  0  0  0  0  0  0
  189.3920  174.8880  146.1630 C   0  0  0  0  0  0  0  0  0  0  0  0
  188.8630  175.1230  147.2220 C   0  0  0  0  0  3  0  0  0  0  0  0
  194.6370  175.0950  143.4580 N   0  0  0  0  0  1  0  0  0  0  0  0
  193.5890  174.1860  143.6500 N   0  0  0  0  0  2  0  0  0  0  0  0
  184.4470  177.5720  146.0700 O   0  0  0  0  0  0  0  0  0  0  0  0
  184.4130  178.5570  147.0580 C   0  0  0  0  0  2  0  0  0  0  0  0
  185.8260  178.8750  147.5020 C   0  0  0  0  0  1  0  0  0  0  0  0
  1 10  2  0  0  0  0
  1  8  1  0  0  0  0
  3  9  1  0  0  0  0
  4  9  1  0  0  0  0
  5 15  1  6  0  0  0
  5 11  1  0  0  0  0
  5 12  1  0  0  0  0
  6  2  1  0  0  0  0
  7  2  1  0  0  0  0
  7 19  1  1  0  0  0
  8  3  1  0  0  0  0
  9 23  1  1  0  0  0
 10  4  1  0  0  0  0
 11  6  2  0  0  0  0
 12 13  2  0  0  0  0
 12  7  1  0  0  0  0
 13  8  2  0  0  0  0
 14 15  2  0  0  0  0
 15 18  1  0  0  0  0
 16 15  2  0  0  0  0
 18 17  2  0  0  0  0
 19 20  3  0  0  0  0
 21 22  1  0  0  0  0
 22  6  1  0  0  0  0
 23 24  1  0  0  0  0
 24 25  1  0  0  0  0
M  END
>  <MODEL>
4

>  <REMARK>
 VINA RESULT:      -6.2      2.825      4.321
  Name = 
  6 active torsions:
  status: ('A' for Active; 'I' for Inactive)
    1  A    between atoms: C_3  and  C_17
    2  A    between atoms: O_4  and  C_9
    3  A    between atoms: O_4  and  C_20
    4  A    between atoms: S_6  and  C_12
    5  A    between atoms: S_6  and  C_15
    6  A    between atoms: C_13  and  N_14
                            x       y       z     vdW  Elec       q    Type
                         _______ _______ _______ _____ _____    ______ ____

>  <TORSDO>
F 6

$$$$
=
 OpenBabel11072409383D

 25 26  0  0  1  0  0  0  0  0999 V2000
  189.6860  173.5090  143.2550 C   0  0  0  0  0  3  0  0  0  0  0  0
  186.8900  177.2140  146.5530 C   0  0  0  0  0  2  0  0  0  0  0  0
  191.4280  175.1270  144.2520 C   0  0  0  0  0  2  0  0  0  0  0  0
  192.1100  173.0130  143.0940 C   0  0  0  0  0  2  0  0  0  0  0  0
  186.8310  176.4210  143.7030 C   0  0  2  0  0  3  0  0  0  0  0  0
  185.6520  177.3760  145.7100 C   0  0  0  0  0  0  0  0  0  0  0  0
  188.1520  177.3840  145.7170 C   0  0  2  0  0  3  0  0  0  0  0  0
  190.0010  174.7590  143.9650 C   0  0  0  0  0  0  0  0  0  0  0  0
  192.2910  173.8670  144.3510 C   0  0  1  0  0  3  0  0  0  0  0  0
  190.6600  172.6780  142.8750 C   0  0  0  0  0  3  0  0  0  0  0  0
  185.6360  176.9940  144.4270 C   0  0  0  0  0  3  0  0  0  0  0  0
  188.0880  176.4460  144.5310 C   0  0  0  0  0  0  0  0  0  0  0  0
  189.0480  175.5990  144.2500 C   0  0  0  0  0  0  0  0  0  0  0  0
  188.1640  178.2860  142.2930 O   0  0  0  0  0  0  0  0  0  0  0  0
  187.0650  177.2700  142.1460 S   0  0  0  0  0  0  0  0  0  0  0  0
  187.4380  176.2720  141.0860 O   0  0  0  0  0  0  0  0  0  0  0  0
  185.2200  178.1720  140.4150 C   0  0  0  0  0  2  0  0  0  0  0  0
  185.5800  178.0890  141.6910 C   0  0  0  0  0  3  0  0  0  0  0  0
  189.3400  177.2100  146.5710 C   0  0  0  0  0  0  0  0  0  0  0  0
  190.3120  177.0680  147.2720 C   0  0  0  0  0  3  0  0  0  0  0  0
  183.8020  179.0050  145.7630 N   0  0  0  0  0  1  0  0  0  0  0  0
  184.4520  177.8820  146.2910 N   0  0  0  0  0  2  0  0  0  0  0  0
  193.6320  174.2260  144.4870 O   0  0  0  0  0  0  0  0  0  0  0  0
  193.6050  175.5500  144.9280 C   0  0  0  0  0  2  0  0  0  0  0  0
  194.5240  175.7040  146.1210 C   0  0  0  0  0  1  0  0  0  0  0  0
  1  8  1  0  0  0  0
  3  9  1  0  0  0  0
  4  9  1  0  0  0  0
  5 15  1  6  0  0  0
  5 11  1  0  0  0  0
  5 12  1  0  0  0  0
  6 22  1  0  0  0  0
  6  2  1  0  0  0  0
  7  2  1  0  0  0  0
  7 19  1  1  0  0  0
  8 13  2  0  0  0  0
  8  3  1  0  0  0  0
  9 23  1  6  0  0  0
 10  4  1  0  0  0  0
 10  1  2  0  0  0  0
 11  6  2  0  0  0  0
 12  7  1  0  0  0  0
 13 12  2  0  0  0  0
 15 14  2  0  0  0  0
 16 15  2  0  0  0  0
 17 18  2  0  0  0  0
 18 15  1  0  0  0  0
 19 20  3  0  0  0  0
 21 22  1  0  0  0  0
 23 24  1  0  0  0  0
 24 25  1  0  0  0  0
M  END
>  <MODEL>
5

>  <REMARK>
 VINA RESULT:      -6.1      3.841      7.264
  Name = 
  6 active torsions:
  status: ('A' for Active; 'I' for Inactive)
    1  A    between atoms: C_3  and  C_17
    2  A    between atoms: O_4  and  C_9
    3  A    between atoms: O_4  and  C_20
    4  A    between atoms: S_6  and  C_12
    5  A    between atoms: S_6  and  C_15
    6  A    between atoms: C_13  and  N_14
                            x       y       z     vdW  Elec       q    Type
                         _______ _______ _______ _____ _____    ______ ____

>  <TORSDO>
F 6

$$$$
=
 OpenBabel11072409383D

 25 26  0  0  1  0  0  0  0  0999 V2000
  188.4130  177.6210  143.6180 C   0  0  0  0  0  3  0  0  0  0  0  0
  193.6900  176.6940  145.5470 C   0  0  0  0  0  2  0  0  0  0  0  0
  188.2070  176.5400  145.9500 C   0  0  0  0  0  2  0  0  0  0  0  0
  186.2390  177.5890  144.8090 C   0  0  0  0  0  2  0  0  0  0  0  0
  192.0930  175.8530  143.2030 C   0  0  2  0  0  3  0  0  0  0  0  0
  194.3380  176.2950  144.2470 C   0  0  0  0  0  0  0  0  0  0  0  0
  192.3980  175.9200  145.7790 C   0  0  2  0  0  3  0  0  0  0  0  0
  189.0290  176.9080  144.7480 C   0  0  0  0  0  0  0  0  0  0  0  0
  187.0400  177.5150  146.1120 C   0  0  1  0  0  3  0  0  0  0  0  0
  187.1240  177.9680  143.6540 C   0  0  0  0  0  3  0  0  0  0  0  0
  193.6000  175.9360  143.1890 C   0  0  0  0  0  3  0  0  0  0  0  0
  191.5030  176.0840  144.5690 C   0  0  0  0  0  0  0  0  0  0  0  0
  190.2630  176.4990  144.6610 C   0  0  0  0  0  0  0  0  0  0  0  0
  192.6200  173.7600  141.5950 O   0  0  0  0  0  0  0  0  0  0  0  0
  191.5630  174.2830  142.5270 S   0  0  0  0  0  0  0  0  0  0  0  0
  191.3500  173.3050  143.6480 O   0  0  0  0  0  0  0  0  0  0  0  0
  188.9070  174.1210  142.1660 C   0  0  0  0  0  2  0  0  0  0  0  0
  190.0650  174.4990  141.6370 C   0  0  0  0  0  3  0  0  0  0  0  0
  191.7880  176.3410  147.0510 C   0  0  0  0  0  0  0  0  0  0  0  0
  191.2880  176.6880  148.0930 C   0  0  0  0  0  3  0  0  0  0  0  0
  196.3530  176.6850  142.8820 N   0  0  0  0  0  1  0  0  0  0  0  0
  195.7560  176.3590  144.1050 N   0  0  0  0  0  2  0  0  0  0  0  0
  186.2110  177.0880  147.1500 O   0  0  0  0  0  0  0  0  0  0  0  0
  185.4950  178.2260  147.5250 C   0  0  0  0  0  2  0  0  0  0  0  0
  186.4500  179.2690  148.0660 C   0  0  0  0  0  1  0  0  0  0  0  0
  1 10  2  0  0  0  0
  1  8  1  0  0  0  0
  2  7  1  0  0  0  0
  3  9  1  0  0  0  0
  4  9  1  0  0  0  0
  5 15  1  1  0  0  0
  5 12  1  0  0  0  0
  6  2  1  0  0  0  0
  7 19  1  1  0  0  0
  8  3  1  0  0  0  0
  9 23  1  1  0  0  0
 10  4  1  0  0  0  0
 11  5  1  0  0  0  0
 11  6  2  0  0  0  0
 12 13  2  0  0  0  0
 12  7  1  0  0  0  0
 13  8  2  0  0  0  0
 14 15  2  0  0  0  0
 15 16  2  0  0  0  0
 18 17  2  0  0  0  0
 18 15  1  0  0  0  0
 19 20  3  0  0  0  0
 21 22  1  0  0  0  0
 22  6  1  0  0  0  0
 23 24  1  0  0  0  0
 24 25  1  0  0  0  0
M  END
>  <MODEL>
6

>  <REMARK>
 VINA RESULT:      -6.1      3.180      4.774
  Name = 
  6 active torsions:
  status: ('A' for Active; 'I' for Inactive)
    1  A    between atoms: C_3  and  C_17
    2  A    between atoms: O_4  and  C_9
    3  A    between atoms: O_4  and  C_20
    4  A    between atoms: S_6  and  C_12
    5  A    between atoms: S_6  and  C_15
    6  A    between atoms: C_13  and  N_14
                            x       y       z     vdW  Elec       q    Type
                         _______ _______ _______ _____ _____    ______ ____

>  <TORSDO>
F 6

$$$$
=
 OpenBabel11072409383D

 25 26  0  0  1  0  0  0  0  0999 V2000
  186.1440  176.7530  146.0900 C   0  0  0  0  0  3  0  0  0  0  0  0
  189.7630  173.4500  143.1890 C   0  0  0  0  0  2  0  0  0  0  0  0
  186.3210  177.7080  143.7020 C   0  0  0  0  0  2  0  0  0  0  0  0
  184.5370  178.4630  145.2900 C   0  0  0  0  0  2  0  0  0  0  0  0
  189.8770  175.1130  145.6330 C   0  0  2  0  0  3  0  0  0  0  0  0
  190.7470  173.1700  144.2950 C   0  0  0  0  0  0  0  0  0  0  0  0
  189.4710  174.9410  143.0760 C   0  0  2  0  0  3  0  0  0  0  0  0
  186.8230  176.7990  144.7850 C   0  0  0  0  0  0  0  0  0  0  0  0
  184.8210  177.9590  143.8730 C   0  0  1  0  0  3  0  0  0  0  0  0
  185.0610  177.5000  146.3200 C   0  0  0  0  0  3  0  0  0  0  0  0
  190.7720  173.9200  145.4030 C   0  0  0  0  0  3  0  0  0  0  0  0
  189.0410  175.4620  144.4310 C   0  0  0  0  0  0  0  0  0  0  0  0
  187.9270  176.1310  144.6070 C   0  0  0  0  0  0  0  0  0  0  0  0
  189.9460  177.5600  146.7510 O   0  0  0  0  0  0  0  0  0  0  0  0
  190.8540  176.5130  146.1700 S   0  0  0  0  0  0  0  0  0  0  0  0
  191.8370  176.0620  147.2140 O   0  0  0  0  0  0  0  0  0  0  0  0
  191.1500  178.1280  144.0450 C   0  0  0  0  0  2  0  0  0  0  0  0
  191.7160  177.1920  144.8000 C   0  0  0  0  0  3  0  0  0  0  0  0
  188.5010  175.1770  141.9940 C   0  0  0  0  0  0  0  0  0  0  0  0
  187.7070  175.3720  141.1070 C   0  0  0  0  0  3  0  0  0  0  0  0
  192.6320  171.9910  143.2290 N   0  0  0  0  0  1  0  0  0  0  0  0
  191.6280  172.0510  144.2020 N   0  0  0  0  0  2  0  0  0  0  0  0
  184.3930  178.9050  142.9420 O   0  0  0  0  0  0  0  0  0  0  0  0
  183.7000  178.1700  141.9790 C   0  0  0  0  0  2  0  0  0  0  0  0
  184.3650  178.3520  140.6300 C   0  0  0  0  0  1  0  0  0  0  0  0
  1 10  2  0  0  0  0
  2  6  1  0  0  0  0
  3  9  1  0  0  0  0
  3  8  1  0  0  0  0
  4 10  1  0  0  0  0
  5 15  1  6  0  0  0
  6 11  2  0  0  0  0
  7 19  1  6  0  0  0
  7  2  1  0  0  0  0
  7 12  1  0  0  0  0
  8  1  1  0  0  0  0
  9 23  1  6  0  0  0
  9  4  1  0  0  0  0
 11  5  1  0  0  0  0
 12 13  2  0  0  0  0
 12  5  1  0  0  0  0
 13  8  2  0  0  0  0
 15 14  2  0  0  0  0
 15 16  2  0  0  0  0
 17 18  2  0  0  0  0
 18 15  1  0  0  0  0
 20 19  3  0  0  0  0
 21 22  1  0  0  0  0
 22  6  1  0  0  0  0
 24 23  1  0  0  0  0
 25 24  1  0  0  0  0
M  END
>  <MODEL>
7

>  <REMARK>
 VINA RESULT:      -6.1      1.784      2.138
  Name = 
  6 active torsions:
  status: ('A' for Active; 'I' for Inactive)
    1  A    between atoms: C_3  and  C_17
    2  A    between atoms: O_4  and  C_9
    3  A    between atoms: O_4  and  C_20
    4  A    between atoms: S_6  and  C_12
    5  A    between atoms: S_6  and  C_15
    6  A    between atoms: C_13  and  N_14
                            x       y       z     vdW  Elec       q    Type
                         _______ _______ _______ _____ _____    ______ ____

>  <TORSDO>
F 6

$$$$
=
 OpenBabel11072409383D

 25 26  0  0  1  0  0  0  0  0999 V2000
  191.2410  176.7620  145.1510 C   0  0  0  0  0  3  0  0  0  0  0  0
  186.7760  176.7670  141.6180 C   0  0  0  0  0  2  0  0  0  0  0  0
  190.5540  174.3070  144.7680 C   0  0  0  0  0  2  0  0  0  0  0  0
  192.7270  174.9080  145.8600 C   0  0  0  0  0  2  0  0  0  0  0  0
  187.3960  177.8990  144.2800 C   0  0  2  0  0  3  0  0  0  0  0  0
  186.0770  177.9940  142.1400 C   0  0  0  0  0  0  0  0  0  0  0  0
  187.1440  175.8180  142.7520 C   0  0  2  0  0  3  0  0  0  0  0  0
  190.2660  175.7770  144.6580 C   0  0  0  0  0  0  0  0  0  0  0  0
  192.0640  174.0620  144.7710 C   0  0  1  0  0  3  0  0  0  0  0  0
  192.4000  176.3660  145.6820 C   0  0  0  0  0  3  0  0  0  0  0  0
  186.3830  178.5060  143.3390 C   0  0  0  0  0  3  0  0  0  0  0  0
  187.9340  176.5790  143.7940 C   0  0  0  0  0  0  0  0  0  0  0  0
  189.1040  176.1760  144.2250 C   0  0  0  0  0  0  0  0  0  0  0  0
  186.0490  176.3960  146.0600 O   0  0  0  0  0  0  0  0  0  0  0  0
  186.6920  177.7470  145.9170 S   0  0  0  0  0  0  0  0  0  0  0  0
  187.7810  177.8990  146.9430 O   0  0  0  0  0  0  0  0  0  0  0  0
  184.1850  178.6820  146.1460 C   0  0  0  0  0  2  0  0  0  0  0  0
  185.4770  178.9920  146.1560 C   0  0  0  0  0  3  0  0  0  0  0  0
  187.8330  174.6360  142.2060 C   0  0  0  0  0  0  0  0  0  0  0  0
  188.3950  173.6660  141.7600 C   0  0  0  0  0  3  0  0  0  0  0  0
  184.6270  178.1010  140.1490 N   0  0  0  0  0  1  0  0  0  0  0  0
  185.1180  178.6710  141.3300 N   0  0  0  0  0  2  0  0  0  0  0  0
  192.3200  172.7100  145.0030 O   0  0  0  0  0  0  0  0  0  0  0  0
  193.6620  172.5370  144.6620 C   0  0  0  0  0  2  0  0  0  0  0  0
  194.3270  171.6250  145.6720 C   0  0  0  0  0  1  0  0  0  0  0  0
  1 10  2  0  0  0  0
  2  6  1  0  0  0  0
  2  7  1  0  0  0  0
  3  9  1  0  0  0  0
  5 15  1  1  0  0  0
  6 11  2  0  0  0  0
  7 19  1  6  0  0  0
  7 12  1  0  0  0  0
  8  3  1  0  0  0  0
  8  1  1  0  0  0  0
  9 23  1  1  0  0  0
  9  4  1  0  0  0  0
 10  4  1  0  0  0  0
 11  5  1  0  0  0  0
 12 13  2  0  0  0  0
 12  5  1  0  0  0  0
 13  8  2  0  0  0  0
 15 14  2  0  0  0  0
 15 18  1  0  0  0  0
 15 16  2  0  0  0  0
 17 18  2  0  0  0  0
 20 19  3  0  0  0  0
 21 22  1  0  0  0  0
 22  6  1  0  0  0  0
 24 23  1  0  0  0  0
 24 25  1  0  0  0  0
M  END
>  <MODEL>
8

>  <REMARK>
 VINA RESULT:      -6.1      3.506      6.703
  Name = 
  6 active torsions:
  status: ('A' for Active; 'I' for Inactive)
    1  A    between atoms: C_3  and  C_17
    2  A    between atoms: O_4  and  C_9
    3  A    between atoms: O_4  and  C_20
    4  A    between atoms: S_6  and  C_12
    5  A    between atoms: S_6  and  C_15
    6  A    between atoms: C_13  and  N_14
                            x       y       z     vdW  Elec       q    Type
                         _______ _______ _______ _____ _____    ______ ____

>  <TORSDO>
F 6

$$$$
=
 OpenBabel11072409383D

 25 26  0  0  1  0  0  0  0  0999 V2000
  187.9260  177.2940  141.5020 C   0  0  0  0  0  3  0  0  0  0  0  0
  190.8110  176.5870  146.3610 C   0  0  0  0  0  2  0  0  0  0  0  0
  186.1990  177.0220  143.3970 C   0  0  0  0  0  2  0  0  0  0  0  0
  185.5340  177.8180  141.1170 C   0  0  0  0  0  2  0  0  0  0  0  0
  190.6270  175.1870  143.7610 C   0  0  2  0  0  3  0  0  0  0  0  0
  191.9430  175.7480  145.8300 C   0  0  0  0  0  0  0  0  0  0  0  0
  189.4610  176.0350  145.9180 C   0  0  2  0  0  3  0  0  0  0  0  0
  187.6090  176.9240  142.8910 C   0  0  0  0  0  0  0  0  0  0  0  0
  185.4300  178.0920  142.6190 C   0  0  1  0  0  3  0  0  0  0  0  0
  186.9720  177.7400  140.6820 C   0  0  0  0  0  3  0  0  0  0  0  0
  191.8520  175.1370  144.6420 C   0  0  0  0  0  3  0  0  0  0  0  0
  189.4620  175.8840  144.4120 C   0  0  0  0  0  0  0  0  0  0  0  0
  188.5330  176.4080  143.6510 C   0  0  0  0  0  0  0  0  0  0  0  0
  191.4330  172.7520  142.9460 O   0  0  0  0  0  0  0  0  0  0  0  0
  190.1840  173.5340  143.2400 S   0  0  0  0  0  0  0  0  0  0  0  0
  189.4110  172.8560  144.3380 O   0  0  0  0  0  0  0  0  0  0  0  0
  187.9240  173.2460  141.8170 C   0  0  0  0  0  2  0  0  0  0  0  0
  189.2000  173.6160  141.7890 C   0  0  0  0  0  3  0  0  0  0  0  0
  188.3800  176.8850  146.4460 C   0  0  0  0  0  0  0  0  0  0  0  0
  187.4930  177.5790  146.8790 C   0  0  0  0  0  3  0  0  0  0  0  0
  193.9150  176.7810  146.8900 N   0  0  0  0  0  1  0  0  0  0  0  0
  193.1630  175.6460  146.5620 N   0  0  0  0  0  2  0  0  0  0  0  0
  184.0900  178.0830  143.0070 O   0  0  0  0  0  0  0  0  0  0  0  0
  184.0740  178.7210  144.2490 C   0  0  0  0  0  2  0  0  0  0  0  0
  185.1270  179.8090  144.2710 C   0  0  0  0  0  1  0  0  0  0  0  0
  1  8  1  0  0  0  0
  4  9  1  0  0  0  0
  5 15  1  1  0  0  0
  5 12  1  0  0  0  0
  5 11  1  0  0  0  0
  6  2  1  0  0  0  0
  6 22  1  0  0  0  0
  7  2  1  0  0  0  0
  7 19  1  6  0  0  0
  8  3  1  0  0  0  0
  8 13  2  0  0  0  0
  9 23  1  1  0  0  0
  9  3  1  0  0  0  0
 10  4  1  0  0  0  0
 10  1  2  0  0  0  0
 11  6  2  0  0  0  0
 12  7  1  0  0  0  0
 13 12  2  0  0  0  0
 14 15  2  0  0  0  0
 15 16  2  0  0  0  0
 18 17  2  0  0  0  0
 18 15  1  0  0  0  0
 19 20  3  0  0  0  0
 22 21  1  0  0  0  0
 23 24  1  0  0  0  0
 24 25  1  0  0  0  0
M  END
>  <MODEL>
9

>  <REMARK>
 VINA RESULT:      -6.0      2.761      4.583
  Name = 
  6 active torsions:
  status: ('A' for Active; 'I' for Inactive)
    1  A    between atoms: C_3  and  C_17
    2  A    between atoms: O_4  and  C_9
    3  A    between atoms: O_4  and  C_20
    4  A    between atoms: S_6  and  C_12
    5  A    between atoms: S_6  and  C_15
    6  A    between atoms: C_13  and  N_14
                            x       y       z     vdW  Elec       q    Type
                         _______ _______ _______ _____ _____    ______ ____

>  <TORSDO>
F 6

$$$$
