=
 OpenBabel11062421083D

 27 30  0  0  1  0  0  0  0  0999 V2000
  187.7610  176.3180  144.1580 C   0  0  0  0  0  2  0  0  0  0  0  0
  185.5990  177.6330  145.2080 N   0  0  1  0  0  0  0  0  0  0  0  0
  186.3260  177.7100  147.4560 C   0  0  0  0  0  2  0  0  0  0  0  0
  187.2050  177.4600  143.2920 C   0  0  0  0  0  2  0  0  0  0  0  0
  188.6970  176.2570  146.4780 C   0  0  0  0  0  3  0  0  0  0  0  0
  185.8510  178.0250  143.7900 C   0  0  2  0  0  0  0  0  0  0  0  0
  187.7910  176.7230  145.6080 C   0  0  0  0  0  0  0  0  0  0  0  0
  186.7990  177.7710  146.0200 C   0  0  1  0  0  3  0  0  0  0  0  0
  184.9470  178.3390  147.3970 C   0  0  0  0  0  2  0  0  0  0  0  0
  184.6100  178.4430  145.9150 C   0  0  0  0  0  2  0  0  0  0  0  0
  185.9290  179.5430  143.6310 C   0  0  0  0  0  1  0  0  0  0  0  0
  184.6520  178.2780  141.5080 C   0  0  0  0  0  2  0  0  0  0  0  0
  184.7710  177.5030  142.8100 C   0  0  0  0  0  3  0  0  0  0  0  0
  183.6430  178.5030  142.6160 C   0  0  0  0  0  2  0  0  0  0  0  0
  189.7530  175.2600  146.2060 C   0  0  0  0  0  0  0  0  0  0  0  0
  189.4930  174.0260  146.2140 O   0  0  0  0  0  0  0  0  0  0  0  0
  190.8120  175.1160  143.4430 C   0  0  0  0  0  1  0  0  0  0  0  0
  193.7710  176.5220  145.3360 C   0  0  0  0  0  3  0  0  0  0  0  0
  191.1320  175.7140  145.8950 C   0  0  0  0  0  0  0  0  0  0  0  0
  193.4950  175.9230  143.0280 O   0  0  0  0  0  1  0  0  0  0  0  0
  193.2660  176.6360  146.6270 C   0  0  0  0  0  3  0  0  0  0  0  0
  191.9530  176.2510  146.9170 C   0  0  0  0  0  0  0  0  0  0  0  0
  192.9710  176.0170  144.3120 C   0  0  0  0  0  0  0  0  0  0  0  0
  191.6530  175.6100  144.5790 C   0  0  0  0  0  0  0  0  0  0  0  0
  191.4790  176.3600  148.3370 C   0  0  0  0  0  2  0  0  0  0  0  0
  191.5250  178.0750  150.1610 C   0  0  0  0  0  1  0  0  0  0  0  0
  191.1500  177.7980  148.7170 C   0  0  0  0  0  2  0  0  0  0  0  0
  1  7  1  0  0  0  0
  2 10  1  1  0  0  0
  2  8  1  0  0  0  0
  4  6  1  0  0  0  0
  4  1  1  0  0  0  0
  6 11  1  6  0  0  0
  6  2  1  0  0  0  0
  7  8  1  0  0  0  0
  7  5  2  0  0  0  0
  8  3  1  1  0  0  0
  9  3  1  0  0  0  0
 10  9  1  0  0  0  0
 12 14  1  0  0  0  0
 12 13  1  0  0  0  0
 13  6  1  0  0  0  0
 14 13  1  0  0  0  0
 15 16  2  0  0  0  0
 15  5  1  0  0  0  0
 17 24  1  0  0  0  0
 18 21  1  0  0  0  0
 19 15  1  0  0  0  0
 19 22  1  0  0  0  0
 20 23  1  0  0  0  0
 21 22  2  0  0  0  0
 22 25  1  0  0  0  0
 23 24  1  0  0  0  0
 23 18  2  0  0  0  0
 24 19  2  0  0  0  0
 25 27  1  0  0  0  0
 27 26  1  0  0  0  0
M  END
>  <MODEL>
1

>  <REMARK>
 VINA RESULT:      -7.9      0.000      0.000
  Name = 
  5 active torsions:
  status: ('A' for Active; 'I' for Inactive)
    1  A    between atoms: C_1  and  C_7
    2  A    between atoms: C_1  and  C_19
    3  A    between atoms: C_9  and  C_21
    4  A    between atoms: C_13  and  C_14
    5  A    between atoms: C_13  and  C_25
                            x       y       z     vdW  Elec       q    Type
                         _______ _______ _______ _____ _____    ______ ____

>  <TORSDO>
F 5

$$$$
=
 OpenBabel11062421083D

 27 30  0  0  1  0  0  0  0  0999 V2000
  188.3460  177.5380  143.1060 C   0  0  0  0  0  2  0  0  0  0  0  0
  186.1700  177.3460  144.7610 N   0  0  1  0  0  0  0  0  0  0  0  0
  187.3370  177.1180  146.8050 C   0  0  0  0  0  2  0  0  0  0  0  0
  187.1810  178.4820  142.7690 C   0  0  0  0  0  2  0  0  0  0  0  0
  189.7690  177.2700  145.1470 C   0  0  0  0  0  3  0  0  0  0  0  0
  185.8840  178.1910  143.5640 C   0  0  2  0  0  0  0  0  0  0  0  0
  188.5680  177.4860  144.5950 C   0  0  0  0  0  0  0  0  0  0  0  0
  187.3730  177.7910  145.4510 C   0  0  1  0  0  3  0  0  0  0  0  0
  185.8530  177.0230  147.1090 C   0  0  0  0  0  2  0  0  0  0  0  0
  185.1470  177.3700  145.8040 C   0  0  0  0  0  2  0  0  0  0  0  0
  185.3010  179.5470  143.9580 C   0  0  0  0  0  1  0  0  0  0  0  0
  184.6180  178.3250  141.3090 C   0  0  0  0  0  2  0  0  0  0  0  0
  184.9000  177.5250  142.5700 C   0  0  0  0  0  3  0  0  0  0  0  0
  183.6040  178.3090  142.4350 C   0  0  0  0  0  2  0  0  0  0  0  0
  191.0350  176.9980  144.4340 C   0  0  0  0  0  0  0  0  0  0  0  0
  191.6030  177.9000  143.7610 O   0  0  0  0  0  0  0  0  0  0  0  0
  190.5930  174.9650  142.3250 C   0  0  0  0  0  1  0  0  0  0  0  0
  192.8010  173.0910  144.7590 C   0  0  0  0  0  3  0  0  0  0  0  0
  191.6590  175.6540  144.5290 C   0  0  0  0  0  0  0  0  0  0  0  0
  191.7670  172.4160  142.7010 O   0  0  0  0  0  1  0  0  0  0  0  0
  193.0520  174.0550  145.7310 C   0  0  0  0  0  3  0  0  0  0  0  0
  192.5020  175.3360  145.6230 C   0  0  0  0  0  0  0  0  0  0  0  0
  191.9930  173.3920  143.6640 C   0  0  0  0  0  0  0  0  0  0  0  0
  191.4180  174.6670  143.5390 C   0  0  0  0  0  0  0  0  0  0  0  0
  192.7750  176.3200  146.7240 C   0  0  0  0  0  2  0  0  0  0  0  0
  194.6700  177.4660  145.5560 C   0  0  0  0  0  1  0  0  0  0  0  0
  194.2480  176.6970  146.7950 C   0  0  0  0  0  2  0  0  0  0  0  0
  1  7  1  0  0  0  0
  2  8  1  0  0  0  0
  2 10  1  1  0  0  0
  3  9  1  0  0  0  0
  4  1  1  0  0  0  0
  4  6  1  0  0  0  0
  6 11  1  1  0  0  0
  6  2  1  0  0  0  0
  7  5  2  0  0  0  0
  7  8  1  0  0  0  0
  8  3  1  1  0  0  0
 10  9  1  0  0  0  0
 12 14  1  0  0  0  0
 12 13  1  0  0  0  0
 13  6  1  0  0  0  0
 14 13  1  0  0  0  0
 15 19  1  0  0  0  0
 15  5  1  0  0  0  0
 16 15  2  0  0  0  0
 17 24  1  0  0  0  0
 18 21  1  0  0  0  0
 19 22  1  0  0  0  0
 20 23  1  0  0  0  0
 22 21  2  0  0  0  0
 22 25  1  0  0  0  0
 23 18  2  0  0  0  0
 24 23  1  0  0  0  0
 24 19  2  0  0  0  0
 25 27  1  0  0  0  0
 26 27  1  0  0  0  0
M  END
>  <MODEL>
2

>  <REMARK>
 VINA RESULT:      -7.8      1.771      2.391
  Name = 
  5 active torsions:
  status: ('A' for Active; 'I' for Inactive)
    1  A    between atoms: C_1  and  C_7
    2  A    between atoms: C_1  and  C_19
    3  A    between atoms: C_9  and  C_21
    4  A    between atoms: C_13  and  C_14
    5  A    between atoms: C_13  and  C_25
                            x       y       z     vdW  Elec       q    Type
                         _______ _______ _______ _____ _____    ______ ____

>  <TORSDO>
F 5

$$$$
=
 OpenBabel11062421083D

 27 30  0  0  1  0  0  0  0  0999 V2000
  190.2780  177.4930  144.2080 C   0  0  0  0  0  2  0  0  0  0  0  0
  190.7140  174.9410  145.1070 N   0  0  1  0  0  0  0  0  0  0  0  0
  189.3170  173.8130  143.5690 C   0  0  0  0  0  2  0  0  0  0  0  0
  191.7320  177.1740  144.5950 C   0  0  0  0  0  2  0  0  0  0  0  0
  188.7220  176.5020  142.5180 C   0  0  0  0  0  3  0  0  0  0  0  0
  191.9060  175.8140  145.3170 C   0  0  2  0  0  0  0  0  0  0  0  0
  189.6700  176.3420  143.4510 C   0  0  0  0  0  0  0  0  0  0  0  0
  190.2560  174.9880  143.7260 C   0  0  1  0  0  3  0  0  0  0  0  0
  189.8950  172.7750  144.5130 C   0  0  0  0  0  2  0  0  0  0  0  0
  190.9290  173.5170  145.3500 C   0  0  0  0  0  2  0  0  0  0  0  0
  193.1750  175.1800  144.7500 C   0  0  0  0  0  1  0  0  0  0  0  0
  191.3910  175.2910  147.8010 C   0  0  0  0  0  2  0  0  0  0  0  0
  192.1680  176.1400  146.8090 C   0  0  0  0  0  3  0  0  0  0  0  0
  190.9340  176.7030  147.4970 C   0  0  0  0  0  2  0  0  0  0  0  0
  188.0830  177.7720  142.1150 C   0  0  0  0  0  0  0  0  0  0  0  0
  188.7690  178.7180  141.6420 O   0  0  0  0  0  0  0  0  0  0  0  0
  186.3160  177.5290  139.7500 C   0  0  0  0  0  1  0  0  0  0  0  0
  183.8320  178.2910  142.4980 C   0  0  0  0  0  3  0  0  0  0  0  0
  186.6120  177.9290  142.2440 C   0  0  0  0  0  0  0  0  0  0  0  0
  183.5440  177.9570  140.1390 O   0  0  0  0  0  1  0  0  0  0  0  0
  184.6490  178.3610  143.6220 C   0  0  0  0  0  3  0  0  0  0  0  0
  186.0300  178.1700  143.5130 C   0  0  0  0  0  0  0  0  0  0  0  0
  184.3830  178.0330  141.2440 C   0  0  0  0  0  0  0  0  0  0  0  0
  185.7690  177.8510  141.1060 C   0  0  0  0  0  0  0  0  0  0  0  0
  186.8640  178.2980  144.7550 C   0  0  0  0  0  2  0  0  0  0  0  0
  187.4050  176.4160  146.3140 C   0  0  0  0  0  1  0  0  0  0  0  0
  186.3460  177.4110  145.8790 C   0  0  0  0  0  2  0  0  0  0  0  0
  1  4  1  0  0  0  0
  2  6  1  0  0  0  0
  2 10  1  6  0  0  0
  3  9  1  0  0  0  0
  4  6  1  0  0  0  0
  5  7  2  0  0  0  0
  6 11  1  6  0  0  0
  6 13  1  0  0  0  0
  7  8  1  0  0  0  0
  7  1  1  0  0  0  0
  8  3  1  1  0  0  0
  8  2  1  0  0  0  0
  9 10  1  0  0  0  0
 13 14  1  0  0  0  0
 13 12  1  0  0  0  0
 14 12  1  0  0  0  0
 15 19  1  0  0  0  0
 15  5  1  0  0  0  0
 16 15  2  0  0  0  0
 17 24  1  0  0  0  0
 18 21  1  0  0  0  0
 19 22  1  0  0  0  0
 20 23  1  0  0  0  0
 22 21  2  0  0  0  0
 22 25  1  0  0  0  0
 23 18  2  0  0  0  0
 24 23  1  0  0  0  0
 24 19  2  0  0  0  0
 25 27  1  0  0  0  0
 27 26  1  0  0  0  0
M  END
>  <MODEL>
3

>  <REMARK>
 VINA RESULT:      -7.8      2.760      7.179
  Name = 
  5 active torsions:
  status: ('A' for Active; 'I' for Inactive)
    1  A    between atoms: C_1  and  C_7
    2  A    between atoms: C_1  and  C_19
    3  A    between atoms: C_9  and  C_21
    4  A    between atoms: C_13  and  C_14
    5  A    between atoms: C_13  and  C_25
                            x       y       z     vdW  Elec       q    Type
                         _______ _______ _______ _____ _____    ______ ____

>  <TORSDO>
F 5

$$$$
=
 OpenBabel11062421083D

 27 30  0  0  1  0  0  0  0  0999 V2000
  187.6560  176.2570  144.1980 C   0  0  0  0  0  2  0  0  0  0  0  0
  185.5130  177.6410  145.1980 N   0  0  1  0  0  0  0  0  0  0  0  0
  186.1950  177.7050  147.4610 C   0  0  0  0  0  2  0  0  0  0  0  0
  187.1530  177.4120  143.3170 C   0  0  0  0  0  2  0  0  0  0  0  0
  188.5420  176.1780  146.5370 C   0  0  0  0  0  3  0  0  0  0  0  0
  185.8060  178.0200  143.7850 C   0  0  2  0  0  0  0  0  0  0  0  0
  187.6680  176.6670  145.6470 C   0  0  0  0  0  0  0  0  0  0  0  0
  186.6990  177.7460  146.0360 C   0  0  1  0  0  3  0  0  0  0  0  0
  184.8370  178.3740  147.3710 C   0  0  0  0  0  2  0  0  0  0  0  0
  184.5340  178.4830  145.8820 C   0  0  0  0  0  2  0  0  0  0  0  0
  185.9330  179.5340  143.6230 C   0  0  0  0  0  1  0  0  0  0  0  0
  184.6550  178.3070  141.4830 C   0  0  0  0  0  2  0  0  0  0  0  0
  184.7310  177.5270  142.7850 C   0  0  0  0  0  3  0  0  0  0  0  0
  183.6310  178.5550  142.5730 C   0  0  0  0  0  2  0  0  0  0  0  0
  189.5730  175.1480  146.2900 C   0  0  0  0  0  0  0  0  0  0  0  0
  189.3190  173.9260  146.4690 O   0  0  0  0  0  0  0  0  0  0  0  0
  191.5440  176.3840  148.1240 C   0  0  0  0  0  1  0  0  0  0  0  0
  193.4350  176.3700  144.8480 C   0  0  0  0  0  3  0  0  0  0  0  0
  190.9160  175.5530  145.8040 C   0  0  0  0  0  0  0  0  0  0  0  0
  194.0240  177.1950  147.0240 O   0  0  0  0  0  1  0  0  0  0  0  0
  192.5330  175.7480  143.9900 C   0  0  0  0  0  3  0  0  0  0  0  0
  191.2830  175.3250  144.4540 C   0  0  0  0  0  0  0  0  0  0  0  0
  193.1000  176.5820  146.1840 C   0  0  0  0  0  0  0  0  0  0  0  0
  191.8470  176.1790  146.6720 C   0  0  0  0  0  0  0  0  0  0  0  0
  190.3370  174.6980  143.4710 C   0  0  0  0  0  2  0  0  0  0  0  0
  189.3660  172.3970  143.2970 C   0  0  0  0  0  1  0  0  0  0  0  0
  190.6400  173.2210  143.2570 C   0  0  0  0  0  2  0  0  0  0  0  0
  1  7  1  0  0  0  0
  2 10  1  1  0  0  0
  2  8  1  0  0  0  0
  4  6  1  0  0  0  0
  4  1  1  0  0  0  0
  6 11  1  6  0  0  0
  6  2  1  0  0  0  0
  7  8  1  0  0  0  0
  7  5  2  0  0  0  0
  8  3  1  1  0  0  0
  9  3  1  0  0  0  0
 10  9  1  0  0  0  0
 12 14  1  0  0  0  0
 12 13  1  0  0  0  0
 13  6  1  0  0  0  0
 14 13  1  0  0  0  0
 15 16  2  0  0  0  0
 15  5  1  0  0  0  0
 18 23  1  0  0  0  0
 19 15  1  0  0  0  0
 19 24  1  0  0  0  0
 21 22  1  0  0  0  0
 21 18  2  0  0  0  0
 22 19  2  0  0  0  0
 23 24  2  0  0  0  0
 23 20  1  0  0  0  0
 24 17  1  0  0  0  0
 25 22  1  0  0  0  0
 27 26  1  0  0  0  0
 27 25  1  0  0  0  0
M  END
>  <MODEL>
4

>  <REMARK>
 VINA RESULT:      -7.7      1.108      2.917
  Name = 
  5 active torsions:
  status: ('A' for Active; 'I' for Inactive)
    1  A    between atoms: C_1  and  C_7
    2  A    between atoms: C_1  and  C_19
    3  A    between atoms: C_9  and  C_21
    4  A    between atoms: C_13  and  C_14
    5  A    between atoms: C_13  and  C_25
                            x       y       z     vdW  Elec       q    Type
                         _______ _______ _______ _____ _____    ______ ____

>  <TORSDO>
F 5

$$$$
=
 OpenBabel11062421083D

 27 30  0  0  1  0  0  0  0  0999 V2000
  188.9000  177.9160  145.3500 C   0  0  0  0  0  2  0  0  0  0  0  0
  186.6510  177.8480  143.7840 N   0  0  1  0  0  0  0  0  0  0  0  0
  187.6250  176.8780  141.8600 C   0  0  0  0  0  2  0  0  0  0  0  0
  187.6070  177.5110  146.0770 C   0  0  0  0  0  2  0  0  0  0  0  0
  190.1310  176.9210  143.4120 C   0  0  0  0  0  3  0  0  0  0  0  0
  186.3220  177.7100  145.2330 C   0  0  2  0  0  0  0  0  0  0  0  0
  188.9740  177.2530  144.0000 C   0  0  0  0  0  0  0  0  0  0  0  0
  187.6620  176.8840  143.3730 C   0  0  1  0  0  3  0  0  0  0  0  0
  186.1690  177.1650  141.5440 C   0  0  0  0  0  2  0  0  0  0  0  0
  185.5450  177.6010  142.8640 C   0  0  0  0  0  2  0  0  0  0  0  0
  185.4370  176.4920  145.4950 C   0  0  0  0  0  1  0  0  0  0  0  0
  185.1500  178.8150  147.2610 C   0  0  0  0  0  2  0  0  0  0  0  0
  185.6020  178.9510  145.8170 C   0  0  0  0  0  3  0  0  0  0  0  0
  184.1430  178.6680  146.1380 C   0  0  0  0  0  2  0  0  0  0  0  0
  191.4920  177.1840  143.9260 C   0  0  0  0  0  0  0  0  0  0  0  0
  191.9360  178.3610  144.0030 O   0  0  0  0  0  0  0  0  0  0  0  0
  193.3040  175.7900  142.0430 C   0  0  0  0  0  1  0  0  0  0  0  0
  193.8890  173.8670  145.2480 C   0  0  0  0  0  3  0  0  0  0  0  0
  192.3380  176.0510  144.3810 C   0  0  0  0  0  0  0  0  0  0  0  0
  194.7760  173.5840  143.0360 O   0  0  0  0  0  1  0  0  0  0  0  0
  193.0750  174.5450  146.1500 C   0  0  0  0  0  3  0  0  0  0  0  0
  192.3090  175.6400  145.7370 C   0  0  0  0  0  0  0  0  0  0  0  0
  193.9470  174.2710  143.9150 C   0  0  0  0  0  0  0  0  0  0  0  0
  193.1780  175.3590  143.4720 C   0  0  0  0  0  0  0  0  0  0  0  0
  191.4200  176.3060  146.7470 C   0  0  0  0  0  2  0  0  0  0  0  0
  189.5660  174.6300  146.8970 C   0  0  0  0  0  1  0  0  0  0  0  0
  190.7140  175.2910  147.6360 C   0  0  0  0  0  2  0  0  0  0  0  0
  1  4  1  0  0  0  0
  2 10  1  6  0  0  0
  2  6  1  0  0  0  0
  5 15  1  0  0  0  0
  5  7  2  0  0  0  0
  6 11  1  1  0  0  0
  6 13  1  0  0  0  0
  6  4  1  0  0  0  0
  7  1  1  0  0  0  0
  8  3  1  6  0  0  0
  8  2  1  0  0  0  0
  8  7  1  0  0  0  0
  9  3  1  0  0  0  0
  9 10  1  0  0  0  0
 13 14  1  0  0  0  0
 13 12  1  0  0  0  0
 14 12  1  0  0  0  0
 15 16  2  0  0  0  0
 15 19  1  0  0  0  0
 17 24  1  0  0  0  0
 18 21  1  0  0  0  0
 19 22  1  0  0  0  0
 20 23  1  0  0  0  0
 22 21  2  0  0  0  0
 22 25  1  0  0  0  0
 23 18  2  0  0  0  0
 24 23  1  0  0  0  0
 24 19  2  0  0  0  0
 25 27  1  0  0  0  0
 26 27  1  0  0  0  0
M  END
>  <MODEL>
5

>  <REMARK>
 VINA RESULT:      -7.6      1.917      3.418
  Name = 
  5 active torsions:
  status: ('A' for Active; 'I' for Inactive)
    1  A    between atoms: C_1  and  C_7
    2  A    between atoms: C_1  and  C_19
    3  A    between atoms: C_9  and  C_21
    4  A    between atoms: C_13  and  C_14
    5  A    between atoms: C_13  and  C_25
                            x       y       z     vdW  Elec       q    Type
                         _______ _______ _______ _____ _____    ______ ____

>  <TORSDO>
F 5

$$$$
=
 OpenBabel11062421083D

 27 30  0  0  1  0  0  0  0  0999 V2000
  188.7860  177.3640  143.0740 C   0  0  0  0  0  2  0  0  0  0  0  0
  186.7260  177.2200  144.8760 N   0  0  1  0  0  0  0  0  0  0  0  0
  188.0270  177.0110  146.8390 C   0  0  0  0  0  2  0  0  0  0  0  0
  187.6090  178.3150  142.8010 C   0  0  0  0  0  2  0  0  0  0  0  0
  190.3420  177.1140  145.0170 C   0  0  0  0  0  3  0  0  0  0  0  0
  186.3660  178.0480  143.6880 C   0  0  2  0  0  0  0  0  0  0  0  0
  189.1080  177.3320  144.5450 C   0  0  0  0  0  0  0  0  0  0  0  0
  187.9770  177.6620  145.4750 C   0  0  1  0  0  3  0  0  0  0  0  0
  186.5670  176.9360  147.2440 C   0  0  0  0  0  2  0  0  0  0  0  0
  185.7770  177.2700  145.9850 C   0  0  0  0  0  2  0  0  0  0  0  0
  185.8240  179.4160  144.0990 C   0  0  0  0  0  1  0  0  0  0  0  0
  185.0300  178.1070  141.4700 C   0  0  0  0  0  2  0  0  0  0  0  0
  185.3110  177.3780  142.7730 C   0  0  0  0  0  3  0  0  0  0  0  0
  184.0580  178.2260  142.6260 C   0  0  0  0  0  2  0  0  0  0  0  0
  191.5530  176.8170  144.2240 C   0  0  0  0  0  0  0  0  0  0  0  0
  191.8880  177.5550  143.2590 O   0  0  0  0  0  0  0  0  0  0  0  0
  194.1410  177.1920  145.6150 C   0  0  0  0  0  1  0  0  0  0  0  0
  194.0230  173.4340  145.1970 C   0  0  0  0  0  3  0  0  0  0  0  0
  192.4010  175.6520  144.5820 C   0  0  0  0  0  0  0  0  0  0  0  0
  195.6910  174.8800  146.1380 O   0  0  0  0  0  1  0  0  0  0  0  0
  192.7870  173.2450  144.5850 C   0  0  0  0  0  3  0  0  0  0  0  0
  191.9650  174.3360  144.2860 C   0  0  0  0  0  0  0  0  0  0  0  0
  194.4580  174.7190  145.5170 C   0  0  0  0  0  0  0  0  0  0  0  0
  193.6580  175.8320  145.2140 C   0  0  0  0  0  0  0  0  0  0  0  0
  190.6620  174.0730  143.5880 C   0  0  0  0  0  2  0  0  0  0  0  0
  189.5390  173.7490  145.8020 C   0  0  0  0  0  1  0  0  0  0  0  0
  189.7490  173.1750  144.4130 C   0  0  0  0  0  2  0  0  0  0  0  0
  1  7  1  0  0  0  0
  2  8  1  0  0  0  0
  2 10  1  1  0  0  0
  3  9  1  0  0  0  0
  4  1  1  0  0  0  0
  4  6  1  0  0  0  0
  6 11  1  1  0  0  0
  6  2  1  0  0  0  0
  7  5  2  0  0  0  0
  7  8  1  0  0  0  0
  8  3  1  1  0  0  0
 10  9  1  0  0  0  0
 12 14  1  0  0  0  0
 12 13  1  0  0  0  0
 13  6  1  0  0  0  0
 14 13  1  0  0  0  0
 15 19  1  0  0  0  0
 15  5  1  0  0  0  0
 16 15  2  0  0  0  0
 18 23  1  0  0  0  0
 19 24  1  0  0  0  0
 21 18  2  0  0  0  0
 22 19  2  0  0  0  0
 22 21  1  0  0  0  0
 23 20  1  0  0  0  0
 24 23  2  0  0  0  0
 24 17  1  0  0  0  0
 25 22  1  0  0  0  0
 25 27  1  0  0  0  0
 27 26  1  0  0  0  0
M  END
>  <MODEL>
6

>  <REMARK>
 VINA RESULT:      -7.4      2.087      3.117
  Name = 
  5 active torsions:
  status: ('A' for Active; 'I' for Inactive)
    1  A    between atoms: C_1  and  C_7
    2  A    between atoms: C_1  and  C_19
    3  A    between atoms: C_9  and  C_21
    4  A    between atoms: C_13  and  C_14
    5  A    between atoms: C_13  and  C_25
                            x       y       z     vdW  Elec       q    Type
                         _______ _______ _______ _____ _____    ______ ____

>  <TORSDO>
F 5

$$$$
=
 OpenBabel11062421083D

 27 30  0  0  1  0  0  0  0  0999 V2000
  188.5720  176.4010  146.0740 C   0  0  0  0  0  2  0  0  0  0  0  0
  187.3300  177.9410  144.1780 N   0  0  1  0  0  0  0  0  0  0  0  0
  188.5900  177.2320  142.3070 C   0  0  0  0  0  2  0  0  0  0  0  0
  187.0450  176.5090  146.2150 C   0  0  0  0  0  2  0  0  0  0  0  0
  190.0440  175.5460  144.2400 C   0  0  0  0  0  3  0  0  0  0  0  0
  186.4000  177.5660  145.2840 C   0  0  2  0  0  0  0  0  0  0  0  0
  188.9560  176.2250  144.6280 C   0  0  0  0  0  0  0  0  0  0  0  0
  187.9910  176.7710  143.6180 C   0  0  1  0  0  3  0  0  0  0  0  0
  187.6150  178.2910  141.8300 C   0  0  0  0  0  2  0  0  0  0  0  0
  186.7030  178.5700  143.0180 C   0  0  0  0  0  2  0  0  0  0  0  0
  185.1110  176.9460  144.7490 C   0  0  0  0  0  1  0  0  0  0  0  0
  185.6990  178.4100  147.6300 C   0  0  0  0  0  2  0  0  0  0  0  0
  186.0100  178.7640  146.1850 C   0  0  0  0  0  3  0  0  0  0  0  0
  184.5680  178.6790  146.6580 C   0  0  0  0  0  2  0  0  0  0  0  0
  191.0570  174.9220  145.1160 C   0  0  0  0  0  0  0  0  0  0  0  0
  190.8540  173.7900  145.6310 O   0  0  0  0  0  0  0  0  0  0  0  0
  193.1210  175.1380  143.0020 C   0  0  0  0  0  1  0  0  0  0  0  0
  194.7920  176.9030  145.9010 C   0  0  0  0  0  3  0  0  0  0  0  0
  192.3410  175.6230  145.3740 C   0  0  0  0  0  0  0  0  0  0  0  0
  195.5560  176.4150  143.6780 O   0  0  0  0  0  1  0  0  0  0  0  0
  193.8100  176.8460  146.8850 C   0  0  0  0  0  3  0  0  0  0  0  0
  192.5820  176.2250  146.6330 C   0  0  0  0  0  0  0  0  0  0  0  0
  194.5630  176.3360  144.6480 C   0  0  0  0  0  0  0  0  0  0  0  0
  193.3440  175.6950  144.3740 C   0  0  0  0  0  0  0  0  0  0  0  0
  191.5790  176.1600  147.7480 C   0  0  0  0  0  2  0  0  0  0  0  0
  191.5660  177.9160  149.5320 C   0  0  0  0  0  1  0  0  0  0  0  0
  191.0810  177.5440  148.1440 C   0  0  0  0  0  2  0  0  0  0  0  0
  1  4  1  0  0  0  0
  2 10  1  6  0  0  0
  2  6  1  0  0  0  0
  5  7  2  0  0  0  0
  5 15  1  0  0  0  0
  6 11  1  6  0  0  0
  6 13  1  0  0  0  0
  6  4  1  0  0  0  0
  7  1  1  0  0  0  0
  8  3  1  6  0  0  0
  8  2  1  0  0  0  0
  8  7  1  0  0  0  0
  9  3  1  0  0  0  0
  9 10  1  0  0  0  0
 13 14  1  0  0  0  0
 13 12  1  0  0  0  0
 14 12  1  0  0  0  0
 15 19  1  0  0  0  0
 15 16  2  0  0  0  0
 17 24  1  0  0  0  0
 18 21  1  0  0  0  0
 19 22  1  0  0  0  0
 20 23  1  0  0  0  0
 22 21  2  0  0  0  0
 22 25  1  0  0  0  0
 23 18  2  0  0  0  0
 24 23  1  0  0  0  0
 24 19  2  0  0  0  0
 25 27  1  0  0  0  0
 27 26  1  0  0  0  0
M  END
>  <MODEL>
7

>  <REMARK>
 VINA RESULT:      -7.3      1.367      2.901
  Name = 
  5 active torsions:
  status: ('A' for Active; 'I' for Inactive)
    1  A    between atoms: C_1  and  C_7
    2  A    between atoms: C_1  and  C_19
    3  A    between atoms: C_9  and  C_21
    4  A    between atoms: C_13  and  C_14
    5  A    between atoms: C_13  and  C_25
                            x       y       z     vdW  Elec       q    Type
                         _______ _______ _______ _____ _____    ______ ____

>  <TORSDO>
F 5

$$$$
=
 OpenBabel11062421083D

 27 30  0  0  1  0  0  0  0  0999 V2000
  191.4610  176.5300  144.4380 C   0  0  0  0  0  2  0  0  0  0  0  0
  191.9270  173.8360  144.6320 N   0  0  1  0  0  0  0  0  0  0  0  0
  190.0070  173.0900  143.4700 C   0  0  0  0  0  2  0  0  0  0  0  0
  192.9240  176.1020  144.2420 C   0  0  0  0  0  2  0  0  0  0  0  0
  189.3540  175.9540  143.2160 C   0  0  0  0  0  3  0  0  0  0  0  0
  193.1980  174.6170  144.5890 C   0  0  2  0  0  0  0  0  0  0  0  0
  190.5350  175.5790  143.7260 C   0  0  0  0  0  0  0  0  0  0  0  0
  191.0510  174.1840  143.5220 C   0  0  1  0  0  3  0  0  0  0  0  0
  190.7620  171.8640  143.9470 C   0  0  0  0  0  2  0  0  0  0  0  0
  192.0770  172.3880  144.5100 C   0  0  0  0  0  2  0  0  0  0  0  0
  194.1480  174.0880  143.5170 C   0  0  0  0  0  1  0  0  0  0  0  0
  194.6750  175.9130  146.2770 C   0  0  0  0  0  2  0  0  0  0  0  0
  193.9600  174.6150  145.9380 C   0  0  0  0  0  3  0  0  0  0  0  0
  195.4640  174.7330  145.7460 C   0  0  0  0  0  2  0  0  0  0  0  0
  188.7390  177.2950  143.3040 C   0  0  0  0  0  0  0  0  0  0  0  0
  189.3360  178.3090  142.8510 O   0  0  0  0  0  0  0  0  0  0  0  0
  186.3620  177.7920  141.6080 C   0  0  0  0  0  1  0  0  0  0  0  0
  184.8550  177.7990  145.0780 C   0  0  0  0  0  3  0  0  0  0  0  0
  187.3910  177.4490  143.9080 C   0  0  0  0  0  0  0  0  0  0  0  0
  183.8780  178.1660  142.9170 O   0  0  0  0  0  1  0  0  0  0  0  0
  185.9580  177.5190  145.8790 C   0  0  0  0  0  3  0  0  0  0  0  0
  187.2220  177.3300  145.3100 C   0  0  0  0  0  0  0  0  0  0  0  0
  184.9980  177.8970  143.6950 C   0  0  0  0  0  0  0  0  0  0  0  0
  186.2580  177.7240  143.1010 C   0  0  0  0  0  0  0  0  0  0  0  0
  188.3810  177.0720  146.2290 C   0  0  0  0  0  2  0  0  0  0  0  0
  189.6880  175.1900  147.2380 C   0  0  0  0  0  1  0  0  0  0  0  0
  188.3050  175.6890  146.8620 C   0  0  0  0  0  2  0  0  0  0  0  0
  2 10  1  6  0  0  0
  3  9  1  0  0  0  0
  4  1  1  0  0  0  0
  4  6  1  0  0  0  0
  5 15  1  0  0  0  0
  5  7  2  0  0  0  0
  6 11  1  6  0  0  0
  6  2  1  0  0  0  0
  6 13  1  0  0  0  0
  7  1  1  0  0  0  0
  8  3  1  1  0  0  0
  8  7  1  0  0  0  0
  8  2  1  0  0  0  0
  9 10  1  0  0  0  0
 13 12  1  0  0  0  0
 14 13  1  0  0  0  0
 14 12  1  0  0  0  0
 15 19  1  0  0  0  0
 16 15  2  0  0  0  0
 17 24  1  0  0  0  0
 18 21  1  0  0  0  0
 19 22  1  0  0  0  0
 20 23  1  0  0  0  0
 22 21  2  0  0  0  0
 22 25  1  0  0  0  0
 23 18  2  0  0  0  0
 24 23  1  0  0  0  0
 24 19  2  0  0  0  0
 25 27  1  0  0  0  0
 27 26  1  0  0  0  0
M  END
>  <MODEL>
8

>  <REMARK>
 VINA RESULT:      -7.3      2.729      7.365
  Name = 
  5 active torsions:
  status: ('A' for Active; 'I' for Inactive)
    1  A    between atoms: C_1  and  C_7
    2  A    between atoms: C_1  and  C_19
    3  A    between atoms: C_9  and  C_21
    4  A    between atoms: C_13  and  C_14
    5  A    between atoms: C_13  and  C_25
                            x       y       z     vdW  Elec       q    Type
                         _______ _______ _______ _____ _____    ______ ____

>  <TORSDO>
F 5

$$$$
=
 OpenBabel11062421083D

 27 30  0  0  1  0  0  0  0  0999 V2000
  188.2570  177.2280  144.5240 C   0  0  0  0  0  2  0  0  0  0  0  0
  185.7350  177.8240  145.4170 N   0  0  1  0  0  0  0  0  0  0  0  0
  186.2480  178.0410  147.7150 C   0  0  0  0  0  2  0  0  0  0  0  0
  187.4530  178.1840  143.6280 C   0  0  0  0  0  2  0  0  0  0  0  0
  189.0040  177.3730  146.9080 C   0  0  0  0  0  3  0  0  0  0  0  0
  185.9610  178.3150  144.0260 C   0  0  2  0  0  0  0  0  0  0  0  0
  188.0640  177.5800  145.9750 C   0  0  0  0  0  0  0  0  0  0  0  0
  186.7820  178.2800  146.3200 C   0  0  1  0  0  3  0  0  0  0  0  0
  184.7530  178.2420  147.5560 C   0  0  0  0  0  2  0  0  0  0  0  0
  184.5050  178.2880  146.0540 C   0  0  0  0  0  2  0  0  0  0  0  0
  185.6020  179.7930  143.8860 C   0  0  0  0  0  1  0  0  0  0  0  0
  185.1140  178.1660  141.5830 C   0  0  0  0  0  2  0  0  0  0  0  0
  185.1530  177.5300  142.9630 C   0  0  0  0  0  3  0  0  0  0  0  0
  183.9180  178.2910  142.5060 C   0  0  0  0  0  2  0  0  0  0  0  0
  190.3220  176.7350  146.7090 C   0  0  0  0  0  0  0  0  0  0  0  0
  191.3330  177.1330  147.3480 O   0  0  0  0  0  0  0  0  0  0  0  0
  188.9410  174.1660  147.2260 C   0  0  0  0  0  1  0  0  0  0  0  0
  190.7670  173.4290  143.9960 C   0  0  0  0  0  3  0  0  0  0  0  0
  190.4540  175.5960  145.7650 C   0  0  0  0  0  0  0  0  0  0  0  0
  189.3740  172.0560  145.3870 O   0  0  0  0  0  1  0  0  0  0  0  0
  191.3820  174.6470  143.7210 C   0  0  0  0  0  3  0  0  0  0  0  0
  191.2250  175.7360  144.5840 C   0  0  0  0  0  0  0  0  0  0  0  0
  189.9870  173.2800  145.1410 C   0  0  0  0  0  0  0  0  0  0  0  0
  189.8240  174.3540  146.0310 C   0  0  0  0  0  0  0  0  0  0  0  0
  191.9460  177.0110  144.2560 C   0  0  0  0  0  2  0  0  0  0  0  0
  194.1710  177.0710  145.4030 C   0  0  0  0  0  1  0  0  0  0  0  0
  193.4450  176.7910  144.1000 C   0  0  0  0  0  2  0  0  0  0  0  0
  1  7  1  0  0  0  0
  2 10  1  1  0  0  0
  2  8  1  0  0  0  0
  4  6  1  0  0  0  0
  4  1  1  0  0  0  0
  6 11  1  6  0  0  0
  6  2  1  0  0  0  0
  7  8  1  0  0  0  0
  7  5  2  0  0  0  0
  8  3  1  1  0  0  0
  9  3  1  0  0  0  0
 10  9  1  0  0  0  0
 12 14  1  0  0  0  0
 12 13  1  0  0  0  0
 13  6  1  0  0  0  0
 14 13  1  0  0  0  0
 15  5  1  0  0  0  0
 15 16  2  0  0  0  0
 18 23  1  0  0  0  0
 19 24  1  0  0  0  0
 19 15  1  0  0  0  0
 21 18  2  0  0  0  0
 21 22  1  0  0  0  0
 22 19  2  0  0  0  0
 23 20  1  0  0  0  0
 23 24  2  0  0  0  0
 24 17  1  0  0  0  0
 25 22  1  0  0  0  0
 27 25  1  0  0  0  0
 27 26  1  0  0  0  0
M  END
>  <MODEL>
9

>  <REMARK>
 VINA RESULT:      -7.1      1.604      2.868
  Name = 
  5 active torsions:
  status: ('A' for Active; 'I' for Inactive)
    1  A    between atoms: C_1  and  C_7
    2  A    between atoms: C_1  and  C_19
    3  A    between atoms: C_9  and  C_21
    4  A    between atoms: C_13  and  C_14
    5  A    between atoms: C_13  and  C_25
                            x       y       z     vdW  Elec       q    Type
                         _______ _______ _______ _____ _____    ______ ____

>  <TORSDO>
F 5

$$$$
