=
 OpenBabel11062419433D

 30 33  0  0  1  0  0  0  0  0999 V2000
  186.8710  178.4660  142.8950 C   0  0  0  0  0  2  0  0  0  0  0  0
  188.1320  176.9990  146.7070 C   0  0  0  0  0  2  0  0  0  0  0  0
  189.9180  173.6590  142.1760 C   0  0  2  0  0  3  0  0  0  0  0  0
  191.7460  174.4990  146.1230 N   0  0  0  0  0  2  0  0  0  0  0  0
  186.1680  178.8650  144.1600 C   0  0  0  0  0  0  0  0  0  0  0  0
  184.8740  179.6010  144.0860 C   0  0  0  0  0  2  0  0  0  0  0  0
  184.9200  178.0850  141.4090 C   0  0  0  0  0  0  0  0  0  0  0  0
  186.9020  176.6900  141.2090 N   0  0  0  0  0  2  0  0  0  0  0  0
  189.3280  173.8740  140.8050 C   0  0  0  0  0  0  0  0  0  0  0  0
  183.7760  178.6470  143.6320 C   0  0  0  0  0  2  0  0  0  0  0  0
  183.6810  178.5890  142.1100 C   0  0  2  0  0  3  0  0  0  0  0  0
  188.7050  175.6170  146.4510 C   0  0  0  0  0  2  0  0  0  0  0  0
  189.8820  175.7020  145.4920 C   0  0  2  0  0  3  0  0  0  0  0  0
  189.6620  174.8510  143.1340 C   0  0  2  0  0  3  0  0  0  0  0  0
  187.7280  177.5860  145.4440 N   0  0  0  0  0  2  0  0  0  0  0  0
  187.8760  175.6950  141.5470 C   0  0  0  0  0  0  0  0  0  0  0  0
  189.9180  174.4770  144.6110 C   0  0  1  0  0  3  0  0  0  0  0  0
  185.0150  178.2800  140.2060 O   0  0  0  0  0  0  0  0  0  0  0  0
  188.2210  175.3780  142.9810 C   0  0  0  0  0  2  0  0  0  0  0  0
  182.5840  177.8100  141.7420 O   0  0  0  0  0  1  0  0  0  0  0  0
  191.3040  173.9410  144.8580 C   0  0  0  0  0  2  0  0  0  0  0  0
  186.5760  178.4130  145.3420 C   0  0  0  0  0  3  0  0  0  0  0  0
  188.3680  174.9530  140.5580 C   0  0  0  0  0  3  0  0  0  0  0  0
  191.1310  175.7580  146.2410 N   0  0  0  0  0  2  0  0  0  0  0  0
  189.6370  173.1010  139.8610 O   0  0  0  0  0  0  0  0  0  0  0  0
  186.0560  177.4150  142.1520 C   0  0  1  0  0  3  0  0  0  0  0  0
  191.3470  173.3680  142.0590 N   0  0  0  0  0  2  0  0  0  0  0  0
  191.1670  171.0360  142.1740 O   0  0  0  0  0  0  0  0  0  0  0  0
  191.9060  172.0490  142.0640 C   0  0  0  0  0  0  0  0  0  0  0  0
  193.3760  171.8760  141.9330 C   0  0  0  0  0  1  0  0  0  0  0  0
  1  5  1  0  0  0  0
  3 27  1  6  0  0  0
  3 14  1  0  0  0  0
  4 24  1  0  0  0  0
  5 22  2  0  0  0  0
  6  5  1  0  0  0  0
  7 11  1  0  0  0  0
  7 26  1  0  0  0  0
  8 16  1  0  0  0  0
  8 26  1  0  0  0  0
  9  3  1  0  0  0  0
 10  6  1  0  0  0  0
 11 20  1  1  0  0  0
 11 10  1  0  0  0  0
 12  2  1  0  0  0  0
 13 24  1  0  0  0  0
 13 12  1  1  0  0  0
 14 19  1  1  0  0  0
 14 17  1  0  0  0  0
 15  2  1  0  0  0  0
 16 19  1  0  0  0  0
 17 21  1  6  0  0  0
 17 13  1  0  0  0  0
 18  7  2  0  0  0  0
 21  4  1  0  0  0  0
 22 15  1  0  0  0  0
 23  9  1  0  0  0  0
 23 16  2  0  0  0  0
 25  9  2  0  0  0  0
 26  1  1  6  0  0  0
 27 29  1  0  0  0  0
 29 28  2  0  0  0  0
 30 29  1  0  0  0  0
M  END
>  <MODEL>
1

>  <REMARK>
 VINA RESULT:      -8.3      0.000      0.000
  Name = 
  1 active torsions:
  status: ('A' for Active; 'I' for Inactive)
    1  A    between atoms: C_3  and  N_5
                            x       y       z     vdW  Elec       q    Type
                         _______ _______ _______ _____ _____    ______ ____

>  <TORSDO>
F 1

$$$$
=
 OpenBabel11062419433D

 30 33  0  0  1  0  0  0  0  0999 V2000
  187.7740  177.8190  142.9780 C   0  0  0  0  0  2  0  0  0  0  0  0
  189.2050  175.5800  146.3270 C   0  0  0  0  0  2  0  0  0  0  0  0
  189.9440  172.8340  141.1510 C   0  0  2  0  0  3  0  0  0  0  0  0
  192.3030  172.7470  144.8990 N   0  0  0  0  0  2  0  0  0  0  0  0
  187.2840  178.0930  144.3710 C   0  0  0  0  0  0  0  0  0  0  0  0
  186.1200  178.9980  144.5810 C   0  0  0  0  0  2  0  0  0  0  0  0
  185.6360  177.9590  141.7260 C   0  0  0  0  0  0  0  0  0  0  0  0
  187.3450  176.3610  141.0570 N   0  0  0  0  0  2  0  0  0  0  0  0
  189.2480  173.3520  139.9180 C   0  0  0  0  0  0  0  0  0  0  0  0
  184.8450  178.2910  144.1400 C   0  0  0  0  0  2  0  0  0  0  0  0
  184.5750  178.5000  142.6530 C   0  0  2  0  0  3  0  0  0  0  0  0
  189.5270  174.1960  145.7930 C   0  0  0  0  0  2  0  0  0  0  0  0
  190.5900  174.2790  144.7090 C   0  0  2  0  0  3  0  0  0  0  0  0
  189.9830  173.8720  142.3020 C   0  0  2  0  0  3  0  0  0  0  0  0
  188.7600  176.4180  145.2310 N   0  0  0  0  0  2  0  0  0  0  0  0
  188.1840  175.2020  141.1100 C   0  0  0  0  0  0  0  0  0  0  0  0
  190.3380  173.2260  143.6580 C   0  0  1  0  0  3  0  0  0  0  0  0
  185.6270  178.3370  140.5630 O   0  0  0  0  0  0  0  0  0  0  0  0
  188.6320  174.6060  142.4220 C   0  0  0  0  0  2  0  0  0  0  0  0
  183.3370  177.9490  142.3220 O   0  0  0  0  0  1  0  0  0  0  0  0
  191.6440  172.4740  143.6360 C   0  0  0  0  0  2  0  0  0  0  0  0
  187.7460  177.3980  145.4070 C   0  0  0  0  0  3  0  0  0  0  0  0
  188.4440  174.5770  139.9650 C   0  0  0  0  0  3  0  0  0  0  0  0
  191.9070  174.0400  145.2850 N   0  0  0  0  0  2  0  0  0  0  0  0
  189.3280  172.7130  138.8370 O   0  0  0  0  0  0  0  0  0  0  0  0
  186.7300  177.0270  142.2020 C   0  0  1  0  0  3  0  0  0  0  0  0
  191.2900  172.3750  140.8030 N   0  0  0  0  0  2  0  0  0  0  0  0
  190.7630  170.1040  140.5810 O   0  0  0  0  0  0  0  0  0  0  0  0
  191.6350  171.0120  140.5310 C   0  0  0  0  0  0  0  0  0  0  0  0
  193.0360  170.6670  140.1820 C   0  0  0  0  0  1  0  0  0  0  0  0
  1  5  1  0  0  0  0
  3 27  1  6  0  0  0
  3 14  1  0  0  0  0
  4 24  1  0  0  0  0
  5  6  1  0  0  0  0
  5 22  2  0  0  0  0
  7 26  1  0  0  0  0
  7 11  1  0  0  0  0
  8 16  1  0  0  0  0
  8 26  1  0  0  0  0
  9 23  1  0  0  0  0
  9  3  1  0  0  0  0
 10  6  1  0  0  0  0
 11 20  1  6  0  0  0
 11 10  1  0  0  0  0
 12  2  1  0  0  0  0
 13 24  1  0  0  0  0
 13 12  1  1  0  0  0
 14 19  1  1  0  0  0
 14 17  1  0  0  0  0
 15 22  1  0  0  0  0
 15  2  1  0  0  0  0
 16 19  1  0  0  0  0
 17 21  1  6  0  0  0
 17 13  1  0  0  0  0
 18  7  2  0  0  0  0
 21  4  1  0  0  0  0
 23 16  2  0  0  0  0
 25  9  2  0  0  0  0
 26  1  1  6  0  0  0
 29 28  2  0  0  0  0
 29 27  1  0  0  0  0
 30 29  1  0  0  0  0
M  END
>  <MODEL>
2

>  <REMARK>
 VINA RESULT:      -8.2      1.249      1.453
  Name = 
  1 active torsions:
  status: ('A' for Active; 'I' for Inactive)
    1  A    between atoms: C_3  and  N_5
                            x       y       z     vdW  Elec       q    Type
                         _______ _______ _______ _____ _____    ______ ____

>  <TORSDO>
F 1

$$$$
=
 OpenBabel11062419433D

 30 33  0  0  1  0  0  0  0  0999 V2000
  188.1080  177.7470  144.9090 C   0  0  0  0  0  2  0  0  0  0  0  0
  189.6340  174.0690  146.4640 C   0  0  0  0  0  2  0  0  0  0  0  0
  188.8260  174.0140  140.6140 C   0  0  2  0  0  3  0  0  0  0  0  0
  191.7630  171.9450  143.2050 N   0  0  0  0  0  2  0  0  0  0  0  0
  187.9490  177.3820  146.3570 C   0  0  1  0  0  3  0  0  0  0  0  0
  187.0560  178.1940  147.2310 C   0  0  0  0  0  2  0  0  0  0  0  0
  185.8520  178.6700  144.4400 C   0  0  0  0  0  0  0  0  0  0  0  0
  187.0420  177.4120  142.7300 N   0  0  0  0  0  2  0  0  0  0  0  0
  188.0380  175.1160  139.9530 C   0  0  0  0  0  0  0  0  0  0  0  0
  185.6030  177.9070  146.8720 C   0  0  0  0  0  2  0  0  0  0  0  0
  185.1140  178.8160  145.7480 C   0  0  2  0  0  3  0  0  0  0  0  0
  189.5580  173.0730  145.3200 C   0  0  0  0  0  2  0  0  0  0  0  0
  190.3980  173.5490  144.1460 C   0  0  2  0  0  3  0  0  0  0  0  0
  189.2890  174.3810  142.0470 C   0  0  2  0  0  3  0  0  0  0  0  0
  189.1790  175.3630  145.9940 N   0  0  0  0  0  0  0  0  0  0  0  0
  187.6180  176.2860  142.0570 C   0  0  0  0  0  0  0  0  0  0  0  0
  189.7460  173.1430  142.8470 C   0  0  1  0  0  3  0  0  0  0  0  0
  185.7090  179.5480  143.6010 O   0  0  0  0  0  0  0  0  0  0  0  0
  188.1650  175.1040  142.8170 C   0  0  0  0  0  2  0  0  0  0  0  0
  183.7500  178.6100  145.5440 O   0  0  0  0  0  1  0  0  0  0  0  0
  190.8410  172.3640  142.1660 C   0  0  0  0  0  2  0  0  0  0  0  0
  188.4390  176.2410  146.8330 C   0  0  0  0  0  3  0  0  0  0  0  0
  187.5280  176.2490  140.7300 C   0  0  0  0  0  3  0  0  0  0  0  0
  191.7200  172.9380  144.2010 N   0  0  0  0  0  2  0  0  0  0  0  0
  187.7850  175.0560  138.7210 O   0  0  0  0  0  0  0  0  0  0  0  0
  186.7980  177.5200  144.1650 C   0  0  1  0  0  3  0  0  0  0  0  0
  189.9610  173.6420  139.7670 N   0  0  0  0  0  2  0  0  0  0  0  0
  188.9430  171.8080  138.7260 O   0  0  0  0  0  0  0  0  0  0  0  0
  189.9590  172.5400  138.8520 C   0  0  0  0  0  0  0  0  0  0  0  0
  191.1710  172.2620  138.0400 C   0  0  0  0  0  1  0  0  0  0  0  0
  3 27  1  6  0  0  0
  3 14  1  0  0  0  0
  4 24  1  0  0  0  0
  5  1  1  6  0  0  0
  5 22  1  0  0  0  0
  5  6  1  0  0  0  0
  7 11  1  0  0  0  0
  8 26  1  0  0  0  0
  9  3  1  0  0  0  0
  9 23  1  0  0  0  0
 10  6  1  0  0  0  0
 11 20  1  6  0  0  0
 11 10  1  0  0  0  0
 12  2  1  0  0  0  0
 13 24  1  0  0  0  0
 13 12  1  1  0  0  0
 14 19  1  1  0  0  0
 14 17  1  0  0  0  0
 15  2  1  0  0  0  0
 15 22  2  0  0  0  0
 16  8  1  0  0  0  0
 16 19  1  0  0  0  0
 17 21  1  6  0  0  0
 17 13  1  0  0  0  0
 18  7  2  0  0  0  0
 21  4  1  0  0  0  0
 23 16  2  0  0  0  0
 25  9  2  0  0  0  0
 26  7  1  0  0  0  0
 26  1  1  1  0  0  0
 28 29  2  0  0  0  0
 29 27  1  0  0  0  0
 30 29  1  0  0  0  0
M  END
>  <MODEL>
3

>  <REMARK>
 VINA RESULT:      -8.1      2.075      3.039
  Name = 
  1 active torsions:
  status: ('A' for Active; 'I' for Inactive)
    1  A    between atoms: C_3  and  N_5
                            x       y       z     vdW  Elec       q    Type
                         _______ _______ _______ _____ _____    ______ ____

>  <TORSDO>
F 1

$$$$
=
 OpenBabel11062419433D

 30 33  0  0  1  0  0  0  0  0999 V2000
  189.8480  175.2270  145.2450 C   0  0  0  0  0  2  0  0  0  0  0  0
  187.6500  178.0120  147.6300 C   0  0  0  0  0  2  0  0  0  0  0  0
  185.9000  177.8230  141.9930 C   0  0  2  0  0  3  0  0  0  0  0  0
  183.6910  178.6590  145.7410 N   0  0  0  0  0  2  0  0  0  0  0  0
  190.4040  175.7680  146.5300 C   0  0  0  0  0  0  0  0  0  0  0  0
  191.8300  175.5180  146.8820 C   0  0  0  0  0  2  0  0  0  0  0  0
  191.8710  175.3350  143.8110 C   0  0  0  0  0  0  0  0  0  0  0  0
  189.6730  175.7710  142.8630 N   0  0  0  0  0  2  0  0  0  0  0  0
  186.7450  177.1130  140.9660 C   0  0  0  0  0  0  0  0  0  0  0  0
  192.7270  176.3700  145.9930 C   0  0  0  0  0  2  0  0  0  0  0  0
  193.0590  175.6560  144.6860 C   0  0  2  0  0  3  0  0  0  0  0  0
  186.8120  178.8210  146.6560 C   0  0  0  0  0  2  0  0  0  0  0  0
  185.8690  177.9110  145.8860 C   0  0  2  0  0  3  0  0  0  0  0  0
  186.2700  177.4380  143.4480 C   0  0  2  0  0  3  0  0  0  0  0  0
  188.3890  177.0040  146.8950 N   0  0  0  0  0  2  0  0  0  0  0  0
  188.4470  176.4600  142.5940 C   0  0  0  0  0  0  0  0  0  0  0  0
  185.6880  178.4280  144.4800 C   0  0  1  0  0  3  0  0  0  0  0  0
  192.0290  174.5270  142.9080 O   0  0  0  0  0  0  0  0  0  0  0  0
  187.8010  177.3570  143.6210 C   0  0  0  0  0  2  0  0  0  0  0  0
  193.9820  176.4130  143.9650 O   0  0  0  0  0  1  0  0  0  0  0  0
  184.1930  178.5800  144.3810 C   0  0  0  0  0  2  0  0  0  0  0  0
  189.7060  176.6240  147.2710 C   0  0  0  0  0  3  0  0  0  0  0  0
  187.9640  176.3990  141.3560 C   0  0  0  0  0  3  0  0  0  0  0  0
  184.5620  177.8890  146.5320 N   0  0  0  0  0  2  0  0  0  0  0  0
  186.4220  177.1540  139.7500 O   0  0  0  0  0  0  0  0  0  0  0  0
  190.4990  175.9250  144.0570 C   0  0  1  0  0  3  0  0  0  0  0  0
  184.4830  177.5780  141.7210 N   0  0  0  0  0  2  0  0  0  0  0  0
  184.2030  179.2810  140.1380 O   0  0  0  0  0  0  0  0  0  0  0  0
  183.6950  178.3320  140.7920 C   0  0  0  0  0  0  0  0  0  0  0  0
  182.2640  177.9870  140.5960 C   0  0  0  0  0  1  0  0  0  0  0  0
  1  5  1  0  0  0  0
  3 27  1  6  0  0  0
  3 14  1  0  0  0  0
  4 24  1  0  0  0  0
  5  6  1  0  0  0  0
  5 22  2  0  0  0  0
  7 26  1  0  0  0  0
  7 11  1  0  0  0  0
  8 26  1  0  0  0  0
  9 23  1  0  0  0  0
  9  3  1  0  0  0  0
 10  6  1  0  0  0  0
 11 20  1  6  0  0  0
 11 10  1  0  0  0  0
 12  2  1  0  0  0  0
 13 24  1  0  0  0  0
 13 12  1  1  0  0  0
 14 19  1  6  0  0  0
 14 17  1  0  0  0  0
 15 22  1  0  0  0  0
 15  2  1  0  0  0  0
 16  8  1  0  0  0  0
 16 19  1  0  0  0  0
 17 21  1  6  0  0  0
 17 13  1  0  0  0  0
 18  7  2  0  0  0  0
 21  4  1  0  0  0  0
 23 16  2  0  0  0  0
 25  9  2  0  0  0  0
 26  1  1  1  0  0  0
 28 29  2  0  0  0  0
 29 27  1  0  0  0  0
 30 29  1  0  0  0  0
M  END
>  <MODEL>
4

>  <REMARK>
 VINA RESULT:      -8.0      2.307      7.037
  Name = 
  1 active torsions:
  status: ('A' for Active; 'I' for Inactive)
    1  A    between atoms: C_3  and  N_5
                            x       y       z     vdW  Elec       q    Type
                         _______ _______ _______ _____ _____    ______ ____

>  <TORSDO>
F 1

$$$$
=
 OpenBabel11062419433D

 30 33  0  0  1  0  0  0  0  0999 V2000
  190.1850  173.1310  141.8980 C   0  0  0  0  0  2  0  0  0  0  0  0
  192.8130  175.3130  144.4680 C   0  0  0  0  0  2  0  0  0  0  0  0
  187.2430  177.2760  144.5570 C   0  0  2  0  0  3  0  0  0  0  0  0
  190.3950  177.2030  147.6690 N   0  0  0  0  0  2  0  0  0  0  0  0
  191.6720  173.1200  141.6910 C   0  0  0  0  0  0  0  0  0  0  0  0
  192.2400  172.5310  140.4460 C   0  0  0  0  0  2  0  0  0  0  0  0
  189.4150  173.3560  139.5500 C   0  0  0  0  0  0  0  0  0  0  0  0
  188.1920  174.4440  141.3490 N   0  0  0  0  0  2  0  0  0  0  0  0
  186.2640  176.8080  143.5110 C   0  0  0  0  0  0  0  0  0  0  0  0
  191.9600  173.4620  139.2730 C   0  0  0  0  0  2  0  0  0  0  0  0
  190.6030  173.1690  138.6380 C   0  0  2  0  0  3  0  0  0  0  0  0
  192.0260  176.5260  144.9320 C   0  0  0  0  0  2  0  0  0  0  0  0
  190.7780  176.0910  145.6840 C   0  0  2  0  0  3  0  0  0  0  0  0
  188.5050  176.3800  144.6450 C   0  0  2  0  0  3  0  0  0  0  0  0
  191.9630  174.4910  143.6280 N   0  0  0  0  0  2  0  0  0  0  0  0
  187.9040  175.3810  142.3940 C   0  0  0  0  0  0  0  0  0  0  0  0
  189.6530  177.0620  145.4200 C   0  0  1  0  0  3  0  0  0  0  0  0
  188.3470  172.8740  139.2030 O   0  0  0  0  0  0  0  0  0  0  0  0
  188.9980  175.9890  143.2360 C   0  0  0  0  0  2  0  0  0  0  0  0
  190.4470  173.9510  137.4940 O   0  0  0  0  0  1  0  0  0  0  0  0
  189.2610  177.4890  146.8100 C   0  0  0  0  0  2  0  0  0  0  0  0
  192.4810  173.7920  142.5040 C   0  0  0  0  0  3  0  0  0  0  0  0
  186.6500  175.8100  142.5090 C   0  0  0  0  0  3  0  0  0  0  0  0
  191.0400  176.0810  147.1180 N   0  0  0  0  0  2  0  0  0  0  0  0
  185.1050  177.2970  143.4720 O   0  0  0  0  0  0  0  0  0  0  0  0
  189.5210  174.0570  140.8870 C   0  0  1  0  0  3  0  0  0  0  0  0
  186.5710  177.3770  145.8540 N   0  0  0  0  0  2  0  0  0  0  0  0
  185.8290  179.5850  145.6130 O   0  0  0  0  0  0  0  0  0  0  0  0
  185.8880  178.5450  146.3210 C   0  0  0  0  0  0  0  0  0  0  0  0
  185.2370  178.5280  147.6560 C   0  0  0  0  0  1  0  0  0  0  0  0
  2 12  1  0  0  0  0
  3 14  1  0  0  0  0
  3 27  1  1  0  0  0
  5  1  1  0  0  0  0
  5 22  2  0  0  0  0
  6  5  1  0  0  0  0
  7 26  1  0  0  0  0
  8 16  1  0  0  0  0
  9  3  1  0  0  0  0
 10  6  1  0  0  0  0
 11 20  1  6  0  0  0
 11 10  1  0  0  0  0
 11  7  1  0  0  0  0
 13 12  1  6  0  0  0
 13 24  1  0  0  0  0
 14 19  1  6  0  0  0
 14 17  1  0  0  0  0
 15  2  1  0  0  0  0
 16 23  2  0  0  0  0
 16 19  1  0  0  0  0
 17 13  1  0  0  0  0
 17 21  1  1  0  0  0
 18  7  2  0  0  0  0
 21  4  1  0  0  0  0
 22 15  1  0  0  0  0
 23  9  1  0  0  0  0
 24  4  1  0  0  0  0
 25  9  2  0  0  0  0
 26  8  1  0  0  0  0
 26  1  1  1  0  0  0
 27 29  1  0  0  0  0
 28 29  2  0  0  0  0
 29 30  1  0  0  0  0
M  END
>  <MODEL>
5

>  <REMARK>
 VINA RESULT:      -7.9      2.117      6.703
  Name = 
  1 active torsions:
  status: ('A' for Active; 'I' for Inactive)
    1  A    between atoms: C_3  and  N_5
                            x       y       z     vdW  Elec       q    Type
                         _______ _______ _______ _____ _____    ______ ____

>  <TORSDO>
F 1

$$$$
=
 OpenBabel11062419433D

 30 33  0  0  1  0  0  0  0  0999 V2000
  189.2900  172.4320  142.3470 C   0  0  0  0  0  2  0  0  0  0  0  0
  192.2290  173.7970  145.1360 C   0  0  0  0  0  2  0  0  0  0  0  0
  187.9650  177.7410  144.0670 C   0  0  2  0  0  3  0  0  0  0  0  0
  190.3980  176.9330  147.6800 N   0  0  0  0  0  2  0  0  0  0  0  0
  190.6590  171.8180  142.4060 C   0  0  0  0  0  0  0  0  0  0  0  0
  191.0930  170.8740  141.3380 C   0  0  0  0  0  2  0  0  0  0  0  0
  188.9810  172.5780  139.8890 C   0  0  0  0  0  0  0  0  0  0  0  0
  188.0850  174.3120  141.3410 N   0  0  0  0  0  2  0  0  0  0  0  0
  187.0210  177.5340  142.9110 C   0  0  0  0  0  0  0  0  0  0  0  0
  191.3630  171.6520  140.0560 C   0  0  0  0  0  2  0  0  0  0  0  0
  190.0960  171.8110  139.2210 C   0  0  2  0  0  3  0  0  0  0  0  0
  191.9470  175.2740  145.3440 C   0  0  0  0  0  2  0  0  0  0  0  0
  190.5470  175.4730  145.9000 C   0  0  2  0  0  3  0  0  0  0  0  0
  188.7350  176.4530  144.4550 C   0  0  2  0  0  3  0  0  0  0  0  0
  191.2330  173.2480  144.2350 N   0  0  0  0  0  2  0  0  0  0  0  0
  188.0710  175.4330  142.2310 C   0  0  0  0  0  0  0  0  0  0  0  0
  189.9530  176.7500  145.3560 C   0  0  1  0  0  3  0  0  0  0  0  0
  187.8610  172.4970  139.4030 O   0  0  0  0  0  0  0  0  0  0  0  0
  189.2020  175.6940  143.1960 C   0  0  0  0  0  2  0  0  0  0  0  0
  190.4150  172.4100  138.0030 O   0  0  0  0  0  1  0  0  0  0  0  0
  189.5950  177.5000  146.6120 C   0  0  0  0  0  2  0  0  0  0  0  0
  191.5610  172.2420  143.2860 C   0  0  0  0  0  3  0  0  0  0  0  0
  187.0940  176.3250  142.0850 C   0  0  0  0  0  3  0  0  0  0  0  0
  190.5990  175.5800  147.3530 N   0  0  0  0  0  2  0  0  0  0  0  0
  186.1740  178.4200  142.6250 O   0  0  0  0  0  0  0  0  0  0  0  0
  189.1910  173.3780  141.1560 C   0  0  1  0  0  3  0  0  0  0  0  0
  187.2340  178.2880  145.2110 N   0  0  0  0  0  2  0  0  0  0  0  0
  185.7260  176.5120  145.4540 O   0  0  0  0  0  0  0  0  0  0  0  0
  186.1340  177.6340  145.8550 C   0  0  0  0  0  0  0  0  0  0  0  0
  185.4710  178.2860  147.0130 C   0  0  0  0  0  1  0  0  0  0  0  0
  1  5  1  0  0  0  0
  2 12  1  0  0  0  0
  3 14  1  0  0  0  0
  3 27  1  1  0  0  0
  5 22  2  0  0  0  0
  6  5  1  0  0  0  0
  7 26  1  0  0  0  0
  8 16  1  0  0  0  0
  9  3  1  0  0  0  0
 10  6  1  0  0  0  0
 11 20  1  6  0  0  0
 11  7  1  0  0  0  0
 11 10  1  0  0  0  0
 13 12  1  6  0  0  0
 13 24  1  0  0  0  0
 14 19  1  6  0  0  0
 14 17  1  0  0  0  0
 15  2  1  0  0  0  0
 16 19  1  0  0  0  0
 17 13  1  0  0  0  0
 17 21  1  1  0  0  0
 18  7  2  0  0  0  0
 21  4  1  0  0  0  0
 22 15  1  0  0  0  0
 23 16  2  0  0  0  0
 23  9  1  0  0  0  0
 24  4  1  0  0  0  0
 25  9  2  0  0  0  0
 26  8  1  0  0  0  0
 26  1  1  1  0  0  0
 27 29  1  0  0  0  0
 28 29  2  0  0  0  0
 29 30  1  0  0  0  0
M  END
>  <MODEL>
6

>  <REMARK>
 VINA RESULT:      -7.5      2.125      6.577
  Name = 
  1 active torsions:
  status: ('A' for Active; 'I' for Inactive)
    1  A    between atoms: C_3  and  N_5
                            x       y       z     vdW  Elec       q    Type
                         _______ _______ _______ _____ _____    ______ ____

>  <TORSDO>
F 1

$$$$
=
 OpenBabel11062419433D

 30 33  0  0  1  0  0  0  0  0999 V2000
  191.6040  173.6280  144.6380 C   0  0  0  0  0  2  0  0  0  0  0  0
  190.6070  176.5900  147.5550 C   0  0  0  0  0  2  0  0  0  0  0  0
  187.4330  176.9920  142.5920 C   0  0  2  0  0  3  0  0  0  0  0  0
  186.4580  177.9580  146.8030 N   0  0  0  0  0  2  0  0  0  0  0  0
  192.5610  174.0020  145.7330 C   0  0  0  0  0  0  0  0  0  0  0  0
  193.9660  173.5100  145.6870 C   0  0  0  0  0  2  0  0  0  0  0  0
  193.1680  173.4920  142.7160 C   0  0  0  0  0  0  0  0  0  0  0  0
  190.9040  174.3230  142.3970 N   0  0  0  0  0  2  0  0  0  0  0  0
  187.8480  176.2140  141.3680 C   0  0  0  0  0  0  0  0  0  0  0  0
  194.7270  174.2570  144.6000 C   0  0  0  0  0  2  0  0  0  0  0  0
  194.5800  173.5730  143.2440 C   0  0  2  0  0  3  0  0  0  0  0  0
  189.6910  177.5740  146.8500 C   0  0  0  0  0  2  0  0  0  0  0  0
  188.4400  176.8690  146.3520 C   0  0  2  0  0  3  0  0  0  0  0  0
  188.1020  176.4730  143.8900 C   0  0  2  0  0  3  0  0  0  0  0  0
  190.9480  175.5190  146.6380 N   0  0  0  0  0  2  0  0  0  0  0  0
  189.7830  175.2110  142.4740 C   0  0  0  0  0  0  0  0  0  0  0  0
  187.9860  177.4840  145.0510 C   0  0  1  0  0  3  0  0  0  0  0  0
  192.9450  172.7210  141.7950 O   0  0  0  0  0  0  0  0  0  0  0  0
  189.5890  176.1410  143.6460 C   0  0  0  0  0  2  0  0  0  0  0  0
  195.3950  174.2120  142.3090 O   0  0  0  0  0  1  0  0  0  0  0  0
  186.5640  177.8770  145.3580 C   0  0  0  0  0  2  0  0  0  0  0  0
  192.2350  174.9160  146.6430 C   0  0  0  0  0  3  0  0  0  0  0  0
  188.9890  175.2960  141.4100 C   0  0  0  0  0  3  0  0  0  0  0  0
  187.3650  177.0180  147.3240 N   0  0  0  0  0  2  0  0  0  0  0  0
  187.2280  176.3720  140.2840 O   0  0  0  0  0  0  0  0  0  0  0  0
  192.0280  174.2780  143.3270 C   0  0  1  0  0  3  0  0  0  0  0  0
  185.9740  176.9890  142.7080 N   0  0  0  0  0  2  0  0  0  0  0  0
  185.6050  179.0410  141.6400 O   0  0  0  0  0  0  0  0  0  0  0  0
  185.1220  178.0310  142.2170 C   0  0  0  0  0  0  0  0  0  0  0  0
  183.6510  177.9160  142.3880 C   0  0  0  0  0  1  0  0  0  0  0  0
  1  5  1  0  0  0  0
  3 27  1  1  0  0  0
  3 14  1  0  0  0  0
  4 24  1  0  0  0  0
  5 22  2  0  0  0  0
  6  5  1  0  0  0  0
  7 11  1  0  0  0  0
  7 26  1  0  0  0  0
  8 16  1  0  0  0  0
  8 26  1  0  0  0  0
  9 23  1  0  0  0  0
  9  3  1  0  0  0  0
 10  6  1  0  0  0  0
 11 20  1  6  0  0  0
 11 10  1  0  0  0  0
 12  2  1  0  0  0  0
 13 12  1  1  0  0  0
 13 24  1  0  0  0  0
 14 19  1  6  0  0  0
 14 17  1  0  0  0  0
 15 22  1  0  0  0  0
 15  2  1  0  0  0  0
 16 19  1  0  0  0  0
 17 21  1  1  0  0  0
 17 13  1  0  0  0  0
 18  7  2  0  0  0  0
 21  4  1  0  0  0  0
 23 16  2  0  0  0  0
 25  9  2  0  0  0  0
 26  1  1  1  0  0  0
 28 29  2  0  0  0  0
 29 30  1  0  0  0  0
 29 27  1  0  0  0  0
M  END
>  <MODEL>
7

>  <REMARK>
 VINA RESULT:      -7.5      1.992      7.193
  Name = 
  1 active torsions:
  status: ('A' for Active; 'I' for Inactive)
    1  A    between atoms: C_3  and  N_5
                            x       y       z     vdW  Elec       q    Type
                         _______ _______ _______ _____ _____    ______ ____

>  <TORSDO>
F 1

$$$$
=
 OpenBabel11062419433D

 30 33  0  0  1  0  0  0  0  0999 V2000
  185.9830  176.4160  145.5460 C   0  0  0  0  0  2  0  0  0  0  0  0
  186.8720  176.6450  141.3710 C   0  0  0  0  0  2  0  0  0  0  0  0
  191.3670  174.6540  144.6440 C   0  0  2  0  0  3  0  0  0  0  0  0
  190.1440  173.7910  140.4750 N   0  0  0  0  0  2  0  0  0  0  0  0
  185.1940  177.3010  144.6240 C   0  0  1  0  0  3  0  0  0  0  0  0
  184.2340  178.2890  145.1910 C   0  0  0  0  0  2  0  0  0  0  0  0
  186.2390  177.9290  147.4960 C   0  0  0  0  0  0  0  0  0  0  0  0
  188.0320  176.4010  146.8880 N   0  0  0  0  0  2  0  0  0  0  0  0
  191.3170  174.7800  146.1460 C   0  0  0  0  0  0  0  0  0  0  0  0
  185.0070  179.4350  145.8300 C   0  0  0  0  0  2  0  0  0  0  0  0
  185.3530  179.1340  147.2850 C   0  0  2  0  0  3  0  0  0  0  0  0
  188.3670  176.4060  141.2520 C   0  0  0  0  0  2  0  0  0  0  0  0
  188.7300  175.0370  141.8040 C   0  0  2  0  0  3  0  0  0  0  0  0
  189.9780  174.8360  143.9790 C   0  0  2  0  0  3  0  0  0  0  0  0
  186.4840  176.5300  142.7630 N   0  0  0  0  0  0  0  0  0  0  0  0
  189.1190  175.8490  146.1370 C   0  0  0  0  0  0  0  0  0  0  0  0
  190.0880  175.0900  142.4600 C   0  0  1  0  0  3  0  0  0  0  0  0
  186.3180  177.4690  148.6260 O   0  0  0  0  0  0  0  0  0  0  0  0
  189.2020  175.9940  144.6380 C   0  0  0  0  0  2  0  0  0  0  0  0
  185.9410  180.2570  147.8660 O   0  0  0  0  0  1  0  0  0  0  0  0
  190.8420  174.0100  141.7290 C   0  0  0  0  0  2  0  0  0  0  0  0
  185.4720  177.3550  143.3250 C   0  0  0  0  0  3  0  0  0  0  0  0
  190.1340  175.3230  146.8180 C   0  0  0  0  0  3  0  0  0  0  0  0
  188.7870  174.0640  140.7200 N   0  0  0  0  0  2  0  0  0  0  0  0
  192.3140  174.4430  146.8370 O   0  0  0  0  0  0  0  0  0  0  0  0
  186.9670  177.2480  146.3580 C   0  0  1  0  0  3  0  0  0  0  0  0
  191.9710  173.3730  144.2750 N   0  0  0  0  0  2  0  0  0  0  0  0
  194.1580  174.1640  144.0010 O   0  0  0  0  0  0  0  0  0  0  0  0
  193.3580  173.1920  143.9680 C   0  0  0  0  0  0  0  0  0  0  0  0
  193.8580  171.8400  143.6100 C   0  0  0  0  0  1  0  0  0  0  0  0
  2 15  1  0  0  0  0
  3 27  1  1  0  0  0
  3  9  1  0  0  0  0
  4 24  1  0  0  0  0
  4 21  1  0  0  0  0
  5 22  1  1  0  0  0
  5  6  1  0  0  0  0
  5  1  1  0  0  0  0
  6 10  1  0  0  0  0
  7 18  2  0  0  0  0
  9 23  1  0  0  0  0
  9 25  2  0  0  0  0
 10 11  1  0  0  0  0
 11  7  1  0  0  0  0
 11 20  1  6  0  0  0
 12  2  1  0  0  0  0
 13 12  1  6  0  0  0
 13 17  1  0  0  0  0
 14 19  1  1  0  0  0
 14  3  1  0  0  0  0
 15 22  2  0  0  0  0
 16 23  2  0  0  0  0
 16  8  1  0  0  0  0
 17 21  1  6  0  0  0
 17 14  1  0  0  0  0
 19 16  1  0  0  0  0
 24 13  1  0  0  0  0
 26  1  1  1  0  0  0
 26  8  1  0  0  0  0
 26  7  1  0  0  0  0
 29 28  2  0  0  0  0
 29 27  1  0  0  0  0
 30 29  1  0  0  0  0
M  END
>  <MODEL>
8

>  <REMARK>
 VINA RESULT:      -7.4      2.904      4.693
  Name = 
  1 active torsions:
  status: ('A' for Active; 'I' for Inactive)
    1  A    between atoms: C_3  and  N_5
                            x       y       z     vdW  Elec       q    Type
                         _______ _______ _______ _____ _____    ______ ____

>  <TORSDO>
F 1

$$$$
=
 OpenBabel11062419433D

 30 33  0  0  1  0  0  0  0  0999 V2000
  190.0100  172.7860  141.6660 C   0  0  0  0  0  2  0  0  0  0  0  0
  191.2370  174.2830  145.4780 C   0  0  0  0  0  2  0  0  0  0  0  0
  186.8940  177.4160  142.9890 C   0  0  2  0  0  3  0  0  0  0  0  0
  187.8780  176.5860  147.2280 N   0  0  0  0  0  2  0  0  0  0  0  0
  191.3560  172.4530  142.2420 C   0  0  0  0  0  0  0  0  0  0  0  0
  192.3790  171.7810  141.3910 C   0  0  0  0  0  2  0  0  0  0  0  0
  190.6390  173.2260  139.3060 C   0  0  0  0  0  0  0  0  0  0  0  0
  188.8680  174.5160  140.3620 N   0  0  0  0  0  2  0  0  0  0  0  0
  186.5440  177.1970  141.5390 C   0  0  0  0  0  0  0  0  0  0  0  0
  192.9230  172.7760  140.3750 C   0  0  0  0  0  2  0  0  0  0  0  0
  192.0740  172.8020  139.1070 C   0  0  2  0  0  3  0  0  0  0  0  0
  190.5510  175.6280  145.6350 C   0  0  0  0  0  2  0  0  0  0  0  0
  189.0410  175.4610  145.5840 C   0  0  2  0  0  3  0  0  0  0  0  0
  187.7420  176.2630  143.5840 C   0  0  2  0  0  3  0  0  0  0  0  0
  190.8250  173.6850  144.2220 N   0  0  0  0  0  2  0  0  0  0  0  0
  188.2450  175.4700  141.2300 C   0  0  0  0  0  0  0  0  0  0  0  0
  188.4130  176.6600  144.9170 C   0  0  1  0  0  3  0  0  0  0  0  0
  189.8450  172.9970  138.4040 O   0  0  0  0  0  0  0  0  0  0  0  0
  188.8220  175.8050  142.5840 C   0  0  0  0  0  2  0  0  0  0  0  0
  192.6800  173.6250  138.1580 O   0  0  0  0  0  1  0  0  0  0  0  0
  187.4330  177.1330  145.9590 C   0  0  0  0  0  2  0  0  0  0  0  0
  191.7230  172.9140  143.4340 C   0  0  0  0  0  3  0  0  0  0  0  0
  187.2150  176.1610  140.7500 C   0  0  0  0  0  3  0  0  0  0  0  0
  188.5070  175.3620  146.9370 N   0  0  0  0  0  2  0  0  0  0  0  0
  185.6840  177.9300  140.9830 O   0  0  0  0  0  0  0  0  0  0  0  0
  190.1500  173.8570  140.5910 C   0  0  1  0  0  3  0  0  0  0  0  0
  185.6720  177.6340  143.7660 N   0  0  0  0  0  2  0  0  0  0  0  0
  185.7870  179.9720  143.8180 O   0  0  0  0  0  0  0  0  0  0  0  0
  185.1740  178.9220  144.1450 C   0  0  0  0  0  0  0  0  0  0  0  0
  183.9180  179.0180  144.9310 C   0  0  0  0  0  1  0  0  0  0  0  0
  1  5  1  0  0  0  0
  2 12  1  0  0  0  0
  3 14  1  0  0  0  0
  3 27  1  1  0  0  0
  5 22  2  0  0  0  0
  6  5  1  0  0  0  0
  7 26  1  0  0  0  0
  8 26  1  0  0  0  0
  8 16  1  0  0  0  0
  9  3  1  0  0  0  0
 10  6  1  0  0  0  0
 11 20  1  6  0  0  0
 11  7  1  0  0  0  0
 11 10  1  0  0  0  0
 13 12  1  1  0  0  0
 13 24  1  0  0  0  0
 14 19  1  6  0  0  0
 14 17  1  0  0  0  0
 15  2  1  0  0  0  0
 16 19  1  0  0  0  0
 17 13  1  0  0  0  0
 17 21  1  1  0  0  0
 18  7  2  0  0  0  0
 21  4  1  0  0  0  0
 22 15  1  0  0  0  0
 23 16  2  0  0  0  0
 23  9  1  0  0  0  0
 24  4  1  0  0  0  0
 25  9  2  0  0  0  0
 26  1  1  1  0  0  0
 27 29  1  0  0  0  0
 28 29  2  0  0  0  0
 29 30  1  0  0  0  0
M  END
>  <MODEL>
9

>  <REMARK>
 VINA RESULT:      -7.2      1.846      6.944
  Name = 
  1 active torsions:
  status: ('A' for Active; 'I' for Inactive)
    1  A    between atoms: C_3  and  N_5
                            x       y       z     vdW  Elec       q    Type
                         _______ _______ _______ _____ _____    ______ ____

>  <TORSDO>
F 1

$$$$
