=
 OpenBabel11062420113D

 52 56  0  0  1  0  0  0  0  0999 V2000
  192.9640  176.5190  146.6340 N   0  0  0  0  0  0  0  0  0  0  0  0
  193.9340  175.2630  144.8260 C   0  0  0  0  0  0  0  0  0  0  0  0
  195.0080  176.1750  144.8120 C   0  0  0  0  0  0  0  0  0  0  0  0
  192.8930  175.4680  145.7710 C   0  0  0  0  0  0  0  0  0  0  0  0
  194.0030  177.3920  146.6340 C   0  0  0  0  0  3  0  0  0  0  0  0
  195.0450  177.2330  145.7260 C   0  0  0  0  0  3  0  0  0  0  0  0
  197.1490  175.0530  144.2300 O   0  0  0  0  0  1  0  0  0  0  0  0
  196.7250  177.1900  143.4400 O   0  0  0  0  0  0  0  0  0  0  0  0
  196.0550  176.4210  142.4630 C   0  0  2  0  0  3  0  0  0  0  0  0
  196.1620  175.9790  143.8780 C   0  0  2  0  0  0  0  0  0  0  0  0
  197.0720  175.7330  141.5640 C   0  0  0  0  0  2  0  0  0  0  0  0
  194.4750  174.2620  140.1490 C   0  0  2  0  0  3  0  0  0  0  0  0
  196.5200  175.5570  140.1660 C   0  0  2  0  0  3  0  0  0  0  0  0
  195.0070  175.6730  140.2110 C   0  0  0  0  0  2  0  0  0  0  0  0
  195.5080  173.4940  139.3580 C   0  0  0  0  0  2  0  0  0  0  0  0
  196.8350  174.1610  139.6580 C   0  0  0  0  0  2  0  0  0  0  0  0
  192.1000  174.1390  140.2370 O   0  0  0  0  0  0  0  0  0  0  0  0
  193.1260  174.1680  139.5050 C   0  0  0  0  0  0  0  0  0  0  0  0
  192.9930  174.1450  138.0830 N   0  0  0  0  0  2  0  0  0  0  0  0
  191.7050  173.9790  137.4290 C   0  0  1  0  0  3  0  0  0  0  0  0
  191.9190  173.7110  135.9450 C   0  0  0  0  0  1  0  0  0  0  0  0
  189.4090  173.1910  138.1090 C   0  0  0  0  0  1  0  0  0  0  0  0
  191.1300  171.5770  137.4630 N   0  0  0  0  0  1  0  0  0  0  0  0
  190.9000  172.8670  138.1090 C   0  0  1  0  0  3  0  0  0  0  0  0
  191.6870  174.5890  145.8470 C   0  0  0  0  0  2  0  0  0  0  0  0
  190.4330  175.3990  146.1580 C   0  0  0  0  0  2  0  0  0  0  0  0
  189.3860  174.5220  146.8350 C   0  0  0  0  0  2  0  0  0  0  0  0
  188.1640  175.3500  147.2220 C   0  0  0  0  0  2  0  0  0  0  0  0
  188.2520  176.7580  146.6510 C   0  0  0  0  0  2  0  0  0  0  0  0
  186.9620  177.5340  146.8460 C   0  0  0  0  0  2  0  0  0  0  0  0
  185.8580  176.9550  145.9820 C   0  0  1  0  0  3  0  0  0  0  0  0
  184.7020  177.9510  145.9160 C   0  0  0  0  0  2  0  0  0  0  0  0
  185.6050  177.7660  144.7130 C   0  0  1  0  0  0  0  0  0  0  0  0
  185.8320  179.9400  143.6830 O   0  0  0  0  0  1  0  0  0  0  0  0
  186.5290  178.9430  144.3800 C   0  0  2  0  0  3  0  0  0  0  0  0
  187.7840  178.5010  143.6230 C   0  0  0  0  0  2  0  0  0  0  0  0
  187.6000  178.5830  142.2350 O   0  0  0  0  0  0  0  0  0  0  0  0
  188.8060  178.1100  141.7040 C   0  0  0  0  0  2  0  0  0  0  0  0
  189.3370  176.9340  142.5100 C   0  0  2  0  0  3  0  0  0  0  0  0
  190.7050  177.0730  142.7380 O   0  0  0  0  0  1  0  0  0  0  0  0
  189.0630  175.6800  141.8270 N   0  0  0  0  0  2  0  0  0  0  0  0
  188.7470  174.7090  142.8580 C   0  0  0  0  0  2  0  0  0  0  0  0
  189.2710  172.4350  143.6700 C   0  0  0  0  0  1  0  0  0  0  0  0
  189.8000  173.6170  142.8800 C   0  0  0  0  0  2  0  0  0  0  0  0
  185.0510  177.0020  143.6790 O   0  0  0  0  0  0  0  0  0  0  0  0
  184.0940  177.7620  143.1240 O   0  0  0  0  0  0  0  0  0  0  0  0
  184.0090  177.8850  141.7390 C   0  0  0  0  0  3  0  0  0  0  0  0
  182.9060  178.0940  141.1840 O   0  0  0  0  0  0  0  0  0  0  0  0
  193.9680  174.2010  143.9010 O   0  0  0  0  0  0  0  0  0  0  0  0
  194.3800  172.8760  144.1700 C   0  0  0  0  0  3  0  0  0  0  0  0
  193.2910  171.9220  143.7290 C   0  0  0  0  0  2  0  0  0  0  0  0
  194.5190  172.1250  142.8710 C   0  0  0  0  0  2  0  0  0  0  0  0
  2  4  1  0  0  0  0
  3  2  2  0  0  0  0
  3  6  1  0  0  0  0
  4 25  1  0  0  0  0
  4  1  2  0  0  0  0
  5  1  1  0  0  0  0
  6  5  2  0  0  0  0
  8 10  1  0  0  0  0
  9 11  1  6  0  0  0
  9  8  1  0  0  0  0
  9 10  1  0  0  0  0
 10  7  1  1  0  0  0
 10  3  1  0  0  0  0
 12 18  1  6  0  0  0
 12 14  1  0  0  0  0
 13 14  1  0  0  0  0
 13 11  1  1  0  0  0
 15 16  1  0  0  0  0
 15 12  1  0  0  0  0
 16 13  1  0  0  0  0
 18 17  2  0  0  0  0
 19 18  1  0  0  0  0
 20 21  1  6  0  0  0
 20 19  1  0  0  0  0
 20 24  1  0  0  0  0
 23 24  1  0  0  0  0
 24 22  1  6  0  0  0
 25 26  1  0  0  0  0
 26 27  1  0  0  0  0
 27 28  1  0  0  0  0
 29 30  1  0  0  0  0
 29 28  1  0  0  0  0
 31 30  1  1  0  0  0
 32 31  1  0  0  0  0
 33 45  1  6  0  0  0
 33 32  1  0  0  0  0
 33 31  1  0  0  0  0
 35 34  1  6  0  0  0
 35 33  1  0  0  0  0
 36 35  1  0  0  0  0
 37 36  1  0  0  0  0
 38 37  1  0  0  0  0
 38 39  1  0  0  0  0
 39 40  1  6  0  0  0
 41 39  1  0  0  0  0
 41 42  1  0  0  0  0
 42 44  1  0  0  0  0
 44 43  1  0  0  0  0
 46 45  1  0  0  0  0
 47 46  1  0  0  0  0
 48 47  2  0  0  0  0
 49 50  1  0  0  0  0
 49  2  1  0  0  0  0
 51 50  1  0  0  0  0
 52 51  1  0  0  0  0
 52 50  1  0  0  0  0
M  END
>  <MODEL>
1

>  <REMARK>
 VINA RESULT:      -5.4      0.000      0.000
  Name = 
  26 active torsions:
  status: ('A' for Active; 'I' for Inactive)
    1  A    between atoms: C_2  and  C_21
    2  A    between atoms: C_2  and  C_22
    3  A    between atoms: C_3  and  C_19
    4  A    between atoms: C_4  and  C_5
    5  A    between atoms: C_4  and  C_34
    6  A    between atoms: C_6  and  N_31
    7  A    between atoms: C_6  and  C_39
    8  A    between atoms: O_7  and  C_37
    9  A    between atoms: O_7  and  O_40
   10  A    between atoms: C_8  and  N_25
   11  A    between atoms: C_8  and  C_43
   12  A    between atoms: C_12  and  C_41
   13  A    between atoms: C_12  and  O_50
   14  A    between atoms: O_14  and  C_15
   15  A    between atoms: O_14  and  C_16
   16  A    between atoms: C_18  and  C_24
   17  A    between atoms: C_18  and  C_29
   18  A    between atoms: C_21  and  C_26
   19  A    between atoms: C_23  and  C_48
   20  A    between atoms: C_24  and  C_42
   21  A    between atoms: N_25  and  C_30
   22  A    between atoms: C_26  and  C_29
   23  A    between atoms: C_28  and  O_40
   24  A    between atoms: C_28  and  C_41
   25  A    between atoms: C_30  and  C_44
   26  A    between atoms: C_43  and  O_50
                            x       y       z     vdW  Elec       q    Type
                         _______ _______ _______ _____ _____    ______ ____

>  <TORSDO>
F 26

$$$$
=
 OpenBabel11062420113D

 52 56  0  0  1  0  0  0  0  0999 V2000
  191.0510  176.3580  144.4370 N   0  0  0  0  0  0  0  0  0  0  0  0
  193.0830  175.1280  144.0610 C   0  0  0  0  0  0  0  0  0  0  0  0
  193.4200  176.0550  143.0550 C   0  0  0  0  0  0  0  0  0  0  0  0
  191.8540  175.3050  144.7510 C   0  0  0  0  0  0  0  0  0  0  0  0
  191.3770  177.2620  143.4790 C   0  0  0  0  0  3  0  0  0  0  0  0
  192.5690  177.1290  142.7740 C   0  0  0  0  0  3  0  0  0  0  0  0
  195.8770  176.4260  142.9720 O   0  0  0  0  0  1  0  0  0  0  0  0
  194.6550  176.4050  141.0020 O   0  0  0  0  0  0  0  0  0  0  0  0
  194.8690  175.0200  141.1840 C   0  0  2  0  0  3  0  0  0  0  0  0
  194.7270  175.9530  142.3310 C   0  0  2  0  0  0  0  0  0  0  0  0
  196.3240  174.6830  140.8890 C   0  0  0  0  0  2  0  0  0  0  0  0
  194.2630  172.3900  139.6990 C   0  0  2  0  0  3  0  0  0  0  0  0
  196.4340  173.3410  140.1980 C   0  0  2  0  0  3  0  0  0  0  0  0
  195.3650  173.2460  139.1230 C   0  0  0  0  0  2  0  0  0  0  0  0
  194.9620  171.4540  140.6570 C   0  0  0  0  0  2  0  0  0  0  0  0
  196.1540  172.2240  141.1890 C   0  0  0  0  0  2  0  0  0  0  0  0
  194.1420  171.0560  137.7330 O   0  0  0  0  0  0  0  0  0  0  0  0
  193.5050  171.6260  138.6590 C   0  0  0  0  0  0  0  0  0  0  0  0
  192.0830  171.5110  138.7260 N   0  0  0  0  0  2  0  0  0  0  0  0
  191.3110  170.8390  137.6920 C   0  0  1  0  0  3  0  0  0  0  0  0
  190.9610  169.4300  138.1540 C   0  0  0  0  0  1  0  0  0  0  0  0
  190.3710  173.1530  137.3510 C   0  0  0  0  0  1  0  0  0  0  0  0
  189.5320  171.2710  136.0330 N   0  0  0  0  0  1  0  0  0  0  0  0
  190.0670  171.6590  137.3370 C   0  0  1  0  0  3  0  0  0  0  0  0
  191.3770  174.3600  145.8070 C   0  0  0  0  0  2  0  0  0  0  0  0
  190.8520  175.1130  147.0240 C   0  0  0  0  0  2  0  0  0  0  0  0
  189.3760  174.8060  147.2450 C   0  0  0  0  0  2  0  0  0  0  0  0
  188.5450  176.0840  147.1720 C   0  0  0  0  0  2  0  0  0  0  0  0
  187.7890  176.1700  145.8530 C   0  0  0  0  0  2  0  0  0  0  0  0
  187.5000  177.6070  145.4550 C   0  0  0  0  0  2  0  0  0  0  0  0
  186.0510  177.7600  145.0340 C   0  0  1  0  0  3  0  0  0  0  0  0
  185.8770  179.1020  144.3250 C   0  0  0  0  0  2  0  0  0  0  0  0
  185.8730  177.8200  143.5180 C   0  0  1  0  0  0  0  0  0  0  0  0
  187.3950  178.7560  141.8920 O   0  0  0  0  0  1  0  0  0  0  0  0
  187.0880  177.5930  142.6120 C   0  0  2  0  0  3  0  0  0  0  0  0
  186.9060  176.3880  141.6850 C   0  0  0  0  0  2  0  0  0  0  0  0
  187.2270  175.1880  142.3360 O   0  0  0  0  0  0  0  0  0  0  0  0
  188.6210  175.1160  142.2490 C   0  0  0  0  0  2  0  0  0  0  0  0
  189.0690  173.7720  141.6920 C   0  0  2  0  0  3  0  0  0  0  0  0
  187.9650  172.9900  141.3540 O   0  0  0  0  0  1  0  0  0  0  0  0
  189.9090  173.0750  142.6510 N   0  0  0  0  0  2  0  0  0  0  0  0
  191.1780  172.8360  141.9900 C   0  0  0  0  0  2  0  0  0  0  0  0
  190.9410  170.3780  142.1050 C   0  0  0  0  0  1  0  0  0  0  0  0
  191.8030  171.5580  142.5180 C   0  0  0  0  0  2  0  0  0  0  0  0
  184.6060  177.3970  143.1010 O   0  0  0  0  0  0  0  0  0  0  0  0
  184.0380  178.4530  142.4990 O   0  0  0  0  0  0  0  0  0  0  0  0
  183.5630  178.3460  141.1940 C   0  0  0  0  0  3  0  0  0  0  0  0
  184.3400  178.0570  140.2540 O   0  0  0  0  0  0  0  0  0  0  0  0
  193.9940  174.0840  144.3190 O   0  0  0  0  0  0  0  0  0  0  0  0
  194.5570  173.7620  145.5740 C   0  0  0  0  0  3  0  0  0  0  0  0
  195.9970  173.3430  145.3760 C   0  0  0  0  0  2  0  0  0  0  0  0
  195.6700  174.7300  145.8830 C   0  0  0  0  0  2  0  0  0  0  0  0
  1  4  1  0  0  0  0
  2 49  1  0  0  0  0
  2  4  2  0  0  0  0
  3  2  1  0  0  0  0
  4 25  1  0  0  0  0
  5  1  2  0  0  0  0
  6  3  2  0  0  0  0
  6  5  1  0  0  0  0
  8  9  1  0  0  0  0
  8 10  1  0  0  0  0
  9 11  1  6  0  0  0
  9 10  1  0  0  0  0
 10  7  1  1  0  0  0
 10  3  1  0  0  0  0
 12 18  1  6  0  0  0
 12 15  1  0  0  0  0
 13 11  1  1  0  0  0
 13 16  1  0  0  0  0
 14 12  1  0  0  0  0
 14 13  1  0  0  0  0
 15 16  1  0  0  0  0
 17 18  2  0  0  0  0
 18 19  1  0  0  0  0
 20 21  1  1  0  0  0
 20 19  1  0  0  0  0
 23 24  1  0  0  0  0
 24 22  1  6  0  0  0
 24 20  1  0  0  0  0
 25 26  1  0  0  0  0
 26 27  1  0  0  0  0
 28 27  1  0  0  0  0
 29 28  1  0  0  0  0
 30 29  1  0  0  0  0
 31 30  1  6  0  0  0
 32 31  1  0  0  0  0
 33 45  1  6  0  0  0
 33 32  1  0  0  0  0
 33 31  1  0  0  0  0
 35 34  1  6  0  0  0
 35 33  1  0  0  0  0
 36 37  1  0  0  0  0
 36 35  1  0  0  0  0
 38 37  1  0  0  0  0
 39 40  1  1  0  0  0
 39 38  1  0  0  0  0
 39 41  1  0  0  0  0
 42 44  1  0  0  0  0
 42 41  1  0  0  0  0
 43 44  1  0  0  0  0
 46 45  1  0  0  0  0
 47 46  1  0  0  0  0
 48 47  2  0  0  0  0
 49 50  1  0  0  0  0
 50 52  1  0  0  0  0
 51 50  1  0  0  0  0
 51 52  1  0  0  0  0
M  END
>  <MODEL>
2

>  <REMARK>
 VINA RESULT:      -5.3      1.993      2.597
  Name = 
  26 active torsions:
  status: ('A' for Active; 'I' for Inactive)
    1  A    between atoms: C_2  and  C_21
    2  A    between atoms: C_2  and  C_22
    3  A    between atoms: C_3  and  C_19
    4  A    between atoms: C_4  and  C_5
    5  A    between atoms: C_4  and  C_34
    6  A    between atoms: C_6  and  N_31
    7  A    between atoms: C_6  and  C_39
    8  A    between atoms: O_7  and  C_37
    9  A    between atoms: O_7  and  O_40
   10  A    between atoms: C_8  and  N_25
   11  A    between atoms: C_8  and  C_43
   12  A    between atoms: C_12  and  C_41
   13  A    between atoms: C_12  and  O_50
   14  A    between atoms: O_14  and  C_15
   15  A    between atoms: O_14  and  C_16
   16  A    between atoms: C_18  and  C_24
   17  A    between atoms: C_18  and  C_29
   18  A    between atoms: C_21  and  C_26
   19  A    between atoms: C_23  and  C_48
   20  A    between atoms: C_24  and  C_42
   21  A    between atoms: N_25  and  C_30
   22  A    between atoms: C_26  and  C_29
   23  A    between atoms: C_28  and  O_40
   24  A    between atoms: C_28  and  C_41
   25  A    between atoms: C_30  and  C_44
   26  A    between atoms: C_43  and  O_50
                            x       y       z     vdW  Elec       q    Type
                         _______ _______ _______ _____ _____    ______ ____

>  <TORSDO>
F 26

$$$$
=
 OpenBabel11062420113D

 52 56  0  0  1  0  0  0  0  0999 V2000
  187.1500  177.3980  146.4500 N   0  0  0  0  0  0  0  0  0  0  0  0
  188.3890  176.2410  144.7430 C   0  0  0  0  0  0  0  0  0  0  0  0
  187.5870  176.8800  143.7750 C   0  0  0  0  0  0  0  0  0  0  0  0
  188.1370  176.5230  146.1120 C   0  0  0  0  0  0  0  0  0  0  0  0
  186.3850  178.0260  145.5220 C   0  0  0  0  0  3  0  0  0  0  0  0
  186.5930  177.7810  144.1680 C   0  0  0  0  0  3  0  0  0  0  0  0
  188.6560  177.5840  141.6440 O   0  0  0  0  0  1  0  0  0  0  0  0
  186.6700  176.3910  141.5890 O   0  0  0  0  0  0  0  0  0  0  0  0
  187.6000  175.3330  141.7060 C   0  0  2  0  0  3  0  0  0  0  0  0
  187.8420  176.6660  142.3150 C   0  0  2  0  0  0  0  0  0  0  0  0
  188.3430  175.1540  140.3900 C   0  0  0  0  0  2  0  0  0  0  0  0
  190.5620  173.4440  138.6390 C   0  0  2  0  0  3  0  0  0  0  0  0
  188.7060  173.7010  140.1720 C   0  0  2  0  0  3  0  0  0  0  0  0
  190.2170  173.5710  140.1030 C   0  0  0  0  0  2  0  0  0  0  0  0
  189.3600  172.7760  138.0150 C   0  0  0  0  0  2  0  0  0  0  0  0
  188.1670  173.2290  138.8330 C   0  0  0  0  0  2  0  0  0  0  0  0
  191.9490  171.5400  138.9750 O   0  0  0  0  0  0  0  0  0  0  0  0
  191.8070  172.6490  138.3930 C   0  0  0  0  0  0  0  0  0  0  0  0
  192.8080  173.1160  137.4880 N   0  0  0  0  0  2  0  0  0  0  0  0
  194.0600  172.4040  137.2840 C   0  0  1  0  0  3  0  0  0  0  0  0
  194.0390  171.7190  135.9240 C   0  0  0  0  0  1  0  0  0  0  0  0
  194.8130  174.8100  137.2460 C   0  0  0  0  0  1  0  0  0  0  0  0
  195.8980  173.1970  138.7310 N   0  0  0  0  0  1  0  0  0  0  0  0
  195.2480  173.3600  137.4330 C   0  0  1  0  0  3  0  0  0  0  0  0
  188.8960  175.8720  147.2230 C   0  0  0  0  0  2  0  0  0  0  0  0
  190.2330  176.5680  147.4580 C   0  0  0  0  0  2  0  0  0  0  0  0
  191.3400  175.5410  147.6650 C   0  0  0  0  0  2  0  0  0  0  0  0
  192.5960  175.9440  146.8990 C   0  0  0  0  0  2  0  0  0  0  0  0
  193.5340  174.7570  146.7210 C   0  0  0  0  0  2  0  0  0  0  0  0
  194.7000  175.0860  145.8060 C   0  0  0  0  0  2  0  0  0  0  0  0
  194.2820  176.0960  144.7550 C   0  0  1  0  0  3  0  0  0  0  0  0
  195.5330  176.7150  144.1330 C   0  0  0  0  0  2  0  0  0  0  0  0
  194.7220  175.7070  143.3440 C   0  0  1  0  0  0  0  0  0  0  0  0
  196.7000  174.5010  142.6590 O   0  0  0  0  0  1  0  0  0  0  0  0
  195.3840  174.3440  143.1170 C   0  0  2  0  0  3  0  0  0  0  0  0
  194.5670  173.4480  142.1820 C   0  0  0  0  0  2  0  0  0  0  0  0
  193.6540  172.6600  142.8970 O   0  0  0  0  0  0  0  0  0  0  0  0
  194.0230  171.3460  142.5870 C   0  0  0  0  0  2  0  0  0  0  0  0
  193.5100  170.3690  143.6350 C   0  0  2  0  0  3  0  0  0  0  0  0
  192.1240  170.4610  143.7550 O   0  0  0  0  0  1  0  0  0  0  0  0
  194.1460  170.6130  144.9190 N   0  0  0  0  0  2  0  0  0  0  0  0
  195.5770  170.5990  144.6790 C   0  0  0  0  0  2  0  0  0  0  0  0
  196.9380  172.2300  145.9430 C   0  0  0  0  0  1  0  0  0  0  0  0
  196.3210  170.8430  145.9790 C   0  0  0  0  0  2  0  0  0  0  0  0
  193.9110  176.2610  142.3480 O   0  0  0  0  0  0  0  0  0  0  0  0
  192.6500  176.1650  142.7960 O   0  0  0  0  0  0  0  0  0  0  0  0
  191.7940  177.2620  142.7250 C   0  0  0  0  0  3  0  0  0  0  0  0
  191.5140  177.9200  143.7540 O   0  0  0  0  0  0  0  0  0  0  0  0
  189.3940  175.3660  144.2850 O   0  0  0  0  0  0  0  0  0  0  0  0
  189.5240  174.0000  144.6210 C   0  0  0  0  0  3  0  0  0  0  0  0
  190.1100  173.2560  143.4410 C   0  0  0  0  0  2  0  0  0  0  0  0
  190.9830  173.6240  144.6190 C   0  0  0  0  0  2  0  0  0  0  0  0
  2  4  2  0  0  0  0
  3  6  2  0  0  0  0
  3  2  1  0  0  0  0
  4  1  1  0  0  0  0
  4 25  1  0  0  0  0
  5  1  2  0  0  0  0
  6  5  1  0  0  0  0
  8  9  1  0  0  0  0
  8 10  1  0  0  0  0
  9 11  1  6  0  0  0
  9 10  1  0  0  0  0
 10  7  1  6  0  0  0
 10  3  1  0  0  0  0
 12 18  1  1  0  0  0
 12 14  1  0  0  0  0
 13 11  1  6  0  0  0
 14 13  1  0  0  0  0
 15 12  1  0  0  0  0
 15 16  1  0  0  0  0
 16 13  1  0  0  0  0
 18 17  2  0  0  0  0
 19 18  1  0  0  0  0
 20 21  1  6  0  0  0
 20 24  1  0  0  0  0
 20 19  1  0  0  0  0
 24 22  1  1  0  0  0
 24 23  1  0  0  0  0
 25 26  1  0  0  0  0
 26 27  1  0  0  0  0
 28 27  1  0  0  0  0
 29 28  1  0  0  0  0
 30 29  1  0  0  0  0
 31 30  1  1  0  0  0
 32 31  1  0  0  0  0
 33 45  1  6  0  0  0
 33 32  1  0  0  0  0
 33 31  1  0  0  0  0
 35 34  1  6  0  0  0
 35 33  1  0  0  0  0
 36 37  1  0  0  0  0
 36 35  1  0  0  0  0
 38 37  1  0  0  0  0
 38 39  1  0  0  0  0
 39 40  1  1  0  0  0
 39 41  1  0  0  0  0
 42 41  1  0  0  0  0
 42 44  1  0  0  0  0
 43 44  1  0  0  0  0
 45 46  1  0  0  0  0
 47 46  1  0  0  0  0
 47 48  2  0  0  0  0
 49 50  1  0  0  0  0
 49  2  1  0  0  0  0
 51 52  1  0  0  0  0
 51 50  1  0  0  0  0
 52 50  1  0  0  0  0
M  END
>  <MODEL>
3

>  <REMARK>
 VINA RESULT:      -5.1      2.305      7.155
  Name = 
  26 active torsions:
  status: ('A' for Active; 'I' for Inactive)
    1  A    between atoms: C_2  and  C_21
    2  A    between atoms: C_2  and  C_22
    3  A    between atoms: C_3  and  C_19
    4  A    between atoms: C_4  and  C_5
    5  A    between atoms: C_4  and  C_34
    6  A    between atoms: C_6  and  N_31
    7  A    between atoms: C_6  and  C_39
    8  A    between atoms: O_7  and  C_37
    9  A    between atoms: O_7  and  O_40
   10  A    between atoms: C_8  and  N_25
   11  A    between atoms: C_8  and  C_43
   12  A    between atoms: C_12  and  C_41
   13  A    between atoms: C_12  and  O_50
   14  A    between atoms: O_14  and  C_15
   15  A    between atoms: O_14  and  C_16
   16  A    between atoms: C_18  and  C_24
   17  A    between atoms: C_18  and  C_29
   18  A    between atoms: C_21  and  C_26
   19  A    between atoms: C_23  and  C_48
   20  A    between atoms: C_24  and  C_42
   21  A    between atoms: N_25  and  C_30
   22  A    between atoms: C_26  and  C_29
   23  A    between atoms: C_28  and  O_40
   24  A    between atoms: C_28  and  C_41
   25  A    between atoms: C_30  and  C_44
   26  A    between atoms: C_43  and  O_50
                            x       y       z     vdW  Elec       q    Type
                         _______ _______ _______ _____ _____    ______ ____

>  <TORSDO>
F 26

$$$$
=
 OpenBabel11062420113D

 52 56  0  0  1  0  0  0  0  0999 V2000
  194.7980  176.0640  142.8580 N   0  0  0  0  0  0  0  0  0  0  0  0
  194.5170  173.7190  143.3130 C   0  0  0  0  0  0  0  0  0  0  0  0
  193.5680  173.6650  142.2730 C   0  0  0  0  0  0  0  0  0  0  0  0
  195.1300  174.9690  143.5960 C   0  0  0  0  0  0  0  0  0  0  0  0
  193.8950  176.0140  141.8470 C   0  0  0  0  0  3  0  0  0  0  0  0
  193.2670  174.8130  141.5340 C   0  0  0  0  0  3  0  0  0  0  0  0
  192.1220  171.7220  142.8360 O   0  0  0  0  0  1  0  0  0  0  0  0
  193.8290  171.4680  141.2880 O   0  0  0  0  0  0  0  0  0  0  0  0
  192.8090  171.9890  140.4600 C   0  0  2  0  0  3  0  0  0  0  0  0
  192.9290  172.3650  141.8920 C   0  0  2  0  0  0  0  0  0  0  0  0
  191.7440  170.9260  140.2290 C   0  0  0  0  0  2  0  0  0  0  0  0
  190.9930  172.8120  137.6210 C   0  0  2  0  0  3  0  0  0  0  0  0
  191.4960  170.7280  138.7490 C   0  0  2  0  0  3  0  0  0  0  0  0
  192.1240  171.8790  137.9820 C   0  0  0  0  0  2  0  0  0  0  0  0
  189.7820  171.9170  137.4900 C   0  0  0  0  0  2  0  0  0  0  0  0
  190.0050  170.7770  138.4630 C   0  0  0  0  0  2  0  0  0  0  0  0
  190.6230  173.2350  135.3090 O   0  0  0  0  0  0  0  0  0  0  0  0
  191.2370  173.5740  136.3570 C   0  0  0  0  0  0  0  0  0  0  0  0
  192.1260  174.6920  136.3350 N   0  0  0  0  0  2  0  0  0  0  0  0
  192.4420  175.4060  135.1080 C   0  0  1  0  0  3  0  0  0  0  0  0
  191.6680  176.7180  135.0710 C   0  0  0  0  0  1  0  0  0  0  0  0
  194.2980  177.1080  134.9890 C   0  0  0  0  0  1  0  0  0  0  0  0
  194.6720  174.9440  136.0660 N   0  0  0  0  0  1  0  0  0  0  0  0
  193.9530  175.6220  134.9890 C   0  0  1  0  0  3  0  0  0  0  0  0
  196.1190  175.1520  144.7020 C   0  0  0  0  0  2  0  0  0  0  0  0
  195.4900  174.8520  146.0590 C   0  0  0  0  0  2  0  0  0  0  0  0
  194.4740  175.9280  146.4250 C   0  0  0  0  0  2  0  0  0  0  0  0
  193.0760  175.3280  146.5380 C   0  0  0  0  0  2  0  0  0  0  0  0
  192.1020  176.3230  147.1550 C   0  0  0  0  0  2  0  0  0  0  0  0
  190.8440  176.4810  146.3190 C   0  0  0  0  0  2  0  0  0  0  0  0
  190.8630  175.5210  145.1450 C   0  0  1  0  0  3  0  0  0  0  0  0
  189.6430  174.6040  145.2300 C   0  0  0  0  0  2  0  0  0  0  0  0
  189.6800  175.7130  144.1970 C   0  0  1  0  0  0  0  0  0  0  0  0
  187.5200  176.4290  145.0070 O   0  0  0  0  0  1  0  0  0  0  0  0
  188.7160  176.8810  144.4310 C   0  0  2  0  0  3  0  0  0  0  0  0
  188.4570  177.6860  143.1560 C   0  0  0  0  0  2  0  0  0  0  0  0
  187.2650  177.2880  142.5310 O   0  0  0  0  0  0  0  0  0  0  0  0
  186.4790  178.4450  142.5300 C   0  0  0  0  0  2  0  0  0  0  0  0
  185.0450  178.1360  142.9330 C   0  0  2  0  0  3  0  0  0  0  0  0
  184.2410  177.9790  141.8050 O   0  0  0  0  0  1  0  0  0  0  0  0
  184.5160  179.1840  143.7900 N   0  0  0  0  0  2  0  0  0  0  0  0
  185.3170  179.1720  145.0000 C   0  0  0  0  0  2  0  0  0  0  0  0
  184.6650  177.4070  146.6030 C   0  0  0  0  0  1  0  0  0  0  0  0
  184.4400  178.8520  146.1960 C   0  0  0  0  0  2  0  0  0  0  0  0
  189.9520  175.2860  142.8920 O   0  0  0  0  0  0  0  0  0  0  0  0
  189.1950  174.1970  142.6900 O   0  0  0  0  0  0  0  0  0  0  0  0
  189.3950  173.4030  141.5630 C   0  0  0  0  0  3  0  0  0  0  0  0
  189.7610  173.9140  140.4790 O   0  0  0  0  0  0  0  0  0  0  0  0
  194.8000  172.5230  144.0030 O   0  0  0  0  0  0  0  0  0  0  0  0
  195.9930  171.7720  143.9100 C   0  0  0  0  0  3  0  0  0  0  0  0
  196.3840  171.2960  145.2920 C   0  0  0  0  0  2  0  0  0  0  0  0
  195.7170  170.3490  144.3220 C   0  0  0  0  0  2  0  0  0  0  0  0
  1  4  1  0  0  0  0
  2  4  2  0  0  0  0
  2 49  1  0  0  0  0
  3  2  1  0  0  0  0
  4 25  1  0  0  0  0
  5  1  2  0  0  0  0
  6  5  1  0  0  0  0
  6  3  2  0  0  0  0
  8 10  1  0  0  0  0
  9 11  1  1  0  0  0
  9  8  1  0  0  0  0
  9 10  1  0  0  0  0
 10  3  1  0  0  0  0
 10  7  1  1  0  0  0
 12 18  1  6  0  0  0
 12 14  1  0  0  0  0
 13 11  1  1  0  0  0
 14 13  1  0  0  0  0
 15 12  1  0  0  0  0
 15 16  1  0  0  0  0
 16 13  1  0  0  0  0
 17 18  2  0  0  0  0
 19 18  1  0  0  0  0
 20 21  1  1  0  0  0
 20 19  1  0  0  0  0
 24 22  1  1  0  0  0
 24 20  1  0  0  0  0
 24 23  1  0  0  0  0
 25 26  1  0  0  0  0
 26 27  1  0  0  0  0
 27 28  1  0  0  0  0
 28 29  1  0  0  0  0
 30 29  1  0  0  0  0
 31 32  1  0  0  0  0
 31 30  1  1  0  0  0
 33 45  1  6  0  0  0
 33 35  1  0  0  0  0
 33 31  1  0  0  0  0
 33 32  1  0  0  0  0
 35 34  1  6  0  0  0
 36 35  1  0  0  0  0
 37 36  1  0  0  0  0
 38 37  1  0  0  0  0
 38 39  1  0  0  0  0
 39 40  1  6  0  0  0
 39 41  1  0  0  0  0
 41 42  1  0  0  0  0
 42 44  1  0  0  0  0
 44 43  1  0  0  0  0
 46 45  1  0  0  0  0
 47 46  1  0  0  0  0
 48 47  2  0  0  0  0
 50 49  1  0  0  0  0
 50 52  1  0  0  0  0
 50 51  1  0  0  0  0
 52 51  1  0  0  0  0
M  END
>  <MODEL>
4

>  <REMARK>
 VINA RESULT:      -5.0      2.380      5.146
  Name = 
  26 active torsions:
  status: ('A' for Active; 'I' for Inactive)
    1  A    between atoms: C_2  and  C_21
    2  A    between atoms: C_2  and  C_22
    3  A    between atoms: C_3  and  C_19
    4  A    between atoms: C_4  and  C_5
    5  A    between atoms: C_4  and  C_34
    6  A    between atoms: C_6  and  N_31
    7  A    between atoms: C_6  and  C_39
    8  A    between atoms: O_7  and  C_37
    9  A    between atoms: O_7  and  O_40
   10  A    between atoms: C_8  and  N_25
   11  A    between atoms: C_8  and  C_43
   12  A    between atoms: C_12  and  C_41
   13  A    between atoms: C_12  and  O_50
   14  A    between atoms: O_14  and  C_15
   15  A    between atoms: O_14  and  C_16
   16  A    between atoms: C_18  and  C_24
   17  A    between atoms: C_18  and  C_29
   18  A    between atoms: C_21  and  C_26
   19  A    between atoms: C_23  and  C_48
   20  A    between atoms: C_24  and  C_42
   21  A    between atoms: N_25  and  C_30
   22  A    between atoms: C_26  and  C_29
   23  A    between atoms: C_28  and  O_40
   24  A    between atoms: C_28  and  C_41
   25  A    between atoms: C_30  and  C_44
   26  A    between atoms: C_43  and  O_50
                            x       y       z     vdW  Elec       q    Type
                         _______ _______ _______ _____ _____    ______ ____

>  <TORSDO>
F 26

$$$$
=
 OpenBabel11062420113D

 52 56  0  0  1  0  0  0  0  0999 V2000
  191.9940  173.1120  144.8280 N   0  0  0  0  0  0  0  0  0  0  0  0
  193.9670  173.7830  143.6280 C   0  0  0  0  0  0  0  0  0  0  0  0
  193.7030  172.7650  142.6900 C   0  0  0  0  0  0  0  0  0  0  0  0
  193.0730  173.9340  144.7220 C   0  0  0  0  0  0  0  0  0  0  0  0
  191.7270  172.1390  143.9200 C   0  0  0  0  0  3  0  0  0  0  0  0
  192.5750  171.9520  142.8320 C   0  0  0  0  0  3  0  0  0  0  0  0
  195.8610  172.0680  141.6700 O   0  0  0  0  0  1  0  0  0  0  0  0
  194.6000  173.7290  140.6580 O   0  0  0  0  0  0  0  0  0  0  0  0
  193.9760  172.5760  140.1280 C   0  0  2  0  0  3  0  0  0  0  0  0
  194.5780  172.5930  141.4860 C   0  0  2  0  0  0  0  0  0  0  0  0
  194.8900  171.9260  139.0990 C   0  0  0  0  0  2  0  0  0  0  0  0
  192.7480  172.1330  136.5920 C   0  0  2  0  0  3  0  0  0  0  0  0
  194.8000  172.6460  137.7700 C   0  0  2  0  0  3  0  0  0  0  0  0
  193.3720  173.1140  137.5550 C   0  0  0  0  0  2  0  0  0  0  0  0
  193.8970  171.6420  135.7430 C   0  0  0  0  0  2  0  0  0  0  0  0
  195.1190  171.6850  136.6390 C   0  0  0  0  0  2  0  0  0  0  0  0
  191.0970  172.0250  134.8820 O   0  0  0  0  0  0  0  0  0  0  0  0
  191.6750  172.7410  135.7440 C   0  0  0  0  0  0  0  0  0  0  0  0
  191.2800  174.1010  135.9260 N   0  0  0  0  0  2  0  0  0  0  0  0
  190.2940  174.7420  135.0700 C   0  0  1  0  0  3  0  0  0  0  0  0
  188.9760  174.8760  135.8240 C   0  0  0  0  0  1  0  0  0  0  0  0
  189.6980  177.1300  134.5250 C   0  0  0  0  0  1  0  0  0  0  0  0
  191.9120  176.5780  135.4070 N   0  0  0  0  0  1  0  0  0  0  0  0
  190.8150  176.0930  134.5710 C   0  0  1  0  0  3  0  0  0  0  0  0
  193.2780  174.9510  145.7970 C   0  0  0  0  0  2  0  0  0  0  0  0
  192.4070  176.1820  145.5650 C   0  0  0  0  0  2  0  0  0  0  0  0
  191.5810  176.4920  146.8080 C   0  0  0  0  0  2  0  0  0  0  0  0
  191.2190  175.2070  147.5460 C   0  0  0  0  0  2  0  0  0  0  0  0
  189.7230  174.9320  147.4640 C   0  0  0  0  0  2  0  0  0  0  0  0
  189.1290  175.4010  146.1480 C   0  0  0  0  0  2  0  0  0  0  0  0
  187.8150  176.1190  146.3860 C   0  0  1  0  0  3  0  0  0  0  0  0
  187.9930  177.6040  146.0710 C   0  0  0  0  0  2  0  0  0  0  0  0
  187.2240  176.7200  145.1110 C   0  0  1  0  0  0  0  0  0  0  0  0
  188.5640  177.5800  143.2950 O   0  0  0  0  0  1  0  0  0  0  0  0
  187.9020  176.4380  143.7670 C   0  0  2  0  0  3  0  0  0  0  0  0
  186.9260  175.8830  142.7260 C   0  0  0  0  0  2  0  0  0  0  0  0
  187.6040  175.2770  141.6580 O   0  0  0  0  0  0  0  0  0  0  0  0
  188.3510  174.2610  142.2640 C   0  0  0  0  0  2  0  0  0  0  0  0
  189.5200  173.8410  141.3850 C   0  0  2  0  0  3  0  0  0  0  0  0
  190.6310  174.6490  141.6260 O   0  0  0  0  0  1  0  0  0  0  0  0
  189.1510  173.8940  139.9800 N   0  0  0  0  0  2  0  0  0  0  0  0
  190.2060  173.2170  139.2500 C   0  0  0  0  0  2  0  0  0  0  0  0
  189.6300  170.9860  138.3570 C   0  0  0  0  0  1  0  0  0  0  0  0
  190.1780  171.7310  139.5590 C   0  0  0  0  0  2  0  0  0  0  0  0
  185.8330  176.8650  145.1710 O   0  0  0  0  0  0  0  0  0  0  0  0
  185.5870  178.1770  145.0330 O   0  0  0  0  0  0  0  0  0  0  0  0
  184.5210  178.7670  145.7060 C   0  0  0  0  0  3  0  0  0  0  0  0
  183.9450  178.1650  146.6420 O   0  0  0  0  0  0  0  0  0  0  0  0
  195.1030  174.5890  143.4150 O   0  0  0  0  0  0  0  0  0  0  0  0
  195.0970  175.9500  143.0350 C   0  0  0  0  0  3  0  0  0  0  0  0
  196.1250  176.6950  143.8580 C   0  0  0  0  0  2  0  0  0  0  0  0
  196.4320  176.3030  142.4310 C   0  0  0  0  0  2  0  0  0  0  0  0
  2  4  2  0  0  0  0
  3  6  2  0  0  0  0
  3  2  1  0  0  0  0
  4  1  1  0  0  0  0
  4 25  1  0  0  0  0
  5  1  2  0  0  0  0
  6  5  1  0  0  0  0
  8 10  1  0  0  0  0
  9 11  1  6  0  0  0
  9  8  1  0  0  0  0
  9 10  1  0  0  0  0
 10  7  1  1  0  0  0
 10  3  1  0  0  0  0
 12 18  1  6  0  0  0
 12 14  1  0  0  0  0
 13 11  1  1  0  0  0
 14 13  1  0  0  0  0
 15 12  1  0  0  0  0
 15 16  1  0  0  0  0
 16 13  1  0  0  0  0
 17 18  2  0  0  0  0
 18 19  1  0  0  0  0
 20 21  1  1  0  0  0
 20 19  1  0  0  0  0
 24 22  1  1  0  0  0
 24 20  1  0  0  0  0
 24 23  1  0  0  0  0
 26 25  1  0  0  0  0
 26 27  1  0  0  0  0
 27 28  1  0  0  0  0
 29 28  1  0  0  0  0
 30 29  1  0  0  0  0
 31 30  1  6  0  0  0
 32 31  1  0  0  0  0
 33 45  1  6  0  0  0
 33 32  1  0  0  0  0
 33 31  1  0  0  0  0
 35 34  1  6  0  0  0
 35 33  1  0  0  0  0
 36 35  1  0  0  0  0
 37 38  1  0  0  0  0
 37 36  1  0  0  0  0
 39 40  1  6  0  0  0
 39 38  1  0  0  0  0
 41 39  1  0  0  0  0
 42 44  1  0  0  0  0
 42 41  1  0  0  0  0
 43 44  1  0  0  0  0
 46 45  1  0  0  0  0
 46 47  1  0  0  0  0
 47 48  2  0  0  0  0
 49  2  1  0  0  0  0
 50 49  1  0  0  0  0
 50 51  1  0  0  0  0
 52 50  1  0  0  0  0
 52 51  1  0  0  0  0
M  END
>  <MODEL>
5

>  <REMARK>
 VINA RESULT:      -5.0      2.248      3.950
  Name = 
  26 active torsions:
  status: ('A' for Active; 'I' for Inactive)
    1  A    between atoms: C_2  and  C_21
    2  A    between atoms: C_2  and  C_22
    3  A    between atoms: C_3  and  C_19
    4  A    between atoms: C_4  and  C_5
    5  A    between atoms: C_4  and  C_34
    6  A    between atoms: C_6  and  N_31
    7  A    between atoms: C_6  and  C_39
    8  A    between atoms: O_7  and  C_37
    9  A    between atoms: O_7  and  O_40
   10  A    between atoms: C_8  and  N_25
   11  A    between atoms: C_8  and  C_43
   12  A    between atoms: C_12  and  C_41
   13  A    between atoms: C_12  and  O_50
   14  A    between atoms: O_14  and  C_15
   15  A    between atoms: O_14  and  C_16
   16  A    between atoms: C_18  and  C_24
   17  A    between atoms: C_18  and  C_29
   18  A    between atoms: C_21  and  C_26
   19  A    between atoms: C_23  and  C_48
   20  A    between atoms: C_24  and  C_42
   21  A    between atoms: N_25  and  C_30
   22  A    between atoms: C_26  and  C_29
   23  A    between atoms: C_28  and  O_40
   24  A    between atoms: C_28  and  C_41
   25  A    between atoms: C_30  and  C_44
   26  A    between atoms: C_43  and  O_50
                            x       y       z     vdW  Elec       q    Type
                         _______ _______ _______ _____ _____    ______ ____

>  <TORSDO>
F 26

$$$$
=
 OpenBabel11062420113D

 52 56  0  0  1  0  0  0  0  0999 V2000
  190.6980  174.3550  145.8930 N   0  0  0  0  0  0  0  0  0  0  0  0
  192.3210  173.1720  144.5690 C   0  0  0  0  0  0  0  0  0  0  0  0
  191.2740  172.3900  144.0430 C   0  0  0  0  0  0  0  0  0  0  0  0
  191.9950  174.1720  145.5240 C   0  0  0  0  0  0  0  0  0  0  0  0
  189.6840  173.6130  145.3790 C   0  0  0  0  0  3  0  0  0  0  0  0
  189.9530  172.6210  144.4420 C   0  0  0  0  0  3  0  0  0  0  0  0
  191.9470  170.0830  143.4050 O   0  0  0  0  0  1  0  0  0  0  0  0
  192.3580  171.8400  141.9500 O   0  0  0  0  0  0  0  0  0  0  0  0
  191.0170  171.5420  141.6160 C   0  0  2  0  0  3  0  0  0  0  0  0
  191.5470  171.3590  142.9920 C   0  0  2  0  0  0  0  0  0  0  0  0
  190.9600  170.2340  140.8400 C   0  0  0  0  0  2  0  0  0  0  0  0
  190.0910  172.3300  138.4380 C   0  0  2  0  0  3  0  0  0  0  0  0
  191.3050  170.4600  139.3830 C   0  0  2  0  0  3  0  0  0  0  0  0
  191.3850  171.9530  139.1170 C   0  0  0  0  0  2  0  0  0  0  0  0
  189.6740  171.0880  137.6860 C   0  0  0  0  0  2  0  0  0  0  0  0
  190.1940  169.9200  138.4990 C   0  0  0  0  0  2  0  0  0  0  0  0
  191.3470  174.0750  137.4170 O   0  0  0  0  0  0  0  0  0  0  0  0
  190.2300  173.4980  137.5120 C   0  0  0  0  0  0  0  0  0  0  0  0
  189.1270  173.9380  136.7170 N   0  0  0  0  0  2  0  0  0  0  0  0
  189.2080  175.1130  135.8640 C   0  0  1  0  0  3  0  0  0  0  0  0
  189.8200  174.7260  134.5230 C   0  0  0  0  0  1  0  0  0  0  0  0
  187.0230  175.6530  136.9990 C   0  0  0  0  0  1  0  0  0  0  0  0
  187.9360  177.1540  135.2970 N   0  0  0  0  0  1  0  0  0  0  0  0
  187.8270  175.7550  135.7070 C   0  0  1  0  0  3  0  0  0  0  0  0
  193.0290  175.0320  146.1780 C   0  0  0  0  0  2  0  0  0  0  0  0
  192.7370  176.5120  145.9540 C   0  0  0  0  0  2  0  0  0  0  0  0
  192.4720  176.7860  144.4780 C   0  0  0  0  0  2  0  0  0  0  0  0
  191.4420  177.9000  144.3160 C   0  0  0  0  0  2  0  0  0  0  0  0
  190.4330  177.5590  143.2280 C   0  0  0  0  0  2  0  0  0  0  0  0
  189.0160  177.9230  143.6330 C   0  0  0  0  0  2  0  0  0  0  0  0
  188.5600  177.0680  144.7990 C   0  0  1  0  0  3  0  0  0  0  0  0
  188.3260  177.9650  146.0140 C   0  0  0  0  0  2  0  0  0  0  0  0
  187.1410  177.3940  145.2610 C   0  0  1  0  0  0  0  0  0  0  0  0
  186.2870  179.6480  145.0980 O   0  0  0  0  0  1  0  0  0  0  0  0
  186.3060  178.3990  144.4610 C   0  0  2  0  0  3  0  0  0  0  0  0
  184.8910  177.8880  144.1810 C   0  0  0  0  0  2  0  0  0  0  0  0
  184.5740  177.9800  142.8170 O   0  0  0  0  0  0  0  0  0  0  0  0
  185.6520  177.3620  142.1750 C   0  0  0  0  0  2  0  0  0  0  0  0
  185.8230  177.8890  140.7580 C   0  0  2  0  0  3  0  0  0  0  0  0
  184.6060  177.8730  140.0780 O   0  0  0  0  0  1  0  0  0  0  0  0
  186.8160  177.1090  140.0370 N   0  0  0  0  0  2  0  0  0  0  0  0
  187.5790  176.3870  141.0380 C   0  0  0  0  0  2  0  0  0  0  0  0
  189.2120  174.5640  141.3840 C   0  0  0  0  0  1  0  0  0  0  0  0
  188.1890  175.1410  140.4220 C   0  0  0  0  0  2  0  0  0  0  0  0
  186.5120  176.3160  145.8940 O   0  0  0  0  0  0  0  0  0  0  0  0
  186.7350  176.4710  147.2080 O   0  0  0  0  0  0  0  0  0  0  0  0
  185.7520  177.0200  148.0280 C   0  0  0  0  0  3  0  0  0  0  0  0
  185.4070  178.2170  147.8960 O   0  0  0  0  0  0  0  0  0  0  0  0
  193.6260  172.9120  144.1060 O   0  0  0  0  0  0  0  0  0  0  0  0
  194.4750  171.8750  144.5520 C   0  0  0  0  0  3  0  0  0  0  0  0
  195.8440  172.0590  143.9330 C   0  0  0  0  0  2  0  0  0  0  0  0
  195.5960  172.4660  145.3680 C   0  0  0  0  0  2  0  0  0  0  0  0
  2  4  2  0  0  0  0
  3  6  2  0  0  0  0
  3  2  1  0  0  0  0
  4  1  1  0  0  0  0
  4 25  1  0  0  0  0
  5  1  2  0  0  0  0
  6  5  1  0  0  0  0
  8 10  1  0  0  0  0
  9 11  1  6  0  0  0
  9  8  1  0  0  0  0
  9 10  1  0  0  0  0
 10  7  1  1  0  0  0
 10  3  1  0  0  0  0
 12 18  1  6  0  0  0
 12 14  1  0  0  0  0
 13 11  1  1  0  0  0
 14 13  1  0  0  0  0
 15 12  1  0  0  0  0
 15 16  1  0  0  0  0
 16 13  1  0  0  0  0
 17 18  2  0  0  0  0
 19 18  1  0  0  0  0
 20 21  1  6  0  0  0
 20 19  1  0  0  0  0
 23 24  1  0  0  0  0
 24 20  1  0  0  0  0
 24 22  1  1  0  0  0
 26 25  1  0  0  0  0
 27 26  1  0  0  0  0
 28 27  1  0  0  0  0
 29 30  1  0  0  0  0
 29 28  1  0  0  0  0
 31 30  1  6  0  0  0
 31 33  1  0  0  0  0
 31 32  1  0  0  0  0
 33 45  1  1  0  0  0
 33 32  1  0  0  0  0
 35 34  1  1  0  0  0
 35 33  1  0  0  0  0
 36 35  1  0  0  0  0
 37 36  1  0  0  0  0
 38 37  1  0  0  0  0
 39 40  1  6  0  0  0
 39 38  1  0  0  0  0
 41 39  1  0  0  0  0
 41 42  1  0  0  0  0
 44 42  1  0  0  0  0
 44 43  1  0  0  0  0
 45 46  1  0  0  0  0
 46 47  1  0  0  0  0
 48 47  2  0  0  0  0
 49 50  1  0  0  0  0
 49  2  1  0  0  0  0
 50 52  1  0  0  0  0
 51 50  1  0  0  0  0
 51 52  1  0  0  0  0
M  END
>  <MODEL>
6

>  <REMARK>
 VINA RESULT:      -5.0      2.777      4.673
  Name = 
  26 active torsions:
  status: ('A' for Active; 'I' for Inactive)
    1  A    between atoms: C_2  and  C_21
    2  A    between atoms: C_2  and  C_22
    3  A    between atoms: C_3  and  C_19
    4  A    between atoms: C_4  and  C_5
    5  A    between atoms: C_4  and  C_34
    6  A    between atoms: C_6  and  N_31
    7  A    between atoms: C_6  and  C_39
    8  A    between atoms: O_7  and  C_37
    9  A    between atoms: O_7  and  O_40
   10  A    between atoms: C_8  and  N_25
   11  A    between atoms: C_8  and  C_43
   12  A    between atoms: C_12  and  C_41
   13  A    between atoms: C_12  and  O_50
   14  A    between atoms: O_14  and  C_15
   15  A    between atoms: O_14  and  C_16
   16  A    between atoms: C_18  and  C_24
   17  A    between atoms: C_18  and  C_29
   18  A    between atoms: C_21  and  C_26
   19  A    between atoms: C_23  and  C_48
   20  A    between atoms: C_24  and  C_42
   21  A    between atoms: N_25  and  C_30
   22  A    between atoms: C_26  and  C_29
   23  A    between atoms: C_28  and  O_40
   24  A    between atoms: C_28  and  C_41
   25  A    between atoms: C_30  and  C_44
   26  A    between atoms: C_43  and  O_50
                            x       y       z     vdW  Elec       q    Type
                         _______ _______ _______ _____ _____    ______ ____

>  <TORSDO>
F 26

$$$$
=
 OpenBabel11062420113D

 52 56  0  0  1  0  0  0  0  0999 V2000
  187.1460  177.6620  146.7340 N   0  0  0  0  0  0  0  0  0  0  0  0
  188.3160  176.6800  144.8760 C   0  0  0  0  0  0  0  0  0  0  0  0
  187.3340  177.2150  144.0180 C   0  0  0  0  0  0  0  0  0  0  0  0
  188.1890  176.9210  146.2700 C   0  0  0  0  0  0  0  0  0  0  0  0
  186.2060  178.1910  145.9110 C   0  0  0  0  0  3  0  0  0  0  0  0
  186.2860  177.9810  144.5380 C   0  0  0  0  0  3  0  0  0  0  0  0
  188.1390  178.0120  141.8050 O   0  0  0  0  0  1  0  0  0  0  0  0
  186.2160  176.7240  141.9270 O   0  0  0  0  0  0  0  0  0  0  0  0
  187.2020  175.7100  141.9220 C   0  0  2  0  0  3  0  0  0  0  0  0
  187.4440  177.0430  142.5350 C   0  0  2  0  0  0  0  0  0  0  0  0
  187.8100  175.5940  140.5320 C   0  0  0  0  0  2  0  0  0  0  0  0
  188.6460  173.2450  138.3640 C   0  0  2  0  0  3  0  0  0  0  0  0
  188.7830  174.4350  140.4680 C   0  0  2  0  0  3  0  0  0  0  0  0
  189.3750  174.3610  139.0720 C   0  0  0  0  0  2  0  0  0  0  0  0
  188.2600  172.2800  139.4600 C   0  0  0  0  0  2  0  0  0  0  0  0
  188.0460  173.1280  140.6980 C   0  0  0  0  0  2  0  0  0  0  0  0
  189.2320  172.7880  136.1030 O   0  0  0  0  0  0  0  0  0  0  0  0
  189.4780  172.5670  137.3190 C   0  0  0  0  0  0  0  0  0  0  0  0
  190.5580  171.7090  137.6870 N   0  0  0  0  0  2  0  0  0  0  0  0
  191.3360  170.9780  136.6990 C   0  0  1  0  0  3  0  0  0  0  0  0
  192.5850  171.7760  136.3440 C   0  0  0  0  0  1  0  0  0  0  0  0
  190.4070  168.8000  137.5640 C   0  0  0  0  0  1  0  0  0  0  0  0
  192.4630  168.8270  136.2390 N   0  0  0  0  0  1  0  0  0  0  0  0
  191.6730  169.5750  137.2150 C   0  0  1  0  0  3  0  0  0  0  0  0
  189.1480  176.3680  147.2750 C   0  0  0  0  0  2  0  0  0  0  0  0
  190.2670  177.3610  147.5740 C   0  0  0  0  0  2  0  0  0  0  0  0
  191.4780  176.6390  148.1530 C   0  0  0  0  0  2  0  0  0  0  0  0
  192.5100  176.3660  147.0620 C   0  0  0  0  0  2  0  0  0  0  0  0
  192.3540  174.9590  146.5010 C   0  0  0  0  0  2  0  0  0  0  0  0
  193.6850  174.3650  146.0750 C   0  0  0  0  0  2  0  0  0  0  0  0
  194.1900  175.0430  144.8170 C   0  0  1  0  0  3  0  0  0  0  0  0
  195.4470  175.8450  145.1520 C   0  0  0  0  0  2  0  0  0  0  0  0
  195.5680  174.5460  144.3820 C   0  0  1  0  0  0  0  0  0  0  0  0
  197.2930  173.8210  145.9100 O   0  0  0  0  0  1  0  0  0  0  0  0
  196.2130  173.3770  145.1340 C   0  0  2  0  0  3  0  0  0  0  0  0
  196.6240  172.2380  144.1970 C   0  0  0  0  0  2  0  0  0  0  0  0
  195.5770  171.8820  143.3340 O   0  0  0  0  0  0  0  0  0  0  0  0
  195.3700  170.5230  143.5940 C   0  0  0  0  0  2  0  0  0  0  0  0
  194.2470  170.3210  144.6010 C   0  0  2  0  0  3  0  0  0  0  0  0
  194.6060  169.3640  145.5500 O   0  0  0  0  0  1  0  0  0  0  0  0
  193.0190  169.9330  143.9290 N   0  0  0  0  0  2  0  0  0  0  0  0
  192.0290  170.9390  144.2650 C   0  0  0  0  0  2  0  0  0  0  0  0
  190.7890  172.7880  143.1910 C   0  0  0  0  0  1  0  0  0  0  0  0
  192.1440  172.1150  143.3130 C   0  0  0  0  0  2  0  0  0  0  0  0
  195.7950  174.7000  143.0090 O   0  0  0  0  0  0  0  0  0  0  0  0
  194.7180  175.3340  142.5210 O   0  0  0  0  0  0  0  0  0  0  0  0
  194.8300  176.1420  141.3920 C   0  0  0  0  0  3  0  0  0  0  0  0
  195.9560  176.4410  140.9310 O   0  0  0  0  0  0  0  0  0  0  0  0
  189.3630  175.9430  144.2900 O   0  0  0  0  0  0  0  0  0  0  0  0
  190.7290  176.3060  144.2750 C   0  0  0  0  0  3  0  0  0  0  0  0
  191.2040  176.3750  142.8400 C   0  0  0  0  0  2  0  0  0  0  0  0
  190.8800  177.6430  143.5970 C   0  0  0  0  0  2  0  0  0  0  0  0
  2  4  2  0  0  0  0
  3  6  2  0  0  0  0
  3  2  1  0  0  0  0
  4  1  1  0  0  0  0
  4 25  1  0  0  0  0
  5  1  2  0  0  0  0
  6  5  1  0  0  0  0
  8 10  1  0  0  0  0
  9 11  1  6  0  0  0
  9  8  1  0  0  0  0
  9 10  1  0  0  0  0
 10  7  1  6  0  0  0
 10  3  1  0  0  0  0
 12 18  1  6  0  0  0
 12 14  1  0  0  0  0
 12 15  1  0  0  0  0
 13 11  1  6  0  0  0
 13 16  1  0  0  0  0
 14 13  1  0  0  0  0
 15 16  1  0  0  0  0
 17 18  2  0  0  0  0
 18 19  1  0  0  0  0
 20 21  1  1  0  0  0
 20 24  1  0  0  0  0
 20 19  1  0  0  0  0
 23 24  1  0  0  0  0
 24 22  1  6  0  0  0
 25 26  1  0  0  0  0
 26 27  1  0  0  0  0
 28 27  1  0  0  0  0
 29 28  1  0  0  0  0
 30 29  1  0  0  0  0
 31 32  1  0  0  0  0
 31 30  1  1  0  0  0
 33 45  1  6  0  0  0
 33 31  1  0  0  0  0
 33 35  1  0  0  0  0
 33 32  1  0  0  0  0
 35 34  1  6  0  0  0
 36 35  1  0  0  0  0
 37 38  1  0  0  0  0
 37 36  1  0  0  0  0
 38 39  1  0  0  0  0
 39 40  1  1  0  0  0
 41 42  1  0  0  0  0
 41 39  1  0  0  0  0
 43 44  1  0  0  0  0
 44 42  1  0  0  0  0
 46 45  1  0  0  0  0
 47 46  1  0  0  0  0
 48 47  2  0  0  0  0
 49  2  1  0  0  0  0
 50 49  1  0  0  0  0
 51 52  1  0  0  0  0
 51 50  1  0  0  0  0
 52 50  1  0  0  0  0
M  END
>  <MODEL>
7

>  <REMARK>
 VINA RESULT:      -4.7      2.504      7.709
  Name = 
  26 active torsions:
  status: ('A' for Active; 'I' for Inactive)
    1  A    between atoms: C_2  and  C_21
    2  A    between atoms: C_2  and  C_22
    3  A    between atoms: C_3  and  C_19
    4  A    between atoms: C_4  and  C_5
    5  A    between atoms: C_4  and  C_34
    6  A    between atoms: C_6  and  N_31
    7  A    between atoms: C_6  and  C_39
    8  A    between atoms: O_7  and  C_37
    9  A    between atoms: O_7  and  O_40
   10  A    between atoms: C_8  and  N_25
   11  A    between atoms: C_8  and  C_43
   12  A    between atoms: C_12  and  C_41
   13  A    between atoms: C_12  and  O_50
   14  A    between atoms: O_14  and  C_15
   15  A    between atoms: O_14  and  C_16
   16  A    between atoms: C_18  and  C_24
   17  A    between atoms: C_18  and  C_29
   18  A    between atoms: C_21  and  C_26
   19  A    between atoms: C_23  and  C_48
   20  A    between atoms: C_24  and  C_42
   21  A    between atoms: N_25  and  C_30
   22  A    between atoms: C_26  and  C_29
   23  A    between atoms: C_28  and  O_40
   24  A    between atoms: C_28  and  C_41
   25  A    between atoms: C_30  and  C_44
   26  A    between atoms: C_43  and  O_50
                            x       y       z     vdW  Elec       q    Type
                         _______ _______ _______ _____ _____    ______ ____

>  <TORSDO>
F 26

$$$$
=
 OpenBabel11062420113D

 52 56  0  0  1  0  0  0  0  0999 V2000
  193.2470  172.5440  145.0550 N   0  0  0  0  0  0  0  0  0  0  0  0
  194.9230  173.5760  143.6720 C   0  0  0  0  0  0  0  0  0  0  0  0
  194.8550  172.4590  142.8150 C   0  0  0  0  0  0  0  0  0  0  0  0
  194.0870  173.5890  144.8210 C   0  0  0  0  0  0  0  0  0  0  0  0
  193.1680  171.4730  144.2250 C   0  0  0  0  0  3  0  0  0  0  0  0
  193.9670  171.4140  143.0880 C   0  0  0  0  0  3  0  0  0  0  0  0
  197.0500  172.2160  141.6720 O   0  0  0  0  0  1  0  0  0  0  0  0
  195.3710  173.4630  140.6730 O   0  0  0  0  0  0  0  0  0  0  0  0
  195.0070  172.1640  140.2530 C   0  0  2  0  0  3  0  0  0  0  0  0
  195.6700  172.4130  141.5590 C   0  0  2  0  0  0  0  0  0  0  0  0
  195.9840  171.6750  139.1930 C   0  0  0  0  0  2  0  0  0  0  0  0
  192.8650  171.1580  138.2320 C   0  0  2  0  0  3  0  0  0  0  0  0
  195.2580  171.3410  137.9070 C   0  0  2  0  0  3  0  0  0  0  0  0
  193.9590  172.1260  137.8520 C   0  0  0  0  0  2  0  0  0  0  0  0
  193.3690  169.8080  137.7750 C   0  0  0  0  0  2  0  0  0  0  0  0
  194.8790  169.8710  137.8940 C   0  0  0  0  0  2  0  0  0  0  0  0
  190.9820  170.6110  136.8840 O   0  0  0  0  0  0  0  0  0  0  0  0
  191.5470  171.4800  137.6010 C   0  0  0  0  0  0  0  0  0  0  0  0
  190.9140  172.7400  137.8300 N   0  0  0  0  0  2  0  0  0  0  0  0
  189.6710  173.1130  137.1730 C   0  0  1  0  0  3  0  0  0  0  0  0
  188.5510  173.1750  138.2040 C   0  0  0  0  0  1  0  0  0  0  0  0
  191.1380  174.4510  135.6200 C   0  0  0  0  0  1  0  0  0  0  0  0
  188.7060  174.6900  135.5340 N   0  0  0  0  0  1  0  0  0  0  0  0
  189.8400  174.4360  136.4200 C   0  0  1  0  0  3  0  0  0  0  0  0
  194.1060  174.7010  145.8200 C   0  0  0  0  0  2  0  0  0  0  0  0
  192.7590  174.8310  146.5240 C   0  0  0  0  0  2  0  0  0  0  0  0
  192.3920  176.2990  146.7050 C   0  0  0  0  0  2  0  0  0  0  0  0
  190.9000  176.5120  146.4690 C   0  0  0  0  0  2  0  0  0  0  0  0
  190.6070  176.7450  144.9930 C   0  0  0  0  0  2  0  0  0  0  0  0
  189.6760  175.6890  144.4240 C   0  0  0  0  0  2  0  0  0  0  0  0
  190.4610  174.6570  143.6380 C   0  0  1  0  0  3  0  0  0  0  0  0
  189.8390  173.2800  143.8630 C   0  0  0  0  0  2  0  0  0  0  0  0
  189.6370  173.9890  142.5390 C   0  0  1  0  0  0  0  0  0  0  0  0
  187.3470  173.4210  142.0190 O   0  0  0  0  0  1  0  0  0  0  0  0
  188.2180  174.4940  142.2570 C   0  0  2  0  0  3  0  0  0  0  0  0
  188.1780  175.5140  141.1160 C   0  0  0  0  0  2  0  0  0  0  0  0
  187.9760  176.8150  141.5990 O   0  0  0  0  0  0  0  0  0  0  0  0
  186.6080  176.8620  141.8890 C   0  0  0  0  0  2  0  0  0  0  0  0
  186.3580  177.4620  143.2640 C   0  0  2  0  0  3  0  0  0  0  0  0
  187.4550  178.2170  143.6770 O   0  0  0  0  0  1  0  0  0  0  0  0
  186.0660  176.4200  144.2340 N   0  0  0  0  0  2  0  0  0  0  0  0
  186.2380  177.0160  145.5450 C   0  0  0  0  0  2  0  0  0  0  0  0
  185.0980  178.7300  146.9120 C   0  0  0  0  0  1  0  0  0  0  0  0
  184.8960  177.4740  146.0850 C   0  0  0  0  0  2  0  0  0  0  0  0
  190.4230  173.5010  141.4890 O   0  0  0  0  0  0  0  0  0  0  0  0
  190.0000  172.2480  141.2580 O   0  0  0  0  0  0  0  0  0  0  0  0
  190.8850  171.1780  141.3640 C   0  0  0  0  0  3  0  0  0  0  0  0
  190.5110  170.0870  141.8530 O   0  0  0  0  0  0  0  0  0  0  0  0
  195.8150  174.6110  143.3280 O   0  0  0  0  0  0  0  0  0  0  0  0
  195.4620  175.9440  143.0200 C   0  0  0  0  0  3  0  0  0  0  0  0
  196.5430  176.8700  143.5350 C   0  0  0  0  0  2  0  0  0  0  0  0
  196.4780  176.5180  142.0660 C   0  0  0  0  0  2  0  0  0  0  0  0
  2  4  2  0  0  0  0
  3  6  2  0  0  0  0
  3  2  1  0  0  0  0
  4  1  1  0  0  0  0
  4 25  1  0  0  0  0
  5  1  2  0  0  0  0
  6  5  1  0  0  0  0
  8 10  1  0  0  0  0
  9 11  1  6  0  0  0
  9  8  1  0  0  0  0
  9 10  1  0  0  0  0
 10  7  1  1  0  0  0
 10  3  1  0  0  0  0
 12 18  1  6  0  0  0
 13 11  1  1  0  0  0
 14 13  1  0  0  0  0
 14 12  1  0  0  0  0
 15 16  1  0  0  0  0
 15 12  1  0  0  0  0
 16 13  1  0  0  0  0
 17 18  2  0  0  0  0
 18 19  1  0  0  0  0
 20 19  1  0  0  0  0
 20 21  1  1  0  0  0
 23 24  1  0  0  0  0
 24 22  1  6  0  0  0
 24 20  1  0  0  0  0
 25 26  1  0  0  0  0
 26 27  1  0  0  0  0
 28 27  1  0  0  0  0
 29 28  1  0  0  0  0
 30 29  1  0  0  0  0
 31 32  1  0  0  0  0
 31 30  1  1  0  0  0
 33 45  1  6  0  0  0
 33 31  1  0  0  0  0
 33 32  1  0  0  0  0
 35 34  1  6  0  0  0
 35 33  1  0  0  0  0
 36 37  1  0  0  0  0
 36 35  1  0  0  0  0
 37 38  1  0  0  0  0
 38 39  1  0  0  0  0
 39 40  1  1  0  0  0
 39 41  1  0  0  0  0
 41 42  1  0  0  0  0
 42 44  1  0  0  0  0
 44 43  1  0  0  0  0
 46 47  1  0  0  0  0
 46 45  1  0  0  0  0
 47 48  2  0  0  0  0
 49  2  1  0  0  0  0
 50 49  1  0  0  0  0
 50 51  1  0  0  0  0
 52 50  1  0  0  0  0
 52 51  1  0  0  0  0
M  END
>  <MODEL>
8

>  <REMARK>
 VINA RESULT:      -4.7      2.357      4.997
  Name = 
  26 active torsions:
  status: ('A' for Active; 'I' for Inactive)
    1  A    between atoms: C_2  and  C_21
    2  A    between atoms: C_2  and  C_22
    3  A    between atoms: C_3  and  C_19
    4  A    between atoms: C_4  and  C_5
    5  A    between atoms: C_4  and  C_34
    6  A    between atoms: C_6  and  N_31
    7  A    between atoms: C_6  and  C_39
    8  A    between atoms: O_7  and  C_37
    9  A    between atoms: O_7  and  O_40
   10  A    between atoms: C_8  and  N_25
   11  A    between atoms: C_8  and  C_43
   12  A    between atoms: C_12  and  C_41
   13  A    between atoms: C_12  and  O_50
   14  A    between atoms: O_14  and  C_15
   15  A    between atoms: O_14  and  C_16
   16  A    between atoms: C_18  and  C_24
   17  A    between atoms: C_18  and  C_29
   18  A    between atoms: C_21  and  C_26
   19  A    between atoms: C_23  and  C_48
   20  A    between atoms: C_24  and  C_42
   21  A    between atoms: N_25  and  C_30
   22  A    between atoms: C_26  and  C_29
   23  A    between atoms: C_28  and  O_40
   24  A    between atoms: C_28  and  C_41
   25  A    between atoms: C_30  and  C_44
   26  A    between atoms: C_43  and  O_50
                            x       y       z     vdW  Elec       q    Type
                         _______ _______ _______ _____ _____    ______ ____

>  <TORSDO>
F 26

$$$$
=
 OpenBabel11062420113D

 52 56  0  0  1  0  0  0  0  0999 V2000
  192.0940  175.8600  143.9060 N   0  0  0  0  0  0  0  0  0  0  0  0
  194.3160  174.9520  144.0770 C   0  0  0  0  0  0  0  0  0  0  0  0
  194.6510  175.6390  142.8930 C   0  0  0  0  0  0  0  0  0  0  0  0
  192.9900  175.0800  144.5720 C   0  0  0  0  0  0  0  0  0  0  0  0
  192.4170  176.5340  142.7740 C   0  0  0  0  0  3  0  0  0  0  0  0
  193.7020  176.4400  142.2500 C   0  0  0  0  0  3  0  0  0  0  0  0
  197.1050  175.8580  143.2280 O   0  0  0  0  0  1  0  0  0  0  0  0
  196.1920  176.2850  141.1410 O   0  0  0  0  0  0  0  0  0  0  0  0
  196.3250  174.8800  141.0780 C   0  0  2  0  0  3  0  0  0  0  0  0
  196.0470  175.5890  142.3530 C   0  0  2  0  0  0  0  0  0  0  0  0
  197.7940  174.5100  140.9300 C   0  0  0  0  0  2  0  0  0  0  0  0
  195.8360  171.9140  140.3410 C   0  0  2  0  0  3  0  0  0  0  0  0
  197.9410  173.1100  140.3720 C   0  0  2  0  0  3  0  0  0  0  0  0
  196.7360  172.7920  139.5050 C   0  0  0  0  0  2  0  0  0  0  0  0
  196.7720  171.1660  141.2610 C   0  0  0  0  0  2  0  0  0  0  0  0
  197.9410  172.0990  141.5050 C   0  0  0  0  0  2  0  0  0  0  0  0
  195.4350  170.6090  138.3920 O   0  0  0  0  0  0  0  0  0  0  0  0
  195.0130  170.9660  139.5250 C   0  0  0  0  0  0  0  0  0  0  0  0
  193.7840  170.4420  140.0290 N   0  0  0  0  0  2  0  0  0  0  0  0
  192.9260  169.5790  139.2330 C   0  0  1  0  0  3  0  0  0  0  0  0
  192.6270  168.3030  140.0100 C   0  0  0  0  0  1  0  0  0  0  0  0
  191.6880  170.7100  137.3510 C   0  0  0  0  0  1  0  0  0  0  0  0
  190.4600  169.5190  139.0990 N   0  0  0  0  0  1  0  0  0  0  0  0
  191.6500  170.3220  138.8260 C   0  0  1  0  0  3  0  0  0  0  0  0
  192.5120  174.3640  145.7940 C   0  0  0  0  0  2  0  0  0  0  0  0
  192.7150  175.2130  147.0440 C   0  0  0  0  0  2  0  0  0  0  0  0
  191.4360  175.2560  147.8730 C   0  0  0  0  0  2  0  0  0  0  0  0
  190.3910  176.1410  147.1990 C   0  0  0  0  0  2  0  0  0  0  0  0
  189.1510  175.3380  146.8290 C   0  0  0  0  0  2  0  0  0  0  0  0
  188.6170  175.7160  145.4590 C   0  0  0  0  0  2  0  0  0  0  0  0
  187.7240  176.9370  145.5550 C   0  0  1  0  0  3  0  0  0  0  0  0
  188.5900  178.1950  145.4830 C   0  0  0  0  0  2  0  0  0  0  0  0
  187.7450  177.7940  144.2910 C   0  0  1  0  0  0  0  0  0  0  0  0
  189.6270  178.1070  142.8090 O   0  0  0  0  0  1  0  0  0  0  0  0
  188.5120  177.2950  143.0620 C   0  0  2  0  0  3  0  0  0  0  0  0
  187.6160  177.1700  141.8270 C   0  0  0  0  0  2  0  0  0  0  0  0
  187.0160  175.9040  141.7560 O   0  0  0  0  0  0  0  0  0  0  0  0
  188.0590  175.0170  142.0460 C   0  0  0  0  0  2  0  0  0  0  0  0
  188.9730  174.8330  140.8430 C   0  0  2  0  0  3  0  0  0  0  0  0
  188.2800  174.2460  139.7850 O   0  0  0  0  0  1  0  0  0  0  0  0
  190.1310  174.0300  141.1980 N   0  0  0  0  0  2  0  0  0  0  0  0
  189.6590  173.0030  142.1070 C   0  0  0  0  0  2  0  0  0  0  0  0
  192.0930  172.6040  142.2530 C   0  0  0  0  0  1  0  0  0  0  0  0
  190.7860  172.5650  143.0230 C   0  0  0  0  0  2  0  0  0  0  0  0
  186.5770  178.5470  144.1230 O   0  0  0  0  0  0  0  0  0  0  0  0
  185.5980  177.8590  144.7290 O   0  0  0  0  0  0  0  0  0  0  0  0
  184.3760  178.4690  145.0030 C   0  0  0  0  0  3  0  0  0  0  0  0
  184.0150  178.6710  146.1860 O   0  0  0  0  0  0  0  0  0  0  0  0
  195.3230  174.1860  144.6950 O   0  0  0  0  0  0  0  0  0  0  0  0
  195.6410  172.8400  144.4040 C   0  0  0  0  0  3  0  0  0  0  0  0
  196.9600  172.4930  145.0620 C   0  0  0  0  0  2  0  0  0  0  0  0
  195.6570  172.0450  145.6850 C   0  0  0  0  0  2  0  0  0  0  0  0
  1  4  1  0  0  0  0
  2  4  2  0  0  0  0
  2 49  1  0  0  0  0
  3  2  1  0  0  0  0
  4 25  1  0  0  0  0
  5  1  2  0  0  0  0
  6  5  1  0  0  0  0
  6  3  2  0  0  0  0
  8 10  1  0  0  0  0
  9 11  1  1  0  0  0
  9  8  1  0  0  0  0
  9 10  1  0  0  0  0
 10  3  1  0  0  0  0
 10  7  1  1  0  0  0
 12 18  1  6  0  0  0
 12 15  1  0  0  0  0
 13 11  1  1  0  0  0
 13 16  1  0  0  0  0
 14 12  1  0  0  0  0
 14 13  1  0  0  0  0
 15 16  1  0  0  0  0
 17 18  2  0  0  0  0
 18 19  1  0  0  0  0
 20 21  1  1  0  0  0
 20 19  1  0  0  0  0
 24 22  1  6  0  0  0
 24 23  1  0  0  0  0
 24 20  1  0  0  0  0
 25 26  1  0  0  0  0
 26 27  1  0  0  0  0
 28 27  1  0  0  0  0
 29 28  1  0  0  0  0
 30 29  1  0  0  0  0
 31 30  1  6  0  0  0
 32 31  1  0  0  0  0
 33 45  1  6  0  0  0
 33 32  1  0  0  0  0
 33 31  1  0  0  0  0
 35 34  1  6  0  0  0
 35 33  1  0  0  0  0
 36 35  1  0  0  0  0
 37 36  1  0  0  0  0
 37 38  1  0  0  0  0
 39 40  1  6  0  0  0
 39 41  1  0  0  0  0
 39 38  1  0  0  0  0
 41 42  1  0  0  0  0
 42 44  1  0  0  0  0
 43 44  1  0  0  0  0
 45 46  1  0  0  0  0
 46 47  1  0  0  0  0
 47 48  2  0  0  0  0
 50 49  1  0  0  0  0
 50 51  1  0  0  0  0
 50 52  1  0  0  0  0
 51 52  1  0  0  0  0
M  END
>  <MODEL>
9

>  <REMARK>
 VINA RESULT:      -4.7      2.287      3.094
  Name = 
  26 active torsions:
  status: ('A' for Active; 'I' for Inactive)
    1  A    between atoms: C_2  and  C_21
    2  A    between atoms: C_2  and  C_22
    3  A    between atoms: C_3  and  C_19
    4  A    between atoms: C_4  and  C_5
    5  A    between atoms: C_4  and  C_34
    6  A    between atoms: C_6  and  N_31
    7  A    between atoms: C_6  and  C_39
    8  A    between atoms: O_7  and  C_37
    9  A    between atoms: O_7  and  O_40
   10  A    between atoms: C_8  and  N_25
   11  A    between atoms: C_8  and  C_43
   12  A    between atoms: C_12  and  C_41
   13  A    between atoms: C_12  and  O_50
   14  A    between atoms: O_14  and  C_15
   15  A    between atoms: O_14  and  C_16
   16  A    between atoms: C_18  and  C_24
   17  A    between atoms: C_18  and  C_29
   18  A    between atoms: C_21  and  C_26
   19  A    between atoms: C_23  and  C_48
   20  A    between atoms: C_24  and  C_42
   21  A    between atoms: N_25  and  C_30
   22  A    between atoms: C_26  and  C_29
   23  A    between atoms: C_28  and  O_40
   24  A    between atoms: C_28  and  C_41
   25  A    between atoms: C_30  and  C_44
   26  A    between atoms: C_43  and  O_50
                            x       y       z     vdW  Elec       q    Type
                         _______ _______ _______ _____ _____    ______ ____

>  <TORSDO>
F 26

$$$$
