=
 OpenBabel11062421403D

 52 56  0  0  1  0  0  0  0  0999 V2000
  190.8920  174.0250  146.2550 C   0  0  0  0  0  2  0  0  0  0  0  0
  191.9940  173.4380  140.6630 C   0  0  0  0  0  2  0  0  0  0  0  0
  192.9330  173.3560  144.3380 C   0  0  0  0  0  3  0  0  0  0  0  0
  193.0410  174.7240  144.9360 C   0  0  0  0  0  2  0  0  0  0  0  0
  189.2540  177.8520  145.1900 N   0  0  0  0  0  2  0  0  0  0  0  0
  192.2210  174.8170  146.2420 C   0  0  1  0  0  3  0  0  0  0  0  0
  191.6090  171.4360  143.7580 O   0  0  0  0  0  0  0  0  0  0  0  0
  191.6040  171.9580  140.6230 C   0  0  2  0  0  3  0  0  0  0  0  0
  190.8450  174.3570  140.2480 C   0  0  0  0  0  2  0  0  0  0  0  0
  192.6780  170.5930  143.3140 C   0  0  1  0  0  3  0  0  0  0  0  0
  191.3960  176.8890  145.7520 C   0  0  0  0  0  2  0  0  0  0  0  0
  193.5100  171.2360  142.1790 C   0  0  2  0  0  3  0  0  0  0  0  0
  190.0790  177.4050  146.3000 C   0  0  0  0  0  2  0  0  0  0  0  0
  189.2170  177.0430  141.9610 C   0  0  0  0  0  3  0  0  0  0  0  0
  188.5870  176.9240  144.3320 C   0  0  0  0  0  0  0  0  0  0  0  0
  189.5460  175.8120  141.6620 C   0  0  0  0  0  0  0  0  0  0  0  0
  188.4360  175.7240  144.6890 O   0  0  0  0  0  0  0  0  0  0  0  0
  189.8640  174.5880  141.3490 C   0  0  0  0  0  0  0  0  0  0  0  0
  188.1500  177.3690  142.9690 C   0  0  2  0  0  3  0  0  0  0  0  0
  190.5550  173.3910  144.9010 C   0  0  0  0  0  2  0  0  0  0  0  0
  189.0160  173.4720  141.8520 C   0  0  0  0  0  1  0  0  0  0  0  0
  192.8380  171.0700  140.8090 C   0  0  1  0  0  3  0  0  0  0  0  0
  191.7580  172.7160  144.3160 C   0  0  0  0  0  0  0  0  0  0  0  0
  192.0710  176.1350  146.7250 O   0  0  0  0  0  0  0  0  0  0  0  0
  192.5140  169.7280  140.5850 O   0  0  0  0  0  1  0  0  0  0  0  0
  194.8210  168.8060  146.5980 C   0  0  0  0  0  3  0  0  0  0  0  0
  195.2410  170.0390  146.0920 C   0  0  0  0  0  0  0  0  0  0  0  0
  193.4380  169.9910  144.4670 C   0  0  0  0  0  0  0  0  0  0  0  0
  193.0200  168.7580  144.9780 C   0  0  0  0  0  3  0  0  0  0  0  0
  196.4210  170.7220  146.6810 C   0  0  0  0  0  1  0  0  0  0  0  0
  194.5520  170.6290  145.0290 C   0  0  0  0  0  3  0  0  0  0  0  0
  193.7090  168.1660  146.0410 C   0  0  0  0  0  3  0  0  0  0  0  0
  191.5530  171.7660  138.1030 N   0  0  0  0  0  0  0  0  0  0  0  0
  189.4680  170.9200  137.7800 N   0  0  0  0  0  0  0  0  0  0  0  0
  190.9940  171.3510  135.7690 C   0  0  0  0  0  1  0  0  0  0  0  0
  190.9530  171.6360  139.3570 N   0  0  0  0  0  0  0  0  0  0  0  0
  190.7040  171.3600  137.2260 C   0  0  0  0  0  0  0  0  0  0  0  0
  189.6130  171.0970  139.2190 C   0  0  0  0  0  3  0  0  0  0  0  0
  186.3870  177.2410  141.2080 C   0  0  0  0  0  0  0  0  0  0  0  0
  185.3350  178.1800  141.1760 N   0  0  0  0  0  2  0  0  0  0  0  0
  186.7680  176.8130  142.5760 C   0  0  2  0  0  3  0  0  0  0  0  0
  185.6690  177.4580  143.4280 C   0  0  0  0  0  2  0  0  0  0  0  0
  184.9340  178.4670  142.5410 C   0  0  2  0  0  3  0  0  0  0  0  0
  186.9180  176.7910  140.1590 O   0  0  0  0  0  0  0  0  0  0  0  0
  183.4310  178.2930  142.6950 C   0  0  0  0  0  2  0  0  0  0  0  0
  182.7450  178.1740  141.3420 C   0  0  0  0  0  2  0  0  0  0  0  0
  180.7890  179.4720  140.6710 N   0  0  0  0  0  1  0  0  0  0  0  0
  181.2390  178.3460  141.4720 C   0  0  0  0  0  2  0  0  0  0  0  0
  197.3850  171.3020  142.2910 C   0  0  0  0  0  1  0  0  0  0  0  0
  194.9320  170.7620  142.1130 C   0  0  0  0  0  0  0  0  0  0  0  0
  195.1910  169.5470  141.8890 O   0  0  0  0  0  0  0  0  0  0  0  0
  195.9880  171.7000  142.3220 N   0  0  0  0  0  2  0  0  0  0  0  0
  3  4  1  0  0  0  0
  5 13  1  0  0  0  0
  6  4  1  6  0  0  0
  6  1  1  0  0  0  0
  6 24  1  0  0  0  0
  7 23  1  0  0  0  0
  8 36  1  6  0  0  0
  8  2  1  0  0  0  0
  8 22  1  0  0  0  0
  9  2  1  0  0  0  0
  9 18  1  0  0  0  0
 10  7  1  0  0  0  0
 10 28  1  1  0  0  0
 11 13  1  0  0  0  0
 11 24  1  0  0  0  0
 12 50  1  6  0  0  0
 12 10  1  0  0  0  0
 15 17  2  0  0  0  0
 15  5  1  0  0  0  0
 16 14  2  0  0  0  0
 18 16  2  0  0  0  0
 18 21  1  0  0  0  0
 19 14  1  6  0  0  0
 19 15  1  0  0  0  0
 20  1  1  0  0  0  0
 22 25  1  1  0  0  0
 22 12  1  0  0  0  0
 23  3  2  0  0  0  0
 23 20  1  0  0  0  0
 27 26  1  0  0  0  0
 27 30  1  0  0  0  0
 28 29  2  0  0  0  0
 28 31  1  0  0  0  0
 29 32  1  0  0  0  0
 31 27  2  0  0  0  0
 32 26  2  0  0  0  0
 33 36  1  0  0  0  0
 34 38  2  0  0  0  0
 35 37  1  0  0  0  0
 37 34  1  0  0  0  0
 37 33  2  0  0  0  0
 38 36  1  0  0  0  0
 39 41  1  0  0  0  0
 40 39  1  0  0  0  0
 40 43  1  0  0  0  0
 41 19  1  0  0  0  0
 41 42  1  1  0  0  0
 43 45  1  6  0  0  0
 43 42  1  0  0  0  0
 44 39  2  0  0  0  0
 46 48  1  0  0  0  0
 46 45  1  0  0  0  0
 47 48  1  0  0  0  0
 49 52  1  0  0  0  0
 50 52  1  0  0  0  0
 51 50  2  0  0  0  0
M  END
>  <MODEL>
1

>  <REMARK>
 VINA RESULT:      -7.1      0.000      0.000
  Name = 
  7 active torsions:
  status: ('A' for Active; 'I' for Inactive)
    1  A    between atoms: C_10  and  C_27
    2  A    between atoms: N_18  and  C_19
    3  A    between atoms: C_23  and  C_24
    4  A    between atoms: C_37  and  C_42
    5  A    between atoms: C_39  and  C_40
    6  A    between atoms: C_39  and  C_45
    7  A    between atoms: C_41  and  C_45
                            x       y       z     vdW  Elec       q    Type
                         _______ _______ _______ _____ _____    ______ ____

>  <TORSDO>
F 7

$$$$
=
 OpenBabel11062421403D

 52 56  0  0  1  0  0  0  0  0999 V2000
  193.6780  173.2100  145.7930 C   0  0  0  0  0  2  0  0  0  0  0  0
  192.8000  173.3280  140.1320 C   0  0  0  0  0  2  0  0  0  0  0  0
  194.9630  172.9660  143.2280 C   0  0  0  0  0  3  0  0  0  0  0  0
  195.1830  174.2680  143.9330 C   0  0  0  0  0  2  0  0  0  0  0  0
  191.5270  176.9300  145.8670 N   0  0  0  0  0  2  0  0  0  0  0  0
  194.8650  174.1370  145.4390 C   0  0  1  0  0  3  0  0  0  0  0  0
  193.6470  170.9860  142.8770 O   0  0  0  0  0  0  0  0  0  0  0  0
  192.5170  171.8260  140.0280 C   0  0  2  0  0  3  0  0  0  0  0  0
  191.5220  174.1560  140.2560 C   0  0  0  0  0  2  0  0  0  0  0  0
  194.5470  170.3130  141.9900 C   0  0  1  0  0  3  0  0  0  0  0  0
  193.7890  176.1480  145.5380 C   0  0  0  0  0  2  0  0  0  0  0  0
  194.8880  171.1550  140.7380 C   0  0  2  0  0  3  0  0  0  0  0  0
  192.7140  176.4610  146.5630 C   0  0  0  0  0  2  0  0  0  0  0  0
  190.4210  176.4600  142.7620 C   0  0  0  0  0  3  0  0  0  0  0  0
  190.6650  176.0290  145.1690 C   0  0  0  0  0  0  0  0  0  0  0  0
  190.7040  175.3090  142.2080 C   0  0  0  0  0  0  0  0  0  0  0  0
  190.7260  174.7900  145.3910 O   0  0  0  0  0  0  0  0  0  0  0  0
  190.9720  174.1650  141.6450 C   0  0  0  0  0  0  0  0  0  0  0  0
  189.7530  176.5640  144.1060 C   0  0  2  0  0  3  0  0  0  0  0  0
  192.9330  172.6870  144.5600 C   0  0  0  0  0  2  0  0  0  0  0  0
  190.4270  172.9180  142.2500 C   0  0  0  0  0  1  0  0  0  0  0  0
  193.7940  171.0610  139.6660 C   0  0  1  0  0  3  0  0  0  0  0  0
  193.8980  172.2100  143.5180 C   0  0  0  0  0  0  0  0  0  0  0  0
  194.8070  175.3750  146.1160 O   0  0  0  0  0  0  0  0  0  0  0  0
  193.4990  169.7220  139.3860 O   0  0  0  0  0  1  0  0  0  0  0  0
  197.8680  168.4800  144.0340 C   0  0  0  0  0  3  0  0  0  0  0  0
  197.0570  169.3900  144.7170 C   0  0  0  0  0  0  0  0  0  0  0  0
  195.6980  169.6790  142.7260 C   0  0  0  0  0  0  0  0  0  0  0  0
  196.5110  168.7650  142.0480 C   0  0  0  0  0  3  0  0  0  0  0  0
  197.3450  169.7250  146.1360 C   0  0  0  0  0  1  0  0  0  0  0  0
  195.9760  169.9890  144.0650 C   0  0  0  0  0  3  0  0  0  0  0  0
  197.5940  168.1660  142.6990 C   0  0  0  0  0  3  0  0  0  0  0  0
  191.6010  171.9020  137.6740 N   0  0  0  0  0  0  0  0  0  0  0  0
  189.5990  170.8600  137.9590 N   0  0  0  0  0  0  0  0  0  0  0  0
  190.2900  171.6780  135.6320 C   0  0  0  0  0  1  0  0  0  0  0  0
  191.4880  171.5690  139.0250 N   0  0  0  0  0  0  0  0  0  0  0  0
  190.5290  171.4970  137.0870 C   0  0  0  0  0  0  0  0  0  0  0  0
  190.2270  170.8960  139.2740 C   0  0  0  0  0  3  0  0  0  0  0  0
  187.4390  176.5640  143.1720 C   0  0  0  0  0  0  0  0  0  0  0  0
  186.4170  177.3180  143.7870 N   0  0  0  0  0  2  0  0  0  0  0  0
  188.3590  175.9060  144.1310 C   0  0  2  0  0  3  0  0  0  0  0  0
  187.6660  176.1730  145.4720 C   0  0  0  0  0  2  0  0  0  0  0  0
  186.5860  177.2310  145.2260 C   0  0  2  0  0  3  0  0  0  0  0  0
  187.5240  176.4430  141.9220 O   0  0  0  0  0  0  0  0  0  0  0  0
  185.2830  176.8030  145.8840 C   0  0  0  0  0  2  0  0  0  0  0  0
  184.5650  177.9880  146.5140 C   0  0  0  0  0  2  0  0  0  0  0  0
  186.1420  178.3950  148.3310 N   0  0  0  0  0  1  0  0  0  0  0  0
  185.5530  178.9650  147.1310 C   0  0  0  0  0  2  0  0  0  0  0  0
  197.5770  169.4950  138.4920 C   0  0  0  0  0  1  0  0  0  0  0  0
  196.2260  170.8450  140.1320 C   0  0  0  0  0  0  0  0  0  0  0  0
  197.2530  171.4820  140.4920 O   0  0  0  0  0  0  0  0  0  0  0  0
  196.3170  169.8300  139.1320 N   0  0  0  0  0  2  0  0  0  0  0  0
  2  9  1  0  0  0  0
  3 23  2  0  0  0  0
  3  4  1  0  0  0  0
  5 13  1  0  0  0  0
  6  4  1  6  0  0  0
  6  1  1  0  0  0  0
  6 24  1  0  0  0  0
  7 23  1  0  0  0  0
  8 36  1  6  0  0  0
  8  2  1  0  0  0  0
  9 18  1  0  0  0  0
 10 28  1  1  0  0  0
 10  7  1  0  0  0  0
 11 24  1  0  0  0  0
 11 13  1  0  0  0  0
 12 50  1  6  0  0  0
 12 10  1  0  0  0  0
 15 17  2  0  0  0  0
 15  5  1  0  0  0  0
 16 14  2  0  0  0  0
 18 16  2  0  0  0  0
 18 21  1  0  0  0  0
 19 14  1  6  0  0  0
 19 41  1  0  0  0  0
 19 15  1  0  0  0  0
 20  1  1  0  0  0  0
 22 25  1  1  0  0  0
 22  8  1  0  0  0  0
 22 12  1  0  0  0  0
 23 20  1  0  0  0  0
 26 27  1  0  0  0  0
 27 30  1  0  0  0  0
 28 31  1  0  0  0  0
 29 32  1  0  0  0  0
 29 28  2  0  0  0  0
 31 27  2  0  0  0  0
 32 26  2  0  0  0  0
 33 36  1  0  0  0  0
 34 38  2  0  0  0  0
 35 37  1  0  0  0  0
 36 38  1  0  0  0  0
 37 33  2  0  0  0  0
 37 34  1  0  0  0  0
 39 40  1  0  0  0  0
 39 41  1  0  0  0  0
 40 43  1  0  0  0  0
 41 42  1  1  0  0  0
 43 42  1  0  0  0  0
 43 45  1  1  0  0  0
 44 39  2  0  0  0  0
 45 46  1  0  0  0  0
 46 48  1  0  0  0  0
 48 47  1  0  0  0  0
 49 52  1  0  0  0  0
 50 51  2  0  0  0  0
 52 50  1  0  0  0  0
M  END
>  <MODEL>
2

>  <REMARK>
 VINA RESULT:      -6.6      2.420      3.030
  Name = 
  7 active torsions:
  status: ('A' for Active; 'I' for Inactive)
    1  A    between atoms: C_10  and  C_27
    2  A    between atoms: N_18  and  C_19
    3  A    between atoms: C_23  and  C_24
    4  A    between atoms: C_37  and  C_42
    5  A    between atoms: C_39  and  C_40
    6  A    between atoms: C_39  and  C_45
    7  A    between atoms: C_41  and  C_45
                            x       y       z     vdW  Elec       q    Type
                         _______ _______ _______ _____ _____    ______ ____

>  <TORSDO>
F 7

$$$$
=
 OpenBabel11062421403D

 52 56  0  0  1  0  0  0  0  0999 V2000
  191.4910  174.0110  138.5860 C   0  0  0  0  0  2  0  0  0  0  0  0
  194.2420  170.9430  142.5680 C   0  0  0  0  0  2  0  0  0  0  0  0
  193.1570  171.7030  139.0120 C   0  0  0  0  0  3  0  0  0  0  0  0
  191.7080  171.4110  138.7770 C   0  0  0  0  0  2  0  0  0  0  0  0
  188.0810  173.7020  141.1840 N   0  0  0  0  0  2  0  0  0  0  0  0
  191.0060  172.6190  138.1190 C   0  0  1  0  0  3  0  0  0  0  0  0
  194.8900  173.2140  139.7110 O   0  0  0  0  0  0  0  0  0  0  0  0
  195.5430  171.7440  142.4510 C   0  0  2  0  0  3  0  0  0  0  0  0
  193.3480  171.4440  143.7010 C   0  0  0  0  0  2  0  0  0  0  0  0
  196.0110  172.4000  139.3510 C   0  0  1  0  0  3  0  0  0  0  0  0
  189.1400  172.4350  139.4210 C   0  0  0  0  0  2  0  0  0  0  0  0
  195.9800  171.0110  140.0330 C   0  0  2  0  0  3  0  0  0  0  0  0
  188.2360  173.6100  139.7410 C   0  0  0  0  0  2  0  0  0  0  0  0
  189.9810  172.6560  143.7090 C   0  0  0  0  0  3  0  0  0  0  0  0
  189.1220  174.2160  142.0170 C   0  0  0  0  0  0  0  0  0  0  0  0
  191.2740  172.6570  143.5080 C   0  0  0  0  0  0  0  0  0  0  0  0
  190.0650  174.8860  141.5150 O   0  0  0  0  0  0  0  0  0  0  0  0
  192.5640  172.6590  143.3260 C   0  0  0  0  0  0  0  0  0  0  0  0
  189.1300  173.8730  143.4760 C   0  0  2  0  0  3  0  0  0  0  0  0
  192.5010  173.9420  139.7370 C   0  0  0  0  0  2  0  0  0  0  0  0
  193.2550  173.9530  143.0690 C   0  0  0  0  0  1  0  0  0  0  0  0
  196.5080  171.0660  141.4730 C   0  0  1  0  0  3  0  0  0  0  0  0
  193.5430  172.9000  139.4690 C   0  0  0  0  0  0  0  0  0  0  0  0
  189.5980  172.5150  138.0960 O   0  0  0  0  0  0  0  0  0  0  0  0
  197.7600  171.6880  141.5100 O   0  0  0  0  0  1  0  0  0  0  0  0
  196.8540  172.4870  135.1270 C   0  0  0  0  0  3  0  0  0  0  0  0
  195.5540  172.2230  135.5630 C   0  0  0  0  0  0  0  0  0  0  0  0
  196.2810  172.4330  137.8700 C   0  0  0  0  0  0  0  0  0  0  0  0
  197.5810  172.7000  137.4280 C   0  0  0  0  0  3  0  0  0  0  0  0
  194.4740  171.9690  134.5750 C   0  0  0  0  0  1  0  0  0  0  0  0
  195.2680  172.1940  136.9310 C   0  0  0  0  0  3  0  0  0  0  0  0
  197.8690  172.7270  136.0600 C   0  0  0  0  0  3  0  0  0  0  0  0
  196.3110  173.0780  144.4560 N   0  0  0  0  0  0  0  0  0  0  0  0
  197.1950  171.4310  145.7530 N   0  0  0  0  0  0  0  0  0  0  0  0
  197.1920  173.8520  146.5920 C   0  0  0  0  0  1  0  0  0  0  0  0
  196.1800  171.8750  143.7580 N   0  0  0  0  0  0  0  0  0  0  0  0
  196.8850  172.8110  145.5770 C   0  0  0  0  0  0  0  0  0  0  0  0
  196.7270  170.7800  144.5360 C   0  0  0  0  0  3  0  0  0  0  0  0
  189.2170  174.8040  145.7900 C   0  0  0  0  0  0  0  0  0  0  0  0
  188.1550  175.5860  146.2890 N   0  0  0  0  0  2  0  0  0  0  0  0
  189.5360  175.0640  144.3650 C   0  0  2  0  0  3  0  0  0  0  0  0
  188.6580  176.2840  144.0600 C   0  0  0  0  0  2  0  0  0  0  0  0
  187.6660  176.4340  145.2180 C   0  0  2  0  0  3  0  0  0  0  0  0
  189.8490  173.9890  146.5120 O   0  0  0  0  0  0  0  0  0  0  0  0
  187.6180  177.8840  145.6730 C   0  0  0  0  0  2  0  0  0  0  0  0
  186.2120  178.4540  145.5590 C   0  0  0  0  0  2  0  0  0  0  0  0
  186.6720  178.6620  147.9470 N   0  0  0  0  0  1  0  0  0  0  0  0
  185.6460  178.8010  146.9280 C   0  0  0  0  0  2  0  0  0  0  0  0
  196.6120  168.1660  137.4760 C   0  0  0  0  0  1  0  0  0  0  0  0
  196.6900  169.9330  139.2680 C   0  0  0  0  0  0  0  0  0  0  0  0
  197.9050  169.6810  139.4980 O   0  0  0  0  0  0  0  0  0  0  0  0
  195.9780  169.2080  138.2660 N   0  0  0  0  0  2  0  0  0  0  0  0
  1 20  1  0  0  0  0
  2  9  1  0  0  0  0
  3 23  2  0  0  0  0
  4  3  1  0  0  0  0
  5 15  1  0  0  0  0
  6  1  1  1  0  0  0
  6  4  1  0  0  0  0
  8  2  1  1  0  0  0
  8 36  1  0  0  0  0
 10 28  1  6  0  0  0
 10  7  1  0  0  0  0
 10 12  1  0  0  0  0
 11 13  1  0  0  0  0
 12 50  1  6  0  0  0
 12 22  1  0  0  0  0
 13  5  1  0  0  0  0
 15 19  1  0  0  0  0
 16 14  2  0  0  0  0
 17 15  2  0  0  0  0
 18 16  2  0  0  0  0
 18  9  1  0  0  0  0
 19 14  1  6  0  0  0
 19 41  1  0  0  0  0
 21 18  1  0  0  0  0
 22 25  1  6  0  0  0
 22  8  1  0  0  0  0
 23  7  1  0  0  0  0
 23 20  1  0  0  0  0
 24  6  1  0  0  0  0
 24 11  1  0  0  0  0
 26 27  2  0  0  0  0
 26 32  1  0  0  0  0
 27 31  1  0  0  0  0
 29 28  1  0  0  0  0
 30 27  1  0  0  0  0
 31 28  2  0  0  0  0
 32 29  2  0  0  0  0
 33 37  2  0  0  0  0
 36 33  1  0  0  0  0
 36 38  1  0  0  0  0
 37 34  1  0  0  0  0
 37 35  1  0  0  0  0
 38 34  2  0  0  0  0
 39 40  1  0  0  0  0
 39 44  2  0  0  0  0
 41 42  1  6  0  0  0
 41 39  1  0  0  0  0
 42 43  1  0  0  0  0
 43 45  1  1  0  0  0
 43 40  1  0  0  0  0
 46 45  1  0  0  0  0
 46 48  1  0  0  0  0
 48 47  1  0  0  0  0
 49 52  1  0  0  0  0
 50 51  2  0  0  0  0
 52 50  1  0  0  0  0
M  END
>  <MODEL>
3

>  <REMARK>
 VINA RESULT:      -6.1      3.170      7.108
  Name = 
  7 active torsions:
  status: ('A' for Active; 'I' for Inactive)
    1  A    between atoms: C_10  and  C_27
    2  A    between atoms: N_18  and  C_19
    3  A    between atoms: C_23  and  C_24
    4  A    between atoms: C_37  and  C_42
    5  A    between atoms: C_39  and  C_40
    6  A    between atoms: C_39  and  C_45
    7  A    between atoms: C_41  and  C_45
                            x       y       z     vdW  Elec       q    Type
                         _______ _______ _______ _____ _____    ______ ____

>  <TORSDO>
F 7

$$$$
=
 OpenBabel11062421403D

 52 56  0  0  1  0  0  0  0  0999 V2000
  189.9030  176.9590  142.0180 C   0  0  0  0  0  2  0  0  0  0  0  0
  190.2480  171.3360  143.0650 C   0  0  0  0  0  2  0  0  0  0  0  0
  189.2490  174.3500  140.9890 C   0  0  0  0  0  3  0  0  0  0  0  0
  188.1040  175.1080  141.5870 C   0  0  0  0  0  2  0  0  0  0  0  0
  188.3220  177.2640  146.0020 N   0  0  0  0  0  2  0  0  0  0  0  0
  188.4330  176.6150  141.6800 C   0  0  1  0  0  3  0  0  0  0  0  0
  191.6110  173.9440  140.8130 O   0  0  0  0  0  0  0  0  0  0  0  0
  191.5990  171.1700  142.3630 C   0  0  2  0  0  3  0  0  0  0  0  0
  190.3940  171.5340  144.5740 C   0  0  0  0  0  2  0  0  0  0  0  0
  191.5640  173.0030  139.7360 C   0  0  1  0  0  3  0  0  0  0  0  0
  187.5260  176.8370  143.7620 C   0  0  0  0  0  2  0  0  0  0  0  0
  190.6670  171.7820  140.0530 C   0  0  2  0  0  3  0  0  0  0  0  0
  187.9670  177.9040  144.7460 C   0  0  0  0  0  2  0  0  0  0  0  0
  189.3170  174.1730  146.7360 C   0  0  0  0  0  3  0  0  0  0  0  0
  189.5500  176.5490  146.1560 C   0  0  0  0  0  0  0  0  0  0  0  0
  190.0340  173.5580  145.8300 C   0  0  0  0  0  0  0  0  0  0  0  0
  190.4880  176.7120  145.3300 O   0  0  0  0  0  0  0  0  0  0  0  0
  190.7540  172.9360  144.9400 C   0  0  0  0  0  0  0  0  0  0  0  0
  189.6760  175.5380  147.2560 C   0  0  2  0  0  3  0  0  0  0  0  0
  190.7520  175.7240  142.3410 C   0  0  0  0  0  2  0  0  0  0  0  0
  192.0810  173.4980  144.5650 C   0  0  0  0  0  1  0  0  0  0  0  0
  191.4000  170.7370  140.9070 C   0  0  1  0  0  3  0  0  0  0  0  0
  190.5080  174.6340  141.3420 C   0  0  0  0  0  0  0  0  0  0  0  0
  187.5120  177.3500  142.4560 O   0  0  0  0  0  0  0  0  0  0  0  0
  192.6270  170.4050  140.3240 O   0  0  0  0  0  1  0  0  0  0  0  0
  191.0520  174.9170  135.9100 C   0  0  0  0  0  3  0  0  0  0  0  0
  189.9260  174.5400  136.6460 C   0  0  0  0  0  0  0  0  0  0  0  0
  191.3610  173.6770  138.4050 C   0  0  0  0  0  0  0  0  0  0  0  0
  192.4850  174.0580  137.6650 C   0  0  0  0  0  3  0  0  0  0  0  0
  188.5650  174.7940  136.1080 C   0  0  0  0  0  1  0  0  0  0  0  0
  190.0800  173.9200  137.8900 C   0  0  0  0  0  3  0  0  0  0  0  0
  192.3320  174.6770  136.4200 C   0  0  0  0  0  3  0  0  0  0  0  0
  193.5510  170.4940  143.8200 N   0  0  0  0  0  0  0  0  0  0  0  0
  193.2300  168.2460  143.9500 N   0  0  0  0  0  0  0  0  0  0  0  0
  195.1980  169.3260  145.1830 C   0  0  0  0  0  1  0  0  0  0  0  0
  192.4200  170.1860  143.0610 N   0  0  0  0  0  0  0  0  0  0  0  0
  193.9950  169.3920  144.3130 C   0  0  0  0  0  0  0  0  0  0  0  0
  192.1590  168.7590  143.1040 C   0  0  0  0  0  3  0  0  0  0  0  0
  191.4870  176.9640  148.2110 C   0  0  0  0  0  0  0  0  0  0  0  0
  192.5600  177.3970  147.4040 N   0  0  0  0  0  2  0  0  0  0  0  0
  191.0560  175.5720  147.9400 C   0  0  2  0  0  3  0  0  0  0  0  0
  192.1430  175.0840  146.9750 C   0  0  0  0  0  2  0  0  0  0  0  0
  192.9270  176.3150  146.5090 C   0  0  2  0  0  3  0  0  0  0  0  0
  190.9780  177.6960  149.1000 O   0  0  0  0  0  0  0  0  0  0  0  0
  194.4200  176.0420  146.5980 C   0  0  0  0  0  2  0  0  0  0  0  0
  195.0090  175.7310  145.2290 C   0  0  0  0  0  2  0  0  0  0  0  0
  194.4070  175.7140  142.8640 N   0  0  0  0  0  1  0  0  0  0  0  0
  194.2210  176.4160  144.1230 C   0  0  0  0  0  2  0  0  0  0  0  0
  190.4080  169.7580  136.7570 C   0  0  0  0  0  1  0  0  0  0  0  0
  190.0690  171.1250  138.8430 C   0  0  0  0  0  0  0  0  0  0  0  0
  188.8260  171.1740  138.6390 O   0  0  0  0  0  0  0  0  0  0  0  0
  190.9250  170.4310  137.9360 N   0  0  0  0  0  2  0  0  0  0  0  0
  1 20  1  0  0  0  0
  2  9  1  0  0  0  0
  3 23  2  0  0  0  0
  3  4  1  0  0  0  0
  5 15  1  0  0  0  0
  6  4  1  1  0  0  0
  6  1  1  0  0  0  0
  6 24  1  0  0  0  0
  7 23  1  0  0  0  0
  8 36  1  1  0  0  0
  8  2  1  0  0  0  0
  9 18  1  0  0  0  0
 10 28  1  6  0  0  0
 10 12  1  0  0  0  0
 10  7  1  0  0  0  0
 11 13  1  0  0  0  0
 12 50  1  6  0  0  0
 12 22  1  0  0  0  0
 13  5  1  0  0  0  0
 15 19  1  0  0  0  0
 16 14  2  0  0  0  0
 17 15  2  0  0  0  0
 18 16  2  0  0  0  0
 19 14  1  6  0  0  0
 19 41  1  0  0  0  0
 21 18  1  0  0  0  0
 22 25  1  6  0  0  0
 22  8  1  0  0  0  0
 23 20  1  0  0  0  0
 24 11  1  0  0  0  0
 26 32  2  0  0  0  0
 26 27  1  0  0  0  0
 27 31  2  0  0  0  0
 29 28  2  0  0  0  0
 30 27  1  0  0  0  0
 31 28  1  0  0  0  0
 32 29  1  0  0  0  0
 33 37  2  0  0  0  0
 34 37  1  0  0  0  0
 36 38  1  0  0  0  0
 36 33  1  0  0  0  0
 37 35  1  0  0  0  0
 38 34  2  0  0  0  0
 39 44  2  0  0  0  0
 40 39  1  0  0  0  0
 41 42  1  6  0  0  0
 41 39  1  0  0  0  0
 43 45  1  1  0  0  0
 43 42  1  0  0  0  0
 43 40  1  0  0  0  0
 46 45  1  0  0  0  0
 47 48  1  0  0  0  0
 48 46  1  0  0  0  0
 49 52  1  0  0  0  0
 51 50  2  0  0  0  0
 52 50  1  0  0  0  0
M  END
>  <MODEL>
4

>  <REMARK>
 VINA RESULT:      -5.4      2.710      7.562
  Name = 
  7 active torsions:
  status: ('A' for Active; 'I' for Inactive)
    1  A    between atoms: C_10  and  C_27
    2  A    between atoms: N_18  and  C_19
    3  A    between atoms: C_23  and  C_24
    4  A    between atoms: C_37  and  C_42
    5  A    between atoms: C_39  and  C_40
    6  A    between atoms: C_39  and  C_45
    7  A    between atoms: C_41  and  C_45
                            x       y       z     vdW  Elec       q    Type
                         _______ _______ _______ _____ _____    ______ ____

>  <TORSDO>
F 7

$$$$
=
 OpenBabel11062421403D

 52 56  0  0  1  0  0  0  0  0999 V2000
  192.8660  172.8750  143.3060 C   0  0  0  0  0  2  0  0  0  0  0  0
  187.4490  174.4930  142.3700 C   0  0  0  0  0  2  0  0  0  0  0  0
  190.3660  173.5070  144.5870 C   0  0  0  0  0  3  0  0  0  0  0  0
  190.6890  172.0480  144.4990 C   0  0  0  0  0  2  0  0  0  0  0  0
  192.1260  169.8590  140.3360 N   0  0  0  0  0  2  0  0  0  0  0  0
  192.1970  171.8360  144.2350 C   0  0  1  0  0  3  0  0  0  0  0  0
  190.6390  175.7530  143.7740 O   0  0  0  0  0  0  0  0  0  0  0  0
  187.7610  175.9910  142.4500 C   0  0  2  0  0  3  0  0  0  0  0  0
  187.4470  173.9730  140.9330 C   0  0  0  0  0  2  0  0  0  0  0  0
  189.8950  176.4190  144.7990 C   0  0  1  0  0  3  0  0  0  0  0  0
  191.8470  170.1690  142.7150 C   0  0  0  0  0  2  0  0  0  0  0  0
  188.4450  175.8920  144.9190 C   0  0  2  0  0  3  0  0  0  0  0  0
  192.8310  169.8420  141.6070 C   0  0  0  0  0  2  0  0  0  0  0  0
  189.3400  171.3870  139.3420 C   0  0  0  0  0  3  0  0  0  0  0  0
  191.7510  171.0850  139.7040 C   0  0  0  0  0  0  0  0  0  0  0  0
  189.0850  172.5500  139.8840 C   0  0  0  0  0  0  0  0  0  0  0  0
  192.2830  172.1710  140.0590 O   0  0  0  0  0  0  0  0  0  0  0  0
  188.8210  173.7130  140.4100 C   0  0  0  0  0  0  0  0  0  0  0  0
  190.6550  171.0770  138.6820 C   0  0  2  0  0  3  0  0  0  0  0  0
  191.8700  173.8660  142.6930 C   0  0  0  0  0  2  0  0  0  0  0  0
  189.7680  174.8390  140.1820 C   0  0  0  0  0  1  0  0  0  0  0  0
  187.5180  176.5170  143.8680 C   0  0  1  0  0  3  0  0  0  0  0  0
  190.9200  174.3770  143.7340 C   0  0  0  0  0  0  0  0  0  0  0  0
  192.5310  170.5080  143.8930 O   0  0  0  0  0  0  0  0  0  0  0  0
  187.6190  177.9120  143.8960 O   0  0  0  0  0  1  0  0  0  0  0  0
  192.2100  176.7680  148.4170 C   0  0  0  0  0  3  0  0  0  0  0  0
  191.1050  177.6020  148.2240 C   0  0  0  0  0  0  0  0  0  0  0  0
  190.6850  176.5540  146.0740 C   0  0  0  0  0  0  0  0  0  0  0  0
  191.7900  175.7200  146.2730 C   0  0  0  0  0  3  0  0  0  0  0  0
  190.7380  178.6030  149.2590 C   0  0  0  0  0  1  0  0  0  0  0  0
  190.3450  177.4960  147.0550 C   0  0  0  0  0  3  0  0  0  0  0  0
  192.5520  175.8260  147.4410 C   0  0  0  0  0  3  0  0  0  0  0  0
  185.6150  177.1180  141.7330 N   0  0  0  0  0  0  0  0  0  0  0  0
  186.2120  177.9180  139.6900 N   0  0  0  0  0  0  0  0  0  0  0  0
  183.8550  178.3560  140.5910 C   0  0  0  0  0  1  0  0  0  0  0  0
  186.9370  176.7350  141.5010 N   0  0  0  0  0  0  0  0  0  0  0  0
  185.2210  177.7830  140.7050 C   0  0  0  0  0  0  0  0  0  0  0  0
  187.3810  177.2180  140.2070 C   0  0  0  0  0  3  0  0  0  0  0  0
  190.2900  171.5090  136.2510 C   0  0  0  0  0  0  0  0  0  0  0  0
  191.1840  170.9940  135.2890 N   0  0  0  0  0  2  0  0  0  0  0  0
  190.9520  172.0000  137.4840 C   0  0  2  0  0  3  0  0  0  0  0  0
  192.4350  171.9200  137.1020 C   0  0  0  0  0  2  0  0  0  0  0  0
  192.5330  171.0920  135.8170 C   0  0  2  0  0  3  0  0  0  0  0  0
  189.0490  171.5700  136.0490 O   0  0  0  0  0  0  0  0  0  0  0  0
  193.4400  171.7930  134.8180 C   0  0  0  0  0  2  0  0  0  0  0  0
  193.6640  173.2490  135.1990 C   0  0  0  0  0  2  0  0  0  0  0  0
  195.9210  172.4280  135.6370 N   0  0  0  0  0  1  0  0  0  0  0  0
  195.1470  173.5880  135.2290 C   0  0  0  0  0  2  0  0  0  0  0  0
  186.2430  177.2570  147.8030 C   0  0  0  0  0  1  0  0  0  0  0  0
  187.8450  176.0450  146.2860 C   0  0  0  0  0  0  0  0  0  0  0  0
  188.1820  175.2680  147.2220 O   0  0  0  0  0  0  0  0  0  0  0  0
  186.8760  177.0690  146.5090 N   0  0  0  0  0  2  0  0  0  0  0  0
  2  8  1  0  0  0  0
  4  3  1  0  0  0  0
  5 13  1  0  0  0  0
  6  1  1  6  0  0  0
  6  4  1  0  0  0  0
  7 10  1  0  0  0  0
  8 36  1  6  0  0  0
  8 22  1  0  0  0  0
  9  2  1  0  0  0  0
 10 12  1  0  0  0  0
 10 28  1  1  0  0  0
 11 24  1  0  0  0  0
 12 50  1  1  0  0  0
 13 11  1  0  0  0  0
 14 16  2  0  0  0  0
 15 17  2  0  0  0  0
 15  5  1  0  0  0  0
 16 18  2  0  0  0  0
 18  9  1  0  0  0  0
 19 14  1  1  0  0  0
 19 15  1  0  0  0  0
 20  1  1  0  0  0  0
 20 23  1  0  0  0  0
 21 18  1  0  0  0  0
 22 25  1  6  0  0  0
 22 12  1  0  0  0  0
 23  7  1  0  0  0  0
 23  3  2  0  0  0  0
 24  6  1  0  0  0  0
 27 26  1  0  0  0  0
 27 30  1  0  0  0  0
 28 29  2  0  0  0  0
 28 31  1  0  0  0  0
 29 32  1  0  0  0  0
 31 27  2  0  0  0  0
 32 26  2  0  0  0  0
 34 38  2  0  0  0  0
 34 37  1  0  0  0  0
 35 37  1  0  0  0  0
 36 33  1  0  0  0  0
 37 33  2  0  0  0  0
 38 36  1  0  0  0  0
 39 41  1  0  0  0  0
 40 43  1  0  0  0  0
 40 39  1  0  0  0  0
 41 42  1  6  0  0  0
 41 19  1  0  0  0  0
 43 45  1  6  0  0  0
 43 42  1  0  0  0  0
 44 39  2  0  0  0  0
 45 46  1  0  0  0  0
 46 48  1  0  0  0  0
 48 47  1  0  0  0  0
 50 52  1  0  0  0  0
 50 51  2  0  0  0  0
 52 49  1  0  0  0  0
M  END
>  <MODEL>
5

>  <REMARK>
 VINA RESULT:      -5.1      2.541      8.672
  Name = 
  7 active torsions:
  status: ('A' for Active; 'I' for Inactive)
    1  A    between atoms: C_10  and  C_27
    2  A    between atoms: N_18  and  C_19
    3  A    between atoms: C_23  and  C_24
    4  A    between atoms: C_37  and  C_42
    5  A    between atoms: C_39  and  C_40
    6  A    between atoms: C_39  and  C_45
    7  A    between atoms: C_41  and  C_45
                            x       y       z     vdW  Elec       q    Type
                         _______ _______ _______ _____ _____    ______ ____

>  <TORSDO>
F 7

$$$$
=
 OpenBabel11062421403D

 52 56  0  0  1  0  0  0  0  0999 V2000
  192.7140  172.2380  142.8640 C   0  0  0  0  0  2  0  0  0  0  0  0
  188.1910  173.0330  139.4370 C   0  0  0  0  0  2  0  0  0  0  0  0
  189.9210  172.9350  142.8120 C   0  0  0  0  0  3  0  0  0  0  0  0
  190.2240  171.5410  143.2640 C   0  0  0  0  0  2  0  0  0  0  0  0
  193.2020  168.5030  140.7960 N   0  0  0  0  0  2  0  0  0  0  0  0
  191.7020  171.4130  143.6940 C   0  0  1  0  0  3  0  0  0  0  0  0
  190.5460  174.9110  141.5960 O   0  0  0  0  0  0  0  0  0  0  0  0
  188.4700  174.5240  139.2210 C   0  0  2  0  0  3  0  0  0  0  0  0
  188.7690  172.1630  138.3220 C   0  0  0  0  0  2  0  0  0  0  0  0
  189.4590  175.7450  142.0130 C   0  0  1  0  0  3  0  0  0  0  0  0
  191.9770  169.3860  142.6810 C   0  0  0  0  0  2  0  0  0  0  0  0
  188.0780  175.1290  141.6820 C   0  0  2  0  0  3  0  0  0  0  0  0
  193.3230  168.8810  142.1950 C   0  0  0  0  0  2  0  0  0  0  0  0
  191.1000  169.4490  138.3950 C   0  0  0  0  0  3  0  0  0  0  0  0
  193.1430  169.4830  139.7590 C   0  0  0  0  0  0  0  0  0  0  0  0
  190.6670  170.6820  138.4490 C   0  0  0  0  0  0  0  0  0  0  0  0
  193.5030  170.6710  139.9840 O   0  0  0  0  0  0  0  0  0  0  0  0
  190.2320  171.9100  138.4850 C   0  0  0  0  0  0  0  0  0  0  0  0
  192.5640  169.1080  138.4280 C   0  0  2  0  0  3  0  0  0  0  0  0
  192.0760  172.9380  141.6590 C   0  0  0  0  0  2  0  0  0  0  0  0
  191.2100  173.0260  138.3560 C   0  0  0  0  0  1  0  0  0  0  0  0
  187.6760  175.3710  140.2200 C   0  0  1  0  0  3  0  0  0  0  0  0
  190.7920  173.6050  142.0490 C   0  0  0  0  0  0  0  0  0  0  0  0
  192.1230  170.0800  143.8930 O   0  0  0  0  0  0  0  0  0  0  0  0
  187.7830  176.7290  139.9040 O   0  0  0  0  0  1  0  0  0  0  0  0
  190.0270  177.3370  145.9760 C   0  0  0  0  0  3  0  0  0  0  0  0
  189.6160  176.0110  145.8200 C   0  0  0  0  0  0  0  0  0  0  0  0
  189.6580  176.2780  143.4070 C   0  0  0  0  0  0  0  0  0  0  0  0
  190.0720  177.6040  143.5680 C   0  0  0  0  0  3  0  0  0  0  0  0
  189.3720  175.1620  147.0140 C   0  0  0  0  0  1  0  0  0  0  0  0
  189.4310  175.4830  144.5390 C   0  0  0  0  0  3  0  0  0  0  0  0
  190.2560  178.1340  144.8490 C   0  0  0  0  0  3  0  0  0  0  0  0
  186.8680  175.3860  137.4670 N   0  0  0  0  0  0  0  0  0  0  0  0
  188.2170  175.4230  135.6360 N   0  0  0  0  0  0  0  0  0  0  0  0
  185.7830  176.1970  135.4420 C   0  0  0  0  0  1  0  0  0  0  0  0
  188.1230  174.9160  137.8590 N   0  0  0  0  0  0  0  0  0  0  0  0
  186.9370  175.6660  136.2130 C   0  0  0  0  0  0  0  0  0  0  0  0
  189.0350  174.9160  136.7300 C   0  0  0  0  0  3  0  0  0  0  0  0
  192.9550  169.0820  135.9630 C   0  0  0  0  0  0  0  0  0  0  0  0
  193.9560  168.2620  135.4040 N   0  0  0  0  0  2  0  0  0  0  0  0
  193.3440  169.7160  137.2460 C   0  0  2  0  0  3  0  0  0  0  0  0
  194.8300  169.3520  137.3430 C   0  0  0  0  0  2  0  0  0  0  0  0
  195.1070  168.2730  136.2900 C   0  0  2  0  0  3  0  0  0  0  0  0
  191.8490  169.2750  135.3930 O   0  0  0  0  0  0  0  0  0  0  0  0
  196.3660  168.6200  135.5120 C   0  0  0  0  0  2  0  0  0  0  0  0
  197.2200  169.6320  136.2630 C   0  0  0  0  0  2  0  0  0  0  0  0
  197.1490  171.9890  135.6340 N   0  0  0  0  0  1  0  0  0  0  0  0
  197.7540  170.7050  135.3260 C   0  0  0  0  0  2  0  0  0  0  0  0
  185.5190  177.4340  143.4620 C   0  0  0  0  0  1  0  0  0  0  0  0
  186.9720  175.5700  142.5960 C   0  0  0  0  0  0  0  0  0  0  0  0
  186.3770  174.7320  143.3270 O   0  0  0  0  0  0  0  0  0  0  0  0
  186.5940  176.9460  142.6150 N   0  0  0  0  0  2  0  0  0  0  0  0
  3  4  1  0  0  0  0
  4  6  1  0  0  0  0
  5 13  1  0  0  0  0
  6  1  1  6  0  0  0
  6 24  1  0  0  0  0
  7 10  1  0  0  0  0
  7 23  1  0  0  0  0
  8 36  1  6  0  0  0
  8  2  1  0  0  0  0
  8 22  1  0  0  0  0
  9 18  1  0  0  0  0
  9  2  1  0  0  0  0
 10 28  1  1  0  0  0
 11 24  1  0  0  0  0
 12 10  1  0  0  0  0
 12 50  1  1  0  0  0
 13 11  1  0  0  0  0
 14 16  2  0  0  0  0
 15 17  2  0  0  0  0
 15  5  1  0  0  0  0
 16 18  2  0  0  0  0
 19 14  1  1  0  0  0
 19 15  1  0  0  0  0
 20 23  1  0  0  0  0
 20  1  1  0  0  0  0
 21 18  1  0  0  0  0
 22 25  1  6  0  0  0
 22 12  1  0  0  0  0
 23  3  2  0  0  0  0
 27 26  1  0  0  0  0
 27 30  1  0  0  0  0
 28 29  2  0  0  0  0
 28 31  1  0  0  0  0
 29 32  1  0  0  0  0
 31 27  2  0  0  0  0
 32 26  2  0  0  0  0
 33 36  1  0  0  0  0
 34 37  1  0  0  0  0
 34 38  2  0  0  0  0
 35 37  1  0  0  0  0
 37 33  2  0  0  0  0
 38 36  1  0  0  0  0
 39 41  1  0  0  0  0
 40 39  1  0  0  0  0
 40 43  1  0  0  0  0
 41 42  1  1  0  0  0
 41 19  1  0  0  0  0
 43 45  1  6  0  0  0
 43 42  1  0  0  0  0
 44 39  2  0  0  0  0
 45 46  1  0  0  0  0
 48 47  1  0  0  0  0
 48 46  1  0  0  0  0
 50 52  1  0  0  0  0
 50 51  2  0  0  0  0
 52 49  1  0  0  0  0
M  END
>  <MODEL>
6

>  <REMARK>
 VINA RESULT:      -5.1      3.288      9.476
  Name = 
  7 active torsions:
  status: ('A' for Active; 'I' for Inactive)
    1  A    between atoms: C_10  and  C_27
    2  A    between atoms: N_18  and  C_19
    3  A    between atoms: C_23  and  C_24
    4  A    between atoms: C_37  and  C_42
    5  A    between atoms: C_39  and  C_40
    6  A    between atoms: C_39  and  C_45
    7  A    between atoms: C_41  and  C_45
                            x       y       z     vdW  Elec       q    Type
                         _______ _______ _______ _____ _____    ______ ____

>  <TORSDO>
F 7

$$$$
=
 OpenBabel11062421403D

 52 56  0  0  1  0  0  0  0  0999 V2000
  191.4930  172.8590  138.0560 C   0  0  0  0  0  2  0  0  0  0  0  0
  193.4750  172.4570  143.4170 C   0  0  0  0  0  2  0  0  0  0  0  0
  193.2200  171.3510  139.7970 C   0  0  0  0  0  3  0  0  0  0  0  0
  191.9060  170.7050  139.4830 C   0  0  0  0  0  2  0  0  0  0  0  0
  187.6000  173.0520  139.8660 N   0  0  0  0  0  2  0  0  0  0  0  0
  191.2720  171.3380  138.2240 C   0  0  1  0  0  3  0  0  0  0  0  0
  194.5770  173.3250  139.9860 O   0  0  0  0  0  0  0  0  0  0  0  0
  194.6830  173.3650  143.1620 C   0  0  2  0  0  3  0  0  0  0  0  0
  192.2880  173.2160  144.0090 C   0  0  0  0  0  2  0  0  0  0  0  0
  195.8250  172.6750  140.2500 C   0  0  1  0  0  3  0  0  0  0  0  0
  189.1720  171.3780  139.1190 C   0  0  0  0  0  2  0  0  0  0  0  0
  195.7620  171.7490  141.4890 C   0  0  2  0  0  3  0  0  0  0  0  0
  188.1090  172.3700  138.6870 C   0  0  0  0  0  2  0  0  0  0  0  0
  188.9210  173.6170  142.8690 C   0  0  0  0  0  3  0  0  0  0  0  0
  188.3530  174.0730  140.5230 C   0  0  0  0  0  0  0  0  0  0  0  0
  190.2170  173.7850  142.9160 C   0  0  0  0  0  0  0  0  0  0  0  0
  189.3210  174.6280  139.9350 O   0  0  0  0  0  0  0  0  0  0  0  0
  191.5070  173.9620  142.9780 C   0  0  0  0  0  0  0  0  0  0  0  0
  188.0380  174.4140  141.9480 C   0  0  2  0  0  3  0  0  0  0  0  0
  192.1940  173.5030  139.2570 C   0  0  0  0  0  2  0  0  0  0  0  0
  192.1110  175.1210  142.2640 C   0  0  0  0  0  1  0  0  0  0  0  0
  195.9160  172.5330  142.8000 C   0  0  1  0  0  3  0  0  0  0  0  0
  193.3660  172.6770  139.6940 C   0  0  0  0  0  0  0  0  0  0  0  0
  189.9290  170.9580  138.0130 O   0  0  0  0  0  0  0  0  0  0  0  0
  197.0560  173.3420  142.7530 O   0  0  0  0  0  1  0  0  0  0  0  0
  197.6400  171.1060  136.6710 C   0  0  0  0  0  3  0  0  0  0  0  0
  196.7940  170.2910  137.4280 C   0  0  0  0  0  0  0  0  0  0  0  0
  196.4420  172.1080  139.0000 C   0  0  0  0  0  0  0  0  0  0  0  0
  197.2880  172.9210  138.2370 C   0  0  0  0  0  3  0  0  0  0  0  0
  196.5300  168.8920  137.0010 C   0  0  0  0  0  1  0  0  0  0  0  0
  196.1980  170.7900  138.5890 C   0  0  0  0  0  3  0  0  0  0  0  0
  197.8860  172.4220  137.0760 C   0  0  0  0  0  3  0  0  0  0  0  0
  194.5950  175.5170  144.4850 N   0  0  0  0  0  0  0  0  0  0  0  0
  195.6280  174.8800  146.4080 N   0  0  0  0  0  0  0  0  0  0  0  0
  194.7480  177.2740  146.1660 C   0  0  0  0  0  1  0  0  0  0  0  0
  194.9670  174.1790  144.3400 N   0  0  0  0  0  0  0  0  0  0  0  0
  194.9740  175.8980  145.6540 C   0  0  0  0  0  0  0  0  0  0  0  0
  195.6330  173.7100  145.5400 C   0  0  0  0  0  3  0  0  0  0  0  0
  188.1110  176.2070  143.6830 C   0  0  0  0  0  0  0  0  0  0  0  0
  186.9190  176.7900  144.1610 N   0  0  0  0  0  2  0  0  0  0  0  0
  188.1000  175.9290  142.2260 C   0  0  2  0  0  3  0  0  0  0  0  0
  186.7990  176.6070  141.7820 C   0  0  0  0  0  2  0  0  0  0  0  0
  186.0010  176.9390  143.0470 C   0  0  2  0  0  3  0  0  0  0  0  0
  189.0960  175.9820  144.4330 O   0  0  0  0  0  0  0  0  0  0  0  0
  185.4870  178.3680  142.9740 C   0  0  0  0  0  2  0  0  0  0  0  0
  185.3810  178.9900  144.3590 C   0  0  0  0  0  2  0  0  0  0  0  0
  183.0850  179.1360  143.5430 N   0  0  0  0  0  1  0  0  0  0  0  0
  183.9360  179.3130  144.7080 C   0  0  0  0  0  2  0  0  0  0  0  0
  197.2050  168.1730  141.8860 C   0  0  0  0  0  1  0  0  0  0  0  0
  196.7380  170.6090  141.4570 C   0  0  0  0  0  0  0  0  0  0  0  0
  197.9090  170.7830  141.0210 O   0  0  0  0  0  0  0  0  0  0  0  0
  196.3170  169.3220  141.9100 N   0  0  0  0  0  2  0  0  0  0  0  0
  1 20  1  0  0  0  0
  2  9  1  0  0  0  0
  4  3  1  0  0  0  0
  5 15  1  0  0  0  0
  6  1  1  1  0  0  0
  6  4  1  0  0  0  0
  7 10  1  0  0  0  0
  8  2  1  1  0  0  0
  8 36  1  0  0  0  0
 10 28  1  6  0  0  0
 10 12  1  0  0  0  0
 12 50  1  6  0  0  0
 12 22  1  0  0  0  0
 13 11  1  0  0  0  0
 13  5  1  0  0  0  0
 14 16  2  0  0  0  0
 15 19  1  0  0  0  0
 16 18  2  0  0  0  0
 17 15  2  0  0  0  0
 18  9  1  0  0  0  0
 19 41  1  0  0  0  0
 19 14  1  1  0  0  0
 20 23  1  0  0  0  0
 21 18  1  0  0  0  0
 22 25  1  6  0  0  0
 22  8  1  0  0  0  0
 23  3  2  0  0  0  0
 23  7  1  0  0  0  0
 24  6  1  0  0  0  0
 24 11  1  0  0  0  0
 26 32  2  0  0  0  0
 26 27  1  0  0  0  0
 27 31  2  0  0  0  0
 29 28  2  0  0  0  0
 30 27  1  0  0  0  0
 31 28  1  0  0  0  0
 32 29  1  0  0  0  0
 33 37  2  0  0  0  0
 36 33  1  0  0  0  0
 36 38  1  0  0  0  0
 37 35  1  0  0  0  0
 37 34  1  0  0  0  0
 38 34  2  0  0  0  0
 39 40  1  0  0  0  0
 39 44  2  0  0  0  0
 41 42  1  6  0  0  0
 41 39  1  0  0  0  0
 42 43  1  0  0  0  0
 43 45  1  6  0  0  0
 43 40  1  0  0  0  0
 45 46  1  0  0  0  0
 46 48  1  0  0  0  0
 47 48  1  0  0  0  0
 49 52  1  0  0  0  0
 50 52  1  0  0  0  0
 51 50  2  0  0  0  0
M  END
>  <MODEL>
7

>  <REMARK>
 VINA RESULT:      -5.0      2.904      6.440
  Name = 
  7 active torsions:
  status: ('A' for Active; 'I' for Inactive)
    1  A    between atoms: C_10  and  C_27
    2  A    between atoms: N_18  and  C_19
    3  A    between atoms: C_23  and  C_24
    4  A    between atoms: C_37  and  C_42
    5  A    between atoms: C_39  and  C_40
    6  A    between atoms: C_39  and  C_45
    7  A    between atoms: C_41  and  C_45
                            x       y       z     vdW  Elec       q    Type
                         _______ _______ _______ _____ _____    ______ ____

>  <TORSDO>
F 7

$$$$
=
 OpenBabel11062421403D

 52 56  0  0  1  0  0  0  0  0999 V2000
  193.7300  171.7860  141.5720 C   0  0  0  0  0  2  0  0  0  0  0  0
  188.3530  173.7620  141.6790 C   0  0  0  0  0  2  0  0  0  0  0  0
  191.6010  172.6630  143.3010 C   0  0  0  0  0  3  0  0  0  0  0  0
  191.8050  171.1810  143.2370 C   0  0  0  0  0  2  0  0  0  0  0  0
  192.1910  168.7010  139.0080 N   0  0  0  0  0  2  0  0  0  0  0  0
  193.2060  170.8440  142.6810 C   0  0  1  0  0  3  0  0  0  0  0  0
  191.8410  174.8410  142.3150 O   0  0  0  0  0  0  0  0  0  0  0  0
  188.7690  175.2340  141.6020 C   0  0  2  0  0  3  0  0  0  0  0  0
  188.0150  173.1780  140.3080 C   0  0  0  0  0  2  0  0  0  0  0  0
  191.3730  175.6080  143.4290 C   0  0  1  0  0  3  0  0  0  0  0  0
  192.4390  169.1400  141.3700 C   0  0  0  0  0  2  0  0  0  0  0  0
  189.9500  175.1980  143.8770 C   0  0  2  0  0  3  0  0  0  0  0  0
  193.1450  168.6890  140.1040 C   0  0  0  0  0  2  0  0  0  0  0  0
  189.3620  170.3870  138.5200 C   0  0  0  0  0  3  0  0  0  0  0  0
  191.7710  169.9210  138.3940 C   0  0  0  0  0  0  0  0  0  0  0  0
  189.3010  171.5890  139.0310 C   0  0  0  0  0  0  0  0  0  0  0  0
  192.4340  170.9800  138.5650 O   0  0  0  0  0  0  0  0  0  0  0  0
  189.2290  172.7910  139.5290 C   0  0  0  0  0  0  0  0  0  0  0  0
  190.4860  169.9490  137.6220 C   0  0  2  0  0  3  0  0  0  0  0  0
  192.6930  172.8200  141.1200 C   0  0  0  0  0  2  0  0  0  0  0  0
  190.1770  173.8320  139.0420 C   0  0  0  0  0  1  0  0  0  0  0  0
  188.8640  175.8420  143.0040 C   0  0  1  0  0  3  0  0  0  0  0  0
  192.0180  173.4480  142.3010 C   0  0  0  0  0  0  0  0  0  0  0  0
  193.3760  169.4800  142.3590 O   0  0  0  0  0  0  0  0  0  0  0  0
  189.0570  177.2250  142.9270 O   0  0  0  0  0  1  0  0  0  0  0  0
  194.3680  175.9190  146.5110 C   0  0  0  0  0  3  0  0  0  0  0  0
  194.1700  176.9880  145.6340 C   0  0  0  0  0  0  0  0  0  0  0  0
  192.4200  175.7420  144.5030 C   0  0  0  0  0  0  0  0  0  0  0  0
  192.6190  174.6750  145.3860 C   0  0  0  0  0  3  0  0  0  0  0  0
  194.9930  178.2180  145.7630 C   0  0  0  0  0  1  0  0  0  0  0  0
  193.2000  176.8990  144.6320 C   0  0  0  0  0  3  0  0  0  0  0  0
  193.5910  174.7620  146.3880 C   0  0  0  0  0  3  0  0  0  0  0  0
  186.8160  176.8150  141.3280 N   0  0  0  0  0  0  0  0  0  0  0  0
  186.6910  176.9550  139.0620 N   0  0  0  0  0  0  0  0  0  0  0  0
  185.0570  178.2910  140.5130 C   0  0  0  0  0  1  0  0  0  0  0  0
  187.8140  175.9930  140.8000 N   0  0  0  0  0  0  0  0  0  0  0  0
  186.1930  177.3490  140.3370 C   0  0  0  0  0  0  0  0  0  0  0  0
  187.7880  176.0390  139.3500 C   0  0  0  0  0  3  0  0  0  0  0  0
  191.4830  170.1540  135.3440 C   0  0  0  0  0  0  0  0  0  0  0  0
  192.7000  170.8420  135.1520 N   0  0  0  0  0  2  0  0  0  0  0  0
  190.5830  170.7910  136.3350 C   0  0  2  0  0  3  0  0  0  0  0  0
  191.3040  172.1150  136.6150 C   0  0  0  0  0  2  0  0  0  0  0  0
  192.7120  172.0030  136.0230 C   0  0  2  0  0  3  0  0  0  0  0  0
  191.1910  169.1140  134.6970 O   0  0  0  0  0  0  0  0  0  0  0  0
  193.0390  173.2560  135.2260 C   0  0  0  0  0  2  0  0  0  0  0  0
  192.2320  174.4500  135.7140 C   0  0  0  0  0  2  0  0  0  0  0  0
  193.4640  175.0310  137.7390 N   0  0  0  0  0  1  0  0  0  0  0  0
  193.1230  175.4750  136.3980 C   0  0  0  0  0  2  0  0  0  0  0  0
  189.0460  174.5410  147.5900 C   0  0  0  0  0  1  0  0  0  0  0  0
  189.6610  175.4570  145.3270 C   0  0  0  0  0  0  0  0  0  0  0  0
  189.7370  176.6270  145.7940 O   0  0  0  0  0  0  0  0  0  0  0  0
  189.3170  174.3610  146.1740 N   0  0  0  0  0  2  0  0  0  0  0  0
  4  3  1  0  0  0  0
  5 13  1  0  0  0  0
  6  1  1  6  0  0  0
  6  4  1  0  0  0  0
  7 10  1  0  0  0  0
  8 36  1  6  0  0  0
  8  2  1  0  0  0  0
  8 22  1  0  0  0  0
  9  2  1  0  0  0  0
 10 12  1  0  0  0  0
 10 28  1  1  0  0  0
 11 24  1  0  0  0  0
 12 50  1  1  0  0  0
 13 11  1  0  0  0  0
 14 16  2  0  0  0  0
 15 17  2  0  0  0  0
 15  5  1  0  0  0  0
 16 18  2  0  0  0  0
 18  9  1  0  0  0  0
 19 15  1  0  0  0  0
 19 14  1  1  0  0  0
 20  1  1  0  0  0  0
 20 23  1  0  0  0  0
 21 18  1  0  0  0  0
 22 25  1  6  0  0  0
 22 12  1  0  0  0  0
 23  7  1  0  0  0  0
 23  3  2  0  0  0  0
 24  6  1  0  0  0  0
 27 30  1  0  0  0  0
 27 26  2  0  0  0  0
 28 31  2  0  0  0  0
 28 29  1  0  0  0  0
 29 32  2  0  0  0  0
 31 27  1  0  0  0  0
 32 26  1  0  0  0  0
 34 38  2  0  0  0  0
 34 37  1  0  0  0  0
 36 33  1  0  0  0  0
 37 35  1  0  0  0  0
 37 33  2  0  0  0  0
 38 36  1  0  0  0  0
 39 41  1  0  0  0  0
 40 39  1  0  0  0  0
 40 43  1  0  0  0  0
 41 42  1  1  0  0  0
 41 19  1  0  0  0  0
 43 45  1  6  0  0  0
 43 42  1  0  0  0  0
 44 39  2  0  0  0  0
 45 46  1  0  0  0  0
 46 48  1  0  0  0  0
 48 47  1  0  0  0  0
 50 51  2  0  0  0  0
 50 52  1  0  0  0  0
 52 49  1  0  0  0  0
M  END
>  <MODEL>
8

>  <REMARK>
 VINA RESULT:      -5.0      2.713      8.148
  Name = 
  7 active torsions:
  status: ('A' for Active; 'I' for Inactive)
    1  A    between atoms: C_10  and  C_27
    2  A    between atoms: N_18  and  C_19
    3  A    between atoms: C_23  and  C_24
    4  A    between atoms: C_37  and  C_42
    5  A    between atoms: C_39  and  C_40
    6  A    between atoms: C_39  and  C_45
    7  A    between atoms: C_41  and  C_45
                            x       y       z     vdW  Elec       q    Type
                         _______ _______ _______ _____ _____    ______ ____

>  <TORSDO>
F 7

$$$$
=
 OpenBabel11062421403D

 52 56  0  0  1  0  0  0  0  0999 V2000
  193.5410  170.3320  138.2540 C   0  0  0  0  0  2  0  0  0  0  0  0
  190.6460  171.6890  143.0090 C   0  0  0  0  0  2  0  0  0  0  0  0
  192.9530  169.4950  140.9450 C   0  0  0  0  0  3  0  0  0  0  0  0
  192.2280  168.7480  139.8690 C   0  0  0  0  0  2  0  0  0  0  0  0
  189.8180  170.9740  136.2050 N   0  0  0  0  0  2  0  0  0  0  0  0
  192.9280  168.9350  138.5050 C   0  0  1  0  0  3  0  0  0  0  0  0
  194.1050  171.4660  141.6960 O   0  0  0  0  0  0  0  0  0  0  0  0
  191.7930  172.5040  143.6130 C   0  0  2  0  0  3  0  0  0  0  0  0
  189.6420  172.5620  142.2570 C   0  0  0  0  0  2  0  0  0  0  0  0
  194.5280  170.9670  142.9690 C   0  0  1  0  0  3  0  0  0  0  0  0
  190.9670  169.1950  137.3660 C   0  0  0  0  0  2  0  0  0  0  0  0
  193.3450  170.4760  143.8380 C   0  0  2  0  0  3  0  0  0  0  0  0
  190.8620  169.9720  136.0670 C   0  0  0  0  0  2  0  0  0  0  0  0
  188.5090  172.4910  138.8640 C   0  0  0  0  0  3  0  0  0  0  0  0
  190.0260  172.1710  136.9580 C   0  0  0  0  0  0  0  0  0  0  0  0
  189.3140  172.7010  139.8740 C   0  0  0  0  0  0  0  0  0  0  0  0
  191.1940  172.5400  137.2580 O   0  0  0  0  0  0  0  0  0  0  0  0
  190.1050  172.9240  140.8840 C   0  0  0  0  0  0  0  0  0  0  0  0
  188.8380  172.9330  137.4650 C   0  0  2  0  0  3  0  0  0  0  0  0
  193.2210  171.3390  139.3640 C   0  0  0  0  0  2  0  0  0  0  0  0
  191.2820  173.8170  140.6950 C   0  0  0  0  0  1  0  0  0  0  0  0
  192.6360  171.6350  144.5520 C   0  0  1  0  0  3  0  0  0  0  0  0
  193.4260  170.7250  140.7150 C   0  0  0  0  0  0  0  0  0  0  0  0
  192.1680  168.4710  137.4090 O   0  0  0  0  0  0  0  0  0  0  0  0
  193.5630  172.4200  145.2450 O   0  0  0  0  0  1  0  0  0  0  0  0
  197.9330  168.3400  142.7000 C   0  0  0  0  0  3  0  0  0  0  0  0
  197.2450  168.6960  141.5370 C   0  0  0  0  0  0  0  0  0  0  0  0
  195.7200  170.0530  142.8500 C   0  0  0  0  0  0  0  0  0  0  0  0
  196.4130  169.6960  144.0120 C   0  0  0  0  0  3  0  0  0  0  0  0
  197.6840  168.1660  140.2200 C   0  0  0  0  0  1  0  0  0  0  0  0
  196.1410  169.5490  141.6120 C   0  0  0  0  0  3  0  0  0  0  0  0
  197.5170  168.8410  143.9380 C   0  0  0  0  0  3  0  0  0  0  0  0
  190.3270  173.5770  145.3710 N   0  0  0  0  0  0  0  0  0  0  0  0
  190.9060  175.7630  145.1360 N   0  0  0  0  0  0  0  0  0  0  0  0
  189.1850  175.0840  146.9070 C   0  0  0  0  0  1  0  0  0  0  0  0
  191.2710  173.6540  144.3450 N   0  0  0  0  0  0  0  0  0  0  0  0
  190.1320  174.7720  145.8060 C   0  0  0  0  0  0  0  0  0  0  0  0
  191.6840  175.0310  144.1450 C   0  0  0  0  0  3  0  0  0  0  0  0
  187.8740  175.0810  136.6380 C   0  0  0  0  0  0  0  0  0  0  0  0
  188.1950  175.5630  135.3520 N   0  0  0  0  0  2  0  0  0  0  0  0
  189.0170  174.4590  137.3490 C   0  0  2  0  0  3  0  0  0  0  0  0
  190.1890  174.7920  136.4190 C   0  0  0  0  0  2  0  0  0  0  0  0
  189.5970  175.2880  135.0960 C   0  0  2  0  0  3  0  0  0  0  0  0
  186.7230  175.2060  137.1330 O   0  0  0  0  0  0  0  0  0  0  0  0
  190.3110  176.5550  134.6520 C   0  0  0  0  0  2  0  0  0  0  0  0
  191.8150  176.3400  134.5600 C   0  0  0  0  0  2  0  0  0  0  0  0
  193.9100  177.5880  134.6710 N   0  0  0  0  0  1  0  0  0  0  0  0
  192.5750  177.4730  135.2320 C   0  0  0  0  0  2  0  0  0  0  0  0
  194.8130  168.7950  147.0090 C   0  0  0  0  0  1  0  0  0  0  0  0
  193.7110  169.4110  144.8310 C   0  0  0  0  0  0  0  0  0  0  0  0
  193.3600  168.2140  144.6410 O   0  0  0  0  0  0  0  0  0  0  0  0
  194.4460  169.7740  145.9990 N   0  0  0  0  0  2  0  0  0  0  0  0
  1 20  1  0  0  0  0
  4  3  1  0  0  0  0
  5 15  1  0  0  0  0
  6  1  1  6  0  0  0
  6  4  1  0  0  0  0
  7 10  1  0  0  0  0
  8  2  1  1  0  0  0
  8 36  1  0  0  0  0
  8 22  1  0  0  0  0
  9  2  1  0  0  0  0
 10 28  1  6  0  0  0
 10 12  1  0  0  0  0
 11 24  1  0  0  0  0
 12 22  1  0  0  0  0
 12 50  1  1  0  0  0
 13  5  1  0  0  0  0
 13 11  1  0  0  0  0
 14 16  2  0  0  0  0
 15 17  2  0  0  0  0
 15 19  1  0  0  0  0
 16 18  2  0  0  0  0
 18  9  1  0  0  0  0
 19 14  1  1  0  0  0
 20 23  1  0  0  0  0
 21 18  1  0  0  0  0
 22 25  1  6  0  0  0
 23  3  2  0  0  0  0
 23  7  1  0  0  0  0
 24  6  1  0  0  0  0
 26 32  1  0  0  0  0
 27 31  1  0  0  0  0
 27 26  2  0  0  0  0
 28 29  1  0  0  0  0
 30 27  1  0  0  0  0
 31 28  2  0  0  0  0
 32 29  2  0  0  0  0
 33 37  2  0  0  0  0
 34 37  1  0  0  0  0
 36 33  1  0  0  0  0
 37 35  1  0  0  0  0
 38 36  1  0  0  0  0
 38 34  2  0  0  0  0
 39 44  2  0  0  0  0
 39 41  1  0  0  0  0
 40 39  1  0  0  0  0
 41 42  1  6  0  0  0
 41 19  1  0  0  0  0
 43 45  1  1  0  0  0
 43 40  1  0  0  0  0
 43 42  1  0  0  0  0
 46 45  1  0  0  0  0
 46 48  1  0  0  0  0
 47 48  1  0  0  0  0
 50 52  1  0  0  0  0
 51 50  2  0  0  0  0
 52 49  1  0  0  0  0
M  END
>  <MODEL>
9

>  <REMARK>
 VINA RESULT:      -4.9      3.742      7.377
  Name = 
  7 active torsions:
  status: ('A' for Active; 'I' for Inactive)
    1  A    between atoms: C_10  and  C_27
    2  A    between atoms: N_18  and  C_19
    3  A    between atoms: C_23  and  C_24
    4  A    between atoms: C_37  and  C_42
    5  A    between atoms: C_39  and  C_40
    6  A    between atoms: C_39  and  C_45
    7  A    between atoms: C_41  and  C_45
                            x       y       z     vdW  Elec       q    Type
                         _______ _______ _______ _____ _____    ______ ____

>  <TORSDO>
F 7

$$$$
