=
 OpenBabel11062419543D

 28 31  0  0  1  0  0  0  0  0999 V2000
  188.9970  174.5940  141.9210 N   0  0  0  0  0  2  0  0  0  0  0  0
  192.1970  174.5920  143.5350 C   0  0  2  0  0  3  0  0  0  0  0  0
  193.1600  174.6230  144.6940 C   0  0  0  0  0  3  0  0  0  0  0  0
  188.5760  177.4140  145.8530 O   0  0  0  0  0  1  0  0  0  0  0  0
  192.0980  176.5930  145.5410 C   0  0  0  0  0  3  0  0  0  0  0  0
  187.9570  177.7880  143.5640 C   0  0  1  0  0  3  0  0  0  0  0  0
  190.0380  173.6900  141.5410 C   0  0  0  0  0  0  0  0  0  0  0  0
  190.3830  173.5940  140.3330 O   0  0  0  0  0  0  0  0  0  0  0  0
  190.7030  172.8140  142.5580 C   0  0  2  0  0  3  0  0  0  0  0  0
  186.6130  177.0750  143.7470 C   0  0  2  0  0  3  0  0  0  0  0  0
  189.7790  171.6720  142.9300 C   0  0  0  0  0  1  0  0  0  0  0  0
  188.9820  177.2050  144.5340 C   0  0  1  0  0  3  0  0  0  0  0  0
  193.0660  175.5370  145.6160 N   0  0  0  0  0  0  0  0  0  0  0  0
  188.3860  177.5250  142.1260 C   0  0  0  0  0  2  0  0  0  0  0  0
  188.2240  175.3250  140.9240 C   0  0  0  0  0  2  0  0  0  0  0  0
  191.3820  176.7490  144.4270 C   0  0  0  0  0  0  0  0  0  0  0  0
  191.5850  175.8730  143.3530 O   0  0  0  0  0  0  0  0  0  0  0  0
  190.3580  177.8210  144.3310 C   0  0  0  0  0  2  0  0  0  0  0  0
  187.4480  176.4790  141.5490 C   0  0  1  0  0  3  0  0  0  0  0  0
  186.5310  176.0150  142.6640 C   0  0  0  0  0  2  0  0  0  0  0  0
  191.1100  173.5660  143.8190 C   0  0  0  0  0  2  0  0  0  0  0  0
  185.8310  179.1900  143.1900 O   0  0  0  0  0  1  0  0  0  0  0  0
  185.4550  177.9760  143.6730 N   0  0  0  0  0  0  0  0  0  0  0  0
  184.8810  178.1420  145.0120 C   0  0  2  0  0  3  0  0  0  0  0  0
  185.3810  179.4230  145.6420 C   0  0  0  0  0  2  0  0  0  0  0  0
  185.2280  177.5990  147.1470 C   0  0  0  0  0  2  0  0  0  0  0  0
  185.2080  177.0630  145.8520 O   0  0  0  0  0  0  0  0  0  0  0  0
  185.6790  179.0370  147.0590 C   0  0  0  0  0  2  0  0  0  0  0  0
  2 21  1  1  0  0  0
  2  3  1  0  0  0  0
  3 13  2  0  0  0  0
  5 13  1  0  0  0  0
  6 14  1  6  0  0  0
  6 10  1  0  0  0  0
  6 12  1  0  0  0  0
  7  1  1  0  0  0  0
  7  9  1  0  0  0  0
  8  7  2  0  0  0  0
  9 11  1  1  0  0  0
  9 21  1  0  0  0  0
 10 23  1  6  0  0  0
 12  4  1  1  0  0  0
 15  1  1  0  0  0  0
 16  5  2  0  0  0  0
 17  2  1  0  0  0  0
 17 16  1  0  0  0  0
 18 16  1  0  0  0  0
 18 12  1  0  0  0  0
 19 15  1  1  0  0  0
 19 14  1  0  0  0  0
 19 20  1  0  0  0  0
 20 10  1  0  0  0  0
 22 23  1  0  0  0  0
 24 23  1  6  0  0  0
 24 25  1  0  0  0  0
 24 27  1  0  0  0  0
 25 28  1  0  0  0  0
 27 26  1  0  0  0  0
 28 26  1  0  0  0  0
M  END
>  <MODEL>
1

>  <REMARK>
 VINA RESULT:      -8.1      0.000      0.000
  Name = 
  2 active torsions:
  status: ('A' for Active; 'I' for Inactive)
    1  A    between atoms: C_5  and  N_28
    2  A    between atoms: C_13  and  N_28
                            x       y       z     vdW  Elec       q    Type
                         _______ _______ _______ _____ _____    ______ ____

>  <TORSDO>
F 2

$$$$
=
 OpenBabel11062419543D

 28 31  0  0  1  0  0  0  0  0999 V2000
  188.6690  175.6190  143.2730 N   0  0  0  0  0  2  0  0  0  0  0  0
  185.6230  177.1290  144.4050 C   0  0  2  0  0  3  0  0  0  0  0  0
  184.7610  178.1770  145.0600 C   0  0  0  0  0  3  0  0  0  0  0  0
  189.7190  177.9440  147.4050 O   0  0  0  0  0  1  0  0  0  0  0  0
  186.1110  178.0750  147.0320 C   0  0  0  0  0  3  0  0  0  0  0  0
  190.2030  175.7080  146.6810 C   0  0  1  0  0  3  0  0  0  0  0  0
  187.5020  175.6830  142.4490 C   0  0  0  0  0  0  0  0  0  0  0  0
  187.0580  174.6400  141.8980 O   0  0  0  0  0  0  0  0  0  0  0  0
  186.8160  176.9890  142.1900 C   0  0  2  0  0  3  0  0  0  0  0  0
  191.4630  176.1580  145.9320 C   0  0  2  0  0  3  0  0  0  0  0  0
  187.6220  177.8010  141.1970 C   0  0  0  0  0  1  0  0  0  0  0  0
  189.1920  176.8510  146.7150 C   0  0  1  0  0  3  0  0  0  0  0  0
  185.0320  178.6140  146.2560 N   0  0  0  0  0  0  0  0  0  0  0  0
  189.6400  174.5300  145.8960 C   0  0  0  0  0  2  0  0  0  0  0  0
  189.4470  174.3910  143.3950 C   0  0  0  0  0  2  0  0  0  0  0  0
  186.7540  176.9910  146.5990 C   0  0  0  0  0  0  0  0  0  0  0  0
  186.3680  176.4030  145.3880 O   0  0  0  0  0  0  0  0  0  0  0  0
  187.8890  176.4250  147.3730 C   0  0  0  0  0  2  0  0  0  0  0  0
  190.4000  174.4450  144.5840 C   0  0  1  0  0  3  0  0  0  0  0  0
  191.3360  175.6360  144.5130 C   0  0  0  0  0  2  0  0  0  0  0  0
  186.5980  177.8100  143.4550 C   0  0  0  0  0  2  0  0  0  0  0  0
  193.3150  176.6930  147.2280 O   0  0  0  0  0  1  0  0  0  0  0  0
  192.7120  175.6840  146.5460 N   0  0  0  0  0  0  0  0  0  0  0  0
  193.6140  175.1960  145.4980 C   0  0  2  0  0  3  0  0  0  0  0  0
  193.9640  173.7440  145.7430 C   0  0  0  0  0  2  0  0  0  0  0  0
  195.7770  175.0600  144.9720 C   0  0  0  0  0  2  0  0  0  0  0  0
  194.8010  175.9480  145.4460 O   0  0  0  0  0  0  0  0  0  0  0  0
  195.4330  173.6720  145.4550 C   0  0  0  0  0  2  0  0  0  0  0  0
  1 15  1  0  0  0  0
  2 21  1  6  0  0  0
  2  3  1  0  0  0  0
  2 17  1  0  0  0  0
  3 13  2  0  0  0  0
  6 14  1  6  0  0  0
  6 12  1  0  0  0  0
  7  1  1  0  0  0  0
  8  7  2  0  0  0  0
  9 11  1  6  0  0  0
  9  7  1  0  0  0  0
  9 21  1  0  0  0  0
 10 23  1  1  0  0  0
 10  6  1  0  0  0  0
 12 18  1  0  0  0  0
 12  4  1  1  0  0  0
 13  5  1  0  0  0  0
 16  5  2  0  0  0  0
 16 18  1  0  0  0  0
 17 16  1  0  0  0  0
 19 15  1  6  0  0  0
 19 14  1  0  0  0  0
 20 19  1  0  0  0  0
 20 10  1  0  0  0  0
 23 22  1  0  0  0  0
 24 25  1  0  0  0  0
 24 23  1  1  0  0  0
 26 27  1  0  0  0  0
 26 28  1  0  0  0  0
 27 24  1  0  0  0  0
 28 25  1  0  0  0  0
M  END
>  <MODEL>
2

>  <REMARK>
 VINA RESULT:      -7.4      2.125      6.777
  Name = 
  2 active torsions:
  status: ('A' for Active; 'I' for Inactive)
    1  A    between atoms: C_5  and  N_28
    2  A    between atoms: C_13  and  N_28
                            x       y       z     vdW  Elec       q    Type
                         _______ _______ _______ _____ _____    ______ ____

>  <TORSDO>
F 2

$$$$
=
 OpenBabel11062419543D

 28 31  0  0  1  0  0  0  0  0999 V2000
  192.8740  175.8620  145.6220 N   0  0  0  0  0  2  0  0  0  0  0  0
  193.5980  172.7330  144.0310 C   0  0  2  0  0  3  0  0  0  0  0  0
  193.5030  171.6690  142.9680 C   0  0  0  0  0  3  0  0  0  0  0  0
  188.7830  174.4350  143.4280 O   0  0  0  0  0  1  0  0  0  0  0  0
  191.1190  171.6690  143.1620 C   0  0  0  0  0  3  0  0  0  0  0  0
  189.1930  175.2070  145.6630 C   0  0  1  0  0  3  0  0  0  0  0  0
  194.2090  175.3640  145.4980 C   0  0  0  0  0  0  0  0  0  0  0  0
  194.9540  175.2910  146.5130 O   0  0  0  0  0  0  0  0  0  0  0  0
  194.7590  174.9660  144.1640 C   0  0  2  0  0  3  0  0  0  0  0  0
  189.0850  176.6760  145.2410 C   0  0  2  0  0  3  0  0  0  0  0  0
  195.0940  176.2040  143.3580 C   0  0  0  0  0  1  0  0  0  0  0  0
  189.6910  174.3720  144.4860 C   0  0  1  0  0  3  0  0  0  0  0  0
  192.3470  171.2260  142.5690 N   0  0  0  0  0  0  0  0  0  0  0  0
  190.2040  175.1660  146.8020 C   0  0  0  0  0  2  0  0  0  0  0  0
  192.3820  176.4150  146.8780 C   0  0  0  0  0  2  0  0  0  0  0  0
  191.1560  172.4270  144.2580 C   0  0  0  0  0  0  0  0  0  0  0  0
  192.3950  172.7820  144.8050 O   0  0  0  0  0  0  0  0  0  0  0  0
  189.8990  172.9180  144.8800 C   0  0  0  0  0  2  0  0  0  0  0  0
  190.8620  176.5310  146.8850 C   0  0  1  0  0  3  0  0  0  0  0  0
  190.3470  177.3640  145.7260 C   0  0  0  0  0  2  0  0  0  0  0  0
  193.8070  174.0850  143.3650 C   0  0  0  0  0  2  0  0  0  0  0  0
  187.1640  176.4980  146.5350 O   0  0  0  0  0  1  0  0  0  0  0  0
  187.8930  177.3540  145.7720 N   0  0  0  0  0  0  0  0  0  0  0  0
  187.0700  177.8360  144.6590 C   0  0  2  0  0  3  0  0  0  0  0  0
  185.9700  176.8440  144.3520 C   0  0  0  0  0  2  0  0  0  0  0  0
  186.9540  177.8240  142.4320 C   0  0  0  0  0  2  0  0  0  0  0  0
  187.8380  178.0390  143.4980 O   0  0  0  0  0  0  0  0  0  0  0  0
  185.9420  176.7870  142.8550 C   0  0  0  0  0  2  0  0  0  0  0  0
  1 15  1  0  0  0  0
  2  3  1  6  0  0  0
  2 17  1  0  0  0  0
  5 16  2  0  0  0  0
  6 14  1  1  0  0  0
  7  1  1  0  0  0  0
  7  8  2  0  0  0  0
  9 11  1  6  0  0  0
  9  7  1  0  0  0  0
 10  6  1  0  0  0  0
 10 20  1  0  0  0  0
 10 23  1  1  0  0  0
 12  4  1  6  0  0  0
 12 18  1  0  0  0  0
 12  6  1  0  0  0  0
 13  3  2  0  0  0  0
 13  5  1  0  0  0  0
 14 19  1  0  0  0  0
 15 19  1  0  0  0  0
 16 17  1  0  0  0  0
 16 18  1  0  0  0  0
 19 20  1  6  0  0  0
 21  2  1  0  0  0  0
 21  9  1  0  0  0  0
 23 22  1  0  0  0  0
 24 23  1  1  0  0  0
 25 24  1  0  0  0  0
 26 28  1  0  0  0  0
 26 27  1  0  0  0  0
 27 24  1  0  0  0  0
 28 25  1  0  0  0  0
M  END
>  <MODEL>
3

>  <REMARK>
 VINA RESULT:      -7.2      2.327      4.788
  Name = 
  2 active torsions:
  status: ('A' for Active; 'I' for Inactive)
    1  A    between atoms: C_5  and  N_28
    2  A    between atoms: C_13  and  N_28
                            x       y       z     vdW  Elec       q    Type
                         _______ _______ _______ _____ _____    ______ ____

>  <TORSDO>
F 2

$$$$
=
 OpenBabel11062419543D

 28 31  0  0  1  0  0  0  0  0999 V2000
  187.7930  177.2860  146.3480 N   0  0  0  0  0  2  0  0  0  0  0  0
  185.5160  178.6170  143.9220 C   0  0  2  0  0  3  0  0  0  0  0  0
  184.6750  178.6180  142.6710 C   0  0  0  0  0  3  0  0  0  0  0  0
  189.1600  175.5160  142.0370 O   0  0  0  0  0  1  0  0  0  0  0  0
  186.5810  177.9820  141.3730 C   0  0  0  0  0  3  0  0  0  0  0  0
  190.4180  176.5830  143.7800 C   0  0  1  0  0  3  0  0  0  0  0  0
  186.5970  177.9730  146.7270 C   0  0  0  0  0  0  0  0  0  0  0  0
  186.6480  178.9250  147.5500 O   0  0  0  0  0  0  0  0  0  0  0  0
  185.2660  177.5480  146.1900 C   0  0  2  0  0  3  0  0  0  0  0  0
  190.5930  175.2670  144.5450 C   0  0  2  0  0  3  0  0  0  0  0  0
  184.8160  176.2790  146.8850 C   0  0  0  0  0  1  0  0  0  0  0  0
  189.1180  176.5430  142.9820 C   0  0  1  0  0  3  0  0  0  0  0  0
  185.1880  178.2900  141.5210 N   0  0  0  0  0  0  0  0  0  0  0  0
  190.3540  177.6810  144.8340 C   0  0  0  0  0  2  0  0  0  0  0  0
  189.0710  177.5730  146.9910 C   0  0  0  0  0  2  0  0  0  0  0  0
  187.4120  178.1930  142.3930 C   0  0  0  0  0  0  0  0  0  0  0  0
  186.9070  178.7050  143.5950 O   0  0  0  0  0  0  0  0  0  0  0  0
  188.8560  177.8630  142.2730 C   0  0  0  0  0  2  0  0  0  0  0  0
  190.2410  177.0110  146.1920 C   0  0  1  0  0  3  0  0  0  0  0  0
  190.1120  175.5180  145.9620 C   0  0  0  0  0  2  0  0  0  0  0  0
  185.2740  177.3210  144.6830 C   0  0  0  0  0  2  0  0  0  0  0  0
  192.2740  174.2160  145.7560 O   0  0  0  0  0  1  0  0  0  0  0  0
  191.9760  174.7700  144.5510 N   0  0  0  0  0  0  0  0  0  0  0  0
  192.8940  175.8810  144.2850 C   0  0  2  0  0  3  0  0  0  0  0  0
  193.9130  175.4800  143.2400 C   0  0  0  0  0  2  0  0  0  0  0  0
  194.7990  176.7900  145.0040 C   0  0  0  0  0  2  0  0  0  0  0  0
  193.5710  176.2830  145.4500 O   0  0  0  0  0  0  0  0  0  0  0  0
  195.2040  176.0340  143.7620 C   0  0  0  0  0  2  0  0  0  0  0  0
  1  7  1  0  0  0  0
  1 15  1  0  0  0  0
  2  3  1  6  0  0  0
  2 21  1  0  0  0  0
  5 13  1  0  0  0  0
  5 16  2  0  0  0  0
  6 10  1  0  0  0  0
  6 14  1  1  0  0  0
  7  8  2  0  0  0  0
  9  7  1  0  0  0  0
  9 11  1  1  0  0  0
 10 23  1  1  0  0  0
 10 20  1  0  0  0  0
 12  4  1  6  0  0  0
 12  6  1  0  0  0  0
 13  3  2  0  0  0  0
 16 17  1  0  0  0  0
 17  2  1  0  0  0  0
 18 16  1  0  0  0  0
 18 12  1  0  0  0  0
 19 14  1  6  0  0  0
 19 15  1  0  0  0  0
 20 19  1  0  0  0  0
 21  9  1  0  0  0  0
 23 22  1  0  0  0  0
 24 23  1  1  0  0  0
 24 27  1  0  0  0  0
 25 28  1  0  0  0  0
 25 24  1  0  0  0  0
 26 27  1  0  0  0  0
 28 26  1  0  0  0  0
M  END
>  <MODEL>
4

>  <REMARK>
 VINA RESULT:      -7.2      2.219      7.140
  Name = 
  2 active torsions:
  status: ('A' for Active; 'I' for Inactive)
    1  A    between atoms: C_5  and  N_28
    2  A    between atoms: C_13  and  N_28
                            x       y       z     vdW  Elec       q    Type
                         _______ _______ _______ _____ _____    ______ ____

>  <TORSDO>
F 2

$$$$
=
 OpenBabel11062419543D

 28 31  0  0  1  0  0  0  0  0999 V2000
  187.5540  177.3570  146.4870 N   0  0  0  0  0  2  0  0  0  0  0  0
  185.6320  178.6940  143.7730 C   0  0  2  0  0  3  0  0  0  0  0  0
  184.8800  178.6660  142.4670 C   0  0  0  0  0  3  0  0  0  0  0  0
  188.9500  174.9810  142.4880 O   0  0  0  0  0  1  0  0  0  0  0  0
  186.7650  177.6630  141.3880 C   0  0  0  0  0  3  0  0  0  0  0  0
  190.2230  176.0640  144.2110 C   0  0  1  0  0  3  0  0  0  0  0  0
  186.4360  178.2240  146.7020 C   0  0  0  0  0  0  0  0  0  0  0  0
  186.5590  179.2450  147.4310 O   0  0  0  0  0  0  0  0  0  0  0  0
  185.0980  177.9120  146.1090 C   0  0  2  0  0  3  0  0  0  0  0  0
  190.1740  174.8250  145.1110 C   0  0  2  0  0  3  0  0  0  0  0  0
  184.4410  176.7900  146.8880 C   0  0  0  0  0  1  0  0  0  0  0  0
  188.9820  176.1010  143.3210 C   0  0  1  0  0  3  0  0  0  0  0  0
  185.4180  178.1550  141.3980 N   0  0  0  0  0  0  0  0  0  0  0  0
  190.2360  177.2680  145.1440 C   0  0  0  0  0  2  0  0  0  0  0  0
  188.8140  177.5510  147.1950 C   0  0  0  0  0  2  0  0  0  0  0  0
  187.5500  177.8770  142.4440 C   0  0  0  0  0  0  0  0  0  0  0  0
  187.0400  178.5740  143.5480 O   0  0  0  0  0  0  0  0  0  0  0  0
  188.9420  177.3600  142.4690 C   0  0  0  0  0  2  0  0  0  0  0  0
  189.9490  176.7660  146.5480 C   0  0  1  0  0  3  0  0  0  0  0  0
  189.6400  175.2840  146.4550 C   0  0  0  0  0  2  0  0  0  0  0  0
  185.1730  177.5270  144.6360 C   0  0  0  0  0  2  0  0  0  0  0  0
  192.4710  174.9560  144.7910 O   0  0  0  0  0  1  0  0  0  0  0  0
  191.4760  174.1640  145.2730 N   0  0  0  0  0  0  0  0  0  0  0  0
  191.4710  172.8920  144.5450 C   0  0  2  0  0  3  0  0  0  0  0  0
  192.1560  173.0510  143.2060 C   0  0  0  0  0  2  0  0  0  0  0  0
  190.2270  171.6770  143.1490 C   0  0  0  0  0  2  0  0  0  0  0  0
  190.1620  172.4220  144.3340 O   0  0  0  0  0  0  0  0  0  0  0  0
  191.2800  172.2910  142.2570 C   0  0  0  0  0  2  0  0  0  0  0  0
  1  7  1  0  0  0  0
  1 15  1  0  0  0  0
  2  3  1  6  0  0  0
  2 21  1  0  0  0  0
  5 13  1  0  0  0  0
  5 16  2  0  0  0  0
  6 10  1  0  0  0  0
  6 14  1  1  0  0  0
  7  8  2  0  0  0  0
  9  7  1  0  0  0  0
  9 11  1  1  0  0  0
 10 23  1  1  0  0  0
 10 20  1  0  0  0  0
 12  4  1  6  0  0  0
 12  6  1  0  0  0  0
 13  3  2  0  0  0  0
 16 18  1  0  0  0  0
 16 17  1  0  0  0  0
 17  2  1  0  0  0  0
 18 12  1  0  0  0  0
 19 14  1  6  0  0  0
 19 15  1  0  0  0  0
 20 19  1  0  0  0  0
 21  9  1  0  0  0  0
 22 23  1  0  0  0  0
 24 23  1  6  0  0  0
 25 24  1  0  0  0  0
 26 27  1  0  0  0  0
 27 24  1  0  0  0  0
 28 26  1  0  0  0  0
 28 25  1  0  0  0  0
M  END
>  <MODEL>
5

>  <REMARK>
 VINA RESULT:      -7.1      1.993      7.021
  Name = 
  2 active torsions:
  status: ('A' for Active; 'I' for Inactive)
    1  A    between atoms: C_5  and  N_28
    2  A    between atoms: C_13  and  N_28
                            x       y       z     vdW  Elec       q    Type
                         _______ _______ _______ _____ _____    ______ ____

>  <TORSDO>
F 2

$$$$
=
 OpenBabel11062419543D

 28 31  0  0  1  0  0  0  0  0999 V2000
  189.4080  173.7750  143.2170 N   0  0  0  0  0  2  0  0  0  0  0  0
  186.9400  175.9560  141.8050 C   0  0  2  0  0  3  0  0  0  0  0  0
  186.4010  177.2340  141.2150 C   0  0  0  0  0  3  0  0  0  0  0  0
  190.4520  178.2540  144.7770 O   0  0  0  0  0  1  0  0  0  0  0  0
  187.2520  178.4690  143.0780 C   0  0  0  0  0  3  0  0  0  0  0  0
  190.2380  176.1760  145.9600 C   0  0  1  0  0  3  0  0  0  0  0  0
  188.5060  173.3400  142.1960 C   0  0  0  0  0  0  0  0  0  0  0  0
  187.8290  172.2890  142.3540 O   0  0  0  0  0  0  0  0  0  0  0  0
  188.3830  174.0950  140.9080 C   0  0  2  0  0  3  0  0  0  0  0  0
  191.6870  175.7830  145.6550 C   0  0  2  0  0  3  0  0  0  0  0  0
  189.5880  173.8130  140.0340 C   0  0  0  0  0  1  0  0  0  0  0  0
  189.7070  177.0760  144.8460 C   0  0  1  0  0  3  0  0  0  0  0  0
  186.5900  178.3760  141.8090 N   0  0  0  0  0  0  0  0  0  0  0  0
  189.4450  174.8760  146.0090 C   0  0  0  0  0  2  0  0  0  0  0  0
  189.6680  172.9600  144.3990 C   0  0  0  0  0  2  0  0  0  0  0  0
  187.5370  177.3560  143.7530 C   0  0  0  0  0  0  0  0  0  0  0  0
  187.1930  176.1140  143.2050 O   0  0  0  0  0  0  0  0  0  0  0  0
  188.2410  177.4240  145.0600 C   0  0  0  0  0  2  0  0  0  0  0  0
  190.3480  173.7670  145.4990 C   0  0  1  0  0  3  0  0  0  0  0  0
  191.6410  174.4020  145.0260 C   0  0  0  0  0  2  0  0  0  0  0  0
  188.2460  175.5990  141.1090 C   0  0  0  0  0  2  0  0  0  0  0  0
  192.1020  176.6670  147.7620 O   0  0  0  0  0  1  0  0  0  0  0  0
  192.5570  175.7800  146.8390 N   0  0  0  0  0  0  0  0  0  0  0  0
  193.9200  176.1450  146.4440 C   0  0  2  0  0  3  0  0  0  0  0  0
  193.8930  176.9970  145.1940 C   0  0  0  0  0  2  0  0  0  0  0  0
  195.6530  175.4120  145.2460 C   0  0  0  0  0  2  0  0  0  0  0  0
  194.7120  175.0070  146.2020 O   0  0  0  0  0  0  0  0  0  0  0  0
  195.0150  176.4560  144.3620 C   0  0  0  0  0  2  0  0  0  0  0  0
  1 15  1  0  0  0  0
  2 21  1  6  0  0  0
  2 17  1  0  0  0  0
  3  2  1  0  0  0  0
  3 13  2  0  0  0  0
  5 16  2  0  0  0  0
  6 14  1  6  0  0  0
  7  8  2  0  0  0  0
  7  1  1  0  0  0  0
  9 11  1  6  0  0  0
  9 21  1  0  0  0  0
  9  7  1  0  0  0  0
 10  6  1  0  0  0  0
 10 23  1  1  0  0  0
 12  4  1  1  0  0  0
 12 18  1  0  0  0  0
 12  6  1  0  0  0  0
 13  5  1  0  0  0  0
 16 18  1  0  0  0  0
 17 16  1  0  0  0  0
 19 15  1  6  0  0  0
 19 14  1  0  0  0  0
 20 19  1  0  0  0  0
 20 10  1  0  0  0  0
 23 22  1  0  0  0  0
 24 23  1  6  0  0  0
 25 24  1  0  0  0  0
 26 27  1  0  0  0  0
 27 24  1  0  0  0  0
 28 25  1  0  0  0  0
 28 26  1  0  0  0  0
M  END
>  <MODEL>
6

>  <REMARK>
 VINA RESULT:      -7.1      2.200      6.168
  Name = 
  2 active torsions:
  status: ('A' for Active; 'I' for Inactive)
    1  A    between atoms: C_5  and  N_28
    2  A    between atoms: C_13  and  N_28
                            x       y       z     vdW  Elec       q    Type
                         _______ _______ _______ _____ _____    ______ ____

>  <TORSDO>
F 2

$$$$
=
 OpenBabel11062419543D

 28 31  0  0  1  0  0  0  0  0999 V2000
  189.5090  174.6950  142.1790 N   0  0  0  0  0  2  0  0  0  0  0  0
  193.0150  173.9620  142.0750 C   0  0  2  0  0  3  0  0  0  0  0  0
  194.3700  173.6100  142.6330 C   0  0  0  0  0  3  0  0  0  0  0  0
  191.4340  176.5170  146.2490 O   0  0  0  0  0  1  0  0  0  0  0  0
  194.2140  175.4210  144.1890 C   0  0  0  0  0  3  0  0  0  0  0  0
  189.9710  177.4930  144.6150 C   0  0  1  0  0  3  0  0  0  0  0  0
  190.0690  173.8020  141.2120 C   0  0  0  0  0  0  0  0  0  0  0  0
  189.8250  173.9620  139.9860 O   0  0  0  0  0  0  0  0  0  0  0  0
  190.9140  172.6420  141.6390 C   0  0  2  0  0  3  0  0  0  0  0  0
  188.7260  176.9060  145.2880 C   0  0  2  0  0  3  0  0  0  0  0  0
  190.0310  171.5500  142.2090 C   0  0  0  0  0  1  0  0  0  0  0  0
  191.1720  176.5880  144.8790 C   0  0  1  0  0  3  0  0  0  0  0  0
  194.8780  174.2810  143.6270 N   0  0  0  0  0  0  0  0  0  0  0  0
  189.6660  177.5390  143.1230 C   0  0  0  0  0  2  0  0  0  0  0  0
  188.5470  175.7230  141.7970 C   0  0  0  0  0  2  0  0  0  0  0  0
  193.1340  175.9160  143.5850 C   0  0  0  0  0  0  0  0  0  0  0  0
  192.6630  175.3070  142.4150 O   0  0  0  0  0  0  0  0  0  0  0  0
  192.4160  177.0830  144.1580 C   0  0  0  0  0  2  0  0  0  0  0  0
  188.3780  176.7690  142.8920 C   0  0  1  0  0  3  0  0  0  0  0  0
  187.9640  176.1520  144.2140 C   0  0  0  0  0  2  0  0  0  0  0  0
  191.9750  173.0200  142.6640 C   0  0  0  0  0  2  0  0  0  0  0  0
  188.0290  177.9050  147.2660 O   0  0  0  0  0  1  0  0  0  0  0  0
  187.8650  177.9180  145.9170 N   0  0  0  0  0  0  0  0  0  0  0  0
  186.4640  177.6340  145.5930 C   0  0  2  0  0  3  0  0  0  0  0  0
  185.7750  178.8880  145.1010 C   0  0  0  0  0  2  0  0  0  0  0  0
  184.4360  177.5410  146.5170 C   0  0  0  0  0  2  0  0  0  0  0  0
  185.7650  177.1390  146.7090 O   0  0  0  0  0  0  0  0  0  0  0  0
  184.4390  178.8570  145.7780 C   0  0  0  0  0  2  0  0  0  0  0  0
  2 17  1  0  0  0  0
  2  3  1  1  0  0  0
  2 21  1  0  0  0  0
  3 13  2  0  0  0  0
  6 14  1  6  0  0  0
  6 12  1  0  0  0  0
  6 10  1  0  0  0  0
  7  9  1  0  0  0  0
  7  1  1  0  0  0  0
  8  7  2  0  0  0  0
  9 11  1  1  0  0  0
  9 21  1  0  0  0  0
 10 23  1  6  0  0  0
 12  4  1  1  0  0  0
 13  5  1  0  0  0  0
 15  1  1  0  0  0  0
 16 18  1  0  0  0  0
 16  5  2  0  0  0  0
 17 16  1  0  0  0  0
 18 12  1  0  0  0  0
 19 15  1  6  0  0  0
 19 14  1  0  0  0  0
 19 20  1  0  0  0  0
 20 10  1  0  0  0  0
 23 22  1  0  0  0  0
 24 23  1  1  0  0  0
 24 27  1  0  0  0  0
 25 24  1  0  0  0  0
 25 28  1  0  0  0  0
 26 27  1  0  0  0  0
 28 26  1  0  0  0  0
M  END
>  <MODEL>
7

>  <REMARK>
 VINA RESULT:      -7.0      1.618      2.100
  Name = 
  2 active torsions:
  status: ('A' for Active; 'I' for Inactive)
    1  A    between atoms: C_5  and  N_28
    2  A    between atoms: C_13  and  N_28
                            x       y       z     vdW  Elec       q    Type
                         _______ _______ _______ _____ _____    ______ ____

>  <TORSDO>
F 2

$$$$
=
 OpenBabel11062419543D

 28 31  0  0  1  0  0  0  0  0999 V2000
  190.9780  174.2190  142.9680 N   0  0  0  0  0  2  0  0  0  0  0  0
  194.4180  173.6580  143.8010 C   0  0  2  0  0  3  0  0  0  0  0  0
  195.5970  173.4060  144.7060 C   0  0  0  0  0  3  0  0  0  0  0  0
  191.7370  176.3580  147.2610 O   0  0  0  0  0  1  0  0  0  0  0  0
  194.9870  175.2900  146.0470 C   0  0  0  0  0  3  0  0  0  0  0  0
  190.7080  177.1680  145.2500 C   0  0  1  0  0  3  0  0  0  0  0  0
  191.7960  173.3030  142.2350 C   0  0  0  0  0  0  0  0  0  0  0  0
  191.8680  173.3830  140.9800 O   0  0  0  0  0  0  0  0  0  0  0  0
  192.5440  172.2120  142.9370 C   0  0  2  0  0  3  0  0  0  0  0  0
  189.3530  176.5570  145.6250 C   0  0  2  0  0  3  0  0  0  0  0  0
  191.5830  171.1110  143.3370 C   0  0  0  0  0  1  0  0  0  0  0  0
  191.8310  176.3400  145.8690 C   0  0  1  0  0  3  0  0  0  0  0  0
  195.8110  174.1550  145.7480 N   0  0  0  0  0  0  0  0  0  0  0  0
  190.7910  177.1160  143.7300 C   0  0  0  0  0  2  0  0  0  0  0  0
  190.1110  175.1750  142.2880 C   0  0  0  0  0  2  0  0  0  0  0  0
  194.0810  175.6960  145.1590 C   0  0  0  0  0  0  0  0  0  0  0  0
  193.9450  175.0010  143.9510 O   0  0  0  0  0  0  0  0  0  0  0  0
  193.2000  176.8560  145.4530 C   0  0  0  0  0  2  0  0  0  0  0  0
  189.6320  176.2710  143.2330 C   0  0  1  0  0  3  0  0  0  0  0  0
  188.9160  175.7080  144.4460 C   0  0  0  0  0  2  0  0  0  0  0  0
  193.2940  172.6990  144.1700 C   0  0  0  0  0  2  0  0  0  0  0  0
  188.3910  177.8950  147.2620 O   0  0  0  0  0  1  0  0  0  0  0  0
  188.3260  177.5580  145.9470 N   0  0  0  0  0  0  0  0  0  0  0  0
  187.0000  177.0090  145.6500 C   0  0  2  0  0  3  0  0  0  0  0  0
  186.1730  178.0200  144.8850 C   0  0  0  0  0  2  0  0  0  0  0  0
  184.9540  176.8040  146.5130 C   0  0  0  0  0  2  0  0  0  0  0  0
  186.3120  176.6520  146.8240 O   0  0  0  0  0  0  0  0  0  0  0  0
  184.8160  177.9280  145.5150 C   0  0  0  0  0  2  0  0  0  0  0  0
  2 17  1  0  0  0  0
  2 21  1  1  0  0  0
  2  3  1  0  0  0  0
  3 13  2  0  0  0  0
  6 14  1  6  0  0  0
  6 10  1  0  0  0  0
  6 12  1  0  0  0  0
  7  9  1  0  0  0  0
  7  1  1  0  0  0  0
  8  7  2  0  0  0  0
  9 11  1  1  0  0  0
  9 21  1  0  0  0  0
 10 23  1  6  0  0  0
 12  4  1  1  0  0  0
 13  5  1  0  0  0  0
 15  1  1  0  0  0  0
 16 18  1  0  0  0  0
 16  5  2  0  0  0  0
 17 16  1  0  0  0  0
 18 12  1  0  0  0  0
 19 15  1  6  0  0  0
 19 14  1  0  0  0  0
 19 20  1  0  0  0  0
 20 10  1  0  0  0  0
 23 22  1  0  0  0  0
 24 23  1  1  0  0  0
 24 27  1  0  0  0  0
 25 28  1  0  0  0  0
 25 24  1  0  0  0  0
 26 27  1  0  0  0  0
 28 26  1  0  0  0  0
M  END
>  <MODEL>
8

>  <REMARK>
 VINA RESULT:      -6.7      2.113      2.776
  Name = 
  2 active torsions:
  status: ('A' for Active; 'I' for Inactive)
    1  A    between atoms: C_5  and  N_28
    2  A    between atoms: C_13  and  N_28
                            x       y       z     vdW  Elec       q    Type
                         _______ _______ _______ _____ _____    ______ ____

>  <TORSDO>
F 2

$$$$
=
 OpenBabel11062419543D

 28 31  0  0  1  0  0  0  0  0999 V2000
  192.5290  176.0820  144.1200 N   0  0  0  0  0  2  0  0  0  0  0  0
  192.9180  172.9820  142.3650 C   0  0  2  0  0  3  0  0  0  0  0  0
  192.6450  171.9570  141.2940 C   0  0  0  0  0  3  0  0  0  0  0  0
  188.1380  174.8770  142.4310 O   0  0  0  0  0  1  0  0  0  0  0  0
  190.3070  172.0380  141.7920 C   0  0  0  0  0  3  0  0  0  0  0  0
  188.8600  175.5610  144.6150 C   0  0  1  0  0  3  0  0  0  0  0  0
  193.8160  175.5400  143.8130 C   0  0  0  0  0  0  0  0  0  0  0  0
  194.6800  175.4070  144.7210 O   0  0  0  0  0  0  0  0  0  0  0  0
  194.1760  175.1650  142.4090 C   0  0  2  0  0  3  0  0  0  0  0  0
  188.7580  177.0460  144.2510 C   0  0  2  0  0  3  0  0  0  0  0  0
  194.4540  176.4160  141.6010 C   0  0  0  0  0  1  0  0  0  0  0  0
  189.1700  174.7470  143.3620 C   0  0  1  0  0  3  0  0  0  0  0  0
  191.4310  171.5690  141.0340 N   0  0  0  0  0  0  0  0  0  0  0  0
  190.0040  175.4460  145.6140 C   0  0  0  0  0  2  0  0  0  0  0  0
  192.2230  176.6120  145.4440 C   0  0  0  0  0  2  0  0  0  0  0  0
  190.5140  172.7580  142.8940 C   0  0  0  0  0  0  0  0  0  0  0  0
  191.8260  173.0500  143.2880 O   0  0  0  0  0  0  0  0  0  0  0  0
  189.3670  173.2730  143.6860 C   0  0  0  0  0  2  0  0  0  0  0  0
  190.7220  176.7830  145.6480 C   0  0  1  0  0  3  0  0  0  0  0  0
  190.0980  177.6710  144.5890 C   0  0  0  0  0  2  0  0  0  0  0  0
  193.0950  174.3460  141.7140 C   0  0  0  0  0  2  0  0  0  0  0  0
  187.0130  176.8960  145.7780 O   0  0  0  0  0  1  0  0  0  0  0  0
  187.6720  177.7490  144.9490 N   0  0  0  0  0  0  0  0  0  0  0  0
  186.7320  178.2940  143.9640 C   0  0  2  0  0  3  0  0  0  0  0  0
  185.8210  179.3100  144.6160 C   0  0  0  0  0  2  0  0  0  0  0  0
  184.7380  177.9070  143.0440 C   0  0  0  0  0  2  0  0  0  0  0  0
  185.9450  177.2820  143.3840 O   0  0  0  0  0  0  0  0  0  0  0  0
  184.4690  179.0030  144.0470 C   0  0  0  0  0  2  0  0  0  0  0  0
  1 15  1  0  0  0  0
  2  3  1  6  0  0  0
  2 17  1  0  0  0  0
  5 16  2  0  0  0  0
  6 14  1  1  0  0  0
  7  1  1  0  0  0  0
  7  8  2  0  0  0  0
  9 11  1  6  0  0  0
  9  7  1  0  0  0  0
 10 20  1  0  0  0  0
 10  6  1  0  0  0  0
 10 23  1  1  0  0  0
 12  4  1  6  0  0  0
 12 18  1  0  0  0  0
 12  6  1  0  0  0  0
 13  3  2  0  0  0  0
 13  5  1  0  0  0  0
 14 19  1  0  0  0  0
 15 19  1  0  0  0  0
 16 17  1  0  0  0  0
 16 18  1  0  0  0  0
 19 20  1  6  0  0  0
 21  2  1  0  0  0  0
 21  9  1  0  0  0  0
 23 22  1  0  0  0  0
 24 25  1  0  0  0  0
 24 23  1  1  0  0  0
 26 27  1  0  0  0  0
 26 28  1  0  0  0  0
 27 24  1  0  0  0  0
 28 25  1  0  0  0  0
M  END
>  <MODEL>
9

>  <REMARK>
 VINA RESULT:      -6.7      2.116      4.258
  Name = 
  2 active torsions:
  status: ('A' for Active; 'I' for Inactive)
    1  A    between atoms: C_5  and  N_28
    2  A    between atoms: C_13  and  N_28
                            x       y       z     vdW  Elec       q    Type
                         _______ _______ _______ _____ _____    ______ ____

>  <TORSDO>
F 2

$$$$
