=
 OpenBabel11062419543D

 28 31  0  0  1  0  0  0  0  0999 V2000
  186.1090  178.2700  140.7170 O   0  0  0  0  0  1  0  0  0  0  0  0
  189.2270  175.5280  142.4500 C   0  0  0  0  0  0  0  0  0  0  0  0
  187.6380  177.2700  143.5500 C   0  0  0  0  0  2  0  0  0  0  0  0
  186.0860  177.2520  141.6710 C   0  0  1  0  0  3  0  0  0  0  0  0
  187.4230  175.5430  140.3550 N   0  0  0  0  0  0  0  0  0  0  0  0
  188.5290  174.7470  140.3120 C   0  0  0  0  0  3  0  0  0  0  0  0
  184.4410  179.0710  143.1840 O   0  0  0  0  0  0  0  0  0  0  0  0
  187.2200  176.3290  141.4410 C   0  0  0  0  0  0  0  0  0  0  0  0
  185.5290  178.7000  143.7010 C   0  0  0  0  0  0  0  0  0  0  0  0
  189.4190  174.7420  141.3500 N   0  0  0  0  0  0  0  0  0  0  0  0
  186.3940  177.8040  142.9920 N   0  0  0  0  0  0  0  0  0  0  0  0
  188.0960  176.3390  142.4920 C   0  0  0  0  0  0  0  0  0  0  0  0
  190.7780  176.9140  143.7990 C   0  0  0  0  0  2  0  0  0  0  0  0
  194.3930  176.9010  146.5990 C   0  0  0  0  0  1  0  0  0  0  0  0
  190.6170  174.3720  145.7520 C   0  0  0  0  0  2  0  0  0  0  0  0
  189.5460  174.9580  144.8420 C   0  0  0  0  0  2  0  0  0  0  0  0
  193.0590  176.1200  144.6390 C   0  0  0  0  0  2  0  0  0  0  0  0
  191.3150  175.4180  146.6350 C   0  0  2  0  0  3  0  0  0  0  0  0
  191.1890  176.7580  146.1910 O   0  0  0  0  0  0  0  0  0  0  0  0
  190.2010  175.5140  143.5830 C   0  0  1  0  0  3  0  0  0  0  0  0
  191.8050  176.9690  144.9280 C   0  0  2  0  0  3  0  0  0  0  0  0
  194.8480  174.7040  145.5880 C   0  0  0  0  0  1  0  0  0  0  0  0
  192.7750  175.0320  146.8990 C   0  0  0  0  0  2  0  0  0  0  0  0
  193.7560  175.6960  145.9290 C   0  0  0  0  0  0  0  0  0  0  0  0
  185.9110  179.2290  145.0470 C   0  0  0  0  0  2  0  0  0  0  0  0
  185.5150  179.1050  147.4850 C   0  0  0  0  0  1  0  0  0  0  0  0
  185.0240  178.6390  146.1310 C   0  0  0  0  0  3  0  0  0  0  0  0
  185.0670  177.1240  146.0810 C   0  0  0  0  0  1  0  0  0  0  0  0
  2 12  1  0  0  0  0
  4  1  1  6  0  0  0
  4 11  1  0  0  0  0
  5  8  1  0  0  0  0
  6  5  2  0  0  0  0
  6 10  1  0  0  0  0
  7  9  2  0  0  0  0
  8  4  1  0  0  0  0
  8 12  2  0  0  0  0
  9 25  1  0  0  0  0
 10  2  2  0  0  0  0
 11  3  1  0  0  0  0
 11  9  1  0  0  0  0
 12  3  1  0  0  0  0
 16 15  1  0  0  0  0
 17 21  1  0  0  0  0
 17 24  1  0  0  0  0
 18 15  1  6  0  0  0
 18 23  1  0  0  0  0
 19 18  1  0  0  0  0
 20  2  1  6  0  0  0
 20 13  1  0  0  0  0
 20 16  1  0  0  0  0
 21 13  1  6  0  0  0
 21 19  1  0  0  0  0
 22 24  1  0  0  0  0
 24 14  1  0  0  0  0
 24 23  1  0  0  0  0
 25 27  1  0  0  0  0
 27 26  1  0  0  0  0
 28 27  1  0  0  0  0
M  END
>  <MODEL>
1

>  <REMARK>
 VINA RESULT:      -8.0      0.000      0.000
  Name = 
  3 active torsions:
  status: ('A' for Active; 'I' for Inactive)
    1  A    between atoms: C_2  and  C_14
    2  A    between atoms: C_4  and  C_22
    3  A    between atoms: C_4  and  C_23
                            x       y       z     vdW  Elec       q    Type
                         _______ _______ _______ _____ _____    ______ ____

>  <TORSDO>
F 3

$$$$
=
 OpenBabel11062419543D

 28 31  0  0  1  0  0  0  0  0999 V2000
  183.7130  177.9740  143.0500 O   0  0  0  0  0  1  0  0  0  0  0  0
  187.0000  177.5840  146.0970 C   0  0  0  0  0  0  0  0  0  0  0  0
  187.0360  177.6230  143.4950 C   0  0  0  0  0  2  0  0  0  0  0  0
  184.8600  178.7120  143.3410 C   0  0  1  0  0  3  0  0  0  0  0  0
  184.5420  178.8280  145.8560 N   0  0  0  0  0  0  0  0  0  0  0  0
  185.0600  178.5460  147.0860 C   0  0  0  0  0  3  0  0  0  0  0  0
  185.2340  178.7560  140.4840 O   0  0  0  0  0  0  0  0  0  0  0  0
  185.2510  178.4880  144.7510 C   0  0  0  0  0  0  0  0  0  0  0  0
  186.1370  178.2220  141.1820 C   0  0  0  0  0  0  0  0  0  0  0  0
  186.2750  177.9310  147.2010 N   0  0  0  0  0  0  0  0  0  0  0  0
  186.0030  178.1610  142.6080 N   0  0  0  0  0  0  0  0  0  0  0  0
  186.4700  177.8730  144.8420 C   0  0  0  0  0  0  0  0  0  0  0  0
  189.3510  177.8850  146.8270 C   0  0  0  0  0  2  0  0  0  0  0  0
  193.6380  176.3320  146.4910 C   0  0  0  0  0  1  0  0  0  0  0  0
  189.3250  174.6790  146.6700 C   0  0  0  0  0  2  0  0  0  0  0  0
  188.2020  175.6350  147.0480 C   0  0  0  0  0  2  0  0  0  0  0  0
  191.3730  176.9010  145.6100 C   0  0  0  0  0  2  0  0  0  0  0  0
  190.6460  174.9590  147.4030 C   0  0  2  0  0  3  0  0  0  0  0  0
  190.7590  176.2570  147.9600 O   0  0  0  0  0  0  0  0  0  0  0  0
  188.3300  176.9150  146.2300 C   0  0  1  0  0  3  0  0  0  0  0  0
  190.7430  177.2740  146.9660 C   0  0  2  0  0  3  0  0  0  0  0  0
  192.8440  175.3380  144.3850 C   0  0  0  0  0  1  0  0  0  0  0  0
  191.8510  174.5980  146.5280 C   0  0  0  0  0  2  0  0  0  0  0  0
  192.4170  175.7980  145.7630 C   0  0  0  0  0  0  0  0  0  0  0  0
  187.3300  177.6330  140.5000 C   0  0  0  0  0  2  0  0  0  0  0  0
  188.1300  175.2990  140.6870 C   0  0  0  0  0  1  0  0  0  0  0  0
  187.0630  176.1930  140.0920 C   0  0  0  0  0  3  0  0  0  0  0  0
  187.0880  176.0600  138.5810 C   0  0  0  0  0  1  0  0  0  0  0  0
  2 10  1  0  0  0  0
  3 12  1  0  0  0  0
  4  1  1  6  0  0  0
  4  8  1  0  0  0  0
  5  6  1  0  0  0  0
  6 10  2  0  0  0  0
  7  9  2  0  0  0  0
  8 12  1  0  0  0  0
  8  5  2  0  0  0  0
  9 11  1  0  0  0  0
 11  4  1  0  0  0  0
 11  3  1  0  0  0  0
 12  2  2  0  0  0  0
 13 21  1  0  0  0  0
 15 16  1  0  0  0  0
 15 18  1  0  0  0  0
 17 24  1  0  0  0  0
 18 23  1  6  0  0  0
 18 19  1  0  0  0  0
 20  2  1  1  0  0  0
 20 13  1  0  0  0  0
 20 16  1  0  0  0  0
 21 17  1  6  0  0  0
 21 19  1  0  0  0  0
 22 24  1  0  0  0  0
 24 14  1  0  0  0  0
 24 23  1  0  0  0  0
 25  9  1  0  0  0  0
 27 25  1  0  0  0  0
 27 26  1  0  0  0  0
 28 27  1  0  0  0  0
M  END
>  <MODEL>
2

>  <REMARK>
 VINA RESULT:      -7.9      1.853      4.316
  Name = 
  3 active torsions:
  status: ('A' for Active; 'I' for Inactive)
    1  A    between atoms: C_2  and  C_14
    2  A    between atoms: C_4  and  C_22
    3  A    between atoms: C_4  and  C_23
                            x       y       z     vdW  Elec       q    Type
                         _______ _______ _______ _____ _____    ______ ____

>  <TORSDO>
F 3

$$$$
=
 OpenBabel11062419543D

 28 31  0  0  1  0  0  0  0  0999 V2000
  184.4650  179.7730  143.8290 O   0  0  0  0  0  1  0  0  0  0  0  0
  187.0280  176.7100  141.7580 C   0  0  0  0  0  0  0  0  0  0  0  0
  186.2450  176.9380  144.2290 C   0  0  0  0  0  2  0  0  0  0  0  0
  184.3760  178.3920  143.6500 C   0  0  1  0  0  3  0  0  0  0  0  0
  184.8850  178.3540  141.1650 N   0  0  0  0  0  0  0  0  0  0  0  0
  185.7000  177.8910  140.1740 C   0  0  0  0  0  3  0  0  0  0  0  0
  183.6500  178.3460  146.4380 O   0  0  0  0  0  0  0  0  0  0  0  0
  185.1420  177.9970  142.4480 C   0  0  0  0  0  0  0  0  0  0  0  0
  184.6830  177.7110  146.0940 C   0  0  0  0  0  0  0  0  0  0  0  0
  186.7580  177.0780  140.4710 N   0  0  0  0  0  0  0  0  0  0  0  0
  185.1000  177.7060  144.7230 N   0  0  0  0  0  0  0  0  0  0  0  0
  186.1940  177.1830  142.7680 C   0  0  0  0  0  0  0  0  0  0  0  0
  188.3420  174.7520  140.9910 C   0  0  0  0  0  2  0  0  0  0  0  0
  191.2310  171.4270  142.2170 C   0  0  0  0  0  1  0  0  0  0  0  0
  190.4200  175.8780  143.1620 C   0  0  0  0  0  2  0  0  0  0  0  0
  189.4530  176.6410  142.2660 C   0  0  0  0  0  2  0  0  0  0  0  0
  189.2810  172.9500  142.5430 C   0  0  0  0  0  2  0  0  0  0  0  0
  191.2650  174.8370  142.4120 C   0  0  2  0  0  3  0  0  0  0  0  0
  190.7490  174.4410  141.1520 O   0  0  0  0  0  0  0  0  0  0  0  0
  188.1840  175.8180  142.0750 C   0  0  1  0  0  3  0  0  0  0  0  0
  189.4920  173.7860  141.2660 C   0  0  2  0  0  3  0  0  0  0  0  0
  190.3480  171.8400  144.4760 C   0  0  0  0  0  1  0  0  0  0  0  0
  191.5870  173.6360  143.3080 C   0  0  0  0  0  2  0  0  0  0  0  0
  190.6090  172.4720  143.1250 C   0  0  0  0  0  0  0  0  0  0  0  0
  185.4760  176.9920  147.1380 C   0  0  0  0  0  2  0  0  0  0  0  0
  186.0760  179.3530  147.5680 C   0  0  0  0  0  1  0  0  0  0  0  0
  186.5080  177.9150  147.7650 C   0  0  0  0  0  3  0  0  0  0  0  0
  187.8630  177.7100  147.1150 C   0  0  0  0  0  1  0  0  0  0  0  0
  2 12  1  0  0  0  0
  3 11  1  0  0  0  0
  4  1  1  1  0  0  0
  4 11  1  0  0  0  0
  5  8  1  0  0  0  0
  6 10  1  0  0  0  0
  6  5  2  0  0  0  0
  8 12  2  0  0  0  0
  8  4  1  0  0  0  0
  9  7  2  0  0  0  0
  9 25  1  0  0  0  0
 10  2  2  0  0  0  0
 11  9  1  0  0  0  0
 12  3  1  0  0  0  0
 13 20  1  0  0  0  0
 14 24  1  0  0  0  0
 16 15  1  0  0  0  0
 17 24  1  0  0  0  0
 18 15  1  1  0  0  0
 18 23  1  0  0  0  0
 19 21  1  0  0  0  0
 19 18  1  0  0  0  0
 20  2  1  6  0  0  0
 20 16  1  0  0  0  0
 21 13  1  1  0  0  0
 21 17  1  0  0  0  0
 24 23  1  0  0  0  0
 24 22  1  0  0  0  0
 25 27  1  0  0  0  0
 26 27  1  0  0  0  0
 28 27  1  0  0  0  0
M  END
>  <MODEL>
3

>  <REMARK>
 VINA RESULT:      -7.7      2.685      3.885
  Name = 
  3 active torsions:
  status: ('A' for Active; 'I' for Inactive)
    1  A    between atoms: C_2  and  C_14
    2  A    between atoms: C_4  and  C_22
    3  A    between atoms: C_4  and  C_23
                            x       y       z     vdW  Elec       q    Type
                         _______ _______ _______ _____ _____    ______ ____

>  <TORSDO>
F 3

$$$$
=
 OpenBabel11062419543D

 28 31  0  0  1  0  0  0  0  0999 V2000
  188.1740  172.7700  139.3040 O   0  0  0  0  0  1  0  0  0  0  0  0
  186.6370  176.7160  140.8260 C   0  0  0  0  0  0  0  0  0  0  0  0
  187.9180  174.7780  142.0000 C   0  0  0  0  0  2  0  0  0  0  0  0
  188.7710  173.8820  139.9000 C   0  0  1  0  0  3  0  0  0  0  0  0
  187.6450  175.6570  138.4790 N   0  0  0  0  0  0  0  0  0  0  0  0
  186.8520  176.7660  138.4560 C   0  0  0  0  0  3  0  0  0  0  0  0
  190.2050  171.9360  141.4690 O   0  0  0  0  0  0  0  0  0  0  0  0
  187.9330  175.0790  139.6720 C   0  0  0  0  0  0  0  0  0  0  0  0
  189.4760  172.7580  142.0850 C   0  0  0  0  0  0  0  0  0  0  0  0
  186.3550  177.2870  139.6180 N   0  0  0  0  0  0  0  0  0  0  0  0
  188.7300  173.7430  141.3580 N   0  0  0  0  0  0  0  0  0  0  0  0
  187.4480  175.5840  140.8480 C   0  0  0  0  0  0  0  0  0  0  0  0
  187.1900  178.0510  142.8410 C   0  0  0  0  0  2  0  0  0  0  0  0
  185.9740  179.1180  147.1170 C   0  0  0  0  0  1  0  0  0  0  0  0
  183.9920  178.2280  143.0370 C   0  0  0  0  0  2  0  0  0  0  0  0
  184.8800  178.1680  141.8020 C   0  0  0  0  0  2  0  0  0  0  0  0
  186.2790  177.5730  145.1810 C   0  0  0  0  0  2  0  0  0  0  0  0
  184.4400  179.2750  144.0680 C   0  0  2  0  0  3  0  0  0  0  0  0
  185.7850  179.7030  143.9430 O   0  0  0  0  0  0  0  0  0  0  0  0
  186.0940  177.2920  142.0930 C   0  0  1  0  0  3  0  0  0  0  0  0
  186.7110  178.6460  144.1620 C   0  0  2  0  0  3  0  0  0  0  0  0
  184.7450  176.9880  147.0290 C   0  0  0  0  0  1  0  0  0  0  0  0
  184.1080  178.8230  145.4950 C   0  0  0  0  0  2  0  0  0  0  0  0
  185.2820  178.1320  146.1930 C   0  0  0  0  0  0  0  0  0  0  0  0
  189.3820  172.6720  143.5750 C   0  0  0  0  0  2  0  0  0  0  0  0
  191.6460  172.8300  144.5600 C   0  0  0  0  0  1  0  0  0  0  0  0
  190.3860  173.6040  144.2340 C   0  0  0  0  0  3  0  0  0  0  0  0
  189.8110  174.1780  145.5150 C   0  0  0  0  0  1  0  0  0  0  0  0
  2 12  1  0  0  0  0
  4  1  1  6  0  0  0
  4 11  1  0  0  0  0
  5  8  1  0  0  0  0
  6  5  2  0  0  0  0
  6 10  1  0  0  0  0
  7  9  2  0  0  0  0
  8  4  1  0  0  0  0
  8 12  2  0  0  0  0
  9 25  1  0  0  0  0
 10  2  2  0  0  0  0
 11  3  1  0  0  0  0
 11  9  1  0  0  0  0
 12  3  1  0  0  0  0
 16 20  1  0  0  0  0
 16 15  1  0  0  0  0
 17 24  1  0  0  0  0
 18 15  1  6  0  0  0
 18 23  1  0  0  0  0
 19 18  1  0  0  0  0
 19 21  1  0  0  0  0
 20  2  1  6  0  0  0
 20 13  1  0  0  0  0
 21 13  1  6  0  0  0
 21 17  1  0  0  0  0
 23 24  1  0  0  0  0
 24 22  1  0  0  0  0
 24 14  1  0  0  0  0
 25 27  1  0  0  0  0
 27 26  1  0  0  0  0
 27 28  1  0  0  0  0
M  END
>  <MODEL>
4

>  <REMARK>
 VINA RESULT:      -7.6      2.705      6.561
  Name = 
  3 active torsions:
  status: ('A' for Active; 'I' for Inactive)
    1  A    between atoms: C_2  and  C_14
    2  A    between atoms: C_4  and  C_22
    3  A    between atoms: C_4  and  C_23
                            x       y       z     vdW  Elec       q    Type
                         _______ _______ _______ _____ _____    ______ ____

>  <TORSDO>
F 3

$$$$
=
 OpenBabel11062419543D

 28 31  0  0  1  0  0  0  0  0999 V2000
  185.8330  177.9060  146.9930 O   0  0  0  0  0  1  0  0  0  0  0  0
  189.3280  175.7170  145.1940 C   0  0  0  0  0  0  0  0  0  0  0  0
  187.1140  176.6090  144.1570 C   0  0  0  0  0  2  0  0  0  0  0  0
  186.7380  178.1940  145.9710 C   0  0  1  0  0  3  0  0  0  0  0  0
  188.8510  177.5420  147.2170 N   0  0  0  0  0  0  0  0  0  0  0  0
  189.9590  176.7470  147.2460 C   0  0  0  0  0  3  0  0  0  0  0  0
  184.4130  179.0910  144.5260 O   0  0  0  0  0  0  0  0  0  0  0  0
  187.9840  177.4240  146.1800 C   0  0  0  0  0  0  0  0  0  0  0  0
  185.0820  178.1480  144.0260 C   0  0  0  0  0  0  0  0  0  0  0  0
  190.1910  175.8460  146.2440 N   0  0  0  0  0  0  0  0  0  0  0  0
  186.2430  177.6510  144.7040 N   0  0  0  0  0  0  0  0  0  0  0  0
  188.1980  176.5300  145.1660 C   0  0  0  0  0  0  0  0  0  0  0  0
  190.6830  175.2580  143.1690 C   0  0  0  0  0  2  0  0  0  0  0  0
  191.0010  172.8310  139.3070 C   0  0  0  0  0  1  0  0  0  0  0  0
  189.5890  172.2830  143.6750 C   0  0  0  0  0  2  0  0  0  0  0  0
  189.9360  173.3680  144.6850 C   0  0  0  0  0  2  0  0  0  0  0  0
  189.7840  174.1240  141.0610 C   0  0  0  0  0  2  0  0  0  0  0  0
  190.6810  172.0540  142.6180 C   0  0  2  0  0  3  0  0  0  0  0  0
  191.6050  173.1180  142.4700 O   0  0  0  0  0  0  0  0  0  0  0  0
  189.5900  174.7330  144.1010 C   0  0  1  0  0  3  0  0  0  0  0  0
  190.9840  174.3110  142.0090 C   0  0  2  0  0  3  0  0  0  0  0  0
  188.5660  172.5810  139.5630 C   0  0  0  0  0  1  0  0  0  0  0  0
  190.0730  171.6250  141.2790 C   0  0  0  0  0  2  0  0  0  0  0  0
  189.8640  172.7960  140.3130 C   0  0  0  0  0  0  0  0  0  0  0  0
  184.6310  177.5420  142.7350 C   0  0  0  0  0  2  0  0  0  0  0  0
  183.9340  178.3830  140.5160 C   0  0  0  0  0  1  0  0  0  0  0  0
  185.0310  178.4170  141.5590 C   0  0  0  0  0  3  0  0  0  0  0  0
  186.3210  177.9130  140.9400 C   0  0  0  0  0  1  0  0  0  0  0  0
  2 10  1  0  0  0  0
  3 11  1  0  0  0  0
  3 12  1  0  0  0  0
  4  8  1  0  0  0  0
  4  1  1  1  0  0  0
  5  6  1  0  0  0  0
  8  5  2  0  0  0  0
  9  7  2  0  0  0  0
  9 11  1  0  0  0  0
 10  6  2  0  0  0  0
 11  4  1  0  0  0  0
 12  2  2  0  0  0  0
 12  8  1  0  0  0  0
 13 20  1  0  0  0  0
 14 24  1  0  0  0  0
 15 16  1  0  0  0  0
 18 23  1  6  0  0  0
 18 15  1  0  0  0  0
 19 18  1  0  0  0  0
 20 16  1  0  0  0  0
 20  2  1  1  0  0  0
 21 17  1  1  0  0  0
 21 19  1  0  0  0  0
 21 13  1  0  0  0  0
 22 24  1  0  0  0  0
 24 17  1  0  0  0  0
 24 23  1  0  0  0  0
 25  9  1  0  0  0  0
 26 27  1  0  0  0  0
 27 25  1  0  0  0  0
 28 27  1  0  0  0  0
M  END
>  <MODEL>
5

>  <REMARK>
 VINA RESULT:      -7.5      2.859      5.112
  Name = 
  3 active torsions:
  status: ('A' for Active; 'I' for Inactive)
    1  A    between atoms: C_2  and  C_14
    2  A    between atoms: C_4  and  C_22
    3  A    between atoms: C_4  and  C_23
                            x       y       z     vdW  Elec       q    Type
                         _______ _______ _______ _____ _____    ______ ____

>  <TORSDO>
F 3

$$$$
=
 OpenBabel11062419543D

 28 31  0  0  1  0  0  0  0  0999 V2000
  191.5750  172.0460  142.5690 O   0  0  0  0  0  1  0  0  0  0  0  0
  188.4590  175.2350  141.9640 C   0  0  0  0  0  0  0  0  0  0  0  0
  190.1770  174.8220  143.8750 C   0  0  0  0  0  2  0  0  0  0  0  0
  191.6140  173.4370  142.4750 C   0  0  1  0  0  3  0  0  0  0  0  0
  190.1360  173.6650  140.4250 N   0  0  0  0  0  0  0  0  0  0  0  0
  188.9980  174.1960  139.8910 C   0  0  0  0  0  3  0  0  0  0  0  0
  193.4150  173.2730  144.7180 O   0  0  0  0  0  0  0  0  0  0  0  0
  190.4330  173.9180  141.7240 C   0  0  0  0  0  0  0  0  0  0  0  0
  192.3460  173.9210  144.8750 C   0  0  0  0  0  0  0  0  0  0  0  0
  188.1720  174.9710  140.6560 N   0  0  0  0  0  0  0  0  0  0  0  0
  191.4060  174.0300  143.7980 N   0  0  0  0  0  0  0  0  0  0  0  0
  189.6220  174.6920  142.5070 C   0  0  0  0  0  0  0  0  0  0  0  0
  188.3740  177.0330  143.6690 C   0  0  0  0  0  2  0  0  0  0  0  0
  185.8430  179.0710  146.8860 C   0  0  0  0  0  1  0  0  0  0  0  0
  185.3150  177.1660  142.7070 C   0  0  0  0  0  2  0  0  0  0  0  0
  186.5640  176.8330  141.9040 C   0  0  0  0  0  2  0  0  0  0  0  0
  186.6950  177.1120  145.5960 C   0  0  0  0  0  2  0  0  0  0  0  0
  185.4470  178.4430  143.5510 C   0  0  2  0  0  3  0  0  0  0  0  0
  186.7780  178.8640  143.7980 O   0  0  0  0  0  0  0  0  0  0  0  0
  187.5530  176.0860  142.7930 C   0  0  1  0  0  3  0  0  0  0  0  0
  187.5090  177.9170  144.5650 C   0  0  2  0  0  3  0  0  0  0  0  0
  184.5940  176.9520  146.8880 C   0  0  0  0  0  1  0  0  0  0  0  0
  184.6240  178.3420  144.8400 C   0  0  0  0  0  2  0  0  0  0  0  0
  185.4490  177.8720  146.0420 C   0  0  0  0  0  0  0  0  0  0  0  0
  192.0650  174.5480  146.2030 C   0  0  0  0  0  2  0  0  0  0  0  0
  193.9800  176.0830  146.5120 C   0  0  0  0  0  1  0  0  0  0  0  0
  192.4980  176.0060  146.2150 C   0  0  0  0  0  3  0  0  0  0  0  0
  191.7370  176.7730  147.2790 C   0  0  0  0  0  1  0  0  0  0  0  0
  2 12  1  0  0  0  0
  4  1  1  1  0  0  0
  4 11  1  0  0  0  0
  5  8  1  0  0  0  0
  6  5  2  0  0  0  0
  6 10  1  0  0  0  0
  7  9  2  0  0  0  0
  8  4  1  0  0  0  0
  8 12  2  0  0  0  0
  9 25  1  0  0  0  0
 10  2  2  0  0  0  0
 11  3  1  0  0  0  0
 11  9  1  0  0  0  0
 12  3  1  0  0  0  0
 16 15  1  0  0  0  0
 16 20  1  0  0  0  0
 17 24  1  0  0  0  0
 18 15  1  1  0  0  0
 18 19  1  0  0  0  0
 18 23  1  0  0  0  0
 19 21  1  0  0  0  0
 20  2  1  6  0  0  0
 20 13  1  0  0  0  0
 21 13  1  6  0  0  0
 21 17  1  0  0  0  0
 23 24  1  0  0  0  0
 24 14  1  0  0  0  0
 24 22  1  0  0  0  0
 25 27  1  0  0  0  0
 27 26  1  0  0  0  0
 27 28  1  0  0  0  0
M  END
>  <MODEL>
6

>  <REMARK>
 VINA RESULT:      -7.3      1.991      6.587
  Name = 
  3 active torsions:
  status: ('A' for Active; 'I' for Inactive)
    1  A    between atoms: C_2  and  C_14
    2  A    between atoms: C_4  and  C_22
    3  A    between atoms: C_4  and  C_23
                            x       y       z     vdW  Elec       q    Type
                         _______ _______ _______ _____ _____    ______ ____

>  <TORSDO>
F 3

$$$$
=
 OpenBabel11062419543D

 28 31  0  0  1  0  0  0  0  0999 V2000
  186.0250  178.2880  140.5560 O   0  0  0  0  0  1  0  0  0  0  0  0
  189.0790  175.7390  142.6580 C   0  0  0  0  0  0  0  0  0  0  0  0
  187.3590  177.4790  143.5450 C   0  0  0  0  0  2  0  0  0  0  0  0
  185.9580  177.3170  141.5560 C   0  0  1  0  0  3  0  0  0  0  0  0
  187.4430  175.5930  140.4340 N   0  0  0  0  0  0  0  0  0  0  0  0
  188.5730  174.8330  140.5160 C   0  0  0  0  0  3  0  0  0  0  0  0
  184.1480  179.1510  142.8460 O   0  0  0  0  0  0  0  0  0  0  0  0
  187.1330  176.4230  141.4600 C   0  0  0  0  0  0  0  0  0  0  0  0
  185.2030  178.8430  143.4620 C   0  0  0  0  0  0  0  0  0  0  0  0
  189.3790  174.9080  141.6170 N   0  0  0  0  0  0  0  0  0  0  0  0
  186.1470  177.9430  142.8670 N   0  0  0  0  0  0  0  0  0  0  0  0
  187.9250  176.5140  142.5730 C   0  0  0  0  0  0  0  0  0  0  0  0
  189.6140  174.6950  144.8430 C   0  0  0  0  0  2  0  0  0  0  0  0
  191.5780  175.2810  148.9300 C   0  0  0  0  0  1  0  0  0  0  0  0
  192.2730  176.4630  144.5150 C   0  0  0  0  0  2  0  0  0  0  0  0
  191.4300  175.7810  143.4460 C   0  0  0  0  0  2  0  0  0  0  0  0
  190.2420  176.0020  146.9480 C   0  0  0  0  0  2  0  0  0  0  0  0
  192.6350  175.5440  145.6920 C   0  0  2  0  0  3  0  0  0  0  0  0
  191.8170  174.3950  145.8300 O   0  0  0  0  0  0  0  0  0  0  0  0
  189.9630  175.8140  143.8610 C   0  0  1  0  0  3  0  0  0  0  0  0
  190.4630  174.7270  146.1110 C   0  0  2  0  0  3  0  0  0  0  0  0
  191.2590  177.6750  148.4570 C   0  0  0  0  0  1  0  0  0  0  0  0
  192.7440  176.3360  146.9990 C   0  0  0  0  0  2  0  0  0  0  0  0
  191.4540  176.3140  147.8230 C   0  0  0  0  0  0  0  0  0  0  0  0
  185.4640  179.4490  144.8040 C   0  0  0  0  0  2  0  0  0  0  0  0
  183.6750  178.6700  146.3250 C   0  0  0  0  0  1  0  0  0  0  0  0
  185.1190  178.4710  145.9150 C   0  0  0  0  0  3  0  0  0  0  0  0
  186.0130  178.7010  147.1180 C   0  0  0  0  0  1  0  0  0  0  0  0
  4  1  1  6  0  0  0
  4 11  1  0  0  0  0
  5  6  2  0  0  0  0
  5  8  1  0  0  0  0
  6 10  1  0  0  0  0
  7  9  2  0  0  0  0
  8  4  1  0  0  0  0
  8 12  2  0  0  0  0
  9 25  1  0  0  0  0
 10  2  2  0  0  0  0
 11  9  1  0  0  0  0
 11  3  1  0  0  0  0
 12  2  1  0  0  0  0
 12  3  1  0  0  0  0
 16 20  1  0  0  0  0
 16 15  1  0  0  0  0
 17 24  1  0  0  0  0
 18 15  1  6  0  0  0
 18 19  1  0  0  0  0
 18 23  1  0  0  0  0
 19 21  1  0  0  0  0
 20  2  1  6  0  0  0
 20 13  1  0  0  0  0
 21 13  1  6  0  0  0
 21 17  1  0  0  0  0
 23 24  1  0  0  0  0
 24 22  1  0  0  0  0
 24 14  1  0  0  0  0
 25 27  1  0  0  0  0
 27 26  1  0  0  0  0
 27 28  1  0  0  0  0
M  END
>  <MODEL>
7

>  <REMARK>
 VINA RESULT:      -7.2      1.092      2.073
  Name = 
  3 active torsions:
  status: ('A' for Active; 'I' for Inactive)
    1  A    between atoms: C_2  and  C_14
    2  A    between atoms: C_4  and  C_22
    3  A    between atoms: C_4  and  C_23
                            x       y       z     vdW  Elec       q    Type
                         _______ _______ _______ _____ _____    ______ ____

>  <TORSDO>
F 3

$$$$
=
 OpenBabel11062419543D

 28 31  0  0  1  0  0  0  0  0999 V2000
  193.1330  173.9640  144.5670 O   0  0  0  0  0  1  0  0  0  0  0  0
  189.8850  176.4790  146.4030 C   0  0  0  0  0  0  0  0  0  0  0  0
  189.8010  174.4110  144.8270 C   0  0  0  0  0  2  0  0  0  0  0  0
  192.0570  173.6950  145.4130 C   0  0  1  0  0  3  0  0  0  0  0  0
  192.4330  175.6100  147.0350 N   0  0  0  0  0  0  0  0  0  0  0  0
  191.9180  176.7320  147.6160 C   0  0  0  0  0  3  0  0  0  0  0  0
  191.6310  171.4110  143.7090 O   0  0  0  0  0  0  0  0  0  0  0  0
  191.6770  174.9260  146.1410 C   0  0  0  0  0  0  0  0  0  0  0  0
  190.7010  172.2560  143.7940 C   0  0  0  0  0  0  0  0  0  0  0  0
  190.6580  177.1580  147.3010 N   0  0  0  0  0  0  0  0  0  0  0  0
  190.8580  173.4190  144.6180 N   0  0  0  0  0  0  0  0  0  0  0  0
  190.4130  175.3340  145.8120 C   0  0  0  0  0  0  0  0  0  0  0  0
  188.0820  176.4030  144.7030 C   0  0  0  0  0  2  0  0  0  0  0  0
  184.3020  178.4250  143.1130 C   0  0  0  0  0  1  0  0  0  0  0  0
  186.3510  177.5310  147.1590 C   0  0  0  0  0  2  0  0  0  0  0  0
  187.5300  176.5680  147.1720 C   0  0  0  0  0  2  0  0  0  0  0  0
  186.6010  178.3930  144.0850 C   0  0  0  0  0  2  0  0  0  0  0  0
  185.2650  177.1610  146.1370 C   0  0  2  0  0  3  0  0  0  0  0  0
  185.6860  176.2860  145.1040 O   0  0  0  0  0  0  0  0  0  0  0  0
  188.5080  176.9490  146.0660 C   0  0  1  0  0  3  0  0  0  0  0  0
  186.6900  176.8670  144.2820 C   0  0  2  0  0  3  0  0  0  0  0  0
  185.1860  180.4120  144.2630 C   0  0  0  0  0  1  0  0  0  0  0  0
  184.5730  178.4130  145.5880 C   0  0  0  0  0  2  0  0  0  0  0  0
  185.1710  178.8970  144.2640 C   0  0  0  0  0  0  0  0  0  0  0  0
  189.4490  172.0410  143.0040 C   0  0  0  0  0  2  0  0  0  0  0  0
  188.1890  173.0810  141.1470 C   0  0  0  0  0  1  0  0  0  0  0  0
  189.5650  172.6720  141.6260 C   0  0  0  0  0  3  0  0  0  0  0  0
  190.1600  171.6820  140.6420 C   0  0  0  0  0  1  0  0  0  0  0  0
  2 10  1  0  0  0  0
  3 12  1  0  0  0  0
  4  1  1  6  0  0  0
  4  8  1  0  0  0  0
  5  6  1  0  0  0  0
  7  9  2  0  0  0  0
  8  5  2  0  0  0  0
  9 11  1  0  0  0  0
 10  6  2  0  0  0  0
 11  3  1  0  0  0  0
 11  4  1  0  0  0  0
 12  8  1  0  0  0  0
 12  2  2  0  0  0  0
 13 20  1  0  0  0  0
 14 24  1  0  0  0  0
 15 16  1  0  0  0  0
 17 24  1  0  0  0  0
 18 23  1  6  0  0  0
 18 15  1  0  0  0  0
 19 18  1  0  0  0  0
 20  2  1  1  0  0  0
 20 16  1  0  0  0  0
 21 17  1  1  0  0  0
 21 13  1  0  0  0  0
 21 19  1  0  0  0  0
 22 24  1  0  0  0  0
 24 23  1  0  0  0  0
 25  9  1  0  0  0  0
 26 27  1  0  0  0  0
 27 25  1  0  0  0  0
 28 27  1  0  0  0  0
M  END
>  <MODEL>
8

>  <REMARK>
 VINA RESULT:      -7.2      2.914      7.492
  Name = 
  3 active torsions:
  status: ('A' for Active; 'I' for Inactive)
    1  A    between atoms: C_2  and  C_14
    2  A    between atoms: C_4  and  C_22
    3  A    between atoms: C_4  and  C_23
                            x       y       z     vdW  Elec       q    Type
                         _______ _______ _______ _____ _____    ______ ____

>  <TORSDO>
F 3

$$$$
=
 OpenBabel11062419543D

 28 31  0  0  1  0  0  0  0  0999 V2000
  187.7260  176.7480  146.3200 O   0  0  0  0  0  1  0  0  0  0  0  0
  192.1960  176.3000  146.0800 C   0  0  0  0  0  0  0  0  0  0  0  0
  190.4010  176.8210  144.2700 C   0  0  0  0  0  2  0  0  0  0  0  0
  188.7650  177.5830  145.9090 C   0  0  1  0  0  3  0  0  0  0  0  0
  190.3020  177.1870  147.8890 N   0  0  0  0  0  0  0  0  0  0  0  0
  191.5260  176.7640  148.3170 C   0  0  0  0  0  3  0  0  0  0  0  0
  187.0330  178.2060  143.6930 O   0  0  0  0  0  0  0  0  0  0  0  0
  190.0260  177.1650  146.5620 C   0  0  0  0  0  0  0  0  0  0  0  0
  188.1530  177.6940  143.4310 C   0  0  0  0  0  0  0  0  0  0  0  0
  192.4600  176.3270  147.4190 N   0  0  0  0  0  0  0  0  0  0  0  0
  189.0550  177.3520  144.4920 N   0  0  0  0  0  0  0  0  0  0  0  0
  190.9460  176.7330  145.6460 C   0  0  0  0  0  0  0  0  0  0  0  0
  194.6270  176.0290  145.6740 C   0  0  0  0  0  2  0  0  0  0  0  0
  197.8910  175.4670  142.5210 C   0  0  0  0  0  1  0  0  0  0  0  0
  193.5540  174.0970  143.3470 C   0  0  0  0  0  2  0  0  0  0  0  0
  192.9600  174.3720  144.7220 C   0  0  0  0  0  2  0  0  0  0  0  0
  195.7620  176.4150  143.4150 C   0  0  0  0  0  2  0  0  0  0  0  0
  195.0540  173.7670  143.3780 C   0  0  2  0  0  3  0  0  0  0  0  0
  195.7340  174.1750  144.5530 O   0  0  0  0  0  0  0  0  0  0  0  0
  193.2230  175.8240  145.1040 C   0  0  1  0  0  3  0  0  0  0  0  0
  195.7310  175.5870  144.7150 C   0  0  2  0  0  3  0  0  0  0  0  0
  196.2170  176.4150  140.9860 C   0  0  0  0  0  1  0  0  0  0  0  0
  195.7540  174.2570  142.1060 C   0  0  0  0  0  2  0  0  0  0  0  0
  196.4030  175.6340  142.2710 C   0  0  0  0  0  0  0  0  0  0  0  0
  188.5140  177.4240  142.0050 C   0  0  0  0  0  2  0  0  0  0  0  0
  188.1910  175.2270  140.9140 C   0  0  0  0  0  1  0  0  0  0  0  0
  187.4970  176.4980  141.3570 C   0  0  0  0  0  3  0  0  0  0  0  0
  186.8680  177.1670  140.1500 C   0  0  0  0  0  1  0  0  0  0  0  0
  2 10  1  0  0  0  0
  3 11  1  0  0  0  0
  3 12  1  0  0  0  0
  4  1  1  1  0  0  0
  4  8  1  0  0  0  0
  5  6  1  0  0  0  0
  8  5  2  0  0  0  0
  9  7  2  0  0  0  0
  9 11  1  0  0  0  0
 10  6  2  0  0  0  0
 11  4  1  0  0  0  0
 12  2  2  0  0  0  0
 12  8  1  0  0  0  0
 15 18  1  0  0  0  0
 15 16  1  0  0  0  0
 16 20  1  0  0  0  0
 18 23  1  6  0  0  0
 18 19  1  0  0  0  0
 19 21  1  0  0  0  0
 20 13  1  0  0  0  0
 20  2  1  1  0  0  0
 21 17  1  6  0  0  0
 21 13  1  0  0  0  0
 22 24  1  0  0  0  0
 23 24  1  0  0  0  0
 24 14  1  0  0  0  0
 24 17  1  0  0  0  0
 25  9  1  0  0  0  0
 26 27  1  0  0  0  0
 27 25  1  0  0  0  0
 28 27  1  0  0  0  0
M  END
>  <MODEL>
9

>  <REMARK>
 VINA RESULT:      -7.1      3.104      5.249
  Name = 
  3 active torsions:
  status: ('A' for Active; 'I' for Inactive)
    1  A    between atoms: C_2  and  C_14
    2  A    between atoms: C_4  and  C_22
    3  A    between atoms: C_4  and  C_23
                            x       y       z     vdW  Elec       q    Type
                         _______ _______ _______ _____ _____    ______ ____

>  <TORSDO>
F 3

$$$$
