=
 OpenBabel11062421113D

 33 40  0  0  1  0  0  0  0  0999 V2000
  190.6600  175.6890  147.2810 C   0  0  0  0  0  2  0  0  0  0  0  0
  188.0010  177.5440  146.8900 C   0  0  0  0  0  2  0  0  0  0  0  0
  188.5320  176.3880  146.1510 C   0  0  2  0  0  0  0  0  0  0  0  0
  190.7610  177.0950  145.2210 C   0  0  0  0  0  2  0  0  0  0  0  0
  186.0810  177.4340  145.4170 C   0  0  2  0  0  0  0  0  0  0  0  0
  186.5500  176.1320  144.8820 C   0  0  0  0  0  2  0  0  0  0  0  0
  191.3150  175.9960  146.0090 N   0  0  0  0  0  0  0  0  0  0  0  0
  186.9910  176.5190  146.3090 C   0  0  2  0  0  0  0  0  0  0  0  0
  189.1910  175.3440  147.0460 C   0  0  0  0  0  2  0  0  0  0  0  0
  189.2980  176.8170  144.8870 C   0  0  0  0  0  2  0  0  0  0  0  0
  192.7440  174.3810  144.6370 C   0  0  0  0  0  0  0  0  0  0  0  0
  193.6810  175.7970  146.3880 C   0  0  0  0  0  3  0  0  0  0  0  0
  192.6010  175.4290  145.6860 C   0  0  0  0  0  0  0  0  0  0  0  0
  195.0550  175.2970  146.0620 C   0  0  0  0  0  2  0  0  0  0  0  0
  191.6200  174.0090  143.8290 N   0  0  0  0  0  2  0  0  0  0  0  0
  193.8690  173.7380  144.5160 N   0  0  0  0  0  0  0  0  0  0  0  0
  194.9870  174.0510  145.3080 N   0  0  0  0  0  2  0  0  0  0  0  0
  190.5800  171.8810  143.1290 C   0  0  0  0  0  2  0  0  0  0  0  0
  191.4910  173.6740  141.1260 S   0  0  0  0  0  0  0  0  0  0  0  0
  191.1400  172.0860  140.2830 C   0  0  2  0  0  0  0  0  0  0  0  0
  190.9350  172.3300  138.8030 C   0  0  0  0  0  1  0  0  0  0  0  0
  190.4420  170.8640  141.9880 C   0  0  1  0  0  3  0  0  0  0  0  0
  189.9810  171.5280  140.8410 O   0  0  0  0  0  0  0  0  0  0  0  0
  191.6290  172.9590  142.8160 C   0  0  1  0  0  3  0  0  0  0  0  0
  191.7830  170.2460  141.6380 C   0  0  0  0  0  2  0  0  0  0  0  0
  192.2720  171.0970  140.4940 C   0  0  0  0  0  2  0  0  0  0  0  0
  184.4340  178.5330  147.1260 C   0  0  1  0  0  3  0  0  0  0  0  0
  184.0840  178.8070  145.7890 O   0  0  0  0  0  0  0  0  0  0  0  0
  184.6600  177.5400  146.0250 C   0  0  1  0  0  3  0  0  0  0  0  0
  185.6250  179.3970  147.5130 C   0  0  0  0  0  1  0  0  0  0  0  0
  185.9050  179.1320  143.5450 C   0  0  0  0  0  2  0  0  0  0  0  0
  186.6980  178.6660  144.7080 C   0  0  2  0  0  3  0  0  0  0  0  0
  187.0470  178.3300  143.3840 O   0  0  0  0  0  0  0  0  0  0  0  0
  3 10  1  6  0  0  0
  3  8  1  0  0  0  0
  3  2  1  0  0  0  0
  3  9  1  0  0  0  0
  4  7  1  0  0  0  0
  5  6  1  6  0  0  0
  5 29  1  0  0  0  0
  5  8  1  0  0  0  0
  7  1  1  0  0  0  0
  8  6  1  1  0  0  0
  8  2  1  0  0  0  0
  9  1  1  0  0  0  0
 10  4  1  0  0  0  0
 11 13  1  0  0  0  0
 13  7  1  0  0  0  0
 13 12  2  0  0  0  0
 14 12  1  0  0  0  0
 15 11  1  0  0  0  0
 16 11  2  0  0  0  0
 16 17  1  0  0  0  0
 17 14  1  0  0  0  0
 19 24  1  0  0  0  0
 20 21  1  6  0  0  0
 20 26  1  0  0  0  0
 20 23  1  0  0  0  0
 20 19  1  0  0  0  0
 22 25  1  6  0  0  0
 22 18  1  0  0  0  0
 23 22  1  0  0  0  0
 24 18  1  0  0  0  0
 24 15  1  1  0  0  0
 26 25  1  0  0  0  0
 27 30  1  6  0  0  0
 28 27  1  0  0  0  0
 29 28  1  6  0  0  0
 29 27  1  0  0  0  0
 32 31  1  6  0  0  0
 32  5  1  0  0  0  0
 33 31  1  0  0  0  0
 33 32  1  0  0  0  0
M  END
>  <MODEL>
1

>  <REMARK>
 VINA RESULT:      -7.9      0.000      0.000
  Name = 
  4 active torsions:
  status: ('A' for Active; 'I' for Inactive)
    1  A    between atoms: C_10  and  C_15
    2  A    between atoms: C_10  and  C_32
    3  A    between atoms: C_16  and  N_20
    4  A    between atoms: N_24  and  C_25
                            x       y       z     vdW  Elec       q    Type
                         _______ _______ _______ _____ _____    ______ ____

>  <TORSDO>
F 4

$$$$
=
 OpenBabel11062421113D

 33 40  0  0  1  0  0  0  0  0999 V2000
  190.7020  176.4760  145.3980 C   0  0  0  0  0  2  0  0  0  0  0  0
  187.9760  177.9530  144.3740 C   0  0  0  0  0  2  0  0  0  0  0  0
  188.5890  176.6530  144.0580 C   0  0  2  0  0  0  0  0  0  0  0  0
  190.8160  177.1490  142.9970 C   0  0  0  0  0  2  0  0  0  0  0  0
  186.1210  177.2670  142.9750 C   0  0  2  0  0  0  0  0  0  0  0  0
  186.6710  175.8910  142.8990 C   0  0  0  0  0  2  0  0  0  0  0  0
  191.3910  176.3960  144.1090 N   0  0  0  0  0  0  0  0  0  0  0  0
  187.0390  176.7410  144.1330 C   0  0  2  0  0  0  0  0  0  0  0  0
  189.2610  175.9920  145.2560 C   0  0  0  0  0  2  0  0  0  0  0  0
  189.3820  176.6970  142.7400 C   0  0  0  0  0  2  0  0  0  0  0  0
  192.9390  174.4900  143.4030 C   0  0  0  0  0  0  0  0  0  0  0  0
  193.7530  176.4850  144.5450 C   0  0  0  0  0  3  0  0  0  0  0  0
  192.7130  175.8290  144.0140 C   0  0  0  0  0  0  0  0  0  0  0  0
  195.1600  175.9840  144.4240 C   0  0  0  0  0  2  0  0  0  0  0  0
  191.8580  173.7900  142.7720 N   0  0  0  0  0  2  0  0  0  0  0  0
  194.1010  173.9130  143.5220 N   0  0  0  0  0  0  0  0  0  0  0  0
  195.1790  174.5510  144.1570 N   0  0  0  0  0  2  0  0  0  0  0  0
  190.7500  171.5890  142.6120 C   0  0  0  0  0  2  0  0  0  0  0  0
  192.2200  172.5390  140.3780 S   0  0  0  0  0  0  0  0  0  0  0  0
  191.8700  170.7690  140.0570 C   0  0  2  0  0  0  0  0  0  0  0  0
  191.9830  170.4890  138.5730 C   0  0  0  0  0  1  0  0  0  0  0  0
  190.7270  170.2430  141.8750 C   0  0  1  0  0  3  0  0  0  0  0  0
  190.5710  170.4810  140.5000 O   0  0  0  0  0  0  0  0  0  0  0  0
  191.9500  172.4530  142.1950 C   0  0  1  0  0  3  0  0  0  0  0  0
  192.0360  169.4960  142.0530 C   0  0  0  0  0  2  0  0  0  0  0  0
  192.8260  169.8780  140.8280 C   0  0  0  0  0  2  0  0  0  0  0  0
  184.3240  178.8140  144.0760 C   0  0  1  0  0  3  0  0  0  0  0  0
  184.0020  178.4780  142.7470 O   0  0  0  0  0  0  0  0  0  0  0  0
  184.6740  177.4810  143.4860 C   0  0  1  0  0  3  0  0  0  0  0  0
  185.4210  179.8690  144.0690 C   0  0  0  0  0  1  0  0  0  0  0  0
  186.0090  178.1740  140.6120 C   0  0  0  0  0  2  0  0  0  0  0  0
  186.7060  178.2390  141.9190 C   0  0  2  0  0  3  0  0  0  0  0  0
  187.2250  177.5070  140.8320 O   0  0  0  0  0  0  0  0  0  0  0  0
  3 10  1  6  0  0  0
  3  8  1  0  0  0  0
  3  2  1  0  0  0  0
  3  9  1  0  0  0  0
  4  7  1  0  0  0  0
  5  6  1  6  0  0  0
  5 29  1  0  0  0  0
  5  8  1  0  0  0  0
  7  1  1  0  0  0  0
  8  6  1  1  0  0  0
  8  2  1  0  0  0  0
  9  1  1  0  0  0  0
 10  4  1  0  0  0  0
 11 16  2  0  0  0  0
 11 13  1  0  0  0  0
 13  7  1  0  0  0  0
 13 12  2  0  0  0  0
 14 12  1  0  0  0  0
 15 11  1  0  0  0  0
 16 17  1  0  0  0  0
 17 14  1  0  0  0  0
 19 24  1  0  0  0  0
 20 21  1  6  0  0  0
 20 19  1  0  0  0  0
 20 23  1  0  0  0  0
 20 26  1  0  0  0  0
 22 25  1  6  0  0  0
 22 18  1  0  0  0  0
 23 22  1  0  0  0  0
 24 18  1  0  0  0  0
 24 15  1  6  0  0  0
 26 25  1  0  0  0  0
 27 30  1  6  0  0  0
 28 27  1  0  0  0  0
 29 28  1  6  0  0  0
 29 27  1  0  0  0  0
 31 33  1  0  0  0  0
 32 31  1  6  0  0  0
 32  5  1  0  0  0  0
 33 32  1  0  0  0  0
M  END
>  <MODEL>
2

>  <REMARK>
 VINA RESULT:      -7.4      1.791      2.056
  Name = 
  4 active torsions:
  status: ('A' for Active; 'I' for Inactive)
    1  A    between atoms: C_10  and  C_15
    2  A    between atoms: C_10  and  C_32
    3  A    between atoms: C_16  and  N_20
    4  A    between atoms: N_24  and  C_25
                            x       y       z     vdW  Elec       q    Type
                         _______ _______ _______ _____ _____    ______ ____

>  <TORSDO>
F 4

$$$$
=
 OpenBabel11062421113D

 33 40  0  0  1  0  0  0  0  0999 V2000
  190.5950  174.5990  144.8190 C   0  0  0  0  0  2  0  0  0  0  0  0
  189.0100  177.3870  145.4340 C   0  0  0  0  0  2  0  0  0  0  0  0
  188.5520  176.0220  145.1320 C   0  0  2  0  0  0  0  0  0  0  0  0
  189.3860  175.4810  142.8200 C   0  0  0  0  0  2  0  0  0  0  0  0
  186.6770  177.9550  145.7510 C   0  0  2  0  0  0  0  0  0  0  0  0
  186.3050  176.5190  145.6830 C   0  0  0  0  0  2  0  0  0  0  0  0
  190.1070  174.3800  143.4560 N   0  0  0  0  0  0  0  0  0  0  0  0
  187.7350  176.8670  146.1480 C   0  0  2  0  0  0  0  0  0  0  0  0
  189.4300  174.9370  145.7470 C   0  0  0  0  0  2  0  0  0  0  0  0
  188.1650  175.8590  143.6520 C   0  0  0  0  0  2  0  0  0  0  0  0
  191.9130  173.2070  142.0810 C   0  0  0  0  0  0  0  0  0  0  0  0
  189.7090  172.2330  142.4520 C   0  0  0  0  0  3  0  0  0  0  0  0
  190.5540  173.2450  142.6870 C   0  0  0  0  0  0  0  0  0  0  0  0
  190.1280  170.9950  141.7170 C   0  0  0  0  0  2  0  0  0  0  0  0
  192.8610  174.2460  142.3640 N   0  0  0  0  0  2  0  0  0  0  0  0
  192.2120  172.2760  141.2210 N   0  0  0  0  0  0  0  0  0  0  0  0
  191.3030  171.2560  140.8940 N   0  0  0  0  0  2  0  0  0  0  0  0
  194.1680  175.1330  140.4650 C   0  0  0  0  0  2  0  0  0  0  0  0
  195.4050  174.9750  143.0150 S   0  0  0  0  0  0  0  0  0  0  0  0
  196.7410  175.3060  141.8060 C   0  0  2  0  0  0  0  0  0  0  0  0
  197.9410  175.8910  142.5210 C   0  0  0  0  0  1  0  0  0  0  0  0
  195.5790  175.4060  139.9280 C   0  0  1  0  0  3  0  0  0  0  0  0
  196.2670  176.2120  140.8480 O   0  0  0  0  0  0  0  0  0  0  0  0
  194.1950  174.3420  141.7820 C   0  0  1  0  0  3  0  0  0  0  0  0
  196.3710  174.1180  139.7840 C   0  0  0  0  0  2  0  0  0  0  0  0
  197.1410  174.0360  141.0770 C   0  0  0  0  0  2  0  0  0  0  0  0
  184.8150  178.8380  147.3610 C   0  0  1  0  0  3  0  0  0  0  0  0
  185.7230  177.9780  148.0100 O   0  0  0  0  0  0  0  0  0  0  0  0
  186.2670  178.7890  146.9900 C   0  0  1  0  0  3  0  0  0  0  0  0
  183.8690  178.0070  146.5070 C   0  0  0  0  0  1  0  0  0  0  0  0
  185.5500  179.3970  143.9990 C   0  0  0  0  0  2  0  0  0  0  0  0
  186.7740  178.6460  144.3680 C   0  0  2  0  0  3  0  0  0  0  0  0
  185.8040  178.1100  143.4970 O   0  0  0  0  0  0  0  0  0  0  0  0
  1  9  1  0  0  0  0
  3 10  1  6  0  0  0
  3  2  1  0  0  0  0
  3  9  1  0  0  0  0
  3  8  1  0  0  0  0
  4  7  1  0  0  0  0
  4 10  1  0  0  0  0
  5  6  1  6  0  0  0
  5  8  1  0  0  0  0
  5 29  1  0  0  0  0
  6  8  1  0  0  0  0
  7  1  1  0  0  0  0
  8  2  1  1  0  0  0
 11 15  1  0  0  0  0
 11 13  1  0  0  0  0
 12 13  2  0  0  0  0
 13  7  1  0  0  0  0
 14 12  1  0  0  0  0
 16 11  2  0  0  0  0
 17 16  1  0  0  0  0
 17 14  1  0  0  0  0
 18 24  1  0  0  0  0
 20 21  1  1  0  0  0
 20 19  1  0  0  0  0
 22 25  1  1  0  0  0
 22 18  1  0  0  0  0
 22 23  1  0  0  0  0
 23 20  1  0  0  0  0
 24 15  1  1  0  0  0
 24 19  1  0  0  0  0
 25 26  1  0  0  0  0
 26 20  1  0  0  0  0
 27 30  1  6  0  0  0
 27 28  1  0  0  0  0
 29 27  1  0  0  0  0
 29 28  1  1  0  0  0
 32 31  1  1  0  0  0
 32  5  1  0  0  0  0
 33 31  1  0  0  0  0
 33 32  1  0  0  0  0
M  END
>  <MODEL>
3

>  <REMARK>
 VINA RESULT:      -7.3      3.050      4.334
  Name = 
  4 active torsions:
  status: ('A' for Active; 'I' for Inactive)
    1  A    between atoms: C_10  and  C_15
    2  A    between atoms: C_10  and  C_32
    3  A    between atoms: C_16  and  N_20
    4  A    between atoms: N_24  and  C_25
                            x       y       z     vdW  Elec       q    Type
                         _______ _______ _______ _____ _____    ______ ____

>  <TORSDO>
F 4

$$$$
=
 OpenBabel11062421113D

 33 40  0  0  1  0  0  0  0  0999 V2000
  190.7080  175.5810  147.1220 C   0  0  0  0  0  2  0  0  0  0  0  0
  188.0540  177.4690  146.8820 C   0  0  0  0  0  2  0  0  0  0  0  0
  188.5480  176.3320  146.0890 C   0  0  2  0  0  0  0  0  0  0  0  0
  190.7490  177.0480  145.1020 C   0  0  0  0  0  2  0  0  0  0  0  0
  186.0830  177.4200  145.4750 C   0  0  2  0  0  0  0  0  0  0  0  0
  186.5200  176.1310  144.8850 C   0  0  0  0  0  2  0  0  0  0  0  0
  191.3200  175.9210  145.8360 N   0  0  0  0  0  0  0  0  0  0  0  0
  187.0150  176.4710  146.3060 C   0  0  2  0  0  0  0  0  0  0  0  0
  189.2280  175.2560  146.9290 C   0  0  0  0  0  2  0  0  0  0  0  0
  189.2730  176.7920  144.8130 C   0  0  0  0  0  2  0  0  0  0  0  0
  192.6660  174.1940  144.5190 C   0  0  0  0  0  0  0  0  0  0  0  0
  193.7180  175.8290  145.9920 C   0  0  0  0  0  3  0  0  0  0  0  0
  192.5880  175.3530  145.4510 C   0  0  0  0  0  0  0  0  0  0  0  0
  195.0710  175.3280  145.5870 C   0  0  0  0  0  2  0  0  0  0  0  0
  191.4830  173.7010  143.8770 N   0  0  0  0  0  2  0  0  0  0  0  0
  193.7980  173.5690  144.3580 N   0  0  0  0  0  0  0  0  0  0  0  0
  194.9750  174.0010  144.9910 N   0  0  0  0  0  2  0  0  0  0  0  0
  192.1850  172.8080  141.6840 C   0  0  0  0  0  2  0  0  0  0  0  0
  191.9750  171.0200  143.8780 S   0  0  0  0  0  0  0  0  0  0  0  0
  192.1390  169.9840  142.3760 C   0  0  2  0  0  0  0  0  0  0  0  0
  192.6230  168.6020  142.7600 C   0  0  0  0  0  1  0  0  0  0  0  0
  192.3020  171.5460  140.8190 C   0  0  1  0  0  3  0  0  0  0  0  0
  193.0620  170.5900  141.5110 O   0  0  0  0  0  0  0  0  0  0  0  0
  191.4310  172.5390  142.9950 C   0  0  1  0  0  3  0  0  0  0  0  0
  190.9390  170.9300  140.5580 C   0  0  0  0  0  2  0  0  0  0  0  0
  190.8170  169.8840  141.6370 C   0  0  0  0  0  2  0  0  0  0  0  0
  184.4980  178.5080  147.2490 C   0  0  1  0  0  3  0  0  0  0  0  0
  184.0980  178.7860  145.9270 O   0  0  0  0  0  0  0  0  0  0  0  0
  184.6850  177.5200  146.1360 C   0  0  1  0  0  3  0  0  0  0  0  0
  185.7000  179.3740  147.5950 C   0  0  0  0  0  1  0  0  0  0  0  0
  185.8470  179.1870  143.6750 C   0  0  0  0  0  2  0  0  0  0  0  0
  186.6860  178.6680  144.7820 C   0  0  2  0  0  3  0  0  0  0  0  0
  186.9670  178.3750  143.4320 O   0  0  0  0  0  0  0  0  0  0  0  0
  3 10  1  6  0  0  0
  3  8  1  0  0  0  0
  3  2  1  0  0  0  0
  3  9  1  0  0  0  0
  4  7  1  0  0  0  0
  5  6  1  6  0  0  0
  5 29  1  0  0  0  0
  5  8  1  0  0  0  0
  7  1  1  0  0  0  0
  8  6  1  1  0  0  0
  8  2  1  0  0  0  0
  9  1  1  0  0  0  0
 10  4  1  0  0  0  0
 11 13  1  0  0  0  0
 13  7  1  0  0  0  0
 13 12  2  0  0  0  0
 14 12  1  0  0  0  0
 15 11  1  0  0  0  0
 16 11  2  0  0  0  0
 16 17  1  0  0  0  0
 17 14  1  0  0  0  0
 18 24  1  0  0  0  0
 20 21  1  1  0  0  0
 20 19  1  0  0  0  0
 22 25  1  1  0  0  0
 22 23  1  0  0  0  0
 22 18  1  0  0  0  0
 23 20  1  0  0  0  0
 24 15  1  1  0  0  0
 24 19  1  0  0  0  0
 25 26  1  0  0  0  0
 26 20  1  0  0  0  0
 27 30  1  6  0  0  0
 28 27  1  0  0  0  0
 29 28  1  6  0  0  0
 29 27  1  0  0  0  0
 32 31  1  6  0  0  0
 32  5  1  0  0  0  0
 33 31  1  0  0  0  0
 33 32  1  0  0  0  0
M  END
>  <MODEL>
4

>  <REMARK>
 VINA RESULT:      -7.2      1.057      1.626
  Name = 
  4 active torsions:
  status: ('A' for Active; 'I' for Inactive)
    1  A    between atoms: C_10  and  C_15
    2  A    between atoms: C_10  and  C_32
    3  A    between atoms: C_16  and  N_20
    4  A    between atoms: N_24  and  C_25
                            x       y       z     vdW  Elec       q    Type
                         _______ _______ _______ _____ _____    ______ ____

>  <TORSDO>
F 4

$$$$
=
 OpenBabel11062421113D

 33 40  0  0  1  0  0  0  0  0999 V2000
  191.8990  176.6230  144.1200 C   0  0  0  0  0  2  0  0  0  0  0  0
  188.9210  177.7820  143.4460 C   0  0  0  0  0  2  0  0  0  0  0  0
  189.4300  176.8750  144.4860 C   0  0  2  0  0  0  0  0  0  0  0  0
  190.3410  174.8550  143.2950 C   0  0  0  0  0  2  0  0  0  0  0  0
  186.7740  177.6360  144.5560 C   0  0  2  0  0  0  0  0  0  0  0  0
  187.4000  176.9330  145.7030 C   0  0  0  0  0  2  0  0  0  0  0  0
  191.6180  175.2010  143.9150 N   0  0  0  0  0  0  0  0  0  0  0  0
  188.2940  177.8680  144.8620 C   0  0  2  0  0  0  0  0  0  0  0  0
  190.8170  177.2520  144.9960 C   0  0  0  0  0  2  0  0  0  0  0  0
  189.1870  175.3980  144.1310 C   0  0  0  0  0  2  0  0  0  0  0  0
  193.5270  173.8280  142.9160 C   0  0  0  0  0  0  0  0  0  0  0  0
  192.8120  173.5850  145.2350 C   0  0  0  0  0  3  0  0  0  0  0  0
  192.6610  174.2160  144.0630 C   0  0  0  0  0  0  0  0  0  0  0  0
  193.9150  172.5990  145.4760 C   0  0  0  0  0  2  0  0  0  0  0  0
  193.4310  174.5260  141.6670 N   0  0  0  0  0  2  0  0  0  0  0  0
  194.3100  172.7920  143.0190 N   0  0  0  0  0  0  0  0  0  0  0  0
  194.4130  172.0620  144.2150 N   0  0  0  0  0  2  0  0  0  0  0  0
  193.3230  174.3780  139.2040 C   0  0  0  0  0  2  0  0  0  0  0  0
  195.7850  175.1020  140.4180 S   0  0  0  0  0  0  0  0  0  0  0  0
  196.1590  174.7270  138.6650 C   0  0  2  0  0  0  0  0  0  0  0  0
  197.4660  175.3830  138.2720 C   0  0  0  0  0  1  0  0  0  0  0  0
  194.1430  174.2140  137.9170 C   0  0  1  0  0  3  0  0  0  0  0  0
  195.1170  175.2220  137.8670 O   0  0  0  0  0  0  0  0  0  0  0  0
  194.1850  174.1940  140.4630 C   0  0  1  0  0  3  0  0  0  0  0  0
  194.8750  172.8840  137.8980 C   0  0  0  0  0  2  0  0  0  0  0  0
  196.2410  173.2290  138.4340 C   0  0  0  0  0  2  0  0  0  0  0  0
  184.7680  178.8590  145.7050 C   0  0  1  0  0  3  0  0  0  0  0  0
  186.0160  179.3260  146.1630 O   0  0  0  0  0  0  0  0  0  0  0  0
  185.9670  178.9350  144.8070 C   0  0  1  0  0  3  0  0  0  0  0  0
  184.4820  177.5070  146.3410 C   0  0  0  0  0  1  0  0  0  0  0  0
  186.1670  177.4130  142.1060 C   0  0  0  0  0  2  0  0  0  0  0  0
  186.3630  176.7000  143.3910 C   0  0  2  0  0  3  0  0  0  0  0  0
  185.0820  177.0540  142.9230 O   0  0  0  0  0  0  0  0  0  0  0  0
  1  9  1  0  0  0  0
  3  2  1  6  0  0  0
  3  8  1  0  0  0  0
  3  9  1  0  0  0  0
  4  7  1  0  0  0  0
  4 10  1  0  0  0  0
  5 29  1  0  0  0  0
  5  8  1  0  0  0  0
  5  6  1  1  0  0  0
  7 13  1  0  0  0  0
  7  1  1  0  0  0  0
  8  2  1  1  0  0  0
  8  6  1  0  0  0  0
 10  3  1  0  0  0  0
 11 16  2  0  0  0  0
 11 13  1  0  0  0  0
 12 14  1  0  0  0  0
 13 12  2  0  0  0  0
 15 11  1  0  0  0  0
 16 17  1  0  0  0  0
 17 14  1  0  0  0  0
 18 24  1  0  0  0  0
 19 24  1  0  0  0  0
 20 21  1  6  0  0  0
 20 19  1  0  0  0  0
 22 25  1  1  0  0  0
 22 18  1  0  0  0  0
 23 22  1  0  0  0  0
 23 20  1  0  0  0  0
 24 15  1  1  0  0  0
 25 26  1  0  0  0  0
 26 20  1  0  0  0  0
 27 28  1  0  0  0  0
 27 30  1  1  0  0  0
 29 27  1  0  0  0  0
 29 28  1  1  0  0  0
 31 33  1  0  0  0  0
 32 31  1  6  0  0  0
 32  5  1  0  0  0  0
 33 32  1  0  0  0  0
M  END
>  <MODEL>
5

>  <REMARK>
 VINA RESULT:      -7.2      2.994      3.636
  Name = 
  4 active torsions:
  status: ('A' for Active; 'I' for Inactive)
    1  A    between atoms: C_10  and  C_15
    2  A    between atoms: C_10  and  C_32
    3  A    between atoms: C_16  and  N_20
    4  A    between atoms: N_24  and  C_25
                            x       y       z     vdW  Elec       q    Type
                         _______ _______ _______ _____ _____    ______ ____

>  <TORSDO>
F 4

$$$$
=
 OpenBabel11062421113D

 33 40  0  0  1  0  0  0  0  0999 V2000
  191.9390  174.4790  142.7870 C   0  0  0  0  0  2  0  0  0  0  0  0
  188.9570  174.7440  144.0890 C   0  0  0  0  0  2  0  0  0  0  0  0
  189.9640  175.7370  143.6850 C   0  0  2  0  0  0  0  0  0  0  0  0
  191.9850  175.3390  145.1310 C   0  0  0  0  0  2  0  0  0  0  0  0
  187.5000  176.6170  144.5770 C   0  0  2  0  0  0  0  0  0  0  0  0
  188.4570  177.5470  143.9270 C   0  0  0  0  0  2  0  0  0  0  0  0
  192.6970  175.0950  143.8780 N   0  0  0  0  0  0  0  0  0  0  0  0
  188.4630  176.0750  143.4630 C   0  0  2  0  0  0  0  0  0  0  0  0
  190.7340  175.3460  142.4290 C   0  0  0  0  0  2  0  0  0  0  0  0
  190.7830  176.2460  144.8840 C   0  0  0  0  0  2  0  0  0  0  0  0
  195.0110  174.0600  144.1990 C   0  0  0  0  0  0  0  0  0  0  0  0
  194.6960  176.3630  143.4590 C   0  0  0  0  0  3  0  0  0  0  0  0
  194.1330  175.1990  143.8110 C   0  0  0  0  0  0  0  0  0  0  0  0
  196.1780  176.5200  143.3050 C   0  0  0  0  0  2  0  0  0  0  0  0
  194.4420  172.7850  144.5220 N   0  0  0  0  0  2  0  0  0  0  0  0
  196.2930  174.2490  144.3330 N   0  0  0  0  0  0  0  0  0  0  0  0
  196.8880  175.4910  144.0550 N   0  0  0  0  0  2  0  0  0  0  0  0
  194.3530  170.7410  145.9060 C   0  0  0  0  0  2  0  0  0  0  0  0
  195.9230  170.7170  143.5410 S   0  0  0  0  0  0  0  0  0  0  0  0
  196.3820  169.2170  144.4860 C   0  0  2  0  0  0  0  0  0  0  0  0
  197.0130  168.2020  143.5560 C   0  0  0  0  0  1  0  0  0  0  0  0
  195.0570  169.4210  146.2450 C   0  0  1  0  0  3  0  0  0  0  0  0
  195.2240  168.6790  145.0650 O   0  0  0  0  0  0  0  0  0  0  0  0
  195.1970  171.6200  144.9700 C   0  0  1  0  0  3  0  0  0  0  0  0
  196.4420  169.6670  146.8170 C   0  0  0  0  0  2  0  0  0  0  0  0
  197.3420  169.5560  145.6120 C   0  0  0  0  0  2  0  0  0  0  0  0
  185.2500  177.8540  144.0840 C   0  0  1  0  0  3  0  0  0  0  0  0
  185.8460  177.3380  142.9170 O   0  0  0  0  0  0  0  0  0  0  0  0
  186.0300  176.5730  144.0890 C   0  0  1  0  0  3  0  0  0  0  0  0
  186.0000  179.1070  144.5110 C   0  0  0  0  0  1  0  0  0  0  0  0
  186.7800  176.8410  146.9960 C   0  0  0  0  0  2  0  0  0  0  0  0
  187.8150  176.3280  146.0660 C   0  0  2  0  0  3  0  0  0  0  0  0
  187.9760  177.5420  146.7650 O   0  0  0  0  0  0  0  0  0  0  0  0
  1  7  1  0  0  0  0
  3  9  1  6  0  0  0
  3  2  1  0  0  0  0
  3 10  1  0  0  0  0
  5  6  1  6  0  0  0
  5 32  1  0  0  0  0
  7  4  1  0  0  0  0
  8  3  1  0  0  0  0
  8  6  1  6  0  0  0
  8  2  1  0  0  0  0
  8  5  1  0  0  0  0
  9  1  1  0  0  0  0
 10  4  1  0  0  0  0
 11 16  2  0  0  0  0
 11 15  1  0  0  0  0
 12 13  2  0  0  0  0
 13  7  1  0  0  0  0
 13 11  1  0  0  0  0
 14 12  1  0  0  0  0
 14 17  1  0  0  0  0
 17 16  1  0  0  0  0
 19 20  1  0  0  0  0
 19 24  1  0  0  0  0
 20 21  1  6  0  0  0
 20 23  1  0  0  0  0
 20 26  1  0  0  0  0
 22 18  1  6  0  0  0
 22 25  1  0  0  0  0
 23 22  1  0  0  0  0
 24 15  1  6  0  0  0
 24 18  1  0  0  0  0
 26 25  1  0  0  0  0
 27 29  1  0  0  0  0
 27 30  1  1  0  0  0
 28 27  1  0  0  0  0
 29 28  1  6  0  0  0
 29  5  1  0  0  0  0
 32 33  1  0  0  0  0
 32 31  1  1  0  0  0
 33 31  1  0  0  0  0
M  END
>  <MODEL>
6

>  <REMARK>
 VINA RESULT:      -7.2      3.375      4.423
  Name = 
  4 active torsions:
  status: ('A' for Active; 'I' for Inactive)
    1  A    between atoms: C_10  and  C_15
    2  A    between atoms: C_10  and  C_32
    3  A    between atoms: C_16  and  N_20
    4  A    between atoms: N_24  and  C_25
                            x       y       z     vdW  Elec       q    Type
                         _______ _______ _______ _____ _____    ______ ____

>  <TORSDO>
F 4

$$$$
=
 OpenBabel11062421113D

 33 40  0  0  1  0  0  0  0  0999 V2000
  188.1220  175.3350  140.5740 C   0  0  0  0  0  2  0  0  0  0  0  0
  186.1940  176.7030  142.8270 C   0  0  0  0  0  2  0  0  0  0  0  0
  187.6530  176.5510  142.7180 C   0  0  2  0  0  0  0  0  0  0  0  0
  188.1190  174.0780  142.7320 C   0  0  0  0  0  2  0  0  0  0  0  0
  186.6130  178.0010  144.8290 C   0  0  2  0  0  0  0  0  0  0  0  0
  188.0660  178.0210  144.5270 C   0  0  0  0  0  2  0  0  0  0  0  0
  188.7160  174.2940  141.4150 N   0  0  0  0  0  0  0  0  0  0  0  0
  187.0910  177.8590  143.3420 C   0  0  2  0  0  0  0  0  0  0  0  0
  188.1730  176.6830  141.2910 C   0  0  0  0  0  2  0  0  0  0  0  0
  188.1710  175.3650  143.5500 C   0  0  0  0  0  2  0  0  0  0  0  0
  191.1020  173.4000  141.2230 C   0  0  0  0  0  0  0  0  0  0  0  0
  189.2420  172.4530  139.9620 C   0  0  0  0  0  3  0  0  0  0  0  0
  189.6570  173.3510  140.8660 C   0  0  0  0  0  0  0  0  0  0  0  0
  190.1520  171.4030  139.4010 C   0  0  0  0  0  2  0  0  0  0  0  0
  191.5670  174.3080  142.2310 N   0  0  0  0  0  2  0  0  0  0  0  0
  191.9580  172.6820  140.5550 N   0  0  0  0  0  0  0  0  0  0  0  0
  191.5480  171.8000  139.5410 N   0  0  0  0  0  2  0  0  0  0  0  0
  193.5390  175.7830  142.0340 C   0  0  0  0  0  2  0  0  0  0  0  0
  193.1630  174.3250  144.4410 S   0  0  0  0  0  0  0  0  0  0  0  0
  194.8680  174.9920  144.4960 C   0  0  2  0  0  0  0  0  0  0  0  0
  195.3540  175.0280  145.9300 C   0  0  0  0  0  1  0  0  0  0  0  0
  194.9430  176.0840  142.5750 C   0  0  1  0  0  3  0  0  0  0  0  0
  194.8610  176.2880  143.9610 O   0  0  0  0  0  0  0  0  0  0  0  0
  192.9630  174.4840  142.6190 C   0  0  1  0  0  3  0  0  0  0  0  0
  195.8810  174.9120  142.3510 C   0  0  0  0  0  2  0  0  0  0  0  0
  195.8080  174.1520  143.6510 C   0  0  0  0  0  2  0  0  0  0  0  0
  184.5420  179.5190  144.3340 C   0  0  1  0  0  3  0  0  0  0  0  0
  184.6270  179.1500  145.6910 O   0  0  0  0  0  0  0  0  0  0  0  0
  185.8590  179.3390  145.0290 C   0  0  1  0  0  3  0  0  0  0  0  0
  184.0330  178.3330  143.5290 C   0  0  0  0  0  1  0  0  0  0  0  0
  186.1030  176.9420  147.0730 C   0  0  0  0  0  2  0  0  0  0  0  0
  186.1480  176.7420  145.6050 C   0  0  2  0  0  3  0  0  0  0  0  0
  187.1830  176.2940  146.4500 O   0  0  0  0  0  0  0  0  0  0  0  0
  1  9  1  0  0  0  0
  1  7  1  0  0  0  0
  3  9  1  6  0  0  0
  3  2  1  0  0  0  0
  3  8  1  0  0  0  0
  3 10  1  0  0  0  0
  4 10  1  0  0  0  0
  5  6  1  1  0  0  0
  5 29  1  0  0  0  0
  5 32  1  0  0  0  0
  7  4  1  0  0  0  0
  8  2  1  6  0  0  0
  8  6  1  0  0  0  0
  8  5  1  0  0  0  0
 11 15  1  0  0  0  0
 12 13  2  0  0  0  0
 13 11  1  0  0  0  0
 13  7  1  0  0  0  0
 14 17  1  0  0  0  0
 14 12  1  0  0  0  0
 16 11  2  0  0  0  0
 17 16  1  0  0  0  0
 18 24  1  0  0  0  0
 19 20  1  0  0  0  0
 20 21  1  1  0  0  0
 22 18  1  1  0  0  0
 22 23  1  0  0  0  0
 23 20  1  0  0  0  0
 24 15  1  1  0  0  0
 24 19  1  0  0  0  0
 25 22  1  0  0  0  0
 25 26  1  0  0  0  0
 26 20  1  0  0  0  0
 27 30  1  6  0  0  0
 27 29  1  0  0  0  0
 27 28  1  0  0  0  0
 29 28  1  1  0  0  0
 32 33  1  0  0  0  0
 32 31  1  1  0  0  0
 33 31  1  0  0  0  0
M  END
>  <MODEL>
7

>  <REMARK>
 VINA RESULT:      -7.1      2.895      5.173
  Name = 
  4 active torsions:
  status: ('A' for Active; 'I' for Inactive)
    1  A    between atoms: C_10  and  C_15
    2  A    between atoms: C_10  and  C_32
    3  A    between atoms: C_16  and  N_20
    4  A    between atoms: N_24  and  C_25
                            x       y       z     vdW  Elec       q    Type
                         _______ _______ _______ _____ _____    ______ ____

>  <TORSDO>
F 4

$$$$
=
 OpenBabel11062421113D

 33 40  0  0  1  0  0  0  0  0999 V2000
  191.0120  175.8390  146.0260 C   0  0  0  0  0  2  0  0  0  0  0  0
  188.2480  177.5410  146.3860 C   0  0  0  0  0  2  0  0  0  0  0  0
  188.6820  176.5340  145.4050 C   0  0  2  0  0  0  0  0  0  0  0  0
  190.6660  177.5110  144.2040 C   0  0  0  0  0  2  0  0  0  0  0  0
  186.0940  177.4960  145.2780 C   0  0  2  0  0  0  0  0  0  0  0  0
  186.5120  176.3120  144.4860 C   0  0  0  0  0  2  0  0  0  0  0  0
  191.4050  176.3580  144.7150 N   0  0  0  0  0  0  0  0  0  0  0  0
  187.1940  176.5360  145.8530 C   0  0  2  0  0  0  0  0  0  0  0  0
  189.5410  175.4280  146.0090 C   0  0  0  0  0  2  0  0  0  0  0  0
  189.1800  177.1790  144.1000 C   0  0  0  0  0  2  0  0  0  0  0  0
  192.6310  174.9210  142.9950 C   0  0  0  0  0  0  0  0  0  0  0  0
  193.8020  176.3930  144.5460 C   0  0  0  0  0  3  0  0  0  0  0  0
  192.6310  175.9290  144.0900 C   0  0  0  0  0  0  0  0  0  0  0  0
  195.1080  176.0390  143.9020 C   0  0  0  0  0  2  0  0  0  0  0  0
  191.3930  174.4520  142.4430 N   0  0  0  0  0  2  0  0  0  0  0  0
  193.7550  174.3960  142.5980 N   0  0  0  0  0  0  0  0  0  0  0  0
  194.9880  174.8070  143.1320 N   0  0  0  0  0  2  0  0  0  0  0  0
  192.0970  173.7910  140.1700 C   0  0  0  0  0  2  0  0  0  0  0  0
  191.6400  171.7590  142.0990 S   0  0  0  0  0  0  0  0  0  0  0  0
  191.7690  170.9180  140.4760 C   0  0  2  0  0  0  0  0  0  0  0  0
  192.1100  169.4570  140.6850 C   0  0  0  0  0  1  0  0  0  0  0  0
  192.1340  172.6470  139.1480 C   0  0  1  0  0  3  0  0  0  0  0  0
  192.7760  171.5410  139.7260 O   0  0  0  0  0  0  0  0  0  0  0  0
  191.2710  173.4260  141.4130 C   0  0  1  0  0  3  0  0  0  0  0  0
  190.7320  172.2020  138.7700 C   0  0  0  0  0  2  0  0  0  0  0  0
  190.4730  171.0420  139.6960 C   0  0  0  0  0  2  0  0  0  0  0  0
  184.7200  178.2910  147.3560 C   0  0  1  0  0  3  0  0  0  0  0  0
  184.1080  178.6470  146.1390 O   0  0  0  0  0  0  0  0  0  0  0  0
  184.8080  177.4210  146.1380 C   0  0  1  0  0  3  0  0  0  0  0  0
  185.8970  179.2220  147.6090 C   0  0  0  0  0  1  0  0  0  0  0  0
  185.4940  179.4160  143.7380 C   0  0  0  0  0  2  0  0  0  0  0  0
  186.5140  178.8510  144.6540 C   0  0  2  0  0  3  0  0  0  0  0  0
  186.6150  178.7220  143.2550 O   0  0  0  0  0  0  0  0  0  0  0  0
  3 10  1  6  0  0  0
  3  8  1  0  0  0  0
  3  9  1  0  0  0  0
  3  2  1  0  0  0  0
  4  7  1  0  0  0  0
  5  6  1  6  0  0  0
  5  8  1  0  0  0  0
  5 29  1  0  0  0  0
  7  1  1  0  0  0  0
  8  6  1  1  0  0  0
  8  2  1  0  0  0  0
  9  1  1  0  0  0  0
 10  4  1  0  0  0  0
 11 13  1  0  0  0  0
 13 12  2  0  0  0  0
 13  7  1  0  0  0  0
 14 12  1  0  0  0  0
 15 11  1  0  0  0  0
 16 11  2  0  0  0  0
 16 17  1  0  0  0  0
 17 14  1  0  0  0  0
 18 24  1  0  0  0  0
 20 21  1  1  0  0  0
 20 19  1  0  0  0  0
 22 25  1  1  0  0  0
 22 23  1  0  0  0  0
 22 18  1  0  0  0  0
 23 20  1  0  0  0  0
 24 19  1  0  0  0  0
 24 15  1  1  0  0  0
 25 26  1  0  0  0  0
 26 20  1  0  0  0  0
 27 30  1  6  0  0  0
 28 27  1  0  0  0  0
 29 28  1  6  0  0  0
 29 27  1  0  0  0  0
 32 31  1  6  0  0  0
 32  5  1  0  0  0  0
 33 31  1  0  0  0  0
 33 32  1  0  0  0  0
M  END
>  <MODEL>
8

>  <REMARK>
 VINA RESULT:      -7.1      1.402      1.847
  Name = 
  4 active torsions:
  status: ('A' for Active; 'I' for Inactive)
    1  A    between atoms: C_10  and  C_15
    2  A    between atoms: C_10  and  C_32
    3  A    between atoms: C_16  and  N_20
    4  A    between atoms: N_24  and  C_25
                            x       y       z     vdW  Elec       q    Type
                         _______ _______ _______ _____ _____    ______ ____

>  <TORSDO>
F 4

$$$$
=
 OpenBabel11062421113D

 33 40  0  0  1  0  0  0  0  0999 V2000
  190.7000  175.8730  142.4230 C   0  0  0  0  0  2  0  0  0  0  0  0
  188.0980  177.8130  142.7870 C   0  0  0  0  0  2  0  0  0  0  0  0
  188.4950  176.5430  143.4150 C   0  0  2  0  0  0  0  0  0  0  0  0
  188.5950  174.8320  141.5730 C   0  0  0  0  0  2  0  0  0  0  0  0
  186.2070  177.8170  144.3010 C   0  0  2  0  0  0  0  0  0  0  0  0
  186.7910  176.6780  145.0530 C   0  0  0  0  0  2  0  0  0  0  0  0
  190.0020  174.6810  141.9400 N   0  0  0  0  0  0  0  0  0  0  0  0
  187.7610  177.6010  144.2860 C   0  0  2  0  0  0  0  0  0  0  0  0
  189.9960  176.4290  143.6590 C   0  0  0  0  0  2  0  0  0  0  0  0
  187.7920  175.3370  142.7680 C   0  0  0  0  0  2  0  0  0  0  0  0
  192.1760  173.3390  141.9260 C   0  0  0  0  0  0  0  0  0  0  0  0
  190.1320  172.5310  140.8710 C   0  0  0  0  0  3  0  0  0  0  0  0
  190.7350  173.4910  141.5840 C   0  0  0  0  0  0  0  0  0  0  0  0
  190.8150  171.2430  140.5240 C   0  0  0  0  0  2  0  0  0  0  0  0
  192.8340  174.3200  142.7390 N   0  0  0  0  0  2  0  0  0  0  0  0
  192.8630  172.3600  141.4110 N   0  0  0  0  0  0  0  0  0  0  0  0
  192.2640  171.3940  140.5860 N   0  0  0  0  0  2  0  0  0  0  0  0
  194.8230  175.7290  143.1390 C   0  0  0  0  0  2  0  0  0  0  0  0
  194.5410  173.3210  144.6150 S   0  0  0  0  0  0  0  0  0  0  0  0
  196.2600  173.8960  144.8790 C   0  0  2  0  0  0  0  0  0  0  0  0
  196.8200  173.2660  146.1380 C   0  0  0  0  0  1  0  0  0  0  0  0
  196.2590  175.7530  143.6800 C   0  0  1  0  0  3  0  0  0  0  0  0
  196.2530  175.2920  145.0060 O   0  0  0  0  0  0  0  0  0  0  0  0
  194.2520  174.3040  143.0880 C   0  0  1  0  0  3  0  0  0  0  0  0
  197.1610  174.8240  142.8880 C   0  0  0  0  0  2  0  0  0  0  0  0
  197.1380  173.5480  143.6910 C   0  0  0  0  0  2  0  0  0  0  0  0
  184.8580  179.0420  146.1760 C   0  0  1  0  0  3  0  0  0  0  0  0
  186.2470  179.0700  146.4080 O   0  0  0  0  0  0  0  0  0  0  0  0
  185.8500  179.1230  145.0540 C   0  0  1  0  0  3  0  0  0  0  0  0
  184.3270  177.6560  146.5140 C   0  0  0  0  0  1  0  0  0  0  0  0
  184.9680  178.5360  142.2120 C   0  0  0  0  0  2  0  0  0  0  0  0
  185.3660  177.3950  143.0700 C   0  0  2  0  0  3  0  0  0  0  0  0
  184.0840  177.9740  143.1470 O   0  0  0  0  0  0  0  0  0  0  0  0
  1  9  1  0  0  0  0
  2  3  1  0  0  0  0
  3 10  1  6  0  0  0
  3  9  1  0  0  0  0
  3  8  1  0  0  0  0
  4  7  1  0  0  0  0
  4 10  1  0  0  0  0
  5  6  1  1  0  0  0
  5 29  1  0  0  0  0
  7  1  1  0  0  0  0
  8  2  1  1  0  0  0
  8  5  1  0  0  0  0
  8  6  1  0  0  0  0
 11 15  1  0  0  0  0
 12 13  2  0  0  0  0
 13 11  1  0  0  0  0
 13  7  1  0  0  0  0
 14 17  1  0  0  0  0
 14 12  1  0  0  0  0
 16 11  2  0  0  0  0
 17 16  1  0  0  0  0
 18 22  1  0  0  0  0
 19 20  1  0  0  0  0
 20 23  1  0  0  0  0
 20 21  1  1  0  0  0
 22 25  1  6  0  0  0
 22 23  1  0  0  0  0
 24 15  1  1  0  0  0
 24 18  1  0  0  0  0
 24 19  1  0  0  0  0
 25 26  1  0  0  0  0
 26 20  1  0  0  0  0
 27 28  1  0  0  0  0
 27 30  1  6  0  0  0
 29 27  1  0  0  0  0
 29 28  1  1  0  0  0
 31 33  1  0  0  0  0
 32 31  1  6  0  0  0
 32 33  1  0  0  0  0
 32  5  1  0  0  0  0
M  END
>  <MODEL>
9

>  <REMARK>
 VINA RESULT:      -7.1      2.826      4.880
  Name = 
  4 active torsions:
  status: ('A' for Active; 'I' for Inactive)
    1  A    between atoms: C_10  and  C_15
    2  A    between atoms: C_10  and  C_32
    3  A    between atoms: C_16  and  N_20
    4  A    between atoms: N_24  and  C_25
                            x       y       z     vdW  Elec       q    Type
                         _______ _______ _______ _____ _____    ______ ____

>  <TORSDO>
F 4

$$$$
