=
 OpenBabel11072408583D

 45 50  0  0  1  0  0  0  0  0999 V2000
  189.5510  174.3710  145.8300 O   0  0  0  0  0  0  0  0  0  0  0  0
  189.5950  175.3730  143.7200 N   0  0  0  0  0  0  0  0  0  0  0  0
  189.9520  175.3310  145.1180 C   0  0  0  0  0  0  0  0  0  0  0  0
  188.8910  173.1130  142.8930 C   0  0  1  0  0  3  0  0  0  0  0  0
  189.2630  171.9640  144.9470 O   0  0  0  0  0  1  0  0  0  0  0  0
  191.0990  172.2940  143.4840 C   0  0  0  0  0  2  0  0  0  0  0  0
  189.6190  171.9760  143.5990 C   0  0  2  0  0  3  0  0  0  0  0  0
  189.8890  174.2620  142.7970 C   0  0  2  0  0  3  0  0  0  0  0  0
  188.5330  172.7040  141.6050 O   0  0  0  0  0  1  0  0  0  0  0  0
  191.1870  173.6900  143.0890 N   0  0  0  0  0  0  0  0  0  0  0  0
  193.8680  174.9830  140.8090 C   0  0  0  0  0  0  0  0  0  0  0  0
  193.2460  174.4870  138.4420 C   0  0  0  0  0  2  0  0  0  0  0  0
  192.6160  174.3060  141.2450 C   0  0  0  0  0  0  0  0  0  0  0  0
  192.3380  174.2590  142.5170 N   0  0  0  0  0  0  0  0  0  0  0  0
  191.7100  173.6680  140.2200 C   0  0  0  0  0  2  0  0  0  0  0  0
  194.1750  175.0120  139.4990 C   0  0  0  0  0  3  0  0  0  0  0  0
  192.4850  173.2760  138.9640 C   0  0  0  0  0  2  0  0  0  0  0  0
  194.8180  175.5500  141.8530 C   0  0  2  0  0  0  0  0  0  0  0  0
  195.4180  176.8820  141.4350 C   0  0  0  0  0  2  0  0  0  0  0  0
  196.2190  175.6110  141.2590 C   0  0  1  0  0  3  0  0  0  0  0  0
  195.9030  174.5990  142.3430 C   0  0  1  0  0  3  0  0  0  0  0  0
  196.4510  175.0780  143.6740 C   0  0  0  0  0  2  0  0  0  0  0  0
  197.5330  174.1290  144.1530 C   0  0  0  0  0  2  0  0  0  0  0  0
  197.3620  173.8310  145.6300 C   0  0  0  0  0  2  0  0  0  0  0  0
  196.9620  172.3830  145.8340 C   0  0  0  0  0  1  0  0  0  0  0  0
  187.4250  176.5670  143.8180 C   0  0  2  0  0  3  0  0  0  0  0  0
  186.4160  176.9740  141.4990 C   0  0  0  0  0  2  0  0  0  0  0  0
  187.8040  177.5380  141.1770 C   0  0  0  0  0  2  0  0  0  0  0  0
  188.8480  176.5290  143.2300 C   0  0  2  0  0  3  0  0  0  0  0  0
  188.9010  176.6260  141.6990 C   0  0  0  0  0  2  0  0  0  0  0  0
  186.3690  176.1420  142.7930 C   0  0  0  0  0  2  0  0  0  0  0  0
  187.1280  177.8970  144.3240 N   0  0  0  0  0  2  0  0  0  0  0  0
  184.7410  178.0640  147.4510 C   0  0  0  0  0  3  0  0  0  0  0  0
  185.4670  176.7990  146.3490 S   0  0  0  0  0  0  0  0  0  0  0  0
  186.3140  178.1150  145.4770 C   0  0  0  0  0  0  0  0  0  0  0  0
  185.2940  179.3480  147.0570 N   0  0  0  0  0  0  0  0  0  0  0  0
  186.1370  179.2980  145.9470 N   0  0  0  0  0  0  0  0  0  0  0  0
  189.8620  177.4870  146.4510 C   0  0  0  0  0  1  0  0  0  0  0  0
  190.7320  176.4290  145.7820 C   0  0  1  0  0  3  0  0  0  0  0  0
  191.8860  175.9030  146.6530 C   0  0  2  0  0  3  0  0  0  0  0  0
  191.6080  176.1120  148.1420 C   0  0  0  0  0  1  0  0  0  0  0  0
  193.1050  176.8510  144.9650 O   0  0  0  0  0  1  0  0  0  0  0  0
  193.1650  176.5160  146.2790 N   0  0  0  0  0  0  0  0  0  0  0  0
  193.6810  174.1730  145.8290 C   0  0  0  0  0  1  0  0  0  0  0  0
  194.1980  175.4890  146.3820 C   0  0  0  0  0  2  0  0  0  0  0  0
  2  3  1  0  0  0  0
  3 39  1  0  0  0  0
  3  1  2  0  0  0  0
  4  9  1  6  0  0  0
  4  7  1  0  0  0  0
  6  7  1  0  0  0  0
  7  5  1  1  0  0  0
  8  4  1  0  0  0  0
  8 10  1  0  0  0  0
  8  2  1  1  0  0  0
 10  6  1  0  0  0  0
 11 13  1  0  0  0  0
 12 17  1  0  0  0  0
 12 16  1  0  0  0  0
 13 14  2  0  0  0  0
 14 10  1  0  0  0  0
 15 13  1  0  0  0  0
 16 11  2  0  0  0  0
 17 15  1  0  0  0  0
 18 11  1  6  0  0  0
 18 21  1  0  0  0  0
 19 18  1  0  0  0  0
 20 19  1  1  0  0  0
 20 18  1  0  0  0  0
 20 21  1  0  0  0  0
 21 22  1  1  0  0  0
 22 23  1  0  0  0  0
 23 24  1  0  0  0  0
 24 25  1  0  0  0  0
 26 32  1  6  0  0  0
 27 31  1  0  0  0  0
 28 27  1  0  0  0  0
 28 30  1  0  0  0  0
 29  2  1  6  0  0  0
 29 26  1  0  0  0  0
 30 29  1  0  0  0  0
 31 26  1  0  0  0  0
 32 35  1  0  0  0  0
 34 33  1  0  0  0  0
 35 37  2  0  0  0  0
 35 34  1  0  0  0  0
 36 33  2  0  0  0  0
 37 36  1  0  0  0  0
 39 38  1  1  0  0  0
 39 40  1  0  0  0  0
 40 41  1  1  0  0  0
 42 43  1  0  0  0  0
 43 45  1  0  0  0  0
 43 40  1  0  0  0  0
 44 45  1  0  0  0  0
M  END
>  <MODEL>
1

>  <REMARK>
 VINA RESULT:      -6.9      0.000      0.000
  Name = 
  12 active torsions:
  status: ('A' for Active; 'I' for Inactive)
    1  A    between atoms: C_1  and  N_9
    2  A    between atoms: C_3  and  C_4
    3  A    between atoms: C_11  and  C_43
    4  A    between atoms: C_19  and  N_32
    5  A    between atoms: N_20  and  C_23
    6  A    between atoms: N_20  and  C_35
    7  A    between atoms: C_23  and  C_26
    8  A    between atoms: N_24  and  N_38
    9  A    between atoms: C_26  and  C_33
   10  A    between atoms: C_30  and  N_32
   11  A    between atoms: C_37  and  C_40
   12  A    between atoms: C_37  and  C_43
                            x       y       z     vdW  Elec       q    Type
                         _______ _______ _______ _____ _____    ______ ____

>  <TORSDO>
F 12

$$$$
=
 OpenBabel11072408583D

 45 50  0  0  1  0  0  0  0  0999 V2000
  192.6950  172.1010  141.1660 O   0  0  0  0  0  0  0  0  0  0  0  0
  192.0270  173.9120  142.4820 N   0  0  0  0  0  0  0  0  0  0  0  0
  191.9310  173.0950  141.2960 C   0  0  0  0  0  0  0  0  0  0  0  0
  192.4930  171.9480  143.9690 C   0  0  1  0  0  3  0  0  0  0  0  0
  191.0530  170.4250  142.8370 O   0  0  0  0  0  1  0  0  0  0  0  0
  190.1200  171.8640  144.4730 C   0  0  0  0  0  2  0  0  0  0  0  0
  191.3050  171.0010  144.0820 C   0  0  2  0  0  3  0  0  0  0  0  0
  191.9080  173.3500  143.8390 C   0  0  2  0  0  3  0  0  0  0  0  0
  193.2560  171.8730  145.1380 O   0  0  0  0  0  1  0  0  0  0  0  0
  190.5160  173.2400  144.2220 N   0  0  0  0  0  0  0  0  0  0  0  0
  189.4970  176.2160  146.2640 C   0  0  0  0  0  0  0  0  0  0  0  0
  191.2360  176.6560  148.0010 C   0  0  0  0  0  2  0  0  0  0  0  0
  190.2980  175.0460  145.8080 C   0  0  0  0  0  0  0  0  0  0  0  0
  189.8660  174.3470  144.7960 N   0  0  0  0  0  0  0  0  0  0  0  0
  191.5690  174.6760  146.5320 C   0  0  0  0  0  2  0  0  0  0  0  0
  189.9230  176.9260  147.3250 C   0  0  0  0  0  3  0  0  0  0  0  0
  191.5450  175.1660  147.9780 C   0  0  0  0  0  2  0  0  0  0  0  0
  188.1750  176.5330  145.5840 C   0  0  2  0  0  0  0  0  0  0  0  0
  188.3260  177.5350  144.4520 C   0  0  0  0  0  2  0  0  0  0  0  0
  187.8480  178.0020  145.8090 C   0  0  1  0  0  3  0  0  0  0  0  0
  187.0350  176.9330  146.5120 C   0  0  1  0  0  3  0  0  0  0  0  0
  185.7030  176.7480  145.8090 C   0  0  0  0  0  2  0  0  0  0  0  0
  184.7000  177.7540  146.3420 C   0  0  0  0  0  2  0  0  0  0  0  0
  184.0890  178.5480  145.2030 C   0  0  0  0  0  2  0  0  0  0  0  0
  185.0860  179.5560  144.6680 C   0  0  0  0  0  1  0  0  0  0  0  0
  193.5440  175.7470  143.1750 C   0  0  2  0  0  3  0  0  0  0  0  0
  192.2830  177.7800  144.0870 C   0  0  0  0  0  2  0  0  0  0  0  0
  191.4710  177.6480  142.7940 C   0  0  0  0  0  2  0  0  0  0  0  0
  192.3310  175.3330  142.3220 C   0  0  2  0  0  3  0  0  0  0  0  0
  191.0830  176.2020  142.5350 C   0  0  0  0  0  2  0  0  0  0  0  0
  193.1290  176.5390  144.4180 C   0  0  0  0  0  2  0  0  0  0  0  0
  194.4780  176.5200  142.3730 N   0  0  0  0  0  2  0  0  0  0  0  0
  197.3990  174.4930  140.6830 C   0  0  0  0  0  3  0  0  0  0  0  0
  195.9710  174.1790  141.7800 S   0  0  0  0  0  0  0  0  0  0  0  0
  195.5620  175.9190  141.6640 C   0  0  0  0  0  0  0  0  0  0  0  0
  197.3510  175.8940  140.3010 N   0  0  0  0  0  0  0  0  0  0  0  0
  196.3210  176.6200  140.9000 N   0  0  0  0  0  0  0  0  0  0  0  0
  191.6840  173.5670  138.8160 C   0  0  0  0  0  1  0  0  0  0  0  0
  190.9960  173.4220  140.1670 C   0  0  1  0  0  3  0  0  0  0  0  0
  189.7370  172.5370  140.1550 C   0  0  2  0  0  3  0  0  0  0  0  0
  189.6880  171.6470  138.9120 C   0  0  0  0  0  1  0  0  0  0  0  0
  188.8520  174.6450  140.1270 O   0  0  0  0  0  1  0  0  0  0  0  0
  188.5140  173.3380  140.2610 N   0  0  0  0  0  0  0  0  0  0  0  0
  187.6390  174.5580  142.1860 C   0  0  0  0  0  1  0  0  0  0  0  0
  188.0060  173.1970  141.6240 C   0  0  0  0  0  2  0  0  0  0  0  0
  1  3  2  0  0  0  0
  3  2  1  0  0  0  0
  4  7  1  0  0  0  0
  4  9  1  1  0  0  0
  7  5  1  6  0  0  0
  7  6  1  0  0  0  0
  8  2  1  6  0  0  0
  8  4  1  0  0  0  0
  8 10  1  0  0  0  0
 10  6  1  0  0  0  0
 10 14  1  0  0  0  0
 11 16  2  0  0  0  0
 13 11  1  0  0  0  0
 13 15  1  0  0  0  0
 14 13  2  0  0  0  0
 15 17  1  0  0  0  0
 16 12  1  0  0  0  0
 17 12  1  0  0  0  0
 18 20  1  0  0  0  0
 18 11  1  1  0  0  0
 18 21  1  0  0  0  0
 19 18  1  0  0  0  0
 20 19  1  6  0  0  0
 20 21  1  0  0  0  0
 21 22  1  6  0  0  0
 22 23  1  0  0  0  0
 24 23  1  0  0  0  0
 25 24  1  0  0  0  0
 26 32  1  6  0  0  0
 26 31  1  0  0  0  0
 27 31  1  0  0  0  0
 28 27  1  0  0  0  0
 29  2  1  1  0  0  0
 29 30  1  0  0  0  0
 29 26  1  0  0  0  0
 30 28  1  0  0  0  0
 33 34  1  0  0  0  0
 35 34  1  0  0  0  0
 35 32  1  0  0  0  0
 36 33  2  0  0  0  0
 36 37  1  0  0  0  0
 37 35  2  0  0  0  0
 39 38  1  6  0  0  0
 39  3  1  0  0  0  0
 40 41  1  6  0  0  0
 40 39  1  0  0  0  0
 40 43  1  0  0  0  0
 42 43  1  0  0  0  0
 43 45  1  0  0  0  0
 45 44  1  0  0  0  0
M  END
>  <MODEL>
2

>  <REMARK>
 VINA RESULT:      -6.6      3.277      8.298
  Name = 
  12 active torsions:
  status: ('A' for Active; 'I' for Inactive)
    1  A    between atoms: C_1  and  N_9
    2  A    between atoms: C_3  and  C_4
    3  A    between atoms: C_11  and  C_43
    4  A    between atoms: C_19  and  N_32
    5  A    between atoms: N_20  and  C_23
    6  A    between atoms: N_20  and  C_35
    7  A    between atoms: C_23  and  C_26
    8  A    between atoms: N_24  and  N_38
    9  A    between atoms: C_26  and  C_33
   10  A    between atoms: C_30  and  N_32
   11  A    between atoms: C_37  and  C_40
   12  A    between atoms: C_37  and  C_43
                            x       y       z     vdW  Elec       q    Type
                         _______ _______ _______ _____ _____    ______ ____

>  <TORSDO>
F 12

$$$$
=
 OpenBabel11072408583D

 45 50  0  0  1  0  0  0  0  0999 V2000
  189.7370  172.0210  140.9330 O   0  0  0  0  0  0  0  0  0  0  0  0
  191.6200  173.4060  140.9570 N   0  0  0  0  0  0  0  0  0  0  0  0
  190.2020  173.1860  140.8020 C   0  0  0  0  0  0  0  0  0  0  0  0
  193.0180  171.6330  142.0470 C   0  0  1  0  0  3  0  0  0  0  0  0
  191.3190  169.9630  142.0950 O   0  0  0  0  0  1  0  0  0  0  0  0
  191.3880  171.5610  143.8450 C   0  0  0  0  0  2  0  0  0  0  0  0
  192.1950  170.6820  142.9070 C   0  0  2  0  0  3  0  0  0  0  0  0
  192.3530  172.9990  142.1690 C   0  0  2  0  0  3  0  0  0  0  0  0
  194.3190  171.7050  142.5520 O   0  0  0  0  0  1  0  0  0  0  0  0
  191.4530  172.9070  143.2990 N   0  0  0  0  0  0  0  0  0  0  0  0
  191.5440  175.9410  145.5010 C   0  0  0  0  0  0  0  0  0  0  0  0
  193.8500  176.2240  146.4170 C   0  0  0  0  0  2  0  0  0  0  0  0
  192.0100  174.7130  144.8000 C   0  0  0  0  0  0  0  0  0  0  0  0
  191.1660  174.0590  144.0520 N   0  0  0  0  0  0  0  0  0  0  0  0
  193.4290  174.2340  144.9840 C   0  0  0  0  0  2  0  0  0  0  0  0
  192.4020  176.6060  146.2960 C   0  0  0  0  0  3  0  0  0  0  0  0
  194.0070  174.7140  146.3130 C   0  0  0  0  0  2  0  0  0  0  0  0
  190.0900  176.3700  145.3790 C   0  0  2  0  0  0  0  0  0  0  0  0
  189.9440  177.8440  145.0400 C   0  0  0  0  0  2  0  0  0  0  0  0
  189.7850  177.3840  146.4730 C   0  0  1  0  0  3  0  0  0  0  0  0
  189.1900  175.9910  146.5480 C   0  0  1  0  0  3  0  0  0  0  0  0
  187.7360  176.0250  146.1170 C   0  0  0  0  0  2  0  0  0  0  0  0
  186.9240  176.8270  147.1170 C   0  0  0  0  0  2  0  0  0  0  0  0
  185.6010  177.2500  146.5090 C   0  0  0  0  0  2  0  0  0  0  0  0
  185.3320  178.7130  146.7960 C   0  0  0  0  0  1  0  0  0  0  0  0
  192.5550  172.9520  138.7060 C   0  0  2  0  0  3  0  0  0  0  0  0
  195.0450  173.5270  138.5370 C   0  0  0  0  0  2  0  0  0  0  0  0
  194.6060  174.8670  139.1370 C   0  0  0  0  0  2  0  0  0  0  0  0
  192.3580  173.9810  139.8350 C   0  0  2  0  0  3  0  0  0  0  0  0
  193.6540  174.6600  140.3020 C   0  0  0  0  0  2  0  0  0  0  0  0
  193.9890  172.4150  138.6620 C   0  0  0  0  0  2  0  0  0  0  0  0
  192.1980  173.5390  137.4260 N   0  0  0  0  0  2  0  0  0  0  0  0
  189.4080  171.6600  135.3790 C   0  0  0  0  0  3  0  0  0  0  0  0
  190.3080  171.4720  136.9590 S   0  0  0  0  0  0  0  0  0  0  0  0
  191.1730  172.9970  136.5910 C   0  0  0  0  0  0  0  0  0  0  0  0
  189.8340  172.9160  134.7860 N   0  0  0  0  0  0  0  0  0  0  0  0
  190.8260  173.5850  135.5030 N   0  0  0  0  0  0  0  0  0  0  0  0
  188.2710  173.9050  139.3220 C   0  0  0  0  0  1  0  0  0  0  0  0
  189.2540  174.2880  140.4210 C   0  0  1  0  0  3  0  0  0  0  0  0
  188.6180  174.9800  141.6390 C   0  0  2  0  0  3  0  0  0  0  0  0
  187.5850  174.0810  142.3200 C   0  0  0  0  0  1  0  0  0  0  0  0
  188.8370  177.2550  141.7120 O   0  0  0  0  0  1  0  0  0  0  0  0
  188.0170  176.2670  141.2740 N   0  0  0  0  0  0  0  0  0  0  0  0
  186.8380  177.6610  142.8950 C   0  0  0  0  0  1  0  0  0  0  0  0
  186.7780  176.4110  142.0350 C   0  0  0  0  0  2  0  0  0  0  0  0
  3  1  2  0  0  0  0
  3  2  1  0  0  0  0
  4  8  1  0  0  0  0
  4  9  1  1  0  0  0
  4  7  1  0  0  0  0
  7  5  1  6  0  0  0
  7  6  1  0  0  0  0
  8  2  1  6  0  0  0
  8 10  1  0  0  0  0
 10  6  1  0  0  0  0
 10 14  1  0  0  0  0
 11 16  2  0  0  0  0
 13 15  1  0  0  0  0
 13 11  1  0  0  0  0
 14 13  2  0  0  0  0
 15 17  1  0  0  0  0
 16 12  1  0  0  0  0
 17 12  1  0  0  0  0
 18 11  1  6  0  0  0
 18 20  1  0  0  0  0
 18 21  1  0  0  0  0
 19 18  1  0  0  0  0
 20 19  1  6  0  0  0
 20 21  1  0  0  0  0
 21 22  1  6  0  0  0
 22 23  1  0  0  0  0
 24 25  1  0  0  0  0
 24 23  1  0  0  0  0
 26 32  1  6  0  0  0
 26 29  1  0  0  0  0
 27 31  1  0  0  0  0
 27 28  1  0  0  0  0
 28 30  1  0  0  0  0
 29 30  1  0  0  0  0
 29  2  1  1  0  0  0
 31 26  1  0  0  0  0
 33 34  1  0  0  0  0
 35 34  1  0  0  0  0
 35 32  1  0  0  0  0
 36 33  2  0  0  0  0
 36 37  1  0  0  0  0
 37 35  2  0  0  0  0
 39 38  1  6  0  0  0
 39  3  1  0  0  0  0
 39 40  1  0  0  0  0
 40 41  1  6  0  0  0
 43 40  1  0  0  0  0
 43 42  1  0  0  0  0
 43 45  1  0  0  0  0
 45 44  1  0  0  0  0
M  END
>  <MODEL>
3

>  <REMARK>
 VINA RESULT:      -6.5      3.278      8.012
  Name = 
  12 active torsions:
  status: ('A' for Active; 'I' for Inactive)
    1  A    between atoms: C_1  and  N_9
    2  A    between atoms: C_3  and  C_4
    3  A    between atoms: C_11  and  C_43
    4  A    between atoms: C_19  and  N_32
    5  A    between atoms: N_20  and  C_23
    6  A    between atoms: N_20  and  C_35
    7  A    between atoms: C_23  and  C_26
    8  A    between atoms: N_24  and  N_38
    9  A    between atoms: C_26  and  C_33
   10  A    between atoms: C_30  and  N_32
   11  A    between atoms: C_37  and  C_40
   12  A    between atoms: C_37  and  C_43
                            x       y       z     vdW  Elec       q    Type
                         _______ _______ _______ _____ _____    ______ ____

>  <TORSDO>
F 12

$$$$
=
 OpenBabel11072408583D

 45 50  0  0  1  0  0  0  0  0999 V2000
  191.4060  174.6830  141.6180 O   0  0  0  0  0  0  0  0  0  0  0  0
  191.0030  174.3730  143.8990 N   0  0  0  0  0  0  0  0  0  0  0  0
  190.8480  173.9940  142.5150 C   0  0  0  0  0  0  0  0  0  0  0  0
  192.7820  175.9940  144.5970 C   0  0  1  0  0  3  0  0  0  0  0  0
  193.3510  176.7110  142.3970 O   0  0  0  0  0  1  0  0  0  0  0  0
  194.3540  174.7360  143.2410 C   0  0  0  0  0  2  0  0  0  0  0  0
  193.8830  176.1440  143.5550 C   0  0  2  0  0  3  0  0  0  0  0  0
  192.3250  174.5420  144.5270 C   0  0  2  0  0  3  0  0  0  0  0  0
  193.3100  176.2520  145.8660 O   0  0  0  0  0  1  0  0  0  0  0  0
  193.3400  173.8390  143.7700 N   0  0  0  0  0  0  0  0  0  0  0  0
  194.5820  170.5130  144.9750 C   0  0  0  0  0  0  0  0  0  0  0  0
  196.5110  170.8660  146.5210 C   0  0  0  0  0  2  0  0  0  0  0  0
  194.5040  171.9880  144.7900 C   0  0  0  0  0  0  0  0  0  0  0  0
  193.5710  172.4750  144.0220 N   0  0  0  0  0  0  0  0  0  0  0  0
  195.5120  172.8850  145.4660 C   0  0  0  0  0  2  0  0  0  0  0  0
  195.5600  170.0000  145.7450 C   0  0  0  0  0  3  0  0  0  0  0  0
  196.8150  172.1410  145.7470 C   0  0  0  0  0  2  0  0  0  0  0  0
  193.6160  169.6090  144.2250 C   0  0  2  0  0  0  0  0  0  0  0  0
  193.1380  168.4390  145.0670 C   0  0  0  0  0  2  0  0  0  0  0  0
  194.2540  168.2360  144.0650 C   0  0  1  0  0  3  0  0  0  0  0  0
  194.0870  169.1340  142.8550 C   0  0  1  0  0  3  0  0  0  0  0  0
  192.9000  168.6750  142.0290 C   0  0  0  0  0  2  0  0  0  0  0  0
  193.0530  169.1610  140.6000 C   0  0  0  0  0  2  0  0  0  0  0  0
  191.7050  169.5460  140.0230 C   0  0  0  0  0  2  0  0  0  0  0  0
  190.6860  168.4560  140.2900 C   0  0  0  0  0  1  0  0  0  0  0  0
  189.2610  176.0790  144.3530 C   0  0  2  0  0  3  0  0  0  0  0  0
  189.0410  176.6270  146.8440 C   0  0  0  0  0  2  0  0  0  0  0  0
  188.9520  175.1050  147.0010 C   0  0  0  0  0  2  0  0  0  0  0  0
  189.8000  174.6720  144.6740 C   0  0  2  0  0  3  0  0  0  0  0  0
  190.0140  174.4050  146.1710 C   0  0  0  0  0  2  0  0  0  0  0  0
  189.5660  177.0800  145.4710 C   0  0  0  0  0  2  0  0  0  0  0  0
  187.8310  176.0210  144.1040 N   0  0  0  0  0  2  0  0  0  0  0  0
  186.4890  178.2950  141.1830 C   0  0  0  0  0  3  0  0  0  0  0  0
  188.0770  177.9190  142.0060 S   0  0  0  0  0  0  0  0  0  0  0  0
  187.2040  176.7550  143.0510 C   0  0  0  0  0  0  0  0  0  0  0  0
  185.4830  177.4260  141.7680 N   0  0  0  0  0  0  0  0  0  0  0  0
  185.9500  176.6210  142.8070 N   0  0  0  0  0  0  0  0  0  0  0  0
  189.9340  171.7010  143.0960 C   0  0  0  0  0  1  0  0  0  0  0  0
  189.9850  172.8410  142.0880 C   0  0  1  0  0  3  0  0  0  0  0  0
  188.6120  173.2860  141.5520 C   0  0  2  0  0  3  0  0  0  0  0  0
  187.4700  172.7210  142.3960 C   0  0  0  0  0  1  0  0  0  0  0  0
  189.4720  172.1130  139.7870 O   0  0  0  0  0  1  0  0  0  0  0  0
  188.4400  172.9190  140.1430 N   0  0  0  0  0  0  0  0  0  0  0  0
  189.3660  173.8300  138.0770 C   0  0  0  0  0  1  0  0  0  0  0  0
  188.5900  174.1330  139.3450 C   0  0  0  0  0  2  0  0  0  0  0  0
  1  3  2  0  0  0  0
  3  2  1  0  0  0  0
  4  9  1  1  0  0  0
  6  7  1  0  0  0  0
  6 10  1  0  0  0  0
  7  5  1  6  0  0  0
  7  4  1  0  0  0  0
  8  2  1  6  0  0  0
  8  4  1  0  0  0  0
 10 14  1  0  0  0  0
 10  8  1  0  0  0  0
 11 16  2  0  0  0  0
 13 11  1  0  0  0  0
 13 15  1  0  0  0  0
 14 13  2  0  0  0  0
 15 17  1  0  0  0  0
 16 12  1  0  0  0  0
 17 12  1  0  0  0  0
 18 11  1  1  0  0  0
 18 19  1  0  0  0  0
 20 18  1  0  0  0  0
 20 19  1  6  0  0  0
 21 22  1  6  0  0  0
 21 20  1  0  0  0  0
 21 18  1  0  0  0  0
 23 22  1  0  0  0  0
 24 25  1  0  0  0  0
 24 23  1  0  0  0  0
 26 32  1  1  0  0  0
 26 29  1  0  0  0  0
 26 31  1  0  0  0  0
 27 28  1  0  0  0  0
 29  2  1  6  0  0  0
 29 30  1  0  0  0  0
 30 28  1  0  0  0  0
 31 27  1  0  0  0  0
 33 36  2  0  0  0  0
 33 34  1  0  0  0  0
 34 35  1  0  0  0  0
 35 32  1  0  0  0  0
 36 37  1  0  0  0  0
 37 35  2  0  0  0  0
 39  3  1  0  0  0  0
 39 38  1  1  0  0  0
 40 39  1  0  0  0  0
 40 41  1  1  0  0  0
 42 43  1  0  0  0  0
 43 40  1  0  0  0  0
 44 45  1  0  0  0  0
 45 43  1  0  0  0  0
M  END
>  <MODEL>
4

>  <REMARK>
 VINA RESULT:      -6.3      2.772      6.333
  Name = 
  12 active torsions:
  status: ('A' for Active; 'I' for Inactive)
    1  A    between atoms: C_1  and  N_9
    2  A    between atoms: C_3  and  C_4
    3  A    between atoms: C_11  and  C_43
    4  A    between atoms: C_19  and  N_32
    5  A    between atoms: N_20  and  C_23
    6  A    between atoms: N_20  and  C_35
    7  A    between atoms: C_23  and  C_26
    8  A    between atoms: N_24  and  N_38
    9  A    between atoms: C_26  and  C_33
   10  A    between atoms: C_30  and  N_32
   11  A    between atoms: C_37  and  C_40
   12  A    between atoms: C_37  and  C_43
                            x       y       z     vdW  Elec       q    Type
                         _______ _______ _______ _____ _____    ______ ____

>  <TORSDO>
F 12

$$$$
=
 OpenBabel11072408583D

 45 50  0  0  1  0  0  0  0  0999 V2000
  195.2970  171.9740  140.3410 O   0  0  0  0  0  0  0  0  0  0  0  0
  193.3760  172.9210  141.2750 N   0  0  0  0  0  0  0  0  0  0  0  0
  194.5800  172.1310  141.3660 C   0  0  0  0  0  0  0  0  0  0  0  0
  194.4480  174.5760  139.7270 C   0  0  1  0  0  3  0  0  0  0  0  0
  196.5760  174.5850  140.7970 O   0  0  0  0  0  1  0  0  0  0  0  0
  194.8710  175.9900  141.6540 C   0  0  0  0  0  2  0  0  0  0  0  0
  195.5220  175.4120  140.4120 C   0  0  2  0  0  3  0  0  0  0  0  0
  193.3800  174.3100  140.7810 C   0  0  2  0  0  3  0  0  0  0  0  0
  193.8880  175.3130  138.6780 O   0  0  0  0  0  1  0  0  0  0  0  0
  193.6490  175.2320  141.8650 N   0  0  0  0  0  0  0  0  0  0  0  0
  191.3320  176.1810  144.6580 C   0  0  0  0  0  0  0  0  0  0  0  0
  192.3560  175.5180  146.8360 C   0  0  0  0  0  2  0  0  0  0  0  0
  192.5210  175.6110  143.9650 C   0  0  0  0  0  0  0  0  0  0  0  0
  192.5860  175.6880  142.6650 N   0  0  0  0  0  0  0  0  0  0  0  0
  193.6080  174.9380  144.7660 C   0  0  0  0  0  2  0  0  0  0  0  0
  191.2450  176.0810  145.9970 C   0  0  0  0  0  3  0  0  0  0  0  0
  193.0670  174.3990  146.0890 C   0  0  0  0  0  2  0  0  0  0  0  0
  190.2020  176.7830  143.8380 C   0  0  2  0  0  0  0  0  0  0  0  0
  190.4040  178.2630  143.5630 C   0  0  0  0  0  2  0  0  0  0  0  0
  189.4860  177.8270  144.6830 C   0  0  1  0  0  3  0  0  0  0  0  0
  188.7950  176.5170  144.3590 C   0  0  1  0  0  3  0  0  0  0  0  0
  187.7820  176.7260  143.2500 C   0  0  0  0  0  2  0  0  0  0  0  0
  186.4840  177.2510  143.8350 C   0  0  0  0  0  2  0  0  0  0  0  0
  186.1250  178.5870  143.2140 C   0  0  0  0  0  2  0  0  0  0  0  0
  185.6390  179.5500  144.2790 C   0  0  0  0  0  1  0  0  0  0  0  0
  190.9500  172.8600  140.7680 C   0  0  2  0  0  3  0  0  0  0  0  0
  189.4970  173.1650  142.8550 C   0  0  0  0  0  2  0  0  0  0  0  0
  190.3820  172.0530  143.4300 C   0  0  0  0  0  2  0  0  0  0  0  0
  192.1030  172.2870  141.6120 C   0  0  2  0  0  3  0  0  0  0  0  0
  191.8480  172.3080  143.1260 C   0  0  0  0  0  2  0  0  0  0  0  0
  190.0620  173.8100  141.5780 C   0  0  0  0  0  2  0  0  0  0  0  0
  190.1530  171.7800  140.2110 N   0  0  0  0  0  2  0  0  0  0  0  0
  191.0960  170.6410  136.5610 C   0  0  0  0  0  3  0  0  0  0  0  0
  191.6320  171.8850  137.7890 S   0  0  0  0  0  0  0  0  0  0  0  0
  190.4040  171.2300  138.9170 C   0  0  0  0  0  0  0  0  0  0  0  0
  190.0770  169.8220  137.1940 N   0  0  0  0  0  0  0  0  0  0  0  0
  189.7340  170.2220  138.4850 N   0  0  0  0  0  0  0  0  0  0  0  0
  194.6080  169.9460  142.6540 C   0  0  0  0  0  1  0  0  0  0  0  0
  194.9830  171.4220  142.6280 C   0  0  1  0  0  3  0  0  0  0  0  0
  196.4320  171.7240  143.0480 C   0  0  2  0  0  3  0  0  0  0  0  0
  197.0780  170.5230  143.7400 C   0  0  0  0  0  1  0  0  0  0  0  0
  197.7570  173.4320  143.7960 O   0  0  0  0  0  1  0  0  0  0  0  0
  196.5080  172.9110  143.9050 N   0  0  0  0  0  0  0  0  0  0  0  0
  196.9580  173.5160  146.2270 C   0  0  0  0  0  1  0  0  0  0  0  0
  196.3810  172.4690  145.2910 C   0  0  0  0  0  2  0  0  0  0  0  0
  1  3  2  0  0  0  0
  2  3  1  0  0  0  0
  3 39  1  0  0  0  0
  4  9  1  6  0  0  0
  4  7  1  0  0  0  0
  4  8  1  0  0  0  0
  6 10  1  0  0  0  0
  7  5  1  1  0  0  0
  7  6  1  0  0  0  0
  8  2  1  1  0  0  0
  8 10  1  0  0  0  0
 10 14  1  0  0  0  0
 11 16  2  0  0  0  0
 13 11  1  0  0  0  0
 13 15  1  0  0  0  0
 14 13  2  0  0  0  0
 15 17  1  0  0  0  0
 16 12  1  0  0  0  0
 17 12  1  0  0  0  0
 18 21  1  0  0  0  0
 18 11  1  1  0  0  0
 18 20  1  0  0  0  0
 19 18  1  0  0  0  0
 20 19  1  6  0  0  0
 21 22  1  6  0  0  0
 21 20  1  0  0  0  0
 22 23  1  0  0  0  0
 24 23  1  0  0  0  0
 24 25  1  0  0  0  0
 26 32  1  1  0  0  0
 26 31  1  0  0  0  0
 26 29  1  0  0  0  0
 27 28  1  0  0  0  0
 29  2  1  1  0  0  0
 29 30  1  0  0  0  0
 30 28  1  0  0  0  0
 31 27  1  0  0  0  0
 33 36  2  0  0  0  0
 33 34  1  0  0  0  0
 34 35  1  0  0  0  0
 35 32  1  0  0  0  0
 36 37  1  0  0  0  0
 37 35  2  0  0  0  0
 39 38  1  6  0  0  0
 39 40  1  0  0  0  0
 40 41  1  1  0  0  0
 40 43  1  0  0  0  0
 42 43  1  0  0  0  0
 43 45  1  0  0  0  0
 45 44  1  0  0  0  0
M  END
>  <MODEL>
5

>  <REMARK>
 VINA RESULT:      -6.3      3.780      7.913
  Name = 
  12 active torsions:
  status: ('A' for Active; 'I' for Inactive)
    1  A    between atoms: C_1  and  N_9
    2  A    between atoms: C_3  and  C_4
    3  A    between atoms: C_11  and  C_43
    4  A    between atoms: C_19  and  N_32
    5  A    between atoms: N_20  and  C_23
    6  A    between atoms: N_20  and  C_35
    7  A    between atoms: C_23  and  C_26
    8  A    between atoms: N_24  and  N_38
    9  A    between atoms: C_26  and  C_33
   10  A    between atoms: C_30  and  N_32
   11  A    between atoms: C_37  and  C_40
   12  A    between atoms: C_37  and  C_43
                            x       y       z     vdW  Elec       q    Type
                         _______ _______ _______ _____ _____    ______ ____

>  <TORSDO>
F 12

$$$$
=
 OpenBabel11072408583D

 45 50  0  0  1  0  0  0  0  0999 V2000
  190.0920  171.8530  141.0620 O   0  0  0  0  0  0  0  0  0  0  0  0
  192.1850  172.8710  140.8560 N   0  0  0  0  0  0  0  0  0  0  0  0
  190.7580  172.9230  141.0640 C   0  0  0  0  0  0  0  0  0  0  0  0
  192.9990  170.5560  141.3680 C   0  0  1  0  0  3  0  0  0  0  0  0
  190.9120  169.7200  142.1550 O   0  0  0  0  0  1  0  0  0  0  0  0
  192.3020  170.9020  143.6670 C   0  0  0  0  0  2  0  0  0  0  0  0
  192.2430  169.9090  142.5220 C   0  0  2  0  0  3  0  0  0  0  0  0
  193.0740  172.0440  141.6900 C   0  0  2  0  0  3  0  0  0  0  0  0
  194.2930  170.0300  141.3110 O   0  0  0  0  0  1  0  0  0  0  0  0
  192.7180  172.1690  143.0890 N   0  0  0  0  0  0  0  0  0  0  0  0
  194.8290  174.4460  145.1910 C   0  0  0  0  0  0  0  0  0  0  0  0
  196.9560  173.2810  145.7860 C   0  0  0  0  0  2  0  0  0  0  0  0
  194.4010  173.2210  144.4610 C   0  0  0  0  0  0  0  0  0  0  0  0
  193.2520  173.2260  143.8470 N   0  0  0  0  0  0  0  0  0  0  0  0
  195.2830  171.9970  144.4660 C   0  0  0  0  0  2  0  0  0  0  0  0
  196.0020  174.4400  145.8500 C   0  0  0  0  0  3  0  0  0  0  0  0
  196.1870  171.9710  145.6960 C   0  0  0  0  0  2  0  0  0  0  0  0
  193.8980  175.6470  145.2530 C   0  0  2  0  0  0  0  0  0  0  0  0
  194.6450  176.9690  145.1860 C   0  0  0  0  0  2  0  0  0  0  0  0
  194.1920  176.4300  146.5250 C   0  0  1  0  0  3  0  0  0  0  0  0
  192.8990  175.6480  146.4030 C   0  0  1  0  0  3  0  0  0  0  0  0
  191.7510  176.5910  146.0940 C   0  0  0  0  0  2  0  0  0  0  0  0
  190.8220  176.6760  147.2890 C   0  0  0  0  0  2  0  0  0  0  0  0
  190.4870  175.2890  147.8010 C   0  0  0  0  0  2  0  0  0  0  0  0
  189.1440  174.8360  147.2610 C   0  0  0  0  0  1  0  0  0  0  0  0
  192.9400  172.6930  138.5010 C   0  0  2  0  0  3  0  0  0  0  0  0
  195.3280  173.5530  138.1610 C   0  0  0  0  0  2  0  0  0  0  0  0
  194.8120  174.7870  138.9090 C   0  0  0  0  0  2  0  0  0  0  0  0
  192.7470  173.6070  139.7250 C   0  0  2  0  0  3  0  0  0  0  0  0
  194.0050  174.3890  140.1320 C   0  0  0  0  0  2  0  0  0  0  0  0
  194.4110  172.3240  138.2840 C   0  0  0  0  0  2  0  0  0  0  0  0
  192.4000  173.3310  137.3110 N   0  0  0  0  0  2  0  0  0  0  0  0
  189.3180  171.5430  135.6360 C   0  0  0  0  0  3  0  0  0  0  0  0
  190.4420  171.2910  137.0550 S   0  0  0  0  0  0  0  0  0  0  0  0
  191.2580  172.8250  136.6200 C   0  0  0  0  0  0  0  0  0  0  0  0
  189.6630  172.8190  135.0340 N   0  0  0  0  0  0  0  0  0  0  0  0
  190.7570  173.4560  135.6190 N   0  0  0  0  0  0  0  0  0  0  0  0
  188.5540  174.1480  140.7920 C   0  0  0  0  0  1  0  0  0  0  0  0
  190.0150  174.2200  141.2180 C   0  0  1  0  0  3  0  0  0  0  0  0
  190.2540  174.8900  142.5830 C   0  0  2  0  0  3  0  0  0  0  0  0
  189.6960  174.0460  143.7290 C   0  0  0  0  0  1  0  0  0  0  0  0
  190.7150  177.1200  142.7920 O   0  0  0  0  0  1  0  0  0  0  0  0
  189.6930  176.2440  142.6230 N   0  0  0  0  0  0  0  0  0  0  0  0
  187.9060  177.5130  143.6970 C   0  0  0  0  0  1  0  0  0  0  0  0
  188.8740  176.3510  143.8280 C   0  0  0  0  0  2  0  0  0  0  0  0
  1  3  2  0  0  0  0
  2  3  1  0  0  0  0
  3 39  1  0  0  0  0
  4  9  1  1  0  0  0
  4  8  1  0  0  0  0
  4  7  1  0  0  0  0
  7  5  1  6  0  0  0
  7  6  1  0  0  0  0
  8  2  1  6  0  0  0
  8 10  1  0  0  0  0
 10  6  1  0  0  0  0
 10 14  1  0  0  0  0
 11 16  2  0  0  0  0
 12 16  1  0  0  0  0
 13 15  1  0  0  0  0
 13 11  1  0  0  0  0
 14 13  2  0  0  0  0
 15 17  1  0  0  0  0
 17 12  1  0  0  0  0
 18 11  1  6  0  0  0
 18 21  1  0  0  0  0
 18 20  1  0  0  0  0
 19 18  1  0  0  0  0
 20 19  1  6  0  0  0
 21 22  1  6  0  0  0
 21 20  1  0  0  0  0
 22 23  1  0  0  0  0
 23 24  1  0  0  0  0
 25 24  1  0  0  0  0
 26 32  1  6  0  0  0
 26 29  1  0  0  0  0
 27 31  1  0  0  0  0
 27 28  1  0  0  0  0
 28 30  1  0  0  0  0
 29 30  1  0  0  0  0
 29  2  1  1  0  0  0
 31 26  1  0  0  0  0
 33 34  1  0  0  0  0
 35 34  1  0  0  0  0
 35 32  1  0  0  0  0
 36 37  1  0  0  0  0
 36 33  2  0  0  0  0
 37 35  2  0  0  0  0
 39 38  1  1  0  0  0
 39 40  1  0  0  0  0
 40 43  1  0  0  0  0
 40 41  1  1  0  0  0
 43 42  1  0  0  0  0
 43 45  1  0  0  0  0
 44 45  1  0  0  0  0
M  END
>  <MODEL>
6

>  <REMARK>
 VINA RESULT:      -6.3      3.288      7.191
  Name = 
  12 active torsions:
  status: ('A' for Active; 'I' for Inactive)
    1  A    between atoms: C_1  and  N_9
    2  A    between atoms: C_3  and  C_4
    3  A    between atoms: C_11  and  C_43
    4  A    between atoms: C_19  and  N_32
    5  A    between atoms: N_20  and  C_23
    6  A    between atoms: N_20  and  C_35
    7  A    between atoms: C_23  and  C_26
    8  A    between atoms: N_24  and  N_38
    9  A    between atoms: C_26  and  C_33
   10  A    between atoms: C_30  and  N_32
   11  A    between atoms: C_37  and  C_40
   12  A    between atoms: C_37  and  C_43
                            x       y       z     vdW  Elec       q    Type
                         _______ _______ _______ _____ _____    ______ ____

>  <TORSDO>
F 12

$$$$
=
 OpenBabel11072408583D

 45 50  0  0  1  0  0  0  0  0999 V2000
  194.7660  173.2550  143.9570 O   0  0  0  0  0  0  0  0  0  0  0  0
  193.9650  174.3370  142.0470 N   0  0  0  0  0  0  0  0  0  0  0  0
  193.8350  173.3740  143.1150 C   0  0  0  0  0  0  0  0  0  0  0  0
  195.6610  176.1810  141.9680 C   0  0  1  0  0  3  0  0  0  0  0  0
  197.1160  175.2600  143.6150 O   0  0  0  0  0  1  0  0  0  0  0  0
  195.2600  176.5480  144.3340 C   0  0  0  0  0  2  0  0  0  0  0  0
  196.3630  176.3920  143.3040 C   0  0  2  0  0  3  0  0  0  0  0  0
  194.2330  175.7630  142.2990 C   0  0  2  0  0  3  0  0  0  0  0  0
  195.6380  177.3880  141.2630 O   0  0  0  0  0  1  0  0  0  0  0  0
  194.0400  176.0760  143.7000 N   0  0  0  0  0  0  0  0  0  0  0  0
  190.8980  176.5680  145.6870 C   0  0  0  0  0  0  0  0  0  0  0  0
  191.1910  175.5640  147.9540 C   0  0  0  0  0  2  0  0  0  0  0  0
  192.2740  176.1150  145.3450 C   0  0  0  0  0  0  0  0  0  0  0  0
  192.7530  176.3990  144.1670 N   0  0  0  0  0  0  0  0  0  0  0  0
  193.0750  175.3210  146.3470 C   0  0  0  0  0  2  0  0  0  0  0  0
  190.3860  176.2560  146.8910 C   0  0  0  0  0  3  0  0  0  0  0  0
  192.1630  174.5790  147.3210 C   0  0  0  0  0  2  0  0  0  0  0  0
  190.0650  177.2940  144.6420 C   0  0  2  0  0  0  0  0  0  0  0  0
  188.8070  177.9150  145.2260 C   0  0  0  0  0  2  0  0  0  0  0  0
  188.7230  176.5870  144.5060 C   0  0  1  0  0  3  0  0  0  0  0  0
  189.7400  176.4960  143.3860 C   0  0  1  0  0  3  0  0  0  0  0  0
  189.3540  177.4350  142.2580 C   0  0  0  0  0  2  0  0  0  0  0  0
  188.0590  176.9660  141.6220 C   0  0  0  0  0  2  0  0  0  0  0  0
  187.0040  178.0520  141.7050 C   0  0  0  0  0  2  0  0  0  0  0  0
  185.7690  177.5350  142.4170 C   0  0  0  0  0  1  0  0  0  0  0  0
  195.0350  172.8510  140.3750 C   0  0  2  0  0  3  0  0  0  0  0  0
  195.6370  174.0760  138.2080 C   0  0  0  0  0  2  0  0  0  0  0  0
  194.1820  174.5540  138.2690 C   0  0  0  0  0  2  0  0  0  0  0  0
  193.9040  173.8540  140.6690 C   0  0  2  0  0  3  0  0  0  0  0  0
  193.8160  175.0160  139.6690 C   0  0  0  0  0  2  0  0  0  0  0  0
  196.1490  173.4740  139.5270 C   0  0  0  0  0  2  0  0  0  0  0  0
  194.5000  171.6730  139.7150 N   0  0  0  0  0  2  0  0  0  0  0  0
  194.8800  168.2740  141.6660 C   0  0  0  0  0  3  0  0  0  0  0  0
  195.3250  170.0340  141.8820 S   0  0  0  0  0  0  0  0  0  0  0  0
  194.5240  170.3780  140.3170 C   0  0  0  0  0  0  0  0  0  0  0  0
  194.1050  168.1710  140.4410 N   0  0  0  0  0  0  0  0  0  0  0  0
  193.9700  169.3710  139.7420 N   0  0  0  0  0  0  0  0  0  0  0  0
  192.7830  171.4190  144.3400 C   0  0  0  0  0  1  0  0  0  0  0  0
  192.6560  172.4520  143.2270 C   0  0  1  0  0  3  0  0  0  0  0  0
  191.3080  173.1940  143.1910 C   0  0  2  0  0  3  0  0  0  0  0  0
  190.5100  172.9730  144.4760 C   0  0  0  0  0  1  0  0  0  0  0  0
  190.3870  173.8970  141.2190 O   0  0  0  0  0  1  0  0  0  0  0  0
  190.5130  172.8090  142.0210 N   0  0  0  0  0  0  0  0  0  0  0  0
  188.1400  173.2390  141.6410 C   0  0  0  0  0  1  0  0  0  0  0  0
  189.1620  172.4980  142.4830 C   0  0  0  0  0  2  0  0  0  0  0  0
  2  3  1  0  0  0  0
  3 39  1  0  0  0  0
  3  1  2  0  0  0  0
  4  9  1  6  0  0  0
  4  8  1  0  0  0  0
  4  7  1  0  0  0  0
  7  5  1  1  0  0  0
  7  6  1  0  0  0  0
  8  2  1  1  0  0  0
  8 10  1  0  0  0  0
 10 14  1  0  0  0  0
 10  6  1  0  0  0  0
 11 16  2  0  0  0  0
 13 11  1  0  0  0  0
 13 15  1  0  0  0  0
 14 13  2  0  0  0  0
 15 17  1  0  0  0  0
 16 12  1  0  0  0  0
 17 12  1  0  0  0  0
 18 19  1  0  0  0  0
 18 11  1  1  0  0  0
 20 18  1  0  0  0  0
 20 19  1  6  0  0  0
 21 22  1  6  0  0  0
 21 20  1  0  0  0  0
 21 18  1  0  0  0  0
 23 24  1  0  0  0  0
 23 22  1  0  0  0  0
 24 25  1  0  0  0  0
 26 32  1  6  0  0  0
 26 29  1  0  0  0  0
 27 28  1  0  0  0  0
 27 31  1  0  0  0  0
 28 30  1  0  0  0  0
 29  2  1  1  0  0  0
 30 29  1  0  0  0  0
 31 26  1  0  0  0  0
 32 35  1  0  0  0  0
 33 34  1  0  0  0  0
 35 34  1  0  0  0  0
 36 33  2  0  0  0  0
 37 35  2  0  0  0  0
 37 36  1  0  0  0  0
 39 38  1  1  0  0  0
 40 39  1  0  0  0  0
 40 41  1  1  0  0  0
 42 43  1  0  0  0  0
 43 45  1  0  0  0  0
 43 40  1  0  0  0  0
 44 45  1  0  0  0  0
M  END
>  <MODEL>
7

>  <REMARK>
 VINA RESULT:      -6.2      3.403      8.505
  Name = 
  12 active torsions:
  status: ('A' for Active; 'I' for Inactive)
    1  A    between atoms: C_1  and  N_9
    2  A    between atoms: C_3  and  C_4
    3  A    between atoms: C_11  and  C_43
    4  A    between atoms: C_19  and  N_32
    5  A    between atoms: N_20  and  C_23
    6  A    between atoms: N_20  and  C_35
    7  A    between atoms: C_23  and  C_26
    8  A    between atoms: N_24  and  N_38
    9  A    between atoms: C_26  and  C_33
   10  A    between atoms: C_30  and  N_32
   11  A    between atoms: C_37  and  C_40
   12  A    between atoms: C_37  and  C_43
                            x       y       z     vdW  Elec       q    Type
                         _______ _______ _______ _____ _____    ______ ____

>  <TORSDO>
F 12

$$$$
=
 OpenBabel11072408583D

 45 50  0  0  1  0  0  0  0  0999 V2000
  187.8490  175.0360  142.7440 O   0  0  0  0  0  0  0  0  0  0  0  0
  190.1660  175.0440  143.0470 N   0  0  0  0  0  0  0  0  0  0  0  0
  188.9700  174.5910  142.3770 C   0  0  0  0  0  0  0  0  0  0  0  0
  192.0120  176.7320  143.2070 C   0  0  1  0  0  3  0  0  0  0  0  0
  192.8410  176.0030  145.3190 O   0  0  0  0  0  1  0  0  0  0  0  0
  191.0140  177.5130  145.2780 C   0  0  0  0  0  2  0  0  0  0  0  0
  192.3350  177.1150  144.6460 C   0  0  2  0  0  3  0  0  0  0  0  0
  190.5110  176.4720  143.1640 C   0  0  2  0  0  3  0  0  0  0  0  0
  192.3210  177.8040  142.3640 O   0  0  0  0  0  1  0  0  0  0  0  0
  189.9730  177.0250  144.3890 N   0  0  0  0  0  0  0  0  0  0  0  0
  186.4710  178.0290  145.2770 C   0  0  0  0  0  0  0  0  0  0  0  0
  185.9890  177.3410  147.6290 C   0  0  0  0  0  2  0  0  0  0  0  0
  187.8270  177.4310  145.4160 C   0  0  0  0  0  0  0  0  0  0  0  0
  188.6520  177.5060  144.4100 N   0  0  0  0  0  0  0  0  0  0  0  0
  188.2130  176.7310  146.6960 C   0  0  0  0  0  2  0  0  0  0  0  0
  185.6040  177.9310  146.3020 C   0  0  0  0  0  3  0  0  0  0  0  0
  186.9830  176.2050  147.4320 C   0  0  0  0  0  2  0  0  0  0  0  0
  186.0590  178.6580  143.9560 C   0  0  2  0  0  0  0  0  0  0  0  0
  185.0870  179.8120  144.1360 C   0  0  0  0  0  2  0  0  0  0  0  0
  184.5650  178.4430  143.7550 C   0  0  1  0  0  3  0  0  0  0  0  0
  185.5580  177.6890  142.8920 C   0  0  1  0  0  3  0  0  0  0  0  0
  185.6450  178.3330  141.5210 C   0  0  0  0  0  2  0  0  0  0  0  0
  184.5900  177.7380  140.6080 C   0  0  0  0  0  2  0  0  0  0  0  0
  183.3870  178.6560  140.5180 C   0  0  0  0  0  2  0  0  0  0  0  0
  182.1220  177.9070  140.8880 C   0  0  0  0  0  1  0  0  0  0  0  0
  192.1340  173.5640  142.7520 C   0  0  2  0  0  3  0  0  0  0  0  0
  191.6210  171.1170  143.3040 C   0  0  0  0  0  2  0  0  0  0  0  0
  191.0500  171.7020  144.6000 C   0  0  0  0  0  2  0  0  0  0  0  0
  191.0160  174.0480  143.6950 C   0  0  2  0  0  3  0  0  0  0  0  0
  190.1840  172.9180  144.3190 C   0  0  0  0  0  2  0  0  0  0  0  0
  191.8530  172.1630  142.2010 C   0  0  0  0  0  2  0  0  0  0  0  0
  193.4140  173.5880  143.4400 N   0  0  0  0  0  2  0  0  0  0  0  0
  196.4150  175.1860  141.4540 C   0  0  0  0  0  3  0  0  0  0  0  0
  194.6410  174.8260  141.1980 S   0  0  0  0  0  0  0  0  0  0  0  0
  194.5830  174.1740  142.8660 C   0  0  0  0  0  0  0  0  0  0  0  0
  196.7360  174.8220  142.8240 N   0  0  0  0  0  0  0  0  0  0  0  0
  195.6790  174.2510  143.5320 N   0  0  0  0  0  0  0  0  0  0  0  0
  187.7670  172.6530  141.2680 C   0  0  0  0  0  1  0  0  0  0  0  0
  188.9990  173.5480  141.2970 C   0  0  1  0  0  3  0  0  0  0  0  0
  189.4120  174.1160  139.9270 C   0  0  2  0  0  3  0  0  0  0  0  0
  188.1960  174.5390  139.1040 C   0  0  0  0  0  1  0  0  0  0  0  0
  191.3520  173.8060  138.7550 O   0  0  0  0  0  1  0  0  0  0  0  0
  190.2340  173.1620  139.1750 N   0  0  0  0  0  0  0  0  0  0  0  0
  189.7270  171.3400  137.6320 C   0  0  0  0  0  1  0  0  0  0  0  0
  189.5020  172.8040  137.9620 C   0  0  0  0  0  2  0  0  0  0  0  0
  3  1  2  0  0  0  0
  3  2  1  0  0  0  0
  4  9  1  6  0  0  0
  4  7  1  0  0  0  0
  7  6  1  0  0  0  0
  7  5  1  1  0  0  0
  8  2  1  1  0  0  0
  8  4  1  0  0  0  0
  8 10  1  0  0  0  0
 10 14  1  0  0  0  0
 10  6  1  0  0  0  0
 11 13  1  0  0  0  0
 11 16  2  0  0  0  0
 13 15  1  0  0  0  0
 14 13  2  0  0  0  0
 15 17  1  0  0  0  0
 16 12  1  0  0  0  0
 17 12  1  0  0  0  0
 18 19  1  0  0  0  0
 18 11  1  1  0  0  0
 20 18  1  0  0  0  0
 20 19  1  6  0  0  0
 21 22  1  6  0  0  0
 21 20  1  0  0  0  0
 21 18  1  0  0  0  0
 23 22  1  0  0  0  0
 24 23  1  0  0  0  0
 24 25  1  0  0  0  0
 26 32  1  1  0  0  0
 26 29  1  0  0  0  0
 27 28  1  0  0  0  0
 29  2  1  6  0  0  0
 29 30  1  0  0  0  0
 30 28  1  0  0  0  0
 31 26  1  0  0  0  0
 31 27  1  0  0  0  0
 33 36  2  0  0  0  0
 34 33  1  0  0  0  0
 34 35  1  0  0  0  0
 35 32  1  0  0  0  0
 35 37  2  0  0  0  0
 36 37  1  0  0  0  0
 39 38  1  6  0  0  0
 39  3  1  0  0  0  0
 40 41  1  6  0  0  0
 40 39  1  0  0  0  0
 42 43  1  0  0  0  0
 43 40  1  0  0  0  0
 44 45  1  0  0  0  0
 45 43  1  0  0  0  0
M  END
>  <MODEL>
8

>  <REMARK>
 VINA RESULT:      -6.2      2.939      9.011
  Name = 
  12 active torsions:
  status: ('A' for Active; 'I' for Inactive)
    1  A    between atoms: C_1  and  N_9
    2  A    between atoms: C_3  and  C_4
    3  A    between atoms: C_11  and  C_43
    4  A    between atoms: C_19  and  N_32
    5  A    between atoms: N_20  and  C_23
    6  A    between atoms: N_20  and  C_35
    7  A    between atoms: C_23  and  C_26
    8  A    between atoms: N_24  and  N_38
    9  A    between atoms: C_26  and  C_33
   10  A    between atoms: C_30  and  N_32
   11  A    between atoms: C_37  and  C_40
   12  A    between atoms: C_37  and  C_43
                            x       y       z     vdW  Elec       q    Type
                         _______ _______ _______ _____ _____    ______ ____

>  <TORSDO>
F 12

$$$$
=
 OpenBabel11072408583D

 45 50  0  0  1  0  0  0  0  0999 V2000
  192.7430  172.0680  140.8190 O   0  0  0  0  0  0  0  0  0  0  0  0
  191.8150  173.8070  142.0740 N   0  0  0  0  0  0  0  0  0  0  0  0
  192.1120  173.1590  140.8190 C   0  0  0  0  0  0  0  0  0  0  0  0
  191.4430  171.6450  143.2880 C   0  0  1  0  0  3  0  0  0  0  0  0
  190.4700  170.4840  141.4490 O   0  0  0  0  0  1  0  0  0  0  0  0
  189.0770  171.8590  142.7870 C   0  0  0  0  0  2  0  0  0  0  0  0
  190.2350  170.8780  142.7660 C   0  0  2  0  0  3  0  0  0  0  0  0
  191.0940  173.1230  143.1630 C   0  0  2  0  0  3  0  0  0  0  0  0
  191.6440  171.3300  144.6350 O   0  0  0  0  0  1  0  0  0  0  0  0
  189.6650  173.1800  142.9390 N   0  0  0  0  0  0  0  0  0  0  0  0
  187.5130  176.2340  143.2580 C   0  0  0  0  0  0  0  0  0  0  0  0
  186.6860  176.8980  140.9970 C   0  0  0  0  0  2  0  0  0  0  0  0
  188.2560  175.1130  142.6200 C   0  0  0  0  0  0  0  0  0  0  0  0
  188.9390  174.3020  143.3770 N   0  0  0  0  0  0  0  0  0  0  0  0
  188.2290  174.9500  141.1200 C   0  0  0  0  0  2  0  0  0  0  0  0
  186.8270  177.0920  142.4800 C   0  0  0  0  0  3  0  0  0  0  0  0
  187.9530  176.2810  140.4240 C   0  0  0  0  0  2  0  0  0  0  0  0
  187.6130  176.4420  144.7610 C   0  0  2  0  0  0  0  0  0  0  0  0
  186.2940  176.8760  145.3790 C   0  0  0  0  0  2  0  0  0  0  0  0
  187.3550  177.9100  145.0710 C   0  0  1  0  0  3  0  0  0  0  0  0
  188.7510  177.3410  145.2280 C   0  0  1  0  0  3  0  0  0  0  0  0
  189.0450  177.0870  146.6950 C   0  0  0  0  0  2  0  0  0  0  0  0
  190.5010  176.6990  146.8650 C   0  0  0  0  0  2  0  0  0  0  0  0
  190.6140  175.3250  147.4950 C   0  0  0  0  0  2  0  0  0  0  0  0
  189.3260  174.5490  147.3040 C   0  0  0  0  0  1  0  0  0  0  0  0
  193.6950  175.1430  142.9850 C   0  0  2  0  0  3  0  0  0  0  0  0
  192.9270  176.8990  144.6830 C   0  0  0  0  0  2  0  0  0  0  0  0
  191.9260  177.2800  143.5870 C   0  0  0  0  0  2  0  0  0  0  0  0
  192.3200  175.1610  142.2910 C   0  0  2  0  0  3  0  0  0  0  0  0
  191.2750  176.0460  142.9860 C   0  0  0  0  0  2  0  0  0  0  0  0
  193.5980  175.5320  144.4630 C   0  0  0  0  0  2  0  0  0  0  0  0
  194.6160  176.0260  142.2910 N   0  0  0  0  0  2  0  0  0  0  0  0
  197.5530  174.2740  140.3380 C   0  0  0  0  0  3  0  0  0  0  0  0
  196.1330  173.8020  141.3880 S   0  0  0  0  0  0  0  0  0  0  0  0
  195.7040  175.5370  141.5050 C   0  0  0  0  0  0  0  0  0  0  0  0
  197.4880  175.7130  140.1460 N   0  0  0  0  0  0  0  0  0  0  0  0
  196.4530  176.3410  140.8380 N   0  0  0  0  0  0  0  0  0  0  0  0
  192.9490  174.3420  138.7370 C   0  0  0  0  0  1  0  0  0  0  0  0
  191.7560  173.7720  139.4940 C   0  0  1  0  0  3  0  0  0  0  0  0
  190.8270  172.8800  138.6520 C   0  0  2  0  0  3  0  0  0  0  0  0
  191.4390  172.5630  137.2870 C   0  0  0  0  0  1  0  0  0  0  0  0
  188.5690  172.5180  138.6910 O   0  0  0  0  0  1  0  0  0  0  0  0
  189.5010  173.4840  138.4910 N   0  0  0  0  0  0  0  0  0  0  0  0
  188.2350  174.8960  136.9540 C   0  0  0  0  0  1  0  0  0  0  0  0
  189.3610  173.8880  137.0940 C   0  0  0  0  0  2  0  0  0  0  0  0
  3  1  2  0  0  0  0
  3  2  1  0  0  0  0
  4  9  1  1  0  0  0
  6 10  1  0  0  0  0
  7  5  1  6  0  0  0
  7  6  1  0  0  0  0
  7  4  1  0  0  0  0
  8  2  1  6  0  0  0
  8  4  1  0  0  0  0
 10  8  1  0  0  0  0
 10 14  1  0  0  0  0
 12 16  1  0  0  0  0
 13 11  1  0  0  0  0
 13 14  2  0  0  0  0
 15 13  1  0  0  0  0
 16 11  2  0  0  0  0
 17 12  1  0  0  0  0
 17 15  1  0  0  0  0
 18 11  1  6  0  0  0
 18 20  1  0  0  0  0
 18 21  1  0  0  0  0
 18 19  1  0  0  0  0
 20 21  1  0  0  0  0
 20 19  1  1  0  0  0
 21 22  1  1  0  0  0
 22 23  1  0  0  0  0
 23 24  1  0  0  0  0
 25 24  1  0  0  0  0
 26 32  1  6  0  0  0
 26 31  1  0  0  0  0
 28 27  1  0  0  0  0
 29  2  1  1  0  0  0
 29 26  1  0  0  0  0
 29 30  1  0  0  0  0
 30 28  1  0  0  0  0
 31 27  1  0  0  0  0
 33 34  1  0  0  0  0
 34 35  1  0  0  0  0
 35 32  1  0  0  0  0
 36 33  2  0  0  0  0
 36 37  1  0  0  0  0
 37 35  2  0  0  0  0
 39 38  1  6  0  0  0
 39  3  1  0  0  0  0
 40 41  1  6  0  0  0
 40 39  1  0  0  0  0
 43 40  1  0  0  0  0
 43 42  1  0  0  0  0
 44 45  1  0  0  0  0
 45 43  1  0  0  0  0
M  END
>  <MODEL>
9

>  <REMARK>
 VINA RESULT:      -6.2      3.192      7.848
  Name = 
  12 active torsions:
  status: ('A' for Active; 'I' for Inactive)
    1  A    between atoms: C_1  and  N_9
    2  A    between atoms: C_3  and  C_4
    3  A    between atoms: C_11  and  C_43
    4  A    between atoms: C_19  and  N_32
    5  A    between atoms: N_20  and  C_23
    6  A    between atoms: N_20  and  C_35
    7  A    between atoms: C_23  and  C_26
    8  A    between atoms: N_24  and  N_38
    9  A    between atoms: C_26  and  C_33
   10  A    between atoms: C_30  and  N_32
   11  A    between atoms: C_37  and  C_40
   12  A    between atoms: C_37  and  C_43
                            x       y       z     vdW  Elec       q    Type
                         _______ _______ _______ _____ _____    ______ ____

>  <TORSDO>
F 12

$$$$
