=
 OpenBabel11062419363D

 42 48  0  0  1  0  0  0  0  0999 V2000
  190.4570  172.2730  140.2890 N   0  0  0  0  0  0  0  0  0  0  0  0
  191.2410  170.1790  141.5240 C   0  0  2  0  0  3  0  0  0  0  0  0
  191.1420  170.3380  139.1480 O   0  0  0  0  0  0  0  0  0  0  0  0
  193.0420  174.5380  146.5340 N   0  0  0  0  0  0  0  0  0  0  0  0
  191.3080  172.9610  142.5330 C   0  0  0  0  0  0  0  0  0  0  0  0
  190.4380  173.0500  141.5160 C   0  0  0  0  0  0  0  0  0  0  0  0
  190.3730  176.4830  145.1260 N   0  0  0  0  0  0  0  0  0  0  0  0
  192.2000  175.7240  146.6180 C   0  0  0  0  0  3  0  0  0  0  0  0
  191.3090  175.6300  145.4150 C   0  0  0  0  0  0  0  0  0  0  0  0
  191.4740  168.8240  141.2750 O   0  0  0  0  0  1  0  0  0  0  0  0
  189.5740  174.2130  141.7200 C   0  0  0  0  0  3  0  0  0  0  0  0
  193.2320  172.6950  145.1060 O   0  0  0  0  0  0  0  0  0  0  0  0
  191.6250  174.4420  144.6120 C   0  0  0  0  0  0  0  0  0  0  0  0
  190.9440  170.9140  140.2550 C   0  0  0  0  0  0  0  0  0  0  0  0
  191.0320  174.0840  143.4470 C   0  0  0  0  0  0  0  0  0  0  0  0
  189.9190  174.8160  142.8450 C   0  0  0  0  0  3  0  0  0  0  0  0
  192.6930  173.7970  145.3730 C   0  0  0  0  0  0  0  0  0  0  0  0
  192.4400  170.7800  142.1670 C   0  0  0  0  0  3  0  0  0  0  0  0
  192.4460  172.0280  142.6300 C   0  0  0  0  0  3  0  0  0  0  0  0
  188.4440  173.1780  139.0770 C   0  0  1  0  0  3  0  0  0  0  0  0
  188.9590  171.9920  138.2770 C   0  0  0  0  0  2  0  0  0  0  0  0
  189.9430  172.8630  139.0370 C   0  0  2  0  0  0  0  0  0  0  0  0
  188.0320  174.2830  138.1180 C   0  0  0  0  0  1  0  0  0  0  0  0
  192.2890  173.7750  138.6960 C   0  0  0  0  0  2  0  0  0  0  0  0
  191.3020  172.9370  136.5870 S   0  0  0  0  0  0  0  0  0  0  0  0
  190.8700  173.7340  138.1650 C   0  0  1  0  0  3  0  0  0  0  0  0
  192.8840  173.1250  137.4660 C   0  0  0  0  0  2  0  0  0  0  0  0
  190.0810  177.6660  145.9260 C   0  0  0  0  0  2  0  0  0  0  0  0
  188.7190  177.5390  146.6000 C   0  0  0  0  0  2  0  0  0  0  0  0
  187.9310  176.3540  146.0500 C   0  0  0  0  0  2  0  0  0  0  0  0
  186.5630  176.7700  145.5230 C   0  0  0  0  0  2  0  0  0  0  0  0
  185.4910  179.0500  145.5780 C   0  0  0  0  0  2  0  0  0  0  0  0
  184.0660  178.9810  143.5390 C   0  0  0  0  0  2  0  0  0  0  0  0
  185.2460  178.4220  142.7840 C   0  0  1  0  0  3  0  0  0  0  0  0
  184.1260  178.5650  140.7610 O   0  0  0  0  0  0  0  0  0  0  0  0
  187.5640  177.6980  142.6930 C   0  0  0  0  0  3  0  0  0  0  0  0
  186.5850  178.1840  144.9450 C   0  0  2  0  0  3  0  0  0  0  0  0
  187.4540  177.5800  141.3080 C   0  0  0  0  0  3  0  0  0  0  0  0
  186.2800  177.8750  140.6890 N   0  0  0  0  0  0  0  0  0  0  0  0
  184.1230  178.6640  145.0290 C   0  0  0  0  0  2  0  0  0  0  0  0
  185.1870  178.2920  141.3840 C   0  0  0  0  0  0  0  0  0  0  0  0
  186.4620  178.1270  143.4420 C   0  0  0  0  0  0  0  0  0  0  0  0
  1  6  1  0  0  0  0
  2 10  1  6  0  0  0
  2 18  1  0  0  0  0
  3 14  2  0  0  0  0
  4  8  2  0  0  0  0
  5 19  1  0  0  0  0
  5 15  1  0  0  0  0
  6 11  1  0  0  0  0
  6  5  2  0  0  0  0
  7  9  2  0  0  0  0
  7 28  1  0  0  0  0
  9  8  1  0  0  0  0
 11 16  2  0  0  0  0
 12 17  2  0  0  0  0
 13 17  1  0  0  0  0
 13  9  1  0  0  0  0
 14  1  1  0  0  0  0
 14  2  1  0  0  0  0
 15 13  2  0  0  0  0
 16 15  1  0  0  0  0
 17  4  1  0  0  0  0
 18 19  2  0  0  0  0
 20 23  1  6  0  0  0
 21 20  1  0  0  0  0
 22 21  1  6  0  0  0
 22 20  1  0  0  0  0
 22  1  1  0  0  0  0
 25 27  1  0  0  0  0
 25 26  1  0  0  0  0
 26 24  1  1  0  0  0
 26 22  1  0  0  0  0
 27 24  1  0  0  0  0
 28 29  1  0  0  0  0
 30 29  1  0  0  0  0
 31 30  1  0  0  0  0
 33 40  1  0  0  0  0
 34 42  1  0  0  0  0
 34 33  1  6  0  0  0
 35 41  2  0  0  0  0
 36 42  2  0  0  0  0
 37 31  1  1  0  0  0
 37 32  1  0  0  0  0
 38 36  1  0  0  0  0
 39 38  2  0  0  0  0
 39 41  1  0  0  0  0
 40 32  1  0  0  0  0
 41 34  1  0  0  0  0
 42 37  1  0  0  0  0
M  END
>  <MODEL>
1

>  <REMARK>
 VINA RESULT:      -8.1      0.000      0.000
  Name = 
  7 active torsions:
  status: ('A' for Active; 'I' for Inactive)
    1  A    between atoms: N_1  and  C_37
    2  A    between atoms: C_13  and  C_17
    3  A    between atoms: C_13  and  C_35
    4  A    between atoms: C_15  and  N_16
    5  A    between atoms: C_15  and  C_22
    6  A    between atoms: C_22  and  C_35
    7  A    between atoms: C_26  and  C_37
                            x       y       z     vdW  Elec       q    Type
                         _______ _______ _______ _____ _____    ______ ____

>  <TORSDO>
F 7

$$$$
=
 OpenBabel11062419363D

 42 48  0  0  1  0  0  0  0  0999 V2000
  188.2860  176.1560  144.1010 N   0  0  0  0  0  0  0  0  0  0  0  0
  186.1730  176.7500  142.7940 C   0  0  2  0  0  3  0  0  0  0  0  0
  187.0660  178.1140  144.5320 O   0  0  0  0  0  0  0  0  0  0  0  0
  188.9720  173.0150  137.7390 N   0  0  0  0  0  0  0  0  0  0  0  0
  188.3980  175.0270  141.8770 C   0  0  0  0  0  0  0  0  0  0  0  0
  188.5900  175.0550  143.2040 C   0  0  1  0  0  3  0  0  0  0  0  0
  190.5310  171.3420  140.5070 N   0  0  0  0  0  0  0  0  0  0  0  0
  189.8140  171.9220  138.2070 C   0  0  0  0  0  3  0  0  0  0  0  0
  189.8950  172.1270  139.6900 C   0  0  0  0  0  0  0  0  0  0  0  0
  185.0770  177.6130  142.8820 O   0  0  0  0  0  1  0  0  0  0  0  0
  189.3670  173.8800  143.6040 C   0  0  0  0  0  3  0  0  0  0  0  0
  187.8040  174.7890  138.7170 O   0  0  0  0  0  0  0  0  0  0  0  0
  189.1520  173.3250  140.1020 C   0  0  1  0  0  3  0  0  0  0  0  0
  187.1810  177.0530  143.8580 C   0  0  0  0  0  0  0  0  0  0  0  0
  189.0560  173.8120  141.3630 C   0  0  0  0  0  0  0  0  0  0  0  0
  189.6370  173.1550  142.5320 C   0  0  0  0  0  3  0  0  0  0  0  0
  188.5860  173.8160  138.8470 C   0  0  0  0  0  0  0  0  0  0  0  0
  186.8140  176.8940  141.4590 C   0  0  0  0  0  3  0  0  0  0  0  0
  187.8030  176.0990  141.0580 C   0  0  0  0  0  3  0  0  0  0  0  0
  188.8930  175.2860  146.3840 C   0  0  1  0  0  3  0  0  0  0  0  0
  188.3090  176.6770  146.5710 C   0  0  0  0  0  2  0  0  0  0  0  0
  189.1010  176.3630  145.3150 C   0  0  2  0  0  0  0  0  0  0  0  0
  190.0850  175.1190  147.3140 C   0  0  0  0  0  1  0  0  0  0  0  0
  191.5260  176.1590  144.5850 C   0  0  0  0  0  2  0  0  0  0  0  0
  190.5220  178.3100  143.8860 S   0  0  0  0  0  0  0  0  0  0  0  0
  190.4730  177.0570  145.2040 C   0  0  1  0  0  3  0  0  0  0  0  0
  191.7460  177.0580  143.3880 C   0  0  0  0  0  2  0  0  0  0  0  0
  191.2750  170.1630  140.0810 C   0  0  0  0  0  2  0  0  0  0  0  0
  192.7330  170.2600  140.5160 C   0  0  0  0  0  2  0  0  0  0  0  0
  192.8770  171.0240  141.8280 C   0  0  0  0  0  2  0  0  0  0  0  0
  193.8540  172.1870  141.7110 C   0  0  0  0  0  2  0  0  0  0  0  0
  192.8250  174.3800  141.0150 C   0  0  0  0  0  2  0  0  0  0  0  0
  194.7240  175.9530  141.3550 C   0  0  0  0  0  2  0  0  0  0  0  0
  194.9590  175.3130  142.7010 C   0  0  1  0  0  3  0  0  0  0  0  0
  196.5610  176.8880  143.2640 O   0  0  0  0  0  0  0  0  0  0  0  0
  194.3750  173.6960  144.4180 C   0  0  0  0  0  3  0  0  0  0  0  0
  193.2350  173.4970  142.1980 C   0  0  2  0  0  3  0  0  0  0  0  0
  195.2990  174.2970  145.2720 C   0  0  0  0  0  3  0  0  0  0  0  0
  196.0220  175.3670  144.8500 N   0  0  0  0  0  0  0  0  0  0  0  0
  194.0550  175.0040  140.3660 C   0  0  0  0  0  2  0  0  0  0  0  0
  195.8740  175.8870  143.6010 C   0  0  0  0  0  0  0  0  0  0  0  0
  194.1920  174.2040  143.1270 C   0  0  0  0  0  0  0  0  0  0  0  0
  2 10  1  6  0  0  0
  2 14  1  0  0  0  0
  4  8  2  0  0  0  0
  4 17  1  0  0  0  0
  5  6  1  0  0  0  0
  6 11  1  6  0  0  0
  6  1  1  0  0  0  0
  8  9  1  0  0  0  0
  9 13  1  0  0  0  0
  9  7  2  0  0  0  0
 12 17  2  0  0  0  0
 13 15  1  6  0  0  0
 14  1  1  0  0  0  0
 14  3  2  0  0  0  0
 15  5  2  0  0  0  0
 15 16  1  0  0  0  0
 16 11  2  0  0  0  0
 17 13  1  0  0  0  0
 18  2  1  0  0  0  0
 19 18  2  0  0  0  0
 19  5  1  0  0  0  0
 20 21  1  0  0  0  0
 20 23  1  1  0  0  0
 22  1  1  6  0  0  0
 22 20  1  0  0  0  0
 22 21  1  0  0  0  0
 25 26  1  0  0  0  0
 26 24  1  6  0  0  0
 26 22  1  0  0  0  0
 27 25  1  0  0  0  0
 27 24  1  0  0  0  0
 28  7  1  0  0  0  0
 28 29  1  0  0  0  0
 29 30  1  0  0  0  0
 31 30  1  0  0  0  0
 32 37  1  0  0  0  0
 34 33  1  1  0  0  0
 34 42  1  0  0  0  0
 34 41  1  0  0  0  0
 35 41  2  0  0  0  0
 36 38  1  0  0  0  0
 37 31  1  6  0  0  0
 37 42  1  0  0  0  0
 39 38  2  0  0  0  0
 40 32  1  0  0  0  0
 40 33  1  0  0  0  0
 41 39  1  0  0  0  0
 42 36  2  0  0  0  0
M  END
>  <MODEL>
2

>  <REMARK>
 VINA RESULT:      -8.1      2.894      8.514
  Name = 
  7 active torsions:
  status: ('A' for Active; 'I' for Inactive)
    1  A    between atoms: N_1  and  C_37
    2  A    between atoms: C_13  and  C_17
    3  A    between atoms: C_13  and  C_35
    4  A    between atoms: C_15  and  N_16
    5  A    between atoms: C_15  and  C_22
    6  A    between atoms: C_22  and  C_35
    7  A    between atoms: C_26  and  C_37
                            x       y       z     vdW  Elec       q    Type
                         _______ _______ _______ _____ _____    ______ ____

>  <TORSDO>
F 7

$$$$
=
 OpenBabel11062419363D

 42 48  0  0  1  0  0  0  0  0999 V2000
  195.9820  172.9760  143.7480 N   0  0  0  0  0  0  0  0  0  0  0  0
  196.8780  174.8390  142.2470 C   0  0  2  0  0  3  0  0  0  0  0  0
  197.5900  172.5710  142.0850 O   0  0  0  0  0  0  0  0  0  0  0  0
  190.8130  177.8730  143.4110 N   0  0  0  0  0  0  0  0  0  0  0  0
  194.2640  174.7840  143.6360 C   0  0  0  0  0  0  0  0  0  0  0  0
  194.9560  173.8450  144.2980 C   0  0  0  0  0  0  0  0  0  0  0  0
  191.0140  175.9900  146.4610 N   0  0  0  0  0  0  0  0  0  0  0  0
  190.2390  177.5670  144.7150 C   0  0  0  0  0  3  0  0  0  0  0  0
  191.1500  176.5200  145.2830 C   0  0  0  0  0  0  0  0  0  0  0  0
  197.9410  175.0800  141.3730 O   0  0  0  0  0  1  0  0  0  0  0  0
  194.3700  173.6610  145.6260 C   0  0  0  0  0  3  0  0  0  0  0  0
  192.6830  177.1900  142.1850 O   0  0  0  0  0  0  0  0  0  0  0  0
  192.2220  176.1800  144.3400 C   0  0  0  0  0  0  0  0  0  0  0  0
  196.8530  173.4070  142.6790 C   0  0  0  0  0  0  0  0  0  0  0  0
  193.1880  175.2490  144.5290 C   0  0  0  0  0  0  0  0  0  0  0  0
  193.3410  174.4790  145.7620 C   0  0  0  0  0  3  0  0  0  0  0  0
  191.9680  177.0700  143.2090 C   0  0  0  0  0  0  0  0  0  0  0  0
  195.5940  175.1690  141.5730 C   0  0  0  0  0  3  0  0  0  0  0  0
  194.4300  175.1550  142.2180 C   0  0  0  0  0  3  0  0  0  0  0  0
  196.7390  171.6170  145.7270 C   0  0  1  0  0  3  0  0  0  0  0  0
  197.6200  171.2310  144.5500 C   0  0  0  0  0  2  0  0  0  0  0  0
  196.1740  171.6220  144.3040 C   0  0  2  0  0  0  0  0  0  0  0  0
  196.3850  170.3650  146.5140 C   0  0  0  0  0  1  0  0  0  0  0  0
  193.9140  170.9820  143.3370 C   0  0  0  0  0  2  0  0  0  0  0  0
  195.7640  169.7130  142.2930 S   0  0  0  0  0  0  0  0  0  0  0  0
  195.2430  170.4750  143.8610 C   0  0  1  0  0  3  0  0  0  0  0  0
  194.1250  170.4240  141.9470 C   0  0  0  0  0  2  0  0  0  0  0  0
  189.9350  176.3280  147.3820 C   0  0  0  0  0  2  0  0  0  0  0  0
  188.6200  175.7090  146.9220 C   0  0  0  0  0  2  0  0  0  0  0  0
  187.4700  176.7080  147.0080 C   0  0  0  0  0  2  0  0  0  0  0  0
  186.6350  176.7320  145.7340 C   0  0  0  0  0  2  0  0  0  0  0  0
  185.6160  179.0310  145.9040 C   0  0  0  0  0  2  0  0  0  0  0  0
  183.8670  178.9340  144.1360 C   0  0  0  0  0  2  0  0  0  0  0  0
  184.8970  178.3360  143.2090 C   0  0  1  0  0  3  0  0  0  0  0  0
  183.4540  178.4460  141.4000 O   0  0  0  0  0  0  0  0  0  0  0  0
  187.1570  177.5700  142.7500 C   0  0  0  0  0  3  0  0  0  0  0  0
  186.5770  178.1310  145.1210 C   0  0  2  0  0  3  0  0  0  0  0  0
  186.8140  177.4190  141.4080 C   0  0  0  0  0  3  0  0  0  0  0  0
  185.5560  177.7180  140.9870 N   0  0  0  0  0  0  0  0  0  0  0  0
  184.1710  178.6540  145.6030 C   0  0  0  0  0  2  0  0  0  0  0  0
  184.6010  178.1720  141.8440 C   0  0  0  0  0  0  0  0  0  0  0  0
  186.2030  178.0370  143.6620 C   0  0  0  0  0  0  0  0  0  0  0  0
  1  6  1  0  0  0  0
  2 10  1  6  0  0  0
  2 14  1  0  0  0  0
  3 14  2  0  0  0  0
  4  8  2  0  0  0  0
  5  6  2  0  0  0  0
  5 15  1  0  0  0  0
  6 11  1  0  0  0  0
  7 28  1  0  0  0  0
  8  9  1  0  0  0  0
  9  7  2  0  0  0  0
 11 16  2  0  0  0  0
 12 17  2  0  0  0  0
 13 15  2  0  0  0  0
 13  9  1  0  0  0  0
 14  1  1  0  0  0  0
 15 16  1  0  0  0  0
 17  4  1  0  0  0  0
 17 13  1  0  0  0  0
 18 19  2  0  0  0  0
 18  2  1  0  0  0  0
 19  5  1  0  0  0  0
 20 23  1  1  0  0  0
 21 20  1  0  0  0  0
 22  1  1  6  0  0  0
 22 21  1  0  0  0  0
 22 20  1  0  0  0  0
 25 26  1  0  0  0  0
 26 24  1  6  0  0  0
 26 22  1  0  0  0  0
 27 25  1  0  0  0  0
 27 24  1  0  0  0  0
 29 30  1  0  0  0  0
 29 28  1  0  0  0  0
 31 30  1  0  0  0  0
 33 40  1  0  0  0  0
 34 42  1  0  0  0  0
 34 33  1  6  0  0  0
 35 41  2  0  0  0  0
 36 42  2  0  0  0  0
 37 31  1  1  0  0  0
 37 32  1  0  0  0  0
 38 36  1  0  0  0  0
 39 38  2  0  0  0  0
 39 41  1  0  0  0  0
 40 32  1  0  0  0  0
 41 34  1  0  0  0  0
 42 37  1  0  0  0  0
M  END
>  <MODEL>
3

>  <REMARK>
 VINA RESULT:      -7.8      3.647      5.285
  Name = 
  7 active torsions:
  status: ('A' for Active; 'I' for Inactive)
    1  A    between atoms: N_1  and  C_37
    2  A    between atoms: C_13  and  C_17
    3  A    between atoms: C_13  and  C_35
    4  A    between atoms: C_15  and  N_16
    5  A    between atoms: C_15  and  C_22
    6  A    between atoms: C_22  and  C_35
    7  A    between atoms: C_26  and  C_37
                            x       y       z     vdW  Elec       q    Type
                         _______ _______ _______ _____ _____    ______ ____

>  <TORSDO>
F 7

$$$$
=
 OpenBabel11062419363D

 42 48  0  0  1  0  0  0  0  0999 V2000
  191.7670  173.1750  140.2010 N   0  0  0  0  0  0  0  0  0  0  0  0
  194.2280  173.1740  139.5190 C   0  0  2  0  0  3  0  0  0  0  0  0
  192.4400  172.8740  137.9720 O   0  0  0  0  0  0  0  0  0  0  0  0
  195.1420  177.1630  145.0500 N   0  0  0  0  0  0  0  0  0  0  0  0
  193.0490  174.4860  141.8950 C   0  0  0  0  0  0  0  0  0  0  0  0
  192.0890  173.6160  141.5470 C   0  0  0  0  0  0  0  0  0  0  0  0
  192.2510  175.3750  146.2050 N   0  0  0  0  0  0  0  0  0  0  0  0
  194.2080  176.8930  146.1350 C   0  0  0  0  0  3  0  0  0  0  0  0
  193.2380  175.9080  145.5520 C   0  0  0  0  0  0  0  0  0  0  0  0
  195.0300  172.8030  138.4350 O   0  0  0  0  0  1  0  0  0  0  0  0
  191.2490  173.3310  142.7110 C   0  0  0  0  0  3  0  0  0  0  0  0
  195.4450  176.4170  142.8540 O   0  0  0  0  0  0  0  0  0  0  0  0
  193.5580  175.6170  144.1480 C   0  0  0  0  0  0  0  0  0  0  0  0
  192.7770  173.0580  139.1750 C   0  0  0  0  0  0  0  0  0  0  0  0
  192.8600  174.7990  143.3230 C   0  0  0  0  0  0  0  0  0  0  0  0
  191.6980  174.0200  143.7470 C   0  0  0  0  0  3  0  0  0  0  0  0
  194.7610  176.4090  143.9070 C   0  0  0  0  0  0  0  0  0  0  0  0
  194.5280  174.5790  139.9020 C   0  0  0  0  0  3  0  0  0  0  0  0
  194.0010  175.1470  140.9840 C   0  0  0  0  0  3  0  0  0  0  0  0
  189.6970  173.7880  138.9050 C   0  0  1  0  0  3  0  0  0  0  0  0
  189.3170  173.7590  140.3770 C   0  0  0  0  0  2  0  0  0  0  0  0
  190.3780  172.8040  139.8610 C   0  0  2  0  0  0  0  0  0  0  0  0
  188.5760  173.1620  138.0900 C   0  0  0  0  0  1  0  0  0  0  0  0
  190.5680  170.5850  138.6380 C   0  0  0  0  0  2  0  0  0  0  0  0
  190.8280  170.3230  141.0850 S   0  0  0  0  0  0  0  0  0  0  0  0
  189.9720  171.3170  139.8240 C   0  0  1  0  0  3  0  0  0  0  0  0
  191.3750  169.6320  139.4930 C   0  0  0  0  0  2  0  0  0  0  0  0
  191.9380  175.6850  147.5950 C   0  0  0  0  0  2  0  0  0  0  0  0
  190.4670  176.0550  147.7480 C   0  0  0  0  0  2  0  0  0  0  0  0
  189.5540  174.9290  147.2740 C   0  0  0  0  0  2  0  0  0  0  0  0
  188.5980  175.3880  146.1800 C   0  0  0  0  0  2  0  0  0  0  0  0
  187.1750  177.3840  146.7690 C   0  0  0  0  0  2  0  0  0  0  0  0
  186.1360  177.9220  144.5720 C   0  0  0  0  0  2  0  0  0  0  0  0
  187.5000  177.7860  143.9410 C   0  0  1  0  0  3  0  0  0  0  0  0
  186.7190  178.5430  141.8960 O   0  0  0  0  0  0  0  0  0  0  0  0
  189.8870  177.3650  144.1050 C   0  0  0  0  0  3  0  0  0  0  0  0
  188.4850  176.9110  146.1290 C   0  0  2  0  0  3  0  0  0  0  0  0
  190.0270  177.7450  142.7700 C   0  0  0  0  0  3  0  0  0  0  0  0
  188.9390  178.1320  142.0530 N   0  0  0  0  0  0  0  0  0  0  0  0
  185.9980  177.0950  145.8460 C   0  0  0  0  0  2  0  0  0  0  0  0
  187.6930  178.1650  142.6000 C   0  0  0  0  0  0  0  0  0  0  0  0
  188.6220  177.3890  144.7040 C   0  0  0  0  0  0  0  0  0  0  0  0
  1  6  1  0  0  0  0
  2 10  1  6  0  0  0
  2 18  1  0  0  0  0
  3 14  2  0  0  0  0
  4  8  2  0  0  0  0
  5 15  1  0  0  0  0
  6  5  2  0  0  0  0
  6 11  1  0  0  0  0
  7 28  1  0  0  0  0
  9  8  1  0  0  0  0
  9  7  2  0  0  0  0
 11 16  2  0  0  0  0
 12 17  2  0  0  0  0
 13  9  1  0  0  0  0
 14  2  1  0  0  0  0
 14  1  1  0  0  0  0
 15 16  1  0  0  0  0
 15 13  2  0  0  0  0
 17 13  1  0  0  0  0
 17  4  1  0  0  0  0
 18 19  2  0  0  0  0
 19  5  1  0  0  0  0
 20 23  1  6  0  0  0
 20 22  1  0  0  0  0
 20 21  1  0  0  0  0
 22  1  1  1  0  0  0
 22 21  1  0  0  0  0
 24 27  1  0  0  0  0
 26 24  1  6  0  0  0
 26 22  1  0  0  0  0
 26 25  1  0  0  0  0
 27 25  1  0  0  0  0
 28 29  1  0  0  0  0
 30 29  1  0  0  0  0
 31 30  1  0  0  0  0
 33 40  1  0  0  0  0
 34 33  1  1  0  0  0
 34 42  1  0  0  0  0
 35 41  2  0  0  0  0
 36 42  2  0  0  0  0
 37 31  1  6  0  0  0
 37 32  1  0  0  0  0
 38 36  1  0  0  0  0
 39 41  1  0  0  0  0
 39 38  2  0  0  0  0
 40 32  1  0  0  0  0
 41 34  1  0  0  0  0
 42 37  1  0  0  0  0
M  END
>  <MODEL>
4

>  <REMARK>
 VINA RESULT:      -7.5      2.292      3.097
  Name = 
  7 active torsions:
  status: ('A' for Active; 'I' for Inactive)
    1  A    between atoms: N_1  and  C_37
    2  A    between atoms: C_13  and  C_17
    3  A    between atoms: C_13  and  C_35
    4  A    between atoms: C_15  and  N_16
    5  A    between atoms: C_15  and  C_22
    6  A    between atoms: C_22  and  C_35
    7  A    between atoms: C_26  and  C_37
                            x       y       z     vdW  Elec       q    Type
                         _______ _______ _______ _____ _____    ______ ____

>  <TORSDO>
F 7

$$$$
=
 OpenBabel11062419363D

 42 48  0  0  1  0  0  0  0  0999 V2000
  190.7040  175.5240  144.9350 N   0  0  0  0  0  0  0  0  0  0  0  0
  188.9420  174.9860  146.7040 C   0  0  2  0  0  3  0  0  0  0  0  0
  191.2510  175.2910  147.2060 O   0  0  0  0  0  0  0  0  0  0  0  0
  184.5440  178.0550  142.3930 N   0  0  0  0  0  0  0  0  0  0  0  0
  188.4870  176.3040  144.0930 C   0  0  0  0  0  0  0  0  0  0  0  0
  189.6900  175.7360  143.9180 C   0  0  1  0  0  3  0  0  0  0  0  0
  186.9210  176.9280  139.9500 N   0  0  0  0  0  0  0  0  0  0  0  0
  184.9000  177.9160  140.9860 C   0  0  0  0  0  3  0  0  0  0  0  0
  186.2500  177.2640  141.0100 C   0  0  0  0  0  0  0  0  0  0  0  0
  188.8660  174.5400  148.0260 O   0  0  0  0  0  1  0  0  0  0  0  0
  189.9320  175.5530  142.4860 C   0  0  0  0  0  3  0  0  0  0  0  0
  185.5060  177.4800  144.4460 O   0  0  0  0  0  0  0  0  0  0  0  0
  186.7100  177.0440  142.3870 C   0  0  1  0  0  3  0  0  0  0  0  0
  190.3590  175.2650  146.3130 C   0  0  0  0  0  0  0  0  0  0  0  0
  187.8990  176.5110  142.7570 C   0  0  0  0  0  0  0  0  0  0  0  0
  188.8890  176.0030  141.8090 C   0  0  0  0  0  3  0  0  0  0  0  0
  185.5960  177.5360  143.1950 C   0  0  0  0  0  0  0  0  0  0  0  0
  188.1390  176.2290  146.5510 C   0  0  0  0  0  3  0  0  0  0  0  0
  187.9310  176.7980  145.3660 C   0  0  0  0  0  3  0  0  0  0  0  0
  192.8920  176.7590  145.1030 C   0  0  1  0  0  3  0  0  0  0  0  0
  192.5360  176.6680  143.6280 C   0  0  0  0  0  2  0  0  0  0  0  0
  192.1330  175.5430  144.5640 C   0  0  2  0  0  0  0  0  0  0  0  0
  194.3830  176.5170  145.2700 C   0  0  0  0  0  1  0  0  0  0  0  0
  191.9720  173.0100  144.4630 C   0  0  0  0  0  2  0  0  0  0  0  0
  193.3650  173.9260  142.6350 S   0  0  0  0  0  0  0  0  0  0  0  0
  192.8890  174.2130  144.3670 C   0  0  1  0  0  3  0  0  0  0  0  0
  192.2230  172.5680  143.0380 C   0  0  0  0  0  2  0  0  0  0  0  0
  186.4570  177.1650  138.5880 C   0  0  0  0  0  2  0  0  0  0  0  0
  186.9580  176.0730  137.6500 C   0  0  0  0  0  2  0  0  0  0  0  0
  187.6580  174.9540  138.4140 C   0  0  0  0  0  2  0  0  0  0  0  0
  188.5670  174.1250  137.5150 C   0  0  0  0  0  2  0  0  0  0  0  0
  189.2010  172.8030  139.5650 C   0  0  0  0  0  2  0  0  0  0  0  0
  191.5860  172.2700  139.0970 C   0  0  0  0  0  2  0  0  0  0  0  0
  191.1790  171.8650  137.7010 C   0  0  1  0  0  3  0  0  0  0  0  0
  193.3010  171.0700  137.2230 O   0  0  0  0  0  0  0  0  0  0  0  0
  189.4840  171.5340  135.9920 C   0  0  0  0  0  3  0  0  0  0  0  0
  188.8060  172.7280  138.0860 C   0  0  2  0  0  3  0  0  0  0  0  0
  190.4410  170.9180  135.1880 C   0  0  0  0  0  3  0  0  0  0  0  0
  191.7190  170.7820  135.6310 N   0  0  0  0  0  0  0  0  0  0  0  0
  190.6360  173.2940  139.7080 C   0  0  0  0  0  2  0  0  0  0  0  0
  192.1070  171.2320  136.8550 C   0  0  0  0  0  0  0  0  0  0  0  0
  189.8430  172.0060  137.2600 C   0  0  0  0  0  0  0  0  0  0  0  0
  1 14  1  0  0  0  0
  2 10  1  1  0  0  0
  4 17  1  0  0  0  0
  5 19  1  0  0  0  0
  6 11  1  6  0  0  0
  6  5  1  0  0  0  0
  6  1  1  0  0  0  0
  7  9  2  0  0  0  0
  8  9  1  0  0  0  0
  8  4  2  0  0  0  0
  9 13  1  0  0  0  0
 13 15  1  1  0  0  0
 13 17  1  0  0  0  0
 14  2  1  0  0  0  0
 14  3  2  0  0  0  0
 15  5  2  0  0  0  0
 16 11  2  0  0  0  0
 16 15  1  0  0  0  0
 17 12  2  0  0  0  0
 18  2  1  0  0  0  0
 19 18  2  0  0  0  0
 20 23  1  6  0  0  0
 21 20  1  0  0  0  0
 22 21  1  6  0  0  0
 22  1  1  0  0  0  0
 22 20  1  0  0  0  0
 25 27  1  0  0  0  0
 25 26  1  0  0  0  0
 26 24  1  6  0  0  0
 26 22  1  0  0  0  0
 27 24  1  0  0  0  0
 28  7  1  0  0  0  0
 29 30  1  0  0  0  0
 29 28  1  0  0  0  0
 31 30  1  0  0  0  0
 32 40  1  0  0  0  0
 33 40  1  0  0  0  0
 34 33  1  1  0  0  0
 36 42  2  0  0  0  0
 37 31  1  6  0  0  0
 37 32  1  0  0  0  0
 38 39  2  0  0  0  0
 38 36  1  0  0  0  0
 39 41  1  0  0  0  0
 41 35  2  0  0  0  0
 41 34  1  0  0  0  0
 42 34  1  0  0  0  0
 42 37  1  0  0  0  0
M  END
>  <MODEL>
5

>  <REMARK>
 VINA RESULT:      -7.5      2.395      8.173
  Name = 
  7 active torsions:
  status: ('A' for Active; 'I' for Inactive)
    1  A    between atoms: N_1  and  C_37
    2  A    between atoms: C_13  and  C_17
    3  A    between atoms: C_13  and  C_35
    4  A    between atoms: C_15  and  N_16
    5  A    between atoms: C_15  and  C_22
    6  A    between atoms: C_22  and  C_35
    7  A    between atoms: C_26  and  C_37
                            x       y       z     vdW  Elec       q    Type
                         _______ _______ _______ _____ _____    ______ ____

>  <TORSDO>
F 7

$$$$
=
 OpenBabel11062419363D

 42 48  0  0  1  0  0  0  0  0999 V2000
  193.3070  172.8150  140.4020 N   0  0  0  0  0  0  0  0  0  0  0  0
  195.7880  173.3440  140.1080 C   0  0  2  0  0  3  0  0  0  0  0  0
  194.3650  172.6940  138.3100 O   0  0  0  0  0  0  0  0  0  0  0  0
  194.9740  177.3600  145.6350 N   0  0  0  0  0  0  0  0  0  0  0  0
  194.0060  174.3440  142.2480 C   0  0  0  0  0  0  0  0  0  0  0  0
  193.3160  173.2960  141.7730 C   0  0  0  0  0  0  0  0  0  0  0  0
  192.3810  174.9870  146.3650 N   0  0  0  0  0  0  0  0  0  0  0  0
  193.9620  176.8840  146.5680 C   0  0  0  0  0  3  0  0  0  0  0  0
  193.3240  175.7250  145.8610 C   0  0  0  0  0  0  0  0  0  0  0  0
  196.8080  173.1650  139.1680 O   0  0  0  0  0  1  0  0  0  0  0  0
  192.3860  172.8260  142.7990 C   0  0  0  0  0  3  0  0  0  0  0  0
  195.7640  176.7250  143.5270 O   0  0  0  0  0  0  0  0  0  0  0  0
  193.9100  175.5270  144.5300 C   0  0  0  0  0  0  0  0  0  0  0  0
  194.4650  172.9280  139.5470 C   0  0  0  0  0  0  0  0  0  0  0  0
  193.5360  174.5920  143.6240 C   0  0  0  0  0  0  0  0  0  0  0  0
  192.5140  173.5790  143.8780 C   0  0  0  0  0  3  0  0  0  0  0  0
  194.9420  176.5590  144.4620 C   0  0  0  0  0  0  0  0  0  0  0  0
  195.7230  174.7750  140.5050 C   0  0  0  0  0  3  0  0  0  0  0  0
  194.9270  175.2040  141.4820 C   0  0  0  0  0  3  0  0  0  0  0  0
  191.3900  172.9880  138.7790 C   0  0  1  0  0  3  0  0  0  0  0  0
  190.7940  172.8760  140.1740 C   0  0  0  0  0  2  0  0  0  0  0  0
  192.0970  172.1650  139.8600 C   0  0  2  0  0  0  0  0  0  0  0  0
  190.5670  172.1450  137.8180 C   0  0  0  0  0  1  0  0  0  0  0  0
  193.2310  169.9630  140.4250 C   0  0  0  0  0  2  0  0  0  0  0  0
  190.8230  169.9420  140.9940 S   0  0  0  0  0  0  0  0  0  0  0  0
  192.0170  170.6260  139.8050 C   0  0  1  0  0  3  0  0  0  0  0  0
  192.4350  169.2770  141.5150 C   0  0  0  0  0  2  0  0  0  0  0  0
  191.7990  175.2050  147.6840 C   0  0  0  0  0  2  0  0  0  0  0  0
  190.4950  175.9870  147.5750 C   0  0  0  0  0  2  0  0  0  0  0  0
  189.3180  175.0720  147.2550 C   0  0  0  0  0  2  0  0  0  0  0  0
  188.5460  175.5380  146.0260 C   0  0  0  0  0  2  0  0  0  0  0  0
  187.2020  177.5030  146.8520 C   0  0  0  0  0  2  0  0  0  0  0  0
  185.7910  178.0130  144.8670 C   0  0  0  0  0  2  0  0  0  0  0  0
  187.0300  177.9060  144.0110 C   0  0  1  0  0  3  0  0  0  0  0  0
  185.8950  178.6410  142.1300 O   0  0  0  0  0  0  0  0  0  0  0  0
  189.4190  177.5370  143.7640 C   0  0  0  0  0  3  0  0  0  0  0  0
  188.3930  177.0580  145.9970 C   0  0  2  0  0  3  0  0  0  0  0  0
  189.3200  177.9170  142.4260 C   0  0  0  0  0  3  0  0  0  0  0  0
  188.1170  178.2780  141.9060 N   0  0  0  0  0  0  0  0  0  0  0  0
  185.8910  177.1860  146.1440 C   0  0  0  0  0  2  0  0  0  0  0  0
  186.9830  178.2860  142.6580 C   0  0  0  0  0  0  0  0  0  0  0  0
  188.2740  177.5350  144.5700 C   0  0  0  0  0  0  0  0  0  0  0  0
  1  6  1  0  0  0  0
  2 10  1  6  0  0  0
  2 18  1  0  0  0  0
  3 14  2  0  0  0  0
  4  8  2  0  0  0  0
  5 15  1  0  0  0  0
  6  5  2  0  0  0  0
  6 11  1  0  0  0  0
  7 28  1  0  0  0  0
  9  7  2  0  0  0  0
  9  8  1  0  0  0  0
 11 16  2  0  0  0  0
 12 17  2  0  0  0  0
 13  9  1  0  0  0  0
 14  2  1  0  0  0  0
 14  1  1  0  0  0  0
 15 16  1  0  0  0  0
 15 13  2  0  0  0  0
 17 13  1  0  0  0  0
 17  4  1  0  0  0  0
 18 19  2  0  0  0  0
 19  5  1  0  0  0  0
 20 23  1  6  0  0  0
 20 22  1  0  0  0  0
 20 21  1  0  0  0  0
 22 21  1  1  0  0  0
 22  1  1  0  0  0  0
 24 27  1  0  0  0  0
 25 27  1  0  0  0  0
 26 22  1  0  0  0  0
 26 24  1  1  0  0  0
 26 25  1  0  0  0  0
 29 28  1  0  0  0  0
 30 29  1  0  0  0  0
 31 30  1  0  0  0  0
 33 40  1  0  0  0  0
 34 42  1  0  0  0  0
 34 33  1  1  0  0  0
 35 41  2  0  0  0  0
 36 42  2  0  0  0  0
 37 31  1  6  0  0  0
 37 32  1  0  0  0  0
 38 36  1  0  0  0  0
 39 38  2  0  0  0  0
 39 41  1  0  0  0  0
 40 32  1  0  0  0  0
 41 34  1  0  0  0  0
 42 37  1  0  0  0  0
M  END
>  <MODEL>
6

>  <REMARK>
 VINA RESULT:      -7.5      2.598      3.471
  Name = 
  7 active torsions:
  status: ('A' for Active; 'I' for Inactive)
    1  A    between atoms: N_1  and  C_37
    2  A    between atoms: C_13  and  C_17
    3  A    between atoms: C_13  and  C_35
    4  A    between atoms: C_15  and  N_16
    5  A    between atoms: C_15  and  C_22
    6  A    between atoms: C_22  and  C_35
    7  A    between atoms: C_26  and  C_37
                            x       y       z     vdW  Elec       q    Type
                         _______ _______ _______ _____ _____    ______ ____

>  <TORSDO>
F 7

$$$$
=
 OpenBabel11062419363D

 42 48  0  0  1  0  0  0  0  0999 V2000
  195.1390  174.0120  142.9470 N   0  0  0  0  0  0  0  0  0  0  0  0
  196.0500  174.2400  140.5720 C   0  0  2  0  0  3  0  0  0  0  0  0
  197.3730  173.5190  142.4190 O   0  0  0  0  0  0  0  0  0  0  0  0
  189.5540  173.0990  138.6140 N   0  0  0  0  0  0  0  0  0  0  0  0
  193.2310  173.7880  141.3530 C   0  0  0  0  0  0  0  0  0  0  0  0
  193.7750  174.2270  142.4980 C   0  0  1  0  0  3  0  0  0  0  0  0
  188.8520  174.5700  141.8130 N   0  0  0  0  0  0  0  0  0  0  0  0
  188.5570  173.5880  139.5580 C   0  0  0  0  0  3  0  0  0  0  0  0
  189.3580  174.0320  140.7450 C   0  0  0  0  0  0  0  0  0  0  0  0
  197.2780  174.2970  139.9060 O   0  0  0  0  0  1  0  0  0  0  0  0
  192.7220  174.7790  143.3510 C   0  0  0  0  0  3  0  0  0  0  0  0
  191.8860  172.9400  138.5480 O   0  0  0  0  0  0  0  0  0  0  0  0
  190.7920  173.7920  140.5380 C   0  0  1  0  0  3  0  0  0  0  0  0
  196.2400  173.9090  142.0190 C   0  0  0  0  0  0  0  0  0  0  0  0
  191.7820  174.0450  141.4280 C   0  0  0  0  0  0  0  0  0  0  0  0
  191.5610  174.6740  142.7280 C   0  0  0  0  0  3  0  0  0  0  0  0
  190.8460  173.2330  139.1890 C   0  0  0  0  0  0  0  0  0  0  0  0
  195.1910  173.2020  139.9430 C   0  0  0  0  0  3  0  0  0  0  0  0
  193.9200  173.0250  140.2960 C   0  0  0  0  0  3  0  0  0  0  0  0
  195.9690  172.5550  144.8250 C   0  0  1  0  0  3  0  0  0  0  0  0
  194.5450  172.9640  145.1660 C   0  0  0  0  0  2  0  0  0  0  0  0
  195.4320  173.9220  144.3920 C   0  0  2  0  0  0  0  0  0  0  0  0
  196.8160  172.6100  146.0870 C   0  0  0  0  0  1  0  0  0  0  0  0
  195.9660  176.4030  144.2660 C   0  0  0  0  0  2  0  0  0  0  0  0
  194.5660  175.8520  146.2310 S   0  0  0  0  0  0  0  0  0  0  0  0
  195.8770  175.1830  145.1610 C   0  0  1  0  0  3  0  0  0  0  0  0
  194.8930  177.1650  145.0140 C   0  0  0  0  0  2  0  0  0  0  0  0
  187.4240  174.7900  142.0100 C   0  0  0  0  0  2  0  0  0  0  0  0
  187.1100  176.2810  142.0590 C   0  0  0  0  0  2  0  0  0  0  0  0
  185.8970  176.5700  142.9370 C   0  0  0  0  0  2  0  0  0  0  0  0
  186.2290  177.5220  144.0790 C   0  0  0  0  0  2  0  0  0  0  0  0
  185.2670  177.3250  146.4000 C   0  0  0  0  0  2  0  0  0  0  0  0
  186.9570  178.5580  147.7480 C   0  0  0  0  0  2  0  0  0  0  0  0
  188.0350  177.7950  147.0180 C   0  0  1  0  0  3  0  0  0  0  0  0
  189.6900  178.6590  148.3880 O   0  0  0  0  0  0  0  0  0  0  0  0
  188.7320  176.1390  145.3820 C   0  0  0  0  0  3  0  0  0  0  0  0
  186.3150  176.7910  145.4190 C   0  0  2  0  0  3  0  0  0  0  0  0
  190.0430  176.2670  145.8390 C   0  0  0  0  0  3  0  0  0  0  0  0
  190.3330  177.1290  146.8500 N   0  0  0  0  0  0  0  0  0  0  0  0
  185.6790  178.6940  146.9270 C   0  0  0  0  0  2  0  0  0  0  0  0
  189.3710  177.8850  147.4470 C   0  0  0  0  0  0  0  0  0  0  0  0
  187.7150  176.8980  145.9730 C   0  0  0  0  0  0  0  0  0  0  0  0
  2 10  1  6  0  0  0
  2 14  1  0  0  0  0
  4 17  1  0  0  0  0
  4  8  2  0  0  0  0
  5 15  2  0  0  0  0
  5  6  1  0  0  0  0
  6  1  1  0  0  0  0
  6 11  1  1  0  0  0
  7 28  1  0  0  0  0
  8  9  1  0  0  0  0
  9  7  2  0  0  0  0
 12 17  2  0  0  0  0
 13  9  1  0  0  0  0
 13 15  1  1  0  0  0
 14  3  2  0  0  0  0
 14  1  1  0  0  0  0
 15 16  1  0  0  0  0
 16 11  2  0  0  0  0
 17 13  1  0  0  0  0
 18 19  2  0  0  0  0
 18  2  1  0  0  0  0
 19  5  1  0  0  0  0
 20 21  1  0  0  0  0
 20 23  1  1  0  0  0
 22  1  1  6  0  0  0
 22 20  1  0  0  0  0
 22 26  1  0  0  0  0
 22 21  1  0  0  0  0
 24 27  1  0  0  0  0
 26 24  1  6  0  0  0
 26 25  1  0  0  0  0
 27 25  1  0  0  0  0
 28 29  1  0  0  0  0
 29 30  1  0  0  0  0
 30 31  1  0  0  0  0
 32 40  1  0  0  0  0
 34 41  1  0  0  0  0
 34 33  1  1  0  0  0
 36 38  1  0  0  0  0
 36 42  2  0  0  0  0
 37 31  1  6  0  0  0
 37 42  1  0  0  0  0
 37 32  1  0  0  0  0
 38 39  2  0  0  0  0
 39 41  1  0  0  0  0
 40 33  1  0  0  0  0
 41 35  2  0  0  0  0
 42 34  1  0  0  0  0
M  END
>  <MODEL>
7

>  <REMARK>
 VINA RESULT:      -7.5      3.359      6.312
  Name = 
  7 active torsions:
  status: ('A' for Active; 'I' for Inactive)
    1  A    between atoms: N_1  and  C_37
    2  A    between atoms: C_13  and  C_17
    3  A    between atoms: C_13  and  C_35
    4  A    between atoms: C_15  and  N_16
    5  A    between atoms: C_15  and  C_22
    6  A    between atoms: C_22  and  C_35
    7  A    between atoms: C_26  and  C_37
                            x       y       z     vdW  Elec       q    Type
                         _______ _______ _______ _____ _____    ______ ____

>  <TORSDO>
F 7

$$$$
=
 OpenBabel11062419363D

 42 48  0  0  1  0  0  0  0  0999 V2000
  193.4950  173.2130  140.2570 N   0  0  0  0  0  0  0  0  0  0  0  0
  196.0180  173.6040  140.2080 C   0  0  2  0  0  3  0  0  0  0  0  0
  194.7270  173.1410  138.2600 O   0  0  0  0  0  0  0  0  0  0  0  0
  194.9400  177.3570  145.8740 N   0  0  0  0  0  0  0  0  0  0  0  0
  194.1110  174.5940  142.2430 C   0  0  0  0  0  0  0  0  0  0  0  0
  193.4090  173.6170  141.6490 C   0  0  0  0  0  0  0  0  0  0  0  0
  192.1640  175.1100  146.2370 N   0  0  0  0  0  0  0  0  0  0  0  0
  193.8230  176.8930  146.6870 C   0  0  0  0  0  3  0  0  0  0  0  0
  193.1870  175.8160  145.8610 C   0  0  0  0  0  0  0  0  0  0  0  0
  197.1060  173.4160  139.3510 O   0  0  0  0  0  1  0  0  0  0  0  0
  192.3650  173.1490  142.5620 C   0  0  0  0  0  3  0  0  0  0  0  0
  195.8770  176.7900  143.8080 O   0  0  0  0  0  0  0  0  0  0  0  0
  193.8780  175.6540  144.5750 C   0  0  0  0  0  0  0  0  0  0  0  0
  194.7290  173.3010  139.5120 C   0  0  0  0  0  0  0  0  0  0  0  0
  193.5350  174.7950  143.5860 C   0  0  0  0  0  0  0  0  0  0  0  0
  192.4390  173.8340  143.6910 C   0  0  0  0  0  3  0  0  0  0  0  0
  194.9680  176.6240  144.6570 C   0  0  0  0  0  0  0  0  0  0  0  0
  195.9970  175.0140  140.6830 C   0  0  0  0  0  3  0  0  0  0  0  0
  195.1420  175.4360  141.6120 C   0  0  0  0  0  3  0  0  0  0  0  0
  191.7220  173.6050  138.5130 C   0  0  1  0  0  3  0  0  0  0  0  0
  191.0130  173.4180  139.8450 C   0  0  0  0  0  2  0  0  0  0  0  0
  192.3040  172.6680  139.5750 C   0  0  2  0  0  0  0  0  0  0  0  0
  190.9400  172.8800  137.4280 C   0  0  0  0  0  1  0  0  0  0  0  0
  193.2710  170.3720  140.0760 C   0  0  0  0  0  2  0  0  0  0  0  0
  190.8180  170.4390  140.3990 S   0  0  0  0  0  0  0  0  0  0  0  0
  192.1590  171.1430  139.3920 C   0  0  1  0  0  3  0  0  0  0  0  0
  192.3360  169.6530  141.0240 C   0  0  0  0  0  2  0  0  0  0  0  0
  191.4790  175.2910  147.5120 C   0  0  0  0  0  2  0  0  0  0  0  0
  190.0520  175.7790  147.2930 C   0  0  0  0  0  2  0  0  0  0  0  0
  190.0160  177.2580  146.9210 C   0  0  0  0  0  2  0  0  0  0  0  0
  189.7070  177.4720  145.4450 C   0  0  0  0  0  2  0  0  0  0  0  0
  189.0970  175.4400  144.0830 C   0  0  0  0  0  2  0  0  0  0  0  0
  188.2260  176.4810  141.9970 C   0  0  0  0  0  2  0  0  0  0  0  0
  187.4140  177.4210  142.8540 C   0  0  1  0  0  3  0  0  0  0  0  0
  186.3180  178.2910  141.0090 O   0  0  0  0  0  0  0  0  0  0  0  0
  186.6830  178.2210  145.0290 C   0  0  0  0  0  3  0  0  0  0  0  0
  188.5670  176.5720  144.9690 C   0  0  2  0  0  3  0  0  0  0  0  0
  185.7490  179.0380  144.3940 C   0  0  0  0  0  3  0  0  0  0  0  0
  185.6550  179.0420  143.0380 N   0  0  0  0  0  0  0  0  0  0  0  0
  189.4760  175.9760  142.7080 C   0  0  0  0  0  2  0  0  0  0  0  0
  186.4530  178.2590  142.2610 C   0  0  0  0  0  0  0  0  0  0  0  0
  187.5190  177.3990  144.2640 C   0  0  0  0  0  0  0  0  0  0  0  0
  1  6  1  0  0  0  0
  2 10  1  6  0  0  0
  2 18  1  0  0  0  0
  3 14  2  0  0  0  0
  4  8  2  0  0  0  0
  5 15  1  0  0  0  0
  6  5  2  0  0  0  0
  6 11  1  0  0  0  0
  7 28  1  0  0  0  0
  9  7  2  0  0  0  0
  9  8  1  0  0  0  0
 11 16  2  0  0  0  0
 12 17  2  0  0  0  0
 13 17  1  0  0  0  0
 13  9  1  0  0  0  0
 14  2  1  0  0  0  0
 14  1  1  0  0  0  0
 15 16  1  0  0  0  0
 15 13  2  0  0  0  0
 17  4  1  0  0  0  0
 18 19  2  0  0  0  0
 19  5  1  0  0  0  0
 20 23  1  6  0  0  0
 20 22  1  0  0  0  0
 20 21  1  0  0  0  0
 22 21  1  1  0  0  0
 22  1  1  0  0  0  0
 24 27  1  0  0  0  0
 25 27  1  0  0  0  0
 26 22  1  0  0  0  0
 26 24  1  1  0  0  0
 26 25  1  0  0  0  0
 29 28  1  0  0  0  0
 30 29  1  0  0  0  0
 31 30  1  0  0  0  0
 32 37  1  0  0  0  0
 33 40  1  0  0  0  0
 34 33  1  1  0  0  0
 34 42  1  0  0  0  0
 35 41  2  0  0  0  0
 37 31  1  6  0  0  0
 38 36  1  0  0  0  0
 39 38  2  0  0  0  0
 40 32  1  0  0  0  0
 41 34  1  0  0  0  0
 41 39  1  0  0  0  0
 42 37  1  0  0  0  0
 42 36  2  0  0  0  0
M  END
>  <MODEL>
8

>  <REMARK>
 VINA RESULT:      -7.4      2.635      3.774
  Name = 
  7 active torsions:
  status: ('A' for Active; 'I' for Inactive)
    1  A    between atoms: N_1  and  C_37
    2  A    between atoms: C_13  and  C_17
    3  A    between atoms: C_13  and  C_35
    4  A    between atoms: C_15  and  N_16
    5  A    between atoms: C_15  and  C_22
    6  A    between atoms: C_22  and  C_35
    7  A    between atoms: C_26  and  C_37
                            x       y       z     vdW  Elec       q    Type
                         _______ _______ _______ _____ _____    ______ ____

>  <TORSDO>
F 7

$$$$
=
 OpenBabel11062419363D

 42 48  0  0  1  0  0  0  0  0999 V2000
  188.8810  175.8000  144.4090 N   0  0  0  0  0  0  0  0  0  0  0  0
  186.7110  176.0120  143.0790 C   0  0  2  0  0  3  0  0  0  0  0  0
  187.5590  177.7390  144.4850 O   0  0  0  0  0  0  0  0  0  0  0  0
  189.6150  171.5000  138.7710 N   0  0  0  0  0  0  0  0  0  0  0  0
  189.0120  174.2600  142.4480 C   0  0  0  0  0  0  0  0  0  0  0  0
  189.2300  174.5600  143.7370 C   0  0  1  0  0  3  0  0  0  0  0  0
  191.3250  170.4940  141.7630 N   0  0  0  0  0  0  0  0  0  0  0  0
  190.5280  170.5670  139.4180 C   0  0  0  0  0  3  0  0  0  0  0  0
  190.6280  171.0670  140.8280 C   0  0  0  0  0  0  0  0  0  0  0  0
  185.5690  176.8170  143.0300 O   0  0  0  0  0  1  0  0  0  0  0  0
  190.0820  173.5310  144.3350 C   0  0  0  0  0  3  0  0  0  0  0  0
  188.3660  173.3690  139.4180 O   0  0  0  0  0  0  0  0  0  0  0  0
  189.8260  172.2820  141.0200 C   0  0  1  0  0  3  0  0  0  0  0  0
  187.7210  176.5720  144.0300 C   0  0  0  0  0  0  0  0  0  0  0  0
  189.7280  173.0030  142.1630 C   0  0  0  0  0  0  0  0  0  0  0  0
  190.3710  172.6230  143.4180 C   0  0  0  0  0  3  0  0  0  0  0  0
  189.2060  172.4840  139.7120 C   0  0  0  0  0  0  0  0  0  0  0  0
  187.3140  175.9220  141.7220 C   0  0  0  0  0  3  0  0  0  0  0  0
  188.3390  175.1150  141.4540 C   0  0  0  0  0  3  0  0  0  0  0  0
  189.6130  175.4140  146.7870 C   0  0  1  0  0  3  0  0  0  0  0  0
  188.9270  176.7690  146.7390 C   0  0  0  0  0  2  0  0  0  0  0  0
  189.7090  176.2860  145.5310 C   0  0  2  0  0  0  0  0  0  0  0  0
  190.8370  175.5080  147.6840 C   0  0  0  0  0  1  0  0  0  0  0  0
  192.0230  176.1950  144.4890 C   0  0  0  0  0  2  0  0  0  0  0  0
  190.8340  178.2920  143.9300 S   0  0  0  0  0  0  0  0  0  0  0  0
  191.0190  177.0450  145.2420 C   0  0  1  0  0  3  0  0  0  0  0  0
  192.0400  177.0980  143.2740 C   0  0  0  0  0  2  0  0  0  0  0  0
  192.1270  169.2940  141.5540 C   0  0  0  0  0  2  0  0  0  0  0  0
  193.2090  169.1770  142.6210 C   0  0  0  0  0  2  0  0  0  0  0  0
  192.6920  169.6000  143.9920 C   0  0  0  0  0  2  0  0  0  0  0  0
  193.4770  170.7740  144.5650 C   0  0  0  0  0  2  0  0  0  0  0  0
  195.9870  170.5610  144.6490 C   0  0  0  0  0  2  0  0  0  0  0  0
  196.6700  172.9010  145.1510 C   0  0  0  0  0  2  0  0  0  0  0  0
  195.7170  173.3650  144.0780 C   0  0  1  0  0  3  0  0  0  0  0  0
  196.4610  175.5520  144.2470 O   0  0  0  0  0  0  0  0  0  0  0  0
  194.0870  172.9040  142.3360 C   0  0  0  0  0  3  0  0  0  0  0  0
  194.7850  171.0030  143.8080 C   0  0  2  0  0  3  0  0  0  0  0  0
  194.1230  174.2490  141.9710 C   0  0  0  0  0  3  0  0  0  0  0  0
  194.9300  175.1160  142.6380 N   0  0  0  0  0  0  0  0  0  0  0  0
  196.2560  171.5660  145.7620 C   0  0  0  0  0  2  0  0  0  0  0  0
  195.7220  174.7110  143.6690 C   0  0  0  0  0  0  0  0  0  0  0  0
  194.8900  172.4490  143.3880 C   0  0  0  0  0  0  0  0  0  0  0  0
  2 10  1  6  0  0  0
  2 14  1  0  0  0  0
  4  8  2  0  0  0  0
  4 17  1  0  0  0  0
  5  6  1  0  0  0  0
  6 11  1  6  0  0  0
  6  1  1  0  0  0  0
  8  9  1  0  0  0  0
  9 13  1  0  0  0  0
  9  7  2  0  0  0  0
 12 17  2  0  0  0  0
 13 15  1  6  0  0  0
 14  1  1  0  0  0  0
 14  3  2  0  0  0  0
 15  5  2  0  0  0  0
 15 16  1  0  0  0  0
 16 11  2  0  0  0  0
 17 13  1  0  0  0  0
 18  2  1  0  0  0  0
 19 18  2  0  0  0  0
 19  5  1  0  0  0  0
 20 23  1  1  0  0  0
 21 20  1  0  0  0  0
 22  1  1  6  0  0  0
 22 21  1  0  0  0  0
 22 20  1  0  0  0  0
 25 26  1  0  0  0  0
 26 24  1  6  0  0  0
 26 22  1  0  0  0  0
 27 25  1  0  0  0  0
 27 24  1  0  0  0  0
 28  7  1  0  0  0  0
 28 29  1  0  0  0  0
 29 30  1  0  0  0  0
 30 31  1  0  0  0  0
 32 40  1  0  0  0  0
 33 40  1  0  0  0  0
 34 33  1  6  0  0  0
 36 42  2  0  0  0  0
 37 31  1  1  0  0  0
 37 32  1  0  0  0  0
 38 36  1  0  0  0  0
 38 39  2  0  0  0  0
 39 41  1  0  0  0  0
 41 34  1  0  0  0  0
 41 35  2  0  0  0  0
 42 37  1  0  0  0  0
 42 34  1  0  0  0  0
M  END
>  <MODEL>
9

>  <REMARK>
 VINA RESULT:      -7.4      3.004      8.713
  Name = 
  7 active torsions:
  status: ('A' for Active; 'I' for Inactive)
    1  A    between atoms: N_1  and  C_37
    2  A    between atoms: C_13  and  C_17
    3  A    between atoms: C_13  and  C_35
    4  A    between atoms: C_15  and  N_16
    5  A    between atoms: C_15  and  C_22
    6  A    between atoms: C_22  and  C_35
    7  A    between atoms: C_26  and  C_37
                            x       y       z     vdW  Elec       q    Type
                         _______ _______ _______ _____ _____    ______ ____

>  <TORSDO>
F 7

$$$$
