=
 OpenBabel11062421223D

 51 56  0  0  1  0  0  0  0  0999 V2000
  188.1170  173.1690  141.5250 C   0  0  1  0  0  3  0  0  0  0  0  0
  188.8100  173.5340  140.2360 C   0  0  0  0  0  3  0  0  0  0  0  0
  191.9020  171.6800  140.6380 N   0  0  0  0  0  0  0  0  0  0  0  0
  191.2480  172.4780  136.4290 C   0  0  1  0  0  3  0  0  0  0  0  0
  192.6010  171.6360  139.3830 C   0  0  0  0  0  0  0  0  0  0  0  0
  190.2260  172.1240  142.2250 N   0  0  0  0  0  0  0  0  0  0  0  0
  190.6100  173.4080  138.6060 C   0  0  0  0  0  2  0  0  0  0  0  0
  193.8580  171.5760  139.4090 O   0  0  0  0  0  0  0  0  0  0  0  0
  192.5920  171.8270  136.7740 C   0  0  2  0  0  3  0  0  0  0  0  0
  190.7440  172.2170  140.8940 C   0  0  0  0  0  0  0  0  0  0  0  0
  190.6730  172.2070  137.7660 N   0  0  2  0  0  0  0  0  0  0  0  0
  191.8790  171.4080  138.0580 C   0  0  2  0  0  3  0  0  0  0  0  0
  190.0090  173.0480  139.9140 C   0  0  0  0  0  0  0  0  0  0  0  0
  189.0510  172.5780  142.5470 C   0  0  0  0  0  3  0  0  0  0  0  0
  189.3180  175.7270  142.0440 O   0  0  0  0  0  0  0  0  0  0  0  0
  187.4440  174.3280  142.0920 N   0  0  0  0  0  2  0  0  0  0  0  0
  188.0940  175.5840  142.3080 C   0  0  0  0  0  0  0  0  0  0  0  0
  187.2960  176.7430  142.8180 C   0  0  0  0  0  2  0  0  0  0  0  0
  187.9960  177.3800  145.1810 C   0  0  1  0  0  3  0  0  0  0  0  0
  185.2580  176.9890  146.1240 C   0  0  2  0  0  3  0  0  0  0  0  0
  186.9680  176.6280  144.3090 C   0  0  1  0  0  3  0  0  0  0  0  0
  187.4500  178.0120  146.3300 O   0  0  0  0  0  0  0  0  0  0  0  0
  184.2640  178.0650  146.5160 C   0  0  0  0  0  1  0  0  0  0  0  0
  186.5370  177.1380  146.9560 C   0  0  0  0  0  2  0  0  0  0  0  0
  185.5440  177.0840  144.6230 C   0  0  0  0  0  2  0  0  0  0  0  0
  190.7870  178.1470  144.4680 C   0  0  0  0  0  1  0  0  0  0  0  0
  190.4630  176.7960  144.9000 N   0  0  0  0  0  0  0  0  0  0  0  0
  189.1870  176.5270  145.5080 C   0  0  0  0  0  0  0  0  0  0  0  0
  189.0580  175.5660  146.3150 O   0  0  0  0  0  0  0  0  0  0  0  0
  192.4590  175.6690  145.9000 C   0  0  0  0  0  0  0  0  0  0  0  0
  191.4830  175.8290  144.8630 N   0  0  0  0  0  2  0  0  0  0  0  0
  192.3270  176.2640  147.0060 O   0  0  0  0  0  0  0  0  0  0  0  0
  195.0730  174.0850  144.0170 C   0  0  0  0  0  2  0  0  0  0  0  0
  193.6620  174.3130  144.2920 N   0  0  0  0  0  2  0  0  0  0  0  0
  195.8910  174.9120  144.9930 C   0  0  0  0  0  2  0  0  0  0  0  0
  193.6020  174.7350  145.6860 C   0  0  1  0  0  3  0  0  0  0  0  0
  194.9130  175.4140  146.0230 C   0  0  0  0  0  2  0  0  0  0  0  0
  191.3200  173.9050  136.0630 N   0  0  0  0  0  0  0  0  0  0  0  0
  191.9690  174.0010  134.7630 C   0  0  0  0  0  1  0  0  0  0  0  0
  189.9600  174.3600  135.8360 C   0  0  0  0  0  1  0  0  0  0  0  0
  193.5700  172.7980  137.0240 O   0  0  0  0  0  0  0  0  0  0  0  0
  194.6720  172.3380  136.3880 N   0  0  0  0  0  2  0  0  0  0  0  0
  195.7760  172.9850  136.9570 N   0  0  0  0  0  2  0  0  0  0  0  0
  195.3760  174.2900  137.2780 N   0  0  0  0  0  2  0  0  0  0  0  0
  196.3550  176.0610  140.9380 C   0  0  0  0  0  0  0  0  0  0  0  0
  196.6800  176.6220  142.1250 F   0  0  0  0  0  0  0  0  0  0  0  0
  197.0320  175.1090  138.8830 C   0  0  0  0  0  3  0  0  0  0  0  0
  194.7050  175.2900  139.4320 C   0  0  0  0  0  3  0  0  0  0  0  0
  195.6980  174.9020  138.5290 C   0  0  0  0  0  0  0  0  0  0  0  0
  197.3350  175.6820  140.0770 N   0  0  0  0  0  0  0  0  0  0  0  0
  195.0490  175.8620  140.6150 N   0  0  0  0  0  0  0  0  0  0  0  0
  1 16  1  1  0  0  0
  1 14  1  0  0  0  0
  2  1  1  0  0  0  0
  3 10  2  0  0  0  0
  4 38  1  1  0  0  0
  4  9  1  0  0  0  0
  4 11  1  0  0  0  0
  5  8  2  0  0  0  0
  5  3  1  0  0  0  0
  6 14  2  0  0  0  0
  7 13  1  0  0  0  0
  9 41  1  1  0  0  0
  9 12  1  0  0  0  0
 10  6  1  0  0  0  0
 11 12  1  0  0  0  0
 11  7  1  1  0  0  0
 12  5  1  1  0  0  0
 13  2  2  0  0  0  0
 13 10  1  0  0  0  0
 15 17  2  0  0  0  0
 16 17  1  0  0  0  0
 17 18  1  0  0  0  0
 19 28  1  1  0  0  0
 19 22  1  0  0  0  0
 20 23  1  1  0  0  0
 20 24  1  0  0  0  0
 21 18  1  6  0  0  0
 21 25  1  0  0  0  0
 21 19  1  0  0  0  0
 22 24  1  0  0  0  0
 25 20  1  0  0  0  0
 26 27  1  0  0  0  0
 27 28  1  0  0  0  0
 28 29  2  0  0  0  0
 30 32  2  0  0  0  0
 31 27  1  0  0  0  0
 31 30  1  0  0  0  0
 33 34  1  0  0  0  0
 33 35  1  0  0  0  0
 34 36  1  0  0  0  0
 35 37  1  0  0  0  0
 36 30  1  6  0  0  0
 36 37  1  0  0  0  0
 39 38  1  0  0  0  0
 40 38  1  0  0  0  0
 42 43  1  0  0  0  0
 42 41  1  0  0  0  0
 43 44  1  0  0  0  0
 44 49  1  0  0  0  0
 45 46  1  0  0  0  0
 47 50  1  0  0  0  0
 48 51  2  0  0  0  0
 49 47  2  0  0  0  0
 49 48  1  0  0  0  0
 50 45  2  0  0  0  0
 51 45  1  0  0  0  0
M  END
>  <MODEL>
1

>  <REMARK>
 VINA RESULT:      -7.2      0.000      0.000
  Name = 
  12 active torsions:
  status: ('A' for Active; 'I' for Inactive)
    1  A    between atoms: C_1  and  C_47
    2  A    between atoms: C_3  and  N_28
    3  A    between atoms: N_5  and  N_8
    4  A    between atoms: N_5  and  O_21
    5  A    between atoms: C_6  and  C_46
    6  A    between atoms: N_8  and  N_43
    7  A    between atoms: C_12  and  N_14
    8  A    between atoms: N_20  and  N_42
    9  A    between atoms: O_21  and  C_26
   10  A    between atoms: C_29  and  C_46
   11  A    between atoms: C_34  and  C_45
   12  A    between atoms: C_37  and  N_43
                            x       y       z     vdW  Elec       q    Type
                         _______ _______ _______ _____ _____    ______ ____

>  <TORSDO>
F 12

$$$$
=
 OpenBabel11062421223D

 51 56  0  0  1  0  0  0  0  0999 V2000
  191.7720  175.0370  146.5320 C   0  0  1  0  0  3  0  0  0  0  0  0
  192.3850  174.4480  145.2860 C   0  0  0  0  0  3  0  0  0  0  0  0
  195.3070  176.5720  144.9600 N   0  0  0  0  0  0  0  0  0  0  0  0
  195.9850  172.8630  142.8210 C   0  0  1  0  0  3  0  0  0  0  0  0
  196.2130  175.9970  144.0020 C   0  0  0  0  0  0  0  0  0  0  0  0
  193.4380  176.8320  146.3620 N   0  0  0  0  0  0  0  0  0  0  0  0
  194.1030  174.2410  143.5800 C   0  0  0  0  0  2  0  0  0  0  0  0
  196.9410  176.7780  143.3370 O   0  0  0  0  0  0  0  0  0  0  0  0
  197.0750  173.9280  142.6540 C   0  0  2  0  0  3  0  0  0  0  0  0
  194.1720  176.0930  145.3790 C   0  0  0  0  0  0  0  0  0  0  0  0
  195.3500  173.5660  143.9590 N   0  0  2  0  0  0  0  0  0  0  0  0
  196.4930  174.4980  143.9450 C   0  0  2  0  0  3  0  0  0  0  0  0
  193.5310  174.9010  144.7790 C   0  0  0  0  0  0  0  0  0  0  0  0
  192.3300  176.3920  146.8780 C   0  0  0  0  0  3  0  0  0  0  0  0
  190.3480  176.6470  144.6260 O   0  0  0  0  0  0  0  0  0  0  0  0
  190.3250  175.1240  146.4020 N   0  0  0  0  0  2  0  0  0  0  0  0
  189.6740  175.9310  145.4160 C   0  0  0  0  0  0  0  0  0  0  0  0
  188.1830  175.8900  145.3050 C   0  0  0  0  0  2  0  0  0  0  0  0
  186.8920  176.3550  143.1610 C   0  0  1  0  0  3  0  0  0  0  0  0
  186.1650  179.0090  144.1430 C   0  0  2  0  0  3  0  0  0  0  0  0
  187.6270  176.9690  144.3720 C   0  0  1  0  0  3  0  0  0  0  0  0
  185.7490  177.0790  142.7300 O   0  0  0  0  0  0  0  0  0  0  0  0
  184.8030  179.4600  144.6330 C   0  0  0  0  0  1  0  0  0  0  0  0
  186.0470  178.4590  142.7170 C   0  0  0  0  0  2  0  0  0  0  0  0
  186.7320  177.9640  145.1090 C   0  0  0  0  0  2  0  0  0  0  0  0
  187.5220  173.5730  142.2930 C   0  0  0  0  0  1  0  0  0  0  0  0
  188.3180  174.7030  141.8390 N   0  0  0  0  0  0  0  0  0  0  0  0
  187.8310  176.0440  142.0320 C   0  0  0  0  0  0  0  0  0  0  0  0
  188.1990  176.9700  141.2570 O   0  0  0  0  0  0  0  0  0  0  0  0
  189.4290  173.7930  139.7910 C   0  0  0  0  0  0  0  0  0  0  0  0
  189.4660  174.4360  141.0720 N   0  0  0  0  0  2  0  0  0  0  0  0
  188.3310  173.6140  139.1920 O   0  0  0  0  0  0  0  0  0  0  0  0
  191.6980  171.5500  138.1460 C   0  0  0  0  0  2  0  0  0  0  0  0
  190.9600  171.9740  139.3270 N   0  0  0  0  0  2  0  0  0  0  0  0
  191.3810  172.5100  137.0140 C   0  0  0  0  0  2  0  0  0  0  0  0
  190.7090  173.3970  139.1380 C   0  0  1  0  0  3  0  0  0  0  0  0
  190.6510  173.6660  137.6490 C   0  0  0  0  0  2  0  0  0  0  0  0
  195.1140  172.6730  141.6460 N   0  0  0  0  0  0  0  0  0  0  0  0
  195.8670  171.9270  140.6460 C   0  0  0  0  0  1  0  0  0  0  0  0
  194.0410  171.7800  142.0470 C   0  0  0  0  0  1  0  0  0  0  0  0
  196.8040  174.7570  141.5590 O   0  0  0  0  0  0  0  0  0  0  0  0
  197.9370  174.7230  140.8210 N   0  0  0  0  0  2  0  0  0  0  0  0
  197.7950  175.6750  139.8040 N   0  0  0  0  0  2  0  0  0  0  0  0
  197.4380  174.9870  138.6350 N   0  0  0  0  0  2  0  0  0  0  0  0
  193.8260  175.6840  136.6450 C   0  0  0  0  0  0  0  0  0  0  0  0
  192.6530  175.8950  136.0040 F   0  0  0  0  0  0  0  0  0  0  0  0
  194.9920  175.0450  138.6000 C   0  0  0  0  0  3  0  0  0  0  0  0
  196.1890  175.6490  136.6120 C   0  0  0  0  0  3  0  0  0  0  0  0
  196.2100  175.2350  137.9470 C   0  0  0  0  0  0  0  0  0  0  0  0
  193.8260  175.2720  137.9400 N   0  0  0  0  0  0  0  0  0  0  0  0
  195.0020  175.8670  135.9880 N   0  0  0  0  0  0  0  0  0  0  0  0
  1 16  1  6  0  0  0
  1 14  1  0  0  0  0
  2  1  1  0  0  0  0
  3 10  2  0  0  0  0
  4 38  1  6  0  0  0
  4 11  1  0  0  0  0
  5  3  1  0  0  0  0
  6 14  2  0  0  0  0
  7 13  1  0  0  0  0
  8  5  2  0  0  0  0
  9 41  1  6  0  0  0
  9  4  1  0  0  0  0
  9 12  1  0  0  0  0
 10  6  1  0  0  0  0
 11  7  1  6  0  0  0
 12 11  1  0  0  0  0
 12  5  1  6  0  0  0
 13  2  2  0  0  0  0
 13 10  1  0  0  0  0
 15 17  2  0  0  0  0
 17 16  1  0  0  0  0
 18 17  1  0  0  0  0
 19 28  1  6  0  0  0
 19 21  1  0  0  0  0
 20 23  1  1  0  0  0
 20 25  1  0  0  0  0
 21 25  1  0  0  0  0
 21 18  1  1  0  0  0
 22 19  1  0  0  0  0
 24 22  1  0  0  0  0
 24 20  1  0  0  0  0
 27 28  1  0  0  0  0
 27 26  1  0  0  0  0
 29 28  2  0  0  0  0
 30 31  1  0  0  0  0
 31 27  1  0  0  0  0
 32 30  2  0  0  0  0
 33 34  1  0  0  0  0
 35 37  1  0  0  0  0
 35 33  1  0  0  0  0
 36 34  1  0  0  0  0
 36 30  1  1  0  0  0
 37 36  1  0  0  0  0
 38 40  1  0  0  0  0
 39 38  1  0  0  0  0
 42 41  1  0  0  0  0
 43 42  1  0  0  0  0
 44 43  1  0  0  0  0
 45 50  2  0  0  0  0
 46 45  1  0  0  0  0
 48 49  1  0  0  0  0
 49 47  2  0  0  0  0
 49 44  1  0  0  0  0
 50 47  1  0  0  0  0
 51 48  2  0  0  0  0
 51 45  1  0  0  0  0
M  END
>  <MODEL>
2

>  <REMARK>
 VINA RESULT:      -7.2      2.368      5.930
  Name = 
  12 active torsions:
  status: ('A' for Active; 'I' for Inactive)
    1  A    between atoms: C_1  and  C_47
    2  A    between atoms: C_3  and  N_28
    3  A    between atoms: N_5  and  N_8
    4  A    between atoms: N_5  and  O_21
    5  A    between atoms: C_6  and  C_46
    6  A    between atoms: N_8  and  N_43
    7  A    between atoms: C_12  and  N_14
    8  A    between atoms: N_20  and  N_42
    9  A    between atoms: O_21  and  C_26
   10  A    between atoms: C_29  and  C_46
   11  A    between atoms: C_34  and  C_45
   12  A    between atoms: C_37  and  N_43
                            x       y       z     vdW  Elec       q    Type
                         _______ _______ _______ _____ _____    ______ ____

>  <TORSDO>
F 12

$$$$
=
 OpenBabel11062421223D

 51 56  0  0  1  0  0  0  0  0999 V2000
  191.4140  175.3100  147.4760 C   0  0  1  0  0  3  0  0  0  0  0  0
  192.0000  174.2810  146.5420 C   0  0  0  0  0  3  0  0  0  0  0  0
  195.1210  175.9200  145.6830 N   0  0  0  0  0  0  0  0  0  0  0  0
  195.4960  171.6600  144.9730 C   0  0  1  0  0  3  0  0  0  0  0  0
  195.9920  174.9800  145.0310 C   0  0  0  0  0  0  0  0  0  0  0  0
  193.2490  176.7960  146.8030 N   0  0  0  0  0  0  0  0  0  0  0  0
  193.7360  173.3630  145.1090 C   0  0  0  0  0  2  0  0  0  0  0  0
  196.8100  175.4230  144.1840 O   0  0  0  0  0  0  0  0  0  0  0  0
  196.6880  172.5110  144.5180 C   0  0  2  0  0  3  0  0  0  0  0  0
  193.9340  175.7070  146.1740 C   0  0  0  0  0  0  0  0  0  0  0  0
  194.9020  172.7600  145.7670 N   0  0  2  0  0  0  0  0  0  0  0  0
  196.1290  173.5350  145.5040 C   0  0  2  0  0  3  0  0  0  0  0  0
  193.1980  174.4380  145.9780 C   0  0  0  0  0  0  0  0  0  0  0  0
  192.0900  176.6510  147.3730 C   0  0  0  0  0  3  0  0  0  0  0  0
  190.2130  176.7770  145.3180 O   0  0  0  0  0  0  0  0  0  0  0  0
  189.9860  175.4640  147.2400 N   0  0  0  0  0  2  0  0  0  0  0  0
  189.4490  176.1920  146.1320 C   0  0  0  0  0  0  0  0  0  0  0  0
  187.9680  176.2240  145.9260 C   0  0  0  0  0  2  0  0  0  0  0  0
  187.1950  176.6250  143.5340 C   0  0  1  0  0  3  0  0  0  0  0  0
  185.9410  179.1400  144.3340 C   0  0  2  0  0  3  0  0  0  0  0  0
  187.5330  177.2690  144.8960 C   0  0  1  0  0  3  0  0  0  0  0  0
  186.1150  177.2330  142.8410 O   0  0  0  0  0  0  0  0  0  0  0  0
  184.4560  179.4160  144.4760 C   0  0  0  0  0  1  0  0  0  0  0  0
  186.2410  178.6360  142.9170 C   0  0  0  0  0  2  0  0  0  0  0  0
  186.3730  178.1280  145.3990 C   0  0  0  0  0  2  0  0  0  0  0  0
  187.7930  174.1310  142.0150 C   0  0  0  0  0  1  0  0  0  0  0  0
  188.8010  175.1650  142.1930 N   0  0  0  0  0  0  0  0  0  0  0  0
  188.4120  176.4660  142.6710 C   0  0  0  0  0  0  0  0  0  0  0  0
  189.0990  177.4820  142.3730 O   0  0  0  0  0  0  0  0  0  0  0  0
  191.0390  174.0730  142.4230 C   0  0  0  0  0  0  0  0  0  0  0  0
  190.1020  174.9060  141.7280 N   0  0  0  0  0  2  0  0  0  0  0  0
  190.6670  173.3600  143.3970 O   0  0  0  0  0  0  0  0  0  0  0  0
  193.6790  174.3350  140.0060 C   0  0  0  0  0  2  0  0  0  0  0  0
  192.4860  173.6790  140.5210 N   0  0  0  0  0  2  0  0  0  0  0  0
  194.0160  175.5010  140.9180 C   0  0  0  0  0  2  0  0  0  0  0  0
  192.4480  174.0030  141.9410 C   0  0  1  0  0  3  0  0  0  0  0  0
  193.1420  175.3350  142.1340 C   0  0  0  0  0  2  0  0  0  0  0  0
  194.6420  171.1490  143.8850 N   0  0  0  0  0  0  0  0  0  0  0  0
  195.3670  170.0790  143.2120 C   0  0  0  0  0  1  0  0  0  0  0  0
  193.5030  170.4960  144.5040 C   0  0  0  0  0  1  0  0  0  0  0  0
  196.5260  172.9330  143.1930 O   0  0  0  0  0  0  0  0  0  0  0  0
  197.6740  172.5650  142.5800 N   0  0  0  0  0  2  0  0  0  0  0  0
  197.9290  173.5120  141.5790 N   0  0  0  0  0  2  0  0  0  0  0  0
  197.1760  173.1430  140.4550 N   0  0  0  0  0  2  0  0  0  0  0  0
  197.7520  174.9240  136.7150 C   0  0  0  0  0  0  0  0  0  0  0  0
  197.9270  175.5100  135.5090 F   0  0  0  0  0  0  0  0  0  0  0  0
  197.7080  175.0910  139.0720 C   0  0  0  0  0  3  0  0  0  0  0  0
  197.2310  173.0040  137.9910 C   0  0  0  0  0  3  0  0  0  0  0  0
  197.3770  173.7390  139.1710 C   0  0  0  0  0  0  0  0  0  0  0  0
  197.8880  175.6580  137.8510 N   0  0  0  0  0  0  0  0  0  0  0  0
  197.4230  173.6070  136.7890 N   0  0  0  0  0  0  0  0  0  0  0  0
  1 16  1  6  0  0  0
  2  1  1  0  0  0  0
  3 10  2  0  0  0  0
  4 38  1  6  0  0  0
  4 11  1  0  0  0  0
  5  3  1  0  0  0  0
  6 14  2  0  0  0  0
  7 13  1  0  0  0  0
  8  5  2  0  0  0  0
  9 41  1  6  0  0  0
  9  4  1  0  0  0  0
  9 12  1  0  0  0  0
 10  6  1  0  0  0  0
 11  7  1  6  0  0  0
 12  5  1  6  0  0  0
 12 11  1  0  0  0  0
 13 10  1  0  0  0  0
 13  2  2  0  0  0  0
 14  1  1  0  0  0  0
 15 17  2  0  0  0  0
 17 16  1  0  0  0  0
 18 17  1  0  0  0  0
 19 28  1  6  0  0  0
 19 21  1  0  0  0  0
 20 23  1  6  0  0  0
 20 25  1  0  0  0  0
 21 25  1  0  0  0  0
 21 18  1  1  0  0  0
 22 24  1  0  0  0  0
 22 19  1  0  0  0  0
 24 20  1  0  0  0  0
 26 27  1  0  0  0  0
 27 28  1  0  0  0  0
 29 28  2  0  0  0  0
 30 32  2  0  0  0  0
 31 27  1  0  0  0  0
 31 30  1  0  0  0  0
 33 34  1  0  0  0  0
 33 35  1  0  0  0  0
 34 36  1  0  0  0  0
 35 37  1  0  0  0  0
 36 37  1  0  0  0  0
 36 30  1  6  0  0  0
 38 40  1  0  0  0  0
 39 38  1  0  0  0  0
 42 41  1  0  0  0  0
 43 42  1  0  0  0  0
 44 43  1  0  0  0  0
 45 51  1  0  0  0  0
 45 50  2  0  0  0  0
 46 45  1  0  0  0  0
 47 49  2  0  0  0  0
 48 49  1  0  0  0  0
 49 44  1  0  0  0  0
 50 47  1  0  0  0  0
 51 48  2  0  0  0  0
M  END
>  <MODEL>
3

>  <REMARK>
 VINA RESULT:      -7.0      2.984      5.796
  Name = 
  12 active torsions:
  status: ('A' for Active; 'I' for Inactive)
    1  A    between atoms: C_1  and  C_47
    2  A    between atoms: C_3  and  N_28
    3  A    between atoms: N_5  and  N_8
    4  A    between atoms: N_5  and  O_21
    5  A    between atoms: C_6  and  C_46
    6  A    between atoms: N_8  and  N_43
    7  A    between atoms: C_12  and  N_14
    8  A    between atoms: N_20  and  N_42
    9  A    between atoms: O_21  and  C_26
   10  A    between atoms: C_29  and  C_46
   11  A    between atoms: C_34  and  C_45
   12  A    between atoms: C_37  and  N_43
                            x       y       z     vdW  Elec       q    Type
                         _______ _______ _______ _____ _____    ______ ____

>  <TORSDO>
F 12

$$$$
=
 OpenBabel11062421223D

 51 56  0  0  1  0  0  0  0  0999 V2000
  190.3860  175.5380  145.5600 C   0  0  1  0  0  3  0  0  0  0  0  0
  189.4360  175.8820  144.4410 C   0  0  0  0  0  3  0  0  0  0  0  0
  186.6100  177.0920  146.3660 N   0  0  0  0  0  0  0  0  0  0  0  0
  186.3880  178.6840  142.3410 C   0  0  1  0  0  3  0  0  0  0  0  0
  185.6870  177.7640  145.4920 C   0  0  0  0  0  0  0  0  0  0  0  0
  188.5270  175.9510  147.1090 N   0  0  0  0  0  0  0  0  0  0  0  0
  187.3700  176.7700  143.5190 C   0  0  0  0  0  2  0  0  0  0  0  0
  184.4660  177.7410  145.7940 O   0  0  0  0  0  0  0  0  0  0  0  0
  185.1810  178.9880  143.2360 C   0  0  2  0  0  3  0  0  0  0  0  0
  187.7570  176.5570  146.0640 C   0  0  0  0  0  0  0  0  0  0  0  0
  187.2260  178.2300  143.4740 N   0  0  2  0  0  0  0  0  0  0  0  0
  186.1540  178.6940  144.3760 C   0  0  2  0  0  3  0  0  0  0  0  0
  188.2330  176.4080  144.6700 C   0  0  0  0  0  0  0  0  0  0  0  0
  189.7080  175.4520  146.9020 C   0  0  0  0  0  3  0  0  0  0  0  0
  193.1720  175.0150  146.0290 O   0  0  0  0  0  0  0  0  0  0  0  0
  191.0770  174.2880  145.2820 N   0  0  0  0  0  2  0  0  0  0  0  0
  192.4660  174.0820  145.5590 C   0  0  0  0  0  0  0  0  0  0  0  0
  193.0680  172.7340  145.3170 C   0  0  0  0  0  2  0  0  0  0  0  0
  194.3470  173.8220  143.4030 C   0  0  1  0  0  3  0  0  0  0  0  0
  196.8850  173.1890  144.7060 C   0  0  2  0  0  3  0  0  0  0  0  0
  194.3980  172.8040  144.5630 C   0  0  1  0  0  3  0  0  0  0  0  0
  195.5540  174.5380  143.1870 O   0  0  0  0  0  0  0  0  0  0  0  0
  197.8200  174.1580  145.4030 C   0  0  0  0  0  1  0  0  0  0  0  0
  196.6460  173.6470  143.2620 C   0  0  0  0  0  2  0  0  0  0  0  0
  195.5750  173.0920  145.4940 C   0  0  0  0  0  2  0  0  0  0  0  0
  194.1020  175.3320  140.8450 C   0  0  0  0  0  1  0  0  0  0  0  0
  193.4480  174.0450  141.0260 N   0  0  0  0  0  0  0  0  0  0  0  0
  193.8100  173.2110  142.1420 C   0  0  0  0  0  0  0  0  0  0  0  0
  193.6700  171.9590  142.0700 O   0  0  0  0  0  0  0  0  0  0  0  0
  191.1800  173.4650  140.1480 C   0  0  0  0  0  0  0  0  0  0  0  0
  192.6010  173.5850  140.0030 N   0  0  0  0  0  2  0  0  0  0  0  0
  190.5900  173.9650  141.1470 O   0  0  0  0  0  0  0  0  0  0  0  0
  188.1900  172.3590  138.4970 C   0  0  0  0  0  2  0  0  0  0  0  0
  189.1390  172.2820  139.5990 N   0  0  0  0  0  2  0  0  0  0  0  0
  188.6610  173.4350  137.5350 C   0  0  0  0  0  2  0  0  0  0  0  0
  190.3920  172.8020  139.0690 C   0  0  1  0  0  3  0  0  0  0  0  0
  190.0590  173.7900  137.9710 C   0  0  0  0  0  2  0  0  0  0  0  0
  186.1520  177.6680  141.2990 N   0  0  0  0  0  0  0  0  0  0  0  0
  185.3780  178.2910  140.2330 C   0  0  0  0  0  1  0  0  0  0  0  0
  187.4380  177.3630  140.6960 C   0  0  0  0  0  1  0  0  0  0  0  0
  184.2070  177.9890  143.1220 O   0  0  0  0  0  0  0  0  0  0  0  0
  183.0510  178.6650  142.9390 N   0  0  0  0  0  2  0  0  0  0  0  0
  182.4340  178.1270  141.8030 N   0  0  0  0  0  2  0  0  0  0  0  0
  181.0480  178.2240  141.9940 N   0  0  0  0  0  2  0  0  0  0  0  0
  178.5070  179.8810  139.1150 C   0  0  0  0  0  0  0  0  0  0  0  0
  177.6910  180.4070  138.1730 F   0  0  0  0  0  0  0  0  0  0  0  0
  179.2780  177.9990  140.3200 C   0  0  0  0  0  3  0  0  0  0  0  0
  180.2200  180.1670  140.7180 C   0  0  0  0  0  3  0  0  0  0  0  0
  180.1800  178.8030  141.0170 C   0  0  0  0  0  0  0  0  0  0  0  0
  178.4610  178.5490  139.3840 N   0  0  0  0  0  0  0  0  0  0  0  0
  179.3840  180.6800  139.7770 N   0  0  0  0  0  0  0  0  0  0  0  0
  1 16  1  6  0  0  0
  1 14  1  0  0  0  0
  2 13  2  0  0  0  0
  2  1  1  0  0  0  0
  4 38  1  6  0  0  0
  4  9  1  0  0  0  0
  4 11  1  0  0  0  0
  5  8  2  0  0  0  0
  5  3  1  0  0  0  0
  7 13  1  0  0  0  0
  9 41  1  6  0  0  0
  9 12  1  0  0  0  0
 10  3  2  0  0  0  0
 10  6  1  0  0  0  0
 11  7  1  6  0  0  0
 11 12  1  0  0  0  0
 12  5  1  1  0  0  0
 13 10  1  0  0  0  0
 14  6  2  0  0  0  0
 16 17  1  0  0  0  0
 17 15  2  0  0  0  0
 18 17  1  0  0  0  0
 19 28  1  6  0  0  0
 19 21  1  0  0  0  0
 20 23  1  1  0  0  0
 20 25  1  0  0  0  0
 21 18  1  1  0  0  0
 21 25  1  0  0  0  0
 22 24  1  0  0  0  0
 22 19  1  0  0  0  0
 24 20  1  0  0  0  0
 26 27  1  0  0  0  0
 27 28  1  0  0  0  0
 29 28  2  0  0  0  0
 30 32  2  0  0  0  0
 31 30  1  0  0  0  0
 31 27  1  0  0  0  0
 33 34  1  0  0  0  0
 35 37  1  0  0  0  0
 35 33  1  0  0  0  0
 36 34  1  0  0  0  0
 36 30  1  1  0  0  0
 37 36  1  0  0  0  0
 39 38  1  0  0  0  0
 40 38  1  0  0  0  0
 42 41  1  0  0  0  0
 43 44  1  0  0  0  0
 43 42  1  0  0  0  0
 45 50  2  0  0  0  0
 45 51  1  0  0  0  0
 46 45  1  0  0  0  0
 47 49  2  0  0  0  0
 48 49  1  0  0  0  0
 49 44  1  0  0  0  0
 50 47  1  0  0  0  0
 51 48  2  0  0  0  0
M  END
>  <MODEL>
4

>  <REMARK>
 VINA RESULT:      -6.9      4.891     10.777
  Name = 
  12 active torsions:
  status: ('A' for Active; 'I' for Inactive)
    1  A    between atoms: C_1  and  C_47
    2  A    between atoms: C_3  and  N_28
    3  A    between atoms: N_5  and  N_8
    4  A    between atoms: N_5  and  O_21
    5  A    between atoms: C_6  and  C_46
    6  A    between atoms: N_8  and  N_43
    7  A    between atoms: C_12  and  N_14
    8  A    between atoms: N_20  and  N_42
    9  A    between atoms: O_21  and  C_26
   10  A    between atoms: C_29  and  C_46
   11  A    between atoms: C_34  and  C_45
   12  A    between atoms: C_37  and  N_43
                            x       y       z     vdW  Elec       q    Type
                         _______ _______ _______ _____ _____    ______ ____

>  <TORSDO>
F 12

$$$$
=
 OpenBabel11062421223D

 51 56  0  0  1  0  0  0  0  0999 V2000
  195.6210  175.2900  143.5880 C   0  0  1  0  0  3  0  0  0  0  0  0
  194.1210  175.2450  143.4420 C   0  0  0  0  0  3  0  0  0  0  0  0
  193.1360  175.8520  146.8800 N   0  0  0  0  0  0  0  0  0  0  0  0
  189.8540  176.8880  144.2450 C   0  0  1  0  0  3  0  0  0  0  0  0
  191.7320  176.1550  146.9300 C   0  0  0  0  0  0  0  0  0  0  0  0
  195.2650  175.3520  146.0160 N   0  0  0  0  0  0  0  0  0  0  0  0
  191.8360  175.4440  144.2480 C   0  0  0  0  0  2  0  0  0  0  0  0
  191.0960  175.8390  147.9690 O   0  0  0  0  0  0  0  0  0  0  0  0
  189.5400  176.9520  145.7450 C   0  0  2  0  0  3  0  0  0  0  0  0
  193.8700  175.6140  145.8310 C   0  0  0  0  0  0  0  0  0  0  0  0
  191.3160  176.7990  144.4660 N   0  0  2  0  0  0  0  0  0  0  0  0
  191.0560  177.0520  145.8960 C   0  0  2  0  0  3  0  0  0  0  0  0
  193.3030  175.4510  144.4730 C   0  0  0  0  0  0  0  0  0  0  0  0
  196.0760  175.1680  145.0180 C   0  0  0  0  0  3  0  0  0  0  0  0
  196.5630  175.5780  140.8890 O   0  0  0  0  0  0  0  0  0  0  0  0
  196.2470  174.2480  142.7870 N   0  0  0  0  0  2  0  0  0  0  0  0
  196.7150  174.4610  141.4530 C   0  0  0  0  0  0  0  0  0  0  0  0
  197.4220  173.3520  140.7390 C   0  0  0  0  0  2  0  0  0  0  0  0
  195.1190  172.3150  140.4260 C   0  0  1  0  0  3  0  0  0  0  0  0
  195.4190  172.4630  137.5230 C   0  0  2  0  0  3  0  0  0  0  0  0
  196.5040  172.5720  139.7950 C   0  0  1  0  0  3  0  0  0  0  0  0
  194.0320  172.3670  139.5130 O   0  0  0  0  0  0  0  0  0  0  0  0
  194.7180  173.4220  136.5800 C   0  0  0  0  0  1  0  0  0  0  0  0
  194.3790  171.6790  138.3320 C   0  0  0  0  0  2  0  0  0  0  0  0
  196.3690  173.2490  138.4320 C   0  0  0  0  0  2  0  0  0  0  0  0
  193.1570  171.8570  142.6240 C   0  0  0  0  0  1  0  0  0  0  0  0
  194.3360  171.0170  142.4780 N   0  0  0  0  0  0  0  0  0  0  0  0
  195.1050  171.0680  141.2620 C   0  0  0  0  0  0  0  0  0  0  0  0
  195.7790  170.0670  140.8960 O   0  0  0  0  0  0  0  0  0  0  0  0
  195.3680  170.3170  144.6460 C   0  0  0  0  0  0  0  0  0  0  0  0
  194.5880  170.0550  143.4720 N   0  0  0  0  0  2  0  0  0  0  0  0
  195.7010  171.4980  144.9480 O   0  0  0  0  0  0  0  0  0  0  0  0
  196.6740  168.8090  147.6310 C   0  0  0  0  0  2  0  0  0  0  0  0
  196.8630  169.5400  146.3870 N   0  0  0  0  0  2  0  0  0  0  0  0
  195.1940  168.5100  147.7890 C   0  0  0  0  0  2  0  0  0  0  0  0
  195.7240  169.1860  145.5500 C   0  0  1  0  0  3  0  0  0  0  0  0
  194.5640  168.8490  146.4630 C   0  0  0  0  0  2  0  0  0  0  0  0
  189.2640  175.7410  143.5320 N   0  0  0  0  0  0  0  0  0  0  0  0
  187.8710  176.0590  143.2480 C   0  0  0  0  0  1  0  0  0  0  0  0
  189.9020  175.6700  142.2300 C   0  0  0  0  0  1  0  0  0  0  0  0
  189.0580  175.7220  146.2090 O   0  0  0  0  0  0  0  0  0  0  0  0
  187.9350  176.0370  146.8940 N   0  0  0  0  0  2  0  0  0  0  0  0
  188.0390  177.3860  147.2570 N   0  0  0  0  0  2  0  0  0  0  0  0
  186.7420  177.8460  147.5260 N   0  0  0  0  0  2  0  0  0  0  0  0
  184.0980  179.0400  144.5120 C   0  0  0  0  0  0  0  0  0  0  0  0
  183.2360  179.4120  143.5390 F   0  0  0  0  0  0  0  0  0  0  0  0
  184.4730  178.2830  146.7210 C   0  0  0  0  0  3  0  0  0  0  0  0
  186.3150  178.6370  145.2270 C   0  0  0  0  0  3  0  0  0  0  0  0
  185.8480  178.2630  146.4900 C   0  0  0  0  0  0  0  0  0  0  0  0
  183.6250  178.6690  145.7310 N   0  0  0  0  0  0  0  0  0  0  0  0
  185.4350  179.0200  144.2650 N   0  0  0  0  0  0  0  0  0  0  0  0
  1 16  1  6  0  0  0
  1 14  1  0  0  0  0
  2  1  1  0  0  0  0
  2 13  2  0  0  0  0
  3  5  1  0  0  0  0
  4 38  1  1  0  0  0
  4 11  1  0  0  0  0
  4  9  1  0  0  0  0
  5  8  2  0  0  0  0
  7 13  1  0  0  0  0
  9 12  1  0  0  0  0
  9 41  1  1  0  0  0
 10  6  1  0  0  0  0
 10  3  2  0  0  0  0
 11  7  1  1  0  0  0
 11 12  1  0  0  0  0
 12  5  1  1  0  0  0
 13 10  1  0  0  0  0
 14  6  2  0  0  0  0
 15 17  2  0  0  0  0
 17 16  1  0  0  0  0
 18 17  1  0  0  0  0
 19 28  1  6  0  0  0
 20 23  1  6  0  0  0
 20 24  1  0  0  0  0
 20 25  1  0  0  0  0
 21 19  1  0  0  0  0
 21 18  1  1  0  0  0
 22 19  1  0  0  0  0
 24 22  1  0  0  0  0
 25 21  1  0  0  0  0
 27 26  1  0  0  0  0
 27 31  1  0  0  0  0
 28 27  1  0  0  0  0
 29 28  2  0  0  0  0
 30 32  2  0  0  0  0
 31 30  1  0  0  0  0
 33 35  1  0  0  0  0
 34 33  1  0  0  0  0
 36 30  1  6  0  0  0
 36 34  1  0  0  0  0
 36 37  1  0  0  0  0
 37 35  1  0  0  0  0
 39 38  1  0  0  0  0
 40 38  1  0  0  0  0
 41 42  1  0  0  0  0
 42 43  1  0  0  0  0
 43 44  1  0  0  0  0
 45 50  2  0  0  0  0
 46 45  1  0  0  0  0
 48 49  1  0  0  0  0
 49 47  2  0  0  0  0
 49 44  1  0  0  0  0
 50 47  1  0  0  0  0
 51 45  1  0  0  0  0
 51 48  2  0  0  0  0
M  END
>  <MODEL>
5

>  <REMARK>
 VINA RESULT:      -6.8      3.806      9.976
  Name = 
  12 active torsions:
  status: ('A' for Active; 'I' for Inactive)
    1  A    between atoms: C_1  and  C_47
    2  A    between atoms: C_3  and  N_28
    3  A    between atoms: N_5  and  N_8
    4  A    between atoms: N_5  and  O_21
    5  A    between atoms: C_6  and  C_46
    6  A    between atoms: N_8  and  N_43
    7  A    between atoms: C_12  and  N_14
    8  A    between atoms: N_20  and  N_42
    9  A    between atoms: O_21  and  C_26
   10  A    between atoms: C_29  and  C_46
   11  A    between atoms: C_34  and  C_45
   12  A    between atoms: C_37  and  N_43
                            x       y       z     vdW  Elec       q    Type
                         _______ _______ _______ _____ _____    ______ ____

>  <TORSDO>
F 12

$$$$
=
 OpenBabel11062421223D

 51 56  0  0  1  0  0  0  0  0999 V2000
  188.5350  173.7680  142.2270 C   0  0  1  0  0  3  0  0  0  0  0  0
  188.7670  173.9900  140.7540 C   0  0  0  0  0  3  0  0  0  0  0  0
  192.1190  172.6390  140.4360 N   0  0  0  0  0  0  0  0  0  0  0  0
  190.1890  172.6100  136.5550 C   0  0  1  0  0  3  0  0  0  0  0  0
  192.4370  172.4670  139.0450 C   0  0  0  0  0  0  0  0  0  0  0  0
  190.9020  173.1350  142.3850 N   0  0  0  0  0  0  0  0  0  0  0  0
  190.0350  173.8130  138.6870 C   0  0  0  0  0  2  0  0  0  0  0  0
  193.6420  172.5730  138.6970 O   0  0  0  0  0  0  0  0  0  0  0  0
  191.6680  172.2040  136.5580 C   0  0  2  0  0  3  0  0  0  0  0  0
  191.0040  173.0610  140.9590 C   0  0  0  0  0  0  0  0  0  0  0  0
  190.0660  172.5030  138.0270 N   0  0  2  0  0  0  0  0  0  0  0  0
  191.4240  171.9260  138.0400 C   0  0  2  0  0  3  0  0  0  0  0  0
  189.8940  173.6110  140.1500 C   0  0  0  0  0  0  0  0  0  0  0  0
  189.8040  173.4840  142.9860 C   0  0  0  0  0  3  0  0  0  0  0  0
  189.7440  176.2970  142.8570 O   0  0  0  0  0  0  0  0  0  0  0  0
  187.8590  174.9130  142.8190 N   0  0  0  0  0  2  0  0  0  0  0  0
  188.5130  176.1550  143.0900 C   0  0  0  0  0  0  0  0  0  0  0  0
  187.7140  177.3030  143.6220 C   0  0  0  0  0  2  0  0  0  0  0  0
  187.9220  177.5090  146.1510 C   0  0  1  0  0  3  0  0  0  0  0  0
  185.0260  177.2460  146.4360 C   0  0  2  0  0  3  0  0  0  0  0  0
  187.0630  176.9980  144.9740 C   0  0  1  0  0  3  0  0  0  0  0  0
  187.1810  178.0110  147.2530 O   0  0  0  0  0  0  0  0  0  0  0  0
  184.0400  178.3430  146.7910 C   0  0  0  0  0  1  0  0  0  0  0  0
  186.1010  177.1450  147.5250 C   0  0  0  0  0  2  0  0  0  0  0  0
  185.6360  177.5370  145.0620 C   0  0  0  0  0  2  0  0  0  0  0  0
  190.1290  178.1480  148.0500 C   0  0  0  0  0  1  0  0  0  0  0  0
  190.1510  176.9330  147.2510 N   0  0  0  0  0  0  0  0  0  0  0  0
  188.9580  176.5060  146.5670 C   0  0  0  0  0  0  0  0  0  0  0  0
  188.7800  175.2850  146.3060 O   0  0  0  0  0  0  0  0  0  0  0  0
  192.2360  175.9980  146.2350 C   0  0  0  0  0  0  0  0  0  0  0  0
  191.2980  176.1220  147.3120 N   0  0  0  0  0  2  0  0  0  0  0  0
  192.1830  176.7760  145.2410 O   0  0  0  0  0  0  0  0  0  0  0  0
  194.5330  173.5460  144.9710 C   0  0  0  0  0  2  0  0  0  0  0  0
  193.1790  173.9810  145.2800 N   0  0  0  0  0  2  0  0  0  0  0  0
  195.4930  174.6540  145.3650 C   0  0  0  0  0  2  0  0  0  0  0  0
  193.3220  174.9810  146.3300 C   0  0  1  0  0  3  0  0  0  0  0  0
  194.6780  175.6350  146.1670 C   0  0  0  0  0  2  0  0  0  0  0  0
  189.9110  173.9500  136.0060 N   0  0  0  0  0  0  0  0  0  0  0  0
  189.8400  173.8340  134.5560 C   0  0  0  0  0  1  0  0  0  0  0  0
  188.5660  174.3120  136.4170 C   0  0  0  0  0  1  0  0  0  0  0  0
  192.4950  173.3190  136.3750 O   0  0  0  0  0  0  0  0  0  0  0  0
  193.2370  173.0120  135.2870 N   0  0  0  0  0  2  0  0  0  0  0  0
  193.5040  174.2140  134.6180 N   0  0  0  0  0  2  0  0  0  0  0  0
  194.2520  175.0190  135.4900 N   0  0  0  0  0  2  0  0  0  0  0  0
  195.0260  179.0610  134.7410 C   0  0  0  0  0  0  0  0  0  0  0  0
  195.2840  180.3680  134.5130 F   0  0  0  0  0  0  0  0  0  0  0  0
  195.8160  176.8720  135.1620 C   0  0  0  0  0  3  0  0  0  0  0  0
  193.4620  177.3160  135.0500 C   0  0  0  0  0  3  0  0  0  0  0  0
  194.5040  176.4010  135.2270 C   0  0  0  0  0  0  0  0  0  0  0  0
  196.0530  178.1890  134.9220 N   0  0  0  0  0  0  0  0  0  0  0  0
  193.7400  178.6230  134.8090 N   0  0  0  0  0  0  0  0  0  0  0  0
  1 16  1  1  0  0  0
  1 14  1  0  0  0  0
  2  1  1  0  0  0  0
  3 10  2  0  0  0  0
  4 38  1  1  0  0  0
  4  9  1  0  0  0  0
  4 11  1  0  0  0  0
  5  3  1  0  0  0  0
  6 14  2  0  0  0  0
  7 13  1  0  0  0  0
  8  5  2  0  0  0  0
  9 41  1  1  0  0  0
  9 12  1  0  0  0  0
 10  6  1  0  0  0  0
 11 12  1  0  0  0  0
 11  7  1  1  0  0  0
 12  5  1  1  0  0  0
 13  2  2  0  0  0  0
 13 10  1  0  0  0  0
 15 17  2  0  0  0  0
 16 17  1  0  0  0  0
 17 18  1  0  0  0  0
 19 28  1  1  0  0  0
 19 22  1  0  0  0  0
 20 23  1  1  0  0  0
 20 24  1  0  0  0  0
 21 18  1  6  0  0  0
 21 25  1  0  0  0  0
 21 19  1  0  0  0  0
 22 24  1  0  0  0  0
 25 20  1  0  0  0  0
 27 31  1  0  0  0  0
 27 26  1  0  0  0  0
 28 27  1  0  0  0  0
 29 28  2  0  0  0  0
 30 31  1  0  0  0  0
 32 30  2  0  0  0  0
 33 34  1  0  0  0  0
 33 35  1  0  0  0  0
 34 36  1  0  0  0  0
 35 37  1  0  0  0  0
 36 30  1  6  0  0  0
 37 36  1  0  0  0  0
 38 40  1  0  0  0  0
 39 38  1  0  0  0  0
 42 41  1  0  0  0  0
 43 42  1  0  0  0  0
 43 44  1  0  0  0  0
 45 51  1  0  0  0  0
 45 50  2  0  0  0  0
 46 45  1  0  0  0  0
 47 49  2  0  0  0  0
 48 49  1  0  0  0  0
 49 44  1  0  0  0  0
 50 47  1  0  0  0  0
 51 48  2  0  0  0  0
M  END
>  <MODEL>
6

>  <REMARK>
 VINA RESULT:      -6.7      2.305      2.601
  Name = 
  12 active torsions:
  status: ('A' for Active; 'I' for Inactive)
    1  A    between atoms: C_1  and  C_47
    2  A    between atoms: C_3  and  N_28
    3  A    between atoms: N_5  and  N_8
    4  A    between atoms: N_5  and  O_21
    5  A    between atoms: C_6  and  C_46
    6  A    between atoms: N_8  and  N_43
    7  A    between atoms: C_12  and  N_14
    8  A    between atoms: N_20  and  N_42
    9  A    between atoms: O_21  and  C_26
   10  A    between atoms: C_29  and  C_46
   11  A    between atoms: C_34  and  C_45
   12  A    between atoms: C_37  and  N_43
                            x       y       z     vdW  Elec       q    Type
                         _______ _______ _______ _____ _____    ______ ____

>  <TORSDO>
F 12

$$$$
=
 OpenBabel11062421223D

 51 56  0  0  1  0  0  0  0  0999 V2000
  191.2730  172.1560  139.8600 C   0  0  1  0  0  3  0  0  0  0  0  0
  190.9790  173.2690  140.8350 C   0  0  0  0  0  3  0  0  0  0  0  0
  188.0810  174.7540  139.2380 N   0  0  0  0  0  0  0  0  0  0  0  0
  188.0970  175.8070  143.4430 C   0  0  1  0  0  3  0  0  0  0  0  0
  187.4390  175.6580  140.1540 C   0  0  0  0  0  0  0  0  0  0  0  0
  189.5830  173.1580  138.3880 N   0  0  0  0  0  0  0  0  0  0  0  0
  189.6860  175.1370  141.6990 C   0  0  0  0  0  2  0  0  0  0  0  0
  186.8280  176.6480  139.6750 O   0  0  0  0  0  0  0  0  0  0  0  0
  187.0090  176.4830  142.5990 C   0  0  2  0  0  3  0  0  0  0  0  0
  189.1230  174.0040  139.4480 C   0  0  0  0  0  0  0  0  0  0  0  0
  188.4280  174.8240  142.3860 N   0  0  2  0  0  0  0  0  0  0  0  0
  187.2630  175.3270  141.6340 C   0  0  2  0  0  3  0  0  0  0  0  0
  189.9470  174.0970  140.6750 C   0  0  0  0  0  0  0  0  0  0  0  0
  190.5760  172.3340  138.5370 C   0  0  0  0  0  3  0  0  0  0  0  0
  193.0590  170.4880  141.3700 O   0  0  0  0  0  0  0  0  0  0  0  0
  192.7060  172.0270  139.6430 N   0  0  0  0  0  2  0  0  0  0  0  0
  193.5400  171.1610  140.4180 C   0  0  0  0  0  0  0  0  0  0  0  0
  194.9880  171.0310  140.0650 C   0  0  0  0  0  2  0  0  0  0  0  0
  196.5410  173.0230  139.7470 C   0  0  1  0  0  3  0  0  0  0  0  0
  196.4570  172.6590  136.8490 C   0  0  2  0  0  3  0  0  0  0  0  0
  195.4660  172.1220  139.1030 C   0  0  1  0  0  3  0  0  0  0  0  0
  197.5580  173.4620  138.8590 O   0  0  0  0  0  0  0  0  0  0  0  0
  197.5630  172.1160  135.9650 C   0  0  0  0  0  1  0  0  0  0  0  0
  196.9730  173.8670  137.6400 C   0  0  0  0  0  2  0  0  0  0  0  0
  195.9560  171.5470  137.7750 C   0  0  0  0  0  2  0  0  0  0  0  0
  197.8610  174.2520  142.1210 C   0  0  0  0  0  1  0  0  0  0  0  0
  196.4640  174.5170  141.8140 N   0  0  0  0  0  0  0  0  0  0  0  0
  195.9340  174.1540  140.5260 C   0  0  0  0  0  0  0  0  0  0  0  0
  194.9480  174.7790  140.0460 O   0  0  0  0  0  0  0  0  0  0  0  0
  194.8710  174.6990  143.7330 C   0  0  0  0  0  0  0  0  0  0  0  0
  195.7190  175.2780  142.7320 N   0  0  0  0  0  2  0  0  0  0  0  0
  194.9100  173.4590  143.9720 O   0  0  0  0  0  0  0  0  0  0  0  0
  193.1890  175.8010  146.7070 C   0  0  0  0  0  2  0  0  0  0  0  0
  193.3680  174.8410  145.6280 N   0  0  0  0  0  2  0  0  0  0  0  0
  194.2010  176.9180  146.5250 C   0  0  0  0  0  2  0  0  0  0  0  0
  193.9880  175.5880  144.5420 C   0  0  1  0  0  3  0  0  0  0  0  0
  194.7890  176.7180  145.1530 C   0  0  0  0  0  2  0  0  0  0  0  0
  189.2110  176.6850  143.8440 N   0  0  0  0  0  0  0  0  0  0  0  0
  188.7310  177.5620  144.9030 C   0  0  0  0  0  1  0  0  0  0  0  0
  190.2120  175.8460  144.4790 C   0  0  0  0  0  1  0  0  0  0  0  0
  187.4640  177.6990  142.0750 O   0  0  0  0  0  0  0  0  0  0  0  0
  186.4930  178.5860  142.3910 N   0  0  0  0  0  2  0  0  0  0  0  0
  185.2850  177.8780  142.4330 N   0  0  0  0  0  2  0  0  0  0  0  0
  184.5430  178.3830  143.5100 N   0  0  0  0  0  2  0  0  0  0  0  0
  185.8400  178.0560  147.4730 C   0  0  0  0  0  0  0  0  0  0  0  0
  186.2470  177.9420  148.7570 F   0  0  0  0  0  0  0  0  0  0  0  0
  185.1760  177.0310  145.4490 C   0  0  0  0  0  3  0  0  0  0  0  0
  185.2400  179.4200  145.6380 C   0  0  0  0  0  3  0  0  0  0  0  0
  184.9930  178.2840  144.8630 C   0  0  0  0  0  0  0  0  0  0  0  0
  185.5940  176.9390  146.7380 N   0  0  0  0  0  0  0  0  0  0  0  0
  185.6600  179.2860  146.9230 N   0  0  0  0  0  0  0  0  0  0  0  0
  1 16  1  6  0  0  0
  1  2  1  0  0  0  0
  3 10  2  0  0  0  0
  3  5  1  0  0  0  0
  4 38  1  6  0  0  0
  6 14  2  0  0  0  0
  6 10  1  0  0  0  0
  8  5  2  0  0  0  0
  9 41  1  6  0  0  0
  9  4  1  0  0  0  0
 10 13  1  0  0  0  0
 11  7  1  6  0  0  0
 11  4  1  0  0  0  0
 12  5  1  6  0  0  0
 12 11  1  0  0  0  0
 12  9  1  0  0  0  0
 13  2  2  0  0  0  0
 13  7  1  0  0  0  0
 14  1  1  0  0  0  0
 16 17  1  0  0  0  0
 17 15  2  0  0  0  0
 18 17  1  0  0  0  0
 19 28  1  6  0  0  0
 20 23  1  1  0  0  0
 20 24  1  0  0  0  0
 20 25  1  0  0  0  0
 21 19  1  0  0  0  0
 21 18  1  1  0  0  0
 22 19  1  0  0  0  0
 24 22  1  0  0  0  0
 25 21  1  0  0  0  0
 27 26  1  0  0  0  0
 27 31  1  0  0  0  0
 28 27  1  0  0  0  0
 29 28  2  0  0  0  0
 30 32  2  0  0  0  0
 31 30  1  0  0  0  0
 34 33  1  0  0  0  0
 35 33  1  0  0  0  0
 36 30  1  1  0  0  0
 36 37  1  0  0  0  0
 36 34  1  0  0  0  0
 37 35  1  0  0  0  0
 38 40  1  0  0  0  0
 38 39  1  0  0  0  0
 41 42  1  0  0  0  0
 42 43  1  0  0  0  0
 43 44  1  0  0  0  0
 44 49  1  0  0  0  0
 45 46  1  0  0  0  0
 47 50  1  0  0  0  0
 48 51  2  0  0  0  0
 49 47  2  0  0  0  0
 49 48  1  0  0  0  0
 50 45  2  0  0  0  0
 51 45  1  0  0  0  0
M  END
>  <MODEL>
7

>  <REMARK>
 VINA RESULT:      -6.5      3.126      9.283
  Name = 
  12 active torsions:
  status: ('A' for Active; 'I' for Inactive)
    1  A    between atoms: C_1  and  C_47
    2  A    between atoms: C_3  and  N_28
    3  A    between atoms: N_5  and  N_8
    4  A    between atoms: N_5  and  O_21
    5  A    between atoms: C_6  and  C_46
    6  A    between atoms: N_8  and  N_43
    7  A    between atoms: C_12  and  N_14
    8  A    between atoms: N_20  and  N_42
    9  A    between atoms: O_21  and  C_26
   10  A    between atoms: C_29  and  C_46
   11  A    between atoms: C_34  and  C_45
   12  A    between atoms: C_37  and  N_43
                            x       y       z     vdW  Elec       q    Type
                         _______ _______ _______ _____ _____    ______ ____

>  <TORSDO>
F 12

$$$$
=
 OpenBabel11062421223D

 51 56  0  0  1  0  0  0  0  0999 V2000
  191.8510  172.7540  139.5050 C   0  0  1  0  0  3  0  0  0  0  0  0
  192.1550  173.5580  140.7440 C   0  0  0  0  0  3  0  0  0  0  0  0
  188.8260  174.7530  141.5480 N   0  0  0  0  0  0  0  0  0  0  0  0
  191.2920  174.8790  145.1100 C   0  0  1  0  0  3  0  0  0  0  0  0
  188.8210  175.3010  142.8770 C   0  0  0  0  0  0  0  0  0  0  0  0
  189.5860  173.6950  139.5910 N   0  0  0  0  0  0  0  0  0  0  0  0
  191.5630  174.9140  142.6730 C   0  0  0  0  0  2  0  0  0  0  0  0
  188.0130  176.2320  143.1290 O   0  0  0  0  0  0  0  0  0  0  0  0
  189.8940  175.4930  145.2550 C   0  0  2  0  0  3  0  0  0  0  0  0
  189.8150  174.1930  140.9140 C   0  0  0  0  0  0  0  0  0  0  0  0
  190.9670  174.2240  143.8230 N   0  0  2  0  0  0  0  0  0  0  0  0
  189.5660  174.6380  144.0330 C   0  0  2  0  0  3  0  0  0  0  0  0
  191.2010  174.1830  141.4330 C   0  0  0  0  0  0  0  0  0  0  0  0
  190.5020  173.0680  138.9160 C   0  0  0  0  0  3  0  0  0  0  0  0
  193.7910  170.8060  138.6700 O   0  0  0  0  0  0  0  0  0  0  0  0
  192.8810  172.9540  138.4970 N   0  0  0  0  0  2  0  0  0  0  0  0
  193.8070  171.9350  138.1090 C   0  0  0  0  0  0  0  0  0  0  0  0
  194.7770  172.2090  137.0030 C   0  0  0  0  0  2  0  0  0  0  0  0
  196.8020  173.2830  138.1090 C   0  0  1  0  0  3  0  0  0  0  0  0
  196.7760  175.4320  136.1290 C   0  0  2  0  0  3  0  0  0  0  0  0
  195.5660  173.5040  137.2100 C   0  0  1  0  0  3  0  0  0  0  0  0
  197.9410  174.0510  137.7500 O   0  0  0  0  0  0  0  0  0  0  0  0
  197.7490  175.6300  134.9830 C   0  0  0  0  0  1  0  0  0  0  0  0
  197.5420  175.3710  137.4550 C   0  0  0  0  0  2  0  0  0  0  0  0
  195.9600  174.1580  135.8870 C   0  0  0  0  0  2  0  0  0  0  0  0
  197.9410  171.4800  140.1920 C   0  0  0  0  0  1  0  0  0  0  0  0
  196.8100  172.3480  140.4830 N   0  0  0  0  0  0  0  0  0  0  0  0
  196.4660  173.4040  139.5670 C   0  0  0  0  0  0  0  0  0  0  0  0
  195.8710  174.4360  139.9830 O   0  0  0  0  0  0  0  0  0  0  0  0
  196.7630  172.7460  142.9520 C   0  0  0  0  0  0  0  0  0  0  0  0
  196.1930  172.2310  141.7410 N   0  0  0  0  0  2  0  0  0  0  0  0
  197.7630  173.5170  142.9160 O   0  0  0  0  0  0  0  0  0  0  0  0
  195.3380  170.5810  145.4360 C   0  0  0  0  0  2  0  0  0  0  0  0
  195.2920  171.2250  144.1300 N   0  0  0  0  0  2  0  0  0  0  0  0
  196.6120  171.0150  146.1380 C   0  0  0  0  0  2  0  0  0  0  0  0
  196.1190  172.4170  144.2560 C   0  0  1  0  0  3  0  0  0  0  0  0
  197.1700  172.1460  145.3120 C   0  0  0  0  0  2  0  0  0  0  0  0
  192.3980  175.8530  145.0480 N   0  0  0  0  0  0  0  0  0  0  0  0
  192.5990  176.3880  146.3880 C   0  0  0  0  0  1  0  0  0  0  0  0
  193.6100  175.1080  144.7580 C   0  0  0  0  0  1  0  0  0  0  0  0
  189.9090  176.8560  144.9390 O   0  0  0  0  0  0  0  0  0  0  0  0
  189.3880  177.4610  146.0300 N   0  0  0  0  0  2  0  0  0  0  0  0
  188.4260  176.5930  146.5620 N   0  0  0  0  0  2  0  0  0  0  0  0
  187.4110  177.3860  147.1180 N   0  0  0  0  0  2  0  0  0  0  0  0
  184.2510  178.9190  144.8480 C   0  0  0  0  0  0  0  0  0  0  0  0
  183.2210  179.4020  144.1160 F   0  0  0  0  0  0  0  0  0  0  0  0
  185.0670  178.0520  146.8900 C   0  0  0  0  0  3  0  0  0  0  0  0
  186.5250  178.2940  145.0020 C   0  0  0  0  0  3  0  0  0  0  0  0
  186.3400  177.9170  146.3350 C   0  0  0  0  0  0  0  0  0  0  0  0
  184.0490  178.5480  146.1400 N   0  0  0  0  0  0  0  0  0  0  0  0
  185.4820  178.7890  144.2860 N   0  0  0  0  0  0  0  0  0  0  0  0
  1 16  1  6  0  0  0
  1  2  1  0  0  0  0
  2 13  2  0  0  0  0
  3  5  1  0  0  0  0
  4 38  1  6  0  0  0
  4  9  1  0  0  0  0
  5  8  2  0  0  0  0
  6 10  1  0  0  0  0
  9 41  1  6  0  0  0
 10 13  1  0  0  0  0
 10  3  2  0  0  0  0
 11  7  1  6  0  0  0
 11 12  1  0  0  0  0
 11  4  1  0  0  0  0
 12  5  1  6  0  0  0
 12  9  1  0  0  0  0
 13  7  1  0  0  0  0
 14  1  1  0  0  0  0
 14  6  2  0  0  0  0
 17 16  1  0  0  0  0
 17 15  2  0  0  0  0
 18 17  1  0  0  0  0
 19 28  1  1  0  0  0
 20 23  1  6  0  0  0
 20 24  1  0  0  0  0
 21 18  1  6  0  0  0
 21 19  1  0  0  0  0
 22 19  1  0  0  0  0
 24 22  1  0  0  0  0
 25 20  1  0  0  0  0
 25 21  1  0  0  0  0
 26 27  1  0  0  0  0
 27 31  1  0  0  0  0
 28 29  2  0  0  0  0
 28 27  1  0  0  0  0
 31 30  1  0  0  0  0
 32 30  2  0  0  0  0
 33 35  1  0  0  0  0
 34 36  1  0  0  0  0
 34 33  1  0  0  0  0
 36 30  1  6  0  0  0
 36 37  1  0  0  0  0
 37 35  1  0  0  0  0
 38 39  1  0  0  0  0
 40 38  1  0  0  0  0
 41 42  1  0  0  0  0
 42 43  1  0  0  0  0
 43 44  1  0  0  0  0
 45 50  2  0  0  0  0
 46 45  1  0  0  0  0
 48 49  1  0  0  0  0
 49 47  2  0  0  0  0
 49 44  1  0  0  0  0
 50 47  1  0  0  0  0
 51 45  1  0  0  0  0
 51 48  2  0  0  0  0
M  END
>  <MODEL>
8

>  <REMARK>
 VINA RESULT:      -6.4      3.392      9.752
  Name = 
  12 active torsions:
  status: ('A' for Active; 'I' for Inactive)
    1  A    between atoms: C_1  and  C_47
    2  A    between atoms: C_3  and  N_28
    3  A    between atoms: N_5  and  N_8
    4  A    between atoms: N_5  and  O_21
    5  A    between atoms: C_6  and  C_46
    6  A    between atoms: N_8  and  N_43
    7  A    between atoms: C_12  and  N_14
    8  A    between atoms: N_20  and  N_42
    9  A    between atoms: O_21  and  C_26
   10  A    between atoms: C_29  and  C_46
   11  A    between atoms: C_34  and  C_45
   12  A    between atoms: C_37  and  N_43
                            x       y       z     vdW  Elec       q    Type
                         _______ _______ _______ _____ _____    ______ ____

>  <TORSDO>
F 12

$$$$
=
 OpenBabel11062421223D

 51 56  0  0  1  0  0  0  0  0999 V2000
  191.5440  170.6630  141.8680 C   0  0  1  0  0  3  0  0  0  0  0  0
  191.3240  172.0430  142.4330 C   0  0  0  0  0  3  0  0  0  0  0  0
  188.8330  173.2860  140.1080 N   0  0  0  0  0  0  0  0  0  0  0  0
  188.6060  175.5510  143.7970 C   0  0  1  0  0  3  0  0  0  0  0  0
  188.2450  174.4880  140.6330 C   0  0  0  0  0  0  0  0  0  0  0  0
  190.1620  171.3530  139.9590 N   0  0  0  0  0  0  0  0  0  0  0  0
  190.2390  174.2160  142.5460 C   0  0  0  0  0  2  0  0  0  0  0  0
  187.8310  175.3490  139.8130 O   0  0  0  0  0  0  0  0  0  0  0  0
  187.7120  176.0560  142.6580 C   0  0  2  0  0  3  0  0  0  0  0  0
  189.7320  172.5240  140.6610 C   0  0  0  0  0  0  0  0  0  0  0  0
  188.8900  174.2650  143.1210 N   0  0  2  0  0  0  0  0  0  0  0  0
  187.8860  174.6420  142.1080 C   0  0  2  0  0  3  0  0  0  0  0  0
  190.4420  172.8920  141.9070 C   0  0  0  0  0  0  0  0  0  0  0  0
  191.0080  170.5080  140.4690 C   0  0  0  0  0  3  0  0  0  0  0  0
  192.7330  168.5320  143.3840 O   0  0  0  0  0  0  0  0  0  0  0  0
  192.9570  170.3170  141.8890 N   0  0  0  0  0  2  0  0  0  0  0  0
  193.4860  169.2280  142.6510 C   0  0  0  0  0  0  0  0  0  0  0  0
  194.9410  168.8970  142.5420 C   0  0  0  0  0  2  0  0  0  0  0  0
  196.8600  170.4030  141.8150 C   0  0  1  0  0  3  0  0  0  0  0  0
  196.6950  169.3440  139.0960 C   0  0  2  0  0  3  0  0  0  0  0  0
  195.6240  169.5960  141.3640 C   0  0  1  0  0  3  0  0  0  0  0  0
  197.9410  170.3980  140.8940 O   0  0  0  0  0  0  0  0  0  0  0  0
  197.6660  168.3920  138.4270 C   0  0  0  0  0  1  0  0  0  0  0  0
  197.4440  170.5880  139.5870 C   0  0  0  0  0  2  0  0  0  0  0  0
  195.9850  168.6200  140.2440 C   0  0  0  0  0  2  0  0  0  0  0  0
  197.8250  171.5950  144.3710 C   0  0  0  0  0  1  0  0  0  0  0  0
  196.7450  172.2090  143.6140 N   0  0  0  0  0  0  0  0  0  0  0  0
  196.4940  171.7900  142.2600 C   0  0  0  0  0  0  0  0  0  0  0  0
  195.9560  172.5830  141.4390 O   0  0  0  0  0  0  0  0  0  0  0  0
  194.8610  173.2190  144.9110 C   0  0  0  0  0  0  0  0  0  0  0  0
  196.0890  173.3170  144.1780 N   0  0  0  0  0  2  0  0  0  0  0  0
  194.4090  172.0930  145.2640 O   0  0  0  0  0  0  0  0  0  0  0  0
  194.6260  176.6160  146.0480 C   0  0  0  0  0  2  0  0  0  0  0  0
  194.9520  175.2160  146.2800 N   0  0  0  0  0  2  0  0  0  0  0  0
  194.1320  176.7620  144.6200 C   0  0  0  0  0  2  0  0  0  0  0  0
  194.1540  174.4680  145.3170 C   0  0  1  0  0  3  0  0  0  0  0  0
  193.9190  175.3590  144.1150 C   0  0  0  0  0  2  0  0  0  0  0  0
  189.7930  176.3810  144.0720 N   0  0  0  0  0  0  0  0  0  0  0  0
  189.3380  177.6320  144.6650 C   0  0  0  0  0  1  0  0  0  0  0  0
  190.5440  175.7220  145.1260 C   0  0  0  0  0  1  0  0  0  0  0  0
  188.3840  176.9990  141.8710 O   0  0  0  0  0  0  0  0  0  0  0  0
  187.4040  177.7990  141.3930 N   0  0  0  0  0  2  0  0  0  0  0  0
  187.3290  178.9100  142.2420 N   0  0  0  0  0  2  0  0  0  0  0  0
  185.9790  179.0840  142.5830 N   0  0  0  0  0  2  0  0  0  0  0  0
  184.5470  178.6240  146.4860 C   0  0  0  0  0  0  0  0  0  0  0  0
  184.0770  178.4890  147.7460 F   0  0  0  0  0  0  0  0  0  0  0  0
  184.1310  178.9500  144.1810 C   0  0  0  0  0  3  0  0  0  0  0  0
  186.3770  178.7440  144.9950 C   0  0  0  0  0  3  0  0  0  0  0  0
  185.5010  178.9190  143.9200 C   0  0  0  0  0  0  0  0  0  0  0  0
  183.6800  178.8030  145.4540 N   0  0  0  0  0  0  0  0  0  0  0  0
  185.8860  178.5980  146.2530 N   0  0  0  0  0  0  0  0  0  0  0  0
  1 16  1  6  0  0  0
  1  2  1  0  0  0  0
  3  5  1  0  0  0  0
  3 10  2  0  0  0  0
  4 38  1  6  0  0  0
  6 14  2  0  0  0  0
  6 10  1  0  0  0  0
  8  5  2  0  0  0  0
  9 41  1  6  0  0  0
  9  4  1  0  0  0  0
 10 13  1  0  0  0  0
 11  7  1  6  0  0  0
 11  4  1  0  0  0  0
 12  5  1  6  0  0  0
 12  9  1  0  0  0  0
 12 11  1  0  0  0  0
 13  2  2  0  0  0  0
 13  7  1  0  0  0  0
 14  1  1  0  0  0  0
 16 17  1  0  0  0  0
 17 15  2  0  0  0  0
 18 17  1  0  0  0  0
 19 28  1  6  0  0  0
 20 23  1  1  0  0  0
 20 24  1  0  0  0  0
 20 25  1  0  0  0  0
 21 19  1  0  0  0  0
 21 18  1  1  0  0  0
 22 19  1  0  0  0  0
 24 22  1  0  0  0  0
 25 21  1  0  0  0  0
 27 31  1  0  0  0  0
 27 26  1  0  0  0  0
 28 27  1  0  0  0  0
 29 28  2  0  0  0  0
 30 32  2  0  0  0  0
 31 30  1  0  0  0  0
 33 34  1  0  0  0  0
 35 33  1  0  0  0  0
 36 30  1  6  0  0  0
 36 34  1  0  0  0  0
 37 35  1  0  0  0  0
 37 36  1  0  0  0  0
 38 39  1  0  0  0  0
 38 40  1  0  0  0  0
 42 41  1  0  0  0  0
 42 43  1  0  0  0  0
 43 44  1  0  0  0  0
 44 49  1  0  0  0  0
 45 46  1  0  0  0  0
 47 50  1  0  0  0  0
 48 51  2  0  0  0  0
 49 47  2  0  0  0  0
 49 48  1  0  0  0  0
 50 45  2  0  0  0  0
 51 45  1  0  0  0  0
M  END
>  <MODEL>
9

>  <REMARK>
 VINA RESULT:      -6.3      3.873      9.380
  Name = 
  12 active torsions:
  status: ('A' for Active; 'I' for Inactive)
    1  A    between atoms: C_1  and  C_47
    2  A    between atoms: C_3  and  N_28
    3  A    between atoms: N_5  and  N_8
    4  A    between atoms: N_5  and  O_21
    5  A    between atoms: C_6  and  C_46
    6  A    between atoms: N_8  and  N_43
    7  A    between atoms: C_12  and  N_14
    8  A    between atoms: N_20  and  N_42
    9  A    between atoms: O_21  and  C_26
   10  A    between atoms: C_29  and  C_46
   11  A    between atoms: C_34  and  C_45
   12  A    between atoms: C_37  and  N_43
                            x       y       z     vdW  Elec       q    Type
                         _______ _______ _______ _____ _____    ______ ____

>  <TORSDO>
F 12

$$$$
