=
 OpenBabel11062422203D

 41 46  0  0  1  0  0  0  0  0999 V2000
  188.8910  174.1240  139.2230 O   0  0  0  0  0  1  0  0  0  0  0  0
  191.0170  173.8600  142.3960 C   0  0  0  0  0  2  0  0  0  0  0  0
  185.4700  177.6550  139.8770 O   0  0  0  0  0  0  0  0  0  0  0  0
  186.0640  178.5240  142.5350 O   0  0  0  0  0  0  0  0  0  0  0  0
  188.2640  175.6770  140.9250 C   0  0  0  0  0  0  0  0  0  0  0  0
  187.0840  176.0870  140.3020 O   0  0  0  0  0  0  0  0  0  0  0  0
  190.1730  176.1510  142.3470 N   0  0  0  0  0  2  0  0  0  0  0  0
  187.8170  177.5560  143.6540 O   0  0  0  0  0  0  0  0  0  0  0  0
  188.2330  177.7300  142.3360 C   0  0  2  0  0  3  0  0  0  0  0  0
  188.8210  174.4170  140.5420 N   0  0  0  0  0  0  0  0  0  0  0  0
  188.7320  173.3300  141.4650 C   0  0  0  0  0  0  0  0  0  0  0  0
  189.9550  172.7960  142.1490 C   0  0  1  0  0  3  0  0  0  0  0  0
  186.4200  177.6740  143.5930 C   0  0  1  0  0  3  0  0  0  0  0  0
  187.0360  178.2660  141.5700 C   0  0  1  0  0  3  0  0  0  0  0  0
  188.8710  176.4610  141.8370 C   0  0  0  0  0  0  0  0  0  0  0  0
  190.4580  175.0140  143.2150 C   0  0  2  0  0  3  0  0  0  0  0  0
  187.6130  172.8120  141.7140 O   0  0  0  0  0  0  0  0  0  0  0  0
  186.4870  177.3230  140.5410 C   0  0  0  0  0  0  0  0  0  0  0  0
  191.6100  172.9590  139.7620 F   0  0  0  0  0  0  0  0  0  0  0  0
  191.1100  171.6970  140.0290 C   0  0  1  0  0  3  0  0  0  0  0  0
  190.4590  170.4090  142.0360 C   0  0  0  0  0  3  0  0  0  0  0  0
  192.1310  169.4870  140.4550 C   0  0  0  0  0  3  0  0  0  0  0  0
  190.9530  169.1660  141.3360 C   0  0  0  0  0  2  0  0  0  0  0  0
  192.2020  170.6750  139.8360 C   0  0  0  0  0  3  0  0  0  0  0  0
  190.5200  171.6050  141.4290 C   0  0  0  0  0  0  0  0  0  0  0  0
  192.6300  174.4550  144.4020 C   0  0  0  0  0  1  0  0  0  0  0  0
  191.4430  175.4050  144.3190 C   0  0  0  0  0  3  0  0  0  0  0  0
  191.9400  176.8220  144.1120 C   0  0  0  0  0  1  0  0  0  0  0  0
  185.8650  178.1690  144.9310 C   0  0  2  0  0  3  0  0  0  0  0  0
  186.2910  177.2610  146.0020 N   0  0  0  0  0  0  0  0  0  0  0  0
  185.3770  177.3960  147.1330 C   0  0  0  0  0  2  0  0  0  0  0  0
  187.3190  177.9300  146.8020 C   0  0  1  0  0  3  0  0  0  0  0  0
  186.4170  178.0460  148.0140 C   0  0  0  0  0  2  0  0  0  0  0  0
  190.8220  176.7200  147.6850 C   0  0  0  0  0  3  0  0  0  0  0  0
  188.3380  175.6230  147.0220 C   0  0  0  0  0  3  0  0  0  0  0  0
  189.7430  177.5570  147.3880 C   0  0  0  0  0  3  0  0  0  0  0  0
  188.4980  177.0170  147.0320 C   0  0  0  0  0  0  0  0  0  0  0  0
  190.6590  175.3320  147.6470 C   0  0  0  0  0  3  0  0  0  0  0  0
  189.4160  174.7850  147.3200 C   0  0  0  0  0  3  0  0  0  0  0  0
  184.4660  178.1940  144.8700 O   0  0  0  0  0  0  0  0  0  0  0  0
  184.1610  179.4710  144.7720 O   0  0  0  0  0  1  0  0  0  0  0  0
  1 10  1  0  0  0  0
  2 16  1  0  0  0  0
  3 18  2  0  0  0  0
  4 13  1  0  0  0  0
  5 15  2  0  0  0  0
  6 18  1  0  0  0  0
  6  5  1  0  0  0  0
  7 16  1  0  0  0  0
  9 15  1  6  0  0  0
  9  8  1  0  0  0  0
 10  5  1  0  0  0  0
 10 11  1  0  0  0  0
 11 17  2  0  0  0  0
 11 12  1  0  0  0  0
 12 25  1  6  0  0  0
 12  2  1  0  0  0  0
 13  8  1  0  0  0  0
 13 29  1  1  0  0  0
 14 18  1  6  0  0  0
 14  9  1  0  0  0  0
 14  4  1  0  0  0  0
 15  7  1  0  0  0  0
 16 27  1  1  0  0  0
 20 19  1  1  0  0  0
 20 25  1  0  0  0  0
 22 23  1  0  0  0  0
 23 21  1  0  0  0  0
 24 20  1  0  0  0  0
 24 22  2  0  0  0  0
 25 21  2  0  0  0  0
 27 26  1  0  0  0  0
 28 27  1  0  0  0  0
 29 40  1  6  0  0  0
 29 30  1  0  0  0  0
 30 32  1  0  0  0  0
 30 31  1  0  0  0  0
 31 33  1  0  0  0  0
 32 37  1  1  0  0  0
 32 33  1  0  0  0  0
 35 37  2  0  0  0  0
 35 39  1  0  0  0  0
 36 34  2  0  0  0  0
 37 36  1  0  0  0  0
 38 34  1  0  0  0  0
 39 38  2  0  0  0  0
 41 40  1  0  0  0  0
M  END
>  <MODEL>
1

>  <REMARK>
 VINA RESULT:      -8.7      0.000      0.000
  Name = 
  6 active torsions:
  status: ('A' for Active; 'I' for Inactive)
    1  A    between atoms: N_5  and  C_19
    2  A    between atoms: O_8  and  C_19
    3  A    between atoms: C_19  and  C_28
    4  A    between atoms: C_26  and  C_41
    5  A    between atoms: C_27  and  C_31
    6  A    between atoms: C_34  and  C_35
                            x       y       z     vdW  Elec       q    Type
                         _______ _______ _______ _____ _____    ______ ____

>  <TORSDO>
F 6

$$$$
=
 OpenBabel11062422203D

 41 46  0  0  1  0  0  0  0  0999 V2000
  187.8210  175.4150  141.6060 O   0  0  0  0  0  1  0  0  0  0  0  0
  188.5240  175.9850  145.3260 C   0  0  0  0  0  2  0  0  0  0  0  0
  191.8280  173.3780  139.5130 O   0  0  0  0  0  0  0  0  0  0  0  0
  193.6010  173.2040  141.7480 O   0  0  0  0  0  0  0  0  0  0  0  0
  189.9890  174.6860  142.2910 C   0  0  0  0  0  0  0  0  0  0  0  0
  190.4690  174.4680  140.9980 O   0  0  0  0  0  0  0  0  0  0  0  0
  189.9590  174.1270  144.6520 N   0  0  0  0  0  2  0  0  0  0  0  0
  192.8690  173.9140  143.8040 O   0  0  0  0  0  0  0  0  0  0  0  0
  191.8000  173.2440  143.2090 C   0  0  2  0  0  3  0  0  0  0  0  0
  188.8680  175.5590  142.4510 N   0  0  0  0  0  0  0  0  0  0  0  0
  189.0910  176.8490  143.0240 C   0  0  0  0  0  0  0  0  0  0  0  0
  188.5740  177.1860  144.3900 C   0  0  1  0  0  3  0  0  0  0  0  0
  193.7380  174.1900  142.7380 C   0  0  1  0  0  3  0  0  0  0  0  0
  192.2480  172.8730  141.8060 C   0  0  1  0  0  3  0  0  0  0  0  0
  190.5490  174.0680  143.3490 C   0  0  0  0  0  0  0  0  0  0  0  0
  189.8940  175.3370  145.4630 C   0  0  2  0  0  3  0  0  0  0  0  0
  189.7340  177.7170  142.3780 O   0  0  0  0  0  0  0  0  0  0  0  0
  191.5080  173.5840  140.7120 C   0  0  0  0  0  0  0  0  0  0  0  0
  187.1240  178.1610  146.7160 F   0  0  0  0  0  0  0  0  0  0  0  0
  186.3770  178.1120  145.5530 C   0  0  1  0  0  3  0  0  0  0  0  0
  186.8110  178.3100  143.1270 C   0  0  0  0  0  3  0  0  0  0  0  0
  185.1440  179.7860  144.2170 C   0  0  0  0  0  3  0  0  0  0  0  0
  185.4610  178.9700  142.9910 C   0  0  0  0  0  2  0  0  0  0  0  0
  185.5700  179.3790  145.4220 C   0  0  0  0  0  3  0  0  0  0  0  0
  187.2510  177.8940  144.3260 C   0  0  0  0  0  0  0  0  0  0  0  0
  190.8130  176.2040  147.6640 C   0  0  0  0  0  1  0  0  0  0  0  0
  190.1870  175.0250  146.9330 C   0  0  0  0  0  3  0  0  0  0  0  0
  188.9210  174.5970  147.6490 C   0  0  0  0  0  1  0  0  0  0  0  0
  195.1810  174.2960  143.2370 C   0  0  2  0  0  3  0  0  0  0  0  0
  195.2620  173.7800  144.6080 N   0  0  0  0  0  0  0  0  0  0  0  0
  196.0270  174.7180  145.4270 C   0  0  0  0  0  2  0  0  0  0  0  0
  196.3880  172.8480  144.6930 C   0  0  1  0  0  3  0  0  0  0  0  0
  197.1930  173.7730  145.5830 C   0  0  0  0  0  2  0  0  0  0  0  0
  194.3500  169.7950  145.7140 C   0  0  0  0  0  3  0  0  0  0  0  0
  196.8930  170.8600  146.1770 C   0  0  0  0  0  3  0  0  0  0  0  0
  194.7120  171.0180  145.1430 C   0  0  0  0  0  3  0  0  0  0  0  0
  195.9770  171.5730  145.3880 C   0  0  0  0  0  0  0  0  0  0  0  0
  195.2590  169.1060  146.5210 C   0  0  0  0  0  3  0  0  0  0  0  0
  196.5320  169.6370  146.7480 C   0  0  0  0  0  3  0  0  0  0  0  0
  195.5780  175.6390  143.2200 O   0  0  0  0  0  0  0  0  0  0  0  0
  194.8790  176.1800  142.2430 O   0  0  0  0  0  1  0  0  0  0  0  0
  1 10  1  0  0  0  0
  2 16  1  0  0  0  0
  3 18  2  0  0  0  0
  4 14  1  0  0  0  0
  4 13  1  0  0  0  0
  5 10  1  0  0  0  0
  5 15  2  0  0  0  0
  6  5  1  0  0  0  0
  7 16  1  0  0  0  0
  9 15  1  6  0  0  0
  9  8  1  0  0  0  0
 10 11  1  0  0  0  0
 11 12  1  0  0  0  0
 12 25  1  6  0  0  0
 12  2  1  0  0  0  0
 13 29  1  1  0  0  0
 13  8  1  0  0  0  0
 14 18  1  6  0  0  0
 14  9  1  0  0  0  0
 15  7  1  0  0  0  0
 16 27  1  1  0  0  0
 17 11  2  0  0  0  0
 18  6  1  0  0  0  0
 20 19  1  1  0  0  0
 21 25  2  0  0  0  0
 22 24  2  0  0  0  0
 23 21  1  0  0  0  0
 23 22  1  0  0  0  0
 24 20  1  0  0  0  0
 25 20  1  0  0  0  0
 27 28  1  0  0  0  0
 27 26  1  0  0  0  0
 29 40  1  1  0  0  0
 29 30  1  0  0  0  0
 30 32  1  0  0  0  0
 30 31  1  0  0  0  0
 31 33  1  0  0  0  0
 32 37  1  1  0  0  0
 32 33  1  0  0  0  0
 34 38  1  0  0  0  0
 35 39  1  0  0  0  0
 36 37  1  0  0  0  0
 36 34  2  0  0  0  0
 37 35  2  0  0  0  0
 38 39  2  0  0  0  0
 41 40  1  0  0  0  0
M  END
>  <MODEL>
2

>  <REMARK>
 VINA RESULT:      -8.6      3.897      8.047
  Name = 
  6 active torsions:
  status: ('A' for Active; 'I' for Inactive)
    1  A    between atoms: N_5  and  C_19
    2  A    between atoms: O_8  and  C_19
    3  A    between atoms: C_19  and  C_28
    4  A    between atoms: C_26  and  C_41
    5  A    between atoms: C_27  and  C_31
    6  A    between atoms: C_34  and  C_35
                            x       y       z     vdW  Elec       q    Type
                         _______ _______ _______ _____ _____    ______ ____

>  <TORSDO>
F 6

$$$$
=
 OpenBabel11062422203D

 41 46  0  0  1  0  0  0  0  0999 V2000
  192.4340  171.2900  141.7670 O   0  0  0  0  0  1  0  0  0  0  0  0
  193.8380  173.9740  144.1090 C   0  0  0  0  0  2  0  0  0  0  0  0
  187.9430  172.7090  140.2150 O   0  0  0  0  0  0  0  0  0  0  0  0
  187.6520  175.2150  141.5580 O   0  0  0  0  0  0  0  0  0  0  0  0
  190.9790  173.1600  142.0560 C   0  0  0  0  0  0  0  0  0  0  0  0
  189.8810  172.5720  141.4270 O   0  0  0  0  0  0  0  0  0  0  0  0
  192.2780  175.1300  142.6270 N   0  0  0  0  0  2  0  0  0  0  0  0
  189.3700  175.9740  142.8760 O   0  0  0  0  0  0  0  0  0  0  0  0
  189.9550  175.4090  141.7440 C   0  0  2  0  0  3  0  0  0  0  0  0
  192.0050  172.2990  142.5590 N   0  0  0  0  0  0  0  0  0  0  0  0
  192.1160  172.1340  143.9740 C   0  0  0  0  0  0  0  0  0  0  0  0
  193.2840  172.6950  144.7260 C   0  0  1  0  0  3  0  0  0  0  0  0
  188.0620  175.4670  142.8760 C   0  0  1  0  0  3  0  0  0  0  0  0
  188.8260  174.8070  140.9260 C   0  0  1  0  0  3  0  0  0  0  0  0
  191.0810  174.5000  142.1590 C   0  0  0  0  0  0  0  0  0  0  0  0
  192.7610  175.0430  144.0000 C   0  0  2  0  0  3  0  0  0  0  0  0
  191.2200  171.5120  144.6020 O   0  0  0  0  0  0  0  0  0  0  0  0
  188.8570  173.3100  140.8360 C   0  0  0  0  0  0  0  0  0  0  0  0
  195.8340  173.2320  146.0180 F   0  0  0  0  0  0  0  0  0  0  0  0
  195.7840  172.0390  145.3200 C   0  0  1  0  0  3  0  0  0  0  0  0
  194.0540  170.3770  144.7210 C   0  0  0  0  0  3  0  0  0  0  0  0
  196.0980  169.6640  145.9280 C   0  0  0  0  0  3  0  0  0  0  0  0
  195.1100  169.3070  144.8500 C   0  0  0  0  0  2  0  0  0  0  0  0
  196.4200  170.9480  146.1460 C   0  0  0  0  0  3  0  0  0  0  0  0
  194.3600  171.6680  144.9320 C   0  0  0  0  0  0  0  0  0  0  0  0
  192.2390  177.4780  144.4870 C   0  0  0  0  0  1  0  0  0  0  0  0
  193.3060  176.3930  144.4720 C   0  0  0  0  0  3  0  0  0  0  0  0
  193.9210  176.2660  145.8520 C   0  0  0  0  0  1  0  0  0  0  0  0
  187.1130  176.4330  143.5910 C   0  0  2  0  0  3  0  0  0  0  0  0
  187.2410  176.2590  145.0420 N   0  0  0  0  0  0  0  0  0  0  0  0
  186.1020  176.8920  145.7010 C   0  0  0  0  0  2  0  0  0  0  0  0
  188.0920  177.3270  145.5700 C   0  0  1  0  0  3  0  0  0  0  0  0
  186.9450  177.9880  146.3070 C   0  0  0  0  0  2  0  0  0  0  0  0
  190.4880  174.8850  147.2460 C   0  0  0  0  0  3  0  0  0  0  0  0
  189.9040  177.6180  147.3140 C   0  0  0  0  0  3  0  0  0  0  0  0
  189.4600  175.4010  146.4520 C   0  0  0  0  0  3  0  0  0  0  0  0
  189.1430  176.7680  146.4970 C   0  0  0  0  0  0  0  0  0  0  0  0
  191.2220  175.7360  148.0760 C   0  0  0  0  0  3  0  0  0  0  0  0
  190.9330  177.1020  148.1060 C   0  0  0  0  0  3  0  0  0  0  0  0
  185.7970  176.1590  143.2020 O   0  0  0  0  0  0  0  0  0  0  0  0
  185.4340  177.2080  142.4930 O   0  0  0  0  0  1  0  0  0  0  0  0
  1 10  1  0  0  0  0
  2 12  1  0  0  0  0
  3 18  2  0  0  0  0
  4 13  1  0  0  0  0
  5 15  2  0  0  0  0
  5 10  1  0  0  0  0
  6  5  1  0  0  0  0
  7 16  1  0  0  0  0
  9 15  1  1  0  0  0
  9  8  1  0  0  0  0
 10 11  1  0  0  0  0
 11 17  2  0  0  0  0
 11 12  1  0  0  0  0
 12 25  1  6  0  0  0
 13  8  1  0  0  0  0
 13 29  1  6  0  0  0
 14 18  1  1  0  0  0
 14  4  1  0  0  0  0
 14  9  1  0  0  0  0
 15  7  1  0  0  0  0
 16  2  1  0  0  0  0
 16 27  1  6  0  0  0
 18  6  1  0  0  0  0
 20 19  1  1  0  0  0
 20 24  1  0  0  0  0
 21 23  1  0  0  0  0
 21 25  2  0  0  0  0
 22 24  2  0  0  0  0
 23 22  1  0  0  0  0
 25 20  1  0  0  0  0
 27 26  1  0  0  0  0
 27 28  1  0  0  0  0
 29 40  1  6  0  0  0
 29 30  1  0  0  0  0
 30 32  1  0  0  0  0
 30 31  1  0  0  0  0
 31 33  1  0  0  0  0
 32 33  1  0  0  0  0
 32 37  1  1  0  0  0
 34 38  1  0  0  0  0
 35 39  1  0  0  0  0
 36 37  1  0  0  0  0
 36 34  2  0  0  0  0
 37 35  2  0  0  0  0
 38 39  2  0  0  0  0
 41 40  1  0  0  0  0
M  END
>  <MODEL>
3

>  <REMARK>
 VINA RESULT:      -8.1      2.870      3.982
  Name = 
  6 active torsions:
  status: ('A' for Active; 'I' for Inactive)
    1  A    between atoms: N_5  and  C_19
    2  A    between atoms: O_8  and  C_19
    3  A    between atoms: C_19  and  C_28
    4  A    between atoms: C_26  and  C_41
    5  A    between atoms: C_27  and  C_31
    6  A    between atoms: C_34  and  C_35
                            x       y       z     vdW  Elec       q    Type
                         _______ _______ _______ _____ _____    ______ ____

>  <TORSDO>
F 6

$$$$
=
 OpenBabel11062422203D

 41 46  0  0  1  0  0  0  0  0999 V2000
  190.5230  178.5010  144.5910 O   0  0  0  0  0  1  0  0  0  0  0  0
  188.2320  175.7010  143.3400 C   0  0  0  0  0  2  0  0  0  0  0  0
  195.1790  176.8020  144.7670 O   0  0  0  0  0  0  0  0  0  0  0  0
  194.8290  174.1140  143.8610 O   0  0  0  0  0  0  0  0  0  0  0  0
  191.6810  176.4760  144.0840 C   0  0  0  0  0  0  0  0  0  0  0  0
  192.8940  176.8710  144.6510 O   0  0  0  0  0  0  0  0  0  0  0  0
  190.4410  175.2180  142.4180 N   0  0  0  0  0  2  0  0  0  0  0  0
  192.7280  173.4060  143.2690 O   0  0  0  0  0  0  0  0  0  0  0  0
  192.8620  174.7070  142.7860 C   0  0  2  0  0  3  0  0  0  0  0  0
  190.4930  177.1520  144.5040 N   0  0  0  0  0  0  0  0  0  0  0  0
  189.5740  176.4480  145.3420 C   0  0  0  0  0  0  0  0  0  0  0  0
  188.2320  176.0230  144.8300 C   0  0  1  0  0  3  0  0  0  0  0  0
  193.7540  173.2840  144.2180 C   0  0  1  0  0  3  0  0  0  0  0  0
  194.2070  175.2150  143.2750 C   0  0  1  0  0  3  0  0  0  0  0  0
  191.6390  175.5070  143.1480 C   0  0  0  0  0  0  0  0  0  0  0  0
  189.2510  174.6200  143.0120 C   0  0  2  0  0  3  0  0  0  0  0  0
  189.8950  176.1760  146.5290 O   0  0  0  0  0  0  0  0  0  0  0  0
  194.1220  176.3350  144.2690 C   0  0  0  0  0  0  0  0  0  0  0  0
  186.9300  176.1720  147.4270 F   0  0  0  0  0  0  0  0  0  0  0  0
  186.2880  176.8730  146.4220 C   0  0  1  0  0  3  0  0  0  0  0  0
  186.9440  178.0400  144.3430 C   0  0  0  0  0  3  0  0  0  0  0  0
  185.6630  179.2420  146.0930 C   0  0  0  0  0  3  0  0  0  0  0  0
  185.8390  179.0330  144.6120 C   0  0  0  0  0  2  0  0  0  0  0  0
  185.8690  178.2250  146.9440 C   0  0  0  0  0  3  0  0  0  0  0  0
  187.1610  177.0150  145.1830 C   0  0  0  0  0  0  0  0  0  0  0  0
  188.9390  173.8720  140.6070 C   0  0  0  0  0  1  0  0  0  0  0  0
  188.6350  173.5820  142.0700 C   0  0  0  0  0  3  0  0  0  0  0  0
  189.1180  172.1900  142.4230 C   0  0  0  0  0  1  0  0  0  0  0  0
  194.1870  171.8220  144.3540 C   0  0  2  0  0  3  0  0  0  0  0  0
  193.1210  170.9490  143.8490 N   0  0  0  0  0  0  0  0  0  0  0  0
  193.1900  169.6640  144.5410 C   0  0  0  0  0  2  0  0  0  0  0  0
  193.5960  170.2790  142.6370 C   0  0  1  0  0  3  0  0  0  0  0  0
  193.6360  168.9200  143.3050 C   0  0  0  0  0  2  0  0  0  0  0  0
  191.6820  171.5060  139.5810 C   0  0  0  0  0  3  0  0  0  0  0  0
  191.6790  169.3040  141.3030 C   0  0  0  0  0  3  0  0  0  0  0  0
  192.5760  171.4550  140.6530 C   0  0  0  0  0  3  0  0  0  0  0  0
  192.5660  170.3650  141.5380 C   0  0  0  0  0  0  0  0  0  0  0  0
  190.7830  170.4570  139.3710 C   0  0  0  0  0  3  0  0  0  0  0  0
  190.7850  169.3540  140.2300 C   0  0  0  0  0  3  0  0  0  0  0  0
  194.4260  171.5350  145.7030 O   0  0  0  0  0  0  0  0  0  0  0  0
  195.7370  171.5800  145.8250 O   0  0  0  0  0  1  0  0  0  0  0  0
  2 12  1  0  0  0  0
  4 13  1  0  0  0  0
  5 10  1  0  0  0  0
  5  6  1  0  0  0  0
  7 16  1  0  0  0  0
  7 15  1  0  0  0  0
  8 13  1  0  0  0  0
  9 15  1  1  0  0  0
  9  8  1  0  0  0  0
  9 14  1  0  0  0  0
 10  1  1  0  0  0  0
 10 11  1  0  0  0  0
 11 17  2  0  0  0  0
 12 25  1  6  0  0  0
 12 11  1  0  0  0  0
 13 29  1  6  0  0  0
 14  4  1  1  0  0  0
 14 18  1  0  0  0  0
 15  5  2  0  0  0  0
 16 27  1  6  0  0  0
 16  2  1  0  0  0  0
 18  6  1  0  0  0  0
 18  3  2  0  0  0  0
 20 24  1  0  0  0  0
 20 19  1  1  0  0  0
 21 23  1  0  0  0  0
 21 25  2  0  0  0  0
 22 24  2  0  0  0  0
 23 22  1  0  0  0  0
 25 20  1  0  0  0  0
 26 27  1  0  0  0  0
 27 28  1  0  0  0  0
 29 40  1  1  0  0  0
 30 29  1  0  0  0  0
 30 31  1  0  0  0  0
 32 37  1  6  0  0  0
 32 33  1  0  0  0  0
 32 30  1  0  0  0  0
 33 31  1  0  0  0  0
 34 36  1  0  0  0  0
 35 37  1  0  0  0  0
 36 37  2  0  0  0  0
 38 34  2  0  0  0  0
 38 39  1  0  0  0  0
 39 35  2  0  0  0  0
 40 41  1  0  0  0  0
M  END
>  <MODEL>
4

>  <REMARK>
 VINA RESULT:      -8.1      3.728      8.665
  Name = 
  6 active torsions:
  status: ('A' for Active; 'I' for Inactive)
    1  A    between atoms: N_5  and  C_19
    2  A    between atoms: O_8  and  C_19
    3  A    between atoms: C_19  and  C_28
    4  A    between atoms: C_26  and  C_41
    5  A    between atoms: C_27  and  C_31
    6  A    between atoms: C_34  and  C_35
                            x       y       z     vdW  Elec       q    Type
                         _______ _______ _______ _____ _____    ______ ____

>  <TORSDO>
F 6

$$$$
=
 OpenBabel11062422203D

 41 46  0  0  1  0  0  0  0  0999 V2000
  187.0620  174.9820  142.4000 O   0  0  0  0  0  1  0  0  0  0  0  0
  189.0360  175.6930  145.6020 C   0  0  0  0  0  2  0  0  0  0  0  0
  190.2110  173.4720  138.8790 O   0  0  0  0  0  0  0  0  0  0  0  0
  192.7020  173.5680  140.2770 O   0  0  0  0  0  0  0  0  0  0  0  0
  189.4020  174.5600  142.1920 C   0  0  0  0  0  0  0  0  0  0  0  0
  189.3840  174.3900  140.8060 O   0  0  0  0  0  0  0  0  0  0  0  0
  190.3380  174.0350  144.3690 N   0  0  0  0  0  2  0  0  0  0  0  0
  192.7140  174.2020  142.4820 O   0  0  0  0  0  0  0  0  0  0  0  0
  191.5970  173.3870  142.3080 C   0  0  2  0  0  3  0  0  0  0  0  0
  188.3220  175.2780  142.7940 N   0  0  0  0  0  0  0  0  0  0  0  0
  188.5760  176.5940  143.2900 C   0  0  0  0  0  0  0  0  0  0  0  0
  188.5730  176.8770  144.7610 C   0  0  1  0  0  3  0  0  0  0  0  0
  193.0730  174.5770  141.1790 C   0  0  1  0  0  3  0  0  0  0  0  0
  191.5260  173.0600  140.8260 C   0  0  1  0  0  3  0  0  0  0  0  0
  190.3950  174.0380  142.9380 C   0  0  0  0  0  0  0  0  0  0  0  0
  190.4280  175.2380  145.1900 C   0  0  2  0  0  3  0  0  0  0  0  0
  188.8100  177.5300  142.4830 O   0  0  0  0  0  0  0  0  0  0  0  0
  190.3430  173.6500  140.1180 C   0  0  0  0  0  0  0  0  0  0  0  0
  187.3380  176.1860  147.3020 F   0  0  0  0  0  0  0  0  0  0  0  0
  186.4860  176.7910  146.3960 C   0  0  1  0  0  3  0  0  0  0  0  0
  186.6910  178.4200  144.5470 C   0  0  0  0  0  3  0  0  0  0  0  0
  185.1200  178.8500  146.4150 C   0  0  0  0  0  3  0  0  0  0  0  0
  185.3290  178.9460  144.9270 C   0  0  0  0  0  2  0  0  0  0  0  0
  185.6590  177.8340  147.1050 C   0  0  0  0  0  3  0  0  0  0  0  0
  187.2440  177.4010  145.2250 C   0  0  0  0  0  0  0  0  0  0  0  0
  192.7740  174.9010  146.0970 C   0  0  0  0  0  1  0  0  0  0  0  0
  191.2910  174.9880  146.4290 C   0  0  0  0  0  3  0  0  0  0  0  0
  191.0640  176.0730  147.4630 C   0  0  0  0  0  1  0  0  0  0  0  0
  194.5720  174.8830  141.1040 C   0  0  2  0  0  3  0  0  0  0  0  0
  195.0920  175.1100  142.4570 N   0  0  0  0  0  0  0  0  0  0  0  0
  195.7720  176.4020  142.4960 C   0  0  0  0  0  2  0  0  0  0  0  0
  196.4000  174.4610  142.5710 C   0  0  1  0  0  3  0  0  0  0  0  0
  197.1380  175.7810  142.6630 C   0  0  0  0  0  2  0  0  0  0  0  0
  196.2940  171.5050  144.9710 C   0  0  0  0  0  3  0  0  0  0  0  0
  197.0360  174.2000  145.0080 C   0  0  0  0  0  3  0  0  0  0  0  0
  196.1400  172.2890  143.8250 C   0  0  0  0  0  3  0  0  0  0  0  0
  196.4870  173.6490  143.8400 C   0  0  0  0  0  0  0  0  0  0  0  0
  196.8160  172.0700  146.1380 C   0  0  0  0  0  3  0  0  0  0  0  0
  197.1910  173.4150  146.1540 C   0  0  0  0  0  3  0  0  0  0  0  0
  194.7700  176.0320  140.3290 O   0  0  0  0  0  0  0  0  0  0  0  0
  195.1410  175.5770  139.1490 O   0  0  0  0  0  1  0  0  0  0  0  0
  1 10  1  0  0  0  0
  3 18  2  0  0  0  0
  4 14  1  0  0  0  0
  4 13  1  0  0  0  0
  5 10  1  0  0  0  0
  5 15  2  0  0  0  0
  6  5  1  0  0  0  0
  7 16  1  0  0  0  0
  9  8  1  6  0  0  0
  9 15  1  0  0  0  0
 10 11  1  0  0  0  0
 11 12  1  0  0  0  0
 12 25  1  1  0  0  0
 12  2  1  0  0  0  0
 13 29  1  1  0  0  0
 13  8  1  0  0  0  0
 14 18  1  6  0  0  0
 14  9  1  0  0  0  0
 15  7  1  0  0  0  0
 16  2  1  0  0  0  0
 16 27  1  1  0  0  0
 17 11  2  0  0  0  0
 18  6  1  0  0  0  0
 20 24  1  0  0  0  0
 20 19  1  1  0  0  0
 21 23  1  0  0  0  0
 21 25  2  0  0  0  0
 22 24  2  0  0  0  0
 23 22  1  0  0  0  0
 25 20  1  0  0  0  0
 26 27  1  0  0  0  0
 27 28  1  0  0  0  0
 29 40  1  6  0  0  0
 29 30  1  0  0  0  0
 30 31  1  0  0  0  0
 30 32  1  0  0  0  0
 31 33  1  0  0  0  0
 32 33  1  0  0  0  0
 32 37  1  1  0  0  0
 34 38  1  0  0  0  0
 35 39  1  0  0  0  0
 36 37  1  0  0  0  0
 36 34  2  0  0  0  0
 37 35  2  0  0  0  0
 38 39  2  0  0  0  0
 41 40  1  0  0  0  0
M  END
>  <MODEL>
5

>  <REMARK>
 VINA RESULT:      -8.1      3.505      7.908
  Name = 
  6 active torsions:
  status: ('A' for Active; 'I' for Inactive)
    1  A    between atoms: N_5  and  C_19
    2  A    between atoms: O_8  and  C_19
    3  A    between atoms: C_19  and  C_28
    4  A    between atoms: C_26  and  C_41
    5  A    between atoms: C_27  and  C_31
    6  A    between atoms: C_34  and  C_35
                            x       y       z     vdW  Elec       q    Type
                         _______ _______ _______ _____ _____    ______ ____

>  <TORSDO>
F 6

$$$$
=
 OpenBabel11062422203D

 41 46  0  0  1  0  0  0  0  0999 V2000
  193.9440  175.1950  144.6520 O   0  0  0  0  0  1  0  0  0  0  0  0
  191.4850  173.8700  142.0340 C   0  0  0  0  0  2  0  0  0  0  0  0
  191.3760  177.1980  148.3920 O   0  0  0  0  0  0  0  0  0  0  0  0
  188.6890  176.7930  147.5060 O   0  0  0  0  0  0  0  0  0  0  0  0
  191.6530  175.5080  145.2490 C   0  0  0  0  0  0  0  0  0  0  0  0
  191.9130  176.3420  146.3380 O   0  0  0  0  0  0  0  0  0  0  0  0
  190.2850  173.8250  144.1600 N   0  0  0  0  0  2  0  0  0  0  0  0
  188.3270  175.7140  145.5140 O   0  0  0  0  0  0  0  0  0  0  0  0
  189.3760  175.0460  146.1440 C   0  0  2  0  0  3  0  0  0  0  0  0
  192.6660  175.3780  144.2470 N   0  0  0  0  0  0  0  0  0  0  0  0
  192.4490  176.0010  142.9800 C   0  0  0  0  0  0  0  0  0  0  0  0
  192.2050  175.1820  141.7490 C   0  0  1  0  0  3  0  0  0  0  0  0
  188.2530  176.9460  146.1810 C   0  0  1  0  0  3  0  0  0  0  0  0
  189.6890  175.8270  147.4090 C   0  0  1  0  0  3  0  0  0  0  0  0
  190.4950  174.8260  145.1620 C   0  0  0  0  0  0  0  0  0  0  0  0
  190.1580  174.1130  142.7360 C   0  0  2  0  0  3  0  0  0  0  0  0
  192.4580  177.2570  142.8930 O   0  0  0  0  0  0  0  0  0  0  0  0
  191.0330  176.4930  147.4080 C   0  0  0  0  0  0  0  0  0  0  0  0
  192.2850  174.2050  139.0110 F   0  0  0  0  0  0  0  0  0  0  0  0
  193.5010  174.1680  139.6690 C   0  0  1  0  0  3  0  0  0  0  0  0
  194.6150  175.4560  141.4610 C   0  0  0  0  0  3  0  0  0  0  0  0
  195.7210  175.1740  139.2600 C   0  0  0  0  0  3  0  0  0  0  0  0
  195.9250  175.2130  140.7520 C   0  0  0  0  0  2  0  0  0  0  0  0
  194.5830  174.6780  138.7510 C   0  0  0  0  0  3  0  0  0  0  0  0
  193.4680  174.9640  140.9660 C   0  0  0  0  0  0  0  0  0  0  0  0
  189.3240  172.9650  140.6320 C   0  0  0  0  0  1  0  0  0  0  0  0
  189.0600  173.2540  142.1030 C   0  0  0  0  0  3  0  0  0  0  0  0
  188.9020  171.9500  142.8580 C   0  0  0  0  0  1  0  0  0  0  0  0
  186.8300  177.5070  146.1120 C   0  0  2  0  0  3  0  0  0  0  0  0
  186.6680  178.2790  144.8750 N   0  0  0  0  0  0  0  0  0  0  0  0
  185.7440  179.3830  145.1190 C   0  0  0  0  0  2  0  0  0  0  0  0
  185.6340  177.6440  144.0570 C   0  0  1  0  0  3  0  0  0  0  0  0
  184.6640  178.7920  144.2460 C   0  0  0  0  0  2  0  0  0  0  0  0
  187.5630  176.4390  141.0010 C   0  0  0  0  0  3  0  0  0  0  0  0
  185.3780  178.0840  141.5770 C   0  0  0  0  0  3  0  0  0  0  0  0
  187.1770  176.6510  142.3270 C   0  0  0  0  0  3  0  0  0  0  0  0
  186.0970  177.4940  142.6280 C   0  0  0  0  0  0  0  0  0  0  0  0
  186.8580  177.0520  139.9620 C   0  0  0  0  0  3  0  0  0  0  0  0
  185.7630  177.8710  140.2510 C   0  0  0  0  0  3  0  0  0  0  0  0
  186.6090  178.3410  147.2150 O   0  0  0  0  0  0  0  0  0  0  0  0
  185.7690  177.6690  147.9760 O   0  0  0  0  0  1  0  0  0  0  0  0
  2 16  1  0  0  0  0
  5  6  1  0  0  0  0
  6 18  1  0  0  0  0
  7 15  1  0  0  0  0
  8  9  1  0  0  0  0
  8 13  1  0  0  0  0
  9 15  1  6  0  0  0
  9 14  1  0  0  0  0
 10  1  1  0  0  0  0
 10  5  1  0  0  0  0
 11 10  1  0  0  0  0
 12 25  1  1  0  0  0
 12  2  1  0  0  0  0
 12 11  1  0  0  0  0
 13 29  1  1  0  0  0
 13  4  1  0  0  0  0
 14 18  1  6  0  0  0
 14  4  1  0  0  0  0
 15  5  2  0  0  0  0
 16 27  1  6  0  0  0
 16  7  1  0  0  0  0
 17 11  2  0  0  0  0
 18  3  2  0  0  0  0
 20 19  1  6  0  0  0
 20 25  1  0  0  0  0
 22 23  1  0  0  0  0
 23 21  1  0  0  0  0
 24 22  2  0  0  0  0
 24 20  1  0  0  0  0
 25 21  2  0  0  0  0
 26 27  1  0  0  0  0
 27 28  1  0  0  0  0
 29 40  1  1  0  0  0
 30 31  1  0  0  0  0
 30 29  1  0  0  0  0
 32 37  1  6  0  0  0
 32 33  1  0  0  0  0
 32 30  1  0  0  0  0
 33 31  1  0  0  0  0
 34 36  1  0  0  0  0
 35 37  1  0  0  0  0
 36 37  2  0  0  0  0
 38 39  1  0  0  0  0
 38 34  2  0  0  0  0
 39 35  2  0  0  0  0
 40 41  1  0  0  0  0
M  END
>  <MODEL>
6

>  <REMARK>
 VINA RESULT:      -7.9      2.893      5.502
  Name = 
  6 active torsions:
  status: ('A' for Active; 'I' for Inactive)
    1  A    between atoms: N_5  and  C_19
    2  A    between atoms: O_8  and  C_19
    3  A    between atoms: C_19  and  C_28
    4  A    between atoms: C_26  and  C_41
    5  A    between atoms: C_27  and  C_31
    6  A    between atoms: C_34  and  C_35
                            x       y       z     vdW  Elec       q    Type
                         _______ _______ _______ _____ _____    ______ ____

>  <TORSDO>
F 6

$$$$
=
 OpenBabel11062422203D

 41 46  0  0  1  0  0  0  0  0999 V2000
  190.0970  177.8310  146.4170 O   0  0  0  0  0  1  0  0  0  0  0  0
  187.6370  176.7080  143.7070 C   0  0  0  0  0  2  0  0  0  0  0  0
  193.9860  174.7540  146.4230 O   0  0  0  0  0  0  0  0  0  0  0  0
  193.2690  172.9390  144.3350 O   0  0  0  0  0  0  0  0  0  0  0  0
  190.8340  175.9180  145.1920 C   0  0  0  0  0  0  0  0  0  0  0  0
  191.9030  175.6230  146.0390 O   0  0  0  0  0  0  0  0  0  0  0  0
  189.8330  175.9250  142.9800 N   0  0  0  0  0  2  0  0  0  0  0  0
  191.3030  173.2750  143.1990 O   0  0  0  0  0  0  0  0  0  0  0  0
  191.8690  174.5330  143.3990 C   0  0  2  0  0  3  0  0  0  0  0  0
  189.7720  176.7240  145.7090 N   0  0  0  0  0  0  0  0  0  0  0  0
  188.5200  176.0950  145.9900 C   0  0  0  0  0  0  0  0  0  0  0  0
  187.3070  176.3860  145.1600 C   0  0  1  0  0  3  0  0  0  0  0  0
  191.9720  172.4480  144.1140 C   0  0  1  0  0  3  0  0  0  0  0  0
  193.1100  174.3220  144.2470 C   0  0  1  0  0  3  0  0  0  0  0  0
  190.8200  175.4800  143.9180 C   0  0  0  0  0  0  0  0  0  0  0  0
  188.4200  175.5760  143.0580 C   0  0  2  0  0  3  0  0  0  0  0  0
  188.4300  175.2810  146.9460 O   0  0  0  0  0  0  0  0  0  0  0  0
  193.0260  174.9070  145.6250 C   0  0  0  0  0  0  0  0  0  0  0  0
  184.8050  177.3410  144.0240 F   0  0  0  0  0  0  0  0  0  0  0  0
  185.3250  178.1440  145.0230 C   0  0  1  0  0  3  0  0  0  0  0  0
  186.7170  177.8270  147.0420 C   0  0  0  0  0  3  0  0  0  0  0  0
  184.5010  178.9250  147.2180 C   0  0  0  0  0  3  0  0  0  0  0  0
  185.9290  178.9350  147.6970 C   0  0  0  0  0  2  0  0  0  0  0  0
  184.2170  178.5580  145.9590 C   0  0  0  0  0  3  0  0  0  0  0  0
  186.4480  177.4500  145.7810 C   0  0  0  0  0  0  0  0  0  0  0  0
  187.4420  176.5330  140.9210 C   0  0  0  0  0  1  0  0  0  0  0  0
  187.8560  175.2730  141.6680 C   0  0  0  0  0  3  0  0  0  0  0  0
  188.8650  174.5000  140.8410 C   0  0  0  0  0  1  0  0  0  0  0  0
  191.9910  171.0010  143.6140 C   0  0  2  0  0  3  0  0  0  0  0  0
  193.3450  170.4540  143.7540 N   0  0  0  0  0  0  0  0  0  0  0  0
  193.6470  169.6240  142.5900 C   0  0  0  0  0  2  0  0  0  0  0  0
  193.2770  169.2330  144.5590 C   0  0  1  0  0  3  0  0  0  0  0  0
  193.6350  168.3420  143.3880 C   0  0  0  0  0  2  0  0  0  0  0  0
  195.3150  168.2260  147.6160 C   0  0  0  0  0  3  0  0  0  0  0  0
  195.4310  170.1140  145.5570 C   0  0  0  0  0  3  0  0  0  0  0  0
  194.2980  168.2830  146.6600 C   0  0  0  0  0  3  0  0  0  0  0  0
  194.3340  169.2420  145.6360 C   0  0  0  0  0  0  0  0  0  0  0  0
  196.3900  169.1170  147.5450 C   0  0  0  0  0  3  0  0  0  0  0  0
  196.4490  170.0570  146.5130 C   0  0  0  0  0  3  0  0  0  0  0  0
  191.6140  170.9740  142.2660 O   0  0  0  0  0  0  0  0  0  0  0  0
  190.4350  170.3860  142.2620 O   0  0  0  0  0  1  0  0  0  0  0  0
  2 12  1  0  0  0  0
  5 10  1  0  0  0  0
  5  6  1  0  0  0  0
  7 16  1  0  0  0  0
  7 15  1  0  0  0  0
  8 13  1  0  0  0  0
  9  8  1  1  0  0  0
  9 15  1  0  0  0  0
  9 14  1  0  0  0  0
 10 11  1  0  0  0  0
 10  1  1  0  0  0  0
 11 17  2  0  0  0  0
 12 25  1  1  0  0  0
 12 11  1  0  0  0  0
 13 29  1  6  0  0  0
 13  4  1  0  0  0  0
 14  4  1  1  0  0  0
 14 18  1  0  0  0  0
 15  5  2  0  0  0  0
 16 27  1  6  0  0  0
 16  2  1  0  0  0  0
 18  6  1  0  0  0  0
 18  3  2  0  0  0  0
 20 19  1  6  0  0  0
 20 25  1  0  0  0  0
 20 24  1  0  0  0  0
 21 23  1  0  0  0  0
 22 23  1  0  0  0  0
 24 22  2  0  0  0  0
 25 21  2  0  0  0  0
 26 27  1  0  0  0  0
 28 27  1  0  0  0  0
 29 40  1  6  0  0  0
 29 30  1  0  0  0  0
 30 32  1  0  0  0  0
 31 33  1  0  0  0  0
 31 30  1  0  0  0  0
 32 37  1  1  0  0  0
 33 32  1  0  0  0  0
 35 37  2  0  0  0  0
 35 39  1  0  0  0  0
 36 34  2  0  0  0  0
 37 36  1  0  0  0  0
 38 34  1  0  0  0  0
 39 38  2  0  0  0  0
 41 40  1  0  0  0  0
M  END
>  <MODEL>
7

>  <REMARK>
 VINA RESULT:      -7.9      4.009      8.703
  Name = 
  6 active torsions:
  status: ('A' for Active; 'I' for Inactive)
    1  A    between atoms: N_5  and  C_19
    2  A    between atoms: O_8  and  C_19
    3  A    between atoms: C_19  and  C_28
    4  A    between atoms: C_26  and  C_41
    5  A    between atoms: C_27  and  C_31
    6  A    between atoms: C_34  and  C_35
                            x       y       z     vdW  Elec       q    Type
                         _______ _______ _______ _____ _____    ______ ____

>  <TORSDO>
F 6

$$$$
=
 OpenBabel11062422203D

 41 46  0  0  1  0  0  0  0  0999 V2000
  186.2360  175.7420  142.5580 O   0  0  0  0  0  1  0  0  0  0  0  0
  188.5410  175.8000  145.6140 C   0  0  0  0  0  2  0  0  0  0  0  0
  188.7520  173.9290  138.6880 O   0  0  0  0  0  0  0  0  0  0  0  0
  191.3070  173.4270  139.8670 O   0  0  0  0  0  0  0  0  0  0  0  0
  188.4230  174.8900  142.1210 C   0  0  0  0  0  0  0  0  0  0  0  0
  188.2690  174.8360  140.7340 O   0  0  0  0  0  0  0  0  0  0  0  0
  189.3910  174.0220  144.1710 N   0  0  0  0  0  2  0  0  0  0  0  0
  191.6080  173.8710  142.0980 O   0  0  0  0  0  0  0  0  0  0  0  0
  190.3400  173.3060  141.9710 C   0  0  2  0  0  3  0  0  0  0  0  0
  187.5550  175.7540  142.8590 N   0  0  0  0  0  0  0  0  0  0  0  0
  188.1040  176.9520  143.4120 C   0  0  0  0  0  0  0  0  0  0  0  0
  188.2660  177.1140  144.8930 C   0  0  1  0  0  3  0  0  0  0  0  0
  191.9390  174.2700  140.7950 C   0  0  1  0  0  3  0  0  0  0  0  0
  190.0960  173.1160  140.4840 C   0  0  1  0  0  3  0  0  0  0  0  0
  189.3420  174.1270  142.7440 C   0  0  0  0  0  0  0  0  0  0  0  0
  189.7800  175.1160  145.0540 C   0  0  2  0  0  3  0  0  0  0  0  0
  188.4620  177.8860  142.6480 O   0  0  0  0  0  0  0  0  0  0  0  0
  189.0080  173.9800  139.9190 C   0  0  0  0  0  0  0  0  0  0  0  0
  186.3390  178.6790  143.3770 F   0  0  0  0  0  0  0  0  0  0  0  0
  186.3100  178.8990  144.7420 C   0  0  1  0  0  3  0  0  0  0  0  0
  186.7960  177.5930  146.7840 C   0  0  0  0  0  3  0  0  0  0  0  0
  184.5820  178.6690  146.4940 C   0  0  0  0  0  3  0  0  0  0  0  0
  185.6830  178.3460  147.4700 C   0  0  0  0  0  2  0  0  0  0  0  0
  184.8770  178.9350  145.2120 C   0  0  0  0  0  3  0  0  0  0  0  0
  187.1070  177.8490  145.5030 C   0  0  0  0  0  0  0  0  0  0  0  0
  191.9420  173.9510  145.6930 C   0  0  0  0  0  1  0  0  0  0  0  0
  190.6630  174.6060  146.1950 C   0  0  0  0  0  3  0  0  0  0  0  0
  191.0090  175.7340  147.1460 C   0  0  0  0  0  1  0  0  0  0  0  0
  193.4580  174.2830  140.6090 C   0  0  2  0  0  3  0  0  0  0  0  0
  194.0400  175.3650  141.4100 N   0  0  0  0  0  0  0  0  0  0  0  0
  195.1580  175.9540  140.6780 C   0  0  0  0  0  2  0  0  0  0  0  0
  195.0060  174.7890  142.3470 C   0  0  1  0  0  3  0  0  0  0  0  0
  196.1890  175.4210  141.6430 C   0  0  0  0  0  2  0  0  0  0  0  0
  195.3080  175.2630  146.1150 C   0  0  0  0  0  3  0  0  0  0  0  0
  194.0660  176.5130  143.9450 C   0  0  0  0  0  3  0  0  0  0  0  0
  195.4310  174.7230  144.8320 C   0  0  0  0  0  3  0  0  0  0  0  0
  194.7920  175.3290  143.7390 C   0  0  0  0  0  0  0  0  0  0  0  0
  194.5610  176.4270  146.3140 C   0  0  0  0  0  3  0  0  0  0  0  0
  193.9440  177.0530  145.2280 C   0  0  0  0  0  3  0  0  0  0  0  0
  193.7560  174.4920  139.2570 O   0  0  0  0  0  0  0  0  0  0  0  0
  194.3300  173.3720  138.8660 O   0  0  0  0  0  1  0  0  0  0  0  0
  1 10  1  0  0  0  0
  3 18  2  0  0  0  0
  4 13  1  0  0  0  0
  5 15  2  0  0  0  0
  5 10  1  0  0  0  0
  6  5  1  0  0  0  0
  7 16  1  0  0  0  0
  9  8  1  6  0  0  0
  9 15  1  0  0  0  0
 10 11  1  0  0  0  0
 11 12  1  0  0  0  0
 12 25  1  1  0  0  0
 12  2  1  0  0  0  0
 13 29  1  1  0  0  0
 13  8  1  0  0  0  0
 14  4  1  6  0  0  0
 14  9  1  0  0  0  0
 15  7  1  0  0  0  0
 16  2  1  0  0  0  0
 16 27  1  1  0  0  0
 17 11  2  0  0  0  0
 18 14  1  0  0  0  0
 18  6  1  0  0  0  0
 20 19  1  6  0  0  0
 20 24  1  0  0  0  0
 20 25  1  0  0  0  0
 21 23  1  0  0  0  0
 22 23  1  0  0  0  0
 24 22  2  0  0  0  0
 25 21  2  0  0  0  0
 26 27  1  0  0  0  0
 27 28  1  0  0  0  0
 29 40  1  6  0  0  0
 29 30  1  0  0  0  0
 30 32  1  0  0  0  0
 31 30  1  0  0  0  0
 31 33  1  0  0  0  0
 32 37  1  1  0  0  0
 33 32  1  0  0  0  0
 34 38  1  0  0  0  0
 35 39  1  0  0  0  0
 36 34  2  0  0  0  0
 37 35  2  0  0  0  0
 37 36  1  0  0  0  0
 39 38  2  0  0  0  0
 41 40  1  0  0  0  0
M  END
>  <MODEL>
8

>  <REMARK>
 VINA RESULT:      -7.9      2.888      7.467
  Name = 
  6 active torsions:
  status: ('A' for Active; 'I' for Inactive)
    1  A    between atoms: N_5  and  C_19
    2  A    between atoms: O_8  and  C_19
    3  A    between atoms: C_19  and  C_28
    4  A    between atoms: C_26  and  C_41
    5  A    between atoms: C_27  and  C_31
    6  A    between atoms: C_34  and  C_35
                            x       y       z     vdW  Elec       q    Type
                         _______ _______ _______ _____ _____    ______ ____

>  <TORSDO>
F 6

$$$$
=
 OpenBabel11062422203D

 41 46  0  0  1  0  0  0  0  0999 V2000
  186.6290  175.2490  142.7600 O   0  0  0  0  0  1  0  0  0  0  0  0
  188.4680  176.7610  145.7590 C   0  0  0  0  0  2  0  0  0  0  0  0
  189.9640  173.2730  139.6680 O   0  0  0  0  0  0  0  0  0  0  0  0
  192.4060  173.8440  141.0370 O   0  0  0  0  0  0  0  0  0  0  0  0
  188.9980  174.9680  142.6680 C   0  0  0  0  0  0  0  0  0  0  0  0
  189.0260  174.5100  141.3500 O   0  0  0  0  0  0  0  0  0  0  0  0
  189.9140  174.9820  144.9160 N   0  0  0  0  0  2  0  0  0  0  0  0
  192.3190  174.9260  143.0590 O   0  0  0  0  0  0  0  0  0  0  0  0
  191.2660  174.0120  143.0500 C   0  0  2  0  0  3  0  0  0  0  0  0
  187.8550  175.7140  143.0950 N   0  0  0  0  0  0  0  0  0  0  0  0
  188.0030  177.1190  143.3050 C   0  0  0  0  0  0  0  0  0  0  0  0
  187.9440  177.7040  144.6830 C   0  0  1  0  0  3  0  0  0  0  0  0
  192.6830  175.0450  141.7100 C   0  0  1  0  0  3  0  0  0  0  0  0
  191.2550  173.3770  141.6700 C   0  0  1  0  0  3  0  0  0  0  0  0
  190.0060  174.6890  143.5180 C   0  0  0  0  0  0  0  0  0  0  0  0
  189.8980  176.3330  145.4650 C   0  0  2  0  0  3  0  0  0  0  0  0
  188.1910  177.8810  142.3200 O   0  0  0  0  0  0  0  0  0  0  0  0
  190.0520  173.7160  140.8420 C   0  0  0  0  0  0  0  0  0  0  0  0
  186.5130  179.6920  143.1140 F   0  0  0  0  0  0  0  0  0  0  0  0
  185.9810  179.4600  144.3690 C   0  0  1  0  0  3  0  0  0  0  0  0
  185.8580  177.5610  145.9470 C   0  0  0  0  0  3  0  0  0  0  0  0
  183.7830  178.6940  145.2010 C   0  0  0  0  0  3  0  0  0  0  0  0
  184.4990  178.0630  146.3660 C   0  0  0  0  0  2  0  0  0  0  0  0
  184.4800  179.3550  144.2640 C   0  0  0  0  0  3  0  0  0  0  0  0
  186.5700  178.2130  145.0130 C   0  0  0  0  0  0  0  0  0  0  0  0
  190.4460  175.2800  147.7080 C   0  0  0  0  0  1  0  0  0  0  0  0
  190.7450  176.4140  146.7370 C   0  0  0  0  0  3  0  0  0  0  0  0
  192.2220  176.4140  146.3950 C   0  0  0  0  0  1  0  0  0  0  0  0
  194.1570  175.4390  141.5860 C   0  0  2  0  0  3  0  0  0  0  0  0
  194.7970  174.6170  140.5520 N   0  0  0  0  0  0  0  0  0  0  0  0
  196.1020  174.1730  141.0350 C   0  0  0  0  0  2  0  0  0  0  0  0
  195.4880  175.5000  139.6110 C   0  0  1  0  0  3  0  0  0  0  0  0
  196.8600  175.0310  140.0510 C   0  0  0  0  0  2  0  0  0  0  0  0
  195.8820  174.8540  135.8780 C   0  0  0  0  0  3  0  0  0  0  0  0
  193.9510  174.4980  137.8670 C   0  0  0  0  0  3  0  0  0  0  0  0
  196.1380  175.2760  137.1850 C   0  0  0  0  0  3  0  0  0  0  0  0
  195.1660  175.1230  138.1860 C   0  0  0  0  0  0  0  0  0  0  0  0
  194.6580  174.2570  135.5640 C   0  0  0  0  0  3  0  0  0  0  0  0
  193.6950  174.0750  136.5600 C   0  0  0  0  0  3  0  0  0  0  0  0
  194.7970  175.2260  142.8130 O   0  0  0  0  0  0  0  0  0  0  0  0
  195.1370  176.4300  143.2240 O   0  0  0  0  0  1  0  0  0  0  0  0
  1 10  1  0  0  0  0
  3 18  2  0  0  0  0
  4 14  1  0  0  0  0
  4 13  1  0  0  0  0
  5 10  1  0  0  0  0
  5 15  2  0  0  0  0
  6  5  1  0  0  0  0
  7 16  1  0  0  0  0
  9  8  1  6  0  0  0
  9 15  1  0  0  0  0
 10 11  1  0  0  0  0
 11 12  1  0  0  0  0
 12 25  1  1  0  0  0
 12  2  1  0  0  0  0
 13 29  1  1  0  0  0
 13  8  1  0  0  0  0
 14 18  1  6  0  0  0
 14  9  1  0  0  0  0
 15  7  1  0  0  0  0
 16  2  1  0  0  0  0
 16 27  1  1  0  0  0
 17 11  2  0  0  0  0
 18  6  1  0  0  0  0
 20 19  1  6  0  0  0
 20 25  1  0  0  0  0
 21 23  1  0  0  0  0
 22 23  1  0  0  0  0
 24 20  1  0  0  0  0
 24 22  2  0  0  0  0
 25 21  2  0  0  0  0
 27 26  1  0  0  0  0
 28 27  1  0  0  0  0
 29 40  1  1  0  0  0
 30 31  1  0  0  0  0
 30 29  1  0  0  0  0
 32 37  1  6  0  0  0
 32 33  1  0  0  0  0
 32 30  1  0  0  0  0
 33 31  1  0  0  0  0
 34 36  1  0  0  0  0
 35 37  1  0  0  0  0
 36 37  2  0  0  0  0
 38 34  2  0  0  0  0
 38 39  1  0  0  0  0
 39 35  2  0  0  0  0
 40 41  1  0  0  0  0
M  END
>  <MODEL>
9

>  <REMARK>
 VINA RESULT:      -7.3      3.930      8.653
  Name = 
  6 active torsions:
  status: ('A' for Active; 'I' for Inactive)
    1  A    between atoms: N_5  and  C_19
    2  A    between atoms: O_8  and  C_19
    3  A    between atoms: C_19  and  C_28
    4  A    between atoms: C_26  and  C_41
    5  A    between atoms: C_27  and  C_31
    6  A    between atoms: C_34  and  C_35
                            x       y       z     vdW  Elec       q    Type
                         _______ _______ _______ _____ _____    ______ ____

>  <TORSDO>
F 6

$$$$
