=
 OpenBabel11062422293D

 43 49  0  0  1  0  0  0  0  0999 V2000
  189.5560  176.4980  144.6350 C   0  0  1  0  0  3  0  0  0  0  0  0
  184.0390  178.6950  146.1440 C   0  0  0  0  0  3  0  0  0  0  0  0
  184.8540  178.3730  145.0480 C   0  0  0  0  0  3  0  0  0  0  0  0
  186.1530  177.9180  145.2920 C   0  0  0  0  0  0  0  0  0  0  0  0
  191.5160  176.1290  146.2350 C   0  0  0  0  0  2  0  0  0  0  0  0
  189.3120  175.1150  146.6820 C   0  0  1  0  0  3  0  0  0  0  0  0
  184.5280  178.5610  147.4550 C   0  0  0  0  0  3  0  0  0  0  0  0
  190.5120  175.7760  147.2430 N   0  0  0  0  0  2  0  0  0  0  0  0
  187.1640  177.5490  144.2710 C   0  0  1  0  0  3  0  0  0  0  0  0
  188.0670  175.8700  147.1380 C   0  0  0  0  0  2  0  0  0  0  0  0
  186.6330  177.7910  146.5800 C   0  0  0  0  0  0  0  0  0  0  0  0
  188.0390  177.3210  146.6150 C   0  0  2  0  0  3  0  0  0  0  0  0
  188.4490  177.4510  145.1230 C   0  0  1  0  0  3  0  0  0  0  0  0
  190.9120  177.0170  145.1410 C   0  0  0  0  0  2  0  0  0  0  0  0
  185.8360  178.1080  147.6810 C   0  0  0  0  0  3  0  0  0  0  0  0
  189.2640  175.0790  145.1460 C   0  0  2  0  0  3  0  0  0  0  0  0
  190.1330  174.0080  144.5440 C   0  0  0  0  0  0  0  0  0  0  0  0
  190.3520  172.9370  145.1730 O   0  0  0  0  0  0  0  0  0  0  0  0
  190.7760  174.2410  143.2910 N   0  0  0  0  0  2  0  0  0  0  0  0
  191.5510  173.2120  142.6160 C   0  0  0  0  0  2  0  0  0  0  0  0
  192.9220  173.7580  142.2560 C   0  0  1  0  0  3  0  0  0  0  0  0
  193.8820  175.5610  143.4070 C   0  0  0  0  0  0  0  0  0  0  0  0
  192.7640  175.1150  141.5890 C   0  0  0  0  0  3  0  0  0  0  0  0
  193.6560  174.1550  143.4860 C   0  0  0  0  0  0  0  0  0  0  0  0
  194.6350  176.2070  144.2420 N   0  0  0  0  0  0  0  0  0  0  0  0
  195.3730  175.4710  145.2800 C   0  0  0  0  0  2  0  0  0  0  0  0
  194.6530  174.1670  145.7080 C   0  0  0  0  0  2  0  0  0  0  0  0
  193.2990  176.1060  142.2420 N   0  0  0  0  0  0  0  0  0  0  0  0
  194.0510  173.4330  144.5300 C   0  0  0  0  0  3  0  0  0  0  0  0
  186.7700  176.2180  143.6400 C   0  0  0  0  0  2  0  0  0  0  0  0
  185.8220  177.5770  141.7820 C   0  0  0  0  0  1  0  0  0  0  0  0
  186.6440  176.3530  142.1310 C   0  0  1  0  0  3  0  0  0  0  0  0
  187.9790  176.3920  141.4440 C   0  0  0  0  0  0  0  0  0  0  0  0
  188.6120  175.2120  140.9320 N   0  0  0  0  0  2  0  0  0  0  0  0
  188.5450  177.5030  141.2880 O   0  0  0  0  0  0  0  0  0  0  0  0
  188.1290  173.9620  141.1670 O   0  0  0  0  0  0  0  0  0  0  0  0
  189.1250  173.9760  138.9270 C   0  0  2  0  0  3  0  0  0  0  0  0
  188.4090  173.1750  140.0290 C   0  0  1  0  0  3  0  0  0  0  0  0
  188.1960  174.1700  137.7450 C   0  0  0  0  0  1  0  0  0  0  0  0
  190.3410  173.1490  138.5070 C   0  0  0  0  0  2  0  0  0  0  0  0
  190.3220  172.0310  139.4740 C   0  0  0  0  0  0  0  0  0  0  0  0
  191.1940  171.1260  139.5190 O   0  0  0  0  0  0  0  0  0  0  0  0
  189.2450  172.0700  140.3290 O   0  0  0  0  0  0  0  0  0  0  0  0
  1 13  1  0  0  0  0
  1 14  1  1  0  0  0
  1 16  1  0  0  0  0
  2  7  1  0  0  0  0
  3  4  1  0  0  0  0
  3  2  2  0  0  0  0
  4 11  2  0  0  0  0
  5  8  1  0  0  0  0
  6 10  1  6  0  0  0
  6  8  1  0  0  0  0
  7 15  2  0  0  0  0
  9 30  1  1  0  0  0
  9 13  1  0  0  0  0
  9  4  1  0  0  0  0
 11 12  1  0  0  0  0
 11 15  1  0  0  0  0
 12 10  1  6  0  0  0
 13 12  1  0  0  0  0
 14  5  1  0  0  0  0
 16  6  1  0  0  0  0
 17 16  1  0  0  0  0
 17 18  2  0  0  0  0
 19 17  1  0  0  0  0
 20 19  1  0  0  0  0
 21 20  1  0  0  0  0
 21 24  1  0  0  0  0
 22 24  1  0  0  0  0
 22 25  2  0  0  0  0
 23 28  2  0  0  0  0
 23 21  1  0  0  0  0
 24 29  2  0  0  0  0
 25 26  1  0  0  0  0
 26 27  1  0  0  0  0
 28 22  1  0  0  0  0
 29 27  1  0  0  0  0
 31 32  1  0  0  0  0
 32 30  1  0  0  0  0
 33 32  1  0  0  0  0
 34 36  1  0  0  0  0
 34 33  1  0  0  0  0
 35 33  2  0  0  0  0
 37 38  1  0  0  0  0
 38 43  1  0  0  0  0
 38 36  1  0  0  0  0
 39 37  1  0  0  0  0
 40 37  1  0  0  0  0
 40 41  1  0  0  0  0
 41 42  2  0  0  0  0
 41 43  1  0  0  0  0
M  END
>  <MODEL>
1

>  <REMARK>
 VINA RESULT:      -9.0      0.000      0.000
  Name = 
  8 active torsions:
  status: ('A' for Active; 'I' for Inactive)
    1  A    between atoms: C_2  and  C_21
    2  A    between atoms: C_7  and  O_32
    3  A    between atoms: C_8  and  C_43
    4  A    between atoms: C_10  and  C_15
    5  A    between atoms: C_10  and  C_28
    6  A    between atoms: C_21  and  N_38
    7  A    between atoms: C_22  and  C_28
    8  A    between atoms: N_31  and  O_32
                            x       y       z     vdW  Elec       q    Type
                         _______ _______ _______ _____ _____    ______ ____

>  <TORSDO>
F 8

$$$$
=
 OpenBabel11062422293D

 43 49  0  0  1  0  0  0  0  0999 V2000
  189.5260  176.8880  144.3090 C   0  0  1  0  0  3  0  0  0  0  0  0
  183.9930  178.4970  146.3940 C   0  0  0  0  0  3  0  0  0  0  0  0
  184.7300  178.2930  145.2170 C   0  0  0  0  0  3  0  0  0  0  0  0
  186.0830  177.9550  145.3260 C   0  0  0  0  0  0  0  0  0  0  0  0
  191.6510  176.6520  145.7120 C   0  0  0  0  0  2  0  0  0  0  0  0
  189.6000  175.4180  146.3080 C   0  0  1  0  0  3  0  0  0  0  0  0
  184.6110  178.3640  147.6490 C   0  0  0  0  0  3  0  0  0  0  0  0
  190.7800  176.1700  146.7890 N   0  0  0  0  0  2  0  0  0  0  0  0
  187.0250  177.7200  144.2040 C   0  0  1  0  0  3  0  0  0  0  0  0
  188.3380  176.0350  146.9050 C   0  0  0  0  0  2  0  0  0  0  0  0
  186.6880  177.8290  146.5590 C   0  0  0  0  0  0  0  0  0  0  0  0
  188.1290  177.4940  146.4490 C   0  0  2  0  0  3  0  0  0  0  0  0
  188.3860  177.7150  144.9340 C   0  0  1  0  0  3  0  0  0  0  0  0
  190.8700  177.5160  144.7150 C   0  0  0  0  0  2  0  0  0  0  0  0
  185.9710  178.0300  147.7390 C   0  0  0  0  0  3  0  0  0  0  0  0
  189.4130  175.4320  144.7820 C   0  0  2  0  0  3  0  0  0  0  0  0
  190.3180  174.4690  144.0590 C   0  0  0  0  0  0  0  0  0  0  0  0
  190.6050  174.6540  142.8450 O   0  0  0  0  0  0  0  0  0  0  0  0
  190.7850  173.3000  144.7310 N   0  0  0  0  0  2  0  0  0  0  0  0
  191.7340  172.3830  144.1180 C   0  0  0  0  0  2  0  0  0  0  0  0
  193.0570  172.4440  144.8610 C   0  0  1  0  0  3  0  0  0  0  0  0
  195.1150  172.4280  143.7380 C   0  0  0  0  0  0  0  0  0  0  0  0
  193.7430  171.0900  144.7780 C   0  0  0  0  0  3  0  0  0  0  0  0
  194.0310  173.2780  144.1090 C   0  0  0  0  0  0  0  0  0  0  0  0
  196.2120  172.8680  143.2060 N   0  0  0  0  0  0  0  0  0  0  0  0
  196.4150  174.3160  143.0440 C   0  0  0  0  0  2  0  0  0  0  0  0
  195.0830  175.0850  142.8620 C   0  0  0  0  0  2  0  0  0  0  0  0
  194.8820  171.0970  144.1480 N   0  0  0  0  0  0  0  0  0  0  0  0
  193.9910  174.5620  143.7690 C   0  0  0  0  0  3  0  0  0  0  0  0
  186.6980  176.3800  143.5540 C   0  0  0  0  0  2  0  0  0  0  0  0
  185.5830  177.8250  141.8600 C   0  0  0  0  0  1  0  0  0  0  0  0
  186.3880  176.5600  142.0760 C   0  0  1  0  0  3  0  0  0  0  0  0
  187.6260  176.5620  141.2250 C   0  0  0  0  0  0  0  0  0  0  0  0
  188.2410  175.3520  140.7640 N   0  0  0  0  0  2  0  0  0  0  0  0
  188.1200  177.6650  140.8830 O   0  0  0  0  0  0  0  0  0  0  0  0
  187.8430  174.1210  141.1870 O   0  0  0  0  0  0  0  0  0  0  0  0
  189.1690  173.8200  139.1480 C   0  0  2  0  0  3  0  0  0  0  0  0
  188.4030  173.1670  140.3110 C   0  0  1  0  0  3  0  0  0  0  0  0
  188.4200  173.5980  137.8490 C   0  0  0  0  0  1  0  0  0  0  0  0
  190.5360  173.1370  139.0880 C   0  0  0  0  0  2  0  0  0  0  0  0
  190.5160  172.2660  140.2820 C   0  0  0  0  0  0  0  0  0  0  0  0
  191.4840  171.5510  140.6460 O   0  0  0  0  0  0  0  0  0  0  0  0
  189.3210  172.3080  140.9650 O   0  0  0  0  0  0  0  0  0  0  0  0
  1 14  1  1  0  0  0
  1 16  1  0  0  0  0
  1 13  1  0  0  0  0
  2  7  1  0  0  0  0
  3  4  1  0  0  0  0
  3  2  2  0  0  0  0
  4 11  2  0  0  0  0
  5  8  1  0  0  0  0
  6  8  1  0  0  0  0
  6 10  1  1  0  0  0
  7 15  2  0  0  0  0
  9 30  1  1  0  0  0
  9 13  1  0  0  0  0
  9  4  1  0  0  0  0
 11 15  1  0  0  0  0
 12 11  1  0  0  0  0
 12 10  1  6  0  0  0
 13 12  1  0  0  0  0
 14  5  1  0  0  0  0
 16  6  1  0  0  0  0
 17 19  1  0  0  0  0
 17 16  1  0  0  0  0
 18 17  2  0  0  0  0
 20 19  1  0  0  0  0
 20 21  1  0  0  0  0
 22 24  1  0  0  0  0
 22 28  1  0  0  0  0
 23 21  1  0  0  0  0
 24 21  1  0  0  0  0
 25 22  2  0  0  0  0
 26 25  1  0  0  0  0
 27 26  1  0  0  0  0
 27 29  1  0  0  0  0
 28 23  2  0  0  0  0
 29 24  2  0  0  0  0
 31 32  1  0  0  0  0
 32 30  1  0  0  0  0
 33 32  1  0  0  0  0
 34 36  1  0  0  0  0
 34 33  1  0  0  0  0
 35 33  2  0  0  0  0
 37 38  1  0  0  0  0
 38 43  1  0  0  0  0
 38 36  1  0  0  0  0
 39 37  1  0  0  0  0
 40 37  1  0  0  0  0
 40 41  1  0  0  0  0
 41 42  2  0  0  0  0
 41 43  1  0  0  0  0
M  END
>  <MODEL>
2

>  <REMARK>
 VINA RESULT:      -8.7      1.397      1.775
  Name = 
  8 active torsions:
  status: ('A' for Active; 'I' for Inactive)
    1  A    between atoms: C_2  and  C_21
    2  A    between atoms: C_7  and  O_32
    3  A    between atoms: C_8  and  C_43
    4  A    between atoms: C_10  and  C_15
    5  A    between atoms: C_10  and  C_28
    6  A    between atoms: C_21  and  N_38
    7  A    between atoms: C_22  and  C_28
    8  A    between atoms: N_31  and  O_32
                            x       y       z     vdW  Elec       q    Type
                         _______ _______ _______ _____ _____    ______ ____

>  <TORSDO>
F 8

$$$$
=
 OpenBabel11062422293D

 43 49  0  0  1  0  0  0  0  0999 V2000
  189.7310  176.5820  144.4650 C   0  0  1  0  0  3  0  0  0  0  0  0
  184.0770  178.8070  145.2580 C   0  0  0  0  0  3  0  0  0  0  0  0
  185.0290  178.4940  144.2760 C   0  0  0  0  0  3  0  0  0  0  0  0
  186.2810  178.0240  144.6840 C   0  0  0  0  0  0  0  0  0  0  0  0
  191.4570  176.1740  146.3070 C   0  0  0  0  0  2  0  0  0  0  0  0
  189.2070  175.1730  146.4410 C   0  0  1  0  0  3  0  0  0  0  0  0
  184.3860  178.6510  146.6200 C   0  0  0  0  0  3  0  0  0  0  0  0
  190.3250  175.8160  147.1670 N   0  0  0  0  0  2  0  0  0  0  0  0
  187.4160  177.6590  143.8020 C   0  0  1  0  0  3  0  0  0  0  0  0
  187.9170  175.9340  146.7390 C   0  0  0  0  0  2  0  0  0  0  0  0
  186.5830  177.8750  146.0220 C   0  0  0  0  0  0  0  0  0  0  0  0
  187.9690  177.3920  146.2370 C   0  0  2  0  0  3  0  0  0  0  0  0
  188.5750  177.5390  144.8160 C   0  0  1  0  0  3  0  0  0  0  0  0
  191.0110  177.0820  145.1550 C   0  0  0  0  0  2  0  0  0  0  0  0
  185.6490  178.1830  147.0120 C   0  0  0  0  0  3  0  0  0  0  0  0
  189.3630  175.1600  144.9120 C   0  0  2  0  0  3  0  0  0  0  0  0
  190.2970  174.0880  144.4150 C   0  0  0  0  0  0  0  0  0  0  0  0
  190.5060  173.0540  145.1070 O   0  0  0  0  0  0  0  0  0  0  0  0
  191.0110  174.2840  143.1950 N   0  0  0  0  0  2  0  0  0  0  0  0
  191.8540  173.2490  142.6180 C   0  0  0  0  0  2  0  0  0  0  0  0
  193.2320  173.8170  142.3240 C   0  0  1  0  0  3  0  0  0  0  0  0
  194.0530  175.7160  143.4270 C   0  0  0  0  0  0  0  0  0  0  0  0
  193.0840  175.1270  141.5650 C   0  0  0  0  0  3  0  0  0  0  0  0
  193.8610  174.3110  143.5760 C   0  0  0  0  0  0  0  0  0  0  0  0
  194.7230  176.4350  144.2720 N   0  0  0  0  0  0  0  0  0  0  0  0
  195.4040  175.7870  145.4040 C   0  0  0  0  0  2  0  0  0  0  0  0
  194.6920  174.4880  145.8580 C   0  0  0  0  0  2  0  0  0  0  0  0
  193.5420  176.1720  142.1920 N   0  0  0  0  0  0  0  0  0  0  0  0
  194.1990  173.6660  144.6880 C   0  0  0  0  0  3  0  0  0  0  0  0
  187.1010  176.3400  143.1040 C   0  0  0  0  0  2  0  0  0  0  0  0
  187.8530  177.8040  141.2360 C   0  0  0  0  0  1  0  0  0  0  0  0
  187.1720  176.4990  141.5930 C   0  0  1  0  0  3  0  0  0  0  0  0
  187.8550  175.3390  140.9260 C   0  0  0  0  0  0  0  0  0  0  0  0
  187.8580  175.1670  139.5030 N   0  0  0  0  0  2  0  0  0  0  0  0
  188.4690  174.5080  141.6420 O   0  0  0  0  0  0  0  0  0  0  0  0
  187.1180  175.9480  138.6700 O   0  0  0  0  0  0  0  0  0  0  0  0
  187.0880  176.3750  136.2570 C   0  0  2  0  0  3  0  0  0  0  0  0
  187.1280  175.3420  137.3960 C   0  0  1  0  0  3  0  0  0  0  0  0
  185.7500  176.3080  135.5470 C   0  0  0  0  0  1  0  0  0  0  0  0
  188.2130  176.0020  135.2890 C   0  0  0  0  0  2  0  0  0  0  0  0
  188.8960  174.8980  135.9970 C   0  0  0  0  0  0  0  0  0  0  0  0
  189.9280  174.3220  135.5680 O   0  0  0  0  0  0  0  0  0  0  0  0
  188.2870  174.5530  137.1820 O   0  0  0  0  0  0  0  0  0  0  0  0
  1 13  1  0  0  0  0
  1 16  1  0  0  0  0
  1 14  1  1  0  0  0
  2  7  1  0  0  0  0
  3  4  1  0  0  0  0
  3  2  2  0  0  0  0
  4 11  2  0  0  0  0
  5  8  1  0  0  0  0
  6 10  1  6  0  0  0
  6  8  1  0  0  0  0
  7 15  2  0  0  0  0
  9 30  1  1  0  0  0
  9  4  1  0  0  0  0
  9 13  1  0  0  0  0
 11 12  1  0  0  0  0
 11 15  1  0  0  0  0
 12 10  1  6  0  0  0
 13 12  1  0  0  0  0
 14  5  1  0  0  0  0
 16  6  1  0  0  0  0
 17 16  1  0  0  0  0
 17 18  2  0  0  0  0
 19 17  1  0  0  0  0
 20 19  1  0  0  0  0
 21 20  1  0  0  0  0
 21 24  1  0  0  0  0
 22 24  1  0  0  0  0
 22 25  2  0  0  0  0
 23 28  2  0  0  0  0
 23 21  1  0  0  0  0
 24 29  2  0  0  0  0
 25 26  1  0  0  0  0
 26 27  1  0  0  0  0
 28 22  1  0  0  0  0
 29 27  1  0  0  0  0
 31 32  1  0  0  0  0
 32 30  1  0  0  0  0
 33 32  1  0  0  0  0
 33 35  2  0  0  0  0
 34 33  1  0  0  0  0
 36 34  1  0  0  0  0
 37 38  1  0  0  0  0
 38 36  1  0  0  0  0
 39 37  1  0  0  0  0
 40 41  1  0  0  0  0
 40 37  1  0  0  0  0
 41 43  1  0  0  0  0
 42 41  2  0  0  0  0
 43 38  1  0  0  0  0
M  END
>  <MODEL>
3

>  <REMARK>
 VINA RESULT:      -8.5      1.581      1.993
  Name = 
  8 active torsions:
  status: ('A' for Active; 'I' for Inactive)
    1  A    between atoms: C_2  and  C_21
    2  A    between atoms: C_7  and  O_32
    3  A    between atoms: C_8  and  C_43
    4  A    between atoms: C_10  and  C_15
    5  A    between atoms: C_10  and  C_28
    6  A    between atoms: C_21  and  N_38
    7  A    between atoms: C_22  and  C_28
    8  A    between atoms: N_31  and  O_32
                            x       y       z     vdW  Elec       q    Type
                         _______ _______ _______ _____ _____    ______ ____

>  <TORSDO>
F 8

$$$$
=
 OpenBabel11062422293D

 43 49  0  0  1  0  0  0  0  0999 V2000
  190.2570  176.6630  145.3780 C   0  0  1  0  0  3  0  0  0  0  0  0
  184.5710  178.8620  145.9880 C   0  0  0  0  0  3  0  0  0  0  0  0
  185.6700  178.8270  145.1160 C   0  0  0  0  0  3  0  0  0  0  0  0
  186.8320  178.1710  145.5310 C   0  0  0  0  0  0  0  0  0  0  0  0
  191.6500  175.5670  147.2210 C   0  0  0  0  0  2  0  0  0  0  0  0
  189.4000  174.7230  146.6670 C   0  0  1  0  0  3  0  0  0  0  0  0
  184.6480  178.2500  147.2500 C   0  0  0  0  0  3  0  0  0  0  0  0
  190.3880  175.0200  147.7270 N   0  0  0  0  0  2  0  0  0  0  0  0
  188.0950  178.0430  144.7640 C   0  0  1  0  0  3  0  0  0  0  0  0
  188.0860  175.4250  146.9990 C   0  0  0  0  0  2  0  0  0  0  0  0
  186.9070  177.5740  146.7730 C   0  0  0  0  0  0  0  0  0  0  0  0
  188.2330  176.9600  147.0250 C   0  0  2  0  0  3  0  0  0  0  0  0
  189.0680  177.5240  145.8450 C   0  0  1  0  0  3  0  0  0  0  0  0
  191.4100  176.8280  146.3830 C   0  0  0  0  0  2  0  0  0  0  0  0
  185.8240  177.6010  147.6530 C   0  0  0  0  0  3  0  0  0  0  0  0
  189.8080  175.1990  145.2640 C   0  0  2  0  0  3  0  0  0  0  0  0
  190.8020  174.2920  144.5880 C   0  0  0  0  0  0  0  0  0  0  0  0
  190.8260  173.0600  144.8590 O   0  0  0  0  0  0  0  0  0  0  0  0
  191.7720  174.8450  143.7000 N   0  0  0  0  0  2  0  0  0  0  0  0
  192.6960  174.0110  142.9480 C   0  0  0  0  0  2  0  0  0  0  0  0
  193.9930  174.7670  142.7130 C   0  0  1  0  0  3  0  0  0  0  0  0
  195.6840  174.8670  144.3340 C   0  0  0  0  0  0  0  0  0  0  0  0
  194.0030  176.0250  143.5670 C   0  0  0  0  0  3  0  0  0  0  0  0
  195.1340  174.0310  143.3180 C   0  0  0  0  0  0  0  0  0  0  0  0
  196.7900  174.5970  144.9540 N   0  0  0  0  0  0  0  0  0  0  0  0
  197.5840  173.4240  144.5540 C   0  0  0  0  0  2  0  0  0  0  0  0
  196.7090  172.2900  143.9630 C   0  0  0  0  0  2  0  0  0  0  0  0
  194.9450  176.0640  144.4650 N   0  0  0  0  0  0  0  0  0  0  0  0
  195.6180  172.8200  143.0600 C   0  0  0  0  0  3  0  0  0  0  0  0
  187.8870  177.0480  143.6270 C   0  0  0  0  0  2  0  0  0  0  0  0
  189.7580  177.7500  142.1420 C   0  0  0  0  0  1  0  0  0  0  0  0
  188.2530  177.6730  142.2900 C   0  0  1  0  0  3  0  0  0  0  0  0
  187.6380  176.9440  141.1290 C   0  0  0  0  0  0  0  0  0  0  0  0
  187.9030  175.5600  140.8650 N   0  0  0  0  0  2  0  0  0  0  0  0
  186.8410  177.5640  140.3810 O   0  0  0  0  0  0  0  0  0  0  0  0
  188.8430  174.8520  141.5490 O   0  0  0  0  0  0  0  0  0  0  0  0
  190.2020  173.4480  140.0690 C   0  0  2  0  0  3  0  0  0  0  0  0
  188.9430  173.5810  140.9440 C   0  0  1  0  0  3  0  0  0  0  0  0
  189.8080  173.3800  138.6070 C   0  0  0  0  0  1  0  0  0  0  0  0
  190.8870  172.1460  140.4880 C   0  0  0  0  0  2  0  0  0  0  0  0
  190.0760  171.7090  141.6440 C   0  0  0  0  0  0  0  0  0  0  0  0
  190.3290  170.6890  142.3330 O   0  0  0  0  0  0  0  0  0  0  0  0
  189.0030  172.5330  141.8960 O   0  0  0  0  0  0  0  0  0  0  0  0
  1 13  1  0  0  0  0
  1 14  1  1  0  0  0
  2  7  1  0  0  0  0
  3  4  1  0  0  0  0
  3  2  2  0  0  0  0
  4 11  2  0  0  0  0
  5  8  1  0  0  0  0
  6 10  1  1  0  0  0
  6  8  1  0  0  0  0
  7 15  2  0  0  0  0
  9 30  1  6  0  0  0
  9  4  1  0  0  0  0
  9 13  1  0  0  0  0
 11 12  1  0  0  0  0
 11 15  1  0  0  0  0
 12 10  1  6  0  0  0
 13 12  1  0  0  0  0
 14  5  1  0  0  0  0
 16  1  1  0  0  0  0
 16  6  1  0  0  0  0
 17 18  2  0  0  0  0
 17 16  1  0  0  0  0
 19 17  1  0  0  0  0
 20 19  1  0  0  0  0
 21 20  1  0  0  0  0
 21 24  1  0  0  0  0
 21 23  1  0  0  0  0
 22 28  1  0  0  0  0
 22 25  2  0  0  0  0
 23 28  2  0  0  0  0
 24 22  1  0  0  0  0
 26 25  1  0  0  0  0
 27 26  1  0  0  0  0
 29 24  2  0  0  0  0
 29 27  1  0  0  0  0
 31 32  1  0  0  0  0
 32 30  1  0  0  0  0
 33 32  1  0  0  0  0
 34 33  1  0  0  0  0
 34 36  1  0  0  0  0
 35 33  2  0  0  0  0
 37 40  1  0  0  0  0
 37 38  1  0  0  0  0
 38 36  1  0  0  0  0
 38 43  1  0  0  0  0
 39 37  1  0  0  0  0
 40 41  1  0  0  0  0
 41 43  1  0  0  0  0
 41 42  2  0  0  0  0
M  END
>  <MODEL>
4

>  <REMARK>
 VINA RESULT:      -8.4      1.388      1.734
  Name = 
  8 active torsions:
  status: ('A' for Active; 'I' for Inactive)
    1  A    between atoms: C_2  and  C_21
    2  A    between atoms: C_7  and  O_32
    3  A    between atoms: C_8  and  C_43
    4  A    between atoms: C_10  and  C_15
    5  A    between atoms: C_10  and  C_28
    6  A    between atoms: C_21  and  N_38
    7  A    between atoms: C_22  and  C_28
    8  A    between atoms: N_31  and  O_32
                            x       y       z     vdW  Elec       q    Type
                         _______ _______ _______ _____ _____    ______ ____

>  <TORSDO>
F 8

$$$$
=
 OpenBabel11062422293D

 43 49  0  0  1  0  0  0  0  0999 V2000
  190.4530  173.9850  145.1070 C   0  0  1  0  0  3  0  0  0  0  0  0
  196.5260  173.1940  144.9140 C   0  0  0  0  0  3  0  0  0  0  0  0
  195.3110  172.6400  144.4820 C   0  0  0  0  0  3  0  0  0  0  0  0
  194.1190  173.2460  144.8890 C   0  0  0  0  0  0  0  0  0  0  0  0
  189.2000  175.6390  146.6000 C   0  0  0  0  0  2  0  0  0  0  0  0
  190.9980  176.4070  145.0950 C   0  0  1  0  0  3  0  0  0  0  0  0
  196.5330  174.3310  145.7390 C   0  0  0  0  0  3  0  0  0  0  0  0
  190.3450  176.5360  146.4180 N   0  0  0  0  0  2  0  0  0  0  0  0
  192.7440  172.8000  144.5540 C   0  0  1  0  0  3  0  0  0  0  0  0
  192.4890  176.1520  145.2980 C   0  0  0  0  0  2  0  0  0  0  0  0
  194.1280  174.3600  145.7030 C   0  0  0  0  0  0  0  0  0  0  0  0
  192.7600  174.8260  146.0390 C   0  0  2  0  0  3  0  0  0  0  0  0
  191.8940  173.6420  145.5310 C   0  0  1  0  0  3  0  0  0  0  0  0
  189.6000  174.1770  146.3720 C   0  0  0  0  0  2  0  0  0  0  0  0
  195.3270  174.9220  146.1430 C   0  0  0  0  0  3  0  0  0  0  0  0
  190.4690  175.2490  144.2340 C   0  0  2  0  0  3  0  0  0  0  0  0
  189.1610  175.5550  143.5560 C   0  0  0  0  0  0  0  0  0  0  0  0
  188.4950  174.6340  143.0090 O   0  0  0  0  0  0  0  0  0  0  0  0
  188.7140  176.9080  143.4630 N   0  0  0  0  0  2  0  0  0  0  0  0
  187.4180  177.2560  142.9030 C   0  0  0  0  0  2  0  0  0  0  0  0
  186.9050  178.5300  143.5550 C   0  0  1  0  0  3  0  0  0  0  0  0
  184.8920  178.5870  144.7550 C   0  0  0  0  0  0  0  0  0  0  0  0
  185.7000  179.0410  142.7810 C   0  0  0  0  0  3  0  0  0  0  0  0
  186.2660  178.2170  144.8590 C   0  0  0  0  0  0  0  0  0  0  0  0
  184.0800  178.5940  145.7650 N   0  0  0  0  0  0  0  0  0  0  0  0
  184.5880  178.2950  147.1130 C   0  0  0  0  0  2  0  0  0  0  0  0
  185.8120  177.3450  147.0870 C   0  0  0  0  0  2  0  0  0  0  0  0
  184.5900  179.0630  143.4600 N   0  0  0  0  0  0  0  0  0  0  0  0
  186.7690  177.6760  145.9640 C   0  0  0  0  0  3  0  0  0  0  0  0
  192.4590  173.1240  143.0910 C   0  0  0  0  0  2  0  0  0  0  0  0
  191.1300  171.0890  142.5500 C   0  0  0  0  0  1  0  0  0  0  0  0
  192.4050  171.8520  142.2580 C   0  0  1  0  0  3  0  0  0  0  0  0
  192.5410  172.1240  140.7870 C   0  0  0  0  0  0  0  0  0  0  0  0
  193.7640  172.5910  140.2030 N   0  0  0  0  0  2  0  0  0  0  0  0
  191.5540  171.9050  140.0400 O   0  0  0  0  0  0  0  0  0  0  0  0
  194.8350  172.9670  140.9520 O   0  0  0  0  0  0  0  0  0  0  0  0
  195.7620  175.0480  141.8580 C   0  0  2  0  0  3  0  0  0  0  0  0
  195.0940  174.3260  140.6740 C   0  0  1  0  0  3  0  0  0  0  0  0
  194.7940  176.0420  142.4670 C   0  0  0  0  0  1  0  0  0  0  0  0
  196.9790  175.7810  141.2910 C   0  0  0  0  0  2  0  0  0  0  0  0
  197.0090  175.3220  139.8860 C   0  0  0  0  0  0  0  0  0  0  0  0
  197.8970  175.6500  139.0590 O   0  0  0  0  0  0  0  0  0  0  0  0
  195.9570  174.4950  139.5630 O   0  0  0  0  0  0  0  0  0  0  0  0
  1 13  1  0  0  0  0
  1 14  1  1  0  0  0
  2  7  1  0  0  0  0
  3  4  1  0  0  0  0
  3  2  2  0  0  0  0
  4 11  2  0  0  0  0
  6 10  1  1  0  0  0
  6  8  1  0  0  0  0
  7 15  2  0  0  0  0
  8  5  1  0  0  0  0
  9 30  1  6  0  0  0
  9  4  1  0  0  0  0
  9 13  1  0  0  0  0
 11 12  1  0  0  0  0
 11 15  1  0  0  0  0
 12 10  1  6  0  0  0
 13 12  1  0  0  0  0
 14  5  1  0  0  0  0
 16  6  1  0  0  0  0
 16  1  1  0  0  0  0
 17 16  1  0  0  0  0
 18 17  2  0  0  0  0
 19 17  1  0  0  0  0
 20 19  1  0  0  0  0
 20 21  1  0  0  0  0
 21 24  1  0  0  0  0
 22 24  1  0  0  0  0
 22 25  2  0  0  0  0
 23 28  2  0  0  0  0
 23 21  1  0  0  0  0
 24 29  2  0  0  0  0
 25 26  1  0  0  0  0
 27 26  1  0  0  0  0
 28 22  1  0  0  0  0
 29 27  1  0  0  0  0
 32 31  1  0  0  0  0
 32 30  1  0  0  0  0
 33 32  1  0  0  0  0
 34 33  1  0  0  0  0
 34 36  1  0  0  0  0
 35 33  2  0  0  0  0
 37 39  1  0  0  0  0
 38 36  1  0  0  0  0
 38 37  1  0  0  0  0
 40 37  1  0  0  0  0
 41 40  1  0  0  0  0
 42 41  2  0  0  0  0
 43 41  1  0  0  0  0
 43 38  1  0  0  0  0
M  END
>  <MODEL>
5

>  <REMARK>
 VINA RESULT:      -8.1      2.816      7.620
  Name = 
  8 active torsions:
  status: ('A' for Active; 'I' for Inactive)
    1  A    between atoms: C_2  and  C_21
    2  A    between atoms: C_7  and  O_32
    3  A    between atoms: C_8  and  C_43
    4  A    between atoms: C_10  and  C_15
    5  A    between atoms: C_10  and  C_28
    6  A    between atoms: C_21  and  N_38
    7  A    between atoms: C_22  and  C_28
    8  A    between atoms: N_31  and  O_32
                            x       y       z     vdW  Elec       q    Type
                         _______ _______ _______ _____ _____    ______ ____

>  <TORSDO>
F 8

$$$$
=
 OpenBabel11062422293D

 43 49  0  0  1  0  0  0  0  0999 V2000
  192.3300  174.8500  145.7470 C   0  0  1  0  0  3  0  0  0  0  0  0
  196.9600  171.2910  143.8930 C   0  0  0  0  0  3  0  0  0  0  0  0
  195.5630  171.4210  143.8540 C   0  0  0  0  0  3  0  0  0  0  0  0
  194.9720  172.4820  144.5460 C   0  0  0  0  0  0  0  0  0  0  0  0
  192.4890  176.7630  147.4370 C   0  0  0  0  0  2  0  0  0  0  0  0
  193.9430  176.7130  145.4450 C   0  0  1  0  0  3  0  0  0  0  0  0
  197.7380  172.2100  144.6160 C   0  0  0  0  0  3  0  0  0  0  0  0
  193.8230  177.0200  146.8880 N   0  0  0  0  0  2  0  0  0  0  0  0
  193.5200  172.7730  144.6380 C   0  0  1  0  0  3  0  0  0  0  0  0
  195.1190  175.7640  145.2320 C   0  0  0  0  0  2  0  0  0  0  0  0
  195.7370  173.3810  145.2600 C   0  0  0  0  0  0  0  0  0  0  0  0
  194.9120  174.4090  145.9400 C   0  0  2  0  0  3  0  0  0  0  0  0
  193.4830  173.8290  145.7660 C   0  0  1  0  0  3  0  0  0  0  0  0
  192.0580  175.3130  147.1880 C   0  0  0  0  0  2  0  0  0  0  0  0
  197.1270  173.2650  145.3100 C   0  0  0  0  0  3  0  0  0  0  0  0
  192.7110  176.0260  144.8350 C   0  0  2  0  0  3  0  0  0  0  0  0
  191.5810  176.9760  144.5370 C   0  0  0  0  0  0  0  0  0  0  0  0
  191.8160  178.1040  144.0240 O   0  0  0  0  0  0  0  0  0  0  0  0
  190.2490  176.6280  144.9120 N   0  0  0  0  0  2  0  0  0  0  0  0
  189.1070  177.4600  144.5690 C   0  0  0  0  0  2  0  0  0  0  0  0
  187.8190  176.7160  144.8800 C   0  0  1  0  0  3  0  0  0  0  0  0
  186.1940  177.5960  146.3230 C   0  0  0  0  0  0  0  0  0  0  0  0
  187.8700  176.2010  146.3100 C   0  0  0  0  0  3  0  0  0  0  0  0
  186.6860  177.6720  144.9860 C   0  0  0  0  0  0  0  0  0  0  0  0
  185.1070  178.1840  146.7130 N   0  0  0  0  0  0  0  0  0  0  0  0
  184.2720  178.9000  145.7360 C   0  0  0  0  0  2  0  0  0  0  0  0
  185.0980  179.4660  144.5530 C   0  0  0  0  0  2  0  0  0  0  0  0
  186.9630  176.7010  147.0990 N   0  0  0  0  0  0  0  0  0  0  0  0
  186.1660  178.5020  144.0880 C   0  0  0  0  0  3  0  0  0  0  0  0
  193.0370  173.3210  143.2990 C   0  0  0  0  0  2  0  0  0  0  0  0
  192.3690  171.0990  142.3960 C   0  0  0  0  0  1  0  0  0  0  0  0
  191.8850  172.4870  142.7600 C   0  0  1  0  0  3  0  0  0  0  0  0
  190.7290  172.4170  143.7180 C   0  0  0  0  0  0  0  0  0  0  0  0
  189.6200  173.3220  143.6480 N   0  0  0  0  0  2  0  0  0  0  0  0
  190.7250  171.5140  144.5910 O   0  0  0  0  0  0  0  0  0  0  0  0
  189.6050  174.3980  142.8160 O   0  0  0  0  0  0  0  0  0  0  0  0
  188.4070  175.3880  140.9200 C   0  0  2  0  0  3  0  0  0  0  0  0
  188.4680  174.2810  141.9870 C   0  0  1  0  0  3  0  0  0  0  0  0
  187.2660  176.3370  141.2270 C   0  0  0  0  0  1  0  0  0  0  0  0
  188.1610  174.6890  139.5820 C   0  0  0  0  0  2  0  0  0  0  0  0
  188.2430  173.2580  139.9430 C   0  0  0  0  0  0  0  0  0  0  0  0
  188.1480  172.3180  139.1140 O   0  0  0  0  0  0  0  0  0  0  0  0
  188.4330  173.0480  141.2900 O   0  0  0  0  0  0  0  0  0  0  0  0
  1 13  1  0  0  0  0
  1 14  1  1  0  0  0
  2  7  1  0  0  0  0
  3  2  2  0  0  0  0
  3  4  1  0  0  0  0
  4  9  1  0  0  0  0
  4 11  2  0  0  0  0
  6 10  1  1  0  0  0
  6  8  1  0  0  0  0
  7 15  2  0  0  0  0
  8  5  1  0  0  0  0
  9 30  1  6  0  0  0
  9 13  1  0  0  0  0
 11 15  1  0  0  0  0
 11 12  1  0  0  0  0
 12 10  1  6  0  0  0
 13 12  1  0  0  0  0
 14  5  1  0  0  0  0
 16  6  1  0  0  0  0
 16  1  1  0  0  0  0
 17 16  1  0  0  0  0
 17 19  1  0  0  0  0
 18 17  2  0  0  0  0
 20 21  1  0  0  0  0
 20 19  1  0  0  0  0
 21 24  1  0  0  0  0
 21 23  1  0  0  0  0
 22 25  2  0  0  0  0
 22 28  1  0  0  0  0
 23 28  2  0  0  0  0
 24 22  1  0  0  0  0
 26 25  1  0  0  0  0
 27 26  1  0  0  0  0
 29 27  1  0  0  0  0
 29 24  2  0  0  0  0
 31 32  1  0  0  0  0
 32 30  1  0  0  0  0
 32 33  1  0  0  0  0
 33 35  2  0  0  0  0
 34 33  1  0  0  0  0
 36 34  1  0  0  0  0
 37 39  1  0  0  0  0
 37 38  1  0  0  0  0
 38 36  1  0  0  0  0
 40 41  1  0  0  0  0
 40 37  1  0  0  0  0
 41 43  1  0  0  0  0
 42 41  2  0  0  0  0
 43 38  1  0  0  0  0
M  END
>  <MODEL>
6

>  <REMARK>
 VINA RESULT:      -8.0      2.068      7.484
  Name = 
  8 active torsions:
  status: ('A' for Active; 'I' for Inactive)
    1  A    between atoms: C_2  and  C_21
    2  A    between atoms: C_7  and  O_32
    3  A    between atoms: C_8  and  C_43
    4  A    between atoms: C_10  and  C_15
    5  A    between atoms: C_10  and  C_28
    6  A    between atoms: C_21  and  N_38
    7  A    between atoms: C_22  and  C_28
    8  A    between atoms: N_31  and  O_32
                            x       y       z     vdW  Elec       q    Type
                         _______ _______ _______ _____ _____    ______ ____

>  <TORSDO>
F 8

$$$$
=
 OpenBabel11062422293D

 43 49  0  0  1  0  0  0  0  0999 V2000
  191.9130  176.0690  144.6260 C   0  0  1  0  0  3  0  0  0  0  0  0
  186.0540  177.0790  146.1060 C   0  0  0  0  0  3  0  0  0  0  0  0
  186.8880  176.6640  145.0560 C   0  0  0  0  0  3  0  0  0  0  0  0
  188.2710  176.6680  145.2600 C   0  0  0  0  0  0  0  0  0  0  0  0
  193.9520  176.7450  146.0140 C   0  0  0  0  0  2  0  0  0  0  0  0
  192.1540  175.3710  146.9960 C   0  0  1  0  0  3  0  0  0  0  0  0
  186.6070  177.4900  147.3310 C   0  0  0  0  0  3  0  0  0  0  0  0
  193.1300  176.4660  147.1950 N   0  0  0  0  0  2  0  0  0  0  0  0
  189.3080  176.2840  144.2720 C   0  0  1  0  0  3  0  0  0  0  0  0
  190.7600  175.8730  147.3660 C   0  0  0  0  0  2  0  0  0  0  0  0
  188.8120  177.0760  146.4620 C   0  0  0  0  0  0  0  0  0  0  0  0
  190.2950  177.0300  146.4580 C   0  0  2  0  0  3  0  0  0  0  0  0
  190.5960  176.7980  144.9530 C   0  0  1  0  0  3  0  0  0  0  0  0
  193.0790  177.0590  144.7940 C   0  0  0  0  0  2  0  0  0  0  0  0
  187.9980  177.4930  147.5160 C   0  0  0  0  0  3  0  0  0  0  0  0
  192.0630  174.8530  145.5520 C   0  0  2  0  0  3  0  0  0  0  0  0
  193.1830  173.9190  145.1790 C   0  0  0  0  0  0  0  0  0  0  0  0
  194.1210  173.6940  145.9910 O   0  0  0  0  0  0  0  0  0  0  0  0
  193.2220  173.3500  143.8710 N   0  0  0  0  0  2  0  0  0  0  0  0
  194.2240  172.3700  143.4840 C   0  0  0  0  0  2  0  0  0  0  0  0
  194.9500  172.8470  142.2370 C   0  0  1  0  0  3  0  0  0  0  0  0
  194.8750  175.0830  141.5350 C   0  0  0  0  0  0  0  0  0  0  0  0
  193.9330  173.1550  141.1500 C   0  0  0  0  0  3  0  0  0  0  0  0
  195.5150  174.2030  142.4590 C   0  0  0  0  0  0  0  0  0  0  0  0
  195.2460  176.3110  141.3520 N   0  0  0  0  0  0  0  0  0  0  0  0
  196.4340  176.8280  142.0500 C   0  0  0  0  0  2  0  0  0  0  0  0
  196.6770  176.1210  143.4080 C   0  0  0  0  0  2  0  0  0  0  0  0
  193.9010  174.4010  140.7740 N   0  0  0  0  0  0  0  0  0  0  0  0
  196.4200  174.6330  143.3320 C   0  0  0  0  0  3  0  0  0  0  0  0
  189.2940  174.7690  144.1000 C   0  0  0  0  0  2  0  0  0  0  0  0
  189.9290  173.0000  142.4670 C   0  0  0  0  0  1  0  0  0  0  0  0
  189.3570  174.3930  142.6270 C   0  0  1  0  0  3  0  0  0  0  0  0
  188.0210  174.5050  141.9490 C   0  0  0  0  0  0  0  0  0  0  0  0
  187.5760  175.7170  141.3270 N   0  0  0  0  0  2  0  0  0  0  0  0
  187.2830  173.4890  141.9010 O   0  0  0  0  0  0  0  0  0  0  0  0
  188.2580  176.8900  141.4390 O   0  0  0  0  0  0  0  0  0  0  0  0
  185.8850  177.4260  141.1340 C   0  0  2  0  0  3  0  0  0  0  0  0
  187.3280  177.9400  141.2810 C   0  0  1  0  0  3  0  0  0  0  0  0
  185.3940  177.6670  139.7210 C   0  0  0  0  0  1  0  0  0  0  0  0
  185.0360  178.2240  142.1260 C   0  0  0  0  0  2  0  0  0  0  0  0
  186.0490  179.0140  142.8580 C   0  0  0  0  0  0  0  0  0  0  0  0
  185.7810  179.7830  143.8160 O   0  0  0  0  0  0  0  0  0  0  0  0
  187.3280  178.8300  142.3840 O   0  0  0  0  0  0  0  0  0  0  0  0
  1 14  1  1  0  0  0
  1 13  1  0  0  0  0
  1 16  1  0  0  0  0
  2  7  1  0  0  0  0
  3  4  1  0  0  0  0
  3  2  2  0  0  0  0
  4 11  2  0  0  0  0
  5  8  1  0  0  0  0
  6  8  1  0  0  0  0
  6 10  1  6  0  0  0
  7 15  2  0  0  0  0
  9 30  1  1  0  0  0
  9 13  1  0  0  0  0
  9  4  1  0  0  0  0
 11 15  1  0  0  0  0
 12 11  1  0  0  0  0
 12 10  1  1  0  0  0
 13 12  1  0  0  0  0
 14  5  1  0  0  0  0
 16  6  1  0  0  0  0
 17 16  1  0  0  0  0
 17 18  2  0  0  0  0
 19 17  1  0  0  0  0
 20 19  1  0  0  0  0
 21 24  1  0  0  0  0
 21 20  1  0  0  0  0
 22 24  1  0  0  0  0
 23 21  1  0  0  0  0
 24 29  2  0  0  0  0
 25 22  2  0  0  0  0
 25 26  1  0  0  0  0
 26 27  1  0  0  0  0
 28 23  2  0  0  0  0
 28 22  1  0  0  0  0
 29 27  1  0  0  0  0
 31 32  1  0  0  0  0
 32 30  1  0  0  0  0
 33 32  1  0  0  0  0
 34 36  1  0  0  0  0
 34 33  1  0  0  0  0
 35 33  2  0  0  0  0
 37 38  1  0  0  0  0
 37 40  1  0  0  0  0
 38 36  1  0  0  0  0
 38 43  1  0  0  0  0
 39 37  1  0  0  0  0
 40 41  1  0  0  0  0
 41 42  2  0  0  0  0
 43 41  1  0  0  0  0
M  END
>  <MODEL>
7

>  <REMARK>
 VINA RESULT:      -8.0      2.200      4.031
  Name = 
  8 active torsions:
  status: ('A' for Active; 'I' for Inactive)
    1  A    between atoms: C_2  and  C_21
    2  A    between atoms: C_7  and  O_32
    3  A    between atoms: C_8  and  C_43
    4  A    between atoms: C_10  and  C_15
    5  A    between atoms: C_10  and  C_28
    6  A    between atoms: C_21  and  N_38
    7  A    between atoms: C_22  and  C_28
    8  A    between atoms: N_31  and  O_32
                            x       y       z     vdW  Elec       q    Type
                         _______ _______ _______ _____ _____    ______ ____

>  <TORSDO>
F 8

$$$$
=
 OpenBabel11062422293D

 43 49  0  0  1  0  0  0  0  0999 V2000
  192.3740  174.3350  144.5800 C   0  0  1  0  0  3  0  0  0  0  0  0
  194.5910  174.2230  138.8690 C   0  0  0  0  0  3  0  0  0  0  0  0
  193.6900  173.5810  139.7330 C   0  0  0  0  0  3  0  0  0  0  0  0
  193.6100  174.0170  141.0590 C   0  0  0  0  0  0  0  0  0  0  0  0
  193.3030  175.7100  146.5260 C   0  0  0  0  0  2  0  0  0  0  0  0
  192.6690  176.7940  144.4020 C   0  0  1  0  0  3  0  0  0  0  0  0
  195.3910  175.2780  139.3370 C   0  0  0  0  0  3  0  0  0  0  0  0
  193.6250  176.7370  145.5310 N   0  0  0  0  0  2  0  0  0  0  0  0
  192.7380  173.4560  142.1200 C   0  0  1  0  0  3  0  0  0  0  0  0
  193.4410  176.6840  143.0900 C   0  0  0  0  0  2  0  0  0  0  0  0
  194.4000  175.0510  141.5170 C   0  0  0  0  0  0  0  0  0  0  0  0
  194.1790  175.3360  142.9560 C   0  0  2  0  0  3  0  0  0  0  0  0
  193.3240  174.1140  143.3880 C   0  0  1  0  0  3  0  0  0  0  0  0
  193.1990  174.3250  145.8780 C   0  0  0  0  0  2  0  0  0  0  0  0
  195.3020  175.6990  140.6710 C   0  0  0  0  0  3  0  0  0  0  0  0
  191.6270  175.6640  144.3920 C   0  0  2  0  0  3  0  0  0  0  0  0
  190.4950  175.8860  145.3590 C   0  0  0  0  0  0  0  0  0  0  0  0
  189.9350  174.9040  145.9200 O   0  0  0  0  0  0  0  0  0  0  0  0
  190.0020  177.2070  145.5780 N   0  0  0  0  0  2  0  0  0  0  0  0
  188.9750  177.4950  146.5670 C   0  0  0  0  0  2  0  0  0  0  0  0
  187.6780  176.8090  146.1730 C   0  0  1  0  0  3  0  0  0  0  0  0
  185.5820  177.7370  146.6660 C   0  0  0  0  0  0  0  0  0  0  0  0
  187.0000  176.2620  147.4180 C   0  0  0  0  0  3  0  0  0  0  0  0
  186.6720  177.8170  145.7490 C   0  0  0  0  0  0  0  0  0  0  0  0
  184.4640  178.3700  146.4960 N   0  0  0  0  0  0  0  0  0  0  0  0
  184.2440  179.1470  145.2660 C   0  0  0  0  0  2  0  0  0  0  0  0
  185.5630  179.6970  144.6680 C   0  0  0  0  0  2  0  0  0  0  0  0
  185.8390  176.7890  147.6800 N   0  0  0  0  0  0  0  0  0  0  0  0
  186.6900  178.6910  144.7470 C   0  0  0  0  0  3  0  0  0  0  0  0
  191.2960  173.8730  141.8500 C   0  0  0  0  0  2  0  0  0  0  0  0
  191.1620  171.4020  142.1240 C   0  0  0  0  0  1  0  0  0  0  0  0
  190.3630  172.6750  141.9400 C   0  0  1  0  0  3  0  0  0  0  0  0
  189.3390  172.8260  143.0300 C   0  0  0  0  0  0  0  0  0  0  0  0
  188.2160  173.7080  142.9090 N   0  0  0  0  0  2  0  0  0  0  0  0
  189.4590  172.1310  144.0690 O   0  0  0  0  0  0  0  0  0  0  0  0
  188.0790  174.5820  141.8750 O   0  0  0  0  0  0  0  0  0  0  0  0
  188.2160  177.0080  141.5560 C   0  0  2  0  0  3  0  0  0  0  0  0
  187.7210  175.8340  142.4180 C   0  0  1  0  0  3  0  0  0  0  0  0
  189.3180  177.7520  142.2830 C   0  0  0  0  0  1  0  0  0  0  0  0
  187.0130  177.9300  141.3430 C   0  0  0  0  0  2  0  0  0  0  0  0
  185.9070  177.1660  141.9570 C   0  0  0  0  0  0  0  0  0  0  0  0
  184.7080  177.5450  141.9590 O   0  0  0  0  0  0  0  0  0  0  0  0
  186.3170  175.9880  142.5380 O   0  0  0  0  0  0  0  0  0  0  0  0
  1 14  1  1  0  0  0
  2  7  2  0  0  0  0
  2  3  1  0  0  0  0
  3  4  2  0  0  0  0
  4 11  1  0  0  0  0
  4  9  1  0  0  0  0
  6 10  1  6  0  0  0
  6  8  1  0  0  0  0
  7 15  1  0  0  0  0
  8  5  1  0  0  0  0
  9 30  1  6  0  0  0
  9 13  1  0  0  0  0
 11 12  1  0  0  0  0
 12 10  1  6  0  0  0
 12 13  1  0  0  0  0
 13  1  1  0  0  0  0
 14  5  1  0  0  0  0
 15 11  2  0  0  0  0
 16  6  1  0  0  0  0
 16  1  1  0  0  0  0
 16 17  1  0  0  0  0
 17 19  1  0  0  0  0
 17 18  2  0  0  0  0
 19 20  1  0  0  0  0
 21 20  1  0  0  0  0
 21 23  1  0  0  0  0
 22 28  1  0  0  0  0
 23 28  2  0  0  0  0
 24 21  1  0  0  0  0
 24 22  1  0  0  0  0
 25 22  2  0  0  0  0
 26 25  1  0  0  0  0
 27 29  1  0  0  0  0
 27 26  1  0  0  0  0
 29 24  2  0  0  0  0
 30 32  1  0  0  0  0
 32 31  1  0  0  0  0
 32 33  1  0  0  0  0
 33 35  2  0  0  0  0
 34 33  1  0  0  0  0
 36 38  1  0  0  0  0
 36 34  1  0  0  0  0
 37 39  1  0  0  0  0
 37 38  1  0  0  0  0
 38 43  1  0  0  0  0
 40 37  1  0  0  0  0
 40 41  1  0  0  0  0
 41 42  2  0  0  0  0
 41 43  1  0  0  0  0
M  END
>  <MODEL>
8

>  <REMARK>
 VINA RESULT:      -7.9      2.173      7.511
  Name = 
  8 active torsions:
  status: ('A' for Active; 'I' for Inactive)
    1  A    between atoms: C_2  and  C_21
    2  A    between atoms: C_7  and  O_32
    3  A    between atoms: C_8  and  C_43
    4  A    between atoms: C_10  and  C_15
    5  A    between atoms: C_10  and  C_28
    6  A    between atoms: C_21  and  N_38
    7  A    between atoms: C_22  and  C_28
    8  A    between atoms: N_31  and  O_32
                            x       y       z     vdW  Elec       q    Type
                         _______ _______ _______ _____ _____    ______ ____

>  <TORSDO>
F 8

$$$$
=
 OpenBabel11062422293D

 43 49  0  0  1  0  0  0  0  0999 V2000
  191.3310  175.1660  144.6690 C   0  0  1  0  0  3  0  0  0  0  0  0
  197.2020  174.2660  143.1630 C   0  0  0  0  0  3  0  0  0  0  0  0
  196.0200  173.5940  143.5100 C   0  0  0  0  0  3  0  0  0  0  0  0
  194.8900  174.3520  143.8320 C   0  0  0  0  0  0  0  0  0  0  0  0
  190.2550  177.4130  145.2430 C   0  0  0  0  0  2  0  0  0  0  0  0
  191.4670  177.0990  143.1180 C   0  0  1  0  0  3  0  0  0  0  0  0
  197.2400  175.6700  143.1450 C   0  0  0  0  0  3  0  0  0  0  0  0
  191.1600  178.0010  144.2520 N   0  0  0  0  0  2  0  0  0  0  0  0
  193.5630  173.8280  144.2390 C   0  0  1  0  0  3  0  0  0  0  0  0
  192.9820  176.9770  142.9740 C   0  0  0  0  0  2  0  0  0  0  0  0
  194.9310  175.7310  143.8180 C   0  0  0  0  0  0  0  0  0  0  0  0
  193.6380  176.3380  144.2160 C   0  0  2  0  0  3  0  0  0  0  0  0
  192.8680  175.1050  144.7600 C   0  0  1  0  0  3  0  0  0  0  0  0
  190.8080  176.0890  145.7830 C   0  0  0  0  0  2  0  0  0  0  0  0
  196.0990  176.4150  143.4760 C   0  0  0  0  0  3  0  0  0  0  0  0
  190.9260  175.6700  143.2760 C   0  0  2  0  0  3  0  0  0  0  0  0
  189.4570  175.5480  142.9720 C   0  0  0  0  0  0  0  0  0  0  0  0
  188.7880  174.5850  143.4360 O   0  0  0  0  0  0  0  0  0  0  0  0
  188.8390  176.4830  142.0880 N   0  0  0  0  0  2  0  0  0  0  0  0
  187.4080  176.4740  141.8290 C   0  0  0  0  0  2  0  0  0  0  0  0
  186.8630  177.8890  141.9180 C   0  0  1  0  0  3  0  0  0  0  0  0
  184.8210  178.3690  142.9660 C   0  0  0  0  0  0  0  0  0  0  0  0
  185.6690  178.0270  140.9870 C   0  0  0  0  0  3  0  0  0  0  0  0
  186.1970  178.1010  143.2300 C   0  0  0  0  0  0  0  0  0  0  0  0
  183.9860  178.7560  143.8790 N   0  0  0  0  0  0  0  0  0  0  0  0
  184.4670  179.0230  145.2440 C   0  0  0  0  0  2  0  0  0  0  0  0
  185.7050  178.1670  145.6140 C   0  0  0  0  0  2  0  0  0  0  0  0
  184.5430  178.2900  141.5850 N   0  0  0  0  0  0  0  0  0  0  0  0
  186.6830  178.0490  144.4660 C   0  0  0  0  0  3  0  0  0  0  0  0
  192.8690  173.2320  143.0190 C   0  0  0  0  0  2  0  0  0  0  0  0
  193.0510  171.2760  144.5490 C   0  0  0  0  0  1  0  0  0  0  0  0
  192.3620  171.8300  143.3190 C   0  0  1  0  0  3  0  0  0  0  0  0
  190.8680  171.7800  143.4740 C   0  0  0  0  0  0  0  0  0  0  0  0
  189.9900  171.5520  142.3650 N   0  0  0  0  0  2  0  0  0  0  0  0
  190.3770  171.9150  144.6230 O   0  0  0  0  0  0  0  0  0  0  0  0
  190.4300  171.5180  141.0780 O   0  0  0  0  0  0  0  0  0  0  0  0
  191.1490  172.9860  139.2510 C   0  0  2  0  0  3  0  0  0  0  0  0
  190.3790  172.8350  140.5750 C   0  0  1  0  0  3  0  0  0  0  0  0
  192.3920  173.8240  139.4710 C   0  0  0  0  0  1  0  0  0  0  0  0
  190.2060  173.6930  138.2760 C   0  0  0  0  0  2  0  0  0  0  0  0
  188.9430  173.7650  139.0410 C   0  0  0  0  0  0  0  0  0  0  0  0
  187.8710  174.2370  138.5840 O   0  0  0  0  0  0  0  0  0  0  0  0
  189.0530  173.2650  140.3190 O   0  0  0  0  0  0  0  0  0  0  0  0
  1 13  1  0  0  0  0
  1 14  1  1  0  0  0
  2  3  1  0  0  0  0
  3  4  2  0  0  0  0
  4  9  1  0  0  0  0
  5 14  1  0  0  0  0
  6 10  1  1  0  0  0
  6 16  1  0  0  0  0
  6  8  1  0  0  0  0
  7  2  2  0  0  0  0
  7 15  1  0  0  0  0
  8  5  1  0  0  0  0
  9 30  1  6  0  0  0
  9 13  1  0  0  0  0
 11  4  1  0  0  0  0
 11 12  1  0  0  0  0
 12 10  1  6  0  0  0
 12 13  1  0  0  0  0
 15 11  2  0  0  0  0
 16  1  1  0  0  0  0
 17 16  1  0  0  0  0
 17 18  2  0  0  0  0
 19 17  1  0  0  0  0
 20 21  1  0  0  0  0
 20 19  1  0  0  0  0
 21 24  1  0  0  0  0
 22 24  1  0  0  0  0
 22 25  2  0  0  0  0
 23 28  2  0  0  0  0
 23 21  1  0  0  0  0
 24 29  2  0  0  0  0
 25 26  1  0  0  0  0
 26 27  1  0  0  0  0
 28 22  1  0  0  0  0
 29 27  1  0  0  0  0
 30 32  1  0  0  0  0
 32 33  1  0  0  0  0
 32 31  1  0  0  0  0
 33 35  2  0  0  0  0
 34 33  1  0  0  0  0
 36 34  1  0  0  0  0
 37 39  1  0  0  0  0
 37 38  1  0  0  0  0
 38 36  1  0  0  0  0
 40 41  1  0  0  0  0
 40 37  1  0  0  0  0
 41 43  1  0  0  0  0
 42 41  2  0  0  0  0
 43 38  1  0  0  0  0
M  END
>  <MODEL>
9

>  <REMARK>
 VINA RESULT:      -7.9      2.139      7.235
  Name = 
  8 active torsions:
  status: ('A' for Active; 'I' for Inactive)
    1  A    between atoms: C_2  and  C_21
    2  A    between atoms: C_7  and  O_32
    3  A    between atoms: C_8  and  C_43
    4  A    between atoms: C_10  and  C_15
    5  A    between atoms: C_10  and  C_28
    6  A    between atoms: C_21  and  N_38
    7  A    between atoms: C_22  and  C_28
    8  A    between atoms: N_31  and  O_32
                            x       y       z     vdW  Elec       q    Type
                         _______ _______ _______ _____ _____    ______ ____

>  <TORSDO>
F 8

$$$$
