=
 OpenBabel11072409413D

 25 27  0  0  0  0  0  0  0  0999 V2000
  188.9010  178.2980  141.4530 O   0  0  0  0  0  0  0  0  0  0  0  0
  192.0530  176.4320  146.4900 C   0  0  0  0  0  3  0  0  0  0  0  0
  192.4300  176.8910  144.1400 C   0  0  0  0  0  3  0  0  0  0  0  0
  189.2970  177.9460  142.5960 C   0  0  0  0  0  0  0  0  0  0  0  0
  192.9250  176.4920  145.3910 C   0  0  0  0  0  0  0  0  0  0  0  0
  188.8740  177.5000  144.9310 C   0  0  0  0  0  3  0  0  0  0  0  0
  190.6040  177.6120  142.7770 N   0  0  0  0  0  2  0  0  0  0  0  0
  190.7020  176.7660  146.3450 C   0  0  0  0  0  3  0  0  0  0  0  0
  191.0830  177.2260  143.9880 C   0  0  0  0  0  0  0  0  0  0  0  0
  188.3970  177.8970  143.6750 C   0  0  0  0  0  0  0  0  0  0  0  0
  190.2160  177.1630  145.0980 C   0  0  0  0  0  0  0  0  0  0  0  0
  186.1240  176.1150  143.0790 O   0  0  0  0  0  0  0  0  0  0  0  0
  187.0210  178.2510  143.4680 N   0  0  0  0  0  2  0  0  0  0  0  0
  185.9400  177.3580  143.1700 C   0  0  0  0  0  0  0  0  0  0  0  0
  184.5680  177.9080  142.9970 C   0  0  0  0  0  2  0  0  0  0  0  0
  184.3870  179.1230  143.8840 C   0  0  0  0  0  2  0  0  0  0  0  0
  183.9890  178.6960  145.2130 N   0  0  0  0  0  2  0  0  0  0  0  0
  184.8960  179.2110  146.0760 O   0  0  0  0  0  0  0  0  0  0  0  0
  184.8830  178.3370  147.1640 C   0  0  0  0  0  3  0  0  0  0  0  0
  186.2640  178.2820  147.7850 C   0  0  0  0  0  2  0  0  0  0  0  0
  185.0520  176.9140  146.6730 C   0  0  0  0  0  2  0  0  0  0  0  0
  186.4340  176.8610  147.2890 C   0  0  0  0  0  2  0  0  0  0  0  0
  194.7300  175.4750  146.5500 O   0  0  0  0  0  0  0  0  0  0  0  0
  194.3460  176.1380  145.5490 C   0  0  0  0  0  0  0  0  0  0  0  0
  195.3030  176.5420  144.5740 N   0  0  0  0  0  1  0  0  0  0  0  0
  1  4  2  0  0  0  0
  3  5  1  0  0  0  0
  4  7  1  0  0  0  0
  4 10  1  0  0  0  0
  5 24  1  0  0  0  0
  5  2  2  0  0  0  0
  6 11  1  0  0  0  0
  7  9  1  0  0  0  0
  8  2  1  0  0  0  0
  9  3  2  0  0  0  0
  9 11  1  0  0  0  0
 10  6  2  0  0  0  0
 11  8  2  0  0  0  0
 12 14  2  0  0  0  0
 13 10  1  0  0  0  0
 14 13  1  0  0  0  0
 15 14  1  0  0  0  0
 15 16  1  0  0  0  0
 16 17  1  0  0  0  0
 17 18  1  0  0  0  0
 18 19  1  0  0  0  0
 19 20  1  0  0  0  0
 21 19  1  0  0  0  0
 21 22  1  0  0  0  0
 22 20  1  0  0  0  0
 24 23  2  0  0  0  0
 25 24  1  0  0  0  0
M  END
>  <MODEL>
1

>  <REMARK>
 VINA RESULT:      -7.0      0.000      0.000
  Name = 
  7 active torsions:
  status: ('A' for Active; 'I' for Inactive)
    1  A    between atoms: C_1  and  C_17
    2  A    between atoms: C_1  and  C_20
    3  A    between atoms: C_2  and  O_18
    4  A    between atoms: N_6  and  O_18
    5  A    between atoms: N_6  and  C_20
    6  A    between atoms: C_11  and  C_21
    7  A    between atoms: N_15  and  C_23
                            x       y       z     vdW  Elec       q    Type
                         _______ _______ _______ _____ _____    ______ ____

>  <TORSDO>
F 7

$$$$
=
 OpenBabel11072409413D

 25 27  0  0  0  0  0  0  0  0999 V2000
  189.2680  177.8030  143.4140 O   0  0  0  0  0  0  0  0  0  0  0  0
  194.4500  175.7630  146.1990 C   0  0  0  0  0  3  0  0  0  0  0  0
  193.6870  176.4740  144.0110 C   0  0  0  0  0  3  0  0  0  0  0  0
  190.1580  177.3820  144.1980 C   0  0  0  0  0  0  0  0  0  0  0  0
  194.7160  176.0050  144.8420 C   0  0  0  0  0  0  0  0  0  0  0  0
  190.8740  176.6800  146.3950 C   0  0  0  0  0  3  0  0  0  0  0  0
  191.4130  177.1520  143.7250 N   0  0  0  0  0  2  0  0  0  0  0  0
  193.1730  175.9850  146.7240 C   0  0  0  0  0  3  0  0  0  0  0  0
  192.4090  176.6990  144.5300 C   0  0  0  0  0  0  0  0  0  0  0  0
  189.8580  177.1500  145.5520 C   0  0  0  0  0  0  0  0  0  0  0  0
  192.1530  176.4520  145.8940 C   0  0  0  0  0  0  0  0  0  0  0  0
  188.1310  175.3560  147.1320 O   0  0  0  0  0  0  0  0  0  0  0  0
  188.5290  177.3950  146.0370 N   0  0  0  0  0  2  0  0  0  0  0  0
  187.7110  176.4950  146.7960 C   0  0  0  0  0  0  0  0  0  0  0  0
  186.3530  176.9280  147.2230 C   0  0  0  0  0  2  0  0  0  0  0  0
  186.3490  178.4210  147.4820 C   0  0  0  0  0  2  0  0  0  0  0  0
  185.3020  179.0460  146.6940 N   0  0  0  0  0  2  0  0  0  0  0  0
  184.8190  178.0930  145.8630 O   0  0  0  0  0  0  0  0  0  0  0  0
  184.3890  178.7940  144.7350 C   0  0  0  0  0  3  0  0  0  0  0  0
  184.7290  178.0030  143.4870 C   0  0  0  0  0  2  0  0  0  0  0  0
  185.4280  179.8300  144.3550 C   0  0  0  0  0  2  0  0  0  0  0  0
  185.7710  179.0370  143.1120 C   0  0  0  0  0  2  0  0  0  0  0  0
  196.7720  174.8230  144.7330 O   0  0  0  0  0  0  0  0  0  0  0  0
  196.0630  175.7680  144.2940 C   0  0  0  0  0  0  0  0  0  0  0  0
  196.5800  176.6050  143.2640 N   0  0  0  0  0  1  0  0  0  0  0  0
  1  4  2  0  0  0  0
  2  8  1  0  0  0  0
  3  9  2  0  0  0  0
  3  5  1  0  0  0  0
  4 10  1  0  0  0  0
  5  2  2  0  0  0  0
  7  4  1  0  0  0  0
  7  9  1  0  0  0  0
  9 11  1  0  0  0  0
 10 13  1  0  0  0  0
 10  6  2  0  0  0  0
 11  6  1  0  0  0  0
 11  8  2  0  0  0  0
 13 14  1  0  0  0  0
 14 12  2  0  0  0  0
 14 15  1  0  0  0  0
 15 16  1  0  0  0  0
 17 16  1  0  0  0  0
 18 17  1  0  0  0  0
 19 18  1  0  0  0  0
 20 19  1  0  0  0  0
 21 19  1  0  0  0  0
 22 20  1  0  0  0  0
 22 21  1  0  0  0  0
 24 23  2  0  0  0  0
 24  5  1  0  0  0  0
 25 24  1  0  0  0  0
M  END
>  <MODEL>
2

>  <REMARK>
 VINA RESULT:      -6.5      1.694      2.971
  Name = 
  7 active torsions:
  status: ('A' for Active; 'I' for Inactive)
    1  A    between atoms: C_1  and  C_17
    2  A    between atoms: C_1  and  C_20
    3  A    between atoms: C_2  and  O_18
    4  A    between atoms: N_6  and  O_18
    5  A    between atoms: N_6  and  C_20
    6  A    between atoms: C_11  and  C_21
    7  A    between atoms: N_15  and  C_23
                            x       y       z     vdW  Elec       q    Type
                         _______ _______ _______ _____ _____    ______ ____

>  <TORSDO>
F 7

$$$$
=
 OpenBabel11072409413D

 25 27  0  0  0  0  0  0  0  0999 V2000
  188.4730  174.6190  147.8130 O   0  0  0  0  0  0  0  0  0  0  0  0
  192.9370  177.0620  144.2240 C   0  0  0  0  0  3  0  0  0  0  0  0
  192.6890  175.4780  146.0420 C   0  0  0  0  0  3  0  0  0  0  0  0
  189.1680  175.2500  146.9740 C   0  0  0  0  0  0  0  0  0  0  0  0
  193.5120  176.1550  145.1280 C   0  0  0  0  0  0  0  0  0  0  0  0
  189.3680  176.8350  145.1640 C   0  0  0  0  0  3  0  0  0  0  0  0
  190.5150  175.0510  146.9380 N   0  0  0  0  0  2  0  0  0  0  0  0
  191.5580  177.2950  144.2300 C   0  0  0  0  0  3  0  0  0  0  0  0
  191.3110  175.7060  146.0530 C   0  0  0  0  0  0  0  0  0  0  0  0
  188.5610  176.1510  146.0830 C   0  0  0  0  0  0  0  0  0  0  0  0
  190.7440  176.6190  145.1410 C   0  0  0  0  0  0  0  0  0  0  0  0
  187.0560  178.1840  147.5990 O   0  0  0  0  0  0  0  0  0  0  0  0
  187.1400  176.3510  146.1340 N   0  0  0  0  0  2  0  0  0  0  0  0
  186.4380  177.3460  146.8910 C   0  0  0  0  0  0  0  0  0  0  0  0
  184.9540  177.4080  146.8120 C   0  0  0  0  0  2  0  0  0  0  0  0
  184.5290  178.7090  146.1620 C   0  0  0  0  0  2  0  0  0  0  0  0
  184.4680  178.5330  144.7230 N   0  0  0  0  0  2  0  0  0  0  0  0
  185.5350  179.1860  144.2040 O   0  0  0  0  0  0  0  0  0  0  0  0
  185.6140  178.7380  142.8840 C   0  0  0  0  0  3  0  0  0  0  0  0
  185.3280  177.2510  142.8360 C   0  0  0  0  0  2  0  0  0  0  0  0
  187.0610  178.4660  142.5260 C   0  0  0  0  0  2  0  0  0  0  0  0
  186.7750  176.9800  142.4840 C   0  0  0  0  0  2  0  0  0  0  0  0
  195.7070  176.5310  144.3070 O   0  0  0  0  0  0  0  0  0  0  0  0
  194.9650  175.9150  145.1180 C   0  0  0  0  0  0  0  0  0  0  0  0
  195.5490  174.9830  146.0240 N   0  0  0  0  0  1  0  0  0  0  0  0
  2  8  2  0  0  0  0
  2  5  1  0  0  0  0
  3  9  1  0  0  0  0
  4  1  2  0  0  0  0
  5  3  2  0  0  0  0
  6 10  2  0  0  0  0
  7  4  1  0  0  0  0
  8 11  1  0  0  0  0
  9  7  1  0  0  0  0
 10 13  1  0  0  0  0
 10  4  1  0  0  0  0
 11  6  1  0  0  0  0
 11  9  2  0  0  0  0
 13 14  1  0  0  0  0
 14 12  2  0  0  0  0
 15 14  1  0  0  0  0
 16 15  1  0  0  0  0
 17 16  1  0  0  0  0
 18 17  1  0  0  0  0
 19 18  1  0  0  0  0
 20 19  1  0  0  0  0
 21 19  1  0  0  0  0
 22 21  1  0  0  0  0
 22 20  1  0  0  0  0
 23 24  2  0  0  0  0
 24  5  1  0  0  0  0
 24 25  1  0  0  0  0
M  END
>  <MODEL>
3

>  <REMARK>
 VINA RESULT:      -6.5      2.112      3.573
  Name = 
  7 active torsions:
  status: ('A' for Active; 'I' for Inactive)
    1  A    between atoms: C_1  and  C_17
    2  A    between atoms: C_1  and  C_20
    3  A    between atoms: C_2  and  O_18
    4  A    between atoms: N_6  and  O_18
    5  A    between atoms: N_6  and  C_20
    6  A    between atoms: C_11  and  C_21
    7  A    between atoms: N_15  and  C_23
                            x       y       z     vdW  Elec       q    Type
                         _______ _______ _______ _____ _____    ______ ____

>  <TORSDO>
F 7

$$$$
=
 OpenBabel11072409413D

 25 27  0  0  0  0  0  0  0  0999 V2000
  188.9580  175.4430  141.4140 O   0  0  0  0  0  0  0  0  0  0  0  0
  186.8950  177.1680  147.0310 C   0  0  0  0  0  3  0  0  0  0  0  0
  186.2390  177.3020  144.7020 C   0  0  0  0  0  3  0  0  0  0  0  0
  188.7690  175.6720  142.6380 C   0  0  0  0  0  0  0  0  0  0  0  0
  185.9800  177.5840  146.0520 C   0  0  0  0  0  0  0  0  0  0  0  0
  189.4630  175.5150  144.9460 C   0  0  0  0  0  3  0  0  0  0  0  0
  187.6500  176.3410  143.0280 N   0  0  0  0  0  2  0  0  0  0  0  0
  188.0580  176.4790  146.6710 C   0  0  0  0  0  3  0  0  0  0  0  0
  187.3980  176.6140  144.3350 C   0  0  0  0  0  0  0  0  0  0  0  0
  189.7060  175.2410  143.5930 C   0  0  0  0  0  0  0  0  0  0  0  0
  188.3110  176.2010  145.3270 C   0  0  0  0  0  0  0  0  0  0  0  0
  192.2710  176.3660  142.6670 O   0  0  0  0  0  0  0  0  0  0  0  0
  190.8830  174.5380  143.1660 N   0  0  0  0  0  2  0  0  0  0  0  0
  192.1130  175.1170  142.7120 C   0  0  0  0  0  0  0  0  0  0  0  0
  193.2360  174.2250  142.3160 C   0  0  0  0  0  2  0  0  0  0  0  0
  194.5580  174.9010  142.6150 C   0  0  0  0  0  2  0  0  0  0  0  0
  194.9320  174.6440  143.9940 N   0  0  0  0  0  2  0  0  0  0  0  0
  194.9520  175.8420  144.6230 O   0  0  0  0  0  0  0  0  0  0  0  0
  194.6840  175.5440  145.9600 C   0  0  0  0  0  3  0  0  0  0  0  0
  193.3490  174.8340  146.0620 C   0  0  0  0  0  2  0  0  0  0  0  0
  194.0860  176.7580  146.6410 C   0  0  0  0  0  2  0  0  0  0  0  0
  192.7510  176.0500  146.7380 C   0  0  0  0  0  2  0  0  0  0  0  0
  184.4650  178.4650  147.6530 O   0  0  0  0  0  0  0  0  0  0  0  0
  184.7570  178.3110  146.4370 C   0  0  0  0  0  0  0  0  0  0  0  0
  183.8910  178.8450  145.4400 N   0  0  0  0  0  1  0  0  0  0  0  0
  1  4  2  0  0  0  0
  3  5  1  0  0  0  0
  4  7  1  0  0  0  0
  4 10  1  0  0  0  0
  5 24  1  0  0  0  0
  5  2  2  0  0  0  0
  6 11  1  0  0  0  0
  7  9  1  0  0  0  0
  8  2  1  0  0  0  0
  9  3  2  0  0  0  0
  9 11  1  0  0  0  0
 10  6  2  0  0  0  0
 11  8  2  0  0  0  0
 12 14  2  0  0  0  0
 13 10  1  0  0  0  0
 14 13  1  0  0  0  0
 15 16  1  0  0  0  0
 15 14  1  0  0  0  0
 16 17  1  0  0  0  0
 17 18  1  0  0  0  0
 18 19  1  0  0  0  0
 19 20  1  0  0  0  0
 19 21  1  0  0  0  0
 20 22  1  0  0  0  0
 21 22  1  0  0  0  0
 24 23  2  0  0  0  0
 25 24  1  0  0  0  0
M  END
>  <MODEL>
4

>  <REMARK>
 VINA RESULT:      -6.0      2.104      7.472
  Name = 
  7 active torsions:
  status: ('A' for Active; 'I' for Inactive)
    1  A    between atoms: C_1  and  C_17
    2  A    between atoms: C_1  and  C_20
    3  A    between atoms: C_2  and  O_18
    4  A    between atoms: N_6  and  O_18
    5  A    between atoms: N_6  and  C_20
    6  A    between atoms: C_11  and  C_21
    7  A    between atoms: N_15  and  C_23
                            x       y       z     vdW  Elec       q    Type
                         _______ _______ _______ _____ _____    ______ ____

>  <TORSDO>
F 7

$$$$
=
 OpenBabel11072409413D

 25 27  0  0  0  0  0  0  0  0999 V2000
  186.6080  176.7540  147.6480 O   0  0  0  0  0  0  0  0  0  0  0  0
  186.0100  178.2600  141.6360 C   0  0  0  0  0  3  0  0  0  0  0  0
  184.6250  177.7880  143.5680 C   0  0  0  0  0  3  0  0  0  0  0  0
  186.7600  177.0560  146.4350 C   0  0  0  0  0  0  0  0  0  0  0  0
  184.7370  178.1260  142.2100 C   0  0  0  0  0  0  0  0  0  0  0  0
  188.1790  177.5180  144.5370 C   0  0  0  0  0  3  0  0  0  0  0  0
  185.6630  177.2580  145.6540 N   0  0  0  0  0  2  0  0  0  0  0  0
  187.1620  178.0590  142.4040 C   0  0  0  0  0  3  0  0  0  0  0  0
  185.7710  177.5860  144.3410 C   0  0  0  0  0  0  0  0  0  0  0  0
  188.0500  177.1820  145.8920 C   0  0  0  0  0  0  0  0  0  0  0  0
  187.0460  177.7230  143.7540 C   0  0  0  0  0  0  0  0  0  0  0  0
  189.4220  174.6380  146.4810 O   0  0  0  0  0  0  0  0  0  0  0  0
  189.1970  176.9640  146.7270 N   0  0  0  0  0  2  0  0  0  0  0  0
  189.8350  175.7090  147.0010 C   0  0  0  0  0  0  0  0  0  0  0  0
  191.0270  175.6770  147.8900 C   0  0  0  0  0  2  0  0  0  0  0  0
  192.1260  176.5410  147.3050 C   0  0  0  0  0  2  0  0  0  0  0  0
  193.1930  175.6930  146.8060 N   0  0  0  0  0  2  0  0  0  0  0  0
  193.5460  176.1830  145.5940 O   0  0  0  0  0  0  0  0  0  0  0  0
  194.9390  176.2610  145.6370 C   0  0  0  0  0  3  0  0  0  0  0  0
  195.4850  176.3600  144.2270 C   0  0  0  0  0  2  0  0  0  0  0  0
  195.5210  174.8670  145.7590 C   0  0  0  0  0  2  0  0  0  0  0  0
  196.0610  174.9650  144.3470 C   0  0  0  0  0  2  0  0  0  0  0  0
  183.5880  178.2810  140.1390 O   0  0  0  0  0  0  0  0  0  0  0  0
  183.5270  178.3380  141.3960 C   0  0  0  0  0  0  0  0  0  0  0  0
  182.2760  178.6110  142.0200 N   0  0  0  0  0  1  0  0  0  0  0  0
  2  5  2  0  0  0  0
  2  8  1  0  0  0  0
  3  9  2  0  0  0  0
  4  1  2  0  0  0  0
  5  3  1  0  0  0  0
  6 10  2  0  0  0  0
  7  4  1  0  0  0  0
  8 11  2  0  0  0  0
  9  7  1  0  0  0  0
 10  4  1  0  0  0  0
 10 13  1  0  0  0  0
 11  9  1  0  0  0  0
 11  6  1  0  0  0  0
 12 14  2  0  0  0  0
 13 14  1  0  0  0  0
 14 15  1  0  0  0  0
 16 15  1  0  0  0  0
 17 16  1  0  0  0  0
 18 19  1  0  0  0  0
 18 17  1  0  0  0  0
 19 21  1  0  0  0  0
 20 22  1  0  0  0  0
 20 19  1  0  0  0  0
 22 21  1  0  0  0  0
 23 24  2  0  0  0  0
 24 25  1  0  0  0  0
 24  5  1  0  0  0  0
M  END
>  <MODEL>
5

>  <REMARK>
 VINA RESULT:      -5.9      2.512      8.265
  Name = 
  7 active torsions:
  status: ('A' for Active; 'I' for Inactive)
    1  A    between atoms: C_1  and  C_17
    2  A    between atoms: C_1  and  C_20
    3  A    between atoms: C_2  and  O_18
    4  A    between atoms: N_6  and  O_18
    5  A    between atoms: N_6  and  C_20
    6  A    between atoms: C_11  and  C_21
    7  A    between atoms: N_15  and  C_23
                            x       y       z     vdW  Elec       q    Type
                         _______ _______ _______ _____ _____    ______ ____

>  <TORSDO>
F 7

$$$$
=
 OpenBabel11072409413D

 25 27  0  0  0  0  0  0  0  0999 V2000
  191.4950  177.8200  143.1770 O   0  0  0  0  0  0  0  0  0  0  0  0
  186.3850  176.7920  146.5830 C   0  0  0  0  0  3  0  0  0  0  0  0
  187.0790  178.0440  144.6280 C   0  0  0  0  0  3  0  0  0  0  0  0
  190.6270  177.4530  144.0120 C   0  0  0  0  0  0  0  0  0  0  0  0
  186.0730  177.6680  145.5320 C   0  0  0  0  0  0  0  0  0  0  0  0
  189.9800  176.1900  145.9660 C   0  0  0  0  0  3  0  0  0  0  0  0
  189.3520  177.9160  143.8990 N   0  0  0  0  0  2  0  0  0  0  0  0
  187.6830  176.2950  146.7350 C   0  0  0  0  0  3  0  0  0  0  0  0
  188.3780  177.5510  144.7740 C   0  0  0  0  0  0  0  0  0  0  0  0
  190.9720  176.5750  145.0540 C   0  0  0  0  0  0  0  0  0  0  0  0
  188.6800  176.6720  145.8330 C   0  0  0  0  0  0  0  0  0  0  0  0
  192.8300  176.8470  147.3290 O   0  0  0  0  0  0  0  0  0  0  0  0
  192.3220  176.0960  145.1610 N   0  0  0  0  0  2  0  0  0  0  0  0
  193.2030  176.2540  146.2810 C   0  0  0  0  0  0  0  0  0  0  0  0
  194.5730  175.6790  146.2170 C   0  0  0  0  0  2  0  0  0  0  0  0
  195.2540  176.1180  144.9360 C   0  0  0  0  0  2  0  0  0  0  0  0
  196.0290  175.0150  144.3980 N   0  0  0  0  0  2  0  0  0  0  0  0
  195.2010  173.9450  144.3470 O   0  0  0  0  0  0  0  0  0  0  0  0
  196.0540  172.8450  144.2470 C   0  0  0  0  0  3  0  0  0  0  0  0
  195.5630  171.7390  145.1590 C   0  0  0  0  0  2  0  0  0  0  0  0
  197.2550  173.0490  145.1480 C   0  0  0  0  0  2  0  0  0  0  0  0
  196.7610  171.9470  146.0620 C   0  0  0  0  0  2  0  0  0  0  0  0
  183.9360  178.2660  146.3730 O   0  0  0  0  0  0  0  0  0  0  0  0
  184.7040  178.1890  145.3770 C   0  0  0  0  0  0  0  0  0  0  0  0
  184.2320  178.6100  144.1010 N   0  0  0  0  0  1  0  0  0  0  0  0
  1  4  2  0  0  0  0
  2  8  1  0  0  0  0
  3  9  2  0  0  0  0
  3  5  1  0  0  0  0
  4 10  1  0  0  0  0
  5  2  2  0  0  0  0
  7  4  1  0  0  0  0
  7  9  1  0  0  0  0
  9 11  1  0  0  0  0
 10 13  1  0  0  0  0
 10  6  2  0  0  0  0
 11  6  1  0  0  0  0
 11  8  2  0  0  0  0
 13 14  1  0  0  0  0
 14 12  2  0  0  0  0
 15 14  1  0  0  0  0
 16 15  1  0  0  0  0
 17 16  1  0  0  0  0
 18 17  1  0  0  0  0
 19 18  1  0  0  0  0
 19 21  1  0  0  0  0
 19 20  1  0  0  0  0
 20 22  1  0  0  0  0
 21 22  1  0  0  0  0
 24  5  1  0  0  0  0
 24 23  2  0  0  0  0
 25 24  1  0  0  0  0
M  END
>  <MODEL>
6

>  <REMARK>
 VINA RESULT:      -5.9      2.353      8.513
  Name = 
  7 active torsions:
  status: ('A' for Active; 'I' for Inactive)
    1  A    between atoms: C_1  and  C_17
    2  A    between atoms: C_1  and  C_20
    3  A    between atoms: C_2  and  O_18
    4  A    between atoms: N_6  and  O_18
    5  A    between atoms: N_6  and  C_20
    6  A    between atoms: C_11  and  C_21
    7  A    between atoms: N_15  and  C_23
                            x       y       z     vdW  Elec       q    Type
                         _______ _______ _______ _____ _____    ______ ____

>  <TORSDO>
F 7

$$$$
=
 OpenBabel11072409413D

 25 27  0  0  0  0  0  0  0  0999 V2000
  184.1130  177.8470  146.5980 O   0  0  0  0  0  0  0  0  0  0  0  0
  190.1200  177.3660  145.0310 C   0  0  0  0  0  3  0  0  0  0  0  0
  188.6750  176.9990  146.9420 C   0  0  0  0  0  3  0  0  0  0  0  0
  185.2410  177.8400  146.0390 C   0  0  0  0  0  0  0  0  0  0  0  0
  189.9560  176.9720  146.3680 C   0  0  0  0  0  0  0  0  0  0  0  0
  186.6430  178.2200  144.1100 C   0  0  0  0  0  3  0  0  0  0  0  0
  186.3350  177.4410  146.7450 N   0  0  0  0  0  2  0  0  0  0  0  0
  189.0220  177.7840  144.2720 C   0  0  0  0  0  3  0  0  0  0  0  0
  187.5740  177.4140  146.1890 C   0  0  0  0  0  0  0  0  0  0  0  0
  185.3710  178.2410  144.6980 C   0  0  0  0  0  0  0  0  0  0  0  0
  187.7510  177.8080  144.8470 C   0  0  0  0  0  0  0  0  0  0  0  0
  184.5660  177.4900  141.9620 O   0  0  0  0  0  0  0  0  0  0  0  0
  184.2090  178.6600  143.9670 N   0  0  0  0  0  2  0  0  0  0  0  0
  183.8510  178.2830  142.6310 C   0  0  0  0  0  0  0  0  0  0  0  0
  182.5950  178.8120  142.0360 C   0  0  0  0  0  2  0  0  0  0  0  0
  182.2630  178.0450  140.7720 C   0  0  0  0  0  2  0  0  0  0  0  0
  180.8610  178.2340  140.4460 N   0  0  0  0  0  2  0  0  0  0  0  0
  180.3060  178.9040  141.4830 O   0  0  0  0  0  0  0  0  0  0  0  0
  178.9380  178.9060  141.2100 C   0  0  0  0  0  3  0  0  0  0  0  0
  178.1610  178.8610  142.5110 C   0  0  0  0  0  2  0  0  0  0  0  0
  178.4810  177.4970  140.8940 C   0  0  0  0  0  2  0  0  0  0  0  0
  177.7100  177.4500  142.1960 C   0  0  0  0  0  2  0  0  0  0  0  0
  191.3200  177.0140  148.3100 O   0  0  0  0  0  0  0  0  0  0  0  0
  191.1170  176.5340  147.1630 C   0  0  0  0  0  0  0  0  0  0  0  0
  192.0220  175.5640  146.6440 N   0  0  0  0  0  1  0  0  0  0  0  0
  2  5  1  0  0  0  0
  4  1  2  0  0  0  0
  4  7  1  0  0  0  0
  5  3  2  0  0  0  0
  5 24  1  0  0  0  0
  6 10  2  0  0  0  0
  6 11  1  0  0  0  0
  8 11  1  0  0  0  0
  8  2  2  0  0  0  0
  9  7  1  0  0  0  0
  9  3  1  0  0  0  0
 10  4  1  0  0  0  0
 11  9  2  0  0  0  0
 12 14  2  0  0  0  0
 13 10  1  0  0  0  0
 14 13  1  0  0  0  0
 15 14  1  0  0  0  0
 16 15  1  0  0  0  0
 17 16  1  0  0  0  0
 17 18  1  0  0  0  0
 19 18  1  0  0  0  0
 19 20  1  0  0  0  0
 21 19  1  0  0  0  0
 21 22  1  0  0  0  0
 22 20  1  0  0  0  0
 24 23  2  0  0  0  0
 25 24  1  0  0  0  0
M  END
>  <MODEL>
7

>  <REMARK>
 VINA RESULT:      -5.9      3.615      5.310
  Name = 
  7 active torsions:
  status: ('A' for Active; 'I' for Inactive)
    1  A    between atoms: C_1  and  C_17
    2  A    between atoms: C_1  and  C_20
    3  A    between atoms: C_2  and  O_18
    4  A    between atoms: N_6  and  O_18
    5  A    between atoms: N_6  and  C_20
    6  A    between atoms: C_11  and  C_21
    7  A    between atoms: N_15  and  C_23
                            x       y       z     vdW  Elec       q    Type
                         _______ _______ _______ _____ _____    ______ ____

>  <TORSDO>
F 7

$$$$
=
 OpenBabel11072409413D

 25 27  0  0  0  0  0  0  0  0999 V2000
  191.2090  177.7140  142.7720 O   0  0  0  0  0  0  0  0  0  0  0  0
  185.0770  177.8010  143.8530 C   0  0  0  0  0  3  0  0  0  0  0  0
  186.6340  178.1050  142.0200 C   0  0  0  0  0  3  0  0  0  0  0  0
  190.0440  177.6740  143.2460 C   0  0  0  0  0  0  0  0  0  0  0  0
  185.3140  178.0730  142.4960 C   0  0  0  0  0  0  0  0  0  0  0  0
  188.5300  177.3640  145.1020 C   0  0  0  0  0  3  0  0  0  0  0  0
  188.9800  177.9000  142.4270 N   0  0  0  0  0  2  0  0  0  0  0  0
  186.1430  177.5650  144.7270 C   0  0  0  0  0  3  0  0  0  0  0  0
  187.7030  177.8690  142.8880 C   0  0  0  0  0  0  0  0  0  0  0  0
  189.8420  177.3990  144.6100 C   0  0  0  0  0  0  0  0  0  0  0  0
  187.4530  177.5970  144.2490 C   0  0  0  0  0  0  0  0  0  0  0  0
  190.8440  174.8260  145.6440 O   0  0  0  0  0  0  0  0  0  0  0  0
  190.9730  177.1640  145.4620 N   0  0  0  0  0  2  0  0  0  0  0  0
  191.4290  175.8970  145.9550 C   0  0  0  0  0  0  0  0  0  0  0  0
  192.6340  175.8460  146.8250 C   0  0  0  0  0  2  0  0  0  0  0  0
  193.6740  176.8260  146.3210 C   0  0  0  0  0  2  0  0  0  0  0  0
  194.6940  176.1090  145.5770 N   0  0  0  0  0  2  0  0  0  0  0  0
  194.9490  174.9710  146.2640 O   0  0  0  0  0  0  0  0  0  0  0  0
  195.5010  174.1050  145.3180 C   0  0  0  0  0  3  0  0  0  0  0  0
  196.7130  173.4140  145.9100 C   0  0  0  0  0  2  0  0  0  0  0  0
  196.4060  174.8830  144.3850 C   0  0  0  0  0  2  0  0  0  0  0  0
  197.6170  174.1970  144.9810 C   0  0  0  0  0  2  0  0  0  0  0  0
  184.4010  178.5650  140.3610 O   0  0  0  0  0  0  0  0  0  0  0  0
  184.1880  178.3220  141.5790 C   0  0  0  0  0  0  0  0  0  0  0  0
  182.8460  178.2940  142.0590 N   0  0  0  0  0  1  0  0  0  0  0  0
  1  4  2  0  0  0  0
  2  8  1  0  0  0  0
  3  5  1  0  0  0  0
  3  9  2  0  0  0  0
  4 10  1  0  0  0  0
  5  2  2  0  0  0  0
  7  9  1  0  0  0  0
  7  4  1  0  0  0  0
  9 11  1  0  0  0  0
 10  6  2  0  0  0  0
 10 13  1  0  0  0  0
 11  8  2  0  0  0  0
 11  6  1  0  0  0  0
 12 14  2  0  0  0  0
 13 14  1  0  0  0  0
 14 15  1  0  0  0  0
 16 15  1  0  0  0  0
 17 18  1  0  0  0  0
 17 16  1  0  0  0  0
 19 20  1  0  0  0  0
 19 18  1  0  0  0  0
 21 22  1  0  0  0  0
 21 19  1  0  0  0  0
 22 20  1  0  0  0  0
 23 24  2  0  0  0  0
 24 25  1  0  0  0  0
 24  5  1  0  0  0  0
M  END
>  <MODEL>
8

>  <REMARK>
 VINA RESULT:      -5.9      2.267      8.315
  Name = 
  7 active torsions:
  status: ('A' for Active; 'I' for Inactive)
    1  A    between atoms: C_1  and  C_17
    2  A    between atoms: C_1  and  C_20
    3  A    between atoms: C_2  and  O_18
    4  A    between atoms: N_6  and  O_18
    5  A    between atoms: N_6  and  C_20
    6  A    between atoms: C_11  and  C_21
    7  A    between atoms: N_15  and  C_23
                            x       y       z     vdW  Elec       q    Type
                         _______ _______ _______ _____ _____    ______ ____

>  <TORSDO>
F 7

$$$$
=
 OpenBabel11072409413D

 25 27  0  0  0  0  0  0  0  0999 V2000
  191.7520  176.1570  147.2490 O   0  0  0  0  0  0  0  0  0  0  0  0
  186.5910  178.2300  144.4470 C   0  0  0  0  0  3  0  0  0  0  0  0
  187.3710  177.6110  146.6570 C   0  0  0  0  0  3  0  0  0  0  0  0
  190.8620  176.5670  146.4580 C   0  0  0  0  0  0  0  0  0  0  0  0
  186.3430  178.0720  145.8190 C   0  0  0  0  0  0  0  0  0  0  0  0
  190.1280  177.1730  144.2390 C   0  0  0  0  0  3  0  0  0  0  0  0
  189.6240  176.8660  146.9400 N   0  0  0  0  0  2  0  0  0  0  0  0
  187.8490  177.9330  143.9130 C   0  0  0  0  0  3  0  0  0  0  0  0
  188.6300  177.3130  146.1290 C   0  0  0  0  0  0  0  0  0  0  0  0
  191.1440  176.7150  145.0890 C   0  0  0  0  0  0  0  0  0  0  0  0
  188.8680  177.4750  144.7500 C   0  0  0  0  0  0  0  0  0  0  0  0
  192.0580  174.2090  143.8300 O   0  0  0  0  0  0  0  0  0  0  0  0
  192.4530  176.3940  144.5950 N   0  0  0  0  0  2  0  0  0  0  0  0
  192.8680  175.1590  143.9960 C   0  0  0  0  0  0  0  0  0  0  0  0
  194.2730  175.0110  143.5310 C   0  0  0  0  0  2  0  0  0  0  0  0
  195.1510  176.0400  144.2140 C   0  0  0  0  0  2  0  0  0  0  0  0
  196.3560  175.3970  144.7060 N   0  0  0  0  0  2  0  0  0  0  0  0
  195.9680  174.5210  145.6630 O   0  0  0  0  0  0  0  0  0  0  0  0
  197.1070  173.7570  145.9240 C   0  0  0  0  0  3  0  0  0  0  0  0
  197.8800  173.5470  144.6380 C   0  0  0  0  0  2  0  0  0  0  0  0
  196.7400  172.2870  145.9370 C   0  0  0  0  0  2  0  0  0  0  0  0
  197.5080  172.0790  144.6490 C   0  0  0  0  0  2  0  0  0  0  0  0
  184.8230  178.3460  147.6210 O   0  0  0  0  0  0  0  0  0  0  0  0
  185.0160  178.3860  146.3770 C   0  0  0  0  0  0  0  0  0  0  0  0
  183.9360  178.7350  145.5160 N   0  0  0  0  0  1  0  0  0  0  0  0
  2  5  1  0  0  0  0
  4  7  1  0  0  0  0
  4  1  2  0  0  0  0
  5 24  1  0  0  0  0
  5  3  2  0  0  0  0
  6 11  1  0  0  0  0
  6 10  2  0  0  0  0
  8  2  2  0  0  0  0
  8 11  1  0  0  0  0
  9  3  1  0  0  0  0
  9  7  1  0  0  0  0
 10  4  1  0  0  0  0
 11  9  2  0  0  0  0
 12 14  2  0  0  0  0
 13 10  1  0  0  0  0
 14 13  1  0  0  0  0
 15 14  1  0  0  0  0
 15 16  1  0  0  0  0
 16 17  1  0  0  0  0
 17 18  1  0  0  0  0
 18 19  1  0  0  0  0
 19 21  1  0  0  0  0
 20 22  1  0  0  0  0
 20 19  1  0  0  0  0
 22 21  1  0  0  0  0
 24 23  2  0  0  0  0
 25 24  1  0  0  0  0
M  END
>  <MODEL>
9

>  <REMARK>
 VINA RESULT:      -5.9      2.585      8.697
  Name = 
  7 active torsions:
  status: ('A' for Active; 'I' for Inactive)
    1  A    between atoms: C_1  and  C_17
    2  A    between atoms: C_1  and  C_20
    3  A    between atoms: C_2  and  O_18
    4  A    between atoms: N_6  and  O_18
    5  A    between atoms: N_6  and  C_20
    6  A    between atoms: C_11  and  C_21
    7  A    between atoms: N_15  and  C_23
                            x       y       z     vdW  Elec       q    Type
                         _______ _______ _______ _____ _____    ______ ____

>  <TORSDO>
F 7

$$$$
