=
 OpenBabel11062420383D

 32 35  0  0  1  0  0  0  0  0999 V2000
  191.1020  173.7710  140.5400 C   0  0  0  0  0  1  0  0  0  0  0  0
  190.4870  173.0270  143.9890 O   0  0  0  0  0  0  0  0  0  0  0  0
  187.8060  172.8330  142.0140 C   0  0  0  0  0  2  0  0  0  0  0  0
  190.8490  174.0970  141.9340 N   0  0  0  0  0  0  0  0  0  0  0  0
  191.1860  175.4490  142.3830 C   0  0  1  0  0  3  0  0  0  0  0  0
  190.1880  173.1320  142.7700 C   0  0  0  0  0  0  0  0  0  0  0  0
  189.7720  176.6260  142.2520 S   0  0  0  0  0  0  0  0  0  0  0  0
  189.1520  172.3120  142.2290 N   0  0  0  0  0  2  0  0  0  0  0  0
  188.4770  175.5720  143.0050 C   0  0  2  0  0  3  0  0  0  0  0  0
  187.8480  174.1280  141.2070 C   0  0  0  0  0  2  0  0  0  0  0  0
  187.4370  175.2630  142.0260 N   0  0  0  0  0  2  0  0  0  0  0  0
  195.6270  174.9260  143.2320 C   0  0  0  0  0  2  0  0  0  0  0  0
  194.1690  175.6380  144.7300 C   0  0  2  0  0  3  0  0  0  0  0  0
  195.5340  175.6670  144.4340 O   0  0  0  0  0  0  0  0  0  0  0  0
  191.9670  175.4920  143.7070 C   0  0  1  0  0  3  0  0  0  0  0  0
  193.4520  175.7550  143.4350 C   0  0  2  0  0  3  0  0  0  0  0  0
  191.4660  176.5440  144.5230 O   0  0  0  0  0  0  0  0  0  0  0  0
  194.2320  174.7690  142.6320 C   0  0  0  0  0  2  0  0  0  0  0  0
  192.1400  176.5970  145.7770 C   0  0  2  0  0  3  0  0  0  0  0  0
  193.6820  176.7390  145.6460 C   0  0  1  0  0  3  0  0  0  0  0  0
  194.3110  176.6530  146.8900 O   0  0  0  0  0  1  0  0  0  0  0  0
  191.5930  175.5640  146.7800 C   0  0  1  0  0  3  0  0  0  0  0  0
  191.2970  176.1460  148.1550 C   0  0  0  0  0  1  0  0  0  0  0  0
  190.3780  174.8470  146.2170 C   0  0  0  0  0  2  0  0  0  0  0  0
  189.0440  174.8100  147.4500 S   0  0  0  0  0  1  0  0  0  0  0  0
  185.2600  179.1020  145.5520 N   0  0  0  0  0  1  0  0  0  0  0  0
  185.9170  176.7590  145.3250 C   0  0  0  0  0  2  0  0  0  0  0  0
  186.4280  176.1740  144.1490 O   0  0  0  0  0  0  0  0  0  0  0  0
  188.3150  177.6990  144.3590 C   0  0  0  0  0  2  0  0  0  0  0  0
  187.8360  176.2440  144.2150 C   0  0  2  0  0  3  0  0  0  0  0  0
  186.4040  178.2130  145.4770 C   0  0  1  0  0  3  0  0  0  0  0  0
  187.2190  178.5850  144.3880 O   0  0  0  0  0  0  0  0  0  0  0  0
  1  4  1  0  0  0  0
  3  8  1  0  0  0  0
  4  5  1  0  0  0  0
  4  6  1  0  0  0  0
  5  7  1  1  0  0  0
  5 15  1  0  0  0  0
  6  2  2  0  0  0  0
  7  9  1  0  0  0  0
  8  6  1  0  0  0  0
  9 11  1  6  0  0  0
  9 30  1  0  0  0  0
 10  3  1  0  0  0  0
 10 11  1  0  0  0  0
 12 14  1  0  0  0  0
 13 14  1  6  0  0  0
 13 20  1  0  0  0  0
 15 17  1  1  0  0  0
 16 18  1  6  0  0  0
 16 15  1  0  0  0  0
 16 13  1  0  0  0  0
 17 19  1  0  0  0  0
 18 12  1  0  0  0  0
 19 22  1  6  0  0  0
 20 19  1  0  0  0  0
 20 21  1  1  0  0  0
 22 23  1  1  0  0  0
 24 22  1  0  0  0  0
 24 25  1  0  0  0  0
 27 31  1  0  0  0  0
 28 30  1  0  0  0  0
 28 27  1  0  0  0  0
 29 32  1  0  0  0  0
 30 29  1  6  0  0  0
 31 26  1  6  0  0  0
 32 31  1  0  0  0  0
M  END
>  <MODEL>
1

>  <REMARK>
 VINA RESULT:      -6.8      0.000      0.000
  Name = 
  4 active torsions:
  status: ('A' for Active; 'I' for Inactive)
    1  A    between atoms: C_8  and  C_23
    2  A    between atoms: C_11  and  C_13
    3  A    between atoms: C_13  and  C_28
    4  A    between atoms: C_16  and  C_17
                            x       y       z     vdW  Elec       q    Type
                         _______ _______ _______ _____ _____    ______ ____

>  <TORSDO>
F 4

$$$$
=
 OpenBabel11062420383D

 32 35  0  0  1  0  0  0  0  0999 V2000
  189.6170  177.9160  147.3890 C   0  0  0  0  0  1  0  0  0  0  0  0
  188.9190  174.9570  145.4970 O   0  0  0  0  0  0  0  0  0  0  0  0
  191.8000  174.8990  147.1750 C   0  0  0  0  0  2  0  0  0  0  0  0
  189.5610  177.1050  146.1840 N   0  0  0  0  0  0  0  0  0  0  0  0
  189.6120  177.8020  144.8970 C   0  0  1  0  0  3  0  0  0  0  0  0
  189.5700  175.6720  146.3040 C   0  0  0  0  0  0  0  0  0  0  0  0
  191.3250  177.9740  144.2380 S   0  0  0  0  0  0  0  0  0  0  0  0
  190.3570  175.0470  147.3180 N   0  0  0  0  0  2  0  0  0  0  0  0
  191.8910  176.2540  144.5120 C   0  0  2  0  0  3  0  0  0  0  0  0
  192.4520  176.2370  146.8360 C   0  0  0  0  0  2  0  0  0  0  0  0
  192.9870  176.2250  145.4780 N   0  0  0  0  0  2  0  0  0  0  0  0
  185.1290  178.5670  144.7070 C   0  0  0  0  0  2  0  0  0  0  0  0
  186.2830  177.6340  143.0720 C   0  0  2  0  0  3  0  0  0  0  0  0
  185.1000  178.3370  143.3120 O   0  0  0  0  0  0  0  0  0  0  0  0
  188.5540  177.3280  143.8870 C   0  0  1  0  0  3  0  0  0  0  0  0
  187.3150  178.2280  143.9580 C   0  0  2  0  0  3  0  0  0  0  0  0
  189.0870  177.3990  142.5700 O   0  0  0  0  0  0  0  0  0  0  0  0
  186.5390  178.2980  145.2300 C   0  0  0  0  0  2  0  0  0  0  0  0
  188.1490  176.9350  141.6020 C   0  0  2  0  0  3  0  0  0  0  0  0
  186.7890  177.6850  141.6480 C   0  0  1  0  0  3  0  0  0  0  0  0
  185.8600  177.1110  140.7780 O   0  0  0  0  0  1  0  0  0  0  0  0
  188.1230  175.3980  141.5040 C   0  0  1  0  0  3  0  0  0  0  0  0
  188.1310  174.8780  140.0740 C   0  0  0  0  0  1  0  0  0  0  0  0
  189.2470  174.7790  142.3170 C   0  0  0  0  0  2  0  0  0  0  0  0
  189.0750  172.9710  142.3520 S   0  0  0  0  0  1  0  0  0  0  0  0
  195.2520  173.4300  141.3460 N   0  0  0  0  0  1  0  0  0  0  0  0
  192.9560  173.6820  142.1470 C   0  0  0  0  0  2  0  0  0  0  0  0
  192.5920  174.2200  143.3980 O   0  0  0  0  0  0  0  0  0  0  0  0
  193.5990  176.3090  142.6520 C   0  0  0  0  0  2  0  0  0  0  0  0
  192.3560  175.6000  143.2150 C   0  0  2  0  0  3  0  0  0  0  0  0
  194.1960  174.3980  141.5750 C   0  0  1  0  0  3  0  0  0  0  0  0
  194.6540  175.3920  142.4630 O   0  0  0  0  0  0  0  0  0  0  0  0
  2  6  2  0  0  0  0
  3  8  1  0  0  0  0
  4  6  1  0  0  0  0
  4  1  1  0  0  0  0
  5  7  1  6  0  0  0
  5  4  1  0  0  0  0
  6  8  1  0  0  0  0
  9  7  1  6  0  0  0
  9 11  1  0  0  0  0
 10  3  1  0  0  0  0
 11 10  1  0  0  0  0
 12 18  1  0  0  0  0
 13 14  1  6  0  0  0
 13 16  1  0  0  0  0
 14 12  1  0  0  0  0
 15 17  1  6  0  0  0
 15 16  1  0  0  0  0
 15  5  1  0  0  0  0
 16 18  1  1  0  0  0
 19 22  1  1  0  0  0
 19 20  1  0  0  0  0
 19 17  1  0  0  0  0
 20 21  1  6  0  0  0
 20 13  1  0  0  0  0
 22 23  1  6  0  0  0
 22 24  1  0  0  0  0
 24 25  1  0  0  0  0
 27 28  1  0  0  0  0
 30 29  1  1  0  0  0
 30 28  1  0  0  0  0
 30  9  1  0  0  0  0
 31 26  1  1  0  0  0
 31 27  1  0  0  0  0
 31 32  1  0  0  0  0
 32 29  1  0  0  0  0
M  END
>  <MODEL>
2

>  <REMARK>
 VINA RESULT:      -6.6      2.727      7.174
  Name = 
  4 active torsions:
  status: ('A' for Active; 'I' for Inactive)
    1  A    between atoms: C_8  and  C_23
    2  A    between atoms: C_11  and  C_13
    3  A    between atoms: C_13  and  C_28
    4  A    between atoms: C_16  and  C_17
                            x       y       z     vdW  Elec       q    Type
                         _______ _______ _______ _____ _____    ______ ____

>  <TORSDO>
F 4

$$$$
=
 OpenBabel11062420383D

 32 35  0  0  1  0  0  0  0  0999 V2000
  188.9350  177.2790  145.8170 C   0  0  0  0  0  1  0  0  0  0  0  0
  189.6110  173.7680  145.6120 O   0  0  0  0  0  0  0  0  0  0  0  0
  191.0980  175.3350  148.1520 C   0  0  0  0  0  2  0  0  0  0  0  0
  189.6080  176.0940  145.3120 N   0  0  0  0  0  0  0  0  0  0  0  0
  190.3020  176.2060  144.0270 C   0  0  1  0  0  3  0  0  0  0  0  0
  189.6580  174.9140  146.1330 C   0  0  0  0  0  0  0  0  0  0  0  0
  192.0780  176.6680  144.2060 S   0  0  0  0  0  0  0  0  0  0  0  0
  189.8050  175.0360  147.5470 N   0  0  0  0  0  2  0  0  0  0  0  0
  192.5290  175.4880  145.5320 C   0  0  2  0  0  3  0  0  0  0  0  0
  191.7270  176.5680  147.5080 C   0  0  0  0  0  2  0  0  0  0  0  0
  192.9170  176.2060  146.7450 N   0  0  0  0  0  2  0  0  0  0  0  0
  187.4060  175.9310  140.5270 C   0  0  0  0  0  2  0  0  0  0  0  0
  188.9580  174.4190  140.9550 C   0  0  2  0  0  3  0  0  0  0  0  0
  188.1710  174.9130  139.9110 O   0  0  0  0  0  0  0  0  0  0  0  0
  190.0090  175.0520  143.0550 C   0  0  1  0  0  3  0  0  0  0  0  0
  189.3470  175.5890  141.7820 C   0  0  2  0  0  3  0  0  0  0  0  0
  191.2270  174.4120  142.6930 O   0  0  0  0  0  0  0  0  0  0  0  0
  188.0240  176.2720  141.8810 C   0  0  0  0  0  2  0  0  0  0  0  0
  190.9980  173.3110  141.8170 C   0  0  2  0  0  3  0  0  0  0  0  0
  190.2170  173.6950  140.5300 C   0  0  1  0  0  3  0  0  0  0  0  0
  189.8990  172.5690  139.7690 O   0  0  0  0  0  1  0  0  0  0  0  0
  190.5620  172.0430  142.5740 C   0  0  1  0  0  3  0  0  0  0  0  0
  190.4260  170.8170  141.6830 C   0  0  0  0  0  1  0  0  0  0  0  0
  191.4830  171.7640  143.7500 C   0  0  0  0  0  2  0  0  0  0  0  0
  192.4760  170.2780  143.4300 S   0  0  0  0  0  1  0  0  0  0  0  0
  197.0420  172.5870  146.2520 N   0  0  0  0  0  1  0  0  0  0  0  0
  194.7500  172.5900  145.4020 C   0  0  0  0  0  2  0  0  0  0  0  0
  193.7080  173.4020  145.8940 O   0  0  0  0  0  0  0  0  0  0  0  0
  195.0220  175.3170  145.1590 C   0  0  0  0  0  2  0  0  0  0  0  0
  193.6760  174.5750  145.1090 C   0  0  2  0  0  3  0  0  0  0  0  0
  196.0980  173.3350  145.4420 C   0  0  1  0  0  3  0  0  0  0  0  0
  195.9400  174.6290  145.9790 O   0  0  0  0  0  0  0  0  0  0  0  0
  2  6  2  0  0  0  0
  4  1  1  0  0  0  0
  4  6  1  0  0  0  0
  5  7  1  1  0  0  0
  5  4  1  0  0  0  0
  6  8  1  0  0  0  0
  8  3  1  0  0  0  0
  9  7  1  6  0  0  0
  9 11  1  0  0  0  0
 10  3  1  0  0  0  0
 11 10  1  0  0  0  0
 12 18  1  0  0  0  0
 13 14  1  6  0  0  0
 13 16  1  0  0  0  0
 14 12  1  0  0  0  0
 15 17  1  6  0  0  0
 15  5  1  0  0  0  0
 16 18  1  1  0  0  0
 16 15  1  0  0  0  0
 19 22  1  1  0  0  0
 19 17  1  0  0  0  0
 20 21  1  1  0  0  0
 20 13  1  0  0  0  0
 20 19  1  0  0  0  0
 22 23  1  6  0  0  0
 22 24  1  0  0  0  0
 25 24  1  0  0  0  0
 27 31  1  0  0  0  0
 27 28  1  0  0  0  0
 29 32  1  0  0  0  0
 30 29  1  1  0  0  0
 30  9  1  0  0  0  0
 30 28  1  0  0  0  0
 31 32  1  0  0  0  0
 31 26  1  1  0  0  0
M  END
>  <MODEL>
3

>  <REMARK>
 VINA RESULT:      -6.5      3.152      6.982
  Name = 
  4 active torsions:
  status: ('A' for Active; 'I' for Inactive)
    1  A    between atoms: C_8  and  C_23
    2  A    between atoms: C_11  and  C_13
    3  A    between atoms: C_13  and  C_28
    4  A    between atoms: C_16  and  C_17
                            x       y       z     vdW  Elec       q    Type
                         _______ _______ _______ _____ _____    ______ ____

>  <TORSDO>
F 4

$$$$
=
 OpenBabel11062420383D

 32 35  0  0  1  0  0  0  0  0999 V2000
  188.7610  177.4900  146.5880 C   0  0  0  0  0  1  0  0  0  0  0  0
  189.3400  174.1020  145.5810 O   0  0  0  0  0  0  0  0  0  0  0  0
  191.3810  175.2220  147.9690 C   0  0  0  0  0  2  0  0  0  0  0  0
  189.2910  176.4420  145.7320 N   0  0  0  0  0  0  0  0  0  0  0  0
  189.6760  176.8130  144.3690 C   0  0  1  0  0  3  0  0  0  0  0  0
  189.5150  175.1330  146.2830 C   0  0  0  0  0  0  0  0  0  0  0  0
  191.4500  177.2940  144.2270 S   0  0  0  0  0  0  0  0  0  0  0  0
  189.9810  174.9960  147.6260 N   0  0  0  0  0  2  0  0  0  0  0  0
  192.1800  175.9050  145.1710 C   0  0  2  0  0  3  0  0  0  0  0  0
  191.8570  176.5730  147.4440 C   0  0  0  0  0  2  0  0  0  0  0  0
  192.8390  176.3990  146.3780 N   0  0  0  0  0  2  0  0  0  0  0  0
  186.6380  177.4360  141.0360 C   0  0  0  0  0  2  0  0  0  0  0  0
  187.9360  175.6570  141.1940 C   0  0  2  0  0  3  0  0  0  0  0  0
  187.2010  176.3940  140.2630 O   0  0  0  0  0  0  0  0  0  0  0  0
  189.1590  175.8490  143.2880 C   0  0  1  0  0  3  0  0  0  0  0  0
  188.5440  176.6390  142.1270 C   0  0  2  0  0  3  0  0  0  0  0  0
  190.2400  175.0750  142.7830 O   0  0  0  0  0  0  0  0  0  0  0  0
  187.3570  177.5050  142.3820 C   0  0  0  0  0  2  0  0  0  0  0  0
  189.7980  174.1410  141.8010 C   0  0  2  0  0  3  0  0  0  0  0  0
  189.0410  174.8010  140.6150 C   0  0  1  0  0  3  0  0  0  0  0  0
  188.5120  173.8410  139.7490 O   0  0  0  0  0  1  0  0  0  0  0  0
  189.1890  172.8740  142.4310 C   0  0  1  0  0  3  0  0  0  0  0  0
  187.7210  172.6670  142.0860 C   0  0  0  0  0  1  0  0  0  0  0  0
  190.0100  171.6440  142.0860 C   0  0  0  0  0  2  0  0  0  0  0  0
  191.3610  171.4340  143.2830 S   0  0  0  0  0  1  0  0  0  0  0  0
  197.0750  174.7640  143.1630 N   0  0  0  0  0  1  0  0  0  0  0  0
  195.1020  173.8890  144.3100 C   0  0  0  0  0  2  0  0  0  0  0  0
  194.2490  174.6450  145.1390 O   0  0  0  0  0  0  0  0  0  0  0  0
  193.7200  175.9770  143.1700 C   0  0  0  0  0  2  0  0  0  0  0  0
  193.1920  175.1260  144.3370 C   0  0  2  0  0  3  0  0  0  0  0  0
  195.6240  174.7370  143.1340 C   0  0  1  0  0  3  0  0  0  0  0  0
  195.1270  176.0540  143.2060 O   0  0  0  0  0  0  0  0  0  0  0  0
  2  6  2  0  0  0  0
  4  6  1  0  0  0  0
  4  1  1  0  0  0  0
  5  7  1  1  0  0  0
  5  4  1  0  0  0  0
  6  8  1  0  0  0  0
  8  3  1  0  0  0  0
  9  7  1  6  0  0  0
  9 11  1  0  0  0  0
 10  3  1  0  0  0  0
 11 10  1  0  0  0  0
 12 18  1  0  0  0  0
 13 14  1  6  0  0  0
 13 16  1  0  0  0  0
 14 12  1  0  0  0  0
 15 17  1  6  0  0  0
 15  5  1  0  0  0  0
 16 18  1  1  0  0  0
 16 15  1  0  0  0  0
 19 22  1  1  0  0  0
 19 17  1  0  0  0  0
 20 21  1  6  0  0  0
 20 13  1  0  0  0  0
 20 19  1  0  0  0  0
 22 23  1  6  0  0  0
 24 22  1  0  0  0  0
 24 25  1  0  0  0  0
 27 28  1  0  0  0  0
 29 32  1  0  0  0  0
 30 29  1  6  0  0  0
 30 28  1  0  0  0  0
 30  9  1  0  0  0  0
 31 26  1  1  0  0  0
 31 32  1  0  0  0  0
 31 27  1  0  0  0  0
M  END
>  <MODEL>
4

>  <REMARK>
 VINA RESULT:      -6.4      2.840      6.952
  Name = 
  4 active torsions:
  status: ('A' for Active; 'I' for Inactive)
    1  A    between atoms: C_8  and  C_23
    2  A    between atoms: C_11  and  C_13
    3  A    between atoms: C_13  and  C_28
    4  A    between atoms: C_16  and  C_17
                            x       y       z     vdW  Elec       q    Type
                         _______ _______ _______ _____ _____    ______ ____

>  <TORSDO>
F 4

$$$$
=
 OpenBabel11062420383D

 32 35  0  0  1  0  0  0  0  0999 V2000
  187.3990  176.7480  144.7560 C   0  0  0  0  0  1  0  0  0  0  0  0
  190.3150  177.8200  142.9750 O   0  0  0  0  0  0  0  0  0  0  0  0
  187.7210  176.9940  141.0480 C   0  0  0  0  0  2  0  0  0  0  0  0
  188.7160  176.5830  144.1630 N   0  0  0  0  0  0  0  0  0  0  0  0
  189.5270  175.4530  144.6210 C   0  0  1  0  0  3  0  0  0  0  0  0
  189.1150  177.4550  143.0910 C   0  0  0  0  0  0  0  0  0  0  0  0
  189.2980  173.9390  143.5940 S   0  0  0  0  0  0  0  0  0  0  0  0
  188.1560  177.8790  142.1230 N   0  0  0  0  0  2  0  0  0  0  0  0
  189.4360  174.7150  141.9410 C   0  0  2  0  0  3  0  0  0  0  0  0
  187.2620  175.6490  141.6040 C   0  0  0  0  0  2  0  0  0  0  0  0
  188.1780  174.5840  141.2090 N   0  0  0  0  0  2  0  0  0  0  0  0
  191.3610  177.2460  148.3810 C   0  0  0  0  0  2  0  0  0  0  0  0
  192.5480  176.4170  146.7140 C   0  0  2  0  0  3  0  0  0  0  0  0
  192.6310  176.7010  148.0790 O   0  0  0  0  0  0  0  0  0  0  0  0
  190.9820  175.8210  144.9510 C   0  0  1  0  0  3  0  0  0  0  0  0
  191.1720  175.9180  146.4690 C   0  0  2  0  0  3  0  0  0  0  0  0
  191.8530  174.8130  144.4520 O   0  0  0  0  0  0  0  0  0  0  0  0
  190.3990  176.9380  147.2360 C   0  0  0  0  0  2  0  0  0  0  0  0
  193.2190  175.1320  144.7060 C   0  0  2  0  0  3  0  0  0  0  0  0
  193.5290  175.3810  146.2090 C   0  0  1  0  0  3  0  0  0  0  0  0
  194.8410  175.8200  146.3950 O   0  0  0  0  0  1  0  0  0  0  0  0
  193.7880  176.1270  143.6780 C   0  0  1  0  0  3  0  0  0  0  0  0
  195.3050  176.0730  143.5510 C   0  0  0  0  0  1  0  0  0  0  0  0
  193.1200  175.9560  142.3240 C   0  0  0  0  0  2  0  0  0  0  0  0
  194.2480  175.1240  141.1680 S   0  0  0  0  0  1  0  0  0  0  0  0
  191.7340  170.9500  138.8050 N   0  0  0  0  0  1  0  0  0  0  0  0
  191.2400  173.3270  139.0830 C   0  0  0  0  0  2  0  0  0  0  0  0
  190.1360  173.8440  139.7910 O   0  0  0  0  0  0  0  0  0  0  0  0
  191.0830  172.8060  141.7800 C   0  0  0  0  0  2  0  0  0  0  0  0
  190.5560  174.0890  141.1160 C   0  0  2  0  0  3  0  0  0  0  0  0
  191.7760  172.0470  139.7530 C   0  0  1  0  0  3  0  0  0  0  0  0
  191.0090  171.7160  140.8880 O   0  0  0  0  0  0  0  0  0  0  0  0
  2  6  2  0  0  0  0
  3 10  1  0  0  0  0
  3  8  1  0  0  0  0
  4  5  1  0  0  0  0
  4  1  1  0  0  0  0
  5  7  1  6  0  0  0
  5 15  1  0  0  0  0
  6  4  1  0  0  0  0
  8  6  1  0  0  0  0
  9 11  1  6  0  0  0
  9  7  1  0  0  0  0
 11 10  1  0  0  0  0
 13 14  1  1  0  0  0
 14 12  1  0  0  0  0
 15 17  1  1  0  0  0
 15 16  1  0  0  0  0
 16 13  1  0  0  0  0
 16 18  1  6  0  0  0
 17 19  1  0  0  0  0
 18 12  1  0  0  0  0
 19 22  1  6  0  0  0
 19 20  1  0  0  0  0
 20 21  1  6  0  0  0
 20 13  1  0  0  0  0
 22 23  1  6  0  0  0
 24 22  1  0  0  0  0
 25 24  1  0  0  0  0
 27 31  1  0  0  0  0
 27 28  1  0  0  0  0
 28 30  1  0  0  0  0
 30 29  1  1  0  0  0
 30  9  1  0  0  0  0
 31 26  1  6  0  0  0
 31 32  1  0  0  0  0
 32 29  1  0  0  0  0
M  END
>  <MODEL>
5

>  <REMARK>
 VINA RESULT:      -6.3      2.207      5.506
  Name = 
  4 active torsions:
  status: ('A' for Active; 'I' for Inactive)
    1  A    between atoms: C_8  and  C_23
    2  A    between atoms: C_11  and  C_13
    3  A    between atoms: C_13  and  C_28
    4  A    between atoms: C_16  and  C_17
                            x       y       z     vdW  Elec       q    Type
                         _______ _______ _______ _____ _____    ______ ____

>  <TORSDO>
F 4

$$$$
=
 OpenBabel11062420383D

 32 35  0  0  1  0  0  0  0  0999 V2000
  188.5730  173.5170  140.3350 C   0  0  0  0  0  1  0  0  0  0  0  0
  191.6230  174.8460  141.6590 O   0  0  0  0  0  0  0  0  0  0  0  0
  191.9340  171.9180  140.0920 C   0  0  0  0  0  2  0  0  0  0  0  0
  189.5470  173.7920  141.3780 N   0  0  0  0  0  0  0  0  0  0  0  0
  189.0950  173.7020  142.7680 C   0  0  1  0  0  3  0  0  0  0  0  0
  190.9170  174.0290  141.0110 C   0  0  0  0  0  0  0  0  0  0  0  0
  189.3530  172.0310  143.5030 S   0  0  0  0  0  0  0  0  0  0  0  0
  191.5010  173.3010  139.9290 N   0  0  0  0  0  2  0  0  0  0  0  0
  191.0790  171.7610  142.9520 C   0  0  2  0  0  3  0  0  0  0  0  0
  190.8140  171.0640  140.6810 C   0  0  0  0  0  2  0  0  0  0  0  0
  191.1500  170.6280  142.0320 N   0  0  0  0  0  2  0  0  0  0  0  0
  187.2300  177.8170  143.3260 C   0  0  0  0  0  2  0  0  0  0  0  0
  188.8560  177.0260  144.5940 C   0  0  2  0  0  3  0  0  0  0  0  0
  187.8210  177.9640  144.6030 O   0  0  0  0  0  0  0  0  0  0  0  0
  189.5260  174.8900  143.6440 C   0  0  1  0  0  3  0  0  0  0  0  0
  188.3410  175.8360  143.8710 C   0  0  2  0  0  3  0  0  0  0  0  0
  189.9690  174.4120  144.9090 O   0  0  0  0  0  0  0  0  0  0  0  0
  187.7140  176.5110  142.6980 C   0  0  0  0  0  2  0  0  0  0  0  0
  190.4120  175.4800  145.7430 C   0  0  2  0  0  3  0  0  0  0  0  0
  189.3400  176.5840  145.9580 C   0  0  1  0  0  3  0  0  0  0  0  0
  189.8590  177.6690  146.6670 O   0  0  0  0  0  1  0  0  0  0  0  0
  191.8490  175.9240  145.4110 C   0  0  1  0  0  3  0  0  0  0  0  0
  191.9180  177.2040  144.5910 C   0  0  0  0  0  1  0  0  0  0  0  0
  192.6910  176.0360  146.6710 C   0  0  0  0  0  2  0  0  0  0  0  0
  194.4570  176.0070  146.2500 S   0  0  0  0  0  1  0  0  0  0  0  0
  195.8650  171.1320  145.3990 N   0  0  0  0  0  1  0  0  0  0  0  0
  193.7090  172.2810  145.4340 C   0  0  0  0  0  2  0  0  0  0  0  0
  192.9270  172.5660  144.2960 O   0  0  0  0  0  0  0  0  0  0  0  0
  192.7440  170.1590  143.9730 C   0  0  0  0  0  2  0  0  0  0  0  0
  192.0130  171.5030  144.1300 C   0  0  2  0  0  3  0  0  0  0  0  0
  194.4340  170.9300  145.2830 C   0  0  1  0  0  3  0  0  0  0  0  0
  194.1410  170.3400  144.0370 O   0  0  0  0  0  0  0  0  0  0  0  0
  1  4  1  0  0  0  0
  3 10  1  0  0  0  0
  4  5  1  0  0  0  0
  5  7  1  1  0  0  0
  5 15  1  0  0  0  0
  6  4  1  0  0  0  0
  6  2  2  0  0  0  0
  8  3  1  0  0  0  0
  8  6  1  0  0  0  0
  9 11  1  6  0  0  0
  9  7  1  0  0  0  0
  9 30  1  0  0  0  0
 10 11  1  0  0  0  0
 12 14  1  0  0  0  0
 13 14  1  1  0  0  0
 13 20  1  0  0  0  0
 15 16  1  0  0  0  0
 15 17  1  1  0  0  0
 16 18  1  6  0  0  0
 16 13  1  0  0  0  0
 17 19  1  0  0  0  0
 18 12  1  0  0  0  0
 19 22  1  6  0  0  0
 19 20  1  0  0  0  0
 20 21  1  6  0  0  0
 22 23  1  1  0  0  0
 22 24  1  0  0  0  0
 25 24  1  0  0  0  0
 28 27  1  0  0  0  0
 29 32  1  0  0  0  0
 30 29  1  6  0  0  0
 30 28  1  0  0  0  0
 31 26  1  6  0  0  0
 31 27  1  0  0  0  0
 32 31  1  0  0  0  0
M  END
>  <MODEL>
6

>  <REMARK>
 VINA RESULT:      -6.3      2.829      6.079
  Name = 
  4 active torsions:
  status: ('A' for Active; 'I' for Inactive)
    1  A    between atoms: C_8  and  C_23
    2  A    between atoms: C_11  and  C_13
    3  A    between atoms: C_13  and  C_28
    4  A    between atoms: C_16  and  C_17
                            x       y       z     vdW  Elec       q    Type
                         _______ _______ _______ _____ _____    ______ ____

>  <TORSDO>
F 4

$$$$
=
 OpenBabel11062420383D

 32 35  0  0  1  0  0  0  0  0999 V2000
  188.2130  174.0590  142.0350 C   0  0  0  0  0  1  0  0  0  0  0  0
  191.4860  175.4270  142.5250 O   0  0  0  0  0  0  0  0  0  0  0  0
  191.3540  172.8170  140.4530 C   0  0  0  0  0  2  0  0  0  0  0  0
  189.4680  174.2530  142.7420 N   0  0  0  0  0  0  0  0  0  0  0  0
  189.5020  173.9080  144.1650 C   0  0  1  0  0  3  0  0  0  0  0  0
  190.6320  174.6620  142.0030 C   0  0  0  0  0  0  0  0  0  0  0  0
  190.0410  172.1720  144.4730 S   0  0  0  0  0  0  0  0  0  0  0  0
  190.8480  174.1650  140.6820 N   0  0  0  0  0  2  0  0  0  0  0  0
  191.4960  172.1430  143.3610 C   0  0  2  0  0  3  0  0  0  0  0  0
  190.5180  171.7870  141.2090 C   0  0  0  0  0  2  0  0  0  0  0  0
  191.2950  171.1770  142.2830 N   0  0  0  0  0  2  0  0  0  0  0  0
  187.7150  177.5000  146.3150 C   0  0  0  0  0  2  0  0  0  0  0  0
  189.7750  176.7760  146.6440 C   0  0  2  0  0  3  0  0  0  0  0  0
  188.7650  177.5160  147.2630 O   0  0  0  0  0  0  0  0  0  0  0  0
  190.1600  174.9780  145.0520 C   0  0  1  0  0  3  0  0  0  0  0  0
  189.1040  175.6630  145.9260 C   0  0  2  0  0  3  0  0  0  0  0  0
  191.1210  174.3650  145.9040 O   0  0  0  0  0  0  0  0  0  0  0  0
  187.9990  176.4220  145.2720 C   0  0  0  0  0  2  0  0  0  0  0  0
  191.7820  175.3280  146.7210 C   0  0  2  0  0  3  0  0  0  0  0  0
  190.8100  176.1870  147.5760 C   0  0  1  0  0  3  0  0  0  0  0  0
  191.4880  177.2010  148.2560 O   0  0  0  0  0  1  0  0  0  0  0  0
  192.9160  176.0520  145.9710 C   0  0  1  0  0  3  0  0  0  0  0  0
  193.8800  176.7910  146.8880 C   0  0  0  0  0  1  0  0  0  0  0  0
  193.6590  175.0980  145.0510 C   0  0  0  0  0  2  0  0  0  0  0  0
  194.9790  175.9780  144.1670 S   0  0  0  0  0  1  0  0  0  0  0  0
  196.2920  169.7360  144.0650 N   0  0  0  0  0  1  0  0  0  0  0  0
  195.0490  171.8380  144.1530 C   0  0  0  0  0  2  0  0  0  0  0  0
  193.9180  172.1410  143.3670 O   0  0  0  0  0  0  0  0  0  0  0  0
  192.7960  170.2970  144.4950 C   0  0  0  0  0  2  0  0  0  0  0  0
  192.7740  171.7870  144.1140 C   0  0  2  0  0  3  0  0  0  0  0  0
  195.0670  170.3480  144.5450 C   0  0  1  0  0  3  0  0  0  0  0  0
  193.9580  169.6720  143.9980 O   0  0  0  0  0  0  0  0  0  0  0  0
  1  4  1  0  0  0  0
  3  8  1  0  0  0  0
  3 10  1  0  0  0  0
  4  5  1  0  0  0  0
  5  7  1  6  0  0  0
  5 15  1  0  0  0  0
  6  2  2  0  0  0  0
  6  4  1  0  0  0  0
  8  6  1  0  0  0  0
  9 11  1  6  0  0  0
  9 30  1  0  0  0  0
  9  7  1  0  0  0  0
 10 11  1  0  0  0  0
 12 14  1  0  0  0  0
 13 14  1  1  0  0  0
 13 20  1  0  0  0  0
 15 17  1  1  0  0  0
 15 16  1  0  0  0  0
 16 18  1  6  0  0  0
 16 13  1  0  0  0  0
 17 19  1  0  0  0  0
 18 12  1  0  0  0  0
 19 22  1  6  0  0  0
 19 20  1  0  0  0  0
 20 21  1  6  0  0  0
 22 23  1  1  0  0  0
 24 22  1  0  0  0  0
 25 24  1  0  0  0  0
 27 31  1  0  0  0  0
 28 30  1  0  0  0  0
 28 27  1  0  0  0  0
 30 29  1  6  0  0  0
 31 26  1  6  0  0  0
 32 29  1  0  0  0  0
 32 31  1  0  0  0  0
M  END
>  <MODEL>
7

>  <REMARK>
 VINA RESULT:      -6.3      2.914      6.287
  Name = 
  4 active torsions:
  status: ('A' for Active; 'I' for Inactive)
    1  A    between atoms: C_8  and  C_23
    2  A    between atoms: C_11  and  C_13
    3  A    between atoms: C_13  and  C_28
    4  A    between atoms: C_16  and  C_17
                            x       y       z     vdW  Elec       q    Type
                         _______ _______ _______ _____ _____    ______ ____

>  <TORSDO>
F 4

$$$$
=
 OpenBabel11062420383D

 32 35  0  0  1  0  0  0  0  0999 V2000
  192.1510  176.2760  147.2910 C   0  0  0  0  0  1  0  0  0  0  0  0
  191.1640  173.7990  144.9000 O   0  0  0  0  0  0  0  0  0  0  0  0
  194.4420  173.9420  145.4980 C   0  0  0  0  0  2  0  0  0  0  0  0
  191.7600  175.7960  145.9760 N   0  0  0  0  0  0  0  0  0  0  0  0
  191.2650  176.7840  145.0140 C   0  0  1  0  0  3  0  0  0  0  0  0
  191.9750  174.4140  145.6420 C   0  0  0  0  0  0  0  0  0  0  0  0
  192.5960  177.4750  143.9420 S   0  0  0  0  0  0  0  0  0  0  0  0
  193.1390  173.7390  146.1200 N   0  0  0  0  0  2  0  0  0  0  0  0
  193.4160  175.9010  143.4870 C   0  0  2  0  0  3  0  0  0  0  0  0
  194.7710  175.4300  145.3990 C   0  0  0  0  0  2  0  0  0  0  0  0
  194.7810  175.8680  144.0070 N   0  0  0  0  0  2  0  0  0  0  0  0
  186.9290  176.8090  146.3970 C   0  0  0  0  0  2  0  0  0  0  0  0
  187.5460  176.4450  144.3090 C   0  0  2  0  0  3  0  0  0  0  0  0
  186.4540  176.8740  145.0660 O   0  0  0  0  0  0  0  0  0  0  0  0
  189.9770  176.3610  144.2890 C   0  0  1  0  0  3  0  0  0  0  0  0
  188.7580  177.0060  144.9580 C   0  0  2  0  0  3  0  0  0  0  0  0
  190.0290  176.7940  142.9350 O   0  0  0  0  0  0  0  0  0  0  0  0
  188.4500  176.6780  146.3810 C   0  0  0  0  0  2  0  0  0  0  0  0
  188.8670  176.3910  142.2140 C   0  0  2  0  0  3  0  0  0  0  0  0
  187.5380  176.8770  142.8590 C   0  0  1  0  0  3  0  0  0  0  0  0
  186.4270  176.3490  142.1990 O   0  0  0  0  0  1  0  0  0  0  0  0
  188.9480  174.9270  141.7450 C   0  0  1  0  0  3  0  0  0  0  0  0
  188.3490  174.6950  140.3650 C   0  0  0  0  0  1  0  0  0  0  0  0
  190.3740  174.4090  141.8160 C   0  0  0  0  0  2  0  0  0  0  0  0
  190.4080  172.6180  141.5090 S   0  0  0  0  0  1  0  0  0  0  0  0
  195.6470  174.5040  138.7580 N   0  0  0  0  0  1  0  0  0  0  0  0
  193.7210  174.2520  140.2410 C   0  0  0  0  0  2  0  0  0  0  0  0
  193.7640  174.3650  141.6460 O   0  0  0  0  0  0  0  0  0  0  0  0
  194.4420  176.6810  141.3140 C   0  0  0  0  0  2  0  0  0  0  0  0
  193.4560  175.7030  141.9750 C   0  0  2  0  0  3  0  0  0  0  0  0
  194.7010  175.2390  139.5770 C   0  0  1  0  0  3  0  0  0  0  0  0
  195.3990  175.9830  140.5490 O   0  0  0  0  0  0  0  0  0  0  0  0
  2  6  2  0  0  0  0
  3  8  1  0  0  0  0
  4  1  1  0  0  0  0
  5  7  1  6  0  0  0
  5  4  1  0  0  0  0
  6  4  1  0  0  0  0
  6  8  1  0  0  0  0
  9  7  1  6  0  0  0
  9 11  1  0  0  0  0
 10  3  1  0  0  0  0
 11 10  1  0  0  0  0
 13 16  1  0  0  0  0
 13 14  1  1  0  0  0
 14 12  1  0  0  0  0
 15 17  1  6  0  0  0
 15 16  1  0  0  0  0
 15  5  1  0  0  0  0
 16 18  1  1  0  0  0
 18 12  1  0  0  0  0
 19 22  1  1  0  0  0
 19 20  1  0  0  0  0
 19 17  1  0  0  0  0
 20 21  1  6  0  0  0
 20 13  1  0  0  0  0
 22 23  1  6  0  0  0
 22 24  1  0  0  0  0
 25 24  1  0  0  0  0
 27 28  1  0  0  0  0
 28 30  1  0  0  0  0
 30 29  1  6  0  0  0
 30  9  1  0  0  0  0
 31 26  1  1  0  0  0
 31 27  1  0  0  0  0
 31 32  1  0  0  0  0
 32 29  1  0  0  0  0
M  END
>  <MODEL>
8

>  <REMARK>
 VINA RESULT:      -6.2      2.925      7.049
  Name = 
  4 active torsions:
  status: ('A' for Active; 'I' for Inactive)
    1  A    between atoms: C_8  and  C_23
    2  A    between atoms: C_11  and  C_13
    3  A    between atoms: C_13  and  C_28
    4  A    between atoms: C_16  and  C_17
                            x       y       z     vdW  Elec       q    Type
                         _______ _______ _______ _____ _____    ______ ____

>  <TORSDO>
F 4

$$$$
=
 OpenBabel11062420383D

 32 35  0  0  1  0  0  0  0  0999 V2000
  188.9890  176.6390  145.4280 C   0  0  0  0  0  1  0  0  0  0  0  0
  190.8700  177.2510  142.4430 O   0  0  0  0  0  0  0  0  0  0  0  0
  187.5830  176.9210  141.9850 C   0  0  0  0  0  2  0  0  0  0  0  0
  189.8330  176.2710  144.3030 N   0  0  0  0  0  0  0  0  0  0  0  0
  190.5710  175.0100  144.3970 C   0  0  1  0  0  3  0  0  0  0  0  0
  189.8220  177.0900  143.1210 C   0  0  0  0  0  0  0  0  0  0  0  0
  189.6530  173.5820  143.6790 S   0  0  0  0  0  0  0  0  0  0  0  0
  188.6040  177.6930  142.6850 N   0  0  0  0  0  2  0  0  0  0  0  0
  189.1270  174.3650  142.1090 C   0  0  2  0  0  3  0  0  0  0  0  0
  187.2270  175.6590  142.7650 C   0  0  0  0  0  2  0  0  0  0  0  0
  187.6700  174.4650  142.0510 N   0  0  0  0  0  2  0  0  0  0  0  0
  194.1720  176.5680  146.7050 C   0  0  0  0  0  2  0  0  0  0  0  0
  194.3220  175.4820  144.7880 C   0  0  2  0  0  3  0  0  0  0  0  0
  195.0660  175.7930  145.9290 O   0  0  0  0  0  0  0  0  0  0  0  0
  192.0510  175.1200  143.9940 C   0  0  1  0  0  3  0  0  0  0  0  0
  192.9310  175.2320  145.2440 C   0  0  2  0  0  3  0  0  0  0  0  0
  192.4370  173.9550  143.2750 O   0  0  0  0  0  0  0  0  0  0  0  0
  192.7570  176.4000  146.1560 C   0  0  0  0  0  2  0  0  0  0  0  0
  193.7960  174.0310  142.8510 C   0  0  2  0  0  3  0  0  0  0  0  0
  194.7970  174.2710  144.0160 C   0  0  1  0  0  3  0  0  0  0  0  0
  196.0950  174.4710  143.5430 O   0  0  0  0  0  1  0  0  0  0  0  0
  193.9640  174.8720  141.5720 C   0  0  1  0  0  3  0  0  0  0  0  0
  194.5900  176.2380  141.8170 C   0  0  0  0  0  1  0  0  0  0  0  0
  194.7300  174.1030  140.5090 C   0  0  0  0  0  2  0  0  0  0  0  0
  196.1100  175.1040  139.8820 S   0  0  0  0  0  1  0  0  0  0  0  0
  190.7960  173.7290  137.0000 N   0  0  0  0  0  1  0  0  0  0  0  0
  191.2650  173.2740  139.3540 C   0  0  0  0  0  2  0  0  0  0  0  0
  190.8530  174.0850  140.4310 O   0  0  0  0  0  0  0  0  0  0  0  0
  188.5630  173.5740  139.7770 C   0  0  0  0  0  2  0  0  0  0  0  0
  189.6180  173.5820  140.8950 C   0  0  2  0  0  3  0  0  0  0  0  0
  190.2040  173.2560  138.2370 C   0  0  1  0  0  3  0  0  0  0  0  0
  189.1060  174.0730  138.5750 O   0  0  0  0  0  0  0  0  0  0  0  0
  2  6  2  0  0  0  0
  3  8  1  0  0  0  0
  3 10  1  0  0  0  0
  4  5  1  0  0  0  0
  4  1  1  0  0  0  0
  5  7  1  6  0  0  0
  6  4  1  0  0  0  0
  8  6  1  0  0  0  0
  9 11  1  1  0  0  0
  9  7  1  0  0  0  0
 11 10  1  0  0  0  0
 13 16  1  0  0  0  0
 13 14  1  1  0  0  0
 14 12  1  0  0  0  0
 15 17  1  1  0  0  0
 15  5  1  0  0  0  0
 15 16  1  0  0  0  0
 16 18  1  1  0  0  0
 18 12  1  0  0  0  0
 19 22  1  6  0  0  0
 19 17  1  0  0  0  0
 19 20  1  0  0  0  0
 20 21  1  6  0  0  0
 20 13  1  0  0  0  0
 22 23  1  1  0  0  0
 24 22  1  0  0  0  0
 25 24  1  0  0  0  0
 27 28  1  0  0  0  0
 28 30  1  0  0  0  0
 30 29  1  6  0  0  0
 30  9  1  0  0  0  0
 31 26  1  6  0  0  0
 31 32  1  0  0  0  0
 31 27  1  0  0  0  0
 32 29  1  0  0  0  0
M  END
>  <MODEL>
9

>  <REMARK>
 VINA RESULT:      -6.1      2.572      5.451
  Name = 
  4 active torsions:
  status: ('A' for Active; 'I' for Inactive)
    1  A    between atoms: C_8  and  C_23
    2  A    between atoms: C_11  and  C_13
    3  A    between atoms: C_13  and  C_28
    4  A    between atoms: C_16  and  C_17
                            x       y       z     vdW  Elec       q    Type
                         _______ _______ _______ _____ _____    ______ ____

>  <TORSDO>
F 4

$$$$
