=
 OpenBabel11072408573D

 45 49  0  0  1  0  0  0  0  0999 V2000
  192.5840  175.4710  142.0290 O   0  0  0  0  0  1  0  0  0  0  0  0
  193.5910  174.5470  142.3040 C   0  0  0  0  0  0  0  0  0  0  0  0
  194.6260  174.8790  143.1140 C   0  0  0  0  0  0  0  0  0  0  0  0
  196.4950  173.5780  142.0950 C   0  0  0  0  0  2  0  0  0  0  0  0
  194.6790  172.9760  140.6850 C   0  0  0  0  0  2  0  0  0  0  0  0
  195.7390  173.9080  143.3780 C   0  0  0  0  0  2  0  0  0  0  0  0
  193.5200  173.1810  141.6560 C   0  0  2  0  0  3  0  0  0  0  0  0
  195.8470  172.4720  141.3980 N   0  0  0  0  0  2  0  0  0  0  0  0
  189.6620  173.5380  136.9640 C   0  0  0  0  0  0  0  0  0  0  0  0
  191.1820  172.5770  141.6860 N   0  0  0  0  0  0  0  0  0  0  0  0
  192.2080  172.9380  140.9760 C   0  0  0  0  0  0  0  0  0  0  0  0
  192.0620  173.1850  139.5690 N   0  0  0  0  0  0  0  0  0  0  0  0
  189.6590  173.7710  135.4950 C   0  0  0  0  0  1  0  0  0  0  0  0
  189.8780  172.2960  141.0750 C   0  0  2  0  0  3  0  0  0  0  0  0
  188.3450  173.4210  137.6910 C   0  0  1  0  0  3  0  0  0  0  0  0
  189.6400  173.1800  139.8460 C   0  0  2  0  0  3  0  0  0  0  0  0
  188.4930  172.6320  138.9960 C   0  0  0  0  0  2  0  0  0  0  0  0
  190.7980  173.4770  137.5940 N   0  0  0  0  0  0  0  0  0  0  0  0
  190.8930  173.2550  139.0070 C   0  0  0  0  0  0  0  0  0  0  0  0
  189.1910  171.9090  143.4520 C   0  0  0  0  0  1  0  0  0  0  0  0
  188.7480  172.4280  142.0990 C   0  0  0  0  0  3  0  0  0  0  0  0
  188.2550  173.8600  142.2300 C   0  0  0  0  0  1  0  0  0  0  0  0
  187.7810  174.7510  137.9520 C   0  0  0  0  0  0  0  0  0  0  0  0
  187.3360  175.7990  138.1580 N   0  0  0  0  0  0  0  0  0  0  0  0
  194.7520  176.1700  143.7330 N   0  0  0  0  0  0  0  0  0  0  0  0
  193.0400  175.8920  145.3720 C   0  0  0  0  0  2  0  0  0  0  0  0
  194.0030  176.6400  144.8530 C   0  0  0  0  0  3  0  0  0  0  0  0
  192.2470  176.3870  146.5360 C   0  0  2  0  0  3  0  0  0  0  0  0
  192.5340  175.6150  147.6630 O   0  0  0  0  0  1  0  0  0  0  0  0
  188.1230  177.7620  143.8770 C   0  0  0  0  0  0  0  0  0  0  0  0
  188.8060  178.0440  142.8540 O   0  0  0  0  0  0  0  0  0  0  0  0
  188.5500  175.5090  146.7910 C   0  0  0  0  0  3  0  0  0  0  0  0
  189.9980  175.5840  147.0080 C   0  0  0  0  0  3  0  0  0  0  0  0
  190.2170  177.1730  145.1110 C   0  0  0  0  0  2  0  0  0  0  0  0
  190.7800  176.3430  146.2420 C   0  0  0  0  0  0  0  0  0  0  0  0
  188.7550  177.0780  144.9750 N   0  0  0  0  0  0  0  0  0  0  0  0
  187.9770  176.2180  145.8240 C   0  0  0  0  0  3  0  0  0  0  0  0
  186.2480  177.1950  141.7410 O   0  0  0  0  0  1  0  0  0  0  0  0
  184.0200  179.0170  144.0550 C   0  0  0  0  0  3  0  0  0  0  0  0
  185.8130  177.8970  142.8610 C   0  0  0  0  0  0  0  0  0  0  0  0
  184.4750  178.3220  142.9320 C   0  0  0  0  0  0  0  0  0  0  0  0
  186.6970  178.1670  143.9280 C   0  0  0  0  0  0  0  0  0  0  0  0
  183.3530  177.9820  141.6260 Cl  0  0  0  0  0  0  0  0  0  0  0  0
  184.8910  179.2920  145.1090 C   0  0  0  0  0  3  0  0  0  0  0  0
  186.2200  178.8710  145.0440 C   0  0  0  0  0  3  0  0  0  0  0  0
  1  2  1  0  0  0  0
  2  3  2  0  0  0  0
  3  6  1  0  0  0  0
  3 25  1  0  0  0  0
  4  6  1  0  0  0  0
  5  8  1  0  0  0  0
  5  7  1  0  0  0  0
  7 11  1  6  0  0  0
  7  2  1  0  0  0  0
  8  4  1  0  0  0  0
  9 18  2  0  0  0  0
  9 15  1  0  0  0  0
 11 10  2  0  0  0  0
 12 11  1  0  0  0  0
 13  9  1  0  0  0  0
 14 10  1  0  0  0  0
 14 21  1  1  0  0  0
 15 23  1  1  0  0  0
 15 17  1  0  0  0  0
 16 17  1  6  0  0  0
 16 14  1  0  0  0  0
 18 19  1  0  0  0  0
 19 12  2  0  0  0  0
 19 16  1  0  0  0  0
 21 22  1  0  0  0  0
 21 20  1  0  0  0  0
 23 24  3  0  0  0  0
 25 27  2  0  0  0  0
 26 28  1  0  0  0  0
 27 26  1  0  0  0  0
 28 29  1  1  0  0  0
 30 42  1  0  0  0  0
 30 36  1  0  0  0  0
 31 30  2  0  0  0  0
 32 33  1  0  0  0  0
 34 35  1  0  0  0  0
 35 28  1  0  0  0  0
 35 33  2  0  0  0  0
 36 34  1  0  0  0  0
 36 37  1  0  0  0  0
 37 32  2  0  0  0  0
 38 40  1  0  0  0  0
 39 44  1  0  0  0  0
 40 41  1  0  0  0  0
 40 42  2  0  0  0  0
 41 39  2  0  0  0  0
 42 45  1  0  0  0  0
 43 41  1  0  0  0  0
 45 44  2  0  0  0  0
M  END
>  <MODEL>
1

>  <REMARK>
 VINA RESULT:      -8.2      0.000      0.000
  Name = 
  8 active torsions:
  status: ('A' for Active; 'I' for Inactive)
    1  A    between atoms: C_2  and  C_22
    2  A    between atoms: C_3  and  C_4
    3  A    between atoms: C_4  and  C_38
    4  A    between atoms: C_10  and  C_44
    5  A    between atoms: C_15  and  C_23
    6  A    between atoms: C_21  and  C_29
    7  A    between atoms: C_27  and  N_34
    8  A    between atoms: N_34  and  C_36
                            x       y       z     vdW  Elec       q    Type
                         _______ _______ _______ _____ _____    ______ ____

>  <TORSDO>
F 8

$$$$
=
 OpenBabel11072408573D

 45 49  0  0  1  0  0  0  0  0999 V2000
  193.3430  173.5140  142.8210 O   0  0  0  0  0  1  0  0  0  0  0  0
  193.4640  172.4430  143.7050 C   0  0  0  0  0  0  0  0  0  0  0  0
  194.2100  172.5600  144.8300 C   0  0  0  0  0  0  0  0  0  0  0  0
  195.1110  170.2470  145.0750 C   0  0  0  0  0  2  0  0  0  0  0  0
  193.7880  170.0310  143.1130 C   0  0  0  0  0  2  0  0  0  0  0  0
  194.3840  171.3980  145.7630 C   0  0  0  0  0  2  0  0  0  0  0  0
  192.7710  171.1410  143.3650 C   0  0  2  0  0  3  0  0  0  0  0  0
  194.1570  169.3960  144.3730 N   0  0  0  0  0  2  0  0  0  0  0  0
  191.3410  170.8900  137.4560 C   0  0  0  0  0  0  0  0  0  0  0  0
  190.7110  171.9080  142.3640 N   0  0  0  0  0  0  0  0  0  0  0  0
  191.8350  171.2770  142.2040 C   0  0  0  0  0  0  0  0  0  0  0  0
  192.2130  170.7930  140.9050 N   0  0  0  0  0  0  0  0  0  0  0  0
  191.8240  170.2920  136.1820 C   0  0  0  0  0  1  0  0  0  0  0  0
  189.7400  172.0480  141.2740 C   0  0  2  0  0  3  0  0  0  0  0  0
  190.1730  171.8440  137.4220 C   0  0  1  0  0  3  0  0  0  0  0  0
  190.4420  172.1440  139.9150 C   0  0  2  0  0  3  0  0  0  0  0  0
  189.4550  171.8980  138.7740 C   0  0  0  0  0  2  0  0  0  0  0  0
  191.9600  170.6050  138.5640 N   0  0  0  0  0  0  0  0  0  0  0  0
  191.5620  171.1350  139.8350 C   0  0  0  0  0  0  0  0  0  0  0  0
  187.4150  172.7530  141.8840 C   0  0  0  0  0  1  0  0  0  0  0  0
  188.8040  173.2350  141.5170 C   0  0  0  0  0  3  0  0  0  0  0  0
  189.3290  174.1690  142.5950 C   0  0  0  0  0  1  0  0  0  0  0  0
  190.6140  173.1840  137.0170 C   0  0  0  0  0  0  0  0  0  0  0  0
  190.9620  174.2410  136.6980 N   0  0  0  0  0  0  0  0  0  0  0  0
  194.9060  173.7670  145.1850 N   0  0  0  0  0  2  0  0  0  0  0  0
  193.0530  175.0510  145.9640 C   0  0  0  0  0  3  0  0  0  0  0  0
  194.3040  175.0130  145.5290 C   0  0  0  0  0  3  0  0  0  0  0  0
  192.4160  176.3540  146.3140 C   0  0  2  0  0  3  0  0  0  0  0  0
  192.6860  176.6670  147.6470 O   0  0  0  0  0  1  0  0  0  0  0  0
  188.1750  177.7150  143.8380 C   0  0  0  0  0  0  0  0  0  0  0  0
  188.8100  177.9960  142.7860 O   0  0  0  0  0  0  0  0  0  0  0  0
  188.7360  175.4680  146.7340 C   0  0  0  0  0  3  0  0  0  0  0  0
  190.1920  175.5470  146.8870 C   0  0  0  0  0  3  0  0  0  0  0  0
  190.3220  177.1330  144.9790 C   0  0  0  0  0  2  0  0  0  0  0  0
  190.9370  176.3070  146.0850 C   0  0  0  0  0  0  0  0  0  0  0  0
  188.8560  177.0340  144.9080 N   0  0  0  0  0  0  0  0  0  0  0  0
  188.1190  176.1740  145.7930 C   0  0  0  0  0  3  0  0  0  0  0  0
  186.2380  177.2590  141.7300 O   0  0  0  0  0  1  0  0  0  0  0  0
  184.0800  178.9580  144.1990 C   0  0  0  0  0  3  0  0  0  0  0  0
  185.8360  177.9010  142.8970 C   0  0  0  0  0  0  0  0  0  0  0  0
  184.5020  178.3220  143.0300 C   0  0  0  0  0  0  0  0  0  0  0  0
  186.7510  178.1160  143.9510 C   0  0  0  0  0  0  0  0  0  0  0  0
  183.3420  178.0500  141.7400 Cl  0  0  0  0  0  0  0  0  0  0  0  0
  184.9810  179.1770  145.2410 C   0  0  0  0  0  3  0  0  0  0  0  0
  186.3070  178.7600  145.1160 C   0  0  0  0  0  3  0  0  0  0  0  0
  1  2  1  0  0  0  0
  2  3  2  0  0  0  0
  3 25  1  0  0  0  0
  3  6  1  0  0  0  0
  4  6  1  0  0  0  0
  5  7  1  0  0  0  0
  5  8  1  0  0  0  0
  7 11  1  6  0  0  0
  7  2  1  0  0  0  0
  8  4  1  0  0  0  0
  9 18  2  0  0  0  0
 11 10  2  0  0  0  0
 12 11  1  0  0  0  0
 13  9  1  0  0  0  0
 14 21  1  1  0  0  0
 14 10  1  0  0  0  0
 15 23  1  1  0  0  0
 15  9  1  0  0  0  0
 15 17  1  0  0  0  0
 16 17  1  6  0  0  0
 16 14  1  0  0  0  0
 18 19  1  0  0  0  0
 19 16  1  0  0  0  0
 19 12  2  0  0  0  0
 21 20  1  0  0  0  0
 21 22  1  0  0  0  0
 24 23  3  0  0  0  0
 25 27  1  0  0  0  0
 26 28  1  0  0  0  0
 27 26  2  0  0  0  0
 28 29  1  1  0  0  0
 30 42  1  0  0  0  0
 30 36  1  0  0  0  0
 31 30  2  0  0  0  0
 32 33  1  0  0  0  0
 34 35  1  0  0  0  0
 35 28  1  0  0  0  0
 35 33  2  0  0  0  0
 36 34  1  0  0  0  0
 36 37  1  0  0  0  0
 37 32  2  0  0  0  0
 38 40  1  0  0  0  0
 39 44  1  0  0  0  0
 40 41  1  0  0  0  0
 40 42  2  0  0  0  0
 41 39  2  0  0  0  0
 42 45  1  0  0  0  0
 43 41  1  0  0  0  0
 45 44  2  0  0  0  0
M  END
>  <MODEL>
2

>  <REMARK>
 VINA RESULT:      -7.8      1.891      2.197
  Name = 
  8 active torsions:
  status: ('A' for Active; 'I' for Inactive)
    1  A    between atoms: C_2  and  C_22
    2  A    between atoms: C_3  and  C_4
    3  A    between atoms: C_4  and  C_38
    4  A    between atoms: C_10  and  C_44
    5  A    between atoms: C_15  and  C_23
    6  A    between atoms: C_21  and  C_29
    7  A    between atoms: C_27  and  N_34
    8  A    between atoms: N_34  and  C_36
                            x       y       z     vdW  Elec       q    Type
                         _______ _______ _______ _____ _____    ______ ____

>  <TORSDO>
F 8

$$$$
=
 OpenBabel11072408573D

 45 49  0  0  1  0  0  0  0  0999 V2000
  189.3200  177.6750  143.5750 O   0  0  0  0  0  1  0  0  0  0  0  0
  188.4020  177.0810  144.4420 C   0  0  0  0  0  0  0  0  0  0  0  0
  187.1440  177.5720  144.5520 C   0  0  0  0  0  0  0  0  0  0  0  0
  186.6440  177.1290  146.9560 C   0  0  0  0  0  2  0  0  0  0  0  0
  188.8430  176.2490  146.7620 C   0  0  0  0  0  2  0  0  0  0  0  0
  186.1650  176.9690  145.5160 C   0  0  0  0  0  2  0  0  0  0  0  0
  188.8520  175.9010  145.2760 C   0  0  2  0  0  3  0  0  0  0  0  0
  187.5160  176.0180  147.3220 N   0  0  0  0  0  2  0  0  0  0  0  0
  192.5680  171.8140  142.7260 C   0  0  0  0  0  0  0  0  0  0  0  0
  191.2660  175.9300  145.3520 N   0  0  0  0  0  0  0  0  0  0  0  0
  190.1940  175.3840  144.8600 C   0  0  0  0  0  0  0  0  0  0  0  0
  190.2960  174.2420  143.9950 N   0  0  0  0  0  0  0  0  0  0  0  0
  192.5370  170.6670  141.7800 C   0  0  0  0  0  1  0  0  0  0  0  0
  192.6090  175.4870  144.9610 C   0  0  2  0  0  3  0  0  0  0  0  0
  193.8570  172.1400  143.4410 C   0  0  1  0  0  3  0  0  0  0  0  0
  192.6300  173.9860  144.6520 C   0  0  2  0  0  3  0  0  0  0  0  0
  193.8960  173.6060  143.8840 C   0  0  0  0  0  2  0  0  0  0  0  0
  191.4760  172.4860  142.9440 N   0  0  0  0  0  0  0  0  0  0  0  0
  191.4160  173.6040  143.8390 C   0  0  0  0  0  0  0  0  0  0  0  0
  194.6400  176.8640  145.4620 C   0  0  0  0  0  1  0  0  0  0  0  0
  193.6460  175.8650  146.0210 C   0  0  0  0  0  3  0  0  0  0  0  0
  193.0030  176.4250  147.2790 C   0  0  0  0  0  1  0  0  0  0  0  0
  194.0470  171.2480  144.5910 C   0  0  0  0  0  0  0  0  0  0  0  0
  194.1980  170.5450  145.4980 N   0  0  0  0  0  0  0  0  0  0  0  0
  186.6770  178.7040  143.8000 N   0  0  0  0  0  2  0  0  0  0  0  0
  186.7890  177.8970  141.5570 C   0  0  0  0  0  3  0  0  0  0  0  0
  186.2060  178.6800  142.4530 C   0  0  0  0  0  3  0  0  0  0  0  0
  186.3060  177.8790  140.1450 C   0  0  2  0  0  3  0  0  0  0  0  0
  184.9100  177.8620  140.1250 O   0  0  0  0  0  1  0  0  0  0  0  0
  188.7510  173.4130  139.9360 C   0  0  0  0  0  0  0  0  0  0  0  0
  188.4840  173.1450  141.1400 O   0  0  0  0  0  0  0  0  0  0  0  0
  187.2070  175.5130  137.3000 C   0  0  0  0  0  3  0  0  0  0  0  0
  186.6860  176.6350  138.0870 C   0  0  0  0  0  3  0  0  0  0  0  0
  187.5810  175.6100  140.1670 C   0  0  0  0  0  2  0  0  0  0  0  0
  186.8470  176.6930  139.4090 C   0  0  0  0  0  0  0  0  0  0  0  0
  188.1070  174.5380  139.3090 N   0  0  0  0  0  0  0  0  0  0  0  0
  187.8740  174.5290  137.8910 C   0  0  0  0  0  3  0  0  0  0  0  0
  191.5810  174.0330  139.8540 O   0  0  0  0  0  1  0  0  0  0  0  0
  191.5530  170.9870  137.7680 C   0  0  0  0  0  3  0  0  0  0  0  0
  191.1090  172.9170  139.1710 C   0  0  0  0  0  0  0  0  0  0  0  0
  192.0100  172.1160  138.4490 C   0  0  0  0  0  0  0  0  0  0  0  0
  189.7390  172.5760  139.2120 C   0  0  0  0  0  0  0  0  0  0  0  0
  193.7200  172.5100  138.3980 Cl  0  0  0  0  0  0  0  0  0  0  0  0
  190.2000  170.6480  137.8000 C   0  0  0  0  0  3  0  0  0  0  0  0
  189.3000  171.4390  138.5160 C   0  0  0  0  0  3  0  0  0  0  0  0
  1  2  1  0  0  0  0
  2  3  2  0  0  0  0
  2  7  1  0  0  0  0
  3  6  1  0  0  0  0
  4  8  1  0  0  0  0
  5  8  1  0  0  0  0
  6  4  1  0  0  0  0
  7 11  1  6  0  0  0
  7  5  1  0  0  0  0
  9 18  2  0  0  0  0
  9 15  1  0  0  0  0
 11 10  2  0  0  0  0
 12 11  1  0  0  0  0
 13  9  1  0  0  0  0
 14 10  1  0  0  0  0
 14 21  1  1  0  0  0
 15 17  1  0  0  0  0
 15 23  1  1  0  0  0
 16 17  1  6  0  0  0
 16 14  1  0  0  0  0
 18 19  1  0  0  0  0
 19 12  2  0  0  0  0
 19 16  1  0  0  0  0
 20 21  1  0  0  0  0
 21 22  1  0  0  0  0
 23 24  3  0  0  0  0
 25  3  1  0  0  0  0
 26 27  2  0  0  0  0
 27 25  1  0  0  0  0
 28 29  1  1  0  0  0
 28 26  1  0  0  0  0
 30 31  2  0  0  0  0
 32 37  2  0  0  0  0
 32 33  1  0  0  0  0
 33 35  2  0  0  0  0
 35 28  1  0  0  0  0
 35 34  1  0  0  0  0
 36 30  1  0  0  0  0
 36 34  1  0  0  0  0
 37 36  1  0  0  0  0
 39 44  2  0  0  0  0
 39 41  1  0  0  0  0
 40 42  1  0  0  0  0
 40 38  1  0  0  0  0
 41 40  2  0  0  0  0
 42 30  1  0  0  0  0
 43 41  1  0  0  0  0
 44 45  1  0  0  0  0
 45 42  2  0  0  0  0
M  END
>  <MODEL>
3

>  <REMARK>
 VINA RESULT:      -7.8      2.907      8.309
  Name = 
  8 active torsions:
  status: ('A' for Active; 'I' for Inactive)
    1  A    between atoms: C_2  and  C_22
    2  A    between atoms: C_3  and  C_4
    3  A    between atoms: C_4  and  C_38
    4  A    between atoms: C_10  and  C_44
    5  A    between atoms: C_15  and  C_23
    6  A    between atoms: C_21  and  C_29
    7  A    between atoms: C_27  and  N_34
    8  A    between atoms: N_34  and  C_36
                            x       y       z     vdW  Elec       q    Type
                         _______ _______ _______ _____ _____    ______ ____

>  <TORSDO>
F 8

$$$$
=
 OpenBabel11072408573D

 45 49  0  0  1  0  0  0  0  0999 V2000
  189.9550  174.3160  143.1600 O   0  0  0  0  0  1  0  0  0  0  0  0
  189.0420  175.3610  143.0200 C   0  0  0  0  0  0  0  0  0  0  0  0
  187.8220  175.1390  142.4740 C   0  0  0  0  0  0  0  0  0  0  0  0
  187.4020  177.3000  141.2980 C   0  0  0  0  0  2  0  0  0  0  0  0
  189.5320  177.7000  142.2720 C   0  0  0  0  0  2  0  0  0  0  0  0
  186.8510  176.2660  142.2760 C   0  0  0  0  0  2  0  0  0  0  0  0
  189.4550  176.7480  143.4630 C   0  0  2  0  0  3  0  0  0  0  0  0
  188.2200  178.2780  142.0070 N   0  0  0  0  0  2  0  0  0  0  0  0
  195.4890  176.1590  143.9730 C   0  0  0  0  0  0  0  0  0  0  0  0
  190.7120  176.7060  145.5240 N   0  0  0  0  0  0  0  0  0  0  0  0
  190.7430  176.7460  144.2260 C   0  0  0  0  0  0  0  0  0  0  0  0
  191.9990  176.7010  143.5310 N   0  0  0  0  0  0  0  0  0  0  0  0
  196.7190  176.1730  143.1360 C   0  0  0  0  0  1  0  0  0  0  0  0
  191.9380  176.7320  146.3290 C   0  0  2  0  0  3  0  0  0  0  0  0
  195.6010  175.8080  145.4360 C   0  0  1  0  0  3  0  0  0  0  0  0
  193.0910  176.0280  145.6040 C   0  0  2  0  0  3  0  0  0  0  0  0
  194.4340  176.3860  146.2420 C   0  0  0  0  0  2  0  0  0  0  0  0
  194.3410  176.4120  143.4160 N   0  0  0  0  0  0  0  0  0  0  0  0
  193.1070  176.4200  144.1470 C   0  0  0  0  0  0  0  0  0  0  0  0
  191.5650  177.2510  148.7500 C   0  0  0  0  0  1  0  0  0  0  0  0
  191.6980  176.1450  147.7220 C   0  0  0  0  0  3  0  0  0  0  0  0
  190.4710  175.2500  147.7640 C   0  0  0  0  0  1  0  0  0  0  0  0
  195.6800  174.3530  145.6120 C   0  0  0  0  0  0  0  0  0  0  0  0
  195.7420  173.2050  145.7500 N   0  0  0  0  0  0  0  0  0  0  0  0
  187.3920  173.8460  142.0160 N   0  0  0  0  0  2  0  0  0  0  0  0
  188.6720  173.7860  140.0030 C   0  0  0  0  0  3  0  0  0  0  0  0
  187.8640  173.1680  140.8530 C   0  0  0  0  0  3  0  0  0  0  0  0
  189.1580  173.0830  138.7790 C   0  0  2  0  0  3  0  0  0  0  0  0
  188.3880  171.9410  138.5560 O   0  0  0  0  0  1  0  0  0  0  0  0
  193.6770  173.2580  141.1280 C   0  0  0  0  0  0  0  0  0  0  0  0
  193.1520  173.5320  142.2420 O   0  0  0  0  0  0  0  0  0  0  0  0
  192.5580  171.5370  138.0400 C   0  0  0  0  0  3  0  0  0  0  0  0
  191.1450  171.9230  137.9860 C   0  0  0  0  0  3  0  0  0  0  0  0
  191.4150  173.2600  140.0630 C   0  0  0  0  0  2  0  0  0  0  0  0
  190.6020  172.7140  138.9110 C   0  0  0  0  0  0  0  0  0  0  0  0
  192.8300  172.8620  140.0320 N   0  0  0  0  0  0  0  0  0  0  0  0
  193.3420  171.9860  139.0150 C   0  0  0  0  0  3  0  0  0  0  0  0
  194.9280  175.2980  139.4930 O   0  0  0  0  0  1  0  0  0  0  0  0
  197.9390  173.5120  140.6690 C   0  0  0  0  0  3  0  0  0  0  0  0
  195.7270  174.3680  140.1510 C   0  0  0  0  0  0  0  0  0  0  0  0
  197.1230  174.4310  140.0060 C   0  0  0  0  0  0  0  0  0  0  0  0
  195.1480  173.3780  140.9730 C   0  0  0  0  0  0  0  0  0  0  0  0
  197.8670  175.6660  139.0030 Cl  0  0  0  0  0  0  0  0  0  0  0  0
  197.3720  172.5280  141.4780 C   0  0  0  0  0  3  0  0  0  0  0  0
  195.9850  172.4610  141.6270 C   0  0  0  0  0  3  0  0  0  0  0  0
  2  1  1  0  0  0  0
  2  7  1  0  0  0  0
  3  2  2  0  0  0  0
  4  8  1  0  0  0  0
  4  6  1  0  0  0  0
  5  7  1  0  0  0  0
  6  3  1  0  0  0  0
  7 11  1  6  0  0  0
  8  5  1  0  0  0  0
  9 15  1  0  0  0  0
 10 14  1  0  0  0  0
 11 10  2  0  0  0  0
 12 19  2  0  0  0  0
 12 11  1  0  0  0  0
 13  9  1  0  0  0  0
 14 21  1  1  0  0  0
 15 23  1  6  0  0  0
 15 17  1  0  0  0  0
 16 17  1  1  0  0  0
 16 14  1  0  0  0  0
 18  9  2  0  0  0  0
 18 19  1  0  0  0  0
 19 16  1  0  0  0  0
 21 22  1  0  0  0  0
 21 20  1  0  0  0  0
 23 24  3  0  0  0  0
 25  3  1  0  0  0  0
 26 27  2  0  0  0  0
 27 25  1  0  0  0  0
 28 29  1  1  0  0  0
 28 35  1  0  0  0  0
 28 26  1  0  0  0  0
 30 31  2  0  0  0  0
 32 37  2  0  0  0  0
 33 32  1  0  0  0  0
 33 35  2  0  0  0  0
 35 34  1  0  0  0  0
 36 34  1  0  0  0  0
 36 30  1  0  0  0  0
 37 36  1  0  0  0  0
 38 40  1  0  0  0  0
 39 44  1  0  0  0  0
 40 42  2  0  0  0  0
 41 40  1  0  0  0  0
 41 39  2  0  0  0  0
 42 30  1  0  0  0  0
 42 45  1  0  0  0  0
 43 41  1  0  0  0  0
 44 45  2  0  0  0  0
M  END
>  <MODEL>
4

>  <REMARK>
 VINA RESULT:      -7.7      3.341      9.200
  Name = 
  8 active torsions:
  status: ('A' for Active; 'I' for Inactive)
    1  A    between atoms: C_2  and  C_22
    2  A    between atoms: C_3  and  C_4
    3  A    between atoms: C_4  and  C_38
    4  A    between atoms: C_10  and  C_44
    5  A    between atoms: C_15  and  C_23
    6  A    between atoms: C_21  and  C_29
    7  A    between atoms: C_27  and  N_34
    8  A    between atoms: N_34  and  C_36
                            x       y       z     vdW  Elec       q    Type
                         _______ _______ _______ _____ _____    ______ ____

>  <TORSDO>
F 8

$$$$
=
 OpenBabel11072408573D

 45 49  0  0  1  0  0  0  0  0999 V2000
  193.9460  172.2920  142.3900 O   0  0  0  0  0  1  0  0  0  0  0  0
  193.8020  171.4300  143.4760 C   0  0  0  0  0  0  0  0  0  0  0  0
  194.5770  171.5780  144.5780 C   0  0  0  0  0  0  0  0  0  0  0  0
  194.8510  169.2100  145.3170 C   0  0  0  0  0  2  0  0  0  0  0  0
  193.4750  168.9490  143.3970 C   0  0  0  0  0  2  0  0  0  0  0  0
  194.4630  170.6260  145.7320 C   0  0  0  0  0  2  0  0  0  0  0  0
  192.7880  170.3110  143.3840 C   0  0  2  0  0  3  0  0  0  0  0  0
  193.6940  168.5100  144.7700 N   0  0  0  0  0  2  0  0  0  0  0  0
  191.1590  169.1500  137.6380 C   0  0  0  0  0  0  0  0  0  0  0  0
  191.0070  171.3920  142.1630 N   0  0  0  0  0  0  0  0  0  0  0  0
  191.8950  170.4440  142.1900 C   0  0  0  0  0  0  0  0  0  0  0  0
  192.0740  169.5900  141.0490 N   0  0  0  0  0  0  0  0  0  0  0  0
  191.4080  168.1660  136.5500 C   0  0  0  0  0  1  0  0  0  0  0  0
  190.0830  171.5560  141.0350 C   0  0  2  0  0  3  0  0  0  0  0  0
  190.3160  170.3670  137.3470 C   0  0  1  0  0  3  0  0  0  0  0  0
  190.7400  171.1340  139.7160 C   0  0  2  0  0  3  0  0  0  0  0  0
  189.6880  170.9320  138.6250 C   0  0  0  0  0  2  0  0  0  0  0  0
  191.7040  168.9580  138.8030 N   0  0  0  0  0  0  0  0  0  0  0  0
  191.5170  169.8540  139.9060 C   0  0  0  0  0  0  0  0  0  0  0  0
  188.1850  173.0720  141.6440 C   0  0  0  0  0  1  0  0  0  0  0  0
  189.5400  172.9850  140.9690 C   0  0  0  0  0  3  0  0  0  0  0  0
  190.4930  173.9920  141.5910 C   0  0  0  0  0  1  0  0  0  0  0  0
  191.1140  171.3950  136.6660 C   0  0  0  0  0  0  0  0  0  0  0  0
  191.7420  172.2040  136.1290 N   0  0  0  0  0  0  0  0  0  0  0  0
  195.5710  172.6090  144.7040 N   0  0  0  0  0  2  0  0  0  0  0  0
  194.2120  174.4620  145.3460 C   0  0  0  0  0  3  0  0  0  0  0  0
  195.3190  174.0110  144.7760 C   0  0  0  0  0  3  0  0  0  0  0  0
  193.9410  175.9280  145.4130 C   0  0  2  0  0  3  0  0  0  0  0  0
  194.9480  176.5600  146.1430 O   0  0  0  0  0  1  0  0  0  0  0  0
  188.8500  176.1220  145.2960 C   0  0  0  0  0  0  0  0  0  0  0  0
  188.7810  175.2620  144.3770 O   0  0  0  0  0  0  0  0  0  0  0  0
  191.2960  176.9430  147.9580 C   0  0  0  0  0  3  0  0  0  0  0  0
  192.5660  176.6390  147.2920 C   0  0  0  0  0  3  0  0  0  0  0  0
  191.3460  175.9960  145.2260 C   0  0  0  0  0  2  0  0  0  0  0  0
  192.6060  176.1990  146.0350 C   0  0  0  0  0  0  0  0  0  0  0  0
  190.1140  176.3560  145.9440 N   0  0  0  0  0  0  0  0  0  0  0  0
  190.1460  176.8020  147.3100 C   0  0  0  0  0  3  0  0  0  0  0  0
  187.7480  178.2250  143.6330 O   0  0  0  0  0  1  0  0  0  0  0  0
  185.3580  178.3420  146.4460 C   0  0  0  0  0  3  0  0  0  0  0  0
  187.1330  177.9210  144.8440 C   0  0  0  0  0  0  0  0  0  0  0  0
  185.9940  178.6430  145.2400 C   0  0  0  0  0  0  0  0  0  0  0  0
  187.6320  176.8860  145.6640 C   0  0  0  0  0  0  0  0  0  0  0  0
  185.3440  179.9230  144.2280 Cl  0  0  0  0  0  0  0  0  0  0  0  0
  185.8500  177.3240  147.2630 C   0  0  0  0  0  3  0  0  0  0  0  0
  186.9810  176.6030  146.8740 C   0  0  0  0  0  3  0  0  0  0  0  0
  1  2  1  0  0  0  0
  2  3  2  0  0  0  0
  3 25  1  0  0  0  0
  3  6  1  0  0  0  0
  4  6  1  0  0  0  0
  5  8  1  0  0  0  0
  7 11  1  6  0  0  0
  7  5  1  0  0  0  0
  7  2  1  0  0  0  0
  8  4  1  0  0  0  0
  9 18  2  0  0  0  0
 10 11  2  0  0  0  0
 12 11  1  0  0  0  0
 13  9  1  0  0  0  0
 14 21  1  6  0  0  0
 14 10  1  0  0  0  0
 15 23  1  1  0  0  0
 15  9  1  0  0  0  0
 15 17  1  0  0  0  0
 16 17  1  6  0  0  0
 16 19  1  0  0  0  0
 16 14  1  0  0  0  0
 18 19  1  0  0  0  0
 19 12  2  0  0  0  0
 21 22  1  0  0  0  0
 21 20  1  0  0  0  0
 24 23  3  0  0  0  0
 25 27  1  0  0  0  0
 26 28  1  0  0  0  0
 27 26  2  0  0  0  0
 28 35  1  0  0  0  0
 28 29  1  1  0  0  0
 30 42  1  0  0  0  0
 30 36  1  0  0  0  0
 31 30  2  0  0  0  0
 33 32  1  0  0  0  0
 34 36  1  0  0  0  0
 34 35  1  0  0  0  0
 35 33  2  0  0  0  0
 36 37  1  0  0  0  0
 37 32  2  0  0  0  0
 38 40  1  0  0  0  0
 39 44  1  0  0  0  0
 40 41  1  0  0  0  0
 40 42  2  0  0  0  0
 41 39  2  0  0  0  0
 42 45  1  0  0  0  0
 43 41  1  0  0  0  0
 45 44  2  0  0  0  0
M  END
>  <MODEL>
5

>  <REMARK>
 VINA RESULT:      -7.7      2.789      3.423
  Name = 
  8 active torsions:
  status: ('A' for Active; 'I' for Inactive)
    1  A    between atoms: C_2  and  C_22
    2  A    between atoms: C_3  and  C_4
    3  A    between atoms: C_4  and  C_38
    4  A    between atoms: C_10  and  C_44
    5  A    between atoms: C_15  and  C_23
    6  A    between atoms: C_21  and  C_29
    7  A    between atoms: C_27  and  N_34
    8  A    between atoms: N_34  and  C_36
                            x       y       z     vdW  Elec       q    Type
                         _______ _______ _______ _____ _____    ______ ____

>  <TORSDO>
F 8

$$$$
=
 OpenBabel11072408573D

 45 49  0  0  1  0  0  0  0  0999 V2000
  194.0500  175.6470  140.7360 O   0  0  0  0  0  1  0  0  0  0  0  0
  195.2840  175.2010  140.2630 C   0  0  0  0  0  0  0  0  0  0  0  0
  196.4360  175.6820  140.7900 C   0  0  0  0  0  0  0  0  0  0  0  0
  197.9410  175.6650  138.7990 C   0  0  0  0  0  2  0  0  0  0  0  0
  195.9280  174.8020  137.8760 C   0  0  0  0  0  2  0  0  0  0  0  0
  197.7680  175.2440  140.2560 C   0  0  0  0  0  2  0  0  0  0  0  0
  195.3070  174.1960  139.1320 C   0  0  2  0  0  3  0  0  0  0  0  0
  197.3780  174.6520  137.9130 N   0  0  0  0  0  2  0  0  0  0  0  0
  189.8680  174.2350  136.4050 C   0  0  0  0  0  0  0  0  0  0  0  0
  193.4700  172.6990  139.5980 N   0  0  0  0  0  0  0  0  0  0  0  0
  193.9500  173.6360  138.8370 C   0  0  0  0  0  0  0  0  0  0  0  0
  193.1510  174.1860  137.7770 N   0  0  0  0  0  0  0  0  0  0  0  0
  189.1690  174.8500  135.2450 C   0  0  0  0  0  1  0  0  0  0  0  0
  192.1600  172.0890  139.3430 C   0  0  2  0  0  3  0  0  0  0  0  0
  189.0780  173.3840  137.3700 C   0  0  1  0  0  3  0  0  0  0  0  0
  191.1870  173.1030  138.7310 C   0  0  2  0  0  3  0  0  0  0  0  0
  189.9810  172.3950  138.1130 C   0  0  0  0  0  2  0  0  0  0  0  0
  191.1340  174.4730  136.5820 N   0  0  0  0  0  0  0  0  0  0  0  0
  191.8850  173.9220  137.6720 C   0  0  0  0  0  0  0  0  0  0  0  0
  192.2310  170.0950  140.8560 C   0  0  0  0  0  1  0  0  0  0  0  0
  191.5930  171.4480  140.6110 C   0  0  0  0  0  3  0  0  0  0  0  0
  191.7730  172.3340  141.8330 C   0  0  0  0  0  1  0  0  0  0  0  0
  188.3460  174.2300  138.3210 C   0  0  0  0  0  0  0  0  0  0  0  0
  187.7690  174.8970  139.0700 N   0  0  0  0  0  0  0  0  0  0  0  0
  196.4670  176.6550  141.8480 N   0  0  0  0  0  0  0  0  0  0  0  0
  196.0580  175.1580  143.6610 C   0  0  0  0  0  2  0  0  0  0  0  0
  196.3550  176.3800  143.2430 C   0  0  0  0  0  3  0  0  0  0  0  0
  195.9290  174.8710  145.1200 C   0  0  2  0  0  3  0  0  0  0  0  0
  196.0880  173.5030  145.3460 O   0  0  0  0  0  1  0  0  0  0  0  0
  190.8440  174.6480  145.3670 C   0  0  0  0  0  0  0  0  0  0  0  0
  190.8210  173.4410  145.0040 O   0  0  0  0  0  0  0  0  0  0  0  0
  193.3090  176.8490  147.0500 C   0  0  0  0  0  3  0  0  0  0  0  0
  194.5730  176.3350  146.5130 C   0  0  0  0  0  3  0  0  0  0  0  0
  193.3340  174.6670  145.1510 C   0  0  0  0  0  2  0  0  0  0  0  0
  194.6020  175.3290  145.6410 C   0  0  0  0  0  0  0  0  0  0  0  0
  192.1050  175.2570  145.7020 N   0  0  0  0  0  0  0  0  0  0  0  0
  192.1510  176.3280  146.6590 C   0  0  0  0  0  3  0  0  0  0  0  0
  189.8420  176.1770  143.1180 O   0  0  0  0  0  1  0  0  0  0  0  0
  187.1890  176.8930  145.5850 C   0  0  0  0  0  3  0  0  0  0  0  0
  189.1230  176.1670  144.3090 C   0  0  0  0  0  0  0  0  0  0  0  0
  187.9290  176.9020  144.4010 C   0  0  0  0  0  0  0  0  0  0  0  0
  189.5730  175.4120  145.4140 C   0  0  0  0  0  0  0  0  0  0  0  0
  187.3400  177.8340  143.0340 Cl  0  0  0  0  0  0  0  0  0  0  0  0
  187.6310  176.1530  146.6810 C   0  0  0  0  0  3  0  0  0  0  0  0
  188.8170  175.4200  146.5960 C   0  0  0  0  0  3  0  0  0  0  0  0
  2  1  1  0  0  0  0
  2  3  2  0  0  0  0
  3 25  1  0  0  0  0
  4  6  1  0  0  0  0
  5  8  1  0  0  0  0
  5  7  1  0  0  0  0
  6  3  1  0  0  0  0
  7 11  1  6  0  0  0
  7  2  1  0  0  0  0
  8  4  1  0  0  0  0
  9 18  2  0  0  0  0
  9 15  1  0  0  0  0
 11 10  2  0  0  0  0
 12 11  1  0  0  0  0
 13  9  1  0  0  0  0
 14 10  1  0  0  0  0
 14 21  1  1  0  0  0
 15 17  1  0  0  0  0
 15 23  1  1  0  0  0
 16 17  1  6  0  0  0
 16 14  1  0  0  0  0
 18 19  1  0  0  0  0
 19 12  2  0  0  0  0
 19 16  1  0  0  0  0
 21 20  1  0  0  0  0
 21 22  1  0  0  0  0
 23 24  3  0  0  0  0
 25 27  2  0  0  0  0
 26 28  1  0  0  0  0
 27 26  1  0  0  0  0
 28 29  1  6  0  0  0
 28 35  1  0  0  0  0
 30 42  1  0  0  0  0
 30 36  1  0  0  0  0
 31 30  2  0  0  0  0
 33 32  1  0  0  0  0
 34 35  1  0  0  0  0
 34 36  1  0  0  0  0
 35 33  2  0  0  0  0
 36 37  1  0  0  0  0
 37 32  2  0  0  0  0
 38 40  1  0  0  0  0
 39 44  1  0  0  0  0
 40 41  1  0  0  0  0
 40 42  2  0  0  0  0
 41 39  2  0  0  0  0
 42 45  1  0  0  0  0
 43 41  1  0  0  0  0
 45 44  2  0  0  0  0
M  END
>  <MODEL>
6

>  <REMARK>
 VINA RESULT:      -7.6      2.338      3.530
  Name = 
  8 active torsions:
  status: ('A' for Active; 'I' for Inactive)
    1  A    between atoms: C_2  and  C_22
    2  A    between atoms: C_3  and  C_4
    3  A    between atoms: C_4  and  C_38
    4  A    between atoms: C_10  and  C_44
    5  A    between atoms: C_15  and  C_23
    6  A    between atoms: C_21  and  C_29
    7  A    between atoms: C_27  and  N_34
    8  A    between atoms: N_34  and  C_36
                            x       y       z     vdW  Elec       q    Type
                         _______ _______ _______ _____ _____    ______ ____

>  <TORSDO>
F 8

$$$$
=
 OpenBabel11072408573D

 45 49  0  0  1  0  0  0  0  0999 V2000
  189.5510  174.4820  144.4840 O   0  0  0  0  0  1  0  0  0  0  0  0
  188.8350  175.4780  143.8210 C   0  0  0  0  0  0  0  0  0  0  0  0
  188.0440  176.3340  144.5130 C   0  0  0  0  0  0  0  0  0  0  0  0
  186.1980  176.7360  142.8840 C   0  0  0  0  0  2  0  0  0  0  0  0
  187.5910  175.2510  141.6590 C   0  0  0  0  0  2  0  0  0  0  0  0
  187.2330  177.3780  143.8020 C   0  0  0  0  0  2  0  0  0  0  0  0
  188.9350  175.5590  142.3130 C   0  0  2  0  0  3  0  0  0  0  0  0
  186.7840  176.4630  141.5760 N   0  0  0  0  0  2  0  0  0  0  0  0
  191.2120  170.2010  140.5460 C   0  0  0  0  0  0  0  0  0  0  0  0
  191.2270  175.1220  141.6910 N   0  0  0  0  0  0  0  0  0  0  0  0
  190.0100  174.6740  141.7620 C   0  0  0  0  0  0  0  0  0  0  0  0
  189.7160  173.3170  141.3960 N   0  0  0  0  0  0  0  0  0  0  0  0
  190.7660  168.8380  140.1480 C   0  0  0  0  0  1  0  0  0  0  0  0
  192.3170  174.3140  141.1340 C   0  0  2  0  0  3  0  0  0  0  0  0
  192.6880  170.4750  140.6930 C   0  0  1  0  0  3  0  0  0  0  0  0
  192.1040  172.8230  141.4170 C   0  0  2  0  0  3  0  0  0  0  0  0
  193.0010  171.9650  140.5250 C   0  0  0  0  0  2  0  0  0  0  0  0
  190.3190  171.1130  140.7940 N   0  0  0  0  0  0  0  0  0  0  0  0
  190.6590  172.4500  141.1830 C   0  0  0  0  0  0  0  0  0  0  0  0
  194.5800  175.1600  140.4730 C   0  0  0  0  0  1  0  0  0  0  0  0
  193.6790  174.8000  141.6370 C   0  0  0  0  0  3  0  0  0  0  0  0
  193.5530  175.9850  142.5800 C   0  0  0  0  0  1  0  0  0  0  0  0
  193.1750  169.9890  141.9910 C   0  0  0  0  0  0  0  0  0  0  0  0
  193.5590  169.6060  143.0130 N   0  0  0  0  0  0  0  0  0  0  0  0
  187.8970  176.2810  145.9410 N   0  0  0  0  0  2  0  0  0  0  0  0
  190.0640  176.6790  146.8580 C   0  0  0  0  0  3  0  0  0  0  0  0
  188.9300  175.9930  146.8810 C   0  0  0  0  0  3  0  0  0  0  0  0
  191.1510  176.3710  147.8320 C   0  0  2  0  0  3  0  0  0  0  0  0
  191.3830  177.4820  148.6450 O   0  0  0  0  0  1  0  0  0  0  0  0
  193.9810  173.1440  145.0850 C   0  0  0  0  0  0  0  0  0  0  0  0
  192.9650  172.5770  144.5970 O   0  0  0  0  0  0  0  0  0  0  0  0
  194.7100  176.5000  146.4820 C   0  0  0  0  0  3  0  0  0  0  0  0
  193.4400  176.8260  147.1370 C   0  0  0  0  0  3  0  0  0  0  0  0
  192.4990  174.6350  146.4390 C   0  0  0  0  0  2  0  0  0  0  0  0
  192.4110  175.9790  147.1240 C   0  0  0  0  0  0  0  0  0  0  0  0
  193.8130  174.3610  145.8360 N   0  0  0  0  0  0  0  0  0  0  0  0
  194.8700  175.3330  145.8680 C   0  0  0  0  0  3  0  0  0  0  0  0
  194.7960  170.7060  146.4230 O   0  0  0  0  0  1  0  0  0  0  0  0
  197.8820  171.4380  144.5320 C   0  0  0  0  0  3  0  0  0  0  0  0
  195.6920  171.3500  145.5750 C   0  0  0  0  0  0  0  0  0  0  0  0
  196.9760  170.8100  145.3880 C   0  0  0  0  0  0  0  0  0  0  0  0
  195.3160  172.5260  144.8910 C   0  0  0  0  0  0  0  0  0  0  0  0
  197.4610  169.3390  146.2150 Cl  0  0  0  0  0  0  0  0  0  0  0  0
  197.5180  172.6020  143.8570 C   0  0  0  0  0  3  0  0  0  0  0  0
  196.2430  173.1430  144.0380 C   0  0  0  0  0  3  0  0  0  0  0  0
  2  1  1  0  0  0  0
  2  3  2  0  0  0  0
  3 25  1  0  0  0  0
  4  6  1  0  0  0  0
  5  7  1  0  0  0  0
  6  3  1  0  0  0  0
  7 11  1  6  0  0  0
  7  2  1  0  0  0  0
  8  5  1  0  0  0  0
  8  4  1  0  0  0  0
  9 15  1  0  0  0  0
  9 18  2  0  0  0  0
 10 11  2  0  0  0  0
 12 11  1  0  0  0  0
 13  9  1  0  0  0  0
 14 16  1  0  0  0  0
 14 21  1  1  0  0  0
 14 10  1  0  0  0  0
 15 23  1  1  0  0  0
 16 17  1  6  0  0  0
 17 15  1  0  0  0  0
 18 19  1  0  0  0  0
 19 12  2  0  0  0  0
 19 16  1  0  0  0  0
 20 21  1  0  0  0  0
 21 22  1  0  0  0  0
 23 24  3  0  0  0  0
 25 27  1  0  0  0  0
 26 27  2  0  0  0  0
 26 28  1  0  0  0  0
 28 29  1  6  0  0  0
 30 36  1  0  0  0  0
 31 30  2  0  0  0  0
 32 33  1  0  0  0  0
 34 35  1  0  0  0  0
 35 33  2  0  0  0  0
 35 28  1  0  0  0  0
 36 37  1  0  0  0  0
 36 34  1  0  0  0  0
 37 32  2  0  0  0  0
 39 41  1  0  0  0  0
 40 38  1  0  0  0  0
 41 40  2  0  0  0  0
 41 43  1  0  0  0  0
 42 30  1  0  0  0  0
 42 40  1  0  0  0  0
 44 45  1  0  0  0  0
 44 39  2  0  0  0  0
 45 42  2  0  0  0  0
M  END
>  <MODEL>
7

>  <REMARK>
 VINA RESULT:      -7.6      3.683      7.897
  Name = 
  8 active torsions:
  status: ('A' for Active; 'I' for Inactive)
    1  A    between atoms: C_2  and  C_22
    2  A    between atoms: C_3  and  C_4
    3  A    between atoms: C_4  and  C_38
    4  A    between atoms: C_10  and  C_44
    5  A    between atoms: C_15  and  C_23
    6  A    between atoms: C_21  and  C_29
    7  A    between atoms: C_27  and  N_34
    8  A    between atoms: N_34  and  C_36
                            x       y       z     vdW  Elec       q    Type
                         _______ _______ _______ _____ _____    ______ ____

>  <TORSDO>
F 8

$$$$
=
 OpenBabel11072408573D

 45 49  0  0  1  0  0  0  0  0999 V2000
  193.2650  174.8920  143.4570 O   0  0  0  0  0  1  0  0  0  0  0  0
  194.2320  174.1410  144.1240 C   0  0  0  0  0  0  0  0  0  0  0  0
  195.0250  174.7170  145.0600 C   0  0  0  0  0  0  0  0  0  0  0  0
  197.1550  173.4540  144.7560 C   0  0  0  0  0  2  0  0  0  0  0  0
  195.7610  172.4270  143.1280 C   0  0  0  0  0  2  0  0  0  0  0  0
  196.0990  173.9280  145.7500 C   0  0  0  0  0  2  0  0  0  0  0  0
  194.3960  172.6820  143.7590 C   0  0  2  0  0  3  0  0  0  0  0  0
  196.7550  172.1810  144.1660 N   0  0  0  0  0  2  0  0  0  0  0  0
  191.9600  171.3140  138.3540 C   0  0  0  0  0  0  0  0  0  0  0  0
  192.0970  172.0650  143.3480 N   0  0  0  0  0  0  0  0  0  0  0  0
  193.2980  172.1880  142.8680 C   0  0  0  0  0  0  0  0  0  0  0  0
  193.5500  171.9340  141.4770 N   0  0  0  0  0  0  0  0  0  0  0  0
  192.3650  171.0310  136.9500 C   0  0  0  0  0  1  0  0  0  0  0  0
  190.9860  171.5590  142.5340 C   0  0  2  0  0  3  0  0  0  0  0  0
  190.4920  171.4190  138.6870 C   0  0  1  0  0  3  0  0  0  0  0  0
  191.1470  171.9630  141.0640 C   0  0  2  0  0  3  0  0  0  0  0  0
  190.2320  171.1290  140.1680 C   0  0  0  0  0  2  0  0  0  0  0  0
  192.8810  171.5010  139.2530 N   0  0  0  0  0  0  0  0  0  0  0  0
  192.5810  171.7780  140.6270 C   0  0  0  0  0  0  0  0  0  0  0  0
  189.6940  172.0790  144.6160 C   0  0  0  0  0  1  0  0  0  0  0  0
  189.6370  172.0040  143.1030 C   0  0  0  0  0  3  0  0  0  0  0  0
  189.1870  173.3410  142.5350 C   0  0  0  0  0  1  0  0  0  0  0  0
  189.9750  172.7440  138.3210 C   0  0  0  0  0  0  0  0  0  0  0  0
  189.5680  173.7880  138.0340 N   0  0  0  0  0  0  0  0  0  0  0  0
  194.9250  176.1040  145.4250 N   0  0  0  0  0  2  0  0  0  0  0  0
  193.0550  176.2170  146.9030 C   0  0  0  0  0  3  0  0  0  0  0  0
  193.7580  176.7590  145.9190 C   0  0  0  0  0  3  0  0  0  0  0  0
  191.8270  176.8940  147.4140 C   0  0  2  0  0  3  0  0  0  0  0  0
  191.5670  176.4750  148.7190 O   0  0  0  0  0  1  0  0  0  0  0  0
  188.8860  177.7900  143.3500 C   0  0  0  0  0  0  0  0  0  0  0  0
  189.8280  178.3400  142.7170 O   0  0  0  0  0  0  0  0  0  0  0  0
  188.6510  175.2800  146.0690 C   0  0  0  0  0  3  0  0  0  0  0  0
  189.8330  175.6070  146.8720 C   0  0  0  0  0  3  0  0  0  0  0  0
  190.3980  177.4580  145.3120 C   0  0  0  0  0  2  0  0  0  0  0  0
  190.6500  176.6050  146.5350 C   0  0  0  0  0  0  0  0  0  0  0  0
  189.1760  177.0960  144.5780 N   0  0  0  0  0  0  0  0  0  0  0  0
  188.3540  175.9910  144.9870 C   0  0  0  0  0  3  0  0  0  0  0  0
  186.6750  178.8090  144.9220 O   0  0  0  0  0  1  0  0  0  0  0  0
  184.8910  178.0100  141.7880 C   0  0  0  0  0  3  0  0  0  0  0  0
  186.4410  178.3740  143.6210 C   0  0  0  0  0  0  0  0  0  0  0  0
  185.1390  178.4310  143.0960 C   0  0  0  0  0  0  0  0  0  0  0  0
  187.5030  177.8950  142.8230 C   0  0  0  0  0  0  0  0  0  0  0  0
  183.8060  179.0400  144.0640 Cl  0  0  0  0  0  0  0  0  0  0  0  0
  185.9350  177.5310  140.9970 C   0  0  0  0  0  3  0  0  0  0  0  0
  187.2310  177.4720  141.5130 C   0  0  0  0  0  3  0  0  0  0  0  0
  1  2  1  0  0  0  0
  2  3  2  0  0  0  0
  3 25  1  0  0  0  0
  3  6  1  0  0  0  0
  4  6  1  0  0  0  0
  5  7  1  0  0  0  0
  5  8  1  0  0  0  0
  7 11  1  6  0  0  0
  7  2  1  0  0  0  0
  8  4  1  0  0  0  0
  9 15  1  0  0  0  0
  9 18  2  0  0  0  0
 11 10  2  0  0  0  0
 12 11  1  0  0  0  0
 13  9  1  0  0  0  0
 14 21  1  1  0  0  0
 14 10  1  0  0  0  0
 15 23  1  1  0  0  0
 15 17  1  0  0  0  0
 16 17  1  6  0  0  0
 16 14  1  0  0  0  0
 18 19  1  0  0  0  0
 19 16  1  0  0  0  0
 19 12  2  0  0  0  0
 21 20  1  0  0  0  0
 22 21  1  0  0  0  0
 24 23  3  0  0  0  0
 25 27  1  0  0  0  0
 26 28  1  0  0  0  0
 27 26  2  0  0  0  0
 28 29  1  1  0  0  0
 30 36  1  0  0  0  0
 31 30  2  0  0  0  0
 32 33  1  0  0  0  0
 34 35  1  0  0  0  0
 35 33  2  0  0  0  0
 35 28  1  0  0  0  0
 36 37  1  0  0  0  0
 36 34  1  0  0  0  0
 37 32  2  0  0  0  0
 39 41  1  0  0  0  0
 40 38  1  0  0  0  0
 41 40  2  0  0  0  0
 41 43  1  0  0  0  0
 42 30  1  0  0  0  0
 42 40  1  0  0  0  0
 44 45  1  0  0  0  0
 44 39  2  0  0  0  0
 45 42  2  0  0  0  0
M  END
>  <MODEL>
8

>  <REMARK>
 VINA RESULT:      -7.6      1.686      2.310
  Name = 
  8 active torsions:
  status: ('A' for Active; 'I' for Inactive)
    1  A    between atoms: C_2  and  C_22
    2  A    between atoms: C_3  and  C_4
    3  A    between atoms: C_4  and  C_38
    4  A    between atoms: C_10  and  C_44
    5  A    between atoms: C_15  and  C_23
    6  A    between atoms: C_21  and  C_29
    7  A    between atoms: C_27  and  N_34
    8  A    between atoms: N_34  and  C_36
                            x       y       z     vdW  Elec       q    Type
                         _______ _______ _______ _____ _____    ______ ____

>  <TORSDO>
F 8

$$$$
=
 OpenBabel11072408573D

 45 49  0  0  1  0  0  0  0  0999 V2000
  193.9070  172.1840  140.8860 O   0  0  0  0  0  1  0  0  0  0  0  0
  193.6530  171.1560  141.7920 C   0  0  0  0  0  0  0  0  0  0  0  0
  194.5950  170.7860  142.6940 C   0  0  0  0  0  0  0  0  0  0  0  0
  194.1680  168.3360  142.8870 C   0  0  0  0  0  2  0  0  0  0  0  0
  192.5020  168.9820  141.3200 C   0  0  0  0  0  2  0  0  0  0  0  0
  194.3480  169.6490  143.6420 C   0  0  0  0  0  2  0  0  0  0  0  0
  192.3200  170.4420  141.7240 C   0  0  2  0  0  3  0  0  0  0  0  0
  192.7720  168.1660  142.4980 N   0  0  0  0  0  2  0  0  0  0  0  0
  189.9390  171.7480  136.2790 C   0  0  0  0  0  0  0  0  0  0  0  0
  190.6450  172.1210  141.2690 N   0  0  0  0  0  0  0  0  0  0  0  0
  191.3490  171.1280  140.8140 C   0  0  0  0  0  0  0  0  0  0  0  0
  191.2580  170.7510  139.4310 N   0  0  0  0  0  0  0  0  0  0  0  0
  189.8990  171.2230  134.8880 C   0  0  0  0  0  1  0  0  0  0  0  0
  189.6570  172.8140  140.4350 C   0  0  2  0  0  3  0  0  0  0  0  0
  189.3010  173.0820  136.5790 C   0  0  1  0  0  3  0  0  0  0  0  0
  190.0910  172.8400  138.9660 C   0  0  2  0  0  3  0  0  0  0  0  0
  188.9150  173.1990  138.0570 C   0  0  0  0  0  2  0  0  0  0  0  0
  190.5560  171.0640  137.1970 N   0  0  0  0  0  0  0  0  0  0  0  0
  190.6440  171.4940  138.5620 C   0  0  0  0  0  0  0  0  0  0  0  0
  188.1250  174.2190  141.8320 C   0  0  0  0  0  1  0  0  0  0  0  0
  189.3710  174.2200  140.9700 C   0  0  0  0  0  3  0  0  0  0  0  0
  190.5430  174.7840  141.7550 C   0  0  0  0  0  1  0  0  0  0  0  0
  190.1950  174.1800  136.1900 C   0  0  0  0  0  0  0  0  0  0  0  0
  190.8990  175.0450  135.8840 N   0  0  0  0  0  0  0  0  0  0  0  0
  195.8840  171.4160  142.7820 N   0  0  0  0  0  0  0  0  0  0  0  0
  195.2890  173.1130  144.3510 C   0  0  0  0  0  2  0  0  0  0  0  0
  196.2180  172.5310  143.6070 C   0  0  0  0  0  3  0  0  0  0  0  0
  195.6340  174.2870  145.2060 C   0  0  2  0  0  3  0  0  0  0  0  0
  196.3910  173.8660  146.3000 O   0  0  0  0  0  1  0  0  0  0  0  0
  190.5770  174.8640  145.4560 C   0  0  0  0  0  0  0  0  0  0  0  0
  190.3670  173.6450  145.2130 O   0  0  0  0  0  0  0  0  0  0  0  0
  193.3660  176.8180  146.9230 C   0  0  0  0  0  3  0  0  0  0  0  0
  194.5310  176.0690  146.4440 C   0  0  0  0  0  3  0  0  0  0  0  0
  193.0390  174.4830  145.2480 C   0  0  0  0  0  2  0  0  0  0  0  0
  194.3980  174.9890  145.6750 C   0  0  0  0  0  0  0  0  0  0  0  0
  191.9200  175.3040  145.7340 N   0  0  0  0  0  0  0  0  0  0  0  0
  192.1380  176.4430  146.5820 C   0  0  0  0  0  3  0  0  0  0  0  0
  188.6040  175.0310  147.5730 O   0  0  0  0  0  1  0  0  0  0  0  0
  187.2620  177.5890  145.2730 C   0  0  0  0  0  3  0  0  0  0  0  0
  188.4790  175.8550  146.4590 C   0  0  0  0  0  0  0  0  0  0  0  0
  187.3960  176.7470  146.3780 C   0  0  0  0  0  0  0  0  0  0  0  0
  189.4370  175.8130  145.4230 C   0  0  0  0  0  0  0  0  0  0  0  0
  186.2020  176.8290  147.6630 Cl  0  0  0  0  0  0  0  0  0  0  0  0
  188.2030  177.5490  144.2440 C   0  0  0  0  0  3  0  0  0  0  0  0
  189.2810  176.6650  144.3190 C   0  0  0  0  0  3  0  0  0  0  0  0
  1  2  1  0  0  0  0
  2  3  2  0  0  0  0
  3 25  1  0  0  0  0
  3  6  1  0  0  0  0
  4  6  1  0  0  0  0
  5  7  1  0  0  0  0
  5  8  1  0  0  0  0
  7 11  1  6  0  0  0
  7  2  1  0  0  0  0
  8  4  1  0  0  0  0
  9 15  1  0  0  0  0
  9 18  2  0  0  0  0
 11 10  2  0  0  0  0
 12 11  1  0  0  0  0
 13  9  1  0  0  0  0
 14 21  1  1  0  0  0
 14 10  1  0  0  0  0
 15 23  1  1  0  0  0
 15 17  1  0  0  0  0
 16 17  1  6  0  0  0
 16 14  1  0  0  0  0
 18 19  1  0  0  0  0
 19 16  1  0  0  0  0
 19 12  2  0  0  0  0
 21 22  1  0  0  0  0
 21 20  1  0  0  0  0
 24 23  3  0  0  0  0
 25 27  2  0  0  0  0
 26 28  1  0  0  0  0
 27 26  1  0  0  0  0
 28 35  1  0  0  0  0
 28 29  1  1  0  0  0
 30 36  1  0  0  0  0
 31 30  2  0  0  0  0
 33 32  1  0  0  0  0
 34 35  1  0  0  0  0
 34 36  1  0  0  0  0
 35 33  2  0  0  0  0
 36 37  1  0  0  0  0
 37 32  2  0  0  0  0
 39 41  1  0  0  0  0
 40 38  1  0  0  0  0
 41 40  2  0  0  0  0
 41 43  1  0  0  0  0
 42 30  1  0  0  0  0
 42 40  1  0  0  0  0
 44 45  1  0  0  0  0
 44 39  2  0  0  0  0
 45 42  2  0  0  0  0
M  END
>  <MODEL>
9

>  <REMARK>
 VINA RESULT:      -7.5      2.670      3.911
  Name = 
  8 active torsions:
  status: ('A' for Active; 'I' for Inactive)
    1  A    between atoms: C_2  and  C_22
    2  A    between atoms: C_3  and  C_4
    3  A    between atoms: C_4  and  C_38
    4  A    between atoms: C_10  and  C_44
    5  A    between atoms: C_15  and  C_23
    6  A    between atoms: C_21  and  C_29
    7  A    between atoms: C_27  and  N_34
    8  A    between atoms: N_34  and  C_36
                            x       y       z     vdW  Elec       q    Type
                         _______ _______ _______ _____ _____    ______ ____

>  <TORSDO>
F 8

$$$$
