=
 OpenBabel11062422453D

 29 31  0  0  1  0  0  0  0  0999 V2000
  184.9590  177.8630  140.6290 N   0  0  0  0  0  0  0  0  0  0  0  0
  188.2420  177.7300  144.2470 N   0  0  0  0  0  0  0  0  0  0  0  0
  185.9580  177.6670  139.7340 C   0  0  0  0  0  3  0  0  0  0  0  0
  188.8840  177.4760  141.9880 N   0  0  0  0  0  2  0  0  0  0  0  0
  187.5380  177.6070  141.5390 C   0  0  0  0  0  0  0  0  0  0  0  0
  187.2690  177.5360  140.1750 C   0  0  0  0  0  3  0  0  0  0  0  0
  186.8860  177.8660  143.8850 N   0  0  0  0  0  0  0  0  0  0  0  0
  186.5060  177.8080  142.4760 C   0  0  0  0  0  0  0  0  0  0  0  0
  189.1920  177.5470  143.3800 C   0  0  0  0  0  0  0  0  0  0  0  0
  185.1820  177.9380  141.9700 C   0  0  0  0  0  0  0  0  0  0  0  0
  184.0570  178.1510  142.8120 N   0  0  0  0  0  1  0  0  0  0  0  0
  184.8420  178.2460  147.6260 C   0  0  0  0  0  3  0  0  0  0  0  0
  185.5900  179.2740  147.1930 C   0  0  0  0  0  3  0  0  0  0  0  0
  184.6090  177.0070  146.8010 C   0  0  0  0  0  2  0  0  0  0  0  0
  186.3460  179.2540  145.8880 C   0  0  0  0  0  2  0  0  0  0  0  0
  185.7380  176.7660  145.8050 C   0  0  0  0  0  2  0  0  0  0  0  0
  185.9770  178.0500  145.0150 C   0  0  2  0  0  3  0  0  0  0  0  0
  191.5170  177.8940  143.1300 O   0  0  0  0  0  0  0  0  0  0  0  0
  192.1670  176.5340  145.6230 C   0  0  0  0  0  0  0  0  0  0  0  0
  192.2740  175.8980  146.7050 O   0  0  0  0  0  0  0  0  0  0  0  0
  190.5840  177.4130  143.8290 C   0  0  0  0  0  0  0  0  0  0  0  0
  193.3350  177.0520  144.9780 N   0  0  0  0  0  2  0  0  0  0  0  0
  190.8660  176.7320  145.0580 N   0  0  0  0  0  2  0  0  0  0  0  0
  194.6810  176.8340  145.4900 C   0  0  0  0  0  2  0  0  0  0  0  0
  195.3800  175.7200  144.7180 C   0  0  0  0  0  2  0  0  0  0  0  0
  197.1920  175.3720  143.2370 F   0  0  0  0  0  0  0  0  0  0  0  0
  196.1640  176.2490  143.5210 C   0  0  0  0  0  0  0  0  0  0  0  0
  196.6990  177.4910  143.8150 F   0  0  0  0  0  0  0  0  0  0  0  0
  195.3420  176.3510  142.4130 F   0  0  0  0  0  0  0  0  0  0  0  0
  1 10  1  0  0  0  0
  3  6  1  0  0  0  0
  3  1  2  0  0  0  0
  4  9  1  0  0  0  0
  5  4  1  0  0  0  0
  5  8  1  0  0  0  0
  6  5  2  0  0  0  0
  7  2  1  0  0  0  0
  8  7  1  0  0  0  0
  9 21  1  0  0  0  0
  9  2  2  0  0  0  0
 10  8  2  0  0  0  0
 10 11  1  0  0  0  0
 13 12  2  0  0  0  0
 14 12  1  0  0  0  0
 15 13  1  0  0  0  0
 16 14  1  0  0  0  0
 17  7  1  6  0  0  0
 17 16  1  0  0  0  0
 17 15  1  0  0  0  0
 18 21  2  0  0  0  0
 19 20  2  0  0  0  0
 21 23  1  0  0  0  0
 22 24  1  0  0  0  0
 22 19  1  0  0  0  0
 23 19  1  0  0  0  0
 25 24  1  0  0  0  0
 26 27  1  0  0  0  0
 27 28  1  0  0  0  0
 27 25  1  0  0  0  0
 29 27  1  0  0  0  0
M  END
>  <MODEL>
1

>  <REMARK>
 VINA RESULT:      -7.6      0.000      0.000
  Name = 
  5 active torsions:
  status: ('A' for Active; 'I' for Inactive)
    1  A    between atoms: C_5  and  C_15
    2  A    between atoms: N_14  and  C_23
    3  A    between atoms: C_15  and  C_16
    4  A    between atoms: C_16  and  N_27
    5  A    between atoms: C_19  and  C_26
                            x       y       z     vdW  Elec       q    Type
                         _______ _______ _______ _____ _____    ______ ____

>  <TORSDO>
F 5

$$$$
=
 OpenBabel11062422453D

 29 31  0  0  1  0  0  0  0  0999 V2000
  184.3570  178.2000  141.1710 N   0  0  0  0  0  0  0  0  0  0  0  0
  188.3000  177.4250  143.9530 N   0  0  0  0  0  0  0  0  0  0  0  0
  185.1290  178.0650  140.0650 C   0  0  0  0  0  3  0  0  0  0  0  0
  188.4350  177.4260  141.5950 N   0  0  0  0  0  2  0  0  0  0  0  0
  187.0400  177.6880  141.4660 C   0  0  0  0  0  0  0  0  0  0  0  0
  186.4870  177.8060  140.1930 C   0  0  0  0  0  3  0  0  0  0  0  0
  186.9140  177.6820  143.9110 N   0  0  0  0  0  0  0  0  0  0  0  0
  186.2460  177.8250  142.6210 C   0  0  0  0  0  0  0  0  0  0  0  0
  189.0300  177.3020  142.8860 C   0  0  0  0  0  0  0  0  0  0  0  0
  184.8600  178.0920  142.4320 C   0  0  0  0  0  0  0  0  0  0  0  0
  183.9560  178.2580  143.5160 N   0  0  0  0  0  1  0  0  0  0  0  0
  185.7310  178.2240  147.9890 C   0  0  0  0  0  3  0  0  0  0  0  0
  185.7310  179.2900  147.1710 C   0  0  0  0  0  3  0  0  0  0  0  0
  186.0290  176.8290  147.5050 C   0  0  0  0  0  2  0  0  0  0  0  0
  186.1210  179.2130  145.7150 C   0  0  0  0  0  2  0  0  0  0  0  0
  186.9030  176.8340  146.2560 C   0  0  0  0  0  2  0  0  0  0  0  0
  186.2780  177.7710  145.2250 C   0  0  2  0  0  3  0  0  0  0  0  0
  191.2420  177.9380  143.4270 O   0  0  0  0  0  0  0  0  0  0  0  0
  192.3520  175.3410  142.7070 C   0  0  0  0  0  0  0  0  0  0  0  0
  192.6670  174.1820  142.3300 O   0  0  0  0  0  0  0  0  0  0  0  0
  190.4690  177.0340  143.0050 C   0  0  0  0  0  0  0  0  0  0  0  0
  193.3570  176.2330  143.2020 N   0  0  0  0  0  2  0  0  0  0  0  0
  190.9810  175.7470  142.6360 N   0  0  0  0  0  2  0  0  0  0  0  0
  194.7700  175.8810  143.2470 C   0  0  0  0  0  2  0  0  0  0  0  0
  195.3560  176.1670  144.6250 C   0  0  0  0  0  2  0  0  0  0  0  0
  194.2180  175.5120  146.5940 F   0  0  0  0  0  0  0  0  0  0  0  0
  195.0750  175.0430  145.6180 C   0  0  0  0  0  0  0  0  0  0  0  0
  196.2540  174.6310  146.2140 F   0  0  0  0  0  0  0  0  0  0  0  0
  194.4820  173.9710  144.9770 F   0  0  0  0  0  0  0  0  0  0  0  0
  1 10  1  0  0  0  0
  3  6  1  0  0  0  0
  3  1  2  0  0  0  0
  4  9  1  0  0  0  0
  5  4  1  0  0  0  0
  5  8  1  0  0  0  0
  6  5  2  0  0  0  0
  7  2  1  0  0  0  0
  8  7  1  0  0  0  0
  9 21  1  0  0  0  0
  9  2  2  0  0  0  0
 10  8  2  0  0  0  0
 10 11  1  0  0  0  0
 13 12  2  0  0  0  0
 14 12  1  0  0  0  0
 15 13  1  0  0  0  0
 16 14  1  0  0  0  0
 17  7  1  6  0  0  0
 17 15  1  0  0  0  0
 17 16  1  0  0  0  0
 19 22  1  0  0  0  0
 20 19  2  0  0  0  0
 21 18  2  0  0  0  0
 22 24  1  0  0  0  0
 23 19  1  0  0  0  0
 23 21  1  0  0  0  0
 24 25  1  0  0  0  0
 25 27  1  0  0  0  0
 27 28  1  0  0  0  0
 27 26  1  0  0  0  0
 29 27  1  0  0  0  0
M  END
>  <MODEL>
2

>  <REMARK>
 VINA RESULT:      -7.4      1.761      1.984
  Name = 
  5 active torsions:
  status: ('A' for Active; 'I' for Inactive)
    1  A    between atoms: C_5  and  C_15
    2  A    between atoms: N_14  and  C_23
    3  A    between atoms: C_15  and  C_16
    4  A    between atoms: C_16  and  N_27
    5  A    between atoms: C_19  and  C_26
                            x       y       z     vdW  Elec       q    Type
                         _______ _______ _______ _____ _____    ______ ____

>  <TORSDO>
F 5

$$$$
=
 OpenBabel11062422453D

 29 31  0  0  1  0  0  0  0  0999 V2000
  184.9380  178.8270  146.4390 N   0  0  0  0  0  0  0  0  0  0  0  0
  188.0370  176.1820  143.7400 N   0  0  0  0  0  0  0  0  0  0  0  0
  184.1050  178.9140  145.3720 C   0  0  0  0  0  3  0  0  0  0  0  0
  186.0060  176.9930  142.8470 N   0  0  0  0  0  2  0  0  0  0  0  0
  185.6540  177.6120  144.0810 C   0  0  0  0  0  0  0  0  0  0  0  0
  184.4500  178.3070  144.1720 C   0  0  0  0  0  3  0  0  0  0  0  0
  187.7600  176.7630  144.9950 N   0  0  0  0  0  0  0  0  0  0  0  0
  186.5230  177.5140  145.1850 C   0  0  0  0  0  0  0  0  0  0  0  0
  187.2340  176.2760  142.7240 C   0  0  0  0  0  0  0  0  0  0  0  0
  186.1220  178.1570  146.3910 C   0  0  0  0  0  0  0  0  0  0  0  0
  186.9140  178.1370  147.5700 N   0  0  0  0  0  1  0  0  0  0  0  0
  191.1480  175.7140  147.3910 C   0  0  0  0  0  3  0  0  0  0  0  0
  191.2380  176.7810  146.5810 C   0  0  0  0  0  3  0  0  0  0  0  0
  189.8710  174.9330  147.5680 C   0  0  0  0  0  2  0  0  0  0  0  0
  190.1050  177.2470  145.7000 C   0  0  0  0  0  2  0  0  0  0  0  0
  188.9600  175.0500  146.3510 C   0  0  0  0  0  2  0  0  0  0  0  0
  188.7880  176.5260  146.0070 C   0  0  2  0  0  3  0  0  0  0  0  0
  187.3890  176.2650  140.3650 O   0  0  0  0  0  0  0  0  0  0  0  0
  188.5480  173.5930  140.2760 C   0  0  0  0  0  0  0  0  0  0  0  0
  189.0120  172.4310  140.4160 O   0  0  0  0  0  0  0  0  0  0  0  0
  187.5870  175.6450  141.4450 C   0  0  0  0  0  0  0  0  0  0  0  0
  188.4300  174.1670  138.9700 N   0  0  0  0  0  2  0  0  0  0  0  0
  188.1490  174.3270  141.4400 N   0  0  0  0  0  2  0  0  0  0  0  0
  188.7780  173.4410  137.7560 C   0  0  0  0  0  2  0  0  0  0  0  0
  189.8500  174.1850  136.9680 C   0  0  0  0  0  2  0  0  0  0  0  0
  189.1020  173.8870  134.7440 F   0  0  0  0  0  0  0  0  0  0  0  0
  189.2920  174.8510  135.7150 C   0  0  0  0  0  0  0  0  0  0  0  0
  190.1830  175.7970  135.2420 F   0  0  0  0  0  0  0  0  0  0  0  0
  188.0790  175.4550  135.9900 F   0  0  0  0  0  0  0  0  0  0  0  0
  2  7  1  0  0  0  0
  3  1  2  0  0  0  0
  4  5  1  0  0  0  0
  5  6  2  0  0  0  0
  5  8  1  0  0  0  0
  6  3  1  0  0  0  0
  7  8  1  0  0  0  0
  8 10  2  0  0  0  0
  9  4  1  0  0  0  0
  9  2  2  0  0  0  0
 10  1  1  0  0  0  0
 10 11  1  0  0  0  0
 12 14  1  0  0  0  0
 13 12  2  0  0  0  0
 15 17  1  0  0  0  0
 15 13  1  0  0  0  0
 16 14  1  0  0  0  0
 17  7  1  6  0  0  0
 17 16  1  0  0  0  0
 18 21  2  0  0  0  0
 19 20  2  0  0  0  0
 19 23  1  0  0  0  0
 21  9  1  0  0  0  0
 22 19  1  0  0  0  0
 23 21  1  0  0  0  0
 24 22  1  0  0  0  0
 25 24  1  0  0  0  0
 26 27  1  0  0  0  0
 27 29  1  0  0  0  0
 27 25  1  0  0  0  0
 28 27  1  0  0  0  0
M  END
>  <MODEL>
3

>  <REMARK>
 VINA RESULT:      -7.2      4.475      6.595
  Name = 
  5 active torsions:
  status: ('A' for Active; 'I' for Inactive)
    1  A    between atoms: C_5  and  C_15
    2  A    between atoms: N_14  and  C_23
    3  A    between atoms: C_15  and  C_16
    4  A    between atoms: C_16  and  N_27
    5  A    between atoms: C_19  and  C_26
                            x       y       z     vdW  Elec       q    Type
                         _______ _______ _______ _____ _____    ______ ____

>  <TORSDO>
F 5

$$$$
=
 OpenBabel11062422453D

 29 31  0  0  1  0  0  0  0  0999 V2000
  184.4340  178.5840  146.4200 N   0  0  0  0  0  0  0  0  0  0  0  0
  188.6560  176.9950  144.5420 N   0  0  0  0  0  0  0  0  0  0  0  0
  185.0220  178.6650  147.6380 C   0  0  0  0  0  3  0  0  0  0  0  0
  188.4460  177.5210  146.8350 N   0  0  0  0  0  2  0  0  0  0  0  0
  187.0770  177.8830  146.6770 C   0  0  0  0  0  0  0  0  0  0  0  0
  186.3580  178.3150  147.7880 C   0  0  0  0  0  3  0  0  0  0  0  0
  187.3100  177.3370  144.3020 N   0  0  0  0  0  0  0  0  0  0  0  0
  186.4740  177.7980  145.4070 C   0  0  0  0  0  0  0  0  0  0  0  0
  189.2090  177.0730  145.7150 C   0  0  0  0  0  0  0  0  0  0  0  0
  185.1020  178.1670  145.3100 C   0  0  0  0  0  0  0  0  0  0  0  0
  184.3810  178.1180  144.0870 N   0  0  0  0  0  1  0  0  0  0  0  0
  186.7960  177.1550  140.0560 C   0  0  0  0  0  3  0  0  0  0  0  0
  187.4410  176.1510  140.6710 C   0  0  0  0  0  3  0  0  0  0  0  0
  186.1540  178.2910  140.8120 C   0  0  0  0  0  2  0  0  0  0  0  0
  187.6720  176.1060  142.1610 C   0  0  0  0  0  2  0  0  0  0  0  0
  186.8190  178.5220  142.1640 C   0  0  0  0  0  2  0  0  0  0  0  0
  186.8910  177.1920  142.9080 C   0  0  2  0  0  3  0  0  0  0  0  0
  191.0450  176.3880  147.0370 O   0  0  0  0  0  0  0  0  0  0  0  0
  192.8840  176.3480  144.7780 C   0  0  0  0  0  0  0  0  0  0  0  0
  193.5450  176.4080  143.7080 O   0  0  0  0  0  0  0  0  0  0  0  0
  190.6180  176.6990  145.8920 C   0  0  0  0  0  0  0  0  0  0  0  0
  193.5200  175.9310  145.9910 N   0  0  0  0  0  2  0  0  0  0  0  0
  191.4950  176.6970  144.7590 N   0  0  0  0  0  2  0  0  0  0  0  0
  194.9390  175.6140  146.0680 C   0  0  0  0  0  2  0  0  0  0  0  0
  195.1820  174.1400  145.7630 C   0  0  0  0  0  2  0  0  0  0  0  0
  197.3360  174.7350  144.9860 F   0  0  0  0  0  0  0  0  0  0  0  0
  196.6660  173.7900  145.7390 C   0  0  0  0  0  0  0  0  0  0  0  0
  196.8520  172.5450  145.1660 F   0  0  0  0  0  0  0  0  0  0  0  0
  197.1830  173.7910  147.0220 F   0  0  0  0  0  0  0  0  0  0  0  0
  1  3  1  0  0  0  0
  2  9  2  0  0  0  0
  3  6  2  0  0  0  0
  5  4  1  0  0  0  0
  5  6  1  0  0  0  0
  7  2  1  0  0  0  0
  7  8  1  0  0  0  0
  8  5  2  0  0  0  0
  9 21  1  0  0  0  0
  9  4  1  0  0  0  0
 10  8  1  0  0  0  0
 10  1  2  0  0  0  0
 11 10  1  0  0  0  0
 12 13  2  0  0  0  0
 12 14  1  0  0  0  0
 13 15  1  0  0  0  0
 14 16  1  0  0  0  0
 16 17  1  0  0  0  0
 17 15  1  6  0  0  0
 17  7  1  0  0  0  0
 19 22  1  0  0  0  0
 20 19  2  0  0  0  0
 21 18  2  0  0  0  0
 22 24  1  0  0  0  0
 23 19  1  0  0  0  0
 23 21  1  0  0  0  0
 25 24  1  0  0  0  0
 26 27  1  0  0  0  0
 27 25  1  0  0  0  0
 27 29  1  0  0  0  0
 28 27  1  0  0  0  0
M  END
>  <MODEL>
4

>  <REMARK>
 VINA RESULT:      -7.2      1.878      4.391
  Name = 
  5 active torsions:
  status: ('A' for Active; 'I' for Inactive)
    1  A    between atoms: C_5  and  C_15
    2  A    between atoms: N_14  and  C_23
    3  A    between atoms: C_15  and  C_16
    4  A    between atoms: C_16  and  N_27
    5  A    between atoms: C_19  and  C_26
                            x       y       z     vdW  Elec       q    Type
                         _______ _______ _______ _____ _____    ______ ____

>  <TORSDO>
F 5

$$$$
=
 OpenBabel11062422453D

 29 31  0  0  1  0  0  0  0  0999 V2000
  194.9800  174.3550  145.1920 N   0  0  0  0  0  0  0  0  0  0  0  0
  190.2590  175.2370  144.2870 N   0  0  0  0  0  0  0  0  0  0  0  0
  194.9670  175.3290  146.1340 C   0  0  0  0  0  3  0  0  0  0  0  0
  191.4520  176.4610  145.9180 N   0  0  0  0  0  2  0  0  0  0  0  0
  192.6490  175.7310  145.6610 C   0  0  0  0  0  0  0  0  0  0  0  0
  193.7980  176.0360  146.3850 C   0  0  0  0  0  3  0  0  0  0  0  0
  191.3990  174.4690  143.9750 N   0  0  0  0  0  0  0  0  0  0  0  0
  192.6530  174.7190  144.6810 C   0  0  0  0  0  0  0  0  0  0  0  0
  190.2590  176.1720  145.1890 C   0  0  0  0  0  0  0  0  0  0  0  0
  193.8780  174.0270  144.4630 C   0  0  0  0  0  0  0  0  0  0  0  0
  194.0120  172.9920  143.4990 N   0  0  0  0  0  1  0  0  0  0  0  0
  190.0580  171.8300  140.8840 C   0  0  0  0  0  3  0  0  0  0  0  0
  190.4780  173.0590  140.5440 C   0  0  0  0  0  3  0  0  0  0  0  0
  190.1380  171.3050  142.2950 C   0  0  0  0  0  2  0  0  0  0  0  0
  190.9790  174.0680  141.5480 C   0  0  0  0  0  2  0  0  0  0  0  0
  190.1200  172.4310  143.3220 C   0  0  0  0  0  2  0  0  0  0  0  0
  191.1800  173.4600  142.9400 C   0  0  2  0  0  3  0  0  0  0  0  0
  188.7600  177.9500  144.7690 O   0  0  0  0  0  0  0  0  0  0  0  0
  186.9340  177.1470  146.8930 C   0  0  0  0  0  0  0  0  0  0  0  0
  186.2730  176.6820  147.8590 O   0  0  0  0  0  0  0  0  0  0  0  0
  189.0340  176.9330  145.4620 C   0  0  0  0  0  0  0  0  0  0  0  0
  186.4540  178.2930  146.1810 N   0  0  0  0  0  2  0  0  0  0  0  0
  188.1620  176.5120  146.5190 N   0  0  0  0  0  2  0  0  0  0  0  0
  185.2370  179.0000  146.5560 C   0  0  0  0  0  2  0  0  0  0  0  0
  184.0670  178.5660  145.6800 C   0  0  0  0  0  2  0  0  0  0  0  0
  182.9820  179.1810  143.6700 F   0  0  0  0  0  0  0  0  0  0  0  0
  184.2330  179.0080  144.2300 C   0  0  0  0  0  0  0  0  0  0  0  0
  184.9170  178.0430  143.5140 F   0  0  0  0  0  0  0  0  0  0  0  0
  184.9220  180.2060  144.1680 F   0  0  0  0  0  0  0  0  0  0  0  0
  1  3  1  0  0  0  0
  2  9  2  0  0  0  0
  3  6  2  0  0  0  0
  5  4  1  0  0  0  0
  5  6  1  0  0  0  0
  7  2  1  0  0  0  0
  7  8  1  0  0  0  0
  8  5  2  0  0  0  0
  9 21  1  0  0  0  0
  9  4  1  0  0  0  0
 10  8  1  0  0  0  0
 10  1  2  0  0  0  0
 11 10  1  0  0  0  0
 12 14  1  0  0  0  0
 13 12  2  0  0  0  0
 13 15  1  0  0  0  0
 14 16  1  0  0  0  0
 17 15  1  6  0  0  0
 17 16  1  0  0  0  0
 17  7  1  0  0  0  0
 18 21  2  0  0  0  0
 19 20  2  0  0  0  0
 21 23  1  0  0  0  0
 22 24  1  0  0  0  0
 22 19  1  0  0  0  0
 23 19  1  0  0  0  0
 25 24  1  0  0  0  0
 26 27  1  0  0  0  0
 27 25  1  0  0  0  0
 28 27  1  0  0  0  0
 29 27  1  0  0  0  0
M  END
>  <MODEL>
5

>  <REMARK>
 VINA RESULT:      -7.0      4.932      8.737
  Name = 
  5 active torsions:
  status: ('A' for Active; 'I' for Inactive)
    1  A    between atoms: C_5  and  C_15
    2  A    between atoms: N_14  and  C_23
    3  A    between atoms: C_15  and  C_16
    4  A    between atoms: C_16  and  N_27
    5  A    between atoms: C_19  and  C_26
                            x       y       z     vdW  Elec       q    Type
                         _______ _______ _______ _____ _____    ______ ____

>  <TORSDO>
F 5

$$$$
=
 OpenBabel11062422453D

 29 31  0  0  1  0  0  0  0  0999 V2000
  185.0060  178.5100  145.1010 N   0  0  0  0  0  0  0  0  0  0  0  0
  188.6290  175.6980  143.4120 N   0  0  0  0  0  0  0  0  0  0  0  0
  184.4110  178.4500  143.8840 C   0  0  0  0  0  3  0  0  0  0  0  0
  186.8160  176.3330  142.0370 N   0  0  0  0  0  2  0  0  0  0  0  0
  186.2090  177.0700  143.0940 C   0  0  0  0  0  0  0  0  0  0  0  0
  185.0040  177.7270  142.8570 C   0  0  0  0  0  3  0  0  0  0  0  0
  188.0920  176.4030  144.5090 N   0  0  0  0  0  0  0  0  0  0  0  0
  186.8320  177.1260  144.3550 C   0  0  0  0  0  0  0  0  0  0  0  0
  188.0520  175.6510  142.2500 C   0  0  0  0  0  0  0  0  0  0  0  0
  186.1830  177.8820  145.3720 C   0  0  0  0  0  0  0  0  0  0  0  0
  186.7150  178.0200  146.6820 N   0  0  0  0  0  1  0  0  0  0  0  0
  190.9450  175.7830  147.6380 C   0  0  0  0  0  3  0  0  0  0  0  0
  191.1420  176.7960  146.7790 C   0  0  0  0  0  3  0  0  0  0  0  0
  189.7090  174.9220  147.6100 C   0  0  0  0  0  2  0  0  0  0  0  0
  190.1980  177.1110  145.6450 C   0  0  0  0  0  2  0  0  0  0  0  0
  189.0740  174.8840  146.2250 C   0  0  0  0  0  2  0  0  0  0  0  0
  188.8920  176.3160  145.7300 C   0  0  2  0  0  3  0  0  0  0  0  0
  189.7510  174.2780  141.3440 O   0  0  0  0  0  0  0  0  0  0  0  0
  188.5100  174.1770  138.7100 C   0  0  0  0  0  0  0  0  0  0  0  0
  187.8600  174.2590  137.6340 O   0  0  0  0  0  0  0  0  0  0  0  0
  188.6680  174.8960  141.1510 C   0  0  0  0  0  0  0  0  0  0  0  0
  189.7060  173.3920  138.7670 N   0  0  0  0  0  2  0  0  0  0  0  0
  188.0330  174.8740  139.8660 N   0  0  0  0  0  2  0  0  0  0  0  0
  190.2550  172.7060  137.6050 C   0  0  0  0  0  2  0  0  0  0  0  0
  190.6870  171.2900  137.9660 C   0  0  0  0  0  2  0  0  0  0  0  0
  189.3370  170.8730  136.0690 F   0  0  0  0  0  0  0  0  0  0  0  0
  190.2090  170.2600  136.9480 C   0  0  0  0  0  0  0  0  0  0  0  0
  189.5490  169.2280  137.5900 F   0  0  0  0  0  0  0  0  0  0  0  0
  191.2800  169.7530  136.2360 F   0  0  0  0  0  0  0  0  0  0  0  0
  1 10  1  0  0  0  0
  2  7  1  0  0  0  0
  3  1  2  0  0  0  0
  4  9  1  0  0  0  0
  4  5  1  0  0  0  0
  5  8  1  0  0  0  0
  6  5  2  0  0  0  0
  6  3  1  0  0  0  0
  8  7  1  0  0  0  0
  8 10  2  0  0  0  0
  9  2  2  0  0  0  0
 10 11  1  0  0  0  0
 13 12  2  0  0  0  0
 14 12  1  0  0  0  0
 15 17  1  0  0  0  0
 15 13  1  0  0  0  0
 16 14  1  0  0  0  0
 17  7  1  6  0  0  0
 17 16  1  0  0  0  0
 19 22  1  0  0  0  0
 19 23  1  0  0  0  0
 20 19  2  0  0  0  0
 21 18  2  0  0  0  0
 21  9  1  0  0  0  0
 23 21  1  0  0  0  0
 24 25  1  0  0  0  0
 24 22  1  0  0  0  0
 26 27  1  0  0  0  0
 27 28  1  0  0  0  0
 27 25  1  0  0  0  0
 29 27  1  0  0  0  0
M  END
>  <MODEL>
6

>  <REMARK>
 VINA RESULT:      -6.9      4.916      6.634
  Name = 
  5 active torsions:
  status: ('A' for Active; 'I' for Inactive)
    1  A    between atoms: C_5  and  C_15
    2  A    between atoms: N_14  and  C_23
    3  A    between atoms: C_15  and  C_16
    4  A    between atoms: C_16  and  N_27
    5  A    between atoms: C_19  and  C_26
                            x       y       z     vdW  Elec       q    Type
                         _______ _______ _______ _____ _____    ______ ____

>  <TORSDO>
F 5

$$$$
=
 OpenBabel11062422453D

 29 31  0  0  1  0  0  0  0  0999 V2000
  191.9210  172.3780  140.4860 N   0  0  0  0  0  0  0  0  0  0  0  0
  190.3480  175.8680  143.5240 N   0  0  0  0  0  0  0  0  0  0  0  0
  190.7540  172.4680  139.8010 C   0  0  0  0  0  3  0  0  0  0  0  0
  189.0170  175.1030  141.7290 N   0  0  0  0  0  2  0  0  0  0  0  0
  190.0190  174.1790  141.3150 C   0  0  0  0  0  0  0  0  0  0  0  0
  189.7800  173.3720  140.2050 C   0  0  0  0  0  3  0  0  0  0  0  0
  191.3900  174.9830  143.1780 N   0  0  0  0  0  0  0  0  0  0  0  0
  191.2290  174.0940  142.0300 C   0  0  0  0  0  0  0  0  0  0  0  0
  189.2330  175.9420  142.8640 C   0  0  0  0  0  0  0  0  0  0  0  0
  192.1920  173.1490  141.5750 C   0  0  0  0  0  0  0  0  0  0  0  0
  193.4470  172.9640  142.2150 N   0  0  0  0  0  1  0  0  0  0  0  0
  194.4410  175.7940  146.0670 C   0  0  0  0  0  3  0  0  0  0  0  0
  193.3950  175.0360  146.4320 C   0  0  0  0  0  3  0  0  0  0  0  0
  194.6370  176.2840  144.6550 C   0  0  0  0  0  2  0  0  0  0  0  0
  192.2670  174.6790  145.4940 C   0  0  0  0  0  2  0  0  0  0  0  0
  193.3170  176.3890  143.9020 C   0  0  0  0  0  2  0  0  0  0  0  0
  192.5650  175.0680  144.0430 C   0  0  2  0  0  3  0  0  0  0  0  0
  188.3710  177.6110  144.3000 O   0  0  0  0  0  0  0  0  0  0  0  0
  185.8790  177.8560  142.8090 C   0  0  0  0  0  0  0  0  0  0  0  0
  184.8580  177.8160  142.0720 O   0  0  0  0  0  0  0  0  0  0  0  0
  188.1900  176.8880  143.2820 C   0  0  0  0  0  0  0  0  0  0  0  0
  185.9370  178.7730  143.9060 N   0  0  0  0  0  2  0  0  0  0  0  0
  186.9740  176.9770  142.5280 N   0  0  0  0  0  2  0  0  0  0  0  0
  184.8280  179.6500  144.2590 C   0  0  0  0  0  2  0  0  0  0  0  0
  183.9890  179.0400  145.3760 C   0  0  0  0  0  2  0  0  0  0  0  0
  184.0700  178.6160  147.7020 F   0  0  0  0  0  0  0  0  0  0  0  0
  184.8410  178.5840  146.5570 C   0  0  0  0  0  0  0  0  0  0  0  0
  185.9220  179.4320  146.7190 F   0  0  0  0  0  0  0  0  0  0  0  0
  185.2920  177.2930  146.3550 F   0  0  0  0  0  0  0  0  0  0  0  0
  1 10  1  0  0  0  0
  3  6  1  0  0  0  0
  3  1  2  0  0  0  0
  4  9  1  0  0  0  0
  5  4  1  0  0  0  0
  5  8  1  0  0  0  0
  6  5  2  0  0  0  0
  7  2  1  0  0  0  0
  8  7  1  0  0  0  0
  9 21  1  0  0  0  0
  9  2  2  0  0  0  0
 10  8  2  0  0  0  0
 10 11  1  0  0  0  0
 12 13  2  0  0  0  0
 14 12  1  0  0  0  0
 15 13  1  0  0  0  0
 16 17  1  0  0  0  0
 16 14  1  0  0  0  0
 17  7  1  6  0  0  0
 17 15  1  0  0  0  0
 19 22  1  0  0  0  0
 20 19  2  0  0  0  0
 21 18  2  0  0  0  0
 22 24  1  0  0  0  0
 23 19  1  0  0  0  0
 23 21  1  0  0  0  0
 24 25  1  0  0  0  0
 25 27  1  0  0  0  0
 27 28  1  0  0  0  0
 27 26  1  0  0  0  0
 29 27  1  0  0  0  0
M  END
>  <MODEL>
7

>  <REMARK>
 VINA RESULT:      -6.7      4.866      8.228
  Name = 
  5 active torsions:
  status: ('A' for Active; 'I' for Inactive)
    1  A    between atoms: C_5  and  C_15
    2  A    between atoms: N_14  and  C_23
    3  A    between atoms: C_15  and  C_16
    4  A    between atoms: C_16  and  N_27
    5  A    between atoms: C_19  and  C_26
                            x       y       z     vdW  Elec       q    Type
                         _______ _______ _______ _____ _____    ______ ____

>  <TORSDO>
F 5

$$$$
=
 OpenBabel11062422453D

 29 31  0  0  1  0  0  0  0  0999 V2000
  183.8750  178.3640  141.3260 N   0  0  0  0  0  0  0  0  0  0  0  0
  188.0110  177.4970  143.7810 N   0  0  0  0  0  0  0  0  0  0  0  0
  184.5490  178.1990  140.1610 C   0  0  0  0  0  3  0  0  0  0  0  0
  187.9510  177.4780  141.4200 N   0  0  0  0  0  2  0  0  0  0  0  0
  186.5580  177.7780  141.4040 C   0  0  0  0  0  0  0  0  0  0  0  0
  185.9060  177.9030  140.1800 C   0  0  0  0  0  3  0  0  0  0  0  0
  186.6340  177.7920  143.8510 N   0  0  0  0  0  0  0  0  0  0  0  0
  185.8660  177.9450  142.6190 C   0  0  0  0  0  0  0  0  0  0  0  0
  188.6470  177.3460  142.6590 C   0  0  0  0  0  0  0  0  0  0  0  0
  184.4770  178.2500  142.5420 C   0  0  0  0  0  0  0  0  0  0  0  0
  183.6710  178.4480  143.6950 N   0  0  0  0  0  1  0  0  0  0  0  0
  185.8260  178.3290  148.0200 C   0  0  0  0  0  3  0  0  0  0  0  0
  185.8840  179.4130  147.2300 C   0  0  0  0  0  3  0  0  0  0  0  0
  185.9290  176.9250  147.4810 C   0  0  0  0  0  2  0  0  0  0  0  0
  186.1530  179.3420  145.7470 C   0  0  0  0  0  2  0  0  0  0  0  0
  186.7030  176.8760  146.1680 C   0  0  0  0  0  2  0  0  0  0  0  0
  186.1120  177.9070  145.2120 C   0  0  2  0  0  3  0  0  0  0  0  0
  190.9220  177.9630  142.8480 O   0  0  0  0  0  0  0  0  0  0  0  0
  191.8770  175.2420  142.4310 C   0  0  0  0  0  0  0  0  0  0  0  0
  192.1180  174.0260  142.2110 O   0  0  0  0  0  0  0  0  0  0  0  0
  190.0830  177.0390  142.6610 C   0  0  0  0  0  0  0  0  0  0  0  0
  192.9540  176.1550  142.6670 N   0  0  0  0  0  2  0  0  0  0  0  0
  190.5170  175.6900  142.4470 N   0  0  0  0  0  2  0  0  0  0  0  0
  194.3540  175.7550  142.6130 C   0  0  0  0  0  2  0  0  0  0  0  0
  194.9500  176.0540  141.2420 C   0  0  0  0  0  2  0  0  0  0  0  0
  196.3860  174.2970  140.5750 F   0  0  0  0  0  0  0  0  0  0  0  0
  196.3890  175.5670  141.1170 C   0  0  0  0  0  0  0  0  0  0  0  0
  196.9850  175.5210  142.3650 F   0  0  0  0  0  0  0  0  0  0  0  0
  197.1130  176.4060  140.2900 F   0  0  0  0  0  0  0  0  0  0  0  0
  1 10  1  0  0  0  0
  2  7  1  0  0  0  0
  3  6  1  0  0  0  0
  3  1  2  0  0  0  0
  4  9  1  0  0  0  0
  5  4  1  0  0  0  0
  5  8  1  0  0  0  0
  6  5  2  0  0  0  0
  8  7  1  0  0  0  0
  9 21  1  0  0  0  0
  9  2  2  0  0  0  0
 10  8  2  0  0  0  0
 10 11  1  0  0  0  0
 13 12  2  0  0  0  0
 14 12  1  0  0  0  0
 15 13  1  0  0  0  0
 16 14  1  0  0  0  0
 17  7  1  6  0  0  0
 17 15  1  0  0  0  0
 17 16  1  0  0  0  0
 19 23  1  0  0  0  0
 19 22  1  0  0  0  0
 20 19  2  0  0  0  0
 21 18  2  0  0  0  0
 23 21  1  0  0  0  0
 24 22  1  0  0  0  0
 25 24  1  0  0  0  0
 26 27  1  0  0  0  0
 27 25  1  0  0  0  0
 27 28  1  0  0  0  0
 29 27  1  0  0  0  0
M  END
>  <MODEL>
8

>  <REMARK>
 VINA RESULT:      -6.7      1.798      2.033
  Name = 
  5 active torsions:
  status: ('A' for Active; 'I' for Inactive)
    1  A    between atoms: C_5  and  C_15
    2  A    between atoms: N_14  and  C_23
    3  A    between atoms: C_15  and  C_16
    4  A    between atoms: C_16  and  N_27
    5  A    between atoms: C_19  and  C_26
                            x       y       z     vdW  Elec       q    Type
                         _______ _______ _______ _____ _____    ______ ____

>  <TORSDO>
F 5

$$$$
=
 OpenBabel11062422453D

 29 31  0  0  1  0  0  0  0  0999 V2000
  192.4160  172.1510  141.9760 N   0  0  0  0  0  0  0  0  0  0  0  0
  189.0140  175.4670  143.1220 N   0  0  0  0  0  0  0  0  0  0  0  0
  191.9200  172.0980  140.7160 C   0  0  0  0  0  3  0  0  0  0  0  0
  189.1480  174.5340  140.9560 N   0  0  0  0  0  2  0  0  0  0  0  0
  190.2660  173.7280  141.3180 C   0  0  0  0  0  0  0  0  0  0  0  0
  190.8330  172.8870  140.3640 C   0  0  0  0  0  3  0  0  0  0  0  0
  190.1170  174.7040  143.5590 N   0  0  0  0  0  0  0  0  0  0  0  0
  190.7760  173.7910  142.6290 C   0  0  0  0  0  0  0  0  0  0  0  0
  188.5440  175.4040  141.9130 C   0  0  0  0  0  0  0  0  0  0  0  0
  191.8900  172.9590  142.9370 C   0  0  0  0  0  0  0  0  0  0  0  0
  192.4910  172.9270  144.2240 N   0  0  0  0  0  1  0  0  0  0  0  0
  190.6240  175.8680  147.6460 C   0  0  0  0  0  3  0  0  0  0  0  0
  189.6830  174.9580  147.3480 C   0  0  0  0  0  3  0  0  0  0  0  0
  191.5780  176.4180  146.6170 C   0  0  0  0  0  2  0  0  0  0  0  0
  189.4230  174.4680  145.9440 C   0  0  0  0  0  2  0  0  0  0  0  0
  190.9950  176.3530  145.2100 C   0  0  0  0  0  2  0  0  0  0  0  0
  190.4930  174.9350  144.9530 C   0  0  2  0  0  3  0  0  0  0  0  0
  187.1880  176.4900  140.3090 O   0  0  0  0  0  0  0  0  0  0  0  0
  185.3470  177.5330  142.3130 C   0  0  0  0  0  0  0  0  0  0  0  0
  184.6710  177.9220  143.3020 O   0  0  0  0  0  0  0  0  0  0  0  0
  187.3920  176.2280  141.5260 C   0  0  0  0  0  0  0  0  0  0  0  0
  184.9480  177.8890  140.9850 N   0  0  0  0  0  2  0  0  0  0  0  0
  186.5110  176.7290  142.5400 N   0  0  0  0  0  2  0  0  0  0  0  0
  183.8010  178.7430  140.7100 C   0  0  0  0  0  2  0  0  0  0  0  0
  182.5280  177.9150  140.5770 C   0  0  0  0  0  2  0  0  0  0  0  0
  180.8240  179.5560  140.5610 F   0  0  0  0  0  0  0  0  0  0  0  0
  181.3530  178.5350  141.3260 C   0  0  0  0  0  0  0  0  0  0  0  0
  181.7810  179.0540  142.5350 F   0  0  0  0  0  0  0  0  0  0  0  0
  180.3710  177.5880  141.5510 F   0  0  0  0  0  0  0  0  0  0  0  0
  1 10  1  0  0  0  0
  2  7  1  0  0  0  0
  3  1  2  0  0  0  0
  4  5  1  0  0  0  0
  4  9  1  0  0  0  0
  5  8  1  0  0  0  0
  6  3  1  0  0  0  0
  6  5  2  0  0  0  0
  8 10  2  0  0  0  0
  8  7  1  0  0  0  0
  9  2  2  0  0  0  0
 10 11  1  0  0  0  0
 13 12  2  0  0  0  0
 14 12  1  0  0  0  0
 15 13  1  0  0  0  0
 16 14  1  0  0  0  0
 17  7  1  6  0  0  0
 17 16  1  0  0  0  0
 17 15  1  0  0  0  0
 18 21  2  0  0  0  0
 19 23  1  0  0  0  0
 19 20  2  0  0  0  0
 21  9  1  0  0  0  0
 21 23  1  0  0  0  0
 22 19  1  0  0  0  0
 24 22  1  0  0  0  0
 25 24  1  0  0  0  0
 25 27  1  0  0  0  0
 26 27  1  0  0  0  0
 27 29  1  0  0  0  0
 27 28  1  0  0  0  0
M  END
>  <MODEL>
9

>  <REMARK>
 VINA RESULT:      -6.7      5.899      8.858
  Name = 
  5 active torsions:
  status: ('A' for Active; 'I' for Inactive)
    1  A    between atoms: C_5  and  C_15
    2  A    between atoms: N_14  and  C_23
    3  A    between atoms: C_15  and  C_16
    4  A    between atoms: C_16  and  N_27
    5  A    between atoms: C_19  and  C_26
                            x       y       z     vdW  Elec       q    Type
                         _______ _______ _______ _____ _____    ______ ____

>  <TORSDO>
F 5

$$$$
