=
 OpenBabel11062418353D

 55 60  0  0  1  0  0  0  0  0999 V2000
  189.9290  173.4490  145.5220 C   0  0  0  0  0  3  0  0  0  0  0  0
  193.0500  174.4060  143.5430 C   0  0  0  0  0  2  0  0  0  0  0  0
  191.1310  173.4920  145.0150 C   0  0  0  0  0  0  0  0  0  0  0  0
  192.3370  173.5430  144.5280 C   0  0  0  0  0  0  0  0  0  0  0  0
  193.6400  172.8050  144.7840 C   0  0  0  0  0  0  0  0  0  0  0  0
  194.0030  171.8550  145.5230 O   0  0  0  0  0  0  0  0  0  0  0  0
  194.3000  173.7020  143.7930 C   0  0  2  0  0  0  0  0  0  0  0  0
  195.3250  174.5870  144.4890 C   0  0  0  0  0  1  0  0  0  0  0  0
  195.3780  173.8550  141.4640 C   0  0  0  0  0  0  0  0  0  0  0  0
  196.5640  174.6420  139.6830 C   0  0  2  0  0  3  0  0  0  0  0  0
  196.0540  173.4470  140.4180 C   0  0  0  0  0  0  0  0  0  0  0  0
  195.6200  170.9860  140.3710 C   0  0  0  0  0  3  0  0  0  0  0  0
  196.3730  172.0510  140.0700 C   0  0  0  0  0  3  0  0  0  0  0  0
  196.0690  175.8130  140.4220 N   0  0  0  0  0  0  0  0  0  0  0  0
  193.9690  171.8840  142.0270 C   0  0  0  0  0  3  0  0  0  0  0  0
  195.3640  175.2660  141.5080 N   0  0  0  0  0  0  0  0  0  0  0  0
  194.8790  172.9540  142.5660 C   0  0  2  0  0  3  0  0  0  0  0  0
  194.3300  171.0020  141.0940 C   0  0  0  0  0  3  0  0  0  0  0  0
  196.0680  174.6620  138.2350 C   0  0  1  0  0  3  0  0  0  0  0  0
  194.7020  175.1620  138.1570 N   0  0  0  0  0  2  0  0  0  0  0  0
  193.9140  174.1880  137.4180 C   0  0  0  0  0  2  0  0  0  0  0  0
  191.3160  173.6920  140.1140 C   0  0  0  0  0  3  0  0  0  0  0  0
  191.4540  173.8540  135.9930 F   0  0  0  0  0  0  0  0  0  0  0  0
  190.2160  173.6080  138.0130 C   0  0  0  0  0  3  0  0  0  0  0  0
  190.1850  173.5510  139.3730 N   0  0  0  0  0  0  0  0  0  0  0  0
  192.5450  173.9060  139.4890 C   0  0  0  0  0  3  0  0  0  0  0  0
  191.4280  173.8080  137.3470 C   0  0  0  0  0  0  0  0  0  0  0  0
  192.6020  173.9680  138.0930 C   0  0  0  0  0  0  0  0  0  0  0  0
  196.9850  175.5100  137.3660 C   0  0  0  0  0  2  0  0  0  0  0  0
  197.9090  175.7270  134.9740 C   0  0  0  0  0  2  0  0  0  0  0  0
  197.0620  174.9580  135.9510 C   0  0  0  0  0  0  0  0  0  0  0  0
  197.0540  173.5800  135.7590 O   0  0  0  0  0  1  0  0  0  0  0  0
  196.3870  175.7530  134.8630 C   0  0  0  0  0  2  0  0  0  0  0  0
  189.3210  174.6000  146.1170 N   0  0  0  0  0  2  0  0  0  0  0  0
  189.8290  175.9620  145.9670 C   0  0  2  0  0  3  0  0  0  0  0  0
  191.8150  176.6080  147.3120 C   0  0  0  0  0  2  0  0  0  0  0  0
  190.3020  176.5010  147.3130 C   0  0  0  0  0  3  0  0  0  0  0  0
  191.1410  175.4600  148.0270 C   0  0  0  0  0  2  0  0  0  0  0  0
  188.7640  176.8720  145.3460 C   0  0  2  0  0  3  0  0  0  0  0  0
  187.7020  177.2970  146.3550 C   0  0  0  0  0  2  0  0  0  0  0  0
  186.6310  176.3970  146.3380 O   0  0  0  0  0  0  0  0  0  0  0  0
  185.8920  178.3840  147.4130 C   0  0  0  0  0  1  0  0  0  0  0  0
  185.4950  177.1770  146.5850 C   0  0  1  0  0  3  0  0  0  0  0  0
  184.1980  178.7360  145.7100 C   0  0  0  0  0  1  0  0  0  0  0  0
  184.9430  177.6060  145.3770 O   0  0  0  0  0  0  0  0  0  0  0  0
  188.1210  176.1560  144.1560 C   0  0  0  0  0  2  0  0  0  0  0  0
  188.0910  176.9270  142.8080 C   0  0  2  0  0  0  0  0  0  0  0  0
  189.5260  178.6930  141.7550 F   0  0  0  0  0  0  0  0  0  0  0  0
  189.4420  177.5020  142.4060 C   0  0  0  0  0  0  0  0  0  0  0  0
  190.4690  176.8810  142.6400 O   0  0  0  0  0  0  0  0  0  0  0  0
  187.0600  177.9770  142.8280 N   0  0  0  0  0  2  0  0  0  0  0  0
  186.1130  177.8400  141.7280 C   0  0  0  0  0  1  0  0  0  0  0  0
  187.6270  175.7300  141.4970 S   0  0  0  0  0  0  0  0  0  0  0  0
  188.1960  174.2280  142.3550 C   0  0  0  0  0  2  0  0  0  0  0  0
  187.8180  173.1000  141.6310 O   0  0  0  0  0  1  0  0  0  0  0  0
  1 34  1  0  0  0  0
  2  7  1  0  0  0  0
  2  4  1  0  0  0  0
  3  1  2  0  0  0  0
  4  5  1  0  0  0  0
  4  3  2  0  0  0  0
  5  6  2  0  0  0  0
  7  8  1  1  0  0  0
  7  5  1  0  0  0  0
  9 16  1  0  0  0  0
  9 17  1  0  0  0  0
 10 19  1  6  0  0  0
 10 11  1  0  0  0  0
 10 14  1  0  0  0  0
 11  9  2  0  0  0  0
 12 18  1  0  0  0  0
 13 12  2  0  0  0  0
 13 11  1  0  0  0  0
 14 16  2  0  0  0  0
 17 15  1  6  0  0  0
 17  7  1  0  0  0  0
 18 15  2  0  0  0  0
 19 29  1  6  0  0  0
 20 19  1  0  0  0  0
 21 28  1  0  0  0  0
 21 20  1  0  0  0  0
 23 27  1  0  0  0  0
 24 25  1  0  0  0  0
 25 22  2  0  0  0  0
 26 22  1  0  0  0  0
 27 24  2  0  0  0  0
 27 28  1  0  0  0  0
 28 26  2  0  0  0  0
 30 31  1  0  0  0  0
 31 29  1  0  0  0  0
 32 31  1  0  0  0  0
 33 30  1  0  0  0  0
 33 31  1  0  0  0  0
 35 34  1  1  0  0  0
 35 37  1  0  0  0  0
 36 37  1  0  0  0  0
 36 38  1  0  0  0  0
 37 38  1  0  0  0  0
 39 46  1  6  0  0  0
 39 35  1  0  0  0  0
 39 40  1  0  0  0  0
 41 40  1  0  0  0  0
 41 43  1  0  0  0  0
 43 42  1  1  0  0  0
 45 44  1  0  0  0  0
 45 43  1  0  0  0  0
 47 51  1  0  0  0  0
 47 46  1  1  0  0  0
 48 49  1  0  0  0  0
 49 50  2  0  0  0  0
 49 47  1  0  0  0  0
 52 51  1  0  0  0  0
 53 54  1  0  0  0  0
 53 47  1  0  0  0  0
 55 54  1  0  0  0  0
M  END
>  <MODEL>
1

>  <REMARK>
 VINA RESULT:      -5.9      0.000      0.000
  Name = 
  21 active torsions:
  status: ('A' for Active; 'I' for Inactive)
    1  A    between atoms: C_6  and  C_43
    2  A    between atoms: N_7  and  C_34
    3  A    between atoms: C_8  and  S_46
    4  A    between atoms: C_9  and  N_13
    5  A    between atoms: C_10  and  C_12
    6  A    between atoms: C_10  and  N_13
    7  A    between atoms: C_10  and  C_22
    8  A    between atoms: C_22  and  C_38
    9  A    between atoms: C_22  and  C_39
   10  A    between atoms: C_23  and  C_34
   11  A    between atoms: C_31  and  N_32
   12  A    between atoms: C_31  and  C_50
   13  A    between atoms: N_32  and  C_43
   14  A    between atoms: C_33  and  O_41
   15  A    between atoms: C_33  and  O_45
   16  A    between atoms: C_34  and  C_39
   17  A    between atoms: C_34  and  S_46
   18  A    between atoms: C_37  and  C_42
   19  A    between atoms: C_38  and  O_45
   20  A    between atoms: C_42  and  C_43
   21  A    between atoms: C_48  and  C_51
                            x       y       z     vdW  Elec       q    Type
                         _______ _______ _______ _____ _____    ______ ____

>  <TORSDO>
F 21

$$$$
=
 OpenBabel11062418353D

 55 60  0  0  1  0  0  0  0  0999 V2000
  190.0040  173.2290  145.5570 C   0  0  0  0  0  3  0  0  0  0  0  0
  193.1830  174.1900  143.6730 C   0  0  0  0  0  2  0  0  0  0  0  0
  191.2240  173.2790  145.0920 C   0  0  0  0  0  0  0  0  0  0  0  0
  192.4450  173.3370  144.6480 C   0  0  0  0  0  0  0  0  0  0  0  0
  193.7480  172.6220  144.9650 C   0  0  0  0  0  0  0  0  0  0  0  0
  194.0960  171.6910  145.7360 O   0  0  0  0  0  0  0  0  0  0  0  0
  194.4320  173.5080  143.9810 C   0  0  2  0  0  0  0  0  0  0  0  0
  195.4190  174.4200  144.6960 C   0  0  0  0  0  1  0  0  0  0  0  0
  195.5720  173.6300  141.6810 C   0  0  0  0  0  0  0  0  0  0  0  0
  196.7890  174.4030  139.9140 C   0  0  2  0  0  3  0  0  0  0  0  0
  196.2880  173.2130  140.6650 C   0  0  0  0  0  0  0  0  0  0  0  0
  195.9170  170.7420  140.6690 C   0  0  0  0  0  3  0  0  0  0  0  0
  196.6520  171.8180  140.3630 C   0  0  0  0  0  3  0  0  0  0  0  0
  196.2440  175.5790  140.6080 N   0  0  0  0  0  0  0  0  0  0  0  0
  194.1970  171.6390  142.2540 C   0  0  0  0  0  3  0  0  0  0  0  0
  195.5220  175.0410  141.6870 N   0  0  0  0  0  0  0  0  0  0  0  0
  195.0640  172.7450  142.7910 C   0  0  2  0  0  3  0  0  0  0  0  0
  194.6080  170.7430  141.3550 C   0  0  0  0  0  3  0  0  0  0  0  0
  196.3350  174.3730  138.4530 C   0  0  1  0  0  3  0  0  0  0  0  0
  194.9130  174.6680  138.3410 N   0  0  0  0  0  2  0  0  0  0  0  0
  194.2510  173.4810  137.8230 C   0  0  0  0  0  2  0  0  0  0  0  0
  191.5630  173.6540  140.4700 C   0  0  0  0  0  3  0  0  0  0  0  0
  192.9760  170.9210  137.7200 F   0  0  0  0  0  0  0  0  0  0  0  0
  191.4520  171.5130  139.4530 C   0  0  0  0  0  3  0  0  0  0  0  0
  190.9990  172.4220  140.3590 N   0  0  0  0  0  0  0  0  0  0  0  0
  192.6270  174.0180  139.6430 C   0  0  0  0  0  3  0  0  0  0  0  0
  192.5230  171.8330  138.6130 C   0  0  0  0  0  0  0  0  0  0  0  0
  193.1100  173.1010  138.7050 C   0  0  0  0  0  0  0  0  0  0  0  0
  197.1400  175.3610  137.6210 C   0  0  0  0  0  2  0  0  0  0  0  0
  197.9410  175.8380  135.2230 C   0  0  0  0  0  2  0  0  0  0  0  0
  197.1710  174.9470  136.1580 C   0  0  0  0  0  0  0  0  0  0  0  0
  197.2050  173.5930  135.8360 O   0  0  0  0  0  1  0  0  0  0  0  0
  196.4150  175.8110  135.1810 C   0  0  0  0  0  2  0  0  0  0  0  0
  189.3600  174.3820  146.1060 N   0  0  0  0  0  2  0  0  0  0  0  0
  189.8650  175.7470  145.9630 C   0  0  2  0  0  3  0  0  0  0  0  0
  191.8270  176.4920  147.2900 C   0  0  0  0  0  2  0  0  0  0  0  0
  190.3250  176.2850  147.3130 C   0  0  0  0  0  3  0  0  0  0  0  0
  191.2420  175.2860  147.9890 C   0  0  0  0  0  2  0  0  0  0  0  0
  188.8020  176.6540  145.3330 C   0  0  2  0  0  3  0  0  0  0  0  0
  187.7660  177.1260  146.3490 C   0  0  0  0  0  2  0  0  0  0  0  0
  186.4810  176.7610  145.9340 O   0  0  0  0  0  0  0  0  0  0  0  0
  186.0740  178.7410  147.1840 C   0  0  0  0  0  1  0  0  0  0  0  0
  185.6180  177.3270  146.8790 C   0  0  1  0  0  3  0  0  0  0  0  0
  184.1410  178.6690  145.9320 C   0  0  0  0  0  1  0  0  0  0  0  0
  184.3170  177.3590  146.3740 O   0  0  0  0  0  0  0  0  0  0  0  0
  188.1260  175.9130  144.1790 C   0  0  0  0  0  2  0  0  0  0  0  0
  188.5300  176.3400  142.7410 C   0  0  2  0  0  0  0  0  0  0  0  0
  187.2310  178.4380  143.1860 F   0  0  0  0  0  0  0  0  0  0  0  0
  187.9140  177.6610  142.3040 C   0  0  0  0  0  0  0  0  0  0  0  0
  188.0040  178.0270  141.1400 O   0  0  0  0  0  0  0  0  0  0  0  0
  188.2230  175.2740  141.7730 N   0  0  0  0  0  2  0  0  0  0  0  0
  188.3050  173.9470  142.3700 C   0  0  0  0  0  1  0  0  0  0  0  0
  190.3480  176.5860  142.7250 S   0  0  0  0  0  0  0  0  0  0  0  0
  190.3480  178.2850  143.3800 C   0  0  0  0  0  2  0  0  0  0  0  0
  191.6530  178.6790  143.6670 O   0  0  0  0  0  1  0  0  0  0  0  0
  1 34  1  0  0  0  0
  2  7  1  0  0  0  0
  2  4  1  0  0  0  0
  3  1  2  0  0  0  0
  4  5  1  0  0  0  0
  4  3  2  0  0  0  0
  5  6  2  0  0  0  0
  7  8  1  1  0  0  0
  7  5  1  0  0  0  0
  9 16  1  0  0  0  0
  9 17  1  0  0  0  0
 10 19  1  6  0  0  0
 10 14  1  0  0  0  0
 10 11  1  0  0  0  0
 11  9  2  0  0  0  0
 12 18  1  0  0  0  0
 13 11  1  0  0  0  0
 13 12  2  0  0  0  0
 14 16  2  0  0  0  0
 17 15  1  6  0  0  0
 17  7  1  0  0  0  0
 18 15  2  0  0  0  0
 19 29  1  6  0  0  0
 20 19  1  0  0  0  0
 21 20  1  0  0  0  0
 21 28  1  0  0  0  0
 23 27  1  0  0  0  0
 24 25  2  0  0  0  0
 25 22  1  0  0  0  0
 26 22  2  0  0  0  0
 27 28  2  0  0  0  0
 27 24  1  0  0  0  0
 28 26  1  0  0  0  0
 30 31  1  0  0  0  0
 31 29  1  0  0  0  0
 32 31  1  0  0  0  0
 33 30  1  0  0  0  0
 33 31  1  0  0  0  0
 35 34  1  1  0  0  0
 35 37  1  0  0  0  0
 36 37  1  0  0  0  0
 36 38  1  0  0  0  0
 37 38  1  0  0  0  0
 39 46  1  6  0  0  0
 39 35  1  0  0  0  0
 39 40  1  0  0  0  0
 41 40  1  0  0  0  0
 41 43  1  0  0  0  0
 43 42  1  6  0  0  0
 44 45  1  0  0  0  0
 45 43  1  0  0  0  0
 47 46  1  1  0  0  0
 49 47  1  0  0  0  0
 49 48  1  0  0  0  0
 50 49  2  0  0  0  0
 51 52  1  0  0  0  0
 51 47  1  0  0  0  0
 53 47  1  0  0  0  0
 53 54  1  0  0  0  0
 54 55  1  0  0  0  0
M  END
>  <MODEL>
2

>  <REMARK>
 VINA RESULT:      -5.5      1.358      1.765
  Name = 
  21 active torsions:
  status: ('A' for Active; 'I' for Inactive)
    1  A    between atoms: C_6  and  C_43
    2  A    between atoms: N_7  and  C_34
    3  A    between atoms: C_8  and  S_46
    4  A    between atoms: C_9  and  N_13
    5  A    between atoms: C_10  and  C_12
    6  A    between atoms: C_10  and  N_13
    7  A    between atoms: C_10  and  C_22
    8  A    between atoms: C_22  and  C_38
    9  A    between atoms: C_22  and  C_39
   10  A    between atoms: C_23  and  C_34
   11  A    between atoms: C_31  and  N_32
   12  A    between atoms: C_31  and  C_50
   13  A    between atoms: N_32  and  C_43
   14  A    between atoms: C_33  and  O_41
   15  A    between atoms: C_33  and  O_45
   16  A    between atoms: C_34  and  C_39
   17  A    between atoms: C_34  and  S_46
   18  A    between atoms: C_37  and  C_42
   19  A    between atoms: C_38  and  O_45
   20  A    between atoms: C_42  and  C_43
   21  A    between atoms: C_48  and  C_51
                            x       y       z     vdW  Elec       q    Type
                         _______ _______ _______ _____ _____    ______ ____

>  <TORSDO>
F 21

$$$$
=
 OpenBabel11062418353D

 55 60  0  0  1  0  0  0  0  0999 V2000
  196.2710  174.3560  140.6570 C   0  0  0  0  0  3  0  0  0  0  0  0
  193.7880  173.3720  143.3860 C   0  0  0  0  0  2  0  0  0  0  0  0
  195.6950  174.1100  141.8030 C   0  0  0  0  0  0  0  0  0  0  0  0
  195.1310  173.8480  142.9470 C   0  0  0  0  0  0  0  0  0  0  0  0
  195.5880  173.8120  144.3950 C   0  0  0  0  0  0  0  0  0  0  0  0
  196.6580  174.0660  145.0060 O   0  0  0  0  0  0  0  0  0  0  0  0
  194.2280  173.3330  144.7740 C   0  0  2  0  0  0  0  0  0  0  0  0
  194.3050  171.9100  145.3080 C   0  0  0  0  0  1  0  0  0  0  0  0
  191.9710  174.2760  145.5640 C   0  0  0  0  0  0  0  0  0  0  0  0
  189.7440  174.4420  146.0240 C   0  0  2  0  0  3  0  0  0  0  0  0
  191.1300  174.8790  146.3680 C   0  0  1  0  0  3  0  0  0  0  0  0
  192.5670  176.5200  147.5870 C   0  0  0  0  0  3  0  0  0  0  0  0
  191.4750  175.7510  147.5050 C   0  0  0  0  0  3  0  0  0  0  0  0
  189.8810  173.5220  144.8850 N   0  0  0  0  0  2  0  0  0  0  0  0
  194.0030  175.7030  145.7040 C   0  0  0  0  0  3  0  0  0  0  0  0
  191.2660  173.4510  144.6600 N   0  0  0  0  0  0  0  0  0  0  0  0
  193.4700  174.2970  145.7210 C   0  0  2  0  0  3  0  0  0  0  0  0
  193.6240  176.6520  146.5620 C   0  0  0  0  0  3  0  0  0  0  0  0
  188.8560  175.6340  145.6590 C   0  0  1  0  0  3  0  0  0  0  0  0
  188.0520  176.0550  146.7990 N   0  0  0  0  0  2  0  0  0  0  0  0
  187.9740  177.5070  146.7760 C   0  0  0  0  0  2  0  0  0  0  0  0
  185.0880  178.7420  144.6760 C   0  0  0  0  0  3  0  0  0  0  0  0
  185.7650  177.6290  148.5920 F   0  0  0  0  0  0  0  0  0  0  0  0
  184.2910  178.3960  146.8840 C   0  0  0  0  0  3  0  0  0  0  0  0
  184.0830  178.7660  145.5910 N   0  0  0  0  0  0  0  0  0  0  0  0
  186.3680  178.3270  145.0480 C   0  0  0  0  0  3  0  0  0  0  0  0
  185.5610  177.9860  147.3010 C   0  0  0  0  0  0  0  0  0  0  0  0
  186.6060  177.9430  146.3700 C   0  0  0  0  0  0  0  0  0  0  0  0
  189.7000  176.7970  145.1580 C   0  0  0  0  0  2  0  0  0  0  0  0
  191.1440  176.7220  143.0300 C   0  0  0  0  0  2  0  0  0  0  0  0
  189.7710  176.8060  143.6390 C   0  0  0  0  0  0  0  0  0  0  0  0
  188.7690  176.1760  142.9090 O   0  0  0  0  0  1  0  0  0  0  0  0
  190.3580  178.0300  142.9840 C   0  0  0  0  0  2  0  0  0  0  0  0
  196.2860  173.3910  139.6010 N   0  0  0  0  0  2  0  0  0  0  0  0
  195.4150  173.4510  138.4280 C   0  0  2  0  0  3  0  0  0  0  0  0
  195.2320  174.9790  136.4790 C   0  0  0  0  0  2  0  0  0  0  0  0
  195.2110  174.8980  137.9930 C   0  0  0  0  0  3  0  0  0  0  0  0
  196.4430  175.4070  137.2740 C   0  0  0  0  0  2  0  0  0  0  0  0
  194.0770  172.7590  138.7110 C   0  0  2  0  0  3  0  0  0  0  0  0
  193.1070  173.6600  139.4710 C   0  0  0  0  0  2  0  0  0  0  0  0
  191.9220  173.8140  138.7450 O   0  0  0  0  0  0  0  0  0  0  0  0
  190.8080  173.7670  140.8440 C   0  0  0  0  0  1  0  0  0  0  0  0
  190.9510  173.1220  139.4790 C   0  0  1  0  0  3  0  0  0  0  0  0
  189.3250  171.8410  138.7100 C   0  0  0  0  0  1  0  0  0  0  0  0
  189.7270  173.1720  138.8130 O   0  0  0  0  0  0  0  0  0  0  0  0
  194.3320  171.4660  139.4880 C   0  0  0  0  0  2  0  0  0  0  0  0
  193.6070  170.1900  138.9810 C   0  0  2  0  0  0  0  0  0  0  0  0
  192.0290  170.6700  137.0910 F   0  0  0  0  0  0  0  0  0  0  0  0
  193.2530  170.2390  137.5010 C   0  0  0  0  0  0  0  0  0  0  0  0
  194.0590  169.8620  136.6620 O   0  0  0  0  0  0  0  0  0  0  0  0
  192.4150  169.9060  139.7960 N   0  0  0  0  0  2  0  0  0  0  0  0
  192.4580  168.5760  140.3910 C   0  0  0  0  0  1  0  0  0  0  0  0
  194.7600  168.7780  139.1890 S   0  0  0  0  0  0  0  0  0  0  0  0
  196.2720  169.7600  139.4400 C   0  0  0  0  0  2  0  0  0  0  0  0
  197.2870  168.9450  139.9350 O   0  0  0  0  0  1  0  0  0  0  0  0
  1  3  2  0  0  0  0
  2  7  1  0  0  0  0
  3  4  2  0  0  0  0
  4  2  1  0  0  0  0
  4  5  1  0  0  0  0
  5  7  1  0  0  0  0
  5  6  2  0  0  0  0
  7  8  1  1  0  0  0
  7 17  1  0  0  0  0
  9 17  1  0  0  0  0
  9 11  1  0  0  0  0
 10 19  1  6  0  0  0
 10 11  1  0  0  0  0
 11 13  1  1  0  0  0
 13 12  2  0  0  0  0
 14 10  1  0  0  0  0
 15 18  2  0  0  0  0
 16 14  1  0  0  0  0
 16  9  2  0  0  0  0
 17 15  1  6  0  0  0
 18 12  1  0  0  0  0
 19 29  1  1  0  0  0
 19 20  1  0  0  0  0
 21 20  1  0  0  0  0
 22 26  2  0  0  0  0
 22 25  1  0  0  0  0
 24 27  1  0  0  0  0
 25 24  2  0  0  0  0
 26 28  1  0  0  0  0
 27 23  1  0  0  0  0
 28 21  1  0  0  0  0
 28 27  2  0  0  0  0
 30 31  1  0  0  0  0
 31 29  1  0  0  0  0
 32 31  1  0  0  0  0
 33 30  1  0  0  0  0
 33 31  1  0  0  0  0
 34  1  1  0  0  0  0
 35 39  1  0  0  0  0
 35 34  1  1  0  0  0
 36 38  1  0  0  0  0
 36 37  1  0  0  0  0
 37 35  1  0  0  0  0
 38 37  1  0  0  0  0
 39 40  1  1  0  0  0
 39 46  1  0  0  0  0
 41 40  1  0  0  0  0
 41 43  1  0  0  0  0
 43 42  1  1  0  0  0
 44 45  1  0  0  0  0
 45 43  1  0  0  0  0
 47 53  1  0  0  0  0
 47 46  1  1  0  0  0
 47 51  1  0  0  0  0
 48 49  1  0  0  0  0
 49 47  1  0  0  0  0
 50 49  2  0  0  0  0
 51 52  1  0  0  0  0
 53 54  1  0  0  0  0
 54 55  1  0  0  0  0
M  END
>  <MODEL>
3

>  <REMARK>
 VINA RESULT:      -5.4      2.847      9.301
  Name = 
  21 active torsions:
  status: ('A' for Active; 'I' for Inactive)
    1  A    between atoms: C_6  and  C_43
    2  A    between atoms: N_7  and  C_34
    3  A    between atoms: C_8  and  S_46
    4  A    between atoms: C_9  and  N_13
    5  A    between atoms: C_10  and  C_12
    6  A    between atoms: C_10  and  N_13
    7  A    between atoms: C_10  and  C_22
    8  A    between atoms: C_22  and  C_38
    9  A    between atoms: C_22  and  C_39
   10  A    between atoms: C_23  and  C_34
   11  A    between atoms: C_31  and  N_32
   12  A    between atoms: C_31  and  C_50
   13  A    between atoms: N_32  and  C_43
   14  A    between atoms: C_33  and  O_41
   15  A    between atoms: C_33  and  O_45
   16  A    between atoms: C_34  and  C_39
   17  A    between atoms: C_34  and  S_46
   18  A    between atoms: C_37  and  C_42
   19  A    between atoms: C_38  and  O_45
   20  A    between atoms: C_42  and  C_43
   21  A    between atoms: C_48  and  C_51
                            x       y       z     vdW  Elec       q    Type
                         _______ _______ _______ _____ _____    ______ ____

>  <TORSDO>
F 21

$$$$
=
 OpenBabel11062418353D

 55 60  0  0  1  0  0  0  0  0999 V2000
  189.7260  173.2700  145.7910 C   0  0  0  0  0  3  0  0  0  0  0  0
  192.2060  174.0290  142.9900 C   0  0  0  0  0  2  0  0  0  0  0  0
  190.7510  173.2570  144.9820 C   0  0  0  0  0  0  0  0  0  0  0  0
  191.7840  173.2530  144.1910 C   0  0  0  0  0  0  0  0  0  0  0  0
  193.1130  172.5180  144.1500 C   0  0  0  0  0  0  0  0  0  0  0  0
  193.6650  171.6210  144.8380 O   0  0  0  0  0  0  0  0  0  0  0  0
  193.4820  173.3270  142.9540 C   0  0  2  0  0  0  0  0  0  0  0  0
  194.6490  174.2470  143.2840 C   0  0  0  0  0  1  0  0  0  0  0  0
  193.8920  173.2870  140.4160 C   0  0  0  0  0  0  0  0  0  0  0  0
  194.5450  173.9220  138.3260 C   0  0  2  0  0  3  0  0  0  0  0  0
  194.2680  172.7920  139.2620 C   0  0  0  0  0  0  0  0  0  0  0  0
  193.8700  170.3390  139.5260 C   0  0  0  0  0  3  0  0  0  0  0  0
  194.5010  171.3700  138.9520 C   0  0  0  0  0  3  0  0  0  0  0  0
  194.2520  175.1510  139.0770 N   0  0  0  0  0  0  0  0  0  0  0  0
  192.7130  171.3780  141.4900 C   0  0  0  0  0  3  0  0  0  0  0  0
  193.8710  174.6970  140.3510 N   0  0  0  0  0  0  0  0  0  0  0  0
  193.7200  172.4800  141.6780 C   0  0  2  0  0  3  0  0  0  0  0  0
  192.8220  170.4220  140.5650 C   0  0  0  0  0  3  0  0  0  0  0  0
  193.6790  173.8310  137.0680 C   0  0  1  0  0  3  0  0  0  0  0  0
  192.5780  174.7830  137.1210 N   0  0  0  0  0  2  0  0  0  0  0  0
  191.4560  174.2080  136.3970 C   0  0  0  0  0  2  0  0  0  0  0  0
  189.7810  172.4270  139.2760 C   0  0  0  0  0  3  0  0  0  0  0  0
  188.7060  174.9810  136.2180 F   0  0  0  0  0  0  0  0  0  0  0  0
  188.1280  173.6900  138.1350 C   0  0  0  0  0  3  0  0  0  0  0  0
  188.4950  172.8440  139.1360 N   0  0  0  0  0  0  0  0  0  0  0  0
  190.7640  172.8690  138.3890 C   0  0  0  0  0  3  0  0  0  0  0  0
  189.0790  174.1470  137.2180 C   0  0  0  0  0  0  0  0  0  0  0  0
  190.4120  173.7380  137.3530 C   0  0  0  0  0  0  0  0  0  0  0  0
  194.5170  174.0710  135.8210 C   0  0  0  0  0  2  0  0  0  0  0  0
  196.0890  175.8190  134.7750 C   0  0  0  0  0  2  0  0  0  0  0  0
  194.9760  175.5180  135.7410 C   0  0  0  0  0  0  0  0  0  0  0  0
  194.0400  176.5370  135.8880 O   0  0  0  0  0  1  0  0  0  0  0  0
  196.3480  175.8370  136.2790 C   0  0  0  0  0  2  0  0  0  0  0  0
  189.2900  174.4710  146.4350 N   0  0  0  0  0  2  0  0  0  0  0  0
  189.7340  175.8100  146.0530 C   0  0  2  0  0  3  0  0  0  0  0  0
  191.9620  176.3450  147.0100 C   0  0  0  0  0  2  0  0  0  0  0  0
  190.4650  176.4760  147.2130 C   0  0  0  0  0  3  0  0  0  0  0  0
  191.2530  175.4450  147.9950 C   0  0  0  0  0  2  0  0  0  0  0  0
  188.5480  176.6600  145.5800 C   0  0  2  0  0  3  0  0  0  0  0  0
  187.4760  176.8100  146.6560 C   0  0  0  0  0  2  0  0  0  0  0  0
  186.2170  176.9580  146.0660 O   0  0  0  0  0  0  0  0  0  0  0  0
  186.0690  178.8670  147.4740 C   0  0  0  0  0  1  0  0  0  0  0  0
  185.4230  177.5630  147.0470 C   0  0  1  0  0  3  0  0  0  0  0  0
  184.3770  178.6120  145.4090 C   0  0  0  0  0  1  0  0  0  0  0  0
  184.1510  177.8220  146.5350 O   0  0  0  0  0  0  0  0  0  0  0  0
  187.9570  176.0390  144.3140 C   0  0  0  0  0  2  0  0  0  0  0  0
  188.1130  176.8500  142.9980 C   0  0  2  0  0  0  0  0  0  0  0  0
  185.6890  176.7440  142.3630 F   0  0  0  0  0  0  0  0  0  0  0  0
  186.8160  177.4890  142.5200 C   0  0  0  0  0  0  0  0  0  0  0  0
  186.7820  178.6790  142.2440 O   0  0  0  0  0  0  0  0  0  0  0  0
  188.7090  176.0200  141.9390 N   0  0  0  0  0  2  0  0  0  0  0  0
  188.5420  174.5950  142.1960 C   0  0  0  0  0  1  0  0  0  0  0  0
  189.2760  178.2290  143.3320 S   0  0  0  0  0  0  0  0  0  0  0  0
  190.7930  177.3730  142.8040 C   0  0  0  0  0  2  0  0  0  0  0  0
  191.8310  177.6650  143.6860 O   0  0  0  0  0  1  0  0  0  0  0  0
  1 34  1  0  0  0  0
  2  4  1  0  0  0  0
  3  1  2  0  0  0  0
  4  3  2  0  0  0  0
  5  4  1  0  0  0  0
  5  6  2  0  0  0  0
  7  2  1  0  0  0  0
  7  8  1  1  0  0  0
  7  5  1  0  0  0  0
  9 17  1  0  0  0  0
 10 19  1  6  0  0  0
 10 14  1  0  0  0  0
 10 11  1  0  0  0  0
 11  9  2  0  0  0  0
 12 18  1  0  0  0  0
 13 11  1  0  0  0  0
 13 12  2  0  0  0  0
 14 16  2  0  0  0  0
 16  9  1  0  0  0  0
 17 15  1  6  0  0  0
 17  7  1  0  0  0  0
 18 15  2  0  0  0  0
 19 29  1  6  0  0  0
 19 20  1  0  0  0  0
 21 20  1  0  0  0  0
 21 28  1  0  0  0  0
 23 27  1  0  0  0  0
 24 25  2  0  0  0  0
 25 22  1  0  0  0  0
 26 22  2  0  0  0  0
 27 28  2  0  0  0  0
 27 24  1  0  0  0  0
 28 26  1  0  0  0  0
 30 31  1  0  0  0  0
 30 33  1  0  0  0  0
 31 29  1  0  0  0  0
 31 32  1  0  0  0  0
 31 33  1  0  0  0  0
 35 34  1  1  0  0  0
 35 37  1  0  0  0  0
 36 37  1  0  0  0  0
 36 38  1  0  0  0  0
 37 38  1  0  0  0  0
 39 46  1  6  0  0  0
 39 35  1  0  0  0  0
 39 40  1  0  0  0  0
 41 40  1  0  0  0  0
 41 43  1  0  0  0  0
 43 42  1  6  0  0  0
 44 45  1  0  0  0  0
 45 43  1  0  0  0  0
 47 53  1  0  0  0  0
 47 46  1  1  0  0  0
 48 49  1  0  0  0  0
 49 47  1  0  0  0  0
 50 49  2  0  0  0  0
 51 52  1  0  0  0  0
 51 47  1  0  0  0  0
 54 53  1  0  0  0  0
 54 55  1  0  0  0  0
M  END
>  <MODEL>
4

>  <REMARK>
 VINA RESULT:      -5.4      1.804      2.283
  Name = 
  21 active torsions:
  status: ('A' for Active; 'I' for Inactive)
    1  A    between atoms: C_6  and  C_43
    2  A    between atoms: N_7  and  C_34
    3  A    between atoms: C_8  and  S_46
    4  A    between atoms: C_9  and  N_13
    5  A    between atoms: C_10  and  C_12
    6  A    between atoms: C_10  and  N_13
    7  A    between atoms: C_10  and  C_22
    8  A    between atoms: C_22  and  C_38
    9  A    between atoms: C_22  and  C_39
   10  A    between atoms: C_23  and  C_34
   11  A    between atoms: C_31  and  N_32
   12  A    between atoms: C_31  and  C_50
   13  A    between atoms: N_32  and  C_43
   14  A    between atoms: C_33  and  O_41
   15  A    between atoms: C_33  and  O_45
   16  A    between atoms: C_34  and  C_39
   17  A    between atoms: C_34  and  S_46
   18  A    between atoms: C_37  and  C_42
   19  A    between atoms: C_38  and  O_45
   20  A    between atoms: C_42  and  C_43
   21  A    between atoms: C_48  and  C_51
                            x       y       z     vdW  Elec       q    Type
                         _______ _______ _______ _____ _____    ______ ____

>  <TORSDO>
F 21

$$$$
=
 OpenBabel11062418353D

 55 60  0  0  1  0  0  0  0  0999 V2000
  188.9840  175.5480  141.7780 C   0  0  0  0  0  3  0  0  0  0  0  0
  190.8720  172.2320  141.6680 C   0  0  0  0  0  2  0  0  0  0  0  0
  189.6670  174.5030  141.3960 C   0  0  0  0  0  0  0  0  0  0  0  0
  190.3300  173.4530  141.0070 C   0  0  0  0  0  0  0  0  0  0  0  0
  190.8050  172.9070  139.6710 C   0  0  0  0  0  0  0  0  0  0  0  0
  190.7650  173.2980  138.4760 O   0  0  0  0  0  0  0  0  0  0  0  0
  191.3230  171.7060  140.3870 C   0  0  2  0  0  0  0  0  0  0  0  0
  190.5390  170.4700  139.9700 C   0  0  0  0  0  1  0  0  0  0  0  0
  193.4710  170.6720  141.3480 C   0  0  0  0  0  0  0  0  0  0  0  0
  194.8780  169.2580  142.4520 C   0  0  2  0  0  3  0  0  0  0  0  0
  194.7110  170.2490  141.3480 C   0  0  0  0  0  0  0  0  0  0  0  0
  195.8320  171.7380  139.6830 C   0  0  0  0  0  3  0  0  0  0  0  0
  195.7530  170.5880  140.3620 C   0  0  0  0  0  3  0  0  0  0  0  0
  193.5720  169.1770  143.1240 N   0  0  0  0  0  0  0  0  0  0  0  0
  193.6070  172.8140  140.0920 C   0  0  0  0  0  3  0  0  0  0  0  0
  192.7520  170.0530  142.3940 N   0  0  0  0  0  0  0  0  0  0  0  0
  192.8560  171.5220  140.2650 C   0  0  2  0  0  3  0  0  0  0  0  0
  194.9050  172.8850  139.7920 C   0  0  0  0  0  3  0  0  0  0  0  0
  195.9700  169.6910  143.4320 C   0  0  1  0  0  3  0  0  0  0  0  0
  195.5730  170.8880  144.1620 N   0  0  0  0  0  2  0  0  0  0  0  0
  196.4130  171.9850  143.7080 C   0  0  0  0  0  2  0  0  0  0  0  0
  194.7040  175.3520  143.7630 C   0  0  0  0  0  3  0  0  0  0  0  0
  196.6780  172.8810  146.4130 F   0  0  0  0  0  0  0  0  0  0  0  0
  195.5030  174.9020  145.9510 C   0  0  0  0  0  3  0  0  0  0  0  0
  194.8590  175.7090  145.0650 N   0  0  0  0  0  0  0  0  0  0  0  0
  195.2040  174.1330  143.3030 C   0  0  0  0  0  3  0  0  0  0  0  0
  196.0290  173.6770  145.5300 C   0  0  0  0  0  0  0  0  0  0  0  0
  195.8700  173.2860  144.1950 C   0  0  0  0  0  0  0  0  0  0  0  0
  196.2920  168.5680  144.4070 C   0  0  0  0  0  2  0  0  0  0  0  0
  195.7080  168.2020  146.8860 C   0  0  0  0  0  2  0  0  0  0  0  0
  196.3340  169.0810  145.8380 C   0  0  0  0  0  0  0  0  0  0  0  0
  197.4420  169.8050  146.2680 O   0  0  0  0  0  1  0  0  0  0  0  0
  195.0250  169.4990  146.4590 C   0  0  0  0  0  2  0  0  0  0  0  0
  187.7610  175.4220  142.5100 N   0  0  0  0  0  2  0  0  0  0  0  0
  187.2610  176.4270  143.4460 C   0  0  2  0  0  3  0  0  0  0  0  0
  186.3080  178.6520  142.8900 C   0  0  0  0  0  2  0  0  0  0  0  0
  187.5800  177.8290  142.9380 C   0  0  0  0  0  3  0  0  0  0  0  0
  186.8830  178.0770  141.6160 C   0  0  0  0  0  2  0  0  0  0  0  0
  187.8390  176.1970  144.8470 C   0  0  2  0  0  3  0  0  0  0  0  0
  186.8070  176.4310  145.9470 C   0  0  0  0  0  2  0  0  0  0  0  0
  186.8400  177.7650  146.3640 O   0  0  0  0  0  0  0  0  0  0  0  0
  185.5290  179.4130  147.4670 C   0  0  0  0  0  1  0  0  0  0  0  0
  185.6580  177.9500  147.0910 C   0  0  1  0  0  3  0  0  0  0  0  0
  183.9890  178.7740  145.9030 C   0  0  0  0  0  1  0  0  0  0  0  0
  184.5600  177.5720  146.3170 O   0  0  0  0  0  0  0  0  0  0  0  0
  189.0540  177.1040  145.0470 C   0  0  0  0  0  2  0  0  0  0  0  0
  190.2310  176.5240  145.8780 C   0  0  2  0  0  0  0  0  0  0  0  0
  189.5550  178.1650  147.6490 F   0  0  0  0  0  0  0  0  0  0  0  0
  190.3470  177.1260  147.2710 C   0  0  0  0  0  0  0  0  0  0  0  0
  191.1770  176.6970  148.0590 O   0  0  0  0  0  0  0  0  0  0  0  0
  191.5020  176.6520  145.1450 N   0  0  0  0  0  2  0  0  0  0  0  0
  191.4120  177.6060  144.0470 C   0  0  0  0  0  1  0  0  0  0  0  0
  189.9140  174.7320  146.1130 S   0  0  0  0  0  0  0  0  0  0  0  0
  190.8650  174.1470  144.6750 C   0  0  0  0  0  2  0  0  0  0  0  0
  191.3630  172.8710  144.9270 O   0  0  0  0  0  1  0  0  0  0  0  0
  1 34  1  0  0  0  0
  3  1  2  0  0  0  0
  4  3  2  0  0  0  0
  4  2  1  0  0  0  0
  5  7  1  0  0  0  0
  5  4  1  0  0  0  0
  6  5  2  0  0  0  0
  7  8  1  6  0  0  0
  7  2  1  0  0  0  0
  9 11  2  0  0  0  0
  9 16  1  0  0  0  0
 10 14  1  0  0  0  0
 10 19  1  1  0  0  0
 11 10  1  0  0  0  0
 12 18  1  0  0  0  0
 12 13  2  0  0  0  0
 13 11  1  0  0  0  0
 16 14  2  0  0  0  0
 17 15  1  1  0  0  0
 17  7  1  0  0  0  0
 17  9  1  0  0  0  0
 18 15  2  0  0  0  0
 19 20  1  0  0  0  0
 19 29  1  1  0  0  0
 21 20  1  0  0  0  0
 21 28  1  0  0  0  0
 22 25  1  0  0  0  0
 25 24  2  0  0  0  0
 26 22  2  0  0  0  0
 26 28  1  0  0  0  0
 27 24  1  0  0  0  0
 27 23  1  0  0  0  0
 28 27  2  0  0  0  0
 29 31  1  0  0  0  0
 31 32  1  0  0  0  0
 31 33  1  0  0  0  0
 31 30  1  0  0  0  0
 33 30  1  0  0  0  0
 35 34  1  6  0  0  0
 35 39  1  0  0  0  0
 36 37  1  0  0  0  0
 37 35  1  0  0  0  0
 38 36  1  0  0  0  0
 38 37  1  0  0  0  0
 39 46  1  1  0  0  0
 39 40  1  0  0  0  0
 40 41  1  0  0  0  0
 41 43  1  0  0  0  0
 43 42  1  6  0  0  0
 44 45  1  0  0  0  0
 45 43  1  0  0  0  0
 47 46  1  6  0  0  0
 47 53  1  0  0  0  0
 47 49  1  0  0  0  0
 49 48  1  0  0  0  0
 49 50  2  0  0  0  0
 51 47  1  0  0  0  0
 52 51  1  0  0  0  0
 54 55  1  0  0  0  0
 54 53  1  0  0  0  0
M  END
>  <MODEL>
5

>  <REMARK>
 VINA RESULT:      -5.2      3.368      6.343
  Name = 
  21 active torsions:
  status: ('A' for Active; 'I' for Inactive)
    1  A    between atoms: C_6  and  C_43
    2  A    between atoms: N_7  and  C_34
    3  A    between atoms: C_8  and  S_46
    4  A    between atoms: C_9  and  N_13
    5  A    between atoms: C_10  and  C_12
    6  A    between atoms: C_10  and  N_13
    7  A    between atoms: C_10  and  C_22
    8  A    between atoms: C_22  and  C_38
    9  A    between atoms: C_22  and  C_39
   10  A    between atoms: C_23  and  C_34
   11  A    between atoms: C_31  and  N_32
   12  A    between atoms: C_31  and  C_50
   13  A    between atoms: N_32  and  C_43
   14  A    between atoms: C_33  and  O_41
   15  A    between atoms: C_33  and  O_45
   16  A    between atoms: C_34  and  C_39
   17  A    between atoms: C_34  and  S_46
   18  A    between atoms: C_37  and  C_42
   19  A    between atoms: C_38  and  O_45
   20  A    between atoms: C_42  and  C_43
   21  A    between atoms: C_48  and  C_51
                            x       y       z     vdW  Elec       q    Type
                         _______ _______ _______ _____ _____    ______ ____

>  <TORSDO>
F 21

$$$$
=
 OpenBabel11062418353D

 55 60  0  0  1  0  0  0  0  0999 V2000
  195.9220  174.5500  141.0090 C   0  0  0  0  0  3  0  0  0  0  0  0
  193.4700  173.5180  143.7480 C   0  0  0  0  0  2  0  0  0  0  0  0
  195.3430  174.3210  142.1580 C   0  0  0  0  0  0  0  0  0  0  0  0
  194.7790  174.0760  143.3050 C   0  0  0  0  0  0  0  0  0  0  0  0
  195.2080  174.1560  144.7600 C   0  0  0  0  0  0  0  0  0  0  0  0
  196.2410  174.5300  145.3730 O   0  0  0  0  0  0  0  0  0  0  0  0
  193.8830  173.5900  145.1430 C   0  0  2  0  0  0  0  0  0  0  0  0
  194.0630  172.2080  145.7570 C   0  0  0  0  0  1  0  0  0  0  0  0
  191.5910  174.6640  145.5930 C   0  0  0  0  0  0  0  0  0  0  0  0
  189.3350  174.9890  145.6530 C   0  0  2  0  0  3  0  0  0  0  0  0
  190.6590  175.2730  146.2840 C   0  0  1  0  0  3  0  0  0  0  0  0
  191.9540  176.6790  147.8930 C   0  0  0  0  0  3  0  0  0  0  0  0
  190.8440  176.0180  147.5410 C   0  0  0  0  0  3  0  0  0  0  0  0
  189.6190  174.1540  144.4760 N   0  0  0  0  0  2  0  0  0  0  0  0
  193.6580  175.8890  146.2360 C   0  0  0  0  0  3  0  0  0  0  0  0
  191.0130  173.9780  144.5030 N   0  0  0  0  0  0  0  0  0  0  0  0
  193.0310  174.5390  146.0230 C   0  0  2  0  0  3  0  0  0  0  0  0
  193.1930  176.7970  147.0950 C   0  0  0  0  0  3  0  0  0  0  0  0
  188.6210  176.2800  145.2460 C   0  0  1  0  0  3  0  0  0  0  0  0
  188.9100  176.6230  143.8600 N   0  0  0  0  0  2  0  0  0  0  0  0
  188.4320  177.9770  143.6280 C   0  0  0  0  0  2  0  0  0  0  0  0
  186.7210  177.3310  140.3240 C   0  0  0  0  0  3  0  0  0  0  0  0
  185.9210  179.3340  143.8420 F   0  0  0  0  0  0  0  0  0  0  0  0
  185.2660  178.6490  141.6560 C   0  0  0  0  0  3  0  0  0  0  0  0
  185.5450  177.9900  140.4990 N   0  0  0  0  0  0  0  0  0  0  0  0
  187.6760  177.3140  141.3420 C   0  0  0  0  0  3  0  0  0  0  0  0
  186.2000  178.6670  142.6960 C   0  0  0  0  0  0  0  0  0  0  0  0
  187.4130  177.9850  142.5390 C   0  0  0  0  0  0  0  0  0  0  0  0
  187.1190  176.1480  145.4500 C   0  0  0  0  0  2  0  0  0  0  0  0
  185.4250  177.6190  146.7100 C   0  0  0  0  0  2  0  0  0  0  0  0
  186.6850  176.7980  146.7540 C   0  0  0  0  0  0  0  0  0  0  0  0
  186.9010  176.1250  147.9530 O   0  0  0  0  0  1  0  0  0  0  0  0
  186.7860  178.2990  146.8440 C   0  0  0  0  0  2  0  0  0  0  0  0
  196.0350  173.5340  140.0080 N   0  0  0  0  0  2  0  0  0  0  0  0
  195.0700  173.3390  138.9280 C   0  0  2  0  0  3  0  0  0  0  0  0
  195.1020  174.5540  136.7620 C   0  0  0  0  0  2  0  0  0  0  0  0
  194.7730  174.6660  138.2380 C   0  0  0  0  0  3  0  0  0  0  0  0
  196.0510  175.2700  137.6950 C   0  0  0  0  0  2  0  0  0  0  0  0
  193.7890  172.6860  139.4580 C   0  0  2  0  0  3  0  0  0  0  0  0
  194.0040  171.2330  139.8700 C   0  0  0  0  0  2  0  0  0  0  0  0
  193.7900  171.0830  141.2440 O   0  0  0  0  0  0  0  0  0  0  0  0
  193.6600  168.8560  140.4240 C   0  0  0  0  0  1  0  0  0  0  0  0
  193.0780  169.8850  141.3740 C   0  0  1  0  0  3  0  0  0  0  0  0
  194.5450  169.3650  142.9410 C   0  0  0  0  0  1  0  0  0  0  0  0
  193.1760  169.4140  142.6830 O   0  0  0  0  0  0  0  0  0  0  0  0
  192.6940  172.7890  138.3950 C   0  0  0  0  0  2  0  0  0  0  0  0
  191.2250  172.7880  138.9000 C   0  0  2  0  0  0  0  0  0  0  0  0
  190.1550  170.8980  140.1540 F   0  0  0  0  0  0  0  0  0  0  0  0
  190.6070  171.3990  138.9730 C   0  0  0  0  0  0  0  0  0  0  0  0
  190.5360  170.7040  137.9690 O   0  0  0  0  0  0  0  0  0  0  0  0
  190.3920  173.6900  138.0880 N   0  0  0  0  0  2  0  0  0  0  0  0
  190.8250  173.7360  136.6960 C   0  0  0  0  0  1  0  0  0  0  0  0
  191.2290  173.4430  140.6140 S   0  0  0  0  0  0  0  0  0  0  0  0
  189.5590  174.1680  140.5790 C   0  0  0  0  0  2  0  0  0  0  0  0
  188.6670  173.3310  141.2450 O   0  0  0  0  0  1  0  0  0  0  0  0
  1  3  2  0  0  0  0
  2  7  1  0  0  0  0
  3  4  2  0  0  0  0
  4  2  1  0  0  0  0
  4  5  1  0  0  0  0
  5  7  1  0  0  0  0
  5  6  2  0  0  0  0
  7  8  1  1  0  0  0
  7 17  1  0  0  0  0
  9 17  1  0  0  0  0
  9 11  1  0  0  0  0
 10 19  1  6  0  0  0
 10 11  1  0  0  0  0
 11 13  1  1  0  0  0
 13 12  2  0  0  0  0
 14 16  1  0  0  0  0
 14 10  1  0  0  0  0
 15 18  2  0  0  0  0
 16  9  2  0  0  0  0
 17 15  1  6  0  0  0
 18 12  1  0  0  0  0
 19 29  1  6  0  0  0
 20 19  1  0  0  0  0
 21 20  1  0  0  0  0
 22 25  2  0  0  0  0
 22 26  1  0  0  0  0
 24 27  2  0  0  0  0
 25 24  1  0  0  0  0
 26 28  2  0  0  0  0
 27 23  1  0  0  0  0
 28 27  1  0  0  0  0
 28 21  1  0  0  0  0
 29 31  1  0  0  0  0
 30 31  1  0  0  0  0
 30 33  1  0  0  0  0
 31 33  1  0  0  0  0
 31 32  1  0  0  0  0
 34  1  1  0  0  0  0
 35 39  1  0  0  0  0
 35 34  1  1  0  0  0
 36 38  1  0  0  0  0
 36 37  1  0  0  0  0
 37 35  1  0  0  0  0
 38 37  1  0  0  0  0
 39 46  1  6  0  0  0
 39 40  1  0  0  0  0
 40 41  1  0  0  0  0
 41 43  1  0  0  0  0
 43 42  1  6  0  0  0
 43 45  1  0  0  0  0
 45 44  1  0  0  0  0
 47 46  1  6  0  0  0
 47 49  1  0  0  0  0
 47 53  1  0  0  0  0
 49 48  1  0  0  0  0
 50 49  2  0  0  0  0
 51 47  1  0  0  0  0
 52 51  1  0  0  0  0
 54 53  1  0  0  0  0
 54 55  1  0  0  0  0
M  END
>  <MODEL>
6

>  <REMARK>
 VINA RESULT:      -5.0      2.232      9.098
  Name = 
  21 active torsions:
  status: ('A' for Active; 'I' for Inactive)
    1  A    between atoms: C_6  and  C_43
    2  A    between atoms: N_7  and  C_34
    3  A    between atoms: C_8  and  S_46
    4  A    between atoms: C_9  and  N_13
    5  A    between atoms: C_10  and  C_12
    6  A    between atoms: C_10  and  N_13
    7  A    between atoms: C_10  and  C_22
    8  A    between atoms: C_22  and  C_38
    9  A    between atoms: C_22  and  C_39
   10  A    between atoms: C_23  and  C_34
   11  A    between atoms: C_31  and  N_32
   12  A    between atoms: C_31  and  C_50
   13  A    between atoms: N_32  and  C_43
   14  A    between atoms: C_33  and  O_41
   15  A    between atoms: C_33  and  O_45
   16  A    between atoms: C_34  and  C_39
   17  A    between atoms: C_34  and  S_46
   18  A    between atoms: C_37  and  C_42
   19  A    between atoms: C_38  and  O_45
   20  A    between atoms: C_42  and  C_43
   21  A    between atoms: C_48  and  C_51
                            x       y       z     vdW  Elec       q    Type
                         _______ _______ _______ _____ _____    ______ ____

>  <TORSDO>
F 21

$$$$
=
 OpenBabel11062418353D

 55 60  0  0  1  0  0  0  0  0999 V2000
  196.2600  173.8440  140.4750 C   0  0  0  0  0  3  0  0  0  0  0  0
  193.7800  173.0890  143.2790 C   0  0  0  0  0  2  0  0  0  0  0  0
  195.6890  173.6820  141.6390 C   0  0  0  0  0  0  0  0  0  0  0  0
  195.1300  173.5030  142.8010 C   0  0  0  0  0  0  0  0  0  0  0  0
  195.6010  173.5410  144.2450 C   0  0  0  0  0  0  0  0  0  0  0  0
  196.6830  173.8030  144.8300 O   0  0  0  0  0  0  0  0  0  0  0  0
  194.2330  173.1210  144.6630 C   0  0  2  0  0  0  0  0  0  0  0  0
  194.2790  171.7300  145.2800 C   0  0  0  0  0  1  0  0  0  0  0  0
  192.0080  174.1660  145.4160 C   0  0  0  0  0  0  0  0  0  0  0  0
  189.7910  174.4140  145.8870 C   0  0  2  0  0  3  0  0  0  0  0  0
  191.1910  174.8360  146.1910 C   0  0  1  0  0  3  0  0  0  0  0  0
  192.6810  176.5120  147.2930 C   0  0  0  0  0  3  0  0  0  0  0  0
  191.5700  175.7670  147.2690 C   0  0  0  0  0  3  0  0  0  0  0  0
  189.8930  173.4240  144.8050 N   0  0  0  0  0  2  0  0  0  0  0  0
  194.0760  175.5480  145.4490 C   0  0  0  0  0  3  0  0  0  0  0  0
  191.2730  173.3050  144.5710 N   0  0  0  0  0  0  0  0  0  0  0  0
  193.5090  174.1580  145.5570 C   0  0  2  0  0  3  0  0  0  0  0  0
  193.7290  176.5560  146.2520 C   0  0  0  0  0  3  0  0  0  0  0  0
  188.9280  175.6030  145.4600 C   0  0  1  0  0  3  0  0  0  0  0  0
  188.1260  176.0940  146.5730 N   0  0  0  0  0  2  0  0  0  0  0  0
  188.0450  177.5420  146.4590 C   0  0  0  0  0  2  0  0  0  0  0  0
  185.0130  178.7930  144.5870 C   0  0  0  0  0  3  0  0  0  0  0  0
  185.9410  177.5120  148.3990 F   0  0  0  0  0  0  0  0  0  0  0  0
  184.3530  178.3180  146.8160 C   0  0  0  0  0  3  0  0  0  0  0  0
  184.0620  178.7440  145.5570 N   0  0  0  0  0  0  0  0  0  0  0  0
  186.3230  178.3980  144.8660 C   0  0  0  0  0  3  0  0  0  0  0  0
  185.6550  177.9250  147.1410 C   0  0  0  0  0  0  0  0  0  0  0  0
  186.6460  177.9570  146.1520 C   0  0  0  0  0  0  0  0  0  0  0  0
  189.7960  176.7250  144.9080 C   0  0  0  0  0  2  0  0  0  0  0  0
  189.1010  177.7670  142.6610 C   0  0  0  0  0  2  0  0  0  0  0  0
  189.8450  176.6820  143.3890 C   0  0  0  0  0  0  0  0  0  0  0  0
  191.0070  176.2470  142.7590 O   0  0  0  0  0  1  0  0  0  0  0  0
  188.5670  176.3370  142.6680 C   0  0  0  0  0  2  0  0  0  0  0  0
  196.2400  172.8190  139.4780 N   0  0  0  0  0  2  0  0  0  0  0  0
  195.1700  171.8320  139.3420 C   0  0  2  0  0  3  0  0  0  0  0  0
  194.7700  169.5900  140.3330 C   0  0  0  0  0  2  0  0  0  0  0  0
  195.7280  170.4220  139.5020 C   0  0  0  0  0  3  0  0  0  0  0  0
  196.0290  170.1420  140.9610 C   0  0  0  0  0  2  0  0  0  0  0  0
  194.4490  171.9960  137.9990 C   0  0  2  0  0  3  0  0  0  0  0  0
  195.4130  172.2930  136.8540 C   0  0  0  0  0  2  0  0  0  0  0  0
  195.4030  171.2420  135.9310 O   0  0  0  0  0  0  0  0  0  0  0  0
  197.5840  172.1610  136.1560 C   0  0  0  0  0  1  0  0  0  0  0  0
  196.6730  171.2630  135.3420 C   0  0  1  0  0  3  0  0  0  0  0  0
  196.1810  169.1580  135.7960 C   0  0  0  0  0  1  0  0  0  0  0  0
  197.2030  169.9720  135.3110 O   0  0  0  0  0  0  0  0  0  0  0  0
  193.4020  173.1050  138.1230 C   0  0  0  0  0  2  0  0  0  0  0  0
  191.9670  172.7690  137.6320 C   0  0  2  0  0  0  0  0  0  0  0  0
  191.1980  171.5530  135.5780 F   0  0  0  0  0  0  0  0  0  0  0  0
  191.8620  172.6090  136.1220 C   0  0  0  0  0  0  0  0  0  0  0  0
  192.4010  173.4160  135.3790 O   0  0  0  0  0  0  0  0  0  0  0  0
  191.0000  173.7660  138.1210 N   0  0  0  0  0  2  0  0  0  0  0  0
  189.7810  173.7900  137.3210 C   0  0  0  0  0  1  0  0  0  0  0  0
  191.4970  171.1510  138.3580 S   0  0  0  0  0  0  0  0  0  0  0  0
  190.9730  171.7800  139.9850 C   0  0  0  0  0  2  0  0  0  0  0  0
  191.7410  171.1920  140.9870 O   0  0  0  0  0  1  0  0  0  0  0  0
  1  3  2  0  0  0  0
  2  7  1  0  0  0  0
  3  4  2  0  0  0  0
  4  2  1  0  0  0  0
  4  5  1  0  0  0  0
  5  7  1  0  0  0  0
  5  6  2  0  0  0  0
  7  8  1  1  0  0  0
  7 17  1  0  0  0  0
  9 17  1  0  0  0  0
  9 11  1  0  0  0  0
 10 19  1  6  0  0  0
 10 11  1  0  0  0  0
 11 13  1  1  0  0  0
 13 12  2  0  0  0  0
 14 10  1  0  0  0  0
 15 18  2  0  0  0  0
 16 14  1  0  0  0  0
 16  9  2  0  0  0  0
 17 15  1  6  0  0  0
 18 12  1  0  0  0  0
 19 29  1  1  0  0  0
 19 20  1  0  0  0  0
 21 20  1  0  0  0  0
 22 26  2  0  0  0  0
 22 25  1  0  0  0  0
 24 27  1  0  0  0  0
 25 24  2  0  0  0  0
 26 28  1  0  0  0  0
 27 23  1  0  0  0  0
 28 21  1  0  0  0  0
 28 27  2  0  0  0  0
 30 33  1  0  0  0  0
 30 31  1  0  0  0  0
 31 29  1  0  0  0  0
 32 31  1  0  0  0  0
 33 31  1  0  0  0  0
 34  1  1  0  0  0  0
 35 34  1  6  0  0  0
 35 37  1  0  0  0  0
 36 38  1  0  0  0  0
 37 36  1  0  0  0  0
 37 38  1  0  0  0  0
 39 40  1  6  0  0  0
 39 46  1  0  0  0  0
 39 35  1  0  0  0  0
 41 40  1  0  0  0  0
 43 41  1  0  0  0  0
 43 42  1  1  0  0  0
 45 43  1  0  0  0  0
 45 44  1  0  0  0  0
 47 51  1  0  0  0  0
 47 46  1  1  0  0  0
 47 53  1  0  0  0  0
 48 49  1  0  0  0  0
 49 47  1  0  0  0  0
 50 49  2  0  0  0  0
 52 51  1  0  0  0  0
 53 54  1  0  0  0  0
 54 55  1  0  0  0  0
M  END
>  <MODEL>
7

>  <REMARK>
 VINA RESULT:      -5.0      2.682      9.786
  Name = 
  21 active torsions:
  status: ('A' for Active; 'I' for Inactive)
    1  A    between atoms: C_6  and  C_43
    2  A    between atoms: N_7  and  C_34
    3  A    between atoms: C_8  and  S_46
    4  A    between atoms: C_9  and  N_13
    5  A    between atoms: C_10  and  C_12
    6  A    between atoms: C_10  and  N_13
    7  A    between atoms: C_10  and  C_22
    8  A    between atoms: C_22  and  C_38
    9  A    between atoms: C_22  and  C_39
   10  A    between atoms: C_23  and  C_34
   11  A    between atoms: C_31  and  N_32
   12  A    between atoms: C_31  and  C_50
   13  A    between atoms: N_32  and  C_43
   14  A    between atoms: C_33  and  O_41
   15  A    between atoms: C_33  and  O_45
   16  A    between atoms: C_34  and  C_39
   17  A    between atoms: C_34  and  S_46
   18  A    between atoms: C_37  and  C_42
   19  A    between atoms: C_38  and  O_45
   20  A    between atoms: C_42  and  C_43
   21  A    between atoms: C_48  and  C_51
                            x       y       z     vdW  Elec       q    Type
                         _______ _______ _______ _____ _____    ______ ____

>  <TORSDO>
F 21

$$$$
=
 OpenBabel11062418353D

 55 60  0  0  1  0  0  0  0  0999 V2000
  189.8860  173.3450  145.4990 C   0  0  0  0  0  3  0  0  0  0  0  0
  192.5690  174.1240  142.8970 C   0  0  0  0  0  2  0  0  0  0  0  0
  190.9890  173.3730  144.8000 C   0  0  0  0  0  0  0  0  0  0  0  0
  192.0980  173.4130  144.1190 C   0  0  0  0  0  0  0  0  0  0  0  0
  193.4880  172.8240  144.2800 C   0  0  0  0  0  0  0  0  0  0  0  0
  194.0470  172.0530  145.1020 O   0  0  0  0  0  0  0  0  0  0  0  0
  193.9040  173.5630  143.0540 C   0  0  2  0  0  0  0  0  0  0  0  0
  194.9320  174.6280  143.4090 C   0  0  0  0  0  1  0  0  0  0  0  0
  195.0550  173.3560  140.7650 C   0  0  0  0  0  0  0  0  0  0  0  0
  196.4210  173.7850  138.9900 C   0  0  2  0  0  3  0  0  0  0  0  0
  195.6680  172.7590  139.7720 C   0  0  0  0  0  0  0  0  0  0  0  0
  194.7650  170.4300  139.8490 C   0  0  0  0  0  3  0  0  0  0  0  0
  195.7190  171.3080  139.5180 C   0  0  0  0  0  3  0  0  0  0  0  0
  196.1430  175.0740  139.6410 N   0  0  0  0  0  0  0  0  0  0  0  0
  193.2750  171.7340  141.3840 C   0  0  0  0  0  3  0  0  0  0  0  0
  195.3150  174.7430  140.7270 N   0  0  0  0  0  0  0  0  0  0  0  0
  194.3600  172.6410  141.8960 C   0  0  2  0  0  3  0  0  0  0  0  0
  193.4840  170.7400  140.5180 C   0  0  0  0  0  3  0  0  0  0  0  0
  195.9790  173.8060  137.5250 C   0  0  1  0  0  3  0  0  0  0  0  0
  195.0630  174.9100  137.2710 N   0  0  0  0  0  2  0  0  0  0  0  0
  194.8470  174.9880  135.8350 C   0  0  0  0  0  2  0  0  0  0  0  0
  195.8220  178.3900  134.5170 C   0  0  0  0  0  3  0  0  0  0  0  0
  192.4390  176.5280  135.9710 F   0  0  0  0  0  0  0  0  0  0  0  0
  193.5160  178.4540  135.0730 C   0  0  0  0  0  3  0  0  0  0  0  0
  194.6410  179.0570  134.6000 N   0  0  0  0  0  0  0  0  0  0  0  0
  195.9050  177.0540  134.9130 C   0  0  0  0  0  3  0  0  0  0  0  0
  193.5590  177.1200  135.4920 C   0  0  0  0  0  0  0  0  0  0  0  0
  194.7640  176.4120  135.4020 C   0  0  0  0  0  0  0  0  0  0  0  0
  197.1850  173.9060  136.6030 C   0  0  0  0  0  2  0  0  0  0  0  0
  196.2650  171.6060  135.9080 C   0  0  0  0  0  2  0  0  0  0  0  0
  197.3530  172.6370  135.7820 C   0  0  0  0  0  0  0  0  0  0  0  0
  197.9390  172.7160  134.5220 O   0  0  0  0  0  1  0  0  0  0  0  0
  197.6360  171.3620  136.5340 C   0  0  0  0  0  2  0  0  0  0  0  0
  189.2670  174.5430  145.9770 N   0  0  0  0  0  2  0  0  0  0  0  0
  189.9220  175.8490  145.9960 C   0  0  2  0  0  3  0  0  0  0  0  0
  191.7860  176.7190  147.3880 C   0  0  0  0  0  2  0  0  0  0  0  0
  190.3610  176.2010  147.4130 C   0  0  0  0  0  3  0  0  0  0  0  0
  191.5050  175.3050  147.8430 C   0  0  0  0  0  2  0  0  0  0  0  0
  188.9980  176.9260  145.4160 C   0  0  2  0  0  3  0  0  0  0  0  0
  187.8460  177.2720  146.3560 C   0  0  0  0  0  2  0  0  0  0  0  0
  186.6300  177.2230  145.6670 O   0  0  0  0  0  0  0  0  0  0  0  0
  186.4600  178.5110  147.6580 C   0  0  0  0  0  1  0  0  0  0  0  0
  185.7140  177.8800  146.4970 C   0  0  1  0  0  3  0  0  0  0  0  0
  183.7010  178.6810  146.0680 C   0  0  0  0  0  1  0  0  0  0  0  0
  185.0510  178.8750  145.7780 O   0  0  0  0  0  0  0  0  0  0  0  0
  188.4650  176.4560  144.0610 C   0  0  0  0  0  2  0  0  0  0  0  0
  189.1590  177.0340  142.7970 C   0  0  2  0  0  0  0  0  0  0  0  0
  191.6560  176.8110  142.7290 F   0  0  0  0  0  0  0  0  0  0  0  0
  190.5660  177.5530  143.0590 C   0  0  0  0  0  0  0  0  0  0  0  0
  190.7300  178.6380  143.6000 O   0  0  0  0  0  0  0  0  0  0  0  0
  188.3260  178.0720  142.1710 N   0  0  0  0  0  2  0  0  0  0  0  0
  186.9790  177.5960  141.8770 C   0  0  0  0  0  1  0  0  0  0  0  0
  189.3310  175.6660  141.5860 S   0  0  0  0  0  0  0  0  0  0  0  0
  188.2560  174.4730  142.4430 C   0  0  0  0  0  2  0  0  0  0  0  0
  188.6980  173.1760  142.1920 O   0  0  0  0  0  1  0  0  0  0  0  0
  1 34  1  0  0  0  0
  2  7  1  0  0  0  0
  2  4  1  0  0  0  0
  3  1  2  0  0  0  0
  4  5  1  0  0  0  0
  4  3  2  0  0  0  0
  5  6  2  0  0  0  0
  7  8  1  1  0  0  0
  7  5  1  0  0  0  0
  9 17  1  0  0  0  0
 10 19  1  6  0  0  0
 10 14  1  0  0  0  0
 10 11  1  0  0  0  0
 11  9  2  0  0  0  0
 12 18  1  0  0  0  0
 13 11  1  0  0  0  0
 13 12  2  0  0  0  0
 14 16  2  0  0  0  0
 16  9  1  0  0  0  0
 17 15  1  6  0  0  0
 17  7  1  0  0  0  0
 18 15  2  0  0  0  0
 19 29  1  6  0  0  0
 20 19  1  0  0  0  0
 21 20  1  0  0  0  0
 22 25  2  0  0  0  0
 22 26  1  0  0  0  0
 24 27  2  0  0  0  0
 25 24  1  0  0  0  0
 26 28  2  0  0  0  0
 27 23  1  0  0  0  0
 28 27  1  0  0  0  0
 28 21  1  0  0  0  0
 30 33  1  0  0  0  0
 31 30  1  0  0  0  0
 31 33  1  0  0  0  0
 31 29  1  0  0  0  0
 32 31  1  0  0  0  0
 35 34  1  1  0  0  0
 35 37  1  0  0  0  0
 36 37  1  0  0  0  0
 36 38  1  0  0  0  0
 37 38  1  0  0  0  0
 39 46  1  6  0  0  0
 39 35  1  0  0  0  0
 39 40  1  0  0  0  0
 41 40  1  0  0  0  0
 41 43  1  0  0  0  0
 43 42  1  1  0  0  0
 45 44  1  0  0  0  0
 45 43  1  0  0  0  0
 47 49  1  0  0  0  0
 47 46  1  1  0  0  0
 48 49  1  0  0  0  0
 49 50  2  0  0  0  0
 51 47  1  0  0  0  0
 52 51  1  0  0  0  0
 53 54  1  0  0  0  0
 53 47  1  0  0  0  0
 55 54  1  0  0  0  0
M  END
>  <MODEL>
8

>  <REMARK>
 VINA RESULT:      -4.8      1.746      2.632
  Name = 
  21 active torsions:
  status: ('A' for Active; 'I' for Inactive)
    1  A    between atoms: C_6  and  C_43
    2  A    between atoms: N_7  and  C_34
    3  A    between atoms: C_8  and  S_46
    4  A    between atoms: C_9  and  N_13
    5  A    between atoms: C_10  and  C_12
    6  A    between atoms: C_10  and  N_13
    7  A    between atoms: C_10  and  C_22
    8  A    between atoms: C_22  and  C_38
    9  A    between atoms: C_22  and  C_39
   10  A    between atoms: C_23  and  C_34
   11  A    between atoms: C_31  and  N_32
   12  A    between atoms: C_31  and  C_50
   13  A    between atoms: N_32  and  C_43
   14  A    between atoms: C_33  and  O_41
   15  A    between atoms: C_33  and  O_45
   16  A    between atoms: C_34  and  C_39
   17  A    between atoms: C_34  and  S_46
   18  A    between atoms: C_37  and  C_42
   19  A    between atoms: C_38  and  O_45
   20  A    between atoms: C_42  and  C_43
   21  A    between atoms: C_48  and  C_51
                            x       y       z     vdW  Elec       q    Type
                         _______ _______ _______ _____ _____    ______ ____

>  <TORSDO>
F 21

$$$$
=
 OpenBabel11062418353D

 55 60  0  0  1  0  0  0  0  0999 V2000
  189.3200  172.4410  144.0240 C   0  0  0  0  0  3  0  0  0  0  0  0
  192.2240  172.1200  141.5670 C   0  0  0  0  0  2  0  0  0  0  0  0
  190.2080  171.9890  143.1800 C   0  0  0  0  0  0  0  0  0  0  0  0
  191.1040  171.5310  142.3540 C   0  0  0  0  0  0  0  0  0  0  0  0
  191.5070  170.1560  141.8490 C   0  0  0  0  0  0  0  0  0  0  0  0
  191.0900  168.9810  142.0140 O   0  0  0  0  0  0  0  0  0  0  0  0
  192.6140  170.8010  141.0870 C   0  0  2  0  0  0  0  0  0  0  0  0
  193.9600  170.3640  141.6480 C   0  0  0  0  0  1  0  0  0  0  0  0
  193.4690  171.4520  138.7510 C   0  0  0  0  0  0  0  0  0  0  0  0
  194.8450  172.1650  137.0790 C   0  0  2  0  0  3  0  0  0  0  0  0
  193.6680  171.3300  137.4620 C   0  0  0  0  0  0  0  0  0  0  0  0
  191.6690  170.0450  136.6860 C   0  0  0  0  0  3  0  0  0  0  0  0
  192.9420  170.4350  136.5440 C   0  0  0  0  0  3  0  0  0  0  0  0
  195.2950  172.8220  138.3150 N   0  0  0  0  0  0  0  0  0  0  0  0
  191.1030  170.7370  139.0260 C   0  0  0  0  0  3  0  0  0  0  0  0
  194.4230  172.3340  139.3040 N   0  0  0  0  0  0  0  0  0  0  0  0
  192.5070  170.6120  139.5530 C   0  0  2  0  0  3  0  0  0  0  0  0
  190.7500  170.4390  137.7740 C   0  0  0  0  0  3  0  0  0  0  0  0
  194.4730  173.2010  136.0150 C   0  0  1  0  0  3  0  0  0  0  0  0
  193.0300  173.2660  135.8310 N   0  0  0  0  0  2  0  0  0  0  0  0
  192.5960  174.6080  136.1860 C   0  0  0  0  0  2  0  0  0  0  0  0
  189.0180  175.3100  135.2030 C   0  0  0  0  0  3  0  0  0  0  0  0
  191.0430  173.6440  138.3890 F   0  0  0  0  0  0  0  0  0  0  0  0
  189.0000  174.2660  137.3330 C   0  0  0  0  0  3  0  0  0  0  0  0
  188.3450  174.8230  136.2780 N   0  0  0  0  0  0  0  0  0  0  0  0
  190.4120  175.2430  135.1560 C   0  0  0  0  0  3  0  0  0  0  0  0
  190.3960  174.1900  137.3320 C   0  0  0  0  0  0  0  0  0  0  0  0
  191.1070  174.6760  136.2270 C   0  0  0  0  0  0  0  0  0  0  0  0
  195.0140  174.5730  136.3900 C   0  0  0  0  0  2  0  0  0  0  0  0
  197.3390  175.6620  136.2270 C   0  0  0  0  0  2  0  0  0  0  0  0
  196.2160  174.9390  135.5350 C   0  0  0  0  0  0  0  0  0  0  0  0
  196.6160  174.0750  134.5200 O   0  0  0  0  0  1  0  0  0  0  0  0
  196.4350  176.4020  135.2440 C   0  0  0  0  0  2  0  0  0  0  0  0
  189.6950  173.2130  145.1690 N   0  0  0  0  0  2  0  0  0  0  0  0
  190.1710  174.5940  145.1030 C   0  0  2  0  0  3  0  0  0  0  0  0
  190.2830  176.0240  147.1300 C   0  0  0  0  0  2  0  0  0  0  0  0
  189.3680  175.4770  146.0510 C   0  0  0  0  0  3  0  0  0  0  0  0
  189.3540  174.8730  147.4410 C   0  0  0  0  0  2  0  0  0  0  0  0
  190.1080  175.1200  143.6640 C   0  0  2  0  0  3  0  0  0  0  0  0
  191.4820  175.5120  143.1280 C   0  0  0  0  0  2  0  0  0  0  0  0
  192.4880  174.9190  143.8990 O   0  0  0  0  0  0  0  0  0  0  0  0
  193.3110  176.7590  145.1580 C   0  0  0  0  0  1  0  0  0  0  0  0
  193.5170  175.8670  143.9480 C   0  0  1  0  0  3  0  0  0  0  0  0
  195.0320  175.2150  145.4170 C   0  0  0  0  0  1  0  0  0  0  0  0
  194.7510  175.2250  144.0520 O   0  0  0  0  0  0  0  0  0  0  0  0
  189.1470  176.3080  143.6040 C   0  0  0  0  0  2  0  0  0  0  0  0
  188.0390  176.2580  142.5170 C   0  0  2  0  0  0  0  0  0  0  0  0
  188.8610  174.6230  140.8020 F   0  0  0  0  0  0  0  0  0  0  0  0
  187.9680  174.9270  141.7820 C   0  0  0  0  0  0  0  0  0  0  0  0
  187.0840  174.1240  142.0460 O   0  0  0  0  0  0  0  0  0  0  0  0
  188.1850  177.3730  141.5670 N   0  0  0  0  0  2  0  0  0  0  0  0
  187.0720  177.4470  140.6280 C   0  0  0  0  0  1  0  0  0  0  0  0
  186.4240  176.4690  143.3620 S   0  0  0  0  0  0  0  0  0  0  0  0
  186.8810  177.9240  144.3560 C   0  0  0  0  0  2  0  0  0  0  0  0
  185.9540  178.1060  145.3790 O   0  0  0  0  0  1  0  0  0  0  0  0
  1 34  1  0  0  0  0
  2  4  1  0  0  0  0
  3  1  2  0  0  0  0
  4  3  2  0  0  0  0
  5  6  2  0  0  0  0
  5  4  1  0  0  0  0
  7  2  1  0  0  0  0
  7  8  1  1  0  0  0
  7  5  1  0  0  0  0
  9 16  1  0  0  0  0
  9 17  1  0  0  0  0
 10 19  1  6  0  0  0
 10 11  1  0  0  0  0
 10 14  1  0  0  0  0
 11  9  2  0  0  0  0
 12 18  1  0  0  0  0
 13 12  2  0  0  0  0
 13 11  1  0  0  0  0
 14 16  2  0  0  0  0
 17 15  1  6  0  0  0
 17  7  1  0  0  0  0
 18 15  2  0  0  0  0
 19 29  1  1  0  0  0
 20 19  1  0  0  0  0
 20 21  1  0  0  0  0
 21 28  1  0  0  0  0
 22 25  1  0  0  0  0
 25 24  2  0  0  0  0
 26 22  2  0  0  0  0
 26 28  1  0  0  0  0
 27 24  1  0  0  0  0
 27 23  1  0  0  0  0
 28 27  2  0  0  0  0
 31 30  1  0  0  0  0
 31 29  1  0  0  0  0
 32 31  1  0  0  0  0
 33 31  1  0  0  0  0
 33 30  1  0  0  0  0
 35 34  1  6  0  0  0
 35 37  1  0  0  0  0
 36 38  1  0  0  0  0
 37 36  1  0  0  0  0
 37 38  1  0  0  0  0
 39 40  1  1  0  0  0
 39 35  1  0  0  0  0
 40 41  1  0  0  0  0
 41 43  1  0  0  0  0
 43 45  1  0  0  0  0
 43 42  1  1  0  0  0
 45 44  1  0  0  0  0
 46 39  1  0  0  0  0
 47 53  1  0  0  0  0
 47 46  1  1  0  0  0
 48 49  1  0  0  0  0
 49 50  2  0  0  0  0
 49 47  1  0  0  0  0
 51 47  1  0  0  0  0
 52 51  1  0  0  0  0
 53 54  1  0  0  0  0
 54 55  1  0  0  0  0
M  END
>  <MODEL>
9

>  <REMARK>
 VINA RESULT:      -4.8      2.394      4.334
  Name = 
  21 active torsions:
  status: ('A' for Active; 'I' for Inactive)
    1  A    between atoms: C_6  and  C_43
    2  A    between atoms: N_7  and  C_34
    3  A    between atoms: C_8  and  S_46
    4  A    between atoms: C_9  and  N_13
    5  A    between atoms: C_10  and  C_12
    6  A    between atoms: C_10  and  N_13
    7  A    between atoms: C_10  and  C_22
    8  A    between atoms: C_22  and  C_38
    9  A    between atoms: C_22  and  C_39
   10  A    between atoms: C_23  and  C_34
   11  A    between atoms: C_31  and  N_32
   12  A    between atoms: C_31  and  C_50
   13  A    between atoms: N_32  and  C_43
   14  A    between atoms: C_33  and  O_41
   15  A    between atoms: C_33  and  O_45
   16  A    between atoms: C_34  and  C_39
   17  A    between atoms: C_34  and  S_46
   18  A    between atoms: C_37  and  C_42
   19  A    between atoms: C_38  and  O_45
   20  A    between atoms: C_42  and  C_43
   21  A    between atoms: C_48  and  C_51
                            x       y       z     vdW  Elec       q    Type
                         _______ _______ _______ _____ _____    ______ ____

>  <TORSDO>
F 21

$$$$
