=
 OpenBabel11062421243D

 31 32  0  0  1  0  0  0  0  0999 V2000
  192.7100  176.2020  146.0990 C   0  0  2  0  0  3  0  0  0  0  0  0
  195.0320  175.7460  144.5240 C   0  0  0  0  0  0  0  0  0  0  0  0
  193.8540  176.2330  143.9420 O   0  0  0  0  0  0  0  0  0  0  0  0
  196.0640  175.6110  143.8170 O   0  0  0  0  0  0  0  0  0  0  0  0
  192.5760  176.1150  144.5710 C   0  0  1  0  0  3  0  0  0  0  0  0
  193.7350  175.1810  146.5830 C   0  0  0  0  0  2  0  0  0  0  0  0
  195.1100  175.4880  145.9980 C   0  0  0  0  0  2  0  0  0  0  0  0
  191.4590  175.9660  146.7330 O   0  0  0  0  0  0  0  0  0  0  0  0
  191.4240  177.1260  148.7310 O   0  0  0  0  0  0  0  0  0  0  0  0
  189.6760  177.5560  147.2640 N   0  0  0  0  0  2  0  0  0  0  0  0
  190.8840  176.8840  147.6180 C   0  0  0  0  0  0  0  0  0  0  0  0
  189.0580  177.3930  145.9560 C   0  0  0  0  0  2  0  0  0  0  0  0
  187.9390  176.3680  146.0390 C   0  0  0  0  0  2  0  0  0  0  0  0
  186.8090  176.7350  145.0900 C   0  0  0  0  0  2  0  0  0  0  0  0
  186.2640  178.1260  145.3840 C   0  0  2  0  0  3  0  0  0  0  0  0
  184.1540  177.7310  146.6830 O   0  0  0  0  0  0  0  0  0  0  0  0
  185.4840  178.1370  146.6620 C   0  0  0  0  0  0  0  0  0  0  0  0
  186.0290  178.5400  147.7220 O   0  0  0  0  0  1  0  0  0  0  0  0
  185.3940  178.5810  144.2230 C   0  0  0  0  0  2  0  0  0  0  0  0
  185.3940  180.0950  144.1210 C   0  0  0  0  0  1  0  0  0  0  0  0
  191.9110  174.8090  144.1470 C   0  0  0  0  0  2  0  0  0  0  0  0
  190.6150  175.0840  143.4040 C   0  0  0  0  0  2  0  0  0  0  0  0
  190.5450  176.5470  142.9920 C   0  0  0  0  0  2  0  0  0  0  0  0
  189.2930  176.8210  142.2250 C   0  0  0  0  0  0  0  0  0  0  0  0
  188.5710  175.7660  141.6530 C   0  0  0  0  0  3  0  0  0  0  0  0
  188.8120  178.1290  142.1200 C   0  0  0  0  0  3  0  0  0  0  0  0
  187.3760  176.0200  140.9740 C   0  0  0  0  0  3  0  0  0  0  0  0
  186.8900  177.3270  140.8620 C   0  0  0  0  0  0  0  0  0  0  0  0
  187.6170  178.3830  141.4390 C   0  0  0  0  0  3  0  0  0  0  0  0
  184.6190  178.2980  140.7330 C   0  0  0  0  0  1  0  0  0  0  0  0
  185.6920  177.5480  140.1800 O   0  0  0  0  0  0  0  0  0  0  0  0
  1  6  1  0  0  0  0
  1  8  1  1  0  0  0
  2  7  1  0  0  0  0
  3  2  1  0  0  0  0
  3  5  1  0  0  0  0
  4  2  2  0  0  0  0
  5 21  1  1  0  0  0
  5  1  1  0  0  0  0
  7  6  1  0  0  0  0
  8 11  1  0  0  0  0
 10 11  1  0  0  0  0
 11  9  2  0  0  0  0
 12 13  1  0  0  0  0
 12 10  1  0  0  0  0
 14 15  1  0  0  0  0
 14 13  1  0  0  0  0
 15 19  1  6  0  0  0
 15 17  1  0  0  0  0
 17 16  2  0  0  0  0
 17 18  1  0  0  0  0
 20 19  1  0  0  0  0
 22 21  1  0  0  0  0
 23 22  1  0  0  0  0
 24 23  1  0  0  0  0
 25 24  2  0  0  0  0
 26 24  1  0  0  0  0
 27 25  1  0  0  0  0
 28 27  2  0  0  0  0
 28 29  1  0  0  0  0
 29 26  2  0  0  0  0
 31 30  1  0  0  0  0
 31 28  1  0  0  0  0
M  END
>  <MODEL>
1

>  <REMARK>
 VINA RESULT:      -6.1      0.000      0.000
  Name = 
  13 active torsions:
  status: ('A' for Active; 'I' for Inactive)
    1  A    between atoms: C_1  and  O_10
    2  A    between atoms: C_2  and  C_26
    3  A    between atoms: C_2  and  C_31
    4  A    between atoms: C_6  and  C_29
    5  A    between atoms: C_7  and  C_22
    6  A    between atoms: C_7  and  C_25
    7  A    between atoms: C_8  and  C_22
    8  A    between atoms: O_10  and  C_19
    9  A    between atoms: C_11  and  C_29
   10  A    between atoms: O_14  and  C_24
   11  A    between atoms: N_17  and  C_31
   12  A    between atoms: C_20  and  C_25
   13  A    between atoms: C_26  and  C_29
                            x       y       z     vdW  Elec       q    Type
                         _______ _______ _______ _____ _____    ______ ____

>  <TORSDO>
F 13

$$$$
=
 OpenBabel11062421243D

 31 32  0  0  1  0  0  0  0  0999 V2000
  187.5750  177.5170  144.7590 C   0  0  2  0  0  3  0  0  0  0  0  0
  186.2770  177.5140  147.2890 C   0  0  0  0  0  0  0  0  0  0  0  0
  187.5960  177.9700  147.1590 O   0  0  0  0  0  0  0  0  0  0  0  0
  185.7040  177.5800  148.4070 O   0  0  0  0  0  0  0  0  0  0  0  0
  188.4190  177.6430  146.0370 C   0  0  1  0  0  3  0  0  0  0  0  0
  186.4310  176.5350  144.9950 C   0  0  0  0  0  2  0  0  0  0  0  0
  185.5050  177.0500  146.0910 C   0  0  0  0  0  2  0  0  0  0  0  0
  188.3700  177.0760  143.6660 O   0  0  0  0  0  0  0  0  0  0  0  0
  187.4100  178.0220  141.7900 O   0  0  0  0  0  0  0  0  0  0  0  0
  187.8840  175.7530  141.6670 N   0  0  0  0  0  2  0  0  0  0  0  0
  187.8720  176.9990  142.3620 C   0  0  0  0  0  0  0  0  0  0  0  0
  188.4910  174.5580  142.2350 C   0  0  0  0  0  2  0  0  0  0  0  0
  189.9260  174.4310  141.7530 C   0  0  0  0  0  2  0  0  0  0  0  0
  190.8970  174.7410  142.8820 C   0  0  0  0  0  2  0  0  0  0  0  0
  191.7680  175.9470  142.5530 C   0  0  2  0  0  3  0  0  0  0  0  0
  193.4310  174.1710  141.9400 O   0  0  0  0  0  0  0  0  0  0  0  0
  193.1360  175.5170  142.1210 C   0  0  0  0  0  0  0  0  0  0  0  0
  194.0340  176.3810  141.9430 O   0  0  0  0  0  1  0  0  0  0  0  0
  191.8530  176.8530  143.7720 C   0  0  0  0  0  2  0  0  0  0  0  0
  191.3910  178.2560  143.4220 C   0  0  0  0  0  1  0  0  0  0  0  0
  189.1910  176.3570  146.3200 C   0  0  0  0  0  2  0  0  0  0  0  0
  190.3830  176.6350  147.2190 C   0  0  0  0  0  2  0  0  0  0  0  0
  191.1070  175.3380  147.5500 C   0  0  0  0  0  2  0  0  0  0  0  0
  192.4120  175.2630  146.8280 C   0  0  0  0  0  0  0  0  0  0  0  0
  193.3440  176.3010  146.9450 C   0  0  0  0  0  3  0  0  0  0  0  0
  192.7260  174.1290  146.0730 C   0  0  0  0  0  3  0  0  0  0  0  0
  194.5830  176.2070  146.3040 C   0  0  0  0  0  3  0  0  0  0  0  0
  194.9030  175.0770  145.5450 C   0  0  0  0  0  0  0  0  0  0  0  0
  193.9650  174.0350  145.4320 C   0  0  0  0  0  3  0  0  0  0  0  0
  197.1600  174.0910  145.3110 C   0  0  0  0  0  1  0  0  0  0  0  0
  196.1500  175.0110  144.9190 O   0  0  0  0  0  0  0  0  0  0  0  0
  1  8  1  6  0  0  0
  1  6  1  0  0  0  0
  1  5  1  0  0  0  0
  2  4  2  0  0  0  0
  3  2  1  0  0  0  0
  5 21  1  1  0  0  0
  5  3  1  0  0  0  0
  6  7  1  0  0  0  0
  7  2  1  0  0  0  0
  9 11  2  0  0  0  0
 10 12  1  0  0  0  0
 10 11  1  0  0  0  0
 11  8  1  0  0  0  0
 13 12  1  0  0  0  0
 13 14  1  0  0  0  0
 15 14  1  1  0  0  0
 15 19  1  0  0  0  0
 16 17  2  0  0  0  0
 17 15  1  0  0  0  0
 18 17  1  0  0  0  0
 20 19  1  0  0  0  0
 21 22  1  0  0  0  0
 22 23  1  0  0  0  0
 24 25  1  0  0  0  0
 24 23  1  0  0  0  0
 26 24  2  0  0  0  0
 27 25  2  0  0  0  0
 28 27  1  0  0  0  0
 29 28  2  0  0  0  0
 29 26  1  0  0  0  0
 31 30  1  0  0  0  0
 31 28  1  0  0  0  0
M  END
>  <MODEL>
2

>  <REMARK>
 VINA RESULT:      -5.9      2.264      7.856
  Name = 
  13 active torsions:
  status: ('A' for Active; 'I' for Inactive)
    1  A    between atoms: C_1  and  O_10
    2  A    between atoms: C_2  and  C_26
    3  A    between atoms: C_2  and  C_31
    4  A    between atoms: C_6  and  C_29
    5  A    between atoms: C_7  and  C_22
    6  A    between atoms: C_7  and  C_25
    7  A    between atoms: C_8  and  C_22
    8  A    between atoms: O_10  and  C_19
    9  A    between atoms: C_11  and  C_29
   10  A    between atoms: O_14  and  C_24
   11  A    between atoms: N_17  and  C_31
   12  A    between atoms: C_20  and  C_25
   13  A    between atoms: C_26  and  C_29
                            x       y       z     vdW  Elec       q    Type
                         _______ _______ _______ _____ _____    ______ ____

>  <TORSDO>
F 13

$$$$
=
 OpenBabel11062421243D

 31 32  0  0  1  0  0  0  0  0999 V2000
  186.8340  178.1790  143.5260 C   0  0  2  0  0  3  0  0  0  0  0  0
  184.6460  178.5430  145.3050 C   0  0  0  0  0  0  0  0  0  0  0  0
  185.9640  178.5250  145.7810 O   0  0  0  0  0  0  0  0  0  0  0  0
  183.7000  178.7660  146.1020 O   0  0  0  0  0  0  0  0  0  0  0  0
  187.0490  177.9710  145.0330 C   0  0  1  0  0  3  0  0  0  0  0  0
  185.4650  177.6410  143.1230 C   0  0  0  0  0  2  0  0  0  0  0  0
  184.3590  178.4070  143.8400 C   0  0  0  0  0  2  0  0  0  0  0  0
  187.8490  177.5270  142.7730 O   0  0  0  0  0  0  0  0  0  0  0  0
  187.3970  177.8730  140.5340 O   0  0  0  0  0  0  0  0  0  0  0  0
  187.6810  175.6650  141.1940 N   0  0  0  0  0  2  0  0  0  0  0  0
  187.6340  177.0640  141.4710 C   0  0  0  0  0  0  0  0  0  0  0  0
  188.0450  174.6900  142.2110 C   0  0  0  0  0  2  0  0  0  0  0  0
  189.5210  174.8240  142.5480 C   0  0  0  0  0  2  0  0  0  0  0  0
  189.9020  173.8600  143.6610 C   0  0  0  0  0  2  0  0  0  0  0  0
  191.1820  173.1020  143.3290 C   0  0  2  0  0  3  0  0  0  0  0  0
  191.6920  172.1220  141.0760 O   0  0  0  0  0  0  0  0  0  0  0  0
  190.9420  172.0960  142.2470 C   0  0  0  0  0  0  0  0  0  0  0  0
  190.0370  171.2330  142.3880 O   0  0  0  0  0  1  0  0  0  0  0  0
  191.7040  172.4230  144.5850 C   0  0  0  0  0  2  0  0  0  0  0  0
  193.1500  172.0030  144.3980 C   0  0  0  0  0  1  0  0  0  0  0  0
  187.2060  176.4910  145.3700 C   0  0  0  0  0  2  0  0  0  0  0  0
  188.3660  176.2800  146.3280 C   0  0  0  0  0  2  0  0  0  0  0  0
  189.4040  177.3780  146.1470 C   0  0  0  0  0  2  0  0  0  0  0  0
  190.7350  176.7950  145.8010 C   0  0  0  0  0  0  0  0  0  0  0  0
  191.3660  177.1410  144.6000 C   0  0  0  0  0  3  0  0  0  0  0  0
  191.3760  175.9400  146.7020 C   0  0  0  0  0  3  0  0  0  0  0  0
  192.6320  176.6280  144.3000 C   0  0  0  0  0  3  0  0  0  0  0  0
  193.2780  175.7700  145.1950 C   0  0  0  0  0  0  0  0  0  0  0  0
  192.6420  175.4270  146.4010 C   0  0  0  0  0  3  0  0  0  0  0  0
  195.4940  174.8860  145.8490 C   0  0  0  0  0  1  0  0  0  0  0  0
  194.5440  175.2770  144.8670 O   0  0  0  0  0  0  0  0  0  0  0  0
  1  8  1  6  0  0  0
  1  5  1  0  0  0  0
  2  3  1  0  0  0  0
  2  4  2  0  0  0  0
  5 21  1  6  0  0  0
  5  3  1  0  0  0  0
  6  1  1  0  0  0  0
  6  7  1  0  0  0  0
  7  2  1  0  0  0  0
  9 11  2  0  0  0  0
 10 11  1  0  0  0  0
 10 12  1  0  0  0  0
 11  8  1  0  0  0  0
 12 13  1  0  0  0  0
 13 14  1  0  0  0  0
 15 14  1  1  0  0  0
 15 19  1  0  0  0  0
 16 17  2  0  0  0  0
 17 18  1  0  0  0  0
 17 15  1  0  0  0  0
 20 19  1  0  0  0  0
 21 22  1  0  0  0  0
 23 22  1  0  0  0  0
 24 23  1  0  0  0  0
 24 26  1  0  0  0  0
 25 24  2  0  0  0  0
 27 25  1  0  0  0  0
 27 28  2  0  0  0  0
 28 29  1  0  0  0  0
 29 26  2  0  0  0  0
 31 28  1  0  0  0  0
 31 30  1  0  0  0  0
M  END
>  <MODEL>
3

>  <REMARK>
 VINA RESULT:      -5.9      2.505      8.068
  Name = 
  13 active torsions:
  status: ('A' for Active; 'I' for Inactive)
    1  A    between atoms: C_1  and  O_10
    2  A    between atoms: C_2  and  C_26
    3  A    between atoms: C_2  and  C_31
    4  A    between atoms: C_6  and  C_29
    5  A    between atoms: C_7  and  C_22
    6  A    between atoms: C_7  and  C_25
    7  A    between atoms: C_8  and  C_22
    8  A    between atoms: O_10  and  C_19
    9  A    between atoms: C_11  and  C_29
   10  A    between atoms: O_14  and  C_24
   11  A    between atoms: N_17  and  C_31
   12  A    between atoms: C_20  and  C_25
   13  A    between atoms: C_26  and  C_29
                            x       y       z     vdW  Elec       q    Type
                         _______ _______ _______ _____ _____    ______ ____

>  <TORSDO>
F 13

$$$$
=
 OpenBabel11062421243D

 31 32  0  0  1  0  0  0  0  0999 V2000
  188.5060  177.0610  145.3930 C   0  0  2  0  0  3  0  0  0  0  0  0
  186.5840  177.3220  147.4720 C   0  0  0  0  0  0  0  0  0  0  0  0
  187.9560  177.3930  147.7490 O   0  0  0  0  0  0  0  0  0  0  0  0
  185.7520  177.5020  148.3980 O   0  0  0  0  0  0  0  0  0  0  0  0
  188.9520  176.8920  146.8540 C   0  0  1  0  0  3  0  0  0  0  0  0
  187.1290  176.4340  145.2010 C   0  0  0  0  0  2  0  0  0  0  0  0
  186.0940  177.1440  146.0660 C   0  0  0  0  0  2  0  0  0  0  0  0
  189.4390  176.4580  144.5050 O   0  0  0  0  0  0  0  0  0  0  0  0
  191.3260  177.6970  144.0170 O   0  0  0  0  0  0  0  0  0  0  0  0
  189.8010  177.4260  142.2870 N   0  0  0  0  0  2  0  0  0  0  0  0
  190.2310  177.2080  143.6300 C   0  0  0  0  0  0  0  0  0  0  0  0
  188.5970  176.8080  141.7530 C   0  0  0  0  0  2  0  0  0  0  0  0
  187.4570  177.8130  141.7590 C   0  0  0  0  0  2  0  0  0  0  0  0
  186.1180  177.0990  141.8650 C   0  0  0  0  0  2  0  0  0  0  0  0
  185.0690  177.9770  142.5350 C   0  0  2  0  0  3  0  0  0  0  0  0
  182.6340  178.2890  142.0150 O   0  0  0  0  0  1  0  0  0  0  0  0
  183.9570  178.3010  141.5860 C   0  0  0  0  0  0  0  0  0  0  0  0
  184.2200  178.5620  140.3830 O   0  0  0  0  0  0  0  0  0  0  0  0
  185.7280  179.2500  143.0420 C   0  0  0  0  0  2  0  0  0  0  0  0
  184.9810  179.7910  144.2470 C   0  0  0  0  0  1  0  0  0  0  0  0
  189.2480  175.4300  147.1760 C   0  0  0  0  0  2  0  0  0  0  0  0
  190.6230  175.2890  147.8070 C   0  0  0  0  0  2  0  0  0  0  0  0
  191.5170  176.4460  147.3860 C   0  0  0  0  0  2  0  0  0  0  0  0
  192.7270  175.9450  146.6690 C   0  0  0  0  0  0  0  0  0  0  0  0
  192.7490  174.6460  146.1450 C   0  0  0  0  0  3  0  0  0  0  0  0
  193.8230  176.7910  146.4740 C   0  0  0  0  0  3  0  0  0  0  0  0
  193.8670  174.1950  145.4350 C   0  0  0  0  0  3  0  0  0  0  0  0
  194.9670  175.0350  145.2390 C   0  0  0  0  0  0  0  0  0  0  0  0
  194.9400  176.3390  145.7640 C   0  0  0  0  0  3  0  0  0  0  0  0
  196.1220  174.5640  143.1030 C   0  0  0  0  0  1  0  0  0  0  0  0
  196.0660  174.5550  144.5230 O   0  0  0  0  0  0  0  0  0  0  0  0
  1  8  1  6  0  0  0
  1  5  1  0  0  0  0
  2  3  1  0  0  0  0
  2  4  2  0  0  0  0
  5 21  1  1  0  0  0
  5  3  1  0  0  0  0
  6  1  1  0  0  0  0
  6  7  1  0  0  0  0
  7  2  1  0  0  0  0
 10 11  1  0  0  0  0
 11  9  2  0  0  0  0
 11  8  1  0  0  0  0
 12 13  1  0  0  0  0
 12 10  1  0  0  0  0
 13 14  1  0  0  0  0
 15 14  1  6  0  0  0
 15 19  1  0  0  0  0
 17 16  1  0  0  0  0
 17 15  1  0  0  0  0
 18 17  2  0  0  0  0
 19 20  1  0  0  0  0
 21 22  1  0  0  0  0
 23 22  1  0  0  0  0
 24 23  1  0  0  0  0
 25 24  2  0  0  0  0
 26 24  1  0  0  0  0
 27 25  1  0  0  0  0
 28 27  2  0  0  0  0
 28 29  1  0  0  0  0
 29 26  2  0  0  0  0
 30 31  1  0  0  0  0
 31 28  1  0  0  0  0
M  END
>  <MODEL>
4

>  <REMARK>
 VINA RESULT:      -5.9      1.824      6.647
  Name = 
  13 active torsions:
  status: ('A' for Active; 'I' for Inactive)
    1  A    between atoms: C_1  and  O_10
    2  A    between atoms: C_2  and  C_26
    3  A    between atoms: C_2  and  C_31
    4  A    between atoms: C_6  and  C_29
    5  A    between atoms: C_7  and  C_22
    6  A    between atoms: C_7  and  C_25
    7  A    between atoms: C_8  and  C_22
    8  A    between atoms: O_10  and  C_19
    9  A    between atoms: C_11  and  C_29
   10  A    between atoms: O_14  and  C_24
   11  A    between atoms: N_17  and  C_31
   12  A    between atoms: C_20  and  C_25
   13  A    between atoms: C_26  and  C_29
                            x       y       z     vdW  Elec       q    Type
                         _______ _______ _______ _____ _____    ______ ____

>  <TORSDO>
F 13

$$$$
=
 OpenBabel11062421243D

 31 32  0  0  1  0  0  0  0  0999 V2000
  193.6210  174.9360  143.4200 C   0  0  2  0  0  3  0  0  0  0  0  0
  196.0590  176.3930  143.3030 C   0  0  0  0  0  0  0  0  0  0  0  0
  195.6310  175.8040  144.5000 O   0  0  0  0  0  0  0  0  0  0  0  0
  197.1720  176.9800  143.2610 O   0  0  0  0  0  0  0  0  0  0  0  0
  194.2750  175.4110  144.7260 C   0  0  1  0  0  3  0  0  0  0  0  0
  193.7850  176.0060  142.3450 C   0  0  0  0  0  2  0  0  0  0  0  0
  195.2610  176.2370  142.0440 C   0  0  0  0  0  2  0  0  0  0  0  0
  192.2400  174.6570  143.6150 O   0  0  0  0  0  0  0  0  0  0  0  0
  192.1300  172.4000  144.0960 O   0  0  0  0  0  0  0  0  0  0  0  0
  190.6580  173.1780  142.4770 N   0  0  0  0  0  2  0  0  0  0  0  0
  191.7020  173.3800  143.4290 C   0  0  0  0  0  0  0  0  0  0  0  0
  190.0560  174.2830  141.7470 C   0  0  0  0  0  2  0  0  0  0  0  0
  188.6580  174.5510  142.2790 C   0  0  0  0  0  2  0  0  0  0  0  0
  188.0860  175.8170  141.6600 C   0  0  0  0  0  2  0  0  0  0  0  0
  188.0450  176.9610  142.6650 C   0  0  2  0  0  3  0  0  0  0  0  0
  185.5360  176.9490  142.6540 O   0  0  0  0  0  1  0  0  0  0  0  0
  186.7250  177.6670  142.6180 C   0  0  0  0  0  0  0  0  0  0  0  0
  186.6930  178.9220  142.5210 O   0  0  0  0  0  0  0  0  0  0  0  0
  189.1800  177.9290  142.3730 C   0  0  0  0  0  2  0  0  0  0  0  0
  190.2780  177.7880  143.4110 C   0  0  0  0  0  1  0  0  0  0  0  0
  193.4980  176.5690  145.3450 C   0  0  0  0  0  2  0  0  0  0  0  0
  193.2140  176.2990  146.8120 C   0  0  0  0  0  2  0  0  0  0  0  0
  192.1520  175.2180  146.9540 C   0  0  0  0  0  2  0  0  0  0  0  0
  190.7840  175.7990  146.8080 C   0  0  0  0  0  0  0  0  0  0  0  0
  190.5150  177.0940  147.2670 C   0  0  0  0  0  3  0  0  0  0  0  0
  189.7820  175.0670  146.1640 C   0  0  0  0  0  3  0  0  0  0  0  0
  189.2450  177.6520  147.0880 C   0  0  0  0  0  3  0  0  0  0  0  0
  188.2370  176.9240  146.4480 C   0  0  0  0  0  0  0  0  0  0  0  0
  188.5120  175.6250  145.9860 C   0  0  0  0  0  3  0  0  0  0  0  0
  185.7870  176.7490  146.1570 C   0  0  0  0  0  1  0  0  0  0  0  0
  186.9800  177.5110  146.2820 O   0  0  0  0  0  0  0  0  0  0  0  0
  1  8  1  1  0  0  0
  1  5  1  0  0  0  0
  2  3  1  0  0  0  0
  3  5  1  0  0  0  0
  4  2  2  0  0  0  0
  5 21  1  6  0  0  0
  6  1  1  0  0  0  0
  7  6  1  0  0  0  0
  7  2  1  0  0  0  0
 10 11  1  0  0  0  0
 11  8  1  0  0  0  0
 11  9  2  0  0  0  0
 12 13  1  0  0  0  0
 12 10  1  0  0  0  0
 14 13  1  0  0  0  0
 15 14  1  6  0  0  0
 17 16  1  0  0  0  0
 17 15  1  0  0  0  0
 18 17  2  0  0  0  0
 19 15  1  0  0  0  0
 19 20  1  0  0  0  0
 21 22  1  0  0  0  0
 22 23  1  0  0  0  0
 24 23  1  0  0  0  0
 24 25  1  0  0  0  0
 26 24  2  0  0  0  0
 27 25  2  0  0  0  0
 28 27  1  0  0  0  0
 29 26  1  0  0  0  0
 29 28  2  0  0  0  0
 30 31  1  0  0  0  0
 31 28  1  0  0  0  0
M  END
>  <MODEL>
5

>  <REMARK>
 VINA RESULT:      -5.9      2.276      4.702
  Name = 
  13 active torsions:
  status: ('A' for Active; 'I' for Inactive)
    1  A    between atoms: C_1  and  O_10
    2  A    between atoms: C_2  and  C_26
    3  A    between atoms: C_2  and  C_31
    4  A    between atoms: C_6  and  C_29
    5  A    between atoms: C_7  and  C_22
    6  A    between atoms: C_7  and  C_25
    7  A    between atoms: C_8  and  C_22
    8  A    between atoms: O_10  and  C_19
    9  A    between atoms: C_11  and  C_29
   10  A    between atoms: O_14  and  C_24
   11  A    between atoms: N_17  and  C_31
   12  A    between atoms: C_20  and  C_25
   13  A    between atoms: C_26  and  C_29
                            x       y       z     vdW  Elec       q    Type
                         _______ _______ _______ _____ _____    ______ ____

>  <TORSDO>
F 13

$$$$
=
 OpenBabel11062421243D

 31 32  0  0  1  0  0  0  0  0999 V2000
  187.2200  177.4440  144.8440 C   0  0  2  0  0  3  0  0  0  0  0  0
  186.1220  177.6630  147.4570 C   0  0  0  0  0  0  0  0  0  0  0  0
  187.4520  178.0230  147.2040 O   0  0  0  0  0  0  0  0  0  0  0  0
  185.6410  177.8260  148.6080 O   0  0  0  0  0  0  0  0  0  0  0  0
  188.1660  177.5830  146.0460 C   0  0  1  0  0  3  0  0  0  0  0  0
  186.0390  176.5540  145.2200 C   0  0  0  0  0  2  0  0  0  0  0  0
  185.2330  177.1870  146.3480 C   0  0  0  0  0  2  0  0  0  0  0  0
  187.9010  176.8930  143.7230 O   0  0  0  0  0  0  0  0  0  0  0  0
  187.5270  178.2720  141.9080 O   0  0  0  0  0  0  0  0  0  0  0  0
  189.7480  177.8220  142.4140 N   0  0  0  0  0  2  0  0  0  0  0  0
  188.3490  177.6810  142.6590 C   0  0  0  0  0  0  0  0  0  0  0  0
  190.7470  177.2450  143.3010 C   0  0  0  0  0  2  0  0  0  0  0  0
  191.2180  175.9100  142.7480 C   0  0  0  0  0  2  0  0  0  0  0  0
  190.5380  174.7620  143.4770 C   0  0  0  0  0  2  0  0  0  0  0  0
  190.2740  173.5870  142.5430 C   0  0  2  0  0  3  0  0  0  0  0  0
  187.8590  174.0200  142.0180 O   0  0  0  0  0  1  0  0  0  0  0  0
  189.1740  173.9060  141.5790 C   0  0  0  0  0  0  0  0  0  0  0  0
  189.4370  174.0470  140.3570 O   0  0  0  0  0  0  0  0  0  0  0  0
  189.9240  172.3580  143.3680 C   0  0  0  0  0  2  0  0  0  0  0  0
  191.1840  171.6800  143.8720 C   0  0  0  0  0  1  0  0  0  0  0  0
  188.8760  176.2660  146.3470 C   0  0  0  0  0  2  0  0  0  0  0  0
  190.1830  176.5180  147.0790 C   0  0  0  0  0  2  0  0  0  0  0  0
  190.9630  175.2200  147.2250 C   0  0  0  0  0  2  0  0  0  0  0  0
  192.2680  175.3020  146.5030 C   0  0  0  0  0  0  0  0  0  0  0  0
  192.8800  176.5440  146.2930 C   0  0  0  0  0  3  0  0  0  0  0  0
  192.9050  174.1330  146.0800 C   0  0  0  0  0  3  0  0  0  0  0  0
  194.1230  176.6140  145.6560 C   0  0  0  0  0  3  0  0  0  0  0  0
  194.7650  175.4490  145.2270 C   0  0  0  0  0  0  0  0  0  0  0  0
  194.1480  174.2040  145.4420 C   0  0  0  0  0  3  0  0  0  0  0  0
  196.2960  176.5510  143.6270 C   0  0  0  0  0  1  0  0  0  0  0  0
  196.0070  175.5520  144.5970 O   0  0  0  0  0  0  0  0  0  0  0  0
  1  8  1  6  0  0  0
  1  6  1  0  0  0  0
  1  5  1  0  0  0  0
  2  4  2  0  0  0  0
  3  2  1  0  0  0  0
  5 21  1  1  0  0  0
  5  3  1  0  0  0  0
  6  7  1  0  0  0  0
  7  2  1  0  0  0  0
  9 11  2  0  0  0  0
 10 11  1  0  0  0  0
 10 12  1  0  0  0  0
 11  8  1  0  0  0  0
 13 12  1  0  0  0  0
 13 14  1  0  0  0  0
 15 19  1  1  0  0  0
 15 14  1  0  0  0  0
 17 16  1  0  0  0  0
 17 15  1  0  0  0  0
 18 17  2  0  0  0  0
 19 20  1  0  0  0  0
 21 22  1  0  0  0  0
 22 23  1  0  0  0  0
 24 23  1  0  0  0  0
 25 24  1  0  0  0  0
 26 24  2  0  0  0  0
 27 25  2  0  0  0  0
 28 29  2  0  0  0  0
 28 27  1  0  0  0  0
 29 26  1  0  0  0  0
 30 31  1  0  0  0  0
 31 28  1  0  0  0  0
M  END
>  <MODEL>
6

>  <REMARK>
 VINA RESULT:      -5.8      2.230      7.567
  Name = 
  13 active torsions:
  status: ('A' for Active; 'I' for Inactive)
    1  A    between atoms: C_1  and  O_10
    2  A    between atoms: C_2  and  C_26
    3  A    between atoms: C_2  and  C_31
    4  A    between atoms: C_6  and  C_29
    5  A    between atoms: C_7  and  C_22
    6  A    between atoms: C_7  and  C_25
    7  A    between atoms: C_8  and  C_22
    8  A    between atoms: O_10  and  C_19
    9  A    between atoms: C_11  and  C_29
   10  A    between atoms: O_14  and  C_24
   11  A    between atoms: N_17  and  C_31
   12  A    between atoms: C_20  and  C_25
   13  A    between atoms: C_26  and  C_29
                            x       y       z     vdW  Elec       q    Type
                         _______ _______ _______ _____ _____    ______ ____

>  <TORSDO>
F 13

$$$$
=
 OpenBabel11062421243D

 31 32  0  0  1  0  0  0  0  0999 V2000
  191.8150  173.2570  143.3620 C   0  0  2  0  0  3  0  0  0  0  0  0
  191.1760  170.9640  141.8090 C   0  0  0  0  0  0  0  0  0  0  0  0
  190.7550  172.2400  141.4120 O   0  0  0  0  0  0  0  0  0  0  0  0
  190.9340  169.9720  141.0730 O   0  0  0  0  0  0  0  0  0  0  0  0
  190.6970  173.3490  142.3120 C   0  0  1  0  0  3  0  0  0  0  0  0
  191.7620  171.8970  144.0510 C   0  0  0  0  0  2  0  0  0  0  0  0
  192.0070  170.7800  143.0430 C   0  0  0  0  0  2  0  0  0  0  0  0
  191.6900  174.2920  144.3290 O   0  0  0  0  0  0  0  0  0  0  0  0
  193.7370  175.3000  144.6910 O   0  0  0  0  0  0  0  0  0  0  0  0
  192.0250  176.6880  143.9610 N   0  0  0  0  0  2  0  0  0  0  0  0
  192.5310  175.4090  144.3430 C   0  0  0  0  0  0  0  0  0  0  0  0
  190.6710  176.8620  143.4570 C   0  0  0  0  0  2  0  0  0  0  0  0
  189.9300  177.8760  144.3120 C   0  0  0  0  0  2  0  0  0  0  0  0
  189.7400  177.3450  145.7250 C   0  0  0  0  0  2  0  0  0  0  0  0
  188.5480  176.4000  145.8100 C   0  0  2  0  0  3  0  0  0  0  0  0
  186.1810  176.4200  146.6410 O   0  0  0  0  0  0  0  0  0  0  0  0
  187.4400  177.0080  146.6140 C   0  0  0  0  0  0  0  0  0  0  0  0
  187.6440  178.0740  147.2500 O   0  0  0  0  0  1  0  0  0  0  0  0
  188.9940  175.0830  146.4250 C   0  0  0  0  0  2  0  0  0  0  0  0
  190.1910  175.2980  147.3320 C   0  0  0  0  0  1  0  0  0  0  0  0
  189.3220  173.4080  142.9720 C   0  0  0  0  0  2  0  0  0  0  0  0
  188.2360  173.6030  141.9280 C   0  0  0  0  0  2  0  0  0  0  0  0
  188.4540  174.9080  141.1770 C   0  0  0  0  0  2  0  0  0  0  0  0
  187.6120  175.9980  141.7560 C   0  0  0  0  0  0  0  0  0  0  0  0
  187.7060  177.3030  141.2560 C   0  0  0  0  0  3  0  0  0  0  0  0
  186.6900  175.7040  142.7650 C   0  0  0  0  0  3  0  0  0  0  0  0
  186.8830  178.3110  141.7690 C   0  0  0  0  0  3  0  0  0  0  0  0
  185.9610  178.0250  142.7800 C   0  0  0  0  0  0  0  0  0  0  0  0
  185.8680  176.7130  143.2780 C   0  0  0  0  0  3  0  0  0  0  0  0
  185.5490  179.9010  144.3390 C   0  0  0  0  0  1  0  0  0  0  0  0
  185.1520  179.0530  143.2700 O   0  0  0  0  0  0  0  0  0  0  0  0
  1  6  1  0  0  0  0
  1  8  1  1  0  0  0
  2  7  1  0  0  0  0
  3  2  1  0  0  0  0
  3  5  1  0  0  0  0
  4  2  2  0  0  0  0
  5 21  1  1  0  0  0
  5  1  1  0  0  0  0
  7  6  1  0  0  0  0
  8 11  1  0  0  0  0
 10 11  1  0  0  0  0
 11  9  2  0  0  0  0
 12 10  1  0  0  0  0
 12 13  1  0  0  0  0
 13 14  1  0  0  0  0
 15 14  1  1  0  0  0
 15 19  1  0  0  0  0
 15 17  1  0  0  0  0
 17 16  2  0  0  0  0
 17 18  1  0  0  0  0
 19 20  1  0  0  0  0
 22 21  1  0  0  0  0
 23 24  1  0  0  0  0
 23 22  1  0  0  0  0
 24 26  1  0  0  0  0
 25 24  2  0  0  0  0
 25 27  1  0  0  0  0
 26 29  2  0  0  0  0
 27 28  2  0  0  0  0
 28 31  1  0  0  0  0
 28 29  1  0  0  0  0
 31 30  1  0  0  0  0
M  END
>  <MODEL>
7

>  <REMARK>
 VINA RESULT:      -5.7      2.694      4.165
  Name = 
  13 active torsions:
  status: ('A' for Active; 'I' for Inactive)
    1  A    between atoms: C_1  and  O_10
    2  A    between atoms: C_2  and  C_26
    3  A    between atoms: C_2  and  C_31
    4  A    between atoms: C_6  and  C_29
    5  A    between atoms: C_7  and  C_22
    6  A    between atoms: C_7  and  C_25
    7  A    between atoms: C_8  and  C_22
    8  A    between atoms: O_10  and  C_19
    9  A    between atoms: C_11  and  C_29
   10  A    between atoms: O_14  and  C_24
   11  A    between atoms: N_17  and  C_31
   12  A    between atoms: C_20  and  C_25
   13  A    between atoms: C_26  and  C_29
                            x       y       z     vdW  Elec       q    Type
                         _______ _______ _______ _____ _____    ______ ____

>  <TORSDO>
F 13

$$$$
=
 OpenBabel11062421243D

 31 32  0  0  1  0  0  0  0  0999 V2000
  187.6910  177.6550  144.6960 C   0  0  2  0  0  3  0  0  0  0  0  0
  186.1780  177.7790  147.1000 C   0  0  0  0  0  0  0  0  0  0  0  0
  187.5750  177.6820  147.1350 O   0  0  0  0  0  0  0  0  0  0  0  0
  185.5350  177.8950  148.1750 O   0  0  0  0  0  0  0  0  0  0  0  0
  188.3470  177.2300  146.0200 C   0  0  1  0  0  3  0  0  0  0  0  0
  186.2380  177.1920  144.6720 C   0  0  0  0  0  2  0  0  0  0  0  0
  185.4480  177.8580  145.7930 C   0  0  0  0  0  2  0  0  0  0  0  0
  188.3900  177.1080  143.5850 O   0  0  0  0  0  0  0  0  0  0  0  0
  188.0540  178.6690  141.9160 O   0  0  0  0  0  0  0  0  0  0  0  0
  187.8150  176.4430  141.3010 N   0  0  0  0  0  2  0  0  0  0  0  0
  188.0880  177.4590  142.2650 C   0  0  0  0  0  0  0  0  0  0  0  0
  187.9330  175.0280  141.6180 C   0  0  0  0  0  2  0  0  0  0  0  0
  189.3990  174.6460  141.7330 C   0  0  0  0  0  2  0  0  0  0  0  0
  189.6690  173.9620  143.0650 C   0  0  0  0  0  2  0  0  0  0  0  0
  190.9490  173.1370  143.0190 C   0  0  2  0  0  3  0  0  0  0  0  0
  191.9720  172.3100  140.8830 O   0  0  0  0  0  0  0  0  0  0  0  0
  190.9570  172.2280  141.8290 C   0  0  0  0  0  0  0  0  0  0  0  0
  190.0240  171.3980  141.6720 O   0  0  0  0  0  1  0  0  0  0  0  0
  191.0770  172.3360  144.3050 C   0  0  0  0  0  2  0  0  0  0  0  0
  189.7420  172.2680  145.0230 C   0  0  0  0  0  1  0  0  0  0  0  0
  188.5210  175.7160  146.0900 C   0  0  0  0  0  2  0  0  0  0  0  0
  189.5480  175.3440  147.1450 C   0  0  0  0  0  2  0  0  0  0  0  0
  190.6960  176.3430  147.1380 C   0  0  0  0  0  2  0  0  0  0  0  0
  191.7570  175.9220  146.1750 C   0  0  0  0  0  0  0  0  0  0  0  0
  191.8610  176.5440  144.9240 C   0  0  0  0  0  3  0  0  0  0  0  0
  192.6810  174.9400  146.5410 C   0  0  0  0  0  3  0  0  0  0  0  0
  192.8830  176.1790  144.0420 C   0  0  0  0  0  3  0  0  0  0  0  0
  193.8100  175.1950  144.4010 C   0  0  0  0  0  0  0  0  0  0  0  0
  193.7030  174.5750  145.6590 C   0  0  0  0  0  3  0  0  0  0  0  0
  195.8310  173.9030  143.8010 C   0  0  0  0  0  1  0  0  0  0  0  0
  194.8210  174.8550  143.4990 O   0  0  0  0  0  0  0  0  0  0  0  0
  1  8  1  6  0  0  0
  1  5  1  0  0  0  0
  2  3  1  0  0  0  0
  2  4  2  0  0  0  0
  5 21  1  6  0  0  0
  5  3  1  0  0  0  0
  6  1  1  0  0  0  0
  6  7  1  0  0  0  0
  7  2  1  0  0  0  0
  9 11  2  0  0  0  0
 10 12  1  0  0  0  0
 10 11  1  0  0  0  0
 11  8  1  0  0  0  0
 12 13  1  0  0  0  0
 13 14  1  0  0  0  0
 15 14  1  1  0  0  0
 15 19  1  0  0  0  0
 16 17  2  0  0  0  0
 17 15  1  0  0  0  0
 18 17  1  0  0  0  0
 19 20  1  0  0  0  0
 21 22  1  0  0  0  0
 23 22  1  0  0  0  0
 24 26  1  0  0  0  0
 24 23  1  0  0  0  0
 25 24  2  0  0  0  0
 27 28  2  0  0  0  0
 27 25  1  0  0  0  0
 28 29  1  0  0  0  0
 29 26  2  0  0  0  0
 31 30  1  0  0  0  0
 31 28  1  0  0  0  0
M  END
>  <MODEL>
8

>  <REMARK>
 VINA RESULT:      -5.7      2.588      7.631
  Name = 
  13 active torsions:
  status: ('A' for Active; 'I' for Inactive)
    1  A    between atoms: C_1  and  O_10
    2  A    between atoms: C_2  and  C_26
    3  A    between atoms: C_2  and  C_31
    4  A    between atoms: C_6  and  C_29
    5  A    between atoms: C_7  and  C_22
    6  A    between atoms: C_7  and  C_25
    7  A    between atoms: C_8  and  C_22
    8  A    between atoms: O_10  and  C_19
    9  A    between atoms: C_11  and  C_29
   10  A    between atoms: O_14  and  C_24
   11  A    between atoms: N_17  and  C_31
   12  A    between atoms: C_20  and  C_25
   13  A    between atoms: C_26  and  C_29
                            x       y       z     vdW  Elec       q    Type
                         _______ _______ _______ _____ _____    ______ ____

>  <TORSDO>
F 13

$$$$
=
 OpenBabel11062421243D

 31 32  0  0  1  0  0  0  0  0999 V2000
  187.3230  176.4760  146.3480 C   0  0  2  0  0  3  0  0  0  0  0  0
  185.1380  178.2890  146.2080 C   0  0  0  0  0  0  0  0  0  0  0  0
  185.3880  177.3850  145.1670 O   0  0  0  0  0  0  0  0  0  0  0  0
  184.1290  179.0390  146.1510 O   0  0  0  0  0  0  0  0  0  0  0  0
  186.6520  176.7410  144.9910 C   0  0  1  0  0  3  0  0  0  0  0  0
  187.3950  177.7740  147.1460 C   0  0  0  0  0  2  0  0  0  0  0  0
  185.9940  178.2980  147.4390 C   0  0  0  0  0  2  0  0  0  0  0  0
  188.6310  175.9440  146.1730 O   0  0  0  0  0  0  0  0  0  0  0  0
  188.7210  174.1670  147.6460 O   0  0  0  0  0  0  0  0  0  0  0  0
  190.5590  175.5870  147.6360 N   0  0  0  0  0  2  0  0  0  0  0  0
  189.2710  175.1930  147.1630 C   0  0  0  0  0  0  0  0  0  0  0  0
  191.2870  176.7030  147.0520 C   0  0  0  0  0  2  0  0  0  0  0  0
  192.6580  176.2390  146.5900 C   0  0  0  0  0  2  0  0  0  0  0  0
  192.8180  176.4560  145.0930 C   0  0  0  0  0  2  0  0  0  0  0  0
  191.5980  175.9640  144.3250 C   0  0  2  0  0  3  0  0  0  0  0  0
  191.1410  173.5180  144.6470 O   0  0  0  0  0  1  0  0  0  0  0  0
  191.7610  174.5310  143.9230 C   0  0  0  0  0  0  0  0  0  0  0  0
  192.4840  174.2380  142.9360 O   0  0  0  0  0  0  0  0  0  0  0  0
  191.3870  176.8420  143.1010 C   0  0  0  0  0  2  0  0  0  0  0  0
  191.1910  178.2890  143.5130 C   0  0  0  0  0  1  0  0  0  0  0  0
  187.5440  177.5900  144.0900 C   0  0  0  0  0  2  0  0  0  0  0  0
  187.7180  176.9290  142.7330 C   0  0  0  0  0  2  0  0  0  0  0  0
  187.1420  175.5210  142.7550 C   0  0  0  0  0  2  0  0  0  0  0  0
  188.1210  174.5410  142.1950 C   0  0  0  0  0  0  0  0  0  0  0  0
  188.1790  173.2360  142.6990 C   0  0  0  0  0  3  0  0  0  0  0  0
  188.9450  174.9130  141.1290 C   0  0  0  0  0  3  0  0  0  0  0  0
  189.0650  172.3080  142.1410 C   0  0  0  0  0  3  0  0  0  0  0  0
  189.8950  172.6740  141.0770 C   0  0  0  0  0  0  0  0  0  0  0  0
  189.8320  173.9840  140.5720 C   0  0  0  0  0  3  0  0  0  0  0  0
  190.4880  171.0150  139.3400 C   0  0  0  0  0  1  0  0  0  0  0  0
  190.7670  171.7230  140.5410 O   0  0  0  0  0  0  0  0  0  0  0  0
  1  8  1  6  0  0  0
  1  6  1  0  0  0  0
  2  7  1  0  0  0  0
  3  2  1  0  0  0  0
  4  2  2  0  0  0  0
  5 21  1  6  0  0  0
  5  3  1  0  0  0  0
  5  1  1  0  0  0  0
  6  7  1  0  0  0  0
  8 11  1  0  0  0  0
 11 10  1  0  0  0  0
 11  9  2  0  0  0  0
 12 10  1  0  0  0  0
 13 12  1  0  0  0  0
 14 13  1  0  0  0  0
 15 19  1  6  0  0  0
 15 14  1  0  0  0  0
 17 15  1  0  0  0  0
 17 16  1  0  0  0  0
 18 17  2  0  0  0  0
 19 20  1  0  0  0  0
 22 23  1  0  0  0  0
 22 21  1  0  0  0  0
 24 25  1  0  0  0  0
 24 23  1  0  0  0  0
 26 24  2  0  0  0  0
 27 25  2  0  0  0  0
 28 27  1  0  0  0  0
 29 28  2  0  0  0  0
 29 26  1  0  0  0  0
 30 31  1  0  0  0  0
 31 28  1  0  0  0  0
M  END
>  <MODEL>
9

>  <REMARK>
 VINA RESULT:      -5.7      2.449      6.410
  Name = 
  13 active torsions:
  status: ('A' for Active; 'I' for Inactive)
    1  A    between atoms: C_1  and  O_10
    2  A    between atoms: C_2  and  C_26
    3  A    between atoms: C_2  and  C_31
    4  A    between atoms: C_6  and  C_29
    5  A    between atoms: C_7  and  C_22
    6  A    between atoms: C_7  and  C_25
    7  A    between atoms: C_8  and  C_22
    8  A    between atoms: O_10  and  C_19
    9  A    between atoms: C_11  and  C_29
   10  A    between atoms: O_14  and  C_24
   11  A    between atoms: N_17  and  C_31
   12  A    between atoms: C_20  and  C_25
   13  A    between atoms: C_26  and  C_29
                            x       y       z     vdW  Elec       q    Type
                         _______ _______ _______ _____ _____    ______ ____

>  <TORSDO>
F 13

$$$$
