=
 OpenBabel11062421343D

 55 58  0  0  1  0  0  0  0  0999 V2000
  188.1750  176.0130  142.4080 C   0  0  2  0  0  3  0  0  0  0  0  0
  188.7590  176.6400  143.6640 C   0  0  0  0  0  2  0  0  0  0  0  0
  187.8500  176.4010  144.8650 C   0  0  0  0  0  2  0  0  0  0  0  0
  188.2740  177.2210  146.0860 C   0  0  2  0  0  3  0  0  0  0  0  0
  189.6380  176.9080  146.4970 N   0  0  0  0  0  2  0  0  0  0  0  0
  190.0140  175.6630  147.0940 C   0  0  0  0  0  0  0  0  0  0  0  0
  189.1980  174.7050  147.1370 O   0  0  0  0  0  0  0  0  0  0  0  0
  192.9940  177.2930  147.4940 O   0  0  0  0  0  0  0  0  0  0  0  0
  194.3230  175.2550  144.6240 C   0  0  2  0  0  3  0  0  0  0  0  0
  193.8340  173.9030  145.1890 C   0  0  0  0  0  2  0  0  0  0  0  0
  192.5950  174.0470  146.0420 C   0  0  0  0  0  3  0  0  0  0  0  0
  195.7350  175.1220  144.0950 C   0  0  0  0  0  1  0  0  0  0  0  0
  191.3430  177.5170  149.1180 O   0  0  0  0  0  0  0  0  0  0  0  0
  191.8710  176.8510  148.1890 C   0  0  0  0  0  0  0  0  0  0  0  0
  191.3620  175.5090  147.7260 C   0  0  2  0  0  3  0  0  0  0  0  0
  193.3000  176.3160  146.5680 C   0  0  0  0  0  0  0  0  0  0  0  0
  194.2510  176.3720  145.6420 C   0  0  0  0  0  3  0  0  0  0  0  0
  192.4060  175.1880  146.7040 C   0  0  0  0  0  0  0  0  0  0  0  0
  187.2950  177.0950  147.2570 C   0  0  0  0  0  2  0  0  0  0  0  0
  185.3630  178.8830  147.0210 C   0  0  0  0  0  1  0  0  0  0  0  0
  185.5420  177.0960  146.7490 S   0  0  0  0  0  0  0  0  0  0  0  0
  189.0050  174.8090  141.9310 C   0  0  1  0  0  3  0  0  0  0  0  0
  190.5850  173.4450  143.3040 C   0  0  0  0  0  1  0  0  0  0  0  0
  189.1280  173.6770  142.9620 C   0  0  0  0  0  3  0  0  0  0  0  0
  188.5070  172.3760  142.4850 C   0  0  0  0  0  1  0  0  0  0  0  0
  188.5600  174.3370  140.6880 O   0  0  0  0  0  0  0  0  0  0  0  0
  189.7010  174.2890  139.8790 C   0  0  0  0  0  2  0  0  0  0  0  0
  189.2220  172.9890  136.3960 O   0  0  0  0  0  1  0  0  0  0  0  0
  188.1540  173.1390  138.4170 O   0  0  0  0  0  0  0  0  0  0  0  0
  188.9580  173.8250  137.4820 C   0  0  1  0  0  3  0  0  0  0  0  0
  189.5140  173.2880  138.7510 C   0  0  1  0  0  0  0  0  0  0  0  0
  189.4260  170.8800  138.7140 O   0  0  0  0  0  1  0  0  0  0  0  0
  190.3010  171.9640  138.8040 C   0  0  2  0  0  3  0  0  0  0  0  0
  193.1750  172.9050  138.9170 C   0  0  1  0  0  3  0  0  0  0  0  0
  192.4700  172.2040  140.0320 C   0  0  0  0  0  0  0  0  0  0  0  0
  191.1880  171.8190  140.0090 C   0  0  0  0  0  3  0  0  0  0  0  0
  194.4380  173.0930  141.0370 C   0  0  0  0  0  2  0  0  0  0  0  0
  194.5050  173.3550  139.5320 C   0  0  2  0  0  3  0  0  0  0  0  0
  193.2670  172.1540  141.2850 C   0  0  2  0  0  3  0  0  0  0  0  0
  194.8530  174.7530  139.2440 N   0  0  0  0  0  0  0  0  0  0  0  0
  194.6830  175.5940  140.4240 C   0  0  0  0  0  1  0  0  0  0  0  0
  193.9900  175.2070  138.3040 O   0  0  0  0  0  1  0  0  0  0  0  0
  193.4070  172.0100  137.6950 C   0  0  0  0  0  2  0  0  0  0  0  0
  194.6980  171.2070  137.7800 C   0  0  0  0  0  1  0  0  0  0  0  0
  193.7550  170.8010  141.4990 N   0  0  0  0  0  2  0  0  0  0  0  0
  194.5610  170.8320  142.6470 N   0  0  0  0  0  2  0  0  0  0  0  0
  193.7220  170.4170  143.7590 C   0  0  0  0  0  1  0  0  0  0  0  0
  188.0220  177.0600  141.3000 C   0  0  0  0  0  2  0  0  0  0  0  0
  186.6050  176.9400  139.2250 C   0  0  0  0  0  1  0  0  0  0  0  0
  186.6020  177.1290  140.7320 C   0  0  2  0  0  3  0  0  0  0  0  0
  185.9870  178.3400  141.0660 O   0  0  0  0  0  0  0  0  0  0  0  0
  185.1780  178.0520  142.1670 C   0  0  1  0  0  3  0  0  0  0  0  0
  185.5630  178.9500  143.3320 C   0  0  0  0  0  1  0  0  0  0  0  0
  183.5540  178.1440  140.4230 O   0  0  0  0  0  1  0  0  0  0  0  0
  183.7260  178.2840  141.8000 C   0  0  0  0  0  2  0  0  0  0  0  0
  1 48  1  6  0  0  0
  1  2  1  0  0  0  0
  2  3  1  0  0  0  0
  4  3  1  6  0  0  0
  4  5  1  0  0  0  0
  4 19  1  0  0  0  0
  5  6  1  0  0  0  0
  6  7  2  0  0  0  0
  8 14  1  0  0  0  0
  9 12  1  1  0  0  0
  9 10  1  0  0  0  0
  9 17  1  0  0  0  0
 10 11  1  0  0  0  0
 11 18  2  0  0  0  0
 14 13  2  0  0  0  0
 15  6  1  6  0  0  0
 15 14  1  0  0  0  0
 16 18  1  0  0  0  0
 16  8  1  0  0  0  0
 17 16  2  0  0  0  0
 18 15  1  0  0  0  0
 21 20  1  0  0  0  0
 21 19  1  0  0  0  0
 22 26  1  6  0  0  0
 22  1  1  0  0  0  0
 22 24  1  0  0  0  0
 24 23  1  0  0  0  0
 25 24  1  0  0  0  0
 27 26  1  0  0  0  0
 29 31  1  0  0  0  0
 30 28  1  6  0  0  0
 30 29  1  0  0  0  0
 30 31  1  0  0  0  0
 31 33  1  0  0  0  0
 31 27  1  1  0  0  0
 33 32  1  1  0  0  0
 33 36  1  0  0  0  0
 34 43  1  6  0  0  0
 34 38  1  0  0  0  0
 34 35  1  0  0  0  0
 35 39  1  0  0  0  0
 36 35  2  0  0  0  0
 37 39  1  0  0  0  0
 38 40  1  1  0  0  0
 38 37  1  0  0  0  0
 39 45  1  6  0  0  0
 40 41  1  0  0  0  0
 42 40  1  0  0  0  0
 43 44  1  0  0  0  0
 45 46  1  0  0  0  0
 46 47  1  0  0  0  0
 50 49  1  6  0  0  0
 50 51  1  0  0  0  0
 50 48  1  0  0  0  0
 51 52  1  0  0  0  0
 52 53  1  1  0  0  0
 54 55  1  0  0  0  0
 55 52  1  0  0  0  0
M  END
>  <MODEL>
1

>  <REMARK>
 VINA RESULT:      -5.8      0.000      0.000
  Name = 
  23 active torsions:
  status: ('A' for Active; 'I' for Inactive)
    1  A    between atoms: N_2  and  N_39
    2  A    between atoms: N_2  and  C_51
    3  A    between atoms: N_3  and  C_42
    4  A    between atoms: C_4  and  C_11
    5  A    between atoms: C_6  and  O_30
    6  A    between atoms: C_6  and  C_49
    7  A    between atoms: C_8  and  C_41
    8  A    between atoms: C_8  and  S_50
    9  A    between atoms: C_9  and  C_25
   10  A    between atoms: N_12  and  C_41
   11  A    between atoms: C_13  and  C_28
   12  A    between atoms: C_13  and  C_53
   13  A    between atoms: C_15  and  C_16
   14  A    between atoms: C_15  and  C_41
   15  A    between atoms: C_16  and  C_35
   16  A    between atoms: O_17  and  C_25
   17  A    between atoms: O_17  and  C_29
   18  A    between atoms: C_23  and  C_32
   19  A    between atoms: C_23  and  C_35
   20  A    between atoms: C_25  and  C_35
   21  A    between atoms: C_27  and  C_44
   22  A    between atoms: C_29  and  C_53
   23  A    between atoms: O_30  and  C_32
                            x       y       z     vdW  Elec       q    Type
                         _______ _______ _______ _____ _____    ______ ____

>  <TORSDO>
F 23

$$$$
=
 OpenBabel11062421343D

 55 58  0  0  1  0  0  0  0  0999 V2000
  188.8180  175.2680  142.5280 C   0  0  2  0  0  3  0  0  0  0  0  0
  189.1340  176.2120  143.6770 C   0  0  0  0  0  2  0  0  0  0  0  0
  188.0180  176.1970  144.7160 C   0  0  0  0  0  2  0  0  0  0  0  0
  188.3720  177.0180  145.9600 C   0  0  2  0  0  3  0  0  0  0  0  0
  189.7380  176.7600  146.4040 N   0  0  0  0  0  2  0  0  0  0  0  0
  190.1550  175.5190  146.9820 C   0  0  0  0  0  0  0  0  0  0  0  0
  189.3850  174.5220  146.9780 O   0  0  0  0  0  0  0  0  0  0  0  0
  193.0450  177.2730  147.4990 O   0  0  0  0  0  0  0  0  0  0  0  0
  194.5470  175.3550  144.6330 C   0  0  2  0  0  3  0  0  0  0  0  0
  194.1050  173.9710  145.1580 C   0  0  0  0  0  2  0  0  0  0  0  0
  192.8360  174.0430  145.9760 C   0  0  0  0  0  3  0  0  0  0  0  0
  195.9780  175.2960  144.1430 C   0  0  0  0  0  1  0  0  0  0  0  0
  191.3400  177.3900  149.0780 O   0  0  0  0  0  0  0  0  0  0  0  0
  191.9240  176.7670  148.1530 C   0  0  0  0  0  0  0  0  0  0  0  0
  191.4910  175.4130  147.6510 C   0  0  2  0  0  3  0  0  0  0  0  0
  193.4220  176.3300  146.5660 C   0  0  0  0  0  0  0  0  0  0  0  0
  194.3960  176.4470  145.6690 C   0  0  0  0  0  3  0  0  0  0  0  0
  192.5760  175.1600  146.6530 C   0  0  0  0  0  0  0  0  0  0  0  0
  187.3690  176.8320  147.1010 C   0  0  0  0  0  2  0  0  0  0  0  0
  184.8480  177.2430  146.4210 C   0  0  0  0  0  1  0  0  0  0  0  0
  186.1610  178.1930  147.2430 S   0  0  0  0  0  0  0  0  0  0  0  0
  189.8210  174.1040  142.4510 C   0  0  1  0  0  3  0  0  0  0  0  0
  187.7010  172.8680  141.9830 C   0  0  0  0  0  1  0  0  0  0  0  0
  189.1740  172.7190  142.3030 C   0  0  0  0  0  3  0  0  0  0  0  0
  189.3380  171.8570  143.5420 C   0  0  0  0  0  1  0  0  0  0  0  0
  190.7990  174.3310  141.4730 O   0  0  0  0  0  0  0  0  0  0  0  0
  192.0240  174.2550  142.1460 C   0  0  0  0  0  2  0  0  0  0  0  0
  195.2960  174.8060  140.4030 O   0  0  0  0  0  1  0  0  0  0  0  0
  193.0340  174.8760  140.0380 O   0  0  0  0  0  0  0  0  0  0  0  0
  194.0690  175.1950  140.9440 C   0  0  1  0  0  3  0  0  0  0  0  0
  193.1610  174.0380  141.1640 C   0  0  1  0  0  0  0  0  0  0  0  0
  193.5550  172.3890  139.4510 O   0  0  0  0  0  1  0  0  0  0  0  0
  193.5830  172.5930  140.8320 C   0  0  2  0  0  3  0  0  0  0  0  0
  194.7090  170.6780  142.8870 C   0  0  1  0  0  3  0  0  0  0  0  0
  193.2940  170.6700  142.4090 C   0  0  0  0  0  0  0  0  0  0  0  0
  192.7740  171.5370  141.5310 C   0  0  0  0  0  3  0  0  0  0  0  0
  193.2730  169.2970  144.3550 C   0  0  0  0  0  2  0  0  0  0  0  0
  194.7200  169.6840  144.0540 C   0  0  2  0  0  3  0  0  0  0  0  0
  192.4280  169.7280  143.1650 C   0  0  2  0  0  3  0  0  0  0  0  0
  195.4050  170.1830  145.2550 N   0  0  0  0  0  0  0  0  0  0  0  0
  196.0290  169.0940  145.9970 C   0  0  0  0  0  1  0  0  0  0  0  0
  194.4690  170.7330  146.0640 O   0  0  0  0  0  1  0  0  0  0  0  0
  195.7110  170.2680  141.8030 C   0  0  0  0  0  2  0  0  0  0  0  0
  196.9360  171.1710  141.7510 C   0  0  0  0  0  1  0  0  0  0  0  0
  192.1190  168.5750  142.3350 N   0  0  0  0  0  2  0  0  0  0  0  0
  190.7830  168.7060  141.9300 N   0  0  0  0  0  2  0  0  0  0  0  0
  190.7570  168.4880  140.4930 C   0  0  0  0  0  1  0  0  0  0  0  0
  188.7470  176.0320  141.2020 C   0  0  0  0  0  2  0  0  0  0  0  0
  187.0370  176.2530  139.3690 C   0  0  0  0  0  1  0  0  0  0  0  0
  187.3270  176.4790  140.8430 C   0  0  2  0  0  3  0  0  0  0  0  0
  187.1260  177.8230  141.1740 O   0  0  0  0  0  0  0  0  0  0  0  0
  185.9830  177.8390  141.9760 C   0  0  1  0  0  3  0  0  0  0  0  0
  186.1780  178.8160  143.1230 C   0  0  0  0  0  1  0  0  0  0  0  0
  183.6150  178.1100  141.8820 O   0  0  0  0  0  1  0  0  0  0  0  0
  184.7890  178.2590  141.1420 C   0  0  0  0  0  2  0  0  0  0  0  0
  1 48  1  6  0  0  0
  1  2  1  0  0  0  0
  2  3  1  0  0  0  0
  4  3  1  6  0  0  0
  4  5  1  0  0  0  0
  4 19  1  0  0  0  0
  5  6  1  0  0  0  0
  7  6  2  0  0  0  0
  8 14  1  0  0  0  0
  9 12  1  1  0  0  0
  9 10  1  0  0  0  0
  9 17  1  0  0  0  0
 10 11  1  0  0  0  0
 11 18  2  0  0  0  0
 14 13  2  0  0  0  0
 15  6  1  6  0  0  0
 15 14  1  0  0  0  0
 16 18  1  0  0  0  0
 16  8  1  0  0  0  0
 17 16  2  0  0  0  0
 18 15  1  0  0  0  0
 19 21  1  0  0  0  0
 20 21  1  0  0  0  0
 22 26  1  6  0  0  0
 22  1  1  0  0  0  0
 23 24  1  0  0  0  0
 24 22  1  0  0  0  0
 24 25  1  0  0  0  0
 26 27  1  0  0  0  0
 29 30  1  0  0  0  0
 29 31  1  0  0  0  0
 30 28  1  6  0  0  0
 30 31  1  0  0  0  0
 31 27  1  1  0  0  0
 33 32  1  6  0  0  0
 33 31  1  0  0  0  0
 33 36  1  0  0  0  0
 34 43  1  6  0  0  0
 34 38  1  0  0  0  0
 35 34  1  0  0  0  0
 35 39  1  0  0  0  0
 36 35  2  0  0  0  0
 38 37  1  0  0  0  0
 38 40  1  1  0  0  0
 39 45  1  6  0  0  0
 39 37  1  0  0  0  0
 40 41  1  0  0  0  0
 40 42  1  0  0  0  0
 44 43  1  0  0  0  0
 46 45  1  0  0  0  0
 47 46  1  0  0  0  0
 50 49  1  6  0  0  0
 50 51  1  0  0  0  0
 50 48  1  0  0  0  0
 51 52  1  0  0  0  0
 52 53  1  1  0  0  0
 55 54  1  0  0  0  0
 55 52  1  0  0  0  0
M  END
>  <MODEL>
2

>  <REMARK>
 VINA RESULT:      -5.6      2.148      3.428
  Name = 
  23 active torsions:
  status: ('A' for Active; 'I' for Inactive)
    1  A    between atoms: N_2  and  N_39
    2  A    between atoms: N_2  and  C_51
    3  A    between atoms: N_3  and  C_42
    4  A    between atoms: C_4  and  C_11
    5  A    between atoms: C_6  and  O_30
    6  A    between atoms: C_6  and  C_49
    7  A    between atoms: C_8  and  C_41
    8  A    between atoms: C_8  and  S_50
    9  A    between atoms: C_9  and  C_25
   10  A    between atoms: N_12  and  C_41
   11  A    between atoms: C_13  and  C_28
   12  A    between atoms: C_13  and  C_53
   13  A    between atoms: C_15  and  C_16
   14  A    between atoms: C_15  and  C_41
   15  A    between atoms: C_16  and  C_35
   16  A    between atoms: O_17  and  C_25
   17  A    between atoms: O_17  and  C_29
   18  A    between atoms: C_23  and  C_32
   19  A    between atoms: C_23  and  C_35
   20  A    between atoms: C_25  and  C_35
   21  A    between atoms: C_27  and  C_44
   22  A    between atoms: C_29  and  C_53
   23  A    between atoms: O_30  and  C_32
                            x       y       z     vdW  Elec       q    Type
                         _______ _______ _______ _____ _____    ______ ____

>  <TORSDO>
F 23

$$$$
=
 OpenBabel11062421343D

 55 58  0  0  1  0  0  0  0  0999 V2000
  193.9420  172.6210  144.1180 C   0  0  2  0  0  3  0  0  0  0  0  0
  192.8390  173.0140  145.0880 C   0  0  0  0  0  2  0  0  0  0  0  0
  193.2090  174.2830  145.8480 C   0  0  0  0  0  2  0  0  0  0  0  0
  192.6310  175.5400  145.1930 C   0  0  2  0  0  3  0  0  0  0  0  0
  191.2870  175.3080  144.6750 N   0  0  0  0  0  2  0  0  0  0  0  0
  190.1870  176.1910  144.9170 C   0  0  0  0  0  0  0  0  0  0  0  0
  190.3760  177.3120  145.4590 O   0  0  0  0  0  0  0  0  0  0  0  0
  187.3730  177.2520  143.2910 O   0  0  0  0  0  0  0  0  0  0  0  0
  186.0290  178.3350  146.6330 C   0  0  2  0  0  3  0  0  0  0  0  0
  186.3370  176.9940  147.3370 C   0  0  0  0  0  2  0  0  0  0  0  0
  187.5260  176.2850  146.7320 C   0  0  0  0  0  3  0  0  0  0  0  0
  184.6480  178.8220  147.0180 C   0  0  0  0  0  1  0  0  0  0  0  0
  188.9290  175.9520  142.1500 O   0  0  0  0  0  0  0  0  0  0  0  0
  188.3960  176.3090  143.2340 C   0  0  0  0  0  0  0  0  0  0  0  0
  188.7920  175.7630  144.5830 C   0  0  2  0  0  3  0  0  0  0  0  0
  187.0270  177.3860  144.6200 C   0  0  0  0  0  0  0  0  0  0  0  0
  186.1490  178.2440  145.1280 C   0  0  0  0  0  3  0  0  0  0  0  0
  187.7890  176.4700  145.4390 C   0  0  0  0  0  0  0  0  0  0  0  0
  193.5500  176.1280  144.1180 C   0  0  0  0  0  2  0  0  0  0  0  0
  194.5560  177.5620  146.0970 C   0  0  0  0  0  1  0  0  0  0  0  0
  195.2140  176.5570  144.7330 S   0  0  0  0  0  0  0  0  0  0  0  0
  193.4350  171.6520  143.0370 C   0  0  1  0  0  3  0  0  0  0  0  0
  194.4990  169.6630  141.9620 C   0  0  0  0  0  1  0  0  0  0  0  0
  193.8760  170.1940  143.2360 C   0  0  0  0  0  3  0  0  0  0  0  0
  192.7340  169.2870  143.6580 C   0  0  0  0  0  1  0  0  0  0  0  0
  192.0480  171.7580  142.8580 O   0  0  0  0  0  0  0  0  0  0  0  0
  191.8800  172.4350  141.6450 C   0  0  0  0  0  2  0  0  0  0  0  0
  188.6860  172.4070  139.6840 O   0  0  0  0  0  1  0  0  0  0  0  0
  189.5520  171.7860  141.7130 O   0  0  0  0  0  0  0  0  0  0  0  0
  189.5260  172.7970  140.7290 C   0  0  1  0  0  3  0  0  0  0  0  0
  190.6870  171.8820  140.8850 C   0  0  1  0  0  0  0  0  0  0  0  0
  190.6930  169.4820  140.6690 O   0  0  0  0  0  1  0  0  0  0  0  0
  190.9010  170.6670  139.9610 C   0  0  2  0  0  3  0  0  0  0  0  0
  191.4160  171.7760  137.1930 C   0  0  1  0  0  3  0  0  0  0  0  0
  192.4440  171.0960  138.0370 C   0  0  0  0  0  0  0  0  0  0  0  0
  192.2390  170.6380  139.2780 C   0  0  0  0  0  3  0  0  0  0  0  0
  193.6950  172.1480  136.3040 C   0  0  0  0  0  2  0  0  0  0  0  0
  192.2080  172.3320  136.0050 C   0  0  2  0  0  3  0  0  0  0  0  0
  193.8100  171.1580  137.4550 C   0  0  2  0  0  3  0  0  0  0  0  0
  191.8930  173.7310  135.6810 N   0  0  0  0  0  0  0  0  0  0  0  0
  193.1010  174.4840  135.3620 C   0  0  0  0  0  1  0  0  0  0  0  0
  191.3510  174.2970  136.7860 O   0  0  0  0  0  1  0  0  0  0  0  0
  190.3060  170.8310  136.7220 C   0  0  0  0  0  2  0  0  0  0  0  0
  189.4250  171.4380  135.6380 C   0  0  0  0  0  1  0  0  0  0  0  0
  194.1840  169.8490  136.9440 N   0  0  0  0  0  2  0  0  0  0  0  0
  195.5810  169.7560  137.0350 N   0  0  0  0  0  2  0  0  0  0  0  0
  195.9320  170.0630  138.4120 C   0  0  0  0  0  1  0  0  0  0  0  0
  195.1440  172.0390  144.8710 C   0  0  0  0  0  2  0  0  0  0  0  0
  197.0920  173.3860  145.7200 C   0  0  0  0  0  1  0  0  0  0  0  0
  196.4650  172.7200  144.5060 C   0  0  2  0  0  3  0  0  0  0  0  0
  196.2810  173.6570  143.4840 O   0  0  0  0  0  0  0  0  0  0  0  0
  197.2490  173.3510  142.5240 C   0  0  1  0  0  3  0  0  0  0  0  0
  196.6040  172.6020  141.3700 C   0  0  0  0  0  1  0  0  0  0  0  0
  197.0310  175.2430  141.0880 O   0  0  0  0  0  1  0  0  0  0  0  0
  197.8760  174.6330  142.0160 C   0  0  0  0  0  2  0  0  0  0  0  0
  1 48  1  1  0  0  0
  1  2  1  0  0  0  0
  2  3  1  0  0  0  0
  4 19  1  6  0  0  0
  4  3  1  0  0  0  0
  5  6  1  0  0  0  0
  5  4  1  0  0  0  0
  6  7  2  0  0  0  0
  8 16  1  0  0  0  0
  9 12  1  6  0  0  0
  9 10  1  0  0  0  0
 11 10  1  0  0  0  0
 13 14  2  0  0  0  0
 14  8  1  0  0  0  0
 14 15  1  0  0  0  0
 15  6  1  1  0  0  0
 15 18  1  0  0  0  0
 16 17  2  0  0  0  0
 16 18  1  0  0  0  0
 17  9  1  0  0  0  0
 18 11  2  0  0  0  0
 19 21  1  0  0  0  0
 21 20  1  0  0  0  0
 22 26  1  1  0  0  0
 22 24  1  0  0  0  0
 22  1  1  0  0  0  0
 23 24  1  0  0  0  0
 24 25  1  0  0  0  0
 27 26  1  0  0  0  0
 30 28  1  6  0  0  0
 30 31  1  0  0  0  0
 30 29  1  0  0  0  0
 31 27  1  1  0  0  0
 31 29  1  0  0  0  0
 33 32  1  1  0  0  0
 33 31  1  0  0  0  0
 34 43  1  6  0  0  0
 34 35  1  0  0  0  0
 35 36  2  0  0  0  0
 36 33  1  0  0  0  0
 37 39  1  0  0  0  0
 38 40  1  1  0  0  0
 38 37  1  0  0  0  0
 38 34  1  0  0  0  0
 39 45  1  6  0  0  0
 39 35  1  0  0  0  0
 40 42  1  0  0  0  0
 41 40  1  0  0  0  0
 44 43  1  0  0  0  0
 45 46  1  0  0  0  0
 46 47  1  0  0  0  0
 50 48  1  0  0  0  0
 50 49  1  1  0  0  0
 51 50  1  0  0  0  0
 52 53  1  6  0  0  0
 52 51  1  0  0  0  0
 54 55  1  0  0  0  0
 55 52  1  0  0  0  0
M  END
>  <MODEL>
3

>  <REMARK>
 VINA RESULT:      -5.5      2.920      7.091
  Name = 
  23 active torsions:
  status: ('A' for Active; 'I' for Inactive)
    1  A    between atoms: N_2  and  N_39
    2  A    between atoms: N_2  and  C_51
    3  A    between atoms: N_3  and  C_42
    4  A    between atoms: C_4  and  C_11
    5  A    between atoms: C_6  and  O_30
    6  A    between atoms: C_6  and  C_49
    7  A    between atoms: C_8  and  C_41
    8  A    between atoms: C_8  and  S_50
    9  A    between atoms: C_9  and  C_25
   10  A    between atoms: N_12  and  C_41
   11  A    between atoms: C_13  and  C_28
   12  A    between atoms: C_13  and  C_53
   13  A    between atoms: C_15  and  C_16
   14  A    between atoms: C_15  and  C_41
   15  A    between atoms: C_16  and  C_35
   16  A    between atoms: O_17  and  C_25
   17  A    between atoms: O_17  and  C_29
   18  A    between atoms: C_23  and  C_32
   19  A    between atoms: C_23  and  C_35
   20  A    between atoms: C_25  and  C_35
   21  A    between atoms: C_27  and  C_44
   22  A    between atoms: C_29  and  C_53
   23  A    between atoms: O_30  and  C_32
                            x       y       z     vdW  Elec       q    Type
                         _______ _______ _______ _____ _____    ______ ____

>  <TORSDO>
F 23

$$$$
=
 OpenBabel11062421343D

 55 58  0  0  1  0  0  0  0  0999 V2000
  190.3140  175.3020  144.5770 C   0  0  2  0  0  3  0  0  0  0  0  0
  189.0930  175.0480  143.7060 C   0  0  0  0  0  2  0  0  0  0  0  0
  189.1470  175.8880  142.4360 C   0  0  0  0  0  2  0  0  0  0  0  0
  188.0380  175.5170  141.4470 C   0  0  2  0  0  3  0  0  0  0  0  0
  188.5090  174.5740  140.4390 N   0  0  0  0  0  2  0  0  0  0  0  0
  188.3110  173.1600  140.5300 C   0  0  0  0  0  0  0  0  0  0  0  0
  187.5610  172.6770  141.4200 O   0  0  0  0  0  0  0  0  0  0  0  0
  191.4710  172.2380  139.6020 O   0  0  0  0  0  0  0  0  0  0  0  0
  191.1370  174.5830  136.6800 C   0  0  2  0  0  3  0  0  0  0  0  0
  189.7600  174.0400  136.2350 C   0  0  0  0  0  2  0  0  0  0  0  0
  188.9540  173.4940  137.3910 C   0  0  0  0  0  3  0  0  0  0  0  0
  192.0360  174.7780  135.4780 C   0  0  0  0  0  1  0  0  0  0  0  0
  190.3740  171.0380  141.2670 O   0  0  0  0  0  0  0  0  0  0  0  0
  190.3260  171.7750  140.2470 C   0  0  0  0  0  0  0  0  0  0  0  0
  189.0420  172.2370  139.6050 C   0  0  2  0  0  3  0  0  0  0  0  0
  191.0460  172.9970  138.5310 C   0  0  0  0  0  0  0  0  0  0  0  0
  191.8130  173.6930  137.6980 C   0  0  0  0  0  3  0  0  0  0  0  0
  189.6040  172.9780  138.4340 C   0  0  0  0  0  0  0  0  0  0  0  0
  187.3790  176.7400  140.8040 C   0  0  0  0  0  2  0  0  0  0  0  0
  185.1800  178.1620  140.4460 C   0  0  0  0  0  1  0  0  0  0  0  0
  186.1300  177.5420  141.8660 S   0  0  0  0  0  0  0  0  0  0  0  0
  191.6240  175.0060  143.8270 C   0  0  1  0  0  3  0  0  0  0  0  0
  191.8440  177.4780  144.1170 C   0  0  0  0  0  1  0  0  0  0  0  0
  192.5620  176.2140  143.6920 C   0  0  0  0  0  3  0  0  0  0  0  0
  193.1000  176.3870  142.2830 C   0  0  0  0  0  1  0  0  0  0  0  0
  192.2830  173.8900  144.3620 O   0  0  0  0  0  0  0  0  0  0  0  0
  192.4370  173.0020  143.2910 C   0  0  0  0  0  2  0  0  0  0  0  0
  194.0400  169.6180  143.4730 O   0  0  0  0  0  1  0  0  0  0  0  0
  193.1240  171.2440  144.8030 O   0  0  0  0  0  0  0  0  0  0  0  0
  192.9880  170.5290  143.5940 C   0  0  1  0  0  3  0  0  0  0  0  0
  193.4660  171.9360  143.6260 C   0  0  1  0  0  0  0  0  0  0  0  0
  195.5250  172.4010  144.7890 O   0  0  0  0  0  1  0  0  0  0  0  0
  194.9610  172.2950  143.5160 C   0  0  2  0  0  3  0  0  0  0  0  0
  196.3380  172.3000  140.8210 C   0  0  1  0  0  3  0  0  0  0  0  0
  195.8880  173.5280  141.5430 C   0  0  0  0  0  0  0  0  0  0  0  0
  195.2420  173.5360  142.7160 C   0  0  0  0  0  3  0  0  0  0  0  0
  196.3490  174.2750  139.3290 C   0  0  0  0  0  2  0  0  0  0  0  0
  196.7660  172.8090  139.4400 C   0  0  2  0  0  3  0  0  0  0  0  0
  196.0300  174.7650  140.7340 C   0  0  2  0  0  3  0  0  0  0  0  0
  196.2390  172.0130  138.3220 N   0  0  0  0  0  0  0  0  0  0  0  0
  194.8690  171.5830  138.5790 C   0  0  0  0  0  1  0  0  0  0  0  0
  196.9960  170.8940  138.2200 O   0  0  0  0  0  1  0  0  0  0  0  0
  197.4910  171.5780  141.5250 C   0  0  0  0  0  2  0  0  0  0  0  0
  197.2550  170.0810  141.6750 C   0  0  0  0  0  1  0  0  0  0  0  0
  197.1370  175.5580  141.2430 N   0  0  0  0  0  2  0  0  0  0  0  0
  196.5930  176.7550  141.7340 N   0  0  0  0  0  2  0  0  0  0  0  0
  196.9360  176.8220  143.1450 C   0  0  0  0  0  1  0  0  0  0  0  0
  190.2240  174.5030  145.8820 C   0  0  0  0  0  2  0  0  0  0  0  0
  188.3040  175.5100  147.1590 C   0  0  0  0  0  1  0  0  0  0  0  0
  189.8140  175.3610  147.0820 C   0  0  2  0  0  3  0  0  0  0  0  0
  190.4220  176.6190  147.0290 O   0  0  0  0  0  0  0  0  0  0  0  0
  191.3850  176.6070  148.0400 C   0  0  1  0  0  3  0  0  0  0  0  0
  192.7660  176.4420  147.4270 C   0  0  0  0  0  1  0  0  0  0  0  0
  191.6320  177.6820  150.1550 O   0  0  0  0  0  1  0  0  0  0  0  0
  191.3210  177.9080  148.8140 C   0  0  0  0  0  2  0  0  0  0  0  0
  1  2  1  6  0  0  0
  1 48  1  0  0  0  0
  3  2  1  0  0  0  0
  4 19  1  6  0  0  0
  4  3  1  0  0  0  0
  5  6  1  0  0  0  0
  5  4  1  0  0  0  0
  6  7  2  0  0  0  0
  8 14  1  0  0  0  0
  9 12  1  6  0  0  0
  9 17  1  0  0  0  0
 10  9  1  0  0  0  0
 10 11  1  0  0  0  0
 11 18  2  0  0  0  0
 14 13  2  0  0  0  0
 15 14  1  0  0  0  0
 15  6  1  1  0  0  0
 16  8  1  0  0  0  0
 17 16  2  0  0  0  0
 18 16  1  0  0  0  0
 18 15  1  0  0  0  0
 19 21  1  0  0  0  0
 20 21  1  0  0  0  0
 22 24  1  1  0  0  0
 22 26  1  0  0  0  0
 22  1  1  0  0  0  0
 24 23  1  0  0  0  0
 25 24  1  0  0  0  0
 27 26  1  0  0  0  0
 30 28  1  1  0  0  0
 30 31  1  0  0  0  0
 30 29  1  0  0  0  0
 31 27  1  6  0  0  0
 31 29  1  0  0  0  0
 33 31  1  0  0  0  0
 33 32  1  1  0  0  0
 34 43  1  1  0  0  0
 34 35  1  0  0  0  0
 35 36  2  0  0  0  0
 36 33  1  0  0  0  0
 37 38  1  0  0  0  0
 37 39  1  0  0  0  0
 38 40  1  6  0  0  0
 38 34  1  0  0  0  0
 39 45  1  1  0  0  0
 39 35  1  0  0  0  0
 40 41  1  0  0  0  0
 42 40  1  0  0  0  0
 43 44  1  0  0  0  0
 45 46  1  0  0  0  0
 46 47  1  0  0  0  0
 48 50  1  0  0  0  0
 50 49  1  6  0  0  0
 51 50  1  0  0  0  0
 51 52  1  0  0  0  0
 52 53  1  6  0  0  0
 52 55  1  0  0  0  0
 55 54  1  0  0  0  0
M  END
>  <MODEL>
4

>  <REMARK>
 VINA RESULT:      -5.3      2.820      7.017
  Name = 
  23 active torsions:
  status: ('A' for Active; 'I' for Inactive)
    1  A    between atoms: N_2  and  N_39
    2  A    between atoms: N_2  and  C_51
    3  A    between atoms: N_3  and  C_42
    4  A    between atoms: C_4  and  C_11
    5  A    between atoms: C_6  and  O_30
    6  A    between atoms: C_6  and  C_49
    7  A    between atoms: C_8  and  C_41
    8  A    between atoms: C_8  and  S_50
    9  A    between atoms: C_9  and  C_25
   10  A    between atoms: N_12  and  C_41
   11  A    between atoms: C_13  and  C_28
   12  A    between atoms: C_13  and  C_53
   13  A    between atoms: C_15  and  C_16
   14  A    between atoms: C_15  and  C_41
   15  A    between atoms: C_16  and  C_35
   16  A    between atoms: O_17  and  C_25
   17  A    between atoms: O_17  and  C_29
   18  A    between atoms: C_23  and  C_32
   19  A    between atoms: C_23  and  C_35
   20  A    between atoms: C_25  and  C_35
   21  A    between atoms: C_27  and  C_44
   22  A    between atoms: C_29  and  C_53
   23  A    between atoms: O_30  and  C_32
                            x       y       z     vdW  Elec       q    Type
                         _______ _______ _______ _____ _____    ______ ____

>  <TORSDO>
F 23

$$$$
=
 OpenBabel11062421343D

 55 58  0  0  1  0  0  0  0  0999 V2000
  191.6350  174.3190  143.3950 C   0  0  2  0  0  3  0  0  0  0  0  0
  190.9480  174.5650  144.7290 C   0  0  0  0  0  2  0  0  0  0  0  0
  189.9290  175.6930  144.6170 C   0  0  0  0  0  2  0  0  0  0  0  0
  189.7540  176.4500  145.9360 C   0  0  2  0  0  3  0  0  0  0  0  0
  188.8870  177.6120  145.7790 N   0  0  0  0  0  2  0  0  0  0  0  0
  187.4580  177.5290  145.7460 C   0  0  0  0  0  0  0  0  0  0  0  0
  186.8760  176.4480  146.0250 O   0  0  0  0  0  0  0  0  0  0  0  0
  184.2260  178.5160  145.2230 O   0  0  0  0  0  0  0  0  0  0  0  0
  184.7640  177.8230  141.5650 C   0  0  2  0  0  3  0  0  0  0  0  0
  186.0840  178.6200  141.4750 C   0  0  0  0  0  2  0  0  0  0  0  0
  186.8400  178.6330  142.7830 C   0  0  0  0  0  3  0  0  0  0  0  0
  183.8820  178.1340  140.3740 C   0  0  0  0  0  1  0  0  0  0  0  0
  185.2150  178.8950  147.2950 O   0  0  0  0  0  0  0  0  0  0  0  0
  185.3260  178.7190  146.0530 C   0  0  0  0  0  0  0  0  0  0  0  0
  186.6450  178.7130  145.3220 C   0  0  2  0  0  3  0  0  0  0  0  0
  184.7150  178.3750  143.9400 C   0  0  0  0  0  0  0  0  0  0  0  0
  184.0120  178.0840  142.8510 C   0  0  0  0  0  3  0  0  0  0  0  0
  186.1500  178.5540  143.9200 C   0  0  0  0  0  0  0  0  0  0  0  0
  191.0880  176.8330  146.5840 C   0  0  0  0  0  2  0  0  0  0  0  0
  191.4030  177.7920  149.0270 C   0  0  0  0  0  1  0  0  0  0  0  0
  191.3090  176.1470  148.2610 S   0  0  0  0  0  0  0  0  0  0  0  0
  190.9780  173.1650  142.6170 C   0  0  1  0  0  3  0  0  0  0  0  0
  191.3380  170.6950  142.7130 C   0  0  0  0  0  1  0  0  0  0  0  0
  190.7600  171.8890  143.4440 C   0  0  0  0  0  3  0  0  0  0  0  0
  189.2970  171.6330  143.7550 C   0  0  0  0  0  1  0  0  0  0  0  0
  189.8020  173.5800  141.9760 O   0  0  0  0  0  0  0  0  0  0  0  0
  190.2230  174.2100  140.8000 C   0  0  0  0  0  2  0  0  0  0  0  0
  188.5770  173.4760  137.5130 O   0  0  0  0  0  1  0  0  0  0  0  0
  188.4660  172.9330  139.7370 O   0  0  0  0  0  0  0  0  0  0  0  0
  188.6390  173.9850  138.8120 C   0  0  1  0  0  3  0  0  0  0  0  0
  189.7780  173.4200  139.5810 C   0  0  1  0  0  0  0  0  0  0  0  0
  190.2850  171.1050  139.1440 O   0  0  0  0  0  1  0  0  0  0  0  0
  190.7600  172.4050  138.9630 C   0  0  2  0  0  3  0  0  0  0  0  0
  193.0610  173.5130  137.3380 C   0  0  1  0  0  3  0  0  0  0  0  0
  193.1870  172.9760  138.7270 C   0  0  0  0  0  0  0  0  0  0  0  0
  192.1700  172.5210  139.4700 C   0  0  0  0  0  3  0  0  0  0  0  0
  195.2330  174.1340  138.3480 C   0  0  0  0  0  2  0  0  0  0  0  0
  194.4300  174.1360  137.0480 C   0  0  2  0  0  3  0  0  0  0  0  0
  194.5350  173.1870  139.3140 C   0  0  2  0  0  3  0  0  0  0  0  0
  194.3600  175.4810  136.4600 N   0  0  0  0  0  0  0  0  0  0  0  0
  192.9900  175.9810  136.4460 C   0  0  0  0  0  1  0  0  0  0  0  0
  194.7640  175.3890  135.1700 O   0  0  0  0  0  1  0  0  0  0  0  0
  192.7140  172.4340  136.3060 C   0  0  0  0  0  2  0  0  0  0  0  0
  191.5080  172.7940  135.4490 C   0  0  0  0  0  1  0  0  0  0  0  0
  195.2490  171.9220  139.3670 N   0  0  0  0  0  2  0  0  0  0  0  0
  196.0360  171.9420  140.5280 N   0  0  0  0  0  2  0  0  0  0  0  0
  195.1680  171.5600  141.6290 C   0  0  0  0  0  1  0  0  0  0  0  0
  193.1350  174.0770  143.5930 C   0  0  0  0  0  2  0  0  0  0  0  0
  193.3360  176.0710  142.0710 C   0  0  0  0  0  1  0  0  0  0  0  0
  193.9950  175.2770  143.1870 C   0  0  2  0  0  3  0  0  0  0  0  0
  195.2740  174.8670  142.7980 O   0  0  0  0  0  0  0  0  0  0  0  0
  196.1370  175.3770  143.7700 C   0  0  1  0  0  3  0  0  0  0  0  0
  196.6560  176.7360  143.3300 C   0  0  0  0  0  1  0  0  0  0  0  0
  195.9450  174.6570  146.0360 O   0  0  0  0  0  1  0  0  0  0  0  0
  195.3930  175.5130  145.0830 C   0  0  0  0  0  2  0  0  0  0  0  0
  1 48  1  1  0  0  0
  1  2  1  0  0  0  0
  3  2  1  0  0  0  0
  4  3  1  6  0  0  0
  4 19  1  0  0  0  0
  5  4  1  0  0  0  0
  6  5  1  0  0  0  0
  6  7  2  0  0  0  0
  8 14  1  0  0  0  0
  9 12  1  6  0  0  0
  9 17  1  0  0  0  0
 10  9  1  0  0  0  0
 10 11  1  0  0  0  0
 11 18  2  0  0  0  0
 14 13  2  0  0  0  0
 15  6  1  1  0  0  0
 15 14  1  0  0  0  0
 16  8  1  0  0  0  0
 17 16  2  0  0  0  0
 18 16  1  0  0  0  0
 18 15  1  0  0  0  0
 19 21  1  0  0  0  0
 21 20  1  0  0  0  0
 22 26  1  1  0  0  0
 22  1  1  0  0  0  0
 22 24  1  0  0  0  0
 23 24  1  0  0  0  0
 24 25  1  0  0  0  0
 27 26  1  0  0  0  0
 30 28  1  6  0  0  0
 30 31  1  0  0  0  0
 30 29  1  0  0  0  0
 31 29  1  0  0  0  0
 31 27  1  1  0  0  0
 33 32  1  1  0  0  0
 33 36  1  0  0  0  0
 33 31  1  0  0  0  0
 34 43  1  6  0  0  0
 34 35  1  0  0  0  0
 35 39  1  0  0  0  0
 35 36  2  0  0  0  0
 37 39  1  0  0  0  0
 38 40  1  1  0  0  0
 38 34  1  0  0  0  0
 38 37  1  0  0  0  0
 39 45  1  6  0  0  0
 41 40  1  0  0  0  0
 42 40  1  0  0  0  0
 44 43  1  0  0  0  0
 45 46  1  0  0  0  0
 46 47  1  0  0  0  0
 50 49  1  6  0  0  0
 50 48  1  0  0  0  0
 51 50  1  0  0  0  0
 51 52  1  0  0  0  0
 52 53  1  6  0  0  0
 52 55  1  0  0  0  0
 55 54  1  0  0  0  0
M  END
>  <MODEL>
5

>  <REMARK>
 VINA RESULT:      -5.3      2.300      6.141
  Name = 
  23 active torsions:
  status: ('A' for Active; 'I' for Inactive)
    1  A    between atoms: N_2  and  N_39
    2  A    between atoms: N_2  and  C_51
    3  A    between atoms: N_3  and  C_42
    4  A    between atoms: C_4  and  C_11
    5  A    between atoms: C_6  and  O_30
    6  A    between atoms: C_6  and  C_49
    7  A    between atoms: C_8  and  C_41
    8  A    between atoms: C_8  and  S_50
    9  A    between atoms: C_9  and  C_25
   10  A    between atoms: N_12  and  C_41
   11  A    between atoms: C_13  and  C_28
   12  A    between atoms: C_13  and  C_53
   13  A    between atoms: C_15  and  C_16
   14  A    between atoms: C_15  and  C_41
   15  A    between atoms: C_16  and  C_35
   16  A    between atoms: O_17  and  C_25
   17  A    between atoms: O_17  and  C_29
   18  A    between atoms: C_23  and  C_32
   19  A    between atoms: C_23  and  C_35
   20  A    between atoms: C_25  and  C_35
   21  A    between atoms: C_27  and  C_44
   22  A    between atoms: C_29  and  C_53
   23  A    between atoms: O_30  and  C_32
                            x       y       z     vdW  Elec       q    Type
                         _______ _______ _______ _____ _____    ______ ____

>  <TORSDO>
F 23

$$$$
=
 OpenBabel11062421343D

 55 58  0  0  1  0  0  0  0  0999 V2000
  190.7040  173.8410  140.4000 C   0  0  2  0  0  3  0  0  0  0  0  0
  192.0380  173.3920  140.9770 C   0  0  0  0  0  2  0  0  0  0  0  0
  192.9720  172.9080  139.8740 C   0  0  0  0  0  2  0  0  0  0  0  0
  194.3730  172.5840  140.4010 C   0  0  2  0  0  3  0  0  0  0  0  0
  194.4210  172.6210  141.8580 N   0  0  0  0  0  2  0  0  0  0  0  0
  194.8170  171.5040  142.6610 C   0  0  0  0  0  0  0  0  0  0  0  0
  195.3100  170.4770  142.1250 O   0  0  0  0  0  0  0  0  0  0  0  0
  192.4900  172.3700  145.0130 O   0  0  0  0  0  0  0  0  0  0  0  0
  194.3510  175.6110  145.4450 C   0  0  2  0  0  3  0  0  0  0  0  0
  195.7370  174.9450  145.6010 C   0  0  0  0  0  2  0  0  0  0  0  0
  195.8340  173.6340  144.8540 C   0  0  0  0  0  3  0  0  0  0  0  0
  194.1780  176.7040  146.4780 C   0  0  0  0  0  1  0  0  0  0  0  0
  192.5540  170.1840  144.2190 O   0  0  0  0  0  0  0  0  0  0  0  0
  193.1390  171.2750  144.4460 C   0  0  0  0  0  0  0  0  0  0  0  0
  194.5940  171.5250  144.1410 C   0  0  2  0  0  3  0  0  0  0  0  0
  193.4290  173.3750  145.1260 C   0  0  0  0  0  0  0  0  0  0  0  0
  193.2130  174.6190  145.5410 C   0  0  0  0  0  3  0  0  0  0  0  0
  194.7270  172.9110  144.6890 C   0  0  0  0  0  0  0  0  0  0  0  0
  195.4610  173.4670  139.7830 C   0  0  0  0  0  2  0  0  0  0  0  0
  196.4930  175.6800  140.7940 C   0  0  0  0  0  1  0  0  0  0  0  0
  195.0470  175.2450  139.7830 S   0  0  0  0  0  0  0  0  0  0  0  0
  189.6280  173.9850  141.4900 C   0  0  1  0  0  3  0  0  0  0  0  0
  189.1000  171.9880  142.8960 C   0  0  0  0  0  1  0  0  0  0  0  0
  189.9460  173.2390  142.7950 C   0  0  0  0  0  3  0  0  0  0  0  0
  189.7310  174.0970  144.0290 C   0  0  0  0  0  1  0  0  0  0  0  0
  189.3060  175.3290  141.7220 O   0  0  0  0  0  0  0  0  0  0  0  0
  187.9280  175.4240  141.5000 C   0  0  0  0  0  2  0  0  0  0  0  0
  185.6690  178.3930  141.1360 O   0  0  0  0  0  1  0  0  0  0  0  0
  187.3590  177.2820  140.0600 O   0  0  0  0  0  0  0  0  0  0  0  0
  186.1660  177.1330  140.8000 C   0  0  1  0  0  3  0  0  0  0  0  0
  187.5020  176.8790  141.4020 C   0  0  1  0  0  0  0  0  0  0  0  0
  189.2990  178.4680  141.6350 O   0  0  0  0  0  1  0  0  0  0  0  0
  188.2040  177.9150  142.3010 C   0  0  2  0  0  3  0  0  0  0  0  0
  186.5030  178.0840  144.7990 C   0  0  1  0  0  3  0  0  0  0  0  0
  187.8770  177.5020  144.7500 C   0  0  0  0  0  0  0  0  0  0  0  0
  188.6230  177.3850  143.6440 C   0  0  0  0  0  3  0  0  0  0  0  0
  187.0040  176.7900  146.8480 C   0  0  0  0  0  2  0  0  0  0  0  0
  185.9970  177.7430  146.2050 C   0  0  2  0  0  3  0  0  0  0  0  0
  188.2810  176.8520  146.0230 C   0  0  2  0  0  3  0  0  0  0  0  0
  184.6370  177.1860  146.2310 N   0  0  0  0  0  0  0  0  0  0  0  0
  183.7120  178.0830  146.9150 C   0  0  0  0  0  1  0  0  0  0  0  0
  184.6770  176.0350  146.9430 O   0  0  0  0  0  1  0  0  0  0  0  0
  186.4820  179.5970  144.5560 C   0  0  0  0  0  2  0  0  0  0  0  0
  185.0890  180.1340  144.2550 C   0  0  0  0  0  1  0  0  0  0  0  0
  189.2680  177.6770  146.7010 N   0  0  0  0  0  2  0  0  0  0  0  0
  190.4950  177.0010  146.6200 N   0  0  0  0  0  2  0  0  0  0  0  0
  190.8620  176.6340  147.9770 C   0  0  0  0  0  1  0  0  0  0  0  0
  190.2480  172.8920  139.2870 C   0  0  0  0  0  2  0  0  0  0  0  0
  188.3130  174.0160  138.1370 C   0  0  0  0  0  1  0  0  0  0  0  0
  189.7770  173.6260  138.0290 C   0  0  2  0  0  3  0  0  0  0  0  0
  189.9860  172.8470  136.8860 O   0  0  0  0  0  0  0  0  0  0  0  0
  190.9090  173.5580  136.1170 C   0  0  1  0  0  3  0  0  0  0  0  0
  191.4990  172.6460  135.0550 C   0  0  0  0  0  1  0  0  0  0  0  0
  191.1000  175.8050  135.3380 O   0  0  0  0  0  1  0  0  0  0  0  0
  190.2150  174.7330  135.4560 C   0  0  0  0  0  2  0  0  0  0  0  0
  1 48  1  6  0  0  0
  1  2  1  0  0  0  0
  1 22  1  0  0  0  0
  3  4  1  0  0  0  0
  3  2  1  0  0  0  0
  4 19  1  6  0  0  0
  4  5  1  0  0  0  0
  5  6  1  0  0  0  0
  7  6  2  0  0  0  0
  8 16  1  0  0  0  0
  9 17  1  0  0  0  0
  9 10  1  0  0  0  0
  9 12  1  1  0  0  0
 11 10  1  0  0  0  0
 13 14  2  0  0  0  0
 14  8  1  0  0  0  0
 15  6  1  6  0  0  0
 15 14  1  0  0  0  0
 15 18  1  0  0  0  0
 16 17  2  0  0  0  0
 18 11  2  0  0  0  0
 18 16  1  0  0  0  0
 19 21  1  0  0  0  0
 21 20  1  0  0  0  0
 22 26  1  1  0  0  0
 22 24  1  0  0  0  0
 24 23  1  0  0  0  0
 24 25  1  0  0  0  0
 27 26  1  0  0  0  0
 29 30  1  0  0  0  0
 29 31  1  0  0  0  0
 30 28  1  1  0  0  0
 30 31  1  0  0  0  0
 31 27  1  1  0  0  0
 31 33  1  0  0  0  0
 33 32  1  6  0  0  0
 33 36  1  0  0  0  0
 34 43  1  1  0  0  0
 34 38  1  0  0  0  0
 35 34  1  0  0  0  0
 35 39  1  0  0  0  0
 36 35  2  0  0  0  0
 38 40  1  6  0  0  0
 38 37  1  0  0  0  0
 39 45  1  1  0  0  0
 39 37  1  0  0  0  0
 40 41  1  0  0  0  0
 40 42  1  0  0  0  0
 44 43  1  0  0  0  0
 46 45  1  0  0  0  0
 46 47  1  0  0  0  0
 50 49  1  1  0  0  0
 50 48  1  0  0  0  0
 51 50  1  0  0  0  0
 52 53  1  6  0  0  0
 52 51  1  0  0  0  0
 54 55  1  0  0  0  0
 55 52  1  0  0  0  0
M  END
>  <MODEL>
6

>  <REMARK>
 VINA RESULT:      -5.2      2.714      8.041
  Name = 
  23 active torsions:
  status: ('A' for Active; 'I' for Inactive)
    1  A    between atoms: N_2  and  N_39
    2  A    between atoms: N_2  and  C_51
    3  A    between atoms: N_3  and  C_42
    4  A    between atoms: C_4  and  C_11
    5  A    between atoms: C_6  and  O_30
    6  A    between atoms: C_6  and  C_49
    7  A    between atoms: C_8  and  C_41
    8  A    between atoms: C_8  and  S_50
    9  A    between atoms: C_9  and  C_25
   10  A    between atoms: N_12  and  C_41
   11  A    between atoms: C_13  and  C_28
   12  A    between atoms: C_13  and  C_53
   13  A    between atoms: C_15  and  C_16
   14  A    between atoms: C_15  and  C_41
   15  A    between atoms: C_16  and  C_35
   16  A    between atoms: O_17  and  C_25
   17  A    between atoms: O_17  and  C_29
   18  A    between atoms: C_23  and  C_32
   19  A    between atoms: C_23  and  C_35
   20  A    between atoms: C_25  and  C_35
   21  A    between atoms: C_27  and  C_44
   22  A    between atoms: C_29  and  C_53
   23  A    between atoms: O_30  and  C_32
                            x       y       z     vdW  Elec       q    Type
                         _______ _______ _______ _____ _____    ______ ____

>  <TORSDO>
F 23

$$$$
=
 OpenBabel11062421343D

 55 58  0  0  1  0  0  0  0  0999 V2000
  194.4530  172.5940  144.0270 C   0  0  2  0  0  3  0  0  0  0  0  0
  193.6230  172.9890  145.2380 C   0  0  0  0  0  2  0  0  0  0  0  0
  194.2060  174.2230  145.9180 C   0  0  0  0  0  2  0  0  0  0  0  0
  193.1350  175.0520  146.6330 C   0  0  2  0  0  3  0  0  0  0  0  0
  191.8350  174.9270  145.9820 N   0  0  0  0  0  2  0  0  0  0  0  0
  190.5950  174.9360  146.6960 C   0  0  0  0  0  0  0  0  0  0  0  0
  190.5660  175.2250  147.9220 O   0  0  0  0  0  0  0  0  0  0  0  0
  189.3710  174.0690  143.6220 O   0  0  0  0  0  0  0  0  0  0  0  0
  188.2520  177.6390  143.2260 C   0  0  2  0  0  3  0  0  0  0  0  0
  187.5530  177.7090  144.6020 C   0  0  0  0  0  2  0  0  0  0  0  0
  188.1910  176.7930  145.6200 C   0  0  0  0  0  3  0  0  0  0  0  0
  187.3820  178.2760  142.1640 C   0  0  0  0  0  1  0  0  0  0  0  0
  190.0600  172.4000  145.0890 O   0  0  0  0  0  0  0  0  0  0  0  0
  189.6250  173.5660  144.8960 C   0  0  0  0  0  0  0  0  0  0  0  0
  189.3260  174.5440  146.0040 C   0  0  2  0  0  3  0  0  0  0  0  0
  188.8990  175.3550  143.7890 C   0  0  0  0  0  0  0  0  0  0  0  0
  188.6120  176.2250  142.8260 C   0  0  0  0  0  3  0  0  0  0  0  0
  188.7800  175.6760  145.1940 C   0  0  0  0  0  0  0  0  0  0  0  0
  193.5350  176.5200  146.8050 C   0  0  0  0  0  2  0  0  0  0  0  0
  193.0600  177.4220  144.3660 C   0  0  0  0  0  1  0  0  0  0  0  0
  194.5220  177.1770  145.4170 S   0  0  0  0  0  0  0  0  0  0  0  0
  194.9520  171.1420  144.1250 C   0  0  1  0  0  3  0  0  0  0  0  0
  196.8990  170.7700  145.6460 C   0  0  0  0  0  1  0  0  0  0  0  0
  195.3900  170.7170  145.5340 C   0  0  0  0  0  3  0  0  0  0  0  0
  194.9030  169.3280  145.9080 C   0  0  0  0  0  1  0  0  0  0  0  0
  194.0320  170.2420  143.5700 O   0  0  0  0  0  0  0  0  0  0  0  0
  193.8470  170.6660  142.2490 C   0  0  0  0  0  2  0  0  0  0  0  0
  190.1220  170.8520  141.8810 O   0  0  0  0  0  1  0  0  0  0  0  0
  191.7790  169.4930  142.6910 O   0  0  0  0  0  0  0  0  0  0  0  0
  191.3240  170.8250  142.5920 C   0  0  1  0  0  3  0  0  0  0  0  0
  192.4500  170.3160  141.7660 C   0  0  1  0  0  0  0  0  0  0  0  0
  192.8230  168.6370  140.0780 O   0  0  0  0  0  1  0  0  0  0  0  0
  192.2630  169.8970  140.2950 C   0  0  2  0  0  3  0  0  0  0  0  0
  190.5280  171.6820  138.5730 C   0  0  1  0  0  3  0  0  0  0  0  0
  192.0200  171.6410  138.5130 C   0  0  0  0  0  0  0  0  0  0  0  0
  192.8000  170.8860  139.2980 C   0  0  0  0  0  3  0  0  0  0  0  0
  191.4310  173.6120  137.3140 C   0  0  0  0  0  2  0  0  0  0  0  0
  190.1470  172.8710  137.6840 C   0  0  2  0  0  3  0  0  0  0  0  0
  192.5980  172.6900  137.6340 C   0  0  2  0  0  3  0  0  0  0  0  0
  189.1590  173.7760  138.2900 N   0  0  0  0  0  0  0  0  0  0  0  0
  188.3150  173.0700  139.2470 C   0  0  0  0  0  1  0  0  0  0  0  0
  188.3510  174.2250  137.3000 O   0  0  0  0  0  1  0  0  0  0  0  0
  189.8710  170.3900  138.0770 C   0  0  0  0  0  2  0  0  0  0  0  0
  189.8950  170.2500  136.5610 C   0  0  0  0  0  1  0  0  0  0  0  0
  193.0980  172.0820  136.4120 N   0  0  0  0  0  2  0  0  0  0  0  0
  194.4940  172.0080  136.5300 N   0  0  0  0  0  2  0  0  0  0  0  0
  195.0410  172.2850  135.2130 C   0  0  0  0  0  1  0  0  0  0  0  0
  195.6140  173.5720  143.8230 C   0  0  0  0  0  2  0  0  0  0  0  0
  196.3810  175.6310  142.5970 C   0  0  0  0  0  1  0  0  0  0  0  0
  195.4730  174.4150  142.5530 C   0  0  2  0  0  3  0  0  0  0  0  0
  194.1450  174.8100  142.3600 O   0  0  0  0  0  0  0  0  0  0  0  0
  193.7560  174.2250  141.1540 C   0  0  1  0  0  3  0  0  0  0  0  0
  192.2400  174.2100  141.0590 C   0  0  0  0  0  1  0  0  0  0  0  0
  195.0010  174.1650  139.1200 O   0  0  0  0  0  1  0  0  0  0  0  0
  194.3340  175.0190  139.9990 C   0  0  0  0  0  2  0  0  0  0  0  0
  1 48  1  1  0  0  0
  1 22  1  0  0  0  0
  1  2  1  0  0  0  0
  2  3  1  0  0  0  0
  4  3  1  6  0  0  0
  4 19  1  0  0  0  0
  5  4  1  0  0  0  0
  5  6  1  0  0  0  0
  6  7  2  0  0  0  0
  8 16  1  0  0  0  0
  8 14  1  0  0  0  0
  9 12  1  6  0  0  0
  9 10  1  0  0  0  0
 10 11  1  0  0  0  0
 14 13  2  0  0  0  0
 14 15  1  0  0  0  0
 15  6  1  6  0  0  0
 16 18  1  0  0  0  0
 17  9  1  0  0  0  0
 17 16  2  0  0  0  0
 18 11  2  0  0  0  0
 18 15  1  0  0  0  0
 20 21  1  0  0  0  0
 21 19  1  0  0  0  0
 22 26  1  1  0  0  0
 22 24  1  0  0  0  0
 24 23  1  0  0  0  0
 24 25  1  0  0  0  0
 27 26  1  0  0  0  0
 30 28  1  6  0  0  0
 30 29  1  0  0  0  0
 31 27  1  1  0  0  0
 31 30  1  0  0  0  0
 31 29  1  0  0  0  0
 33 32  1  1  0  0  0
 33 31  1  0  0  0  0
 34 43  1  6  0  0  0
 35 34  1  0  0  0  0
 35 36  2  0  0  0  0
 36 33  1  0  0  0  0
 37 39  1  0  0  0  0
 37 38  1  0  0  0  0
 38 40  1  1  0  0  0
 38 34  1  0  0  0  0
 39 45  1  6  0  0  0
 39 35  1  0  0  0  0
 40 41  1  0  0  0  0
 42 40  1  0  0  0  0
 44 43  1  0  0  0  0
 45 46  1  0  0  0  0
 47 46  1  0  0  0  0
 50 49  1  1  0  0  0
 50 48  1  0  0  0  0
 51 50  1  0  0  0  0
 52 53  1  6  0  0  0
 52 51  1  0  0  0  0
 54 55  1  0  0  0  0
 55 52  1  0  0  0  0
M  END
>  <MODEL>
7

>  <REMARK>
 VINA RESULT:      -5.2      2.797      6.660
  Name = 
  23 active torsions:
  status: ('A' for Active; 'I' for Inactive)
    1  A    between atoms: N_2  and  N_39
    2  A    between atoms: N_2  and  C_51
    3  A    between atoms: N_3  and  C_42
    4  A    between atoms: C_4  and  C_11
    5  A    between atoms: C_6  and  O_30
    6  A    between atoms: C_6  and  C_49
    7  A    between atoms: C_8  and  C_41
    8  A    between atoms: C_8  and  S_50
    9  A    between atoms: C_9  and  C_25
   10  A    between atoms: N_12  and  C_41
   11  A    between atoms: C_13  and  C_28
   12  A    between atoms: C_13  and  C_53
   13  A    between atoms: C_15  and  C_16
   14  A    between atoms: C_15  and  C_41
   15  A    between atoms: C_16  and  C_35
   16  A    between atoms: O_17  and  C_25
   17  A    between atoms: O_17  and  C_29
   18  A    between atoms: C_23  and  C_32
   19  A    between atoms: C_23  and  C_35
   20  A    between atoms: C_25  and  C_35
   21  A    between atoms: C_27  and  C_44
   22  A    between atoms: C_29  and  C_53
   23  A    between atoms: O_30  and  C_32
                            x       y       z     vdW  Elec       q    Type
                         _______ _______ _______ _____ _____    ______ ____

>  <TORSDO>
F 23

$$$$
=
 OpenBabel11062421343D

 55 58  0  0  1  0  0  0  0  0999 V2000
  193.4470  172.3910  140.1810 C   0  0  2  0  0  3  0  0  0  0  0  0
  194.0010  171.1940  140.9380 C   0  0  0  0  0  2  0  0  0  0  0  0
  195.3060  170.7120  140.3130 C   0  0  0  0  0  2  0  0  0  0  0  0
  196.4800  170.7820  141.2940 C   0  0  2  0  0  3  0  0  0  0  0  0
  196.0330  171.1050  142.6440 N   0  0  0  0  0  2  0  0  0  0  0  0
  196.0580  170.1680  143.7260 C   0  0  0  0  0  0  0  0  0  0  0  0
  196.6320  169.0550  143.5920 O   0  0  0  0  0  0  0  0  0  0  0  0
  193.1730  171.5570  144.9270 O   0  0  0  0  0  0  0  0  0  0  0  0
  195.1030  174.7440  145.4520 C   0  0  2  0  0  3  0  0  0  0  0  0
  196.2750  174.0640  146.1940 C   0  0  0  0  0  2  0  0  0  0  0  0
  196.4840  172.6330  145.7550 C   0  0  0  0  0  3  0  0  0  0  0  0
  194.7030  176.0200  146.1610 C   0  0  0  0  0  1  0  0  0  0  0  0
  193.2740  169.2590  144.5780 O   0  0  0  0  0  0  0  0  0  0  0  0
  193.8580  170.3500  144.8140 C   0  0  0  0  0  0  0  0  0  0  0  0
  195.3480  170.4780  145.0070 C   0  0  2  0  0  3  0  0  0  0  0  0
  194.1170  172.5270  145.1980 C   0  0  0  0  0  0  0  0  0  0  0  0
  193.9040  173.8340  145.3000 C   0  0  0  0  0  3  0  0  0  0  0  0
  195.4300  171.9370  145.3310 C   0  0  0  0  0  0  0  0  0  0  0  0
  197.5870  171.7320  140.8300 C   0  0  0  0  0  2  0  0  0  0  0  0
  197.9410  173.8690  139.3140 C   0  0  0  0  0  1  0  0  0  0  0  0
  197.5180  172.1220  139.0480 S   0  0  0  0  0  0  0  0  0  0  0  0
  193.0760  173.5450  141.1290 C   0  0  1  0  0  3  0  0  0  0  0  0
  194.4150  175.0270  139.6270 C   0  0  0  0  0  1  0  0  0  0  0  0
  194.0310  174.7470  141.0650 C   0  0  0  0  0  3  0  0  0  0  0  0
  195.2860  174.5450  141.8950 C   0  0  0  0  0  1  0  0  0  0  0  0
  191.7380  173.9310  140.9700 O   0  0  0  0  0  0  0  0  0  0  0  0
  191.1140  173.6150  142.1830 C   0  0  0  0  0  2  0  0  0  0  0  0
  187.4670  172.7520  142.2550 O   0  0  0  0  0  1  0  0  0  0  0  0
  189.1330  173.3870  140.8150 O   0  0  0  0  0  0  0  0  0  0  0  0
  188.8070  172.5600  141.9110 C   0  0  1  0  0  3  0  0  0  0  0  0
  189.6110  173.8000  142.0730 C   0  0  1  0  0  0  0  0  0  0  0  0
  189.3880  176.1800  141.7740 O   0  0  0  0  0  1  0  0  0  0  0  0
  188.9910  175.1150  142.5840 C   0  0  2  0  0  3  0  0  0  0  0  0
  187.3070  176.9440  144.3110 C   0  0  1  0  0  3  0  0  0  0  0  0
  188.5550  176.2610  144.7680 C   0  0  0  0  0  0  0  0  0  0  0  0
  189.2860  175.4190  144.0260 C   0  0  0  0  0  3  0  0  0  0  0  0
  187.5340  177.0390  146.7740 C   0  0  0  0  0  2  0  0  0  0  0  0
  186.7260  177.5630  145.5870 C   0  0  2  0  0  3  0  0  0  0  0  0
  188.8150  176.4310  146.2210 C   0  0  2  0  0  3  0  0  0  0  0  0
  185.2880  177.3190  145.7660 N   0  0  0  0  0  0  0  0  0  0  0  0
  184.4910  178.2890  145.0230 C   0  0  0  0  0  1  0  0  0  0  0  0
  185.0010  177.4890  147.0790 O   0  0  0  0  0  1  0  0  0  0  0  0
  187.5640  178.0140  143.2450 C   0  0  0  0  0  2  0  0  0  0  0  0
  186.5200  178.0150  142.1370 C   0  0  0  0  0  1  0  0  0  0  0  0
  189.9230  177.3520  146.4150 N   0  0  0  0  0  2  0  0  0  0  0  0
  190.3380  177.2200  147.7490 N   0  0  0  0  0  2  0  0  0  0  0  0
  191.2590  176.0980  147.7920 C   0  0  0  0  0  1  0  0  0  0  0  0
  192.2550  171.9780  139.3110 C   0  0  0  0  0  2  0  0  0  0  0  0
  191.5250  173.5750  137.5100 C   0  0  0  0  0  1  0  0  0  0  0  0
  192.4130  172.3890  137.8450 C   0  0  2  0  0  3  0  0  0  0  0  0
  192.1290  171.3180  136.9910 O   0  0  0  0  0  0  0  0  0  0  0  0
  193.3640  170.9170  136.4780 C   0  0  1  0  0  3  0  0  0  0  0  0
  193.4960  169.4070  136.5850 C   0  0  0  0  0  1  0  0  0  0  0  0
  194.6050  172.1240  134.8360 O   0  0  0  0  0  1  0  0  0  0  0  0
  193.4670  171.3390  135.0260 C   0  0  0  0  0  2  0  0  0  0  0  0
  1 48  1  1  0  0  0
  1  2  1  0  0  0  0
  1 22  1  0  0  0  0
  3  2  1  0  0  0  0
  4  3  1  6  0  0  0
  4  5  1  0  0  0  0
  5  6  1  0  0  0  0
  7  6  2  0  0  0  0
  8 16  1  0  0  0  0
  9 12  1  1  0  0  0
  9 10  1  0  0  0  0
 11 10  1  0  0  0  0
 13 14  2  0  0  0  0
 14  8  1  0  0  0  0
 14 15  1  0  0  0  0
 15  6  1  6  0  0  0
 15 18  1  0  0  0  0
 16 17  2  0  0  0  0
 16 18  1  0  0  0  0
 17  9  1  0  0  0  0
 18 11  2  0  0  0  0
 19  4  1  0  0  0  0
 21 20  1  0  0  0  0
 21 19  1  0  0  0  0
 22 26  1  6  0  0  0
 23 24  1  0  0  0  0
 24 22  1  0  0  0  0
 24 25  1  0  0  0  0
 26 27  1  0  0  0  0
 29 30  1  0  0  0  0
 29 31  1  0  0  0  0
 30 31  1  0  0  0  0
 30 28  1  1  0  0  0
 31 27  1  1  0  0  0
 31 33  1  0  0  0  0
 33 32  1  6  0  0  0
 33 36  1  0  0  0  0
 34 43  1  6  0  0  0
 34 35  1  0  0  0  0
 34 38  1  0  0  0  0
 35 39  1  0  0  0  0
 36 35  2  0  0  0  0
 38 40  1  1  0  0  0
 38 37  1  0  0  0  0
 39 45  1  6  0  0  0
 39 37  1  0  0  0  0
 40 42  1  0  0  0  0
 41 40  1  0  0  0  0
 44 43  1  0  0  0  0
 45 46  1  0  0  0  0
 46 47  1  0  0  0  0
 50 49  1  6  0  0  0
 50 48  1  0  0  0  0
 51 50  1  0  0  0  0
 52 53  1  6  0  0  0
 52 51  1  0  0  0  0
 54 55  1  0  0  0  0
 55 52  1  0  0  0  0
M  END
>  <MODEL>
8

>  <REMARK>
 VINA RESULT:      -5.2      3.356      8.718
  Name = 
  23 active torsions:
  status: ('A' for Active; 'I' for Inactive)
    1  A    between atoms: N_2  and  N_39
    2  A    between atoms: N_2  and  C_51
    3  A    between atoms: N_3  and  C_42
    4  A    between atoms: C_4  and  C_11
    5  A    between atoms: C_6  and  O_30
    6  A    between atoms: C_6  and  C_49
    7  A    between atoms: C_8  and  C_41
    8  A    between atoms: C_8  and  S_50
    9  A    between atoms: C_9  and  C_25
   10  A    between atoms: N_12  and  C_41
   11  A    between atoms: C_13  and  C_28
   12  A    between atoms: C_13  and  C_53
   13  A    between atoms: C_15  and  C_16
   14  A    between atoms: C_15  and  C_41
   15  A    between atoms: C_16  and  C_35
   16  A    between atoms: O_17  and  C_25
   17  A    between atoms: O_17  and  C_29
   18  A    between atoms: C_23  and  C_32
   19  A    between atoms: C_23  and  C_35
   20  A    between atoms: C_25  and  C_35
   21  A    between atoms: C_27  and  C_44
   22  A    between atoms: C_29  and  C_53
   23  A    between atoms: O_30  and  C_32
                            x       y       z     vdW  Elec       q    Type
                         _______ _______ _______ _____ _____    ______ ____

>  <TORSDO>
F 23

$$$$
=
 OpenBabel11062421343D

 55 58  0  0  1  0  0  0  0  0999 V2000
  188.5620  175.3990  141.5320 C   0  0  2  0  0  3  0  0  0  0  0  0
  188.4010  174.1900  140.6240 C   0  0  0  0  0  2  0  0  0  0  0  0
  189.4320  174.2110  139.5020 C   0  0  0  0  0  2  0  0  0  0  0  0
  189.3650  172.9540  138.6290 C   0  0  2  0  0  3  0  0  0  0  0  0
  190.6090  172.1950  138.6830 N   0  0  0  0  0  2  0  0  0  0  0  0
  190.6930  170.8000  138.3750 C   0  0  0  0  0  0  0  0  0  0  0  0
  189.7070  170.1970  137.8750 O   0  0  0  0  0  0  0  0  0  0  0  0
  193.1910  170.5990  140.7020 O   0  0  0  0  0  0  0  0  0  0  0  0
  195.3140  172.6650  138.3840 C   0  0  2  0  0  3  0  0  0  0  0  0
  195.0290  171.7950  137.1380 C   0  0  0  0  0  2  0  0  0  0  0  0
  193.6730  171.1310  137.1970 C   0  0  0  0  0  3  0  0  0  0  0  0
  196.7870  173.0080  138.4570 C   0  0  0  0  0  1  0  0  0  0  0  0
  191.3060  169.2540  140.9310 O   0  0  0  0  0  0  0  0  0  0  0  0
  192.0890  169.9120  140.1970 C   0  0  0  0  0  0  0  0  0  0  0  0
  191.9350  170.0310  138.7020 C   0  0  2  0  0  3  0  0  0  0  0  0
  193.8210  171.1880  139.6260 C   0  0  0  0  0  0  0  0  0  0  0  0
  194.8690  172.0040  139.6700 C   0  0  0  0  0  3  0  0  0  0  0  0
  193.1620  170.8280  138.3900 C   0  0  0  0  0  0  0  0  0  0  0  0
  188.9560  173.2540  137.1840 C   0  0  0  0  0  2  0  0  0  0  0  0
  188.8230  174.8670  135.0940 C   0  0  0  0  0  1  0  0  0  0  0  0
  190.0750  174.4180  136.3330 S   0  0  0  0  0  0  0  0  0  0  0  0
  189.8760  175.3440  142.3300 C   0  0  1  0  0  3  0  0  0  0  0  0
  191.6070  177.0560  142.8920 C   0  0  0  0  0  1  0  0  0  0  0  0
  190.1790  176.6140  143.1390 C   0  0  0  0  0  3  0  0  0  0  0  0
  189.9570  176.4300  144.6290 C   0  0  0  0  0  1  0  0  0  0  0  0
  189.9490  174.1900  143.1240 O   0  0  0  0  0  0  0  0  0  0  0  0
  191.1100  173.5280  142.7110 C   0  0  0  0  0  2  0  0  0  0  0  0
  192.5600  170.6520  144.6290 O   0  0  0  0  0  1  0  0  0  0  0  0
  190.7510  172.0580  144.5980 O   0  0  0  0  0  0  0  0  0  0  0  0
  191.6230  171.2800  143.8060 C   0  0  1  0  0  3  0  0  0  0  0  0
  191.7280  172.7620  143.8680 C   0  0  1  0  0  0  0  0  0  0  0  0
  192.1540  174.3130  145.6630 O   0  0  0  0  0  1  0  0  0  0  0  0
  192.7810  173.4710  144.7430 C   0  0  2  0  0  3  0  0  0  0  0  0
  195.5170  172.3780  144.0520 C   0  0  1  0  0  3  0  0  0  0  0  0
  195.0410  173.7500  143.7020 C   0  0  0  0  0  0  0  0  0  0  0  0
  193.8200  174.2300  143.9660 C   0  0  0  0  0  3  0  0  0  0  0  0
  197.0000  173.4440  142.3820 C   0  0  0  0  0  2  0  0  0  0  0  0
  196.8500  172.2380  143.3090 C   0  0  2  0  0  3  0  0  0  0  0  0
  195.9860  174.4890  142.8250 C   0  0  2  0  0  3  0  0  0  0  0  0
  196.9940  170.9730  142.5750 N   0  0  0  0  0  0  0  0  0  0  0  0
  197.5770  169.9360  143.4190 C   0  0  0  0  0  1  0  0  0  0  0  0
  197.8560  171.1860  141.5520 O   0  0  0  0  0  1  0  0  0  0  0  0
  195.7000  172.1720  145.5590 C   0  0  0  0  0  2  0  0  0  0  0  0
  196.8660  172.9660  146.1320 C   0  0  0  0  0  1  0  0  0  0  0  0
  196.6520  175.5290  143.5910 N   0  0  0  0  0  2  0  0  0  0  0  0
  196.3140  176.7560  142.9990 N   0  0  0  0  0  2  0  0  0  0  0  0
  196.3020  176.5370  141.5620 C   0  0  0  0  0  1  0  0  0  0  0  0
  187.3510  175.5460  142.4590 C   0  0  0  0  0  2  0  0  0  0  0  0
  186.8590  177.4430  140.8810 C   0  0  0  0  0  1  0  0  0  0  0  0
  186.6040  176.8680  142.2630 C   0  0  2  0  0  3  0  0  0  0  0  0
  186.9630  177.7960  143.2460 O   0  0  0  0  0  0  0  0  0  0  0  0
  186.0650  177.5890  144.2950 C   0  0  1  0  0  3  0  0  0  0  0  0
  186.5420  178.3360  145.5300 C   0  0  0  0  0  1  0  0  0  0  0  0
  184.4020  179.2780  144.5650 O   0  0  0  0  0  1  0  0  0  0  0  0
  184.6930  178.0910  143.8910 C   0  0  0  0  0  2  0  0  0  0  0  0
  1  2  1  1  0  0  0
  1 22  1  0  0  0  0
  1 48  1  0  0  0  0
  3  2  1  0  0  0  0
  4 19  1  6  0  0  0
  4  5  1  0  0  0  0
  4  3  1  0  0  0  0
  6  5  1  0  0  0  0
  7  6  2  0  0  0  0
  9 12  1  1  0  0  0
  9 17  1  0  0  0  0
 10 11  1  0  0  0  0
 10  9  1  0  0  0  0
 11 18  2  0  0  0  0
 14  8  1  0  0  0  0
 14 13  2  0  0  0  0
 15  6  1  1  0  0  0
 15 14  1  0  0  0  0
 16 17  2  0  0  0  0
 16  8  1  0  0  0  0
 18 15  1  0  0  0  0
 18 16  1  0  0  0  0
 20 21  1  0  0  0  0
 21 19  1  0  0  0  0
 22 26  1  1  0  0  0
 22 24  1  0  0  0  0
 23 24  1  0  0  0  0
 24 25  1  0  0  0  0
 27 26  1  0  0  0  0
 30 31  1  0  0  0  0
 30 29  1  0  0  0  0
 30 28  1  1  0  0  0
 31 27  1  6  0  0  0
 31 29  1  0  0  0  0
 31 33  1  0  0  0  0
 33 32  1  1  0  0  0
 34 43  1  1  0  0  0
 35 36  2  0  0  0  0
 35 34  1  0  0  0  0
 36 33  1  0  0  0  0
 37 39  1  0  0  0  0
 37 38  1  0  0  0  0
 38 40  1  6  0  0  0
 38 34  1  0  0  0  0
 39 45  1  1  0  0  0
 39 35  1  0  0  0  0
 40 41  1  0  0  0  0
 42 40  1  0  0  0  0
 43 44  1  0  0  0  0
 46 45  1  0  0  0  0
 47 46  1  0  0  0  0
 50 49  1  6  0  0  0
 50 48  1  0  0  0  0
 50 51  1  0  0  0  0
 51 52  1  0  0  0  0
 52 53  1  1  0  0  0
 55 52  1  0  0  0  0
 55 54  1  0  0  0  0
M  END
>  <MODEL>
9

>  <REMARK>
 VINA RESULT:      -5.0      3.054      7.028
  Name = 
  23 active torsions:
  status: ('A' for Active; 'I' for Inactive)
    1  A    between atoms: N_2  and  N_39
    2  A    between atoms: N_2  and  C_51
    3  A    between atoms: N_3  and  C_42
    4  A    between atoms: C_4  and  C_11
    5  A    between atoms: C_6  and  O_30
    6  A    between atoms: C_6  and  C_49
    7  A    between atoms: C_8  and  C_41
    8  A    between atoms: C_8  and  S_50
    9  A    between atoms: C_9  and  C_25
   10  A    between atoms: N_12  and  C_41
   11  A    between atoms: C_13  and  C_28
   12  A    between atoms: C_13  and  C_53
   13  A    between atoms: C_15  and  C_16
   14  A    between atoms: C_15  and  C_41
   15  A    between atoms: C_16  and  C_35
   16  A    between atoms: O_17  and  C_25
   17  A    between atoms: O_17  and  C_29
   18  A    between atoms: C_23  and  C_32
   19  A    between atoms: C_23  and  C_35
   20  A    between atoms: C_25  and  C_35
   21  A    between atoms: C_27  and  C_44
   22  A    between atoms: C_29  and  C_53
   23  A    between atoms: O_30  and  C_32
                            x       y       z     vdW  Elec       q    Type
                         _______ _______ _______ _____ _____    ______ ____

>  <TORSDO>
F 23

$$$$
