=
 OpenBabel11062422433D

 29 32  0  0  1  0  0  0  0  0999 V2000
  188.8310  176.2310  142.5620 C   0  0  0  0  0  2  0  0  0  0  0  0
  189.0260  176.0070  145.8460 C   0  0  1  0  0  3  0  0  0  0  0  0
  186.8610  177.6890  142.5080 C   0  0  0  0  0  0  0  0  0  0  0  0
  189.4310  176.9820  143.6700 N   0  0  1  0  0  0  0  0  0  0  0  0
  187.1000  177.9880  143.7880 C   0  0  0  0  0  3  0  0  0  0  0  0
  188.4780  177.4060  145.8880 C   0  0  1  0  0  3  0  0  0  0  0  0
  188.4730  177.8400  144.4190 C   0  0  1  0  0  3  0  0  0  0  0  0
  189.9410  175.9870  144.6180 C   0  0  1  0  0  3  0  0  0  0  0  0
  187.9940  177.1450  141.6750 C   0  0  2  0  0  3  0  0  0  0  0  0
  183.7670  178.4050  140.4020 N   0  0  0  0  0  0  0  0  0  0  0  0
  185.5190  177.9470  141.9330 C   0  0  0  0  0  0  0  0  0  0  0  0
  184.3850  177.9820  142.5920 C   0  0  0  0  0  0  0  0  0  0  0  0
  183.3120  178.2390  141.7200 N   0  0  0  0  0  2  0  0  0  0  0  0
  184.2350  177.7560  143.9210 F   0  0  0  0  0  0  0  0  0  0  0  0
  185.2230  178.2150  140.4930 C   0  0  0  0  0  3  0  0  0  0  0  0
  189.6550  175.5780  147.1390 C   0  0  0  0  0  0  0  0  0  0  0  0
  190.5170  176.4240  147.8250 O   0  0  0  0  0  1  0  0  0  0  0  0
  189.4060  174.4360  147.6000 O   0  0  0  0  0  0  0  0  0  0  0  0
  186.1080  177.5100  147.1380 C   0  0  0  0  0  3  0  0  0  0  0  0
  187.1730  177.4620  146.5740 C   0  0  0  0  0  0  0  0  0  0  0  0
  191.4270  176.2500  144.9420 C   0  0  2  0  0  3  0  0  0  0  0  0
  191.9430  177.2960  144.1730 O   0  0  0  0  0  1  0  0  0  0  0  0
  192.3110  175.0030  144.8080 C   0  0  2  0  0  3  0  0  0  0  0  0
  191.5880  173.9100  144.3230 O   0  0  0  0  0  1  0  0  0  0  0  0
  194.4690  174.8090  145.8860 O   0  0  0  0  0  0  0  0  0  0  0  0
  193.7590  175.6930  146.6060 O   0  0  0  0  0  0  0  0  0  0  0  0
  193.1160  174.6050  146.0580 C   0  0  0  0  0  3  0  0  0  0  0  0
  188.1540  175.1650  140.6940 C   0  0  0  0  0  1  0  0  0  0  0  0
  187.5150  176.4020  140.5930 O   0  0  0  0  0  0  0  0  0  0  0  0
  2  6  1  0  0  0  0
  2 16  1  1  0  0  0
  3  5  2  0  0  0  0
  4  1  1  6  0  0  0
  4  7  1  0  0  0  0
  4  8  1  0  0  0  0
  6 20  1  6  0  0  0
  7  5  1  6  0  0  0
  7  6  1  0  0  0  0
  8 21  1  1  0  0  0
  8  2  1  0  0  0  0
  9 29  1  6  0  0  0
  9  3  1  0  0  0  0
  9  1  1  0  0  0  0
 10 15  2  0  0  0  0
 10 13  1  0  0  0  0
 11  3  1  0  0  0  0
 11 12  2  0  0  0  0
 12 14  1  0  0  0  0
 13 12  1  0  0  0  0
 15 11  1  0  0  0  0
 16 18  2  0  0  0  0
 16 17  1  0  0  0  0
 20 19  3  0  0  0  0
 21 22  1  6  0  0  0
 23 24  1  1  0  0  0
 23 21  1  0  0  0  0
 23 27  1  0  0  0  0
 25 27  1  0  0  0  0
 25 26  1  0  0  0  0
 27 26  1  0  0  0  0
 29 28  1  0  0  0  0
M  END
>  <MODEL>
1

>  <REMARK>
 VINA RESULT:      -7.1      0.000      0.000
  Name = 
  7 active torsions:
  status: ('A' for Active; 'I' for Inactive)
    1  A    between atoms: C_4  and  C_10
    2  A    between atoms: C_5  and  C_9
    3  A    between atoms: C_5  and  C_23
    4  A    between atoms: C_6  and  C_8
    5  A    between atoms: C_9  and  C_20
    6  A    between atoms: C_16  and  C_26
    7  A    between atoms: C_22  and  O_24
                            x       y       z     vdW  Elec       q    Type
                         _______ _______ _______ _____ _____    ______ ____

>  <TORSDO>
F 7

$$$$
=
 OpenBabel11062422433D

 29 32  0  0  1  0  0  0  0  0999 V2000
  187.9450  175.8030  142.4330 C   0  0  0  0  0  2  0  0  0  0  0  0
  189.8530  173.8300  144.2610 C   0  0  1  0  0  3  0  0  0  0  0  0
  187.1090  177.1650  144.2930 C   0  0  0  0  0  0  0  0  0  0  0  0
  189.3110  175.8030  142.9700 N   0  0  1  0  0  0  0  0  0  0  0  0
  188.1280  176.7110  145.0270 C   0  0  0  0  0  3  0  0  0  0  0  0
  190.0620  175.0110  145.1650 C   0  0  1  0  0  3  0  0  0  0  0  0
  189.4040  176.1700  144.4090 C   0  0  1  0  0  3  0  0  0  0  0  0
  189.8020  174.4260  142.8510 C   0  0  1  0  0  3  0  0  0  0  0  0
  187.2220  177.0960  142.7910 C   0  0  2  0  0  3  0  0  0  0  0  0
  184.0640  178.0900  146.3900 N   0  0  0  0  0  0  0  0  0  0  0  0
  185.9320  177.7660  144.9640 C   0  0  0  0  0  0  0  0  0  0  0  0
  185.4260  178.9540  144.7290 C   0  0  0  0  0  0  0  0  0  0  0  0
  184.3200  179.1970  145.5640 N   0  0  0  0  0  0  0  0  0  0  0  0
  185.9120  179.8600  143.8460 F   0  0  0  0  0  0  0  0  0  0  0  0
  185.1110  177.1190  146.0320 C   0  0  0  0  0  2  0  0  0  0  0  0
  190.8590  172.7360  144.4730 C   0  0  0  0  0  0  0  0  0  0  0  0
  192.1150  173.0170  144.9960 O   0  0  0  0  0  1  0  0  0  0  0  0
  190.5630  171.5540  144.1630 O   0  0  0  0  0  0  0  0  0  0  0  0
  189.1220  174.5500  147.6330 C   0  0  0  0  0  3  0  0  0  0  0  0
  189.5420  174.7590  146.5220 C   0  0  0  0  0  0  0  0  0  0  0  0
  191.1540  174.3910  142.1070 C   0  0  2  0  0  3  0  0  0  0  0  0
  191.7160  175.6660  141.9990 O   0  0  0  0  0  1  0  0  0  0  0  0
  191.0750  173.7240  140.7280 C   0  0  2  0  0  3  0  0  0  0  0  0
  189.8120  173.8830  140.1520 O   0  0  0  0  0  1  0  0  0  0  0  0
  192.7590  172.1150  140.0720 O   0  0  0  0  0  0  0  0  0  0  0  0
  192.6530  172.0360  141.4090 O   0  0  0  0  0  0  0  0  0  0  0  0
  191.5180  172.2520  140.6580 C   0  0  0  0  0  3  0  0  0  0  0  0
  186.1330  177.7510  140.9750 C   0  0  0  0  0  1  0  0  0  0  0  0
  185.9600  177.0840  142.1890 O   0  0  0  0  0  0  0  0  0  0  0  0
  1  9  1  0  0  0  0
  2 16  1  6  0  0  0
  2  6  1  0  0  0  0
  3 11  1  0  0  0  0
  3  5  2  0  0  0  0
  4  1  1  1  0  0  0
  4  7  1  0  0  0  0
  6 20  1  1  0  0  0
  7  5  1  1  0  0  0
  7  6  1  0  0  0  0
  8 21  1  1  0  0  0
  8  4  1  0  0  0  0
  8  2  1  0  0  0  0
  9 29  1  6  0  0  0
  9  3  1  0  0  0  0
 11 15  1  0  0  0  0
 12 11  2  0  0  0  0
 12 13  1  0  0  0  0
 13 10  2  0  0  0  0
 14 12  1  0  0  0  0
 15 10  1  0  0  0  0
 16 17  1  0  0  0  0
 18 16  2  0  0  0  0
 20 19  3  0  0  0  0
 21 22  1  6  0  0  0
 23 24  1  1  0  0  0
 23 21  1  0  0  0  0
 25 27  1  0  0  0  0
 25 26  1  0  0  0  0
 27 23  1  0  0  0  0
 27 26  1  0  0  0  0
 28 29  1  0  0  0  0
M  END
>  <MODEL>
2

>  <REMARK>
 VINA RESULT:      -6.8      2.572      3.878
  Name = 
  7 active torsions:
  status: ('A' for Active; 'I' for Inactive)
    1  A    between atoms: C_4  and  C_10
    2  A    between atoms: C_5  and  C_9
    3  A    between atoms: C_5  and  C_23
    4  A    between atoms: C_6  and  C_8
    5  A    between atoms: C_9  and  C_20
    6  A    between atoms: C_16  and  C_26
    7  A    between atoms: C_22  and  O_24
                            x       y       z     vdW  Elec       q    Type
                         _______ _______ _______ _____ _____    ______ ____

>  <TORSDO>
F 7

$$$$
=
 OpenBabel11062422433D

 29 32  0  0  1  0  0  0  0  0999 V2000
  189.0410  176.7030  142.3430 C   0  0  0  0  0  2  0  0  0  0  0  0
  190.5420  174.5210  144.3080 C   0  0  1  0  0  3  0  0  0  0  0  0
  187.6820  177.7510  144.0940 C   0  0  0  0  0  0  0  0  0  0  0  0
  190.2240  176.6520  143.2080 N   0  0  1  0  0  0  0  0  0  0  0  0
  188.5090  177.2150  144.9960 C   0  0  0  0  0  3  0  0  0  0  0  0
  190.4440  175.5580  145.3910 C   0  0  1  0  0  3  0  0  0  0  0  0
  189.9290  176.8020  144.6600 C   0  0  1  0  0  3  0  0  0  0  0  0
  190.8120  175.3200  143.0300 C   0  0  1  0  0  3  0  0  0  0  0  0
  188.1740  177.9110  142.6780 C   0  0  2  0  0  3  0  0  0  0  0  0
  184.4090  179.5610  144.8270 N   0  0  0  0  0  0  0  0  0  0  0  0
  186.3400  178.2190  144.5150 C   0  0  0  0  0  0  0  0  0  0  0  0
  185.4640  177.5370  145.2160 C   0  0  0  0  0  0  0  0  0  0  0  0
  184.2930  178.2910  145.4160 N   0  0  0  0  0  2  0  0  0  0  0  0
  185.6220  176.2640  145.6560 F   0  0  0  0  0  0  0  0  0  0  0  0
  185.7470  179.5570  144.2130 C   0  0  0  0  0  3  0  0  0  0  0  0
  191.5250  173.4310  144.6190 C   0  0  0  0  0  0  0  0  0  0  0  0
  192.6280  173.6770  145.4270 O   0  0  0  0  0  1  0  0  0  0  0  0
  191.3520  172.2840  144.1330 O   0  0  0  0  0  0  0  0  0  0  0  0
  188.9400  174.7170  147.4450 C   0  0  0  0  0  3  0  0  0  0  0  0
  189.6150  175.0940  146.5190 C   0  0  0  0  0  0  0  0  0  0  0  0
  192.3070  175.4270  142.6640 C   0  0  2  0  0  3  0  0  0  0  0  0
  192.7110  176.7580  142.5300 O   0  0  0  0  0  1  0  0  0  0  0  0
  192.6880  174.6260  141.4120 C   0  0  2  0  0  3  0  0  0  0  0  0
  191.5630  174.0720  140.7950 O   0  0  0  0  0  1  0  0  0  0  0  0
  194.9860  173.9590  141.0520 O   0  0  0  0  0  0  0  0  0  0  0  0
  194.8120  174.0300  142.3810 O   0  0  0  0  0  0  0  0  0  0  0  0
  193.7830  173.5600  141.5950 C   0  0  0  0  0  3  0  0  0  0  0  0
  187.1800  176.7600  141.0670 C   0  0  0  0  0  1  0  0  0  0  0  0
  187.1080  177.9610  141.7750 O   0  0  0  0  0  0  0  0  0  0  0  0
  1  9  1  0  0  0  0
  2 16  1  1  0  0  0
  2  6  1  0  0  0  0
  3 11  1  0  0  0  0
  3  5  2  0  0  0  0
  4  1  1  6  0  0  0
  4  7  1  0  0  0  0
  6 20  1  1  0  0  0
  7  5  1  6  0  0  0
  7  6  1  0  0  0  0
  8 21  1  1  0  0  0
  8  4  1  0  0  0  0
  8  2  1  0  0  0  0
  9 29  1  6  0  0  0
  9  3  1  0  0  0  0
 10 13  1  0  0  0  0
 11 12  2  0  0  0  0
 12 13  1  0  0  0  0
 12 14  1  0  0  0  0
 15 11  1  0  0  0  0
 15 10  2  0  0  0  0
 16 17  1  0  0  0  0
 18 16  2  0  0  0  0
 20 19  3  0  0  0  0
 21 22  1  6  0  0  0
 23 24  1  1  0  0  0
 23 27  1  0  0  0  0
 23 21  1  0  0  0  0
 25 27  1  0  0  0  0
 25 26  1  0  0  0  0
 27 26  1  0  0  0  0
 28 29  1  0  0  0  0
M  END
>  <MODEL>
3

>  <REMARK>
 VINA RESULT:      -6.7      2.305      3.195
  Name = 
  7 active torsions:
  status: ('A' for Active; 'I' for Inactive)
    1  A    between atoms: C_4  and  C_10
    2  A    between atoms: C_5  and  C_9
    3  A    between atoms: C_5  and  C_23
    4  A    between atoms: C_6  and  C_8
    5  A    between atoms: C_9  and  C_20
    6  A    between atoms: C_16  and  C_26
    7  A    between atoms: C_22  and  O_24
                            x       y       z     vdW  Elec       q    Type
                         _______ _______ _______ _____ _____    ______ ____

>  <TORSDO>
F 7

$$$$
=
 OpenBabel11062422433D

 29 32  0  0  1  0  0  0  0  0999 V2000
  189.8090  175.5960  143.2120 C   0  0  0  0  0  2  0  0  0  0  0  0
  192.2620  175.0540  145.3490 C   0  0  1  0  0  3  0  0  0  0  0  0
  188.5820  177.1920  144.6110 C   0  0  0  0  0  0  0  0  0  0  0  0
  191.1020  176.1950  143.5580 N   0  0  1  0  0  0  0  0  0  0  0  0
  189.6960  177.3520  145.3310 C   0  0  0  0  0  3  0  0  0  0  0  0
  192.0780  176.4780  145.7890 C   0  0  1  0  0  3  0  0  0  0  0  0
  191.0760  177.0470  144.7790 C   0  0  1  0  0  3  0  0  0  0  0  0
  192.0150  175.0810  143.8370 C   0  0  1  0  0  3  0  0  0  0  0  0
  188.7050  176.6470  143.2100 C   0  0  2  0  0  3  0  0  0  0  0  0
  185.2090  178.7100  145.5280 N   0  0  0  0  0  0  0  0  0  0  0  0
  187.2750  177.5990  145.1810 C   0  0  0  0  0  0  0  0  0  0  0  0
  186.6980  177.0890  146.2430 C   0  0  0  0  0  0  0  0  0  0  0  0
  185.4580  177.7100  146.4820 N   0  0  0  0  0  2  0  0  0  0  0  0
  187.1840  176.0710  146.9950 F   0  0  0  0  0  0  0  0  0  0  0  0
  186.3830  178.6690  144.6410 C   0  0  0  0  0  3  0  0  0  0  0  0
  193.5690  174.4620  145.7870 C   0  0  0  0  0  0  0  0  0  0  0  0
  194.6350  175.2780  146.1450 O   0  0  0  0  0  1  0  0  0  0  0  0
  193.7020  173.2120  145.8220 O   0  0  0  0  0  0  0  0  0  0  0  0
  191.3370  176.6320  148.3620 C   0  0  0  0  0  3  0  0  0  0  0  0
  191.6730  176.5650  147.2050 C   0  0  0  0  0  0  0  0  0  0  0  0
  193.3020  175.2050  142.9950 C   0  0  2  0  0  3  0  0  0  0  0  0
  193.2860  176.3510  142.1960 O   0  0  0  0  0  1  0  0  0  0  0  0
  193.5950  173.9640  142.1420 C   0  0  2  0  0  3  0  0  0  0  0  0
  192.5190  173.0720  142.1460 O   0  0  0  0  0  1  0  0  0  0  0  0
  195.9460  173.6640  141.6530 O   0  0  0  0  0  0  0  0  0  0  0  0
  195.8700  174.0890  142.9250 O   0  0  0  0  0  0  0  0  0  0  0  0
  194.9090  173.2240  142.4490 C   0  0  0  0  0  3  0  0  0  0  0  0
  187.2660  176.5730  141.5270 C   0  0  0  0  0  1  0  0  0  0  0  0
  187.5140  176.0440  142.7950 O   0  0  0  0  0  0  0  0  0  0  0  0
  2 16  1  6  0  0  0
  2  6  1  0  0  0  0
  3 11  1  0  0  0  0
  3  5  2  0  0  0  0
  4  1  1  1  0  0  0
  4  8  1  0  0  0  0
  4  7  1  0  0  0  0
  6 20  1  1  0  0  0
  7  5  1  1  0  0  0
  7  6  1  0  0  0  0
  8 21  1  6  0  0  0
  8  2  1  0  0  0  0
  9 29  1  1  0  0  0
  9  1  1  0  0  0  0
  9  3  1  0  0  0  0
 10 13  1  0  0  0  0
 11 12  2  0  0  0  0
 12 13  1  0  0  0  0
 12 14  1  0  0  0  0
 15 11  1  0  0  0  0
 15 10  2  0  0  0  0
 16 18  2  0  0  0  0
 16 17  1  0  0  0  0
 20 19  3  0  0  0  0
 21 22  1  6  0  0  0
 23 24  1  1  0  0  0
 23 27  1  0  0  0  0
 23 21  1  0  0  0  0
 25 27  1  0  0  0  0
 25 26  1  0  0  0  0
 27 26  1  0  0  0  0
 28 29  1  0  0  0  0
M  END
>  <MODEL>
4

>  <REMARK>
 VINA RESULT:      -6.5      2.495      3.744
  Name = 
  7 active torsions:
  status: ('A' for Active; 'I' for Inactive)
    1  A    between atoms: C_4  and  C_10
    2  A    between atoms: C_5  and  C_9
    3  A    between atoms: C_5  and  C_23
    4  A    between atoms: C_6  and  C_8
    5  A    between atoms: C_9  and  C_20
    6  A    between atoms: C_16  and  C_26
    7  A    between atoms: C_22  and  O_24
                            x       y       z     vdW  Elec       q    Type
                         _______ _______ _______ _____ _____    ______ ____

>  <TORSDO>
F 7

$$$$
=
 OpenBabel11062422433D

 29 32  0  0  1  0  0  0  0  0999 V2000
  188.1260  177.5000  144.3750 C   0  0  0  0  0  2  0  0  0  0  0  0
  190.2090  175.4090  142.9030 C   0  0  1  0  0  3  0  0  0  0  0  0
  186.2370  177.1060  142.8620 C   0  0  0  0  0  0  0  0  0  0  0  0
  188.4550  176.0710  144.4320 N   0  0  1  0  0  0  0  0  0  0  0  0
  186.8390  175.9780  142.4730 C   0  0  0  0  0  3  0  0  0  0  0  0
  189.0030  174.5790  142.5660 C   0  0  1  0  0  3  0  0  0  0  0  0
  187.8640  175.2610  143.3320 C   0  0  1  0  0  3  0  0  0  0  0  0
  189.9120  175.9750  144.2950 C   0  0  1  0  0  3  0  0  0  0  0  0
  186.6270  177.7050  144.1900 C   0  0  2  0  0  3  0  0  0  0  0  0
  183.1000  178.5770  141.2760 N   0  0  0  0  0  0  0  0  0  0  0  0
  185.1770  177.7010  142.0150 C   0  0  0  0  0  0  0  0  0  0  0  0
  185.2970  178.0640  140.7590 C   0  0  0  0  0  0  0  0  0  0  0  0
  184.0890  178.6040  140.2800 N   0  0  0  0  0  0  0  0  0  0  0  0
  186.4310  177.9870  140.0190 F   0  0  0  0  0  0  0  0  0  0  0  0
  183.7750  177.9920  142.4460 C   0  0  0  0  0  2  0  0  0  0  0  0
  191.5010  174.6590  142.7640 C   0  0  0  0  0  0  0  0  0  0  0  0
  192.6800  175.3260  142.4550 O   0  0  0  0  0  0  0  0  0  0  0  0
  191.5130  173.4120  142.9190 O   0  0  0  0  0  1  0  0  0  0  0  0
  188.6570  174.3670  139.9160 C   0  0  0  0  0  3  0  0  0  0  0  0
  188.8090  174.4630  141.1080 C   0  0  0  0  0  0  0  0  0  0  0  0
  190.5160  175.1480  145.4490 C   0  0  2  0  0  3  0  0  0  0  0  0
  189.5310  174.4520  146.1550 O   0  0  0  0  0  1  0  0  0  0  0  0
  191.3760  175.9780  146.4110 C   0  0  2  0  0  3  0  0  0  0  0  0
  190.6350  177.0040  147.0050 O   0  0  0  0  0  1  0  0  0  0  0  0
  193.7420  176.3690  146.7280 O   0  0  0  0  0  0  0  0  0  0  0  0
  193.6290  175.5230  145.6910 O   0  0  0  0  0  0  0  0  0  0  0  0
  192.6960  176.5260  145.8420 C   0  0  0  0  0  3  0  0  0  0  0  0
  185.6390  179.2720  145.4060 C   0  0  0  0  0  1  0  0  0  0  0  0
  186.3560  179.0760  144.2240 O   0  0  0  0  0  0  0  0  0  0  0  0
  2 16  1  1  0  0  0
  2  8  1  0  0  0  0
  3  9  1  0  0  0  0
  4  1  1  6  0  0  0
  5  3  2  0  0  0  0
  6 20  1  6  0  0  0
  6  2  1  0  0  0  0
  6  7  1  0  0  0  0
  7  5  1  6  0  0  0
  7  4  1  0  0  0  0
  8  4  1  0  0  0  0
  8 21  1  1  0  0  0
  9 29  1  6  0  0  0
  9  1  1  0  0  0  0
 10 15  1  0  0  0  0
 11 15  1  0  0  0  0
 11  3  1  0  0  0  0
 12 11  2  0  0  0  0
 13 12  1  0  0  0  0
 13 10  2  0  0  0  0
 14 12  1  0  0  0  0
 16 18  1  0  0  0  0
 17 16  2  0  0  0  0
 19 20  3  0  0  0  0
 21 22  1  1  0  0  0
 21 23  1  0  0  0  0
 23 24  1  6  0  0  0
 26 27  1  0  0  0  0
 26 25  1  0  0  0  0
 27 23  1  0  0  0  0
 27 25  1  0  0  0  0
 29 28  1  0  0  0  0
M  END
>  <MODEL>
5

>  <REMARK>
 VINA RESULT:      -6.5      1.850      3.755
  Name = 
  7 active torsions:
  status: ('A' for Active; 'I' for Inactive)
    1  A    between atoms: C_4  and  C_10
    2  A    between atoms: C_5  and  C_9
    3  A    between atoms: C_5  and  C_23
    4  A    between atoms: C_6  and  C_8
    5  A    between atoms: C_9  and  C_20
    6  A    between atoms: C_16  and  C_26
    7  A    between atoms: C_22  and  O_24
                            x       y       z     vdW  Elec       q    Type
                         _______ _______ _______ _____ _____    ______ ____

>  <TORSDO>
F 7

$$$$
=
 OpenBabel11062422433D

 29 32  0  0  1  0  0  0  0  0999 V2000
  188.8030  174.4820  143.8170 C   0  0  0  0  0  2  0  0  0  0  0  0
  186.7050  176.9470  143.1870 C   0  0  1  0  0  3  0  0  0  0  0  0
  189.5440  174.1620  141.5030 C   0  0  0  0  0  0  0  0  0  0  0  0
  188.8470  175.9430  143.6930 N   0  0  1  0  0  0  0  0  0  0  0  0
  189.0600  175.3760  141.2250 C   0  0  0  0  0  3  0  0  0  0  0  0
  187.6440  177.3510  142.0860 C   0  0  1  0  0  3  0  0  0  0  0  0
  188.8580  176.4390  142.2890 C   0  0  1  0  0  3  0  0  0  0  0  0
  187.6180  176.4500  144.3120 C   0  0  1  0  0  3  0  0  0  0  0  0
  189.8630  173.8290  142.9380 C   0  0  2  0  0  3  0  0  0  0  0  0
  190.9090  171.8380  138.8080 N   0  0  0  0  0  0  0  0  0  0  0  0
  189.8040  173.2060  140.4000 C   0  0  0  0  0  0  0  0  0  0  0  0
  188.8990  172.5710  139.6930 C   0  0  0  0  0  0  0  0  0  0  0  0
  189.5100  171.7330  138.7420 N   0  0  0  0  0  0  0  0  0  0  0  0
  187.5570  172.6530  139.8690 F   0  0  0  0  0  0  0  0  0  0  0  0
  191.1510  172.7980  139.8970 C   0  0  0  0  0  2  0  0  0  0  0  0
  185.7330  178.0270  143.5620 C   0  0  0  0  0  0  0  0  0  0  0  0
  186.0530  179.3670  143.3810 O   0  0  0  0  0  0  0  0  0  0  0  0
  184.6200  177.7140  144.0560 O   0  0  0  0  0  1  0  0  0  0  0  0
  186.4720  177.2000  139.6800 C   0  0  0  0  0  3  0  0  0  0  0  0
  187.0010  177.2700  140.7610 C   0  0  0  0  0  0  0  0  0  0  0  0
  187.9420  177.5210  145.3740 C   0  0  2  0  0  3  0  0  0  0  0  0
  189.2760  177.9310  145.3000 O   0  0  0  0  0  1  0  0  0  0  0  0
  187.5960  177.0880  146.8040 C   0  0  2  0  0  3  0  0  0  0  0  0
  188.0910  175.8120  147.0890 O   0  0  0  0  0  1  0  0  0  0  0  0
  185.9380  177.9750  148.3270 O   0  0  0  0  0  0  0  0  0  0  0  0
  185.6630  178.4910  147.1180 O   0  0  0  0  0  0  0  0  0  0  0  0
  186.1140  177.1920  147.2050 C   0  0  0  0  0  3  0  0  0  0  0  0
  189.8440  172.3010  144.5430 C   0  0  0  0  0  1  0  0  0  0  0  0
  189.8350  172.4480  143.1550 O   0  0  0  0  0  0  0  0  0  0  0  0
  2 16  1  1  0  0  0
  2  8  1  0  0  0  0
  3  9  1  0  0  0  0
  4  1  1  6  0  0  0
  4  8  1  0  0  0  0
  5  3  2  0  0  0  0
  6 20  1  6  0  0  0
  6  7  1  0  0  0  0
  6  2  1  0  0  0  0
  7  5  1  6  0  0  0
  7  4  1  0  0  0  0
  8 21  1  1  0  0  0
  9 29  1  6  0  0  0
  9  1  1  0  0  0  0
 10 15  1  0  0  0  0
 11  3  1  0  0  0  0
 12 14  1  0  0  0  0
 12 11  2  0  0  0  0
 13 10  2  0  0  0  0
 13 12  1  0  0  0  0
 15 11  1  0  0  0  0
 16 18  1  0  0  0  0
 17 16  2  0  0  0  0
 19 20  3  0  0  0  0
 21 22  1  1  0  0  0
 21 23  1  0  0  0  0
 23 24  1  6  0  0  0
 23 27  1  0  0  0  0
 26 27  1  0  0  0  0
 26 25  1  0  0  0  0
 27 25  1  0  0  0  0
 29 28  1  0  0  0  0
M  END
>  <MODEL>
6

>  <REMARK>
 VINA RESULT:      -6.3      3.438      6.088
  Name = 
  7 active torsions:
  status: ('A' for Active; 'I' for Inactive)
    1  A    between atoms: C_4  and  C_10
    2  A    between atoms: C_5  and  C_9
    3  A    between atoms: C_5  and  C_23
    4  A    between atoms: C_6  and  C_8
    5  A    between atoms: C_9  and  C_20
    6  A    between atoms: C_16  and  C_26
    7  A    between atoms: C_22  and  O_24
                            x       y       z     vdW  Elec       q    Type
                         _______ _______ _______ _____ _____    ______ ____

>  <TORSDO>
F 7

$$$$
=
 OpenBabel11062422433D

 29 32  0  0  1  0  0  0  0  0999 V2000
  190.4540  177.1490  146.2800 C   0  0  0  0  0  2  0  0  0  0  0  0
  191.5490  175.9500  143.4100 C   0  0  1  0  0  3  0  0  0  0  0  0
  188.0790  176.6990  145.8710 C   0  0  0  0  0  0  0  0  0  0  0  0
  190.8570  175.8520  145.7260 N   0  0  1  0  0  0  0  0  0  0  0  0
  188.4500  175.8470  144.9100 C   0  0  0  0  0  3  0  0  0  0  0  0
  190.4100  174.9730  143.4820 C   0  0  1  0  0  3  0  0  0  0  0  0
  189.8220  175.1990  144.8780 C   0  0  1  0  0  3  0  0  0  0  0  0
  192.0120  176.1110  144.8610 C   0  0  1  0  0  3  0  0  0  0  0  0
  189.0820  177.0570  146.9380 C   0  0  2  0  0  3  0  0  0  0  0  0
  184.4370  177.6220  146.5100 N   0  0  0  0  0  0  0  0  0  0  0  0
  186.6910  177.2210  145.8920 C   0  0  0  0  0  0  0  0  0  0  0  0
  186.1710  178.0780  145.0460 C   0  0  0  0  0  0  0  0  0  0  0  0
  184.8330  178.3570  145.3820 N   0  0  0  0  0  0  0  0  0  0  0  0
  186.8230  178.6660  144.0130 F   0  0  0  0  0  0  0  0  0  0  0  0
  185.6370  176.8580  146.8870 C   0  0  0  0  0  2  0  0  0  0  0  0
  192.6090  175.5530  142.4250 C   0  0  0  0  0  0  0  0  0  0  0  0
  192.7040  174.2430  141.9720 O   0  0  0  0  0  0  0  0  0  0  0  0
  193.4260  176.4160  142.0140 O   0  0  0  0  0  1  0  0  0  0  0  0
  188.6990  175.2930  141.4420 C   0  0  0  0  0  3  0  0  0  0  0  0
  189.4700  175.1460  142.3590 C   0  0  0  0  0  0  0  0  0  0  0  0
  193.1970  175.2000  145.2440 C   0  0  2  0  0  3  0  0  0  0  0  0
  192.8870  174.3840  146.3360 O   0  0  0  0  0  1  0  0  0  0  0  0
  194.4990  175.9680  145.5050 C   0  0  2  0  0  3  0  0  0  0  0  0
  194.2940  177.3500  145.4780 O   0  0  0  0  0  1  0  0  0  0  0  0
  196.4620  174.5860  145.2000 O   0  0  0  0  0  0  0  0  0  0  0  0
  195.6160  174.2750  144.2040 O   0  0  0  0  0  0  0  0  0  0  0  0
  195.7020  175.5840  144.6260 C   0  0  0  0  0  3  0  0  0  0  0  0
  189.8450  178.5490  148.3870 C   0  0  0  0  0  1  0  0  0  0  0  0
  188.7810  178.2910  147.5210 O   0  0  0  0  0  0  0  0  0  0  0  0
  1  9  1  0  0  0  0
  2 16  1  6  0  0  0
  2  6  1  0  0  0  0
  2  8  1  0  0  0  0
  3 11  1  0  0  0  0
  3  9  1  0  0  0  0
  4  1  1  6  0  0  0
  5  3  2  0  0  0  0
  6 20  1  6  0  0  0
  6  7  1  0  0  0  0
  7  5  1  6  0  0  0
  7  4  1  0  0  0  0
  8 21  1  1  0  0  0
  8  4  1  0  0  0  0
  9 29  1  6  0  0  0
 10 15  1  0  0  0  0
 11 15  1  0  0  0  0
 12 13  1  0  0  0  0
 12 11  2  0  0  0  0
 13 10  2  0  0  0  0
 14 12  1  0  0  0  0
 17 16  2  0  0  0  0
 18 16  1  0  0  0  0
 19 20  3  0  0  0  0
 21 23  1  0  0  0  0
 21 22  1  1  0  0  0
 23 24  1  6  0  0  0
 26 27  1  0  0  0  0
 26 25  1  0  0  0  0
 27 25  1  0  0  0  0
 27 23  1  0  0  0  0
 29 28  1  0  0  0  0
M  END
>  <MODEL>
7

>  <REMARK>
 VINA RESULT:      -6.1      2.617      4.710
  Name = 
  7 active torsions:
  status: ('A' for Active; 'I' for Inactive)
    1  A    between atoms: C_4  and  C_10
    2  A    between atoms: C_5  and  C_9
    3  A    between atoms: C_5  and  C_23
    4  A    between atoms: C_6  and  C_8
    5  A    between atoms: C_9  and  C_20
    6  A    between atoms: C_16  and  C_26
    7  A    between atoms: C_22  and  O_24
                            x       y       z     vdW  Elec       q    Type
                         _______ _______ _______ _____ _____    ______ ____

>  <TORSDO>
F 7

$$$$
=
 OpenBabel11062422433D

 29 32  0  0  1  0  0  0  0  0999 V2000
  189.2750  175.8510  143.3000 C   0  0  0  0  0  2  0  0  0  0  0  0
  191.8640  175.0780  145.1900 C   0  0  1  0  0  3  0  0  0  0  0  0
  188.2250  177.3850  144.8970 C   0  0  0  0  0  0  0  0  0  0  0  0
  190.6140  176.3800  143.5790 N   0  0  1  0  0  0  0  0  0  0  0  0
  189.3970  177.4570  145.5340 C   0  0  0  0  0  3  0  0  0  0  0  0
  191.7720  176.4730  145.7380 C   0  0  1  0  0  3  0  0  0  0  0  0
  190.7170  177.1450  144.8530 C   0  0  1  0  0  3  0  0  0  0  0  0
  191.5010  175.2190  143.7080 C   0  0  1  0  0  3  0  0  0  0  0  0
  188.2170  176.9360  143.4580 C   0  0  2  0  0  3  0  0  0  0  0  0
  185.2200  177.9320  147.1770 N   0  0  0  0  0  0  0  0  0  0  0  0
  186.9840  177.7960  145.5970 C   0  0  0  0  0  0  0  0  0  0  0  0
  186.1500  178.7340  145.2150 C   0  0  0  0  0  0  0  0  0  0  0  0
  185.0900  178.8600  146.1320 N   0  0  0  0  0  0  0  0  0  0  0  0
  186.2920  179.5200  144.1200 F   0  0  0  0  0  0  0  0  0  0  0  0
  186.4640  177.2080  146.8690 C   0  0  0  0  0  2  0  0  0  0  0  0
  193.1770  174.4130  145.4800 C   0  0  0  0  0  0  0  0  0  0  0  0
  193.3170  173.0350  145.3690 O   0  0  0  0  0  0  0  0  0  0  0  0
  194.1600  175.1110  145.8380 O   0  0  0  0  0  1  0  0  0  0  0  0
  191.2410  176.4760  148.3670 C   0  0  0  0  0  3  0  0  0  0  0  0
  191.4830  176.4740  147.1850 C   0  0  0  0  0  0  0  0  0  0  0  0
  192.7220  175.3580  142.7750 C   0  0  2  0  0  3  0  0  0  0  0  0
  192.8430  176.6570  142.2760 O   0  0  0  0  0  1  0  0  0  0  0  0
  192.7300  174.3410  141.6260 C   0  0  2  0  0  3  0  0  0  0  0  0
  193.3360  174.8670  140.4810 O   0  0  0  0  0  1  0  0  0  0  0  0
  191.5290  172.4910  140.6310 O   0  0  0  0  0  0  0  0  0  0  0  0
  191.2020  172.5050  141.9340 O   0  0  0  0  0  0  0  0  0  0  0  0
  191.3760  173.7020  141.2750 C   0  0  0  0  0  3  0  0  0  0  0  0
  187.2710  175.2550  142.3670 C   0  0  0  0  0  1  0  0  0  0  0  0
  186.9740  176.4050  143.1010 O   0  0  0  0  0  0  0  0  0  0  0  0
  1  9  1  0  0  0  0
  2 16  1  6  0  0  0
  2  6  1  0  0  0  0
  3  5  2  0  0  0  0
  3 11  1  0  0  0  0
  4  1  1  1  0  0  0
  4  8  1  0  0  0  0
  4  7  1  0  0  0  0
  6 20  1  1  0  0  0
  7  5  1  1  0  0  0
  7  6  1  0  0  0  0
  8 21  1  6  0  0  0
  8  2  1  0  0  0  0
  9 29  1  1  0  0  0
  9  3  1  0  0  0  0
 11 15  1  0  0  0  0
 12 11  2  0  0  0  0
 12 13  1  0  0  0  0
 13 10  2  0  0  0  0
 14 12  1  0  0  0  0
 15 10  1  0  0  0  0
 16 18  1  0  0  0  0
 17 16  2  0  0  0  0
 20 19  3  0  0  0  0
 21 22  1  6  0  0  0
 23 24  1  6  0  0  0
 23 21  1  0  0  0  0
 25 27  1  0  0  0  0
 25 26  1  0  0  0  0
 27 23  1  0  0  0  0
 27 26  1  0  0  0  0
 28 29  1  0  0  0  0
M  END
>  <MODEL>
8

>  <REMARK>
 VINA RESULT:      -6.1      2.554      4.052
  Name = 
  7 active torsions:
  status: ('A' for Active; 'I' for Inactive)
    1  A    between atoms: C_4  and  C_10
    2  A    between atoms: C_5  and  C_9
    3  A    between atoms: C_5  and  C_23
    4  A    between atoms: C_6  and  C_8
    5  A    between atoms: C_9  and  C_20
    6  A    between atoms: C_16  and  C_26
    7  A    between atoms: C_22  and  O_24
                            x       y       z     vdW  Elec       q    Type
                         _______ _______ _______ _____ _____    ______ ____

>  <TORSDO>
F 7

$$$$
=
 OpenBabel11062422433D

 29 32  0  0  1  0  0  0  0  0999 V2000
  191.1990  176.0830  145.2330 C   0  0  0  0  0  2  0  0  0  0  0  0
  189.4750  174.8280  142.7180 C   0  0  1  0  0  3  0  0  0  0  0  0
  193.3420  175.0570  144.6280 C   0  0  0  0  0  0  0  0  0  0  0  0
  190.9030  176.4280  143.8390 N   0  0  1  0  0  0  0  0  0  0  0  0
  192.8510  174.8550  143.4030 C   0  0  0  0  0  3  0  0  0  0  0  0
  190.7430  174.9130  141.9180 C   0  0  1  0  0  3  0  0  0  0  0  0
  191.7050  175.6740  142.8370 C   0  0  1  0  0  3  0  0  0  0  0  0
  189.4980  176.0710  143.6130 C   0  0  1  0  0  3  0  0  0  0  0  0
  192.7010  176.1130  145.4930 C   0  0  2  0  0  3  0  0  0  0  0  0
  196.7300  173.7020  145.7300 N   0  0  0  0  0  0  0  0  0  0  0  0
  194.5240  174.2850  145.0810 C   0  0  0  0  0  0  0  0  0  0  0  0
  194.5480  173.0080  145.3830 C   0  0  0  0  0  0  0  0  0  0  0  0
  195.8380  172.6180  145.7880 N   0  0  0  0  0  2  0  0  0  0  0  0
  193.4830  172.1700  145.3640 F   0  0  0  0  0  0  0  0  0  0  0  0
  195.9020  174.8300  145.2720 C   0  0  0  0  0  3  0  0  0  0  0  0
  188.2490  174.6560  141.8700 C   0  0  0  0  0  0  0  0  0  0  0  0
  188.2800  174.9400  140.5100 O   0  0  0  0  0  0  0  0  0  0  0  0
  187.1800  174.2580  142.3990 O   0  0  0  0  0  1  0  0  0  0  0  0
  191.5730  172.4930  141.1150 C   0  0  0  0  0  3  0  0  0  0  0  0
  191.2020  173.5820  141.4780 C   0  0  0  0  0  0  0  0  0  0  0  0
  188.7150  177.2700  143.0380 C   0  0  2  0  0  3  0  0  0  0  0  0
  189.5720  178.2350  142.5010 O   0  0  0  0  0  1  0  0  0  0  0  0
  187.7540  177.9130  144.0470 C   0  0  2  0  0  3  0  0  0  0  0  0
  187.7980  177.2630  145.2840 O   0  0  0  0  0  1  0  0  0  0  0  0
  185.9420  179.4180  143.4940 O   0  0  0  0  0  0  0  0  0  0  0  0
  186.2360  178.7420  142.3710 O   0  0  0  0  0  0  0  0  0  0  0  0
  186.2980  178.0880  143.5820 C   0  0  0  0  0  3  0  0  0  0  0  0
  191.7260  175.3230  147.3190 C   0  0  0  0  0  1  0  0  0  0  0  0
  192.9250  175.8610  146.8490 O   0  0  0  0  0  0  0  0  0  0  0  0
  1  9  1  0  0  0  0
  2 16  1  6  0  0  0
  2  8  1  0  0  0  0
  3 11  1  0  0  0  0
  3  9  1  0  0  0  0
  4  1  1  1  0  0  0
  5  3  2  0  0  0  0
  6 20  1  1  0  0  0
  6  2  1  0  0  0  0
  6  7  1  0  0  0  0
  7  5  1  1  0  0  0
  7  4  1  0  0  0  0
  8 21  1  6  0  0  0
  8  4  1  0  0  0  0
  9 29  1  1  0  0  0
 10 13  1  0  0  0  0
 11 15  1  0  0  0  0
 11 12  2  0  0  0  0
 12 13  1  0  0  0  0
 14 12  1  0  0  0  0
 15 10  2  0  0  0  0
 16 18  1  0  0  0  0
 17 16  2  0  0  0  0
 19 20  3  0  0  0  0
 21 22  1  1  0  0  0
 21 23  1  0  0  0  0
 23 24  1  1  0  0  0
 25 27  1  0  0  0  0
 26 25  1  0  0  0  0
 26 27  1  0  0  0  0
 27 23  1  0  0  0  0
 29 28  1  0  0  0  0
M  END
>  <MODEL>
9

>  <REMARK>
 VINA RESULT:      -6.0      3.693      8.011
  Name = 
  7 active torsions:
  status: ('A' for Active; 'I' for Inactive)
    1  A    between atoms: C_4  and  C_10
    2  A    between atoms: C_5  and  C_9
    3  A    between atoms: C_5  and  C_23
    4  A    between atoms: C_6  and  C_8
    5  A    between atoms: C_9  and  C_20
    6  A    between atoms: C_16  and  C_26
    7  A    between atoms: C_22  and  O_24
                            x       y       z     vdW  Elec       q    Type
                         _______ _______ _______ _____ _____    ______ ____

>  <TORSDO>
F 7

$$$$
