=
 OpenBabel11062421343D

 55 60  0  0  1  0  0  0  0  0999 V2000
  194.6430  174.9210  143.5330 O   0  0  0  0  0  0  0  0  0  0  0  0
  194.6000  175.0770  145.2240 P   0  0  2  0  0  0  0  0  0  0  0  0
  194.9800  176.4890  145.6180 O   0  0  0  0  0  0  0  0  0  0  0  0
  195.6910  173.9880  145.9200 O   0  0  0  0  0  1  0  0  0  0  0  0
  193.0200  174.7030  145.7490 O   0  0  0  0  0  0  0  0  0  0  0  0
  191.6990  177.8820  144.5180 O   0  0  0  0  0  1  0  0  0  0  0  0
  191.9480  176.5100  144.4000 C   0  0  1  0  0  3  0  0  0  0  0  0
  192.2700  175.8890  145.7550 C   0  0  1  0  0  0  0  0  0  0  0  0
  190.9060  175.6590  145.1380 C   0  0  1  0  0  3  0  0  0  0  0  0
  190.6330  176.9600  147.2490 C   0  0  1  0  0  3  0  0  0  0  0  0
  191.2850  175.8490  148.0580 C   0  0  0  0  0  2  0  0  0  0  0  0
  192.1090  176.6550  147.0710 C   0  0  1  0  0  3  0  0  0  0  0  0
  189.9210  176.4490  145.9930 C   0  0  2  0  0  3  0  0  0  0  0  0
  188.7130  175.5850  146.3340 C   0  0  0  0  0  2  0  0  0  0  0  0
  187.1390  178.0060  147.5560 O   0  0  0  0  0  1  0  0  0  0  0  0
  187.4210  176.2560  145.8930 C   0  0  2  0  0  3  0  0  0  0  0  0
  184.7640  177.8090  145.7640 C   0  0  0  0  0  2  0  0  0  0  0  0
  187.7110  177.3370  144.8400 C   0  0  0  0  0  2  0  0  0  0  0  0
  185.2940  177.3930  144.5380 O   0  0  0  0  0  0  0  0  0  0  0  0
  185.1450  176.8240  146.8670 C   0  0  0  0  0  2  0  0  0  0  0  0
  186.6540  176.7700  147.1170 C   0  0  2  0  0  3  0  0  0  0  0  0
  186.4770  178.1300  144.3920 C   0  0  2  0  0  3  0  0  0  0  0  0
  186.0330  179.6320  142.6060 O   0  0  0  0  0  0  0  0  0  0  0  0
  186.6360  178.5890  142.9780 C   0  0  0  0  0  0  0  0  0  0  0  0
  188.7070  178.1480  141.9190 O   0  0  0  0  0  0  0  0  0  0  0  0
  187.4840  177.8550  142.0220 C   0  0  0  0  0  0  0  0  0  0  0  0
  186.9320  176.8390  141.2370 O   0  0  0  0  0  0  0  0  0  0  0  0
  186.8250  176.9540  139.8270 C   0  0  0  0  0  1  0  0  0  0  0  0
  195.3730  176.0160  143.0620 C   0  0  0  0  0  2  0  0  0  0  0  0
  195.1590  176.1870  141.5650 C   0  0  1  0  0  3  0  0  0  0  0  0
  195.8260  177.3240  141.1470 F   0  0  0  0  0  0  0  0  0  0  0  0
  195.6590  175.0730  140.8730 O   0  0  0  0  0  0  0  0  0  0  0  0
  194.7750  174.7440  139.8210 C   0  0  1  0  0  3  0  0  0  0  0  0
  195.7390  175.2180  137.7000 O   0  0  0  0  0  0  0  0  0  0  0  0
  195.3980  174.3700  138.5060 C   0  0  0  0  0  3  0  0  0  0  0  0
  193.4440  174.0800  140.2000 C   0  0  0  0  0  2  0  0  0  0  0  0
  190.3890  170.7090  138.7650 C   0  0  0  0  0  1  0  0  0  0  0  0
  191.6780  171.4250  138.9830 C   0  0  0  0  0  3  0  0  0  0  0  0
  193.4430  171.9110  142.5900 C   0  0  0  0  0  0  0  0  0  0  0  0
  192.0690  171.9890  140.1330 C   0  0  0  0  0  0  0  0  0  0  0  0
  194.1250  172.0660  141.4470 C   0  0  0  0  0  3  0  0  0  0  0  0
  193.4590  172.5530  140.1930 C   0  0  2  0  0  3  0  0  0  0  0  0
  191.9690  172.2330  142.6350 C   0  0  0  0  0  2  0  0  0  0  0  0
  191.3050  171.9340  141.3610 N   0  0  0  0  0  0  0  0  0  0  0  0
  194.1340  171.4700  143.8130 C   0  0  0  0  0  0  0  0  0  0  0  0
  193.4990  171.4000  144.9010 O   0  0  0  0  0  0  0  0  0  0  0  0
  195.5210  171.1200  143.7710 N   0  0  0  0  0  2  0  0  0  0  0  0
  197.5810  171.1610  144.8610 O   0  0  0  0  0  1  0  0  0  0  0  0
  196.2550  169.2010  145.0560 C   0  0  0  0  0  1  0  0  0  0  0  0
  196.2630  170.7120  144.9540 C   0  0  2  0  0  3  0  0  0  0  0  0
  189.8490  171.8420  141.3840 C   0  0  0  0  0  2  0  0  0  0  0  0
  189.8650  174.0630  140.4240 O   0  0  0  0  0  0  0  0  0  0  0  0
  189.2190  173.2250  141.3480 C   0  0  2  0  0  0  0  0  0  0  0  0
  188.8870  173.9630  142.6280 C   0  0  0  0  0  1  0  0  0  0  0  0
  188.5500  173.6590  140.1070 C   0  0  0  0  0  2  0  0  0  0  0  0
  1  2  1  0  0  0  0
  2  3  2  1  0  0  0
  2  5  1  0  0  0  0
  2  4  1  0  0  0  0
  7  6  1  1  0  0  0
  7  9  1  0  0  0  0
  7  8  1  0  0  0  0
  8  5  1  1  0  0  0
  8 12  1  0  0  0  0
  9  8  1  0  0  0  0
  9 13  1  0  0  0  0
 10 11  1  0  0  0  0
 12 10  1  0  0  0  0
 12 11  1  0  0  0  0
 13 14  1  0  0  0  0
 13 10  1  0  0  0  0
 16 14  1  0  0  0  0
 16 21  1  0  0  0  0
 17 20  1  0  0  0  0
 18 16  1  0  0  0  0
 19 17  1  0  0  0  0
 20 21  1  0  0  0  0
 21 15  1  0  0  0  0
 22 19  1  0  0  0  0
 22 18  1  0  0  0  0
 23 24  2  0  0  0  0
 24 22  1  0  0  0  0
 25 26  2  0  0  0  0
 26 24  1  0  0  0  0
 27 26  1  0  0  0  0
 28 27  1  0  0  0  0
 29  1  1  0  0  0  0
 30 29  1  0  0  0  0
 31 30  1  0  0  0  0
 32 30  1  0  0  0  0
 33 36  1  0  0  0  0
 33 32  1  0  0  0  0
 34 35  2  0  0  0  0
 35 33  1  0  0  0  0
 37 38  1  0  0  0  0
 38 40  2  0  0  0  0
 39 43  1  0  0  0  0
 39 45  1  0  0  0  0
 40 42  1  0  0  0  0
 40 44  1  0  0  0  0
 41 39  2  0  0  0  0
 42 36  1  0  0  0  0
 42 41  1  0  0  0  0
 44 51  1  0  0  0  0
 44 43  1  0  0  0  0
 45 46  2  0  0  0  0
 47 45  1  0  0  0  0
 47 50  1  0  0  0  0
 48 50  1  0  0  0  0
 50 49  1  0  0  0  0
 52 53  1  0  0  0  0
 53 51  1  0  0  0  0
 53 54  1  0  0  0  0
 55 52  1  0  0  0  0
 55 53  1  0  0  0  0
M  END
>  <MODEL>
1

>  <REMARK>
 VINA RESULT:      -6.6      0.000      0.000
  Name = 
  19 active torsions:
  status: ('A' for Active; 'I' for Inactive)
    1  A    between atoms: C_5  and  C_6
    2  A    between atoms: C_5  and  O_26
    3  A    between atoms: C_6  and  O_17
    4  A    between atoms: C_8  and  C_33
    5  A    between atoms: C_9  and  C_12
    6  A    between atoms: C_9  and  C_54
    7  A    between atoms: O_10  and  C_21
    8  A    between atoms: O_10  and  P_32
    9  A    between atoms: C_13  and  O_17
   10  A    between atoms: C_13  and  C_24
   11  A    between atoms: C_13  and  C_47
   12  A    between atoms: C_16  and  C_23
   13  A    between atoms: O_20  and  C_46
   14  A    between atoms: O_26  and  P_32
   15  A    between atoms: C_29  and  C_46
   16  A    between atoms: C_29  and  C_55
   17  A    between atoms: C_33  and  N_49
   18  A    between atoms: C_43  and  C_47
   19  A    between atoms: C_45  and  N_53
                            x       y       z     vdW  Elec       q    Type
                         _______ _______ _______ _____ _____    ______ ____

>  <TORSDO>
F 19

$$$$
=
 OpenBabel11062421343D

 55 60  0  0  1  0  0  0  0  0999 V2000
  194.5280  174.8880  143.4730 O   0  0  0  0  0  0  0  0  0  0  0  0
  194.2910  174.5120  145.1130 P   0  0  2  0  0  0  0  0  0  0  0  0
  194.8460  175.6250  145.9790 O   0  0  0  0  0  1  0  0  0  0  0  0
  195.0860  173.0660  145.4820 O   0  0  0  0  0  0  0  0  0  0  0  0
  192.6160  174.3170  145.3740 O   0  0  0  0  0  0  0  0  0  0  0  0
  191.6570  177.7150  144.4260 O   0  0  0  0  0  1  0  0  0  0  0  0
  191.7000  176.3310  144.2190 C   0  0  1  0  0  3  0  0  0  0  0  0
  192.0430  175.5910  145.5060 C   0  0  1  0  0  0  0  0  0  0  0  0
  190.6140  175.5860  145.0060 C   0  0  1  0  0  3  0  0  0  0  0  0
  190.7030  176.7800  147.1940 C   0  0  1  0  0  3  0  0  0  0  0  0
  191.2580  175.5440  147.8840 C   0  0  0  0  0  2  0  0  0  0  0  0
  192.1020  176.2900  146.8680 C   0  0  1  0  0  3  0  0  0  0  0  0
  189.8250  176.4480  145.9850 C   0  0  2  0  0  3  0  0  0  0  0  0
  188.5390  175.7370  146.3910 C   0  0  0  0  0  2  0  0  0  0  0  0
  186.9260  178.3560  146.9990 O   0  0  0  0  0  1  0  0  0  0  0  0
  187.3340  176.3470  145.6920 C   0  0  2  0  0  3  0  0  0  0  0  0
  184.7710  177.9030  144.9900 C   0  0  0  0  0  2  0  0  0  0  0  0
  187.7850  177.2310  144.5190 C   0  0  0  0  0  2  0  0  0  0  0  0
  185.4240  177.2790  143.9210 O   0  0  0  0  0  0  0  0  0  0  0  0
  184.9830  177.1110  146.2780 C   0  0  0  0  0  2  0  0  0  0  0  0
  186.4500  177.0720  146.7140 C   0  0  2  0  0  3  0  0  0  0  0  0
  186.6430  177.9600  143.8020 C   0  0  2  0  0  3  0  0  0  0  0  0
  188.1670  178.4720  142.0530 O   0  0  0  0  0  0  0  0  0  0  0  0
  186.9820  178.1730  142.3600 C   0  0  0  0  0  0  0  0  0  0  0  0
  186.1950  177.2840  140.3120 O   0  0  0  0  0  0  0  0  0  0  0  0
  185.9660  178.0310  141.3030 C   0  0  0  0  0  0  0  0  0  0  0  0
  184.7540  178.7200  141.4020 O   0  0  0  0  0  0  0  0  0  0  0  0
  183.5930  178.3020  140.7020 C   0  0  0  0  0  1  0  0  0  0  0  0
  195.3820  175.9940  143.4490 C   0  0  0  0  0  2  0  0  0  0  0  0
  196.7310  175.6040  142.8620 C   0  0  1  0  0  3  0  0  0  0  0  0
  197.5160  175.0680  143.8670 F   0  0  0  0  0  0  0  0  0  0  0  0
  196.5610  174.6510  141.8460 O   0  0  0  0  0  0  0  0  0  0  0  0
  196.4800  175.3120  140.5990 C   0  0  1  0  0  3  0  0  0  0  0  0
  197.9410  175.6470  138.7550 O   0  0  0  0  0  0  0  0  0  0  0  0
  197.7800  175.7120  139.9610 C   0  0  0  0  0  3  0  0  0  0  0  0
  195.3120  174.9360  139.6770 C   0  0  0  0  0  2  0  0  0  0  0  0
  195.2750  171.5150  136.3530 C   0  0  0  0  0  1  0  0  0  0  0  0
  195.4850  172.1810  137.6690 C   0  0  0  0  0  3  0  0  0  0  0  0
  192.5060  173.4040  140.1170 C   0  0  0  0  0  0  0  0  0  0  0  0
  194.6040  172.9780  138.2870 C   0  0  0  0  0  0  0  0  0  0  0  0
  193.7580  173.2390  140.5620 C   0  0  0  0  0  3  0  0  0  0  0  0
  194.9460  173.4530  139.6690 C   0  0  2  0  0  3  0  0  0  0  0  0
  192.2660  173.8180  138.6850 C   0  0  0  0  0  2  0  0  0  0  0  0
  193.2790  173.2650  137.7790 N   0  0  0  0  0  0  0  0  0  0  0  0
  191.3630  173.2260  141.0290 C   0  0  0  0  0  0  0  0  0  0  0  0
  191.5350  172.6730  142.1490 O   0  0  0  0  0  0  0  0  0  0  0  0
  190.0610  173.6830  140.6490 N   0  0  0  0  0  2  0  0  0  0  0  0
  187.9350  172.7430  140.8170 O   0  0  0  0  0  1  0  0  0  0  0  0
  188.3040  174.8560  141.8350 C   0  0  0  0  0  1  0  0  0  0  0  0
  188.8900  173.5030  141.4930 C   0  0  2  0  0  3  0  0  0  0  0  0
  192.9620  173.2710  136.3550 C   0  0  0  0  0  2  0  0  0  0  0  0
  194.4150  175.1880  136.0980 O   0  0  0  0  0  0  0  0  0  0  0  0
  193.1590  174.6580  135.7630 C   0  0  2  0  0  0  0  0  0  0  0  0
  192.0700  175.7060  135.8570 C   0  0  0  0  0  1  0  0  0  0  0  0
  194.2100  174.8430  134.7450 C   0  0  0  0  0  2  0  0  0  0  0  0
  1  2  1  0  0  0  0
  2  5  1  0  0  0  0
  2  4  2  1  0  0  0
  2  3  1  0  0  0  0
  7  6  1  1  0  0  0
  7  9  1  0  0  0  0
  7  8  1  0  0  0  0
  8  5  1  6  0  0  0
  8 12  1  0  0  0  0
  9  8  1  0  0  0  0
  9 13  1  0  0  0  0
 10 11  1  0  0  0  0
 12 10  1  0  0  0  0
 12 11  1  0  0  0  0
 13 14  1  0  0  0  0
 13 10  1  0  0  0  0
 16 14  1  0  0  0  0
 16 21  1  0  0  0  0
 17 20  1  0  0  0  0
 18 16  1  0  0  0  0
 19 17  1  0  0  0  0
 20 21  1  0  0  0  0
 21 15  1  0  0  0  0
 22 19  1  0  0  0  0
 22 18  1  0  0  0  0
 23 24  2  0  0  0  0
 24 22  1  0  0  0  0
 25 26  2  0  0  0  0
 26 27  1  0  0  0  0
 26 24  1  0  0  0  0
 28 27  1  0  0  0  0
 29  1  1  0  0  0  0
 30 29  1  0  0  0  0
 30 31  1  0  0  0  0
 32 30  1  0  0  0  0
 33 32  1  0  0  0  0
 34 35  2  0  0  0  0
 35 33  1  0  0  0  0
 36 33  1  0  0  0  0
 37 38  1  0  0  0  0
 38 40  2  0  0  0  0
 39 41  2  0  0  0  0
 39 45  1  0  0  0  0
 40 42  1  0  0  0  0
 42 36  1  0  0  0  0
 42 41  1  0  0  0  0
 43 39  1  0  0  0  0
 44 40  1  0  0  0  0
 44 43  1  0  0  0  0
 45 46  2  0  0  0  0
 47 45  1  0  0  0  0
 47 50  1  0  0  0  0
 48 50  1  0  0  0  0
 50 49  1  0  0  0  0
 51 44  1  0  0  0  0
 53 54  1  0  0  0  0
 53 52  1  0  0  0  0
 53 51  1  0  0  0  0
 55 53  1  0  0  0  0
 55 52  1  0  0  0  0
M  END
>  <MODEL>
2

>  <REMARK>
 VINA RESULT:      -6.1      2.108      3.861
  Name = 
  19 active torsions:
  status: ('A' for Active; 'I' for Inactive)
    1  A    between atoms: C_5  and  C_6
    2  A    between atoms: C_5  and  O_26
    3  A    between atoms: C_6  and  O_17
    4  A    between atoms: C_8  and  C_33
    5  A    between atoms: C_9  and  C_12
    6  A    between atoms: C_9  and  C_54
    7  A    between atoms: O_10  and  C_21
    8  A    between atoms: O_10  and  P_32
    9  A    between atoms: C_13  and  O_17
   10  A    between atoms: C_13  and  C_24
   11  A    between atoms: C_13  and  C_47
   12  A    between atoms: C_16  and  C_23
   13  A    between atoms: O_20  and  C_46
   14  A    between atoms: O_26  and  P_32
   15  A    between atoms: C_29  and  C_46
   16  A    between atoms: C_29  and  C_55
   17  A    between atoms: C_33  and  N_49
   18  A    between atoms: C_43  and  C_47
   19  A    between atoms: C_45  and  N_53
                            x       y       z     vdW  Elec       q    Type
                         _______ _______ _______ _____ _____    ______ ____

>  <TORSDO>
F 19

$$$$
=
 OpenBabel11062421343D

 55 60  0  0  1  0  0  0  0  0999 V2000
  190.5930  171.1530  140.4850 O   0  0  0  0  0  0  0  0  0  0  0  0
  191.2970  172.3130  139.4620 P   0  0  2  0  0  0  0  0  0  0  0  0
  190.4980  172.4160  138.1790 O   0  0  0  0  0  0  0  0  0  0  0  0
  192.8850  171.8570  139.0990 O   0  0  0  0  0  1  0  0  0  0  0  0
  191.3150  173.8050  140.2900 O   0  0  0  0  0  0  0  0  0  0  0  0
  189.7610  173.1250  143.5280 O   0  0  0  0  0  1  0  0  0  0  0  0
  190.7630  173.6760  142.7210 C   0  0  1  0  0  3  0  0  0  0  0  0
  190.3100  173.7730  141.2690 C   0  0  1  0  0  0  0  0  0  0  0  0
  190.3550  175.0260  142.1180 C   0  0  1  0  0  3  0  0  0  0  0  0
  187.9890  174.5680  141.4730 C   0  0  1  0  0  3  0  0  0  0  0  0
  188.3400  174.6530  139.9950 C   0  0  0  0  0  2  0  0  0  0  0  0
  188.8660  173.5050  140.8360 C   0  0  1  0  0  3  0  0  0  0  0  0
  188.9030  175.4230  142.3560 C   0  0  2  0  0  3  0  0  0  0  0  0
  188.7170  176.9130  142.0950 C   0  0  0  0  0  2  0  0  0  0  0  0
  185.6000  176.9160  142.4360 O   0  0  0  0  0  1  0  0  0  0  0  0
  187.8340  177.5480  143.1590 C   0  0  2  0  0  3  0  0  0  0  0  0
  185.5100  178.8180  144.7310 C   0  0  0  0  0  2  0  0  0  0  0  0
  187.6840  176.6050  144.3630 C   0  0  0  0  0  2  0  0  0  0  0  0
  186.6620  178.5210  145.4680 O   0  0  0  0  0  0  0  0  0  0  0  0
  185.8760  179.1610  143.2890 C   0  0  0  0  0  2  0  0  0  0  0  0
  186.5000  177.9820  142.5390 C   0  0  2  0  0  3  0  0  0  0  0  0
  186.7410  177.1210  145.4560 C   0  0  2  0  0  3  0  0  0  0  0  0
  186.3440  176.6550  147.7510 O   0  0  0  0  0  0  0  0  0  0  0  0
  187.1660  176.6120  146.7970 C   0  0  0  0  0  0  0  0  0  0  0  0
  188.6580  174.8140  147.1810 O   0  0  0  0  0  0  0  0  0  0  0  0
  188.5130  176.0570  147.0170 C   0  0  0  0  0  0  0  0  0  0  0  0
  189.6220  176.9070  147.0390 O   0  0  0  0  0  0  0  0  0  0  0  0
  190.8190  176.5620  147.7200 C   0  0  0  0  0  1  0  0  0  0  0  0
  191.6000  170.2260  140.7690 C   0  0  0  0  0  2  0  0  0  0  0  0
  192.1890  170.4920  142.1470 C   0  0  1  0  0  3  0  0  0  0  0  0
  191.1800  170.3970  143.0880 F   0  0  0  0  0  0  0  0  0  0  0  0
  193.1870  169.5490  142.4370 O   0  0  0  0  0  0  0  0  0  0  0  0
  194.1730  170.1530  143.2500 C   0  0  1  0  0  3  0  0  0  0  0  0
  195.6460  169.1280  144.8090 O   0  0  0  0  0  0  0  0  0  0  0  0
  195.3440  169.2960  143.6400 C   0  0  0  0  0  3  0  0  0  0  0  0
  194.4130  171.6580  143.0680 C   0  0  0  0  0  2  0  0  0  0  0  0
  197.2120  173.5790  146.4190 C   0  0  0  0  0  1  0  0  0  0  0  0
  196.7790  172.7000  145.2960 C   0  0  0  0  0  3  0  0  0  0  0  0
  196.0340  173.9900  141.5360 C   0  0  0  0  0  0  0  0  0  0  0  0
  196.1120  173.1010  144.2070 C   0  0  0  0  0  0  0  0  0  0  0  0
  196.2570  172.6970  141.8040 C   0  0  0  0  0  3  0  0  0  0  0  0
  195.8770  172.0900  143.1230 C   0  0  2  0  0  3  0  0  0  0  0  0
  195.3830  174.8720  142.5740 C   0  0  0  0  0  2  0  0  0  0  0  0
  195.7590  174.4790  143.9370 N   0  0  0  0  0  0  0  0  0  0  0  0
  196.3810  174.5460  140.2170 C   0  0  0  0  0  0  0  0  0  0  0  0
  196.9290  175.6800  140.1390 O   0  0  0  0  0  0  0  0  0  0  0  0
  196.1000  173.8030  139.0260 N   0  0  0  0  0  2  0  0  0  0  0  0
  195.3980  175.2250  137.3180 O   0  0  0  0  0  1  0  0  0  0  0  0
  196.4190  173.1700  136.7090 C   0  0  0  0  0  1  0  0  0  0  0  0
  196.3890  174.3180  137.6950 C   0  0  2  0  0  3  0  0  0  0  0  0
  195.5130  175.4540  144.9940 C   0  0  0  0  0  2  0  0  0  0  0  0
  193.7500  176.6030  146.1880 O   0  0  0  0  0  0  0  0  0  0  0  0
  194.0290  175.5370  145.3180 C   0  0  2  0  0  0  0  0  0  0  0  0
  193.2420  174.2970  145.6870 C   0  0  0  0  0  1  0  0  0  0  0  0
  193.2770  176.7220  144.8630 C   0  0  0  0  0  2  0  0  0  0  0  0
  1 29  1  0  0  0  0
  2  3  2  6  0  0  0
  2  5  1  0  0  0  0
  2  1  1  0  0  0  0
  4  2  1  0  0  0  0
  7  6  1  1  0  0  0
  8  5  1  6  0  0  0
  8  9  1  0  0  0  0
  8  7  1  0  0  0  0
  9 13  1  0  0  0  0
  9  7  1  0  0  0  0
 10 13  1  0  0  0  0
 11 12  1  0  0  0  0
 11 10  1  0  0  0  0
 12  8  1  0  0  0  0
 12 10  1  0  0  0  0
 14 13  1  0  0  0  0
 14 16  1  0  0  0  0
 15 21  1  0  0  0  0
 16 18  1  0  0  0  0
 17 19  1  0  0  0  0
 18 22  1  0  0  0  0
 20 17  1  0  0  0  0
 21 16  1  0  0  0  0
 21 20  1  0  0  0  0
 22 19  1  0  0  0  0
 22 24  1  0  0  0  0
 24 26  1  0  0  0  0
 24 23  2  0  0  0  0
 26 27  1  0  0  0  0
 26 25  2  0  0  0  0
 27 28  1  0  0  0  0
 29 30  1  0  0  0  0
 30 32  1  0  0  0  0
 30 31  1  0  0  0  0
 32 33  1  0  0  0  0
 33 35  1  0  0  0  0
 35 34  2  0  0  0  0
 36 42  1  0  0  0  0
 36 33  1  0  0  0  0
 38 37  1  0  0  0  0
 39 41  2  0  0  0  0
 39 43  1  0  0  0  0
 40 38  2  0  0  0  0
 41 42  1  0  0  0  0
 42 40  1  0  0  0  0
 43 44  1  0  0  0  0
 44 40  1  0  0  0  0
 44 51  1  0  0  0  0
 45 39  1  0  0  0  0
 46 45  2  0  0  0  0
 47 45  1  0  0  0  0
 48 50  1  0  0  0  0
 49 50  1  0  0  0  0
 50 47  1  0  0  0  0
 51 53  1  0  0  0  0
 53 54  1  0  0  0  0
 53 52  1  0  0  0  0
 55 53  1  0  0  0  0
 55 52  1  0  0  0  0
M  END
>  <MODEL>
3

>  <REMARK>
 VINA RESULT:      -5.9      2.569      6.287
  Name = 
  19 active torsions:
  status: ('A' for Active; 'I' for Inactive)
    1  A    between atoms: C_5  and  C_6
    2  A    between atoms: C_5  and  O_26
    3  A    between atoms: C_6  and  O_17
    4  A    between atoms: C_8  and  C_33
    5  A    between atoms: C_9  and  C_12
    6  A    between atoms: C_9  and  C_54
    7  A    between atoms: O_10  and  C_21
    8  A    between atoms: O_10  and  P_32
    9  A    between atoms: C_13  and  O_17
   10  A    between atoms: C_13  and  C_24
   11  A    between atoms: C_13  and  C_47
   12  A    between atoms: C_16  and  C_23
   13  A    between atoms: O_20  and  C_46
   14  A    between atoms: O_26  and  P_32
   15  A    between atoms: C_29  and  C_46
   16  A    between atoms: C_29  and  C_55
   17  A    between atoms: C_33  and  N_49
   18  A    between atoms: C_43  and  C_47
   19  A    between atoms: C_45  and  N_53
                            x       y       z     vdW  Elec       q    Type
                         _______ _______ _______ _____ _____    ______ ____

>  <TORSDO>
F 19

$$$$
=
 OpenBabel11062421343D

 55 60  0  0  1  0  0  0  0  0999 V2000
  195.7040  175.2490  143.7920 O   0  0  0  0  0  0  0  0  0  0  0  0
  194.9890  174.3570  145.0490 P   0  0  2  0  0  0  0  0  0  0  0  0
  195.2750  175.0260  146.3780 O   0  0  0  0  0  1  0  0  0  0  0  0
  195.6250  172.7900  145.0630 O   0  0  0  0  0  0  0  0  0  0  0  0
  193.3100  174.2810  144.7550 O   0  0  0  0  0  0  0  0  0  0  0  0
  193.0290  176.7870  142.1080 O   0  0  0  0  0  1  0  0  0  0  0  0
  192.8950  175.4870  142.6090 C   0  0  1  0  0  3  0  0  0  0  0  0
  192.9220  175.4780  144.1330 C   0  0  1  0  0  0  0  0  0  0  0  0
  191.6020  175.2990  143.4130 C   0  0  1  0  0  3  0  0  0  0  0  0
  191.5320  177.4240  144.7160 C   0  0  1  0  0  3  0  0  0  0  0  0
  191.7830  176.6760  146.0160 C   0  0  0  0  0  2  0  0  0  0  0  0
  192.8750  176.7620  144.9660 C   0  0  1  0  0  3  0  0  0  0  0  0
  190.8100  176.5760  143.6650 C   0  0  2  0  0  3  0  0  0  0  0  0
  189.3860  176.2360  144.0870 C   0  0  0  0  0  2  0  0  0  0  0  0
  187.0060  174.9950  142.4670 O   0  0  0  0  0  1  0  0  0  0  0  0
  188.3710  176.8830  143.1570 C   0  0  2  0  0  3  0  0  0  0  0  0
  186.2890  177.4680  140.9640 C   0  0  0  0  0  2  0  0  0  0  0  0
  187.1770  177.4230  143.9580 C   0  0  0  0  0  2  0  0  0  0  0  0
  186.5340  178.5040  141.8720 O   0  0  0  0  0  0  0  0  0  0  0  0
  187.5480  176.6260  140.7680 C   0  0  0  0  0  2  0  0  0  0  0  0
  187.9820  175.9030  142.0450 C   0  0  2  0  0  3  0  0  0  0  0  0
  186.0570  178.0220  143.0990 C   0  0  2  0  0  3  0  0  0  0  0  0
  185.9560  180.1860  144.0720 O   0  0  0  0  0  0  0  0  0  0  0  0
  185.3470  179.1070  143.8450 C   0  0  0  0  0  0  0  0  0  0  0  0
  183.0160  178.9380  143.4680 O   0  0  0  0  0  0  0  0  0  0  0  0
  183.9580  178.9390  144.3070 C   0  0  0  0  0  0  0  0  0  0  0  0
  183.6910  178.7800  145.6700 O   0  0  0  0  0  0  0  0  0  0  0  0
  184.4950  177.9580  146.5020 C   0  0  0  0  0  1  0  0  0  0  0  0
  196.6440  174.4000  143.2010 C   0  0  0  0  0  2  0  0  0  0  0  0
  196.6230  174.5620  141.6880 C   0  0  1  0  0  3  0  0  0  0  0  0
  197.7530  175.2590  141.3000 F   0  0  0  0  0  0  0  0  0  0  0  0
  196.6160  173.3040  141.0670 O   0  0  0  0  0  0  0  0  0  0  0  0
  195.4180  173.1570  140.3310 C   0  0  1  0  0  3  0  0  0  0  0  0
  195.1180  173.8400  138.0730 O   0  0  0  0  0  0  0  0  0  0  0  0
  195.5540  173.0010  138.8430 C   0  0  0  0  0  3  0  0  0  0  0  0
  194.2470  172.4480  141.0240 C   0  0  0  0  0  2  0  0  0  0  0  0
  190.8760  169.5660  139.2670 C   0  0  0  0  0  1  0  0  0  0  0  0
  192.2240  170.1540  139.5070 C   0  0  0  0  0  3  0  0  0  0  0  0
  194.2390  169.9000  143.0050 C   0  0  0  0  0  0  0  0  0  0  0  0
  192.7250  170.4860  140.7040 C   0  0  0  0  0  0  0  0  0  0  0  0
  194.8580  170.2100  141.8580 C   0  0  0  0  0  3  0  0  0  0  0  0
  194.1520  170.9470  140.7570 C   0  0  2  0  0  3  0  0  0  0  0  0
  192.7970  170.2970  143.2120 C   0  0  0  0  0  2  0  0  0  0  0  0
  192.0360  170.2640  141.9580 N   0  0  0  0  0  0  0  0  0  0  0  0
  194.9710  169.2130  144.0820 C   0  0  0  0  0  0  0  0  0  0  0  0
  195.9150  168.4270  143.7970 O   0  0  0  0  0  0  0  0  0  0  0  0
  194.6170  169.4380  145.4510 N   0  0  0  0  0  2  0  0  0  0  0  0
  194.3760  168.5610  147.5970 O   0  0  0  0  0  1  0  0  0  0  0  0
  196.4320  169.6120  147.0460 C   0  0  0  0  0  1  0  0  0  0  0  0
  195.2810  168.7610  146.5540 C   0  0  2  0  0  3  0  0  0  0  0  0
  190.5820  170.2560  142.0720 C   0  0  0  0  0  2  0  0  0  0  0  0
  190.7250  172.6200  141.5750 O   0  0  0  0  0  0  0  0  0  0  0  0
  190.0530  171.6560  142.3440 C   0  0  2  0  0  0  0  0  0  0  0  0
  189.8220  172.1390  143.7610 C   0  0  0  0  0  1  0  0  0  0  0  0
  189.3730  172.3740  141.2500 C   0  0  0  0  0  2  0  0  0  0  0  0
  1  2  1  0  0  0  0
  2  4  2  1  0  0  0
  2  3  1  0  0  0  0
  5  2  1  0  0  0  0
  7  6  1  1  0  0  0
  7  9  1  0  0  0  0
  7  8  1  0  0  0  0
  8  5  1  1  0  0  0
  8 12  1  0  0  0  0
  9 13  1  0  0  0  0
  9  8  1  0  0  0  0
 10 12  1  0  0  0  0
 10 11  1  0  0  0  0
 12 11  1  0  0  0  0
 13 14  1  0  0  0  0
 13 10  1  0  0  0  0
 16 18  1  0  0  0  0
 16 14  1  0  0  0  0
 17 19  1  0  0  0  0
 19 22  1  0  0  0  0
 20 17  1  0  0  0  0
 20 21  1  0  0  0  0
 21 15  1  0  0  0  0
 21 16  1  0  0  0  0
 22 24  1  0  0  0  0
 22 18  1  0  0  0  0
 24 23  2  0  0  0  0
 24 26  1  0  0  0  0
 25 26  2  0  0  0  0
 26 27  1  0  0  0  0
 27 28  1  0  0  0  0
 29  1  1  0  0  0  0
 30 29  1  0  0  0  0
 31 30  1  0  0  0  0
 32 30  1  0  0  0  0
 33 36  1  0  0  0  0
 33 32  1  0  0  0  0
 34 35  2  0  0  0  0
 35 33  1  0  0  0  0
 37 38  1  0  0  0  0
 38 40  2  0  0  0  0
 39 43  1  0  0  0  0
 39 45  1  0  0  0  0
 40 42  1  0  0  0  0
 40 44  1  0  0  0  0
 41 39  2  0  0  0  0
 42 36  1  0  0  0  0
 42 41  1  0  0  0  0
 44 51  1  0  0  0  0
 44 43  1  0  0  0  0
 45 47  1  0  0  0  0
 46 45  2  0  0  0  0
 47 50  1  0  0  0  0
 50 49  1  0  0  0  0
 50 48  1  0  0  0  0
 51 53  1  0  0  0  0
 52 53  1  0  0  0  0
 53 54  1  0  0  0  0
 55 52  1  0  0  0  0
 55 53  1  0  0  0  0
M  END
>  <MODEL>
4

>  <REMARK>
 VINA RESULT:      -5.7      1.854      3.021
  Name = 
  19 active torsions:
  status: ('A' for Active; 'I' for Inactive)
    1  A    between atoms: C_5  and  C_6
    2  A    between atoms: C_5  and  O_26
    3  A    between atoms: C_6  and  O_17
    4  A    between atoms: C_8  and  C_33
    5  A    between atoms: C_9  and  C_12
    6  A    between atoms: C_9  and  C_54
    7  A    between atoms: O_10  and  C_21
    8  A    between atoms: O_10  and  P_32
    9  A    between atoms: C_13  and  O_17
   10  A    between atoms: C_13  and  C_24
   11  A    between atoms: C_13  and  C_47
   12  A    between atoms: C_16  and  C_23
   13  A    between atoms: O_20  and  C_46
   14  A    between atoms: O_26  and  P_32
   15  A    between atoms: C_29  and  C_46
   16  A    between atoms: C_29  and  C_55
   17  A    between atoms: C_33  and  N_49
   18  A    between atoms: C_43  and  C_47
   19  A    between atoms: C_45  and  N_53
                            x       y       z     vdW  Elec       q    Type
                         _______ _______ _______ _____ _____    ______ ____

>  <TORSDO>
F 19

$$$$
=
 OpenBabel11062421343D

 55 60  0  0  1  0  0  0  0  0999 V2000
  196.7890  175.3330  143.7480 O   0  0  0  0  0  0  0  0  0  0  0  0
  196.7100  173.8880  144.6390 P   0  0  2  0  0  0  0  0  0  0  0  0
  197.7510  173.9080  145.7400 O   0  0  0  0  0  1  0  0  0  0  0  0
  197.0050  172.5750  143.6140 O   0  0  0  0  0  0  0  0  0  0  0  0
  195.1390  173.7530  145.2900 O   0  0  0  0  0  0  0  0  0  0  0  0
  193.2450  175.3670  142.6110 O   0  0  0  0  0  1  0  0  0  0  0  0
  193.5640  174.2730  143.4230 C   0  0  1  0  0  3  0  0  0  0  0  0
  194.3260  174.7140  144.6680 C   0  0  1  0  0  0  0  0  0  0  0  0
  192.8650  174.3320  144.7880 C   0  0  1  0  0  3  0  0  0  0  0  0
  193.1200  176.7470  145.3540 C   0  0  1  0  0  3  0  0  0  0  0  0
  194.0760  176.4150  146.4900 C   0  0  0  0  0  2  0  0  0  0  0  0
  194.4980  176.1860  145.0500 C   0  0  1  0  0  3  0  0  0  0  0  0
  192.1150  175.6280  145.0700 C   0  0  2  0  0  3  0  0  0  0  0  0
  191.1410  175.4290  146.2250 C   0  0  0  0  0  2  0  0  0  0  0  0
  189.3470  177.9270  146.8390 O   0  0  0  0  0  1  0  0  0  0  0  0
  189.7170  175.7600  145.8020 C   0  0  2  0  0  3  0  0  0  0  0  0
  186.8500  176.8660  145.6020 C   0  0  0  0  0  2  0  0  0  0  0  0
  189.7130  176.4450  144.4260 C   0  0  0  0  0  2  0  0  0  0  0  0
  187.3000  176.1210  144.5060 O   0  0  0  0  0  0  0  0  0  0  0  0
  187.5030  176.3640  146.8880 C   0  0  0  0  0  2  0  0  0  0  0  0
  189.0190  176.5690  146.9010 C   0  0  2  0  0  3  0  0  0  0  0  0
  188.3270  176.8940  143.9480 C   0  0  2  0  0  3  0  0  0  0  0  0
  188.9620  176.0270  141.8300 O   0  0  0  0  0  0  0  0  0  0  0  0
  188.2530  176.8600  142.4540 C   0  0  0  0  0  0  0  0  0  0  0  0
  187.2320  177.6300  140.4620 O   0  0  0  0  0  0  0  0  0  0  0  0
  187.3660  177.7700  141.7080 C   0  0  0  0  0  0  0  0  0  0  0  0
  186.6760  178.7810  142.3840 O   0  0  0  0  0  0  0  0  0  0  0  0
  185.2820  178.7000  142.6350 C   0  0  0  0  0  1  0  0  0  0  0  0
  197.4370  175.0150  142.5510 C   0  0  0  0  0  2  0  0  0  0  0  0
  196.5120  175.2640  141.3690 C   0  0  1  0  0  3  0  0  0  0  0  0
  196.5980  176.5960  141.0090 F   0  0  0  0  0  0  0  0  0  0  0  0
  196.8910  174.4630  140.2810 O   0  0  0  0  0  0  0  0  0  0  0  0
  196.1580  174.8550  139.1380 C   0  0  1  0  0  3  0  0  0  0  0  0
  196.7570  175.6390  136.9740 O   0  0  0  0  0  0  0  0  0  0  0  0
  196.8670  174.7650  137.8160 C   0  0  0  0  0  3  0  0  0  0  0  0
  194.6420  174.6210  139.1570 C   0  0  0  0  0  2  0  0  0  0  0  0
  193.4260  173.4180  134.7040 C   0  0  0  0  0  1  0  0  0  0  0  0
  194.0440  173.3230  136.0560 C   0  0  0  0  0  3  0  0  0  0  0  0
  191.9650  172.8500  139.4940 C   0  0  0  0  0  0  0  0  0  0  0  0
  193.4310  173.6090  137.2130 C   0  0  0  0  0  0  0  0  0  0  0  0
  193.2760  172.5860  139.4230 C   0  0  0  0  0  3  0  0  0  0  0  0
  194.1800  173.3300  138.4840 C   0  0  2  0  0  3  0  0  0  0  0  0
  191.3660  173.9220  138.6140 C   0  0  0  0  0  2  0  0  0  0  0  0
  192.0420  174.0040  137.3150 N   0  0  0  0  0  0  0  0  0  0  0  0
  191.1120  172.1310  140.4550 C   0  0  0  0  0  0  0  0  0  0  0  0
  191.0510  170.8720  140.4200 O   0  0  0  0  0  0  0  0  0  0  0  0
  190.3550  172.8570  141.4300 N   0  0  0  0  0  2  0  0  0  0  0  0
  188.1440  172.5170  142.0820 O   0  0  0  0  0  1  0  0  0  0  0  0
  189.7950  172.6810  143.7800 C   0  0  0  0  0  1  0  0  0  0  0  0
  189.4700  172.2030  142.3810 C   0  0  2  0  0  3  0  0  0  0  0  0
  191.3420  174.7170  136.2530 C   0  0  0  0  0  2  0  0  0  0  0  0
  188.9360  174.5430  136.4360 O   0  0  0  0  0  0  0  0  0  0  0  0
  190.0770  173.9760  135.8470 C   0  0  2  0  0  0  0  0  0  0  0  0
  190.0210  172.4620  135.8680 C   0  0  0  0  0  1  0  0  0  0  0  0
  189.0730  174.6930  135.0390 C   0  0  0  0  0  2  0  0  0  0  0  0
  1  2  1  0  0  0  0
  2  4  2  6  0  0  0
  2  5  1  0  0  0  0
  2  3  1  0  0  0  0
  7  6  1  6  0  0  0
  7  8  1  0  0  0  0
  7  9  1  0  0  0  0
  8  9  1  0  0  0  0
  8 12  1  0  0  0  0
  8  5  1  1  0  0  0
  9 13  1  0  0  0  0
 10 11  1  0  0  0  0
 12 10  1  0  0  0  0
 12 11  1  0  0  0  0
 13 10  1  0  0  0  0
 13 14  1  0  0  0  0
 15 21  1  0  0  0  0
 16 14  1  0  0  0  0
 16 21  1  0  0  0  0
 17 20  1  0  0  0  0
 18 16  1  0  0  0  0
 19 17  1  0  0  0  0
 20 21  1  0  0  0  0
 22 18  1  0  0  0  0
 22 19  1  0  0  0  0
 23 24  2  0  0  0  0
 24 22  1  0  0  0  0
 25 26  2  0  0  0  0
 26 27  1  0  0  0  0
 26 24  1  0  0  0  0
 27 28  1  0  0  0  0
 29  1  1  0  0  0  0
 30 29  1  0  0  0  0
 31 30  1  0  0  0  0
 32 30  1  0  0  0  0
 33 36  1  0  0  0  0
 33 32  1  0  0  0  0
 34 35  2  0  0  0  0
 35 33  1  0  0  0  0
 37 38  1  0  0  0  0
 38 40  2  0  0  0  0
 39 45  1  0  0  0  0
 40 44  1  0  0  0  0
 40 42  1  0  0  0  0
 41 39  2  0  0  0  0
 42 36  1  0  0  0  0
 42 41  1  0  0  0  0
 43 39  1  0  0  0  0
 44 43  1  0  0  0  0
 45 47  1  0  0  0  0
 46 45  2  0  0  0  0
 47 50  1  0  0  0  0
 48 50  1  0  0  0  0
 50 49  1  0  0  0  0
 51 44  1  0  0  0  0
 53 54  1  0  0  0  0
 53 51  1  0  0  0  0
 53 52  1  0  0  0  0
 55 53  1  0  0  0  0
 55 52  1  0  0  0  0
M  END
>  <MODEL>
5

>  <REMARK>
 VINA RESULT:      -5.7      2.276      3.841
  Name = 
  19 active torsions:
  status: ('A' for Active; 'I' for Inactive)
    1  A    between atoms: C_5  and  C_6
    2  A    between atoms: C_5  and  O_26
    3  A    between atoms: C_6  and  O_17
    4  A    between atoms: C_8  and  C_33
    5  A    between atoms: C_9  and  C_12
    6  A    between atoms: C_9  and  C_54
    7  A    between atoms: O_10  and  C_21
    8  A    between atoms: O_10  and  P_32
    9  A    between atoms: C_13  and  O_17
   10  A    between atoms: C_13  and  C_24
   11  A    between atoms: C_13  and  C_47
   12  A    between atoms: C_16  and  C_23
   13  A    between atoms: O_20  and  C_46
   14  A    between atoms: O_26  and  P_32
   15  A    between atoms: C_29  and  C_46
   16  A    between atoms: C_29  and  C_55
   17  A    between atoms: C_33  and  N_49
   18  A    between atoms: C_43  and  C_47
   19  A    between atoms: C_45  and  N_53
                            x       y       z     vdW  Elec       q    Type
                         _______ _______ _______ _____ _____    ______ ____

>  <TORSDO>
F 19

$$$$
=
 OpenBabel11062421343D

 55 60  0  0  1  0  0  0  0  0999 V2000
  188.5400  172.6010  141.6950 O   0  0  0  0  0  0  0  0  0  0  0  0
  188.8990  174.2600  141.6070 P   0  0  2  0  0  0  0  0  0  0  0  0
  188.1650  174.8810  140.4360 O   0  0  0  0  0  0  0  0  0  0  0  0
  190.5650  174.4670  141.3970 O   0  0  0  0  0  1  0  0  0  0  0  0
  188.4220  174.9830  143.0770 O   0  0  0  0  0  0  0  0  0  0  0  0
  190.6520  177.8660  142.7950 O   0  0  0  0  0  1  0  0  0  0  0  0
  189.3880  177.2650  142.7720 C   0  0  1  0  0  3  0  0  0  0  0  0
  189.4150  175.9010  143.4530 C   0  0  1  0  0  0  0  0  0  0  0  0
  188.8000  177.0810  144.1770 C   0  0  1  0  0  3  0  0  0  0  0  0
  190.8080  176.3110  145.4410 C   0  0  1  0  0  3  0  0  0  0  0  0
  190.2050  174.9260  145.6210 C   0  0  0  0  0  2  0  0  0  0  0  0
  190.6270  175.3970  144.2420 C   0  0  1  0  0  3  0  0  0  0  0  0
  189.7520  177.4130  145.3200 C   0  0  2  0  0  3  0  0  0  0  0  0
  188.9710  177.6000  146.6150 C   0  0  0  0  0  2  0  0  0  0  0  0
  186.5830  178.9700  148.1160 O   0  0  0  0  0  1  0  0  0  0  0  0
  187.4720  177.5410  146.3620 C   0  0  2  0  0  3  0  0  0  0  0  0
  184.4030  177.5920  146.6200 C   0  0  0  0  0  2  0  0  0  0  0  0
  187.0620  178.5990  145.3250 C   0  0  0  0  0  2  0  0  0  0  0  0
  184.9100  177.4580  145.3220 O   0  0  0  0  0  0  0  0  0  0  0  0
  185.3520  176.9470  147.6280 C   0  0  0  0  0  2  0  0  0  0  0  0
  186.7130  177.6450  147.6900 C   0  0  2  0  0  3  0  0  0  0  0  0
  185.5530  178.6760  145.0640 C   0  0  2  0  0  3  0  0  0  0  0  0
  186.1190  179.8790  143.0950 O   0  0  0  0  0  0  0  0  0  0  0  0
  185.2880  179.1180  143.6590 C   0  0  0  0  0  0  0  0  0  0  0  0
  182.9450  179.0270  143.3330 O   0  0  0  0  0  0  0  0  0  0  0  0
  184.0870  178.6760  142.9280 C   0  0  0  0  0  0  0  0  0  0  0  0
  184.2180  177.8750  141.7910 O   0  0  0  0  0  0  0  0  0  0  0  0
  183.6930  178.2660  140.5320 C   0  0  0  0  0  1  0  0  0  0  0  0
  188.9860  172.1750  142.9490 C   0  0  0  0  0  2  0  0  0  0  0  0
  190.4300  171.7040  142.8630 C   0  0  1  0  0  3  0  0  0  0  0  0
  190.9550  171.6390  144.1400 F   0  0  0  0  0  0  0  0  0  0  0  0
  190.4910  170.4330  142.2700 O   0  0  0  0  0  0  0  0  0  0  0  0
  191.7710  170.2460  141.7030 C   0  0  1  0  0  3  0  0  0  0  0  0
  190.9900  168.4940  140.2980 O   0  0  0  0  0  0  0  0  0  0  0  0
  191.9460  169.0500  140.8090 C   0  0  0  0  0  3  0  0  0  0  0  0
  192.5950  171.5030  141.3910 C   0  0  0  0  0  2  0  0  0  0  0  0
  194.5920  171.4680  145.7230 C   0  0  0  0  0  1  0  0  0  0  0  0
  194.3530  171.1250  144.2930 C   0  0  0  0  0  3  0  0  0  0  0  0
  194.9970  173.6500  141.1980 C   0  0  0  0  0  0  0  0  0  0  0  0
  194.1210  172.0060  143.3110 C   0  0  0  0  0  0  0  0  0  0  0  0
  194.8880  172.3270  141.0160 C   0  0  0  0  0  3  0  0  0  0  0  0
  194.0320  171.4770  141.9090 C   0  0  2  0  0  3  0  0  0  0  0  0
  194.2450  174.3170  142.3240 C   0  0  0  0  0  2  0  0  0  0  0  0
  194.1250  173.4420  143.4960 N   0  0  0  0  0  0  0  0  0  0  0  0
  195.8120  174.4630  140.2800 C   0  0  0  0  0  0  0  0  0  0  0  0
  196.1940  175.6120  140.6310 O   0  0  0  0  0  0  0  0  0  0  0  0
  196.1730  173.9500  138.9930 N   0  0  0  0  0  2  0  0  0  0  0  0
  196.0870  175.3190  137.1080 O   0  0  0  0  0  1  0  0  0  0  0  0
  197.9030  173.8020  137.3030 C   0  0  0  0  0  1  0  0  0  0  0  0
  196.9460  174.7220  138.0310 C   0  0  2  0  0  3  0  0  0  0  0  0
  193.7630  174.0780  144.7580 C   0  0  0  0  0  2  0  0  0  0  0  0
  194.5600  176.3570  144.9120 O   0  0  0  0  0  0  0  0  0  0  0  0
  194.8620  175.0210  145.2220 C   0  0  2  0  0  0  0  0  0  0  0  0
  196.3200  174.7060  144.9610 C   0  0  0  0  0  1  0  0  0  0  0  0
  194.5460  176.0010  146.2780 C   0  0  0  0  0  2  0  0  0  0  0  0
  1 29  1  0  0  0  0
  2  3  2  6  0  0  0
  2  1  1  0  0  0  0
  2  5  1  0  0  0  0
  4  2  1  0  0  0  0
  7  6  1  1  0  0  0
  7  8  1  0  0  0  0
  7  9  1  0  0  0  0
  8  5  1  6  0  0  0
  8  9  1  0  0  0  0
  8 12  1  0  0  0  0
  9 13  1  0  0  0  0
 10 11  1  0  0  0  0
 12 10  1  0  0  0  0
 12 11  1  0  0  0  0
 13 10  1  0  0  0  0
 13 14  1  0  0  0  0
 16 14  1  0  0  0  0
 16 21  1  0  0  0  0
 17 20  1  0  0  0  0
 18 16  1  0  0  0  0
 19 17  1  0  0  0  0
 20 21  1  0  0  0  0
 21 15  1  0  0  0  0
 22 19  1  0  0  0  0
 22 18  1  0  0  0  0
 23 24  2  0  0  0  0
 24 22  1  0  0  0  0
 26 25  2  0  0  0  0
 26 24  1  0  0  0  0
 27 26  1  0  0  0  0
 28 27  1  0  0  0  0
 30 29  1  0  0  0  0
 30 31  1  0  0  0  0
 32 30  1  0  0  0  0
 33 32  1  0  0  0  0
 34 35  2  0  0  0  0
 35 33  1  0  0  0  0
 36 33  1  0  0  0  0
 36 42  1  0  0  0  0
 38 37  1  0  0  0  0
 39 43  1  0  0  0  0
 40 44  1  0  0  0  0
 40 38  2  0  0  0  0
 41 39  2  0  0  0  0
 41 42  1  0  0  0  0
 42 40  1  0  0  0  0
 43 44  1  0  0  0  0
 44 51  1  0  0  0  0
 45 46  2  0  0  0  0
 45 39  1  0  0  0  0
 47 45  1  0  0  0  0
 48 50  1  0  0  0  0
 49 50  1  0  0  0  0
 50 47  1  0  0  0  0
 51 53  1  0  0  0  0
 52 53  1  0  0  0  0
 52 55  1  0  0  0  0
 53 55  1  0  0  0  0
 54 53  1  0  0  0  0
M  END
>  <MODEL>
6

>  <REMARK>
 VINA RESULT:      -5.7      2.567      5.252
  Name = 
  19 active torsions:
  status: ('A' for Active; 'I' for Inactive)
    1  A    between atoms: C_5  and  C_6
    2  A    between atoms: C_5  and  O_26
    3  A    between atoms: C_6  and  O_17
    4  A    between atoms: C_8  and  C_33
    5  A    between atoms: C_9  and  C_12
    6  A    between atoms: C_9  and  C_54
    7  A    between atoms: O_10  and  C_21
    8  A    between atoms: O_10  and  P_32
    9  A    between atoms: C_13  and  O_17
   10  A    between atoms: C_13  and  C_24
   11  A    between atoms: C_13  and  C_47
   12  A    between atoms: C_16  and  C_23
   13  A    between atoms: O_20  and  C_46
   14  A    between atoms: O_26  and  P_32
   15  A    between atoms: C_29  and  C_46
   16  A    between atoms: C_29  and  C_55
   17  A    between atoms: C_33  and  N_49
   18  A    between atoms: C_43  and  C_47
   19  A    between atoms: C_45  and  N_53
                            x       y       z     vdW  Elec       q    Type
                         _______ _______ _______ _____ _____    ______ ____

>  <TORSDO>
F 19

$$$$
=
 OpenBabel11062421343D

 55 60  0  0  1  0  0  0  0  0999 V2000
  194.1190  175.4240  143.8670 O   0  0  0  0  0  0  0  0  0  0  0  0
  193.8930  174.6280  145.3510 P   0  0  2  0  0  0  0  0  0  0  0  0
  194.5140  175.4410  146.4680 O   0  0  0  0  0  1  0  0  0  0  0  0
  194.6270  173.1050  145.2930 O   0  0  0  0  0  0  0  0  0  0  0  0
  192.2160  174.4360  145.5980 O   0  0  0  0  0  0  0  0  0  0  0  0
  191.1470  177.7410  144.4590 O   0  0  0  0  0  1  0  0  0  0  0  0
  191.1940  176.3460  144.3570 C   0  0  1  0  0  3  0  0  0  0  0  0
  191.6370  175.7120  145.6710 C   0  0  1  0  0  0  0  0  0  0  0  0
  190.1760  175.6570  145.2740 C   0  0  1  0  0  3  0  0  0  0  0  0
  190.4010  177.0200  147.3510 C   0  0  1  0  0  3  0  0  0  0  0  0
  191.0190  175.8460  148.0950 C   0  0  0  0  0  2  0  0  0  0  0  0
  191.7800  176.5160  146.9660 C   0  0  1  0  0  3  0  0  0  0  0  0
  189.4450  176.5860  146.2360 C   0  0  2  0  0  3  0  0  0  0  0  0
  188.2010  175.8990  146.7860 C   0  0  0  0  0  2  0  0  0  0  0  0
  187.3030  178.6400  148.0150 O   0  0  0  0  0  1  0  0  0  0  0  0
  186.9580  176.7410  146.5380 C   0  0  2  0  0  3  0  0  0  0  0  0
  184.5960  178.7040  146.7670 C   0  0  0  0  0  2  0  0  0  0  0  0
  187.1710  177.6700  145.3330 C   0  0  0  0  0  2  0  0  0  0  0  0
  184.7820  178.1080  145.5140 O   0  0  0  0  0  0  0  0  0  0  0  0
  185.0560  177.7600  147.8760 C   0  0  0  0  0  2  0  0  0  0  0  0
  186.5580  177.4730  147.8250 C   0  0  2  0  0  3  0  0  0  0  0  0
  186.0020  178.6210  145.0530 C   0  0  2  0  0  3  0  0  0  0  0  0
  185.5480  180.0830  143.2370 O   0  0  0  0  0  0  0  0  0  0  0  0
  185.9190  178.9320  143.5930 C   0  0  0  0  0  0  0  0  0  0  0  0
  185.6240  176.8440  142.5160 O   0  0  0  0  0  0  0  0  0  0  0  0
  186.2680  177.9280  142.5720 C   0  0  0  0  0  0  0  0  0  0  0  0
  187.3050  178.1810  141.6710 O   0  0  0  0  0  0  0  0  0  0  0  0
  188.5760  177.5620  141.7950 C   0  0  0  0  0  1  0  0  0  0  0  0
  195.3270  176.1170  143.9790 C   0  0  0  0  0  2  0  0  0  0  0  0
  196.3190  175.6190  142.9370 C   0  0  1  0  0  3  0  0  0  0  0  0
  197.0140  176.7020  142.4320 F   0  0  0  0  0  0  0  0  0  0  0  0
  197.2220  174.7170  143.5200 O   0  0  0  0  0  0  0  0  0  0  0  0
  197.1730  173.4920  142.8180 C   0  0  1  0  0  3  0  0  0  0  0  0
  197.5190  171.8010  144.4530 O   0  0  0  0  0  0  0  0  0  0  0  0
  197.9090  172.3320  143.4280 C   0  0  0  0  0  3  0  0  0  0  0  0
  195.9010  173.1910  142.0120 C   0  0  0  0  0  2  0  0  0  0  0  0
  196.9820  169.8600  138.7730 C   0  0  0  0  0  1  0  0  0  0  0  0
  196.7470  170.4910  140.1030 C   0  0  0  0  0  3  0  0  0  0  0  0
  193.1220  171.6380  141.4830 C   0  0  0  0  0  0  0  0  0  0  0  0
  195.7040  171.2680  140.4210 C   0  0  0  0  0  0  0  0  0  0  0  0
  194.1650  171.4660  142.3050 C   0  0  0  0  0  3  0  0  0  0  0  0
  195.5750  171.7070  141.8510 C   0  0  2  0  0  3  0  0  0  0  0  0
  193.3530  172.0890  140.0600 C   0  0  0  0  0  2  0  0  0  0  0  0
  194.6110  171.5640  139.5180 N   0  0  0  0  0  0  0  0  0  0  0  0
  191.7480  171.4320  141.9710 C   0  0  0  0  0  0  0  0  0  0  0  0
  191.1900  170.3110  141.8200 O   0  0  0  0  0  0  0  0  0  0  0  0
  191.0460  172.4990  142.6180 N   0  0  0  0  0  2  0  0  0  0  0  0
  188.9560  173.5170  142.7750 O   0  0  0  0  0  1  0  0  0  0  0  0
  189.6780  172.1670  144.5900 C   0  0  0  0  0  1  0  0  0  0  0  0
  189.6760  172.3640  143.0890 C   0  0  2  0  0  3  0  0  0  0  0  0
  194.7720  171.6070  138.0690 C   0  0  0  0  0  2  0  0  0  0  0  0
  196.3330  173.4310  138.3660 O   0  0  0  0  0  0  0  0  0  0  0  0
  195.2340  172.9830  137.6170 C   0  0  2  0  0  0  0  0  0  0  0  0
  194.2370  174.0980  137.3730 C   0  0  0  0  0  1  0  0  0  0  0  0
  196.5730  173.1110  137.0120 C   0  0  0  0  0  2  0  0  0  0  0  0
  1 29  1  0  0  0  0
  1  2  1  0  0  0  0
  2  4  2  6  0  0  0
  2  5  1  0  0  0  0
  2  3  1  0  0  0  0
  7  6  1  1  0  0  0
  7  9  1  0  0  0  0
  7  8  1  0  0  0  0
  8  5  1  6  0  0  0
  8 12  1  0  0  0  0
  9  8  1  0  0  0  0
  9 13  1  0  0  0  0
 10 11  1  0  0  0  0
 12 10  1  0  0  0  0
 12 11  1  0  0  0  0
 13 14  1  0  0  0  0
 13 10  1  0  0  0  0
 16 14  1  0  0  0  0
 16 21  1  0  0  0  0
 17 20  1  0  0  0  0
 18 16  1  0  0  0  0
 19 17  1  0  0  0  0
 21 20  1  0  0  0  0
 21 15  1  0  0  0  0
 22 18  1  0  0  0  0
 22 19  1  0  0  0  0
 23 24  2  0  0  0  0
 24 22  1  0  0  0  0
 25 26  2  0  0  0  0
 26 24  1  0  0  0  0
 27 28  1  0  0  0  0
 27 26  1  0  0  0  0
 30 32  1  0  0  0  0
 30 29  1  0  0  0  0
 31 30  1  0  0  0  0
 33 35  1  0  0  0  0
 33 32  1  0  0  0  0
 35 34  2  0  0  0  0
 36 33  1  0  0  0  0
 37 38  1  0  0  0  0
 38 40  2  0  0  0  0
 39 45  1  0  0  0  0
 39 41  2  0  0  0  0
 40 42  1  0  0  0  0
 42 36  1  0  0  0  0
 42 41  1  0  0  0  0
 43 39  1  0  0  0  0
 44 43  1  0  0  0  0
 44 40  1  0  0  0  0
 45 47  1  0  0  0  0
 46 45  2  0  0  0  0
 47 50  1  0  0  0  0
 48 50  1  0  0  0  0
 50 49  1  0  0  0  0
 51 44  1  0  0  0  0
 53 51  1  0  0  0  0
 53 52  1  0  0  0  0
 54 53  1  0  0  0  0
 55 53  1  0  0  0  0
 55 52  1  0  0  0  0
M  END
>  <MODEL>
7

>  <REMARK>
 VINA RESULT:      -5.6      1.787      3.811
  Name = 
  19 active torsions:
  status: ('A' for Active; 'I' for Inactive)
    1  A    between atoms: C_5  and  C_6
    2  A    between atoms: C_5  and  O_26
    3  A    between atoms: C_6  and  O_17
    4  A    between atoms: C_8  and  C_33
    5  A    between atoms: C_9  and  C_12
    6  A    between atoms: C_9  and  C_54
    7  A    between atoms: O_10  and  C_21
    8  A    between atoms: O_10  and  P_32
    9  A    between atoms: C_13  and  O_17
   10  A    between atoms: C_13  and  C_24
   11  A    between atoms: C_13  and  C_47
   12  A    between atoms: C_16  and  C_23
   13  A    between atoms: O_20  and  C_46
   14  A    between atoms: O_26  and  P_32
   15  A    between atoms: C_29  and  C_46
   16  A    between atoms: C_29  and  C_55
   17  A    between atoms: C_33  and  N_49
   18  A    between atoms: C_43  and  C_47
   19  A    between atoms: C_45  and  N_53
                            x       y       z     vdW  Elec       q    Type
                         _______ _______ _______ _____ _____    ______ ____

>  <TORSDO>
F 19

$$$$
=
 OpenBabel11062421343D

 55 60  0  0  1  0  0  0  0  0999 V2000
  194.7830  173.1290  145.7290 O   0  0  0  0  0  0  0  0  0  0  0  0
  194.0510  174.6280  145.4040 P   0  0  2  0  0  0  0  0  0  0  0  0
  194.4270  175.0900  144.0120 O   0  0  0  0  0  0  0  0  0  0  0  0
  194.5780  175.7700  146.5350 O   0  0  0  0  0  1  0  0  0  0  0  0
  192.3620  174.4320  145.5460 O   0  0  0  0  0  0  0  0  0  0  0  0
  191.3270  177.7400  144.3840 O   0  0  0  0  0  1  0  0  0  0  0  0
  191.3790  176.3460  144.2790 C   0  0  1  0  0  3  0  0  0  0  0  0
  191.7790  175.7070  145.6040 C   0  0  1  0  0  0  0  0  0  0  0  0
  190.3330  175.6510  145.1590 C   0  0  1  0  0  3  0  0  0  0  0  0
  190.4870  177.0070  147.2470 C   0  0  1  0  0  3  0  0  0  0  0  0
  191.0820  175.8310  148.0070 C   0  0  0  0  0  2  0  0  0  0  0  0
  191.8790  176.5060  146.9070 C   0  0  1  0  0  3  0  0  0  0  0  0
  189.5690  176.5760  146.1000 C   0  0  2  0  0  3  0  0  0  0  0  0
  188.3080  175.8850  146.6060 C   0  0  0  0  0  2  0  0  0  0  0  0
  186.8810  178.5790  147.3400 O   0  0  0  0  0  1  0  0  0  0  0  0
  187.0600  176.5380  146.0320 C   0  0  2  0  0  3  0  0  0  0  0  0
  184.5030  178.1950  145.5840 C   0  0  0  0  0  2  0  0  0  0  0  0
  187.4170  177.3870  144.8010 C   0  0  0  0  0  2  0  0  0  0  0  0
  185.0090  177.5290  144.4620 O   0  0  0  0  0  0  0  0  0  0  0  0
  184.8210  177.4100  146.8540 C   0  0  0  0  0  2  0  0  0  0  0  0
  186.3230  177.3140  147.1300 C   0  0  2  0  0  3  0  0  0  0  0  0
  186.2350  178.1550  144.1990 C   0  0  2  0  0  3  0  0  0  0  0  0
  185.5960  179.0400  142.0890 O   0  0  0  0  0  0  0  0  0  0  0  0
  186.4240  178.3350  142.7260 C   0  0  0  0  0  0  0  0  0  0  0  0
  188.6740  178.2980  141.9910 O   0  0  0  0  0  0  0  0  0  0  0  0
  187.5560  177.7150  142.0150 C   0  0  0  0  0  0  0  0  0  0  0  0
  187.3870  176.4840  141.3750 O   0  0  0  0  0  0  0  0  0  0  0  0
  187.9980  175.2970  141.8570 C   0  0  0  0  0  1  0  0  0  0  0  0
  196.0140  173.1480  145.0670 C   0  0  0  0  0  2  0  0  0  0  0  0
  196.5890  171.7420  144.9830 C   0  0  1  0  0  3  0  0  0  0  0  0
  197.2080  171.4410  146.1820 F   0  0  0  0  0  0  0  0  0  0  0  0
  195.5640  170.8130  144.7430 O   0  0  0  0  0  0  0  0  0  0  0  0
  195.4400  170.6080  143.3510 C   0  0  1  0  0  3  0  0  0  0  0  0
  196.7220  168.6280  143.0520 O   0  0  0  0  0  0  0  0  0  0  0  0
  196.5010  169.7720  142.6930 C   0  0  0  0  0  3  0  0  0  0  0  0
  194.0200  170.5550  142.7690 C   0  0  0  0  0  2  0  0  0  0  0  0
  189.4560  171.9030  142.4410 C   0  0  0  0  0  1  0  0  0  0  0  0
  190.8800  171.8880  142.8810 C   0  0  0  0  0  3  0  0  0  0  0  0
  194.0150  172.8710  140.5230 C   0  0  0  0  0  0  0  0  0  0  0  0
  191.9420  171.7650  142.0750 C   0  0  0  0  0  0  0  0  0  0  0  0
  194.1220  172.8430  141.8570 C   0  0  0  0  0  3  0  0  0  0  0  0
  193.3030  171.9010  142.6930 C   0  0  2  0  0  3  0  0  0  0  0  0
  193.0550  171.9380  139.8250 C   0  0  0  0  0  2  0  0  0  0  0  0
  191.8560  171.6850  140.6320 N   0  0  0  0  0  0  0  0  0  0  0  0
  194.8620  173.7770  139.7290 C   0  0  0  0  0  0  0  0  0  0  0  0
  194.8840  175.0100  139.9960 O   0  0  0  0  0  0  0  0  0  0  0  0
  195.6610  173.2630  138.6580 N   0  0  0  0  0  2  0  0  0  0  0  0
  196.8070  175.2870  138.5070 O   0  0  0  0  0  1  0  0  0  0  0  0
  195.7300  174.4670  136.5570 C   0  0  0  0  0  1  0  0  0  0  0  0
  196.4890  174.1160  137.8180 C   0  0  2  0  0  3  0  0  0  0  0  0
  190.7040  171.1190  139.9380 C   0  0  0  0  0  2  0  0  0  0  0  0
  191.0020  171.9380  137.6810 O   0  0  0  0  0  0  0  0  0  0  0  0
  190.2200  172.0550  138.8410 C   0  0  2  0  0  0  0  0  0  0  0  0
  189.8880  173.5020  139.1430 C   0  0  0  0  0  1  0  0  0  0  0  0
  189.6750  171.4650  137.6050 C   0  0  0  0  0  2  0  0  0  0  0  0
  2  3  2  6  0  0  0
  2  5  1  0  0  0  0
  2  1  1  0  0  0  0
  2  4  1  0  0  0  0
  7  6  1  1  0  0  0
  7  9  1  0  0  0  0
  7  8  1  0  0  0  0
  8  5  1  6  0  0  0
  8 12  1  0  0  0  0
  9  8  1  0  0  0  0
  9 13  1  0  0  0  0
 10 11  1  0  0  0  0
 12 10  1  0  0  0  0
 12 11  1  0  0  0  0
 13 14  1  0  0  0  0
 13 10  1  0  0  0  0
 16 14  1  0  0  0  0
 16 21  1  0  0  0  0
 17 20  1  0  0  0  0
 18 16  1  0  0  0  0
 19 17  1  0  0  0  0
 20 21  1  0  0  0  0
 21 15  1  0  0  0  0
 22 19  1  0  0  0  0
 22 18  1  0  0  0  0
 23 24  2  0  0  0  0
 24 22  1  0  0  0  0
 25 26  2  0  0  0  0
 26 24  1  0  0  0  0
 27 28  1  0  0  0  0
 27 26  1  0  0  0  0
 29  1  1  0  0  0  0
 30 29  1  0  0  0  0
 30 31  1  0  0  0  0
 32 30  1  0  0  0  0
 33 32  1  0  0  0  0
 35 34  2  0  0  0  0
 35 33  1  0  0  0  0
 36 33  1  0  0  0  0
 37 38  1  0  0  0  0
 39 41  2  0  0  0  0
 40 42  1  0  0  0  0
 40 38  2  0  0  0  0
 41 42  1  0  0  0  0
 42 36  1  0  0  0  0
 43 39  1  0  0  0  0
 43 44  1  0  0  0  0
 44 40  1  0  0  0  0
 45 46  2  0  0  0  0
 45 39  1  0  0  0  0
 47 45  1  0  0  0  0
 49 50  1  0  0  0  0
 50 48  1  0  0  0  0
 50 47  1  0  0  0  0
 51 44  1  0  0  0  0
 52 53  1  0  0  0  0
 53 54  1  0  0  0  0
 53 51  1  0  0  0  0
 55 52  1  0  0  0  0
 55 53  1  0  0  0  0
M  END
>  <MODEL>
8

>  <REMARK>
 VINA RESULT:      -5.5      1.803      3.714
  Name = 
  19 active torsions:
  status: ('A' for Active; 'I' for Inactive)
    1  A    between atoms: C_5  and  C_6
    2  A    between atoms: C_5  and  O_26
    3  A    between atoms: C_6  and  O_17
    4  A    between atoms: C_8  and  C_33
    5  A    between atoms: C_9  and  C_12
    6  A    between atoms: C_9  and  C_54
    7  A    between atoms: O_10  and  C_21
    8  A    between atoms: O_10  and  P_32
    9  A    between atoms: C_13  and  O_17
   10  A    between atoms: C_13  and  C_24
   11  A    between atoms: C_13  and  C_47
   12  A    between atoms: C_16  and  C_23
   13  A    between atoms: O_20  and  C_46
   14  A    between atoms: O_26  and  P_32
   15  A    between atoms: C_29  and  C_46
   16  A    between atoms: C_29  and  C_55
   17  A    between atoms: C_33  and  N_49
   18  A    between atoms: C_43  and  C_47
   19  A    between atoms: C_45  and  N_53
                            x       y       z     vdW  Elec       q    Type
                         _______ _______ _______ _____ _____    ______ ____

>  <TORSDO>
F 19

$$$$
=
 OpenBabel11062421343D

 55 60  0  0  1  0  0  0  0  0999 V2000
  189.9280  173.7460  141.6250 O   0  0  0  0  0  0  0  0  0  0  0  0
  190.0890  173.3630  143.2730 P   0  0  2  0  0  0  0  0  0  0  0  0
  191.5570  173.2590  143.6340 O   0  0  0  0  0  1  0  0  0  0  0  0
  189.3300  171.8840  143.5850 O   0  0  0  0  0  0  0  0  0  0  0  0
  189.3250  174.5900  144.1780 O   0  0  0  0  0  0  0  0  0  0  0  0
  192.3730  176.5390  144.7100 O   0  0  0  0  0  1  0  0  0  0  0  0
  191.1310  176.3130  144.1050 C   0  0  1  0  0  3  0  0  0  0  0  0
  190.3150  175.2900  144.8860 C   0  0  1  0  0  0  0  0  0  0  0  0
  189.9580  176.7580  144.9880 C   0  0  1  0  0  3  0  0  0  0  0  0
  190.7080  175.9490  147.2250 C   0  0  1  0  0  3  0  0  0  0  0  0
  189.6010  174.9060  147.2570 C   0  0  0  0  0  2  0  0  0  0  0  0
  190.7410  174.7740  146.2640 C   0  0  1  0  0  3  0  0  0  0  0  0
  190.3430  177.1860  146.4000 C   0  0  2  0  0  3  0  0  0  0  0  0
  189.2090  177.9810  147.0350 C   0  0  0  0  0  2  0  0  0  0  0  0
  186.3270  179.1430  147.4490 O   0  0  0  0  0  1  0  0  0  0  0  0
  187.8550  177.4780  146.5570 C   0  0  2  0  0  3  0  0  0  0  0  0
  184.8570  176.8590  146.2200 C   0  0  0  0  0  2  0  0  0  0  0  0
  187.5580  177.9990  145.1420 C   0  0  0  0  0  2  0  0  0  0  0  0
  185.6940  176.4320  145.1830 O   0  0  0  0  0  0  0  0  0  0  0  0
  185.6070  176.8380  147.5490 C   0  0  0  0  0  2  0  0  0  0  0  0
  186.7750  177.8260  147.5870 C   0  0  2  0  0  3  0  0  0  0  0  0
  186.1760  177.6140  144.6030 C   0  0  2  0  0  3  0  0  0  0  0  0
  185.4440  178.2120  142.4240 O   0  0  0  0  0  0  0  0  0  0  0  0
  186.2110  177.4880  143.1130 C   0  0  0  0  0  0  0  0  0  0  0  0
  186.7540  175.3580  142.2330 O   0  0  0  0  0  0  0  0  0  0  0  0
  187.1250  176.5460  142.4430 C   0  0  0  0  0  0  0  0  0  0  0  0
  188.3940  176.9710  142.0420 O   0  0  0  0  0  0  0  0  0  0  0  0
  188.6570  178.3190  141.6860 C   0  0  0  0  0  1  0  0  0  0  0  0
  189.0850  172.7740  141.0820 C   0  0  0  0  0  2  0  0  0  0  0  0
  189.5320  172.4160  139.6720 C   0  0  1  0  0  3  0  0  0  0  0  0
  188.4590  172.5650  138.8130 F   0  0  0  0  0  0  0  0  0  0  0  0
  190.5760  173.2620  139.2660 O   0  0  0  0  0  0  0  0  0  0  0  0
  191.7270  172.4860  139.0040 C   0  0  1  0  0  3  0  0  0  0  0  0
  191.9100  172.1940  136.6510 O   0  0  0  0  0  0  0  0  0  0  0  0
  191.7230  171.6760  137.7380 C   0  0  0  0  0  3  0  0  0  0  0  0
  193.0730  173.0290  139.5050 C   0  0  0  0  0  2  0  0  0  0  0  0
  194.2690  176.0250  135.9910 C   0  0  0  0  0  1  0  0  0  0  0  0
  193.5480  175.4770  137.1750 C   0  0  0  0  0  3  0  0  0  0  0  0
  195.1750  175.0710  140.8560 C   0  0  0  0  0  0  0  0  0  0  0  0
  194.1260  174.9200  138.2470 C   0  0  0  0  0  0  0  0  0  0  0  0
  193.8490  175.0590  140.6680 C   0  0  0  0  0  3  0  0  0  0  0  0
  193.2380  174.5430  139.3980 C   0  0  2  0  0  3  0  0  0  0  0  0
  196.0920  174.5540  139.7740 C   0  0  0  0  0  2  0  0  0  0  0  0
  195.5580  174.8190  138.4330 N   0  0  0  0  0  0  0  0  0  0  0  0
  195.7410  175.5450  142.1300 C   0  0  0  0  0  0  0  0  0  0  0  0
  196.4030  176.6180  142.1620 O   0  0  0  0  0  0  0  0  0  0  0  0
  195.5390  174.7930  143.3320 N   0  0  0  0  0  2  0  0  0  0  0  0
  197.3910  174.6740  144.7400 O   0  0  0  0  0  1  0  0  0  0  0  0
  195.2350  174.6640  145.7320 C   0  0  0  0  0  1  0  0  0  0  0  0
  196.1030  175.1940  144.6120 C   0  0  2  0  0  3  0  0  0  0  0  0
  196.4950  174.7160  137.3200 C   0  0  0  0  0  2  0  0  0  0  0  0
  197.9190  173.0270  136.3330 O   0  0  0  0  0  0  0  0  0  0  0  0
  196.6450  173.2700  136.8720 C   0  0  2  0  0  0  0  0  0  0  0  0
  195.5610  172.5890  136.0630 C   0  0  0  0  0  1  0  0  0  0  0  0
  197.6230  172.4170  137.5710 C   0  0  0  0  0  2  0  0  0  0  0  0
  1  2  1  0  0  0  0
  2  4  2  1  0  0  0
  2  3  1  0  0  0  0
  2  5  1  0  0  0  0
  7  6  1  1  0  0  0
  7  8  1  0  0  0  0
  7  9  1  0  0  0  0
  8  5  1  6  0  0  0
  8  9  1  0  0  0  0
  8 12  1  0  0  0  0
  9 13  1  0  0  0  0
 10 11  1  0  0  0  0
 12 10  1  0  0  0  0
 12 11  1  0  0  0  0
 13 14  1  0  0  0  0
 13 10  1  0  0  0  0
 15 21  1  0  0  0  0
 16 14  1  0  0  0  0
 16 21  1  0  0  0  0
 17 20  1  0  0  0  0
 18 16  1  0  0  0  0
 19 17  1  0  0  0  0
 20 21  1  0  0  0  0
 22 18  1  0  0  0  0
 22 19  1  0  0  0  0
 23 24  2  0  0  0  0
 24 22  1  0  0  0  0
 25 26  2  0  0  0  0
 26 24  1  0  0  0  0
 27 26  1  0  0  0  0
 28 27  1  0  0  0  0
 29  1  1  0  0  0  0
 30 29  1  0  0  0  0
 31 30  1  0  0  0  0
 32 30  1  0  0  0  0
 33 32  1  0  0  0  0
 33 36  1  0  0  0  0
 34 35  2  0  0  0  0
 35 33  1  0  0  0  0
 37 38  1  0  0  0  0
 38 40  2  0  0  0  0
 39 45  1  0  0  0  0
 40 44  1  0  0  0  0
 40 42  1  0  0  0  0
 41 39  2  0  0  0  0
 42 36  1  0  0  0  0
 42 41  1  0  0  0  0
 43 39  1  0  0  0  0
 44 43  1  0  0  0  0
 45 46  2  0  0  0  0
 45 47  1  0  0  0  0
 47 50  1  0  0  0  0
 50 48  1  0  0  0  0
 50 49  1  0  0  0  0
 51 44  1  0  0  0  0
 52 53  1  0  0  0  0
 52 55  1  0  0  0  0
 53 51  1  0  0  0  0
 53 55  1  0  0  0  0
 54 53  1  0  0  0  0
M  END
>  <MODEL>
9

>  <REMARK>
 VINA RESULT:      -5.5      2.598      4.731
  Name = 
  19 active torsions:
  status: ('A' for Active; 'I' for Inactive)
    1  A    between atoms: C_5  and  C_6
    2  A    between atoms: C_5  and  O_26
    3  A    between atoms: C_6  and  O_17
    4  A    between atoms: C_8  and  C_33
    5  A    between atoms: C_9  and  C_12
    6  A    between atoms: C_9  and  C_54
    7  A    between atoms: O_10  and  C_21
    8  A    between atoms: O_10  and  P_32
    9  A    between atoms: C_13  and  O_17
   10  A    between atoms: C_13  and  C_24
   11  A    between atoms: C_13  and  C_47
   12  A    between atoms: C_16  and  C_23
   13  A    between atoms: O_20  and  C_46
   14  A    between atoms: O_26  and  P_32
   15  A    between atoms: C_29  and  C_46
   16  A    between atoms: C_29  and  C_55
   17  A    between atoms: C_33  and  N_49
   18  A    between atoms: C_43  and  C_47
   19  A    between atoms: C_45  and  N_53
                            x       y       z     vdW  Elec       q    Type
                         _______ _______ _______ _____ _____    ______ ____

>  <TORSDO>
F 19

$$$$
