=
 OpenBabel11062419553D

 28 31  0  0  1  0  0  0  0  0999 V2000
  188.6640  174.6570  142.8810 C   0  0  0  0  0  0  0  0  0  0  0  0
  189.4330  175.4610  143.7260 C   0  0  0  0  0  3  0  0  0  0  0  0
  190.1360  172.7900  143.3220 C   0  0  0  0  0  3  0  0  0  0  0  0
  190.9200  173.5900  144.1700 C   0  0  0  0  0  0  0  0  0  0  0  0
  189.0140  173.3200  142.6830 C   0  0  0  0  0  3  0  0  0  0  0  0
  190.5630  174.9420  144.3690 C   0  0  0  0  0  0  0  0  0  0  0  0
  192.9130  172.1180  144.2080 C   0  0  0  0  0  1  0  0  0  0  0  0
  192.0440  173.0620  144.8180 O   0  0  0  0  0  0  0  0  0  0  0  0
  191.3380  175.8610  145.2760 C   0  0  1  0  0  3  0  0  0  0  0  0
  193.6810  176.7980  144.9890 C   0  0  0  0  0  2  0  0  0  0  0  0
  193.2250  176.2160  143.7960 O   0  0  0  0  0  0  0  0  0  0  0  0
  192.2570  176.8840  144.5750 C   0  0  1  0  0  3  0  0  0  0  0  0
  190.5220  176.4010  146.4520 C   0  0  0  0  0  2  0  0  0  0  0  0
  189.0190  174.6700  147.4460 C   0  0  0  0  0  1  0  0  0  0  0  0
  190.3710  175.3510  147.5400 C   0  0  0  0  0  2  0  0  0  0  0  0
  187.4560  175.2170  142.2160 C   0  0  0  0  0  2  0  0  0  0  0  0
  187.8560  175.9970  140.9750 C   0  0  0  0  0  2  0  0  0  0  0  0
  187.2130  177.2990  140.9860 N   0  0  0  0  0  2  0  0  0  0  0  0
  185.2390  178.2090  141.8240 O   0  0  0  0  0  0  0  0  0  0  0  0
  186.2400  178.6550  142.7080 C   0  0  2  0  0  3  0  0  0  0  0  0
  186.2800  177.3050  142.0990 C   0  0  2  0  0  3  0  0  0  0  0  0
  186.6020  178.2930  145.1290 N   0  0  0  0  0  0  0  0  0  0  0  0
  184.8550  178.5050  146.7440 C   0  0  0  0  0  3  0  0  0  0  0  0
  183.9580  178.8180  145.7220 C   0  0  0  0  0  3  0  0  0  0  0  0
  186.1890  178.2440  146.4250 C   0  0  0  0  0  0  0  0  0  0  0  0
  187.1180  177.9300  147.4550 N   0  0  0  0  0  1  0  0  0  0  0  0
  185.7410  178.5830  144.1140 C   0  0  0  0  0  0  0  0  0  0  0  0
  184.4000  178.8620  144.3990 C   0  0  0  0  0  3  0  0  0  0  0  0
  1  2  1  0  0  0  0
  2  6  2  0  0  0  0
  3  4  2  0  0  0  0
  4  6  1  0  0  0  0
  4  8  1  0  0  0  0
  5  1  2  0  0  0  0
  5  3  1  0  0  0  0
  6  9  1  0  0  0  0
  7  8  1  0  0  0  0
  9 13  1  6  0  0  0
 11 12  1  0  0  0  0
 11 10  1  0  0  0  0
 12 10  1  0  0  0  0
 12  9  1  1  0  0  0
 13 15  1  0  0  0  0
 14 15  1  0  0  0  0
 16  1  1  0  0  0  0
 17 18  1  0  0  0  0
 17 16  1  0  0  0  0
 19 21  1  0  0  0  0
 19 20  1  0  0  0  0
 20 27  1  1  0  0  0
 21 18  1  6  0  0  0
 21 20  1  0  0  0  0
 22 25  1  0  0  0  0
 24 23  1  0  0  0  0
 25 23  2  0  0  0  0
 25 26  1  0  0  0  0
 27 28  1  0  0  0  0
 27 22  2  0  0  0  0
 28 24  2  0  0  0  0
M  END
>  <MODEL>
1

>  <REMARK>
 VINA RESULT:      -6.4      0.000      0.000
  Name = 
  10 active torsions:
  status: ('A' for Active; 'I' for Inactive)
    1  A    between atoms: C_1  and  C_18
    2  A    between atoms: C_1  and  N_23
    3  A    between atoms: C_4  and  C_18
    4  A    between atoms: C_8  and  C_20
    5  A    between atoms: C_10  and  C_16
    6  A    between atoms: C_11  and  C_16
    7  A    between atoms: C_11  and  C_25
    8  A    between atoms: C_11  and  C_28
    9  A    between atoms: C_21  and  O_26
   10  A    between atoms: N_23  and  C_24
                            x       y       z     vdW  Elec       q    Type
                         _______ _______ _______ _____ _____    ______ ____

>  <TORSDO>
F 10

$$$$
=
 OpenBabel11062419553D

 28 31  0  0  1  0  0  0  0  0999 V2000
  190.0320  177.6600  144.6750 C   0  0  0  0  0  0  0  0  0  0  0  0
  188.7840  177.7530  144.0550 C   0  0  0  0  0  3  0  0  0  0  0  0
  188.9600  176.9590  146.7250 C   0  0  0  0  0  3  0  0  0  0  0  0
  187.6980  177.0540  146.1150 C   0  0  0  0  0  0  0  0  0  0  0  0
  190.1200  177.2590  146.0090 C   0  0  0  0  0  3  0  0  0  0  0  0
  187.6130  177.4600  144.7640 C   0  0  0  0  0  0  0  0  0  0  0  0
  185.9610  177.6300  147.7850 C   0  0  0  0  0  1  0  0  0  0  0  0
  186.5310  176.7500  146.8270 O   0  0  0  0  0  0  0  0  0  0  0  0
  186.3030  177.5690  144.0300 C   0  0  1  0  0  3  0  0  0  0  0  0
  184.5390  179.3470  144.4490 C   0  0  0  0  0  2  0  0  0  0  0  0
  185.7870  179.7540  144.9430 O   0  0  0  0  0  0  0  0  0  0  0  0
  185.8030  179.0010  143.7500 C   0  0  1  0  0  3  0  0  0  0  0  0
  186.1600  176.5790  142.8720 C   0  0  0  0  0  2  0  0  0  0  0  0
  187.1810  176.9450  140.6210 C   0  0  0  0  0  1  0  0  0  0  0  0
  186.0330  177.3070  141.5440 C   0  0  0  0  0  2  0  0  0  0  0  0
  191.2710  177.9590  143.9050 C   0  0  0  0  0  2  0  0  0  0  0  0
  192.4740  177.3260  144.5850 C   0  0  0  0  0  2  0  0  0  0  0  0
  193.1840  176.4840  143.6390 N   0  0  0  0  0  2  0  0  0  0  0  0
  193.1360  174.3600  142.6830 O   0  0  0  0  0  0  0  0  0  0  0  0
  191.9990  175.0080  142.1670 C   0  0  2  0  0  3  0  0  0  0  0  0
  192.4590  175.2280  143.5580 C   0  0  2  0  0  3  0  0  0  0  0  0
  191.0690  172.7170  142.0620 N   0  0  0  0  0  0  0  0  0  0  0  0
  188.7250  172.2660  142.1480 C   0  0  0  0  0  3  0  0  0  0  0  0
  188.4730  173.6360  142.2410 C   0  0  0  0  0  3  0  0  0  0  0  0
  190.0450  171.8200  142.0600 C   0  0  0  0  0  0  0  0  0  0  0  0
  190.3200  170.4280  141.9720 N   0  0  0  0  0  1  0  0  0  0  0  0
  190.8450  174.0590  142.1390 C   0  0  0  0  0  0  0  0  0  0  0  0
  189.5360  174.5400  142.2400 C   0  0  0  0  0  3  0  0  0  0  0  0
  1  5  1  0  0  0  0
  2  1  2  0  0  0  0
  2  6  1  0  0  0  0
  4  3  1  0  0  0  0
  4  8  1  0  0  0  0
  5  3  2  0  0  0  0
  6  4  2  0  0  0  0
  8  7  1  0  0  0  0
  9 13  1  6  0  0  0
  9  6  1  0  0  0  0
 10 11  1  0  0  0  0
 12  9  1  1  0  0  0
 12 10  1  0  0  0  0
 12 11  1  0  0  0  0
 14 15  1  0  0  0  0
 15 13  1  0  0  0  0
 16 17  1  0  0  0  0
 16  1  1  0  0  0  0
 18 17  1  0  0  0  0
 19 21  1  0  0  0  0
 20 27  1  1  0  0  0
 20 19  1  0  0  0  0
 20 21  1  0  0  0  0
 21 18  1  6  0  0  0
 22 27  1  0  0  0  0
 23 24  2  0  0  0  0
 25 22  2  0  0  0  0
 25 23  1  0  0  0  0
 26 25  1  0  0  0  0
 27 28  2  0  0  0  0
 28 24  1  0  0  0  0
M  END
>  <MODEL>
2

>  <REMARK>
 VINA RESULT:      -6.3      2.915      7.023
  Name = 
  10 active torsions:
  status: ('A' for Active; 'I' for Inactive)
    1  A    between atoms: C_1  and  C_18
    2  A    between atoms: C_1  and  N_23
    3  A    between atoms: C_4  and  C_18
    4  A    between atoms: C_8  and  C_20
    5  A    between atoms: C_10  and  C_16
    6  A    between atoms: C_11  and  C_16
    7  A    between atoms: C_11  and  C_25
    8  A    between atoms: C_11  and  C_28
    9  A    between atoms: C_21  and  O_26
   10  A    between atoms: N_23  and  C_24
                            x       y       z     vdW  Elec       q    Type
                         _______ _______ _______ _____ _____    ______ ____

>  <TORSDO>
F 10

$$$$
=
 OpenBabel11062419553D

 28 31  0  0  1  0  0  0  0  0999 V2000
  189.1780  174.1540  142.8540 C   0  0  0  0  0  0  0  0  0  0  0  0
  189.7870  175.0750  143.7090 C   0  0  0  0  0  3  0  0  0  0  0  0
  190.9250  172.5540  143.3390 C   0  0  0  0  0  3  0  0  0  0  0  0
  191.5490  173.4750  144.1970 C   0  0  0  0  0  0  0  0  0  0  0  0
  189.7460  172.8920  142.6720 C   0  0  0  0  0  3  0  0  0  0  0  0
  190.9720  174.7510  144.3790 C   0  0  0  0  0  0  0  0  0  0  0  0
  193.9460  172.8460  144.1990 C   0  0  0  0  0  1  0  0  0  0  0  0
  192.7300  173.1400  144.8720 O   0  0  0  0  0  0  0  0  0  0  0  0
  191.5660  175.7880  145.2950 C   0  0  1  0  0  3  0  0  0  0  0  0
  193.8720  176.7840  144.9190 C   0  0  0  0  0  2  0  0  0  0  0  0
  193.3380  176.2920  143.7190 O   0  0  0  0  0  0  0  0  0  0  0  0
  192.4200  176.8790  144.6160 C   0  0  1  0  0  3  0  0  0  0  0  0
  190.6040  176.2780  146.3790 C   0  0  0  0  0  2  0  0  0  0  0  0
  189.0320  174.6270  147.4000 C   0  0  0  0  0  1  0  0  0  0  0  0
  190.4230  175.2290  147.4630 C   0  0  0  0  0  2  0  0  0  0  0  0
  187.9090  174.5060  142.1600 C   0  0  0  0  0  2  0  0  0  0  0  0
  188.2090  175.1440  140.8140 C   0  0  0  0  0  2  0  0  0  0  0  0
  187.7110  176.5080  140.7960 N   0  0  0  0  0  2  0  0  0  0  0  0
  185.9410  177.6980  141.7330 O   0  0  0  0  0  0  0  0  0  0  0  0
  187.0550  178.0330  142.5270 C   0  0  2  0  0  3  0  0  0  0  0  0
  186.8730  176.6720  141.9700 C   0  0  2  0  0  3  0  0  0  0  0  0
  185.3840  178.4170  144.3120 N   0  0  0  0  0  0  0  0  0  0  0  0
  185.8670  178.0880  146.6280 C   0  0  0  0  0  3  0  0  0  0  0  0
  187.1710  177.7160  146.2950 C   0  0  0  0  0  3  0  0  0  0  0  0
  184.9770  178.4380  145.6110 C   0  0  0  0  0  0  0  0  0  0  0  0
  183.6440  178.8120  145.9310 N   0  0  0  0  0  1  0  0  0  0  0  0
  186.6560  178.0700  143.9660 C   0  0  0  0  0  0  0  0  0  0  0  0
  187.5710  177.7030  144.9590 C   0  0  0  0  0  3  0  0  0  0  0  0
  1  2  1  0  0  0  0
  2  6  2  0  0  0  0
  3  4  2  0  0  0  0
  4  6  1  0  0  0  0
  4  8  1  0  0  0  0
  5  1  2  0  0  0  0
  5  3  1  0  0  0  0
  6  9  1  0  0  0  0
  7  8  1  0  0  0  0
  9 13  1  6  0  0  0
 11 12  1  0  0  0  0
 11 10  1  0  0  0  0
 12 10  1  0  0  0  0
 12  9  1  1  0  0  0
 13 15  1  0  0  0  0
 14 15  1  0  0  0  0
 16  1  1  0  0  0  0
 17 16  1  0  0  0  0
 18 17  1  0  0  0  0
 19 21  1  0  0  0  0
 19 20  1  0  0  0  0
 20 27  1  1  0  0  0
 21 18  1  6  0  0  0
 21 20  1  0  0  0  0
 22 25  1  0  0  0  0
 24 23  1  0  0  0  0
 25 26  1  0  0  0  0
 25 23  2  0  0  0  0
 27 22  2  0  0  0  0
 27 28  1  0  0  0  0
 28 24  2  0  0  0  0
M  END
>  <MODEL>
3

>  <REMARK>
 VINA RESULT:      -6.2      1.053      1.409
  Name = 
  10 active torsions:
  status: ('A' for Active; 'I' for Inactive)
    1  A    between atoms: C_1  and  C_18
    2  A    between atoms: C_1  and  N_23
    3  A    between atoms: C_4  and  C_18
    4  A    between atoms: C_8  and  C_20
    5  A    between atoms: C_10  and  C_16
    6  A    between atoms: C_11  and  C_16
    7  A    between atoms: C_11  and  C_25
    8  A    between atoms: C_11  and  C_28
    9  A    between atoms: C_21  and  O_26
   10  A    between atoms: N_23  and  C_24
                            x       y       z     vdW  Elec       q    Type
                         _______ _______ _______ _____ _____    ______ ____

>  <TORSDO>
F 10

$$$$
=
 OpenBabel11062419553D

 28 31  0  0  1  0  0  0  0  0999 V2000
  188.8360  174.2700  142.4750 C   0  0  0  0  0  0  0  0  0  0  0  0
  188.9090  175.1430  143.5630 C   0  0  0  0  0  3  0  0  0  0  0  0
  187.7880  176.0040  141.1560 C   0  0  0  0  0  3  0  0  0  0  0  0
  187.8490  176.8900  142.2450 C   0  0  0  0  0  0  0  0  0  0  0  0
  188.2790  174.7030  141.2700 C   0  0  0  0  0  3  0  0  0  0  0  0
  188.4150  176.4490  143.4620 C   0  0  0  0  0  0  0  0  0  0  0  0
  185.9800  178.5150  142.2230 C   0  0  0  0  0  1  0  0  0  0  0  0
  187.3620  178.1980  142.1350 O   0  0  0  0  0  0  0  0  0  0  0  0
  188.5370  177.3400  144.6700 C   0  0  1  0  0  3  0  0  0  0  0  0
  186.4890  178.0430  145.9980 C   0  0  0  0  0  2  0  0  0  0  0  0
  186.2650  176.8240  145.3400 O   0  0  0  0  0  0  0  0  0  0  0  0
  187.5700  177.0370  145.8340 C   0  0  1  0  0  3  0  0  0  0  0  0
  189.9820  177.6400  145.0720 C   0  0  0  0  0  2  0  0  0  0  0  0
  191.8000  177.3580  143.3800 C   0  0  0  0  0  1  0  0  0  0  0  0
  190.7410  178.2960  143.9300 C   0  0  0  0  0  2  0  0  0  0  0  0
  189.3810  172.8890  142.5890 C   0  0  0  0  0  2  0  0  0  0  0  0
  189.6450  172.5520  144.0470 C   0  0  0  0  0  2  0  0  0  0  0  0
  191.0060  172.0680  144.1990 N   0  0  0  0  0  2  0  0  0  0  0  0
  193.1740  172.7800  143.7270 O   0  0  0  0  0  0  0  0  0  0  0  0
  192.9710  173.1260  145.0770 C   0  0  2  0  0  3  0  0  0  0  0  0
  191.8840  173.2180  144.0740 C   0  0  2  0  0  3  0  0  0  0  0  0
  194.5380  174.9650  144.5380 N   0  0  0  0  0  0  0  0  0  0  0  0
  194.6160  177.0030  145.7800 C   0  0  0  0  0  3  0  0  0  0  0  0
  193.6010  176.5270  146.6110 C   0  0  0  0  0  3  0  0  0  0  0  0
  195.0760  176.1980  144.7350 C   0  0  0  0  0  0  0  0  0  0  0  0
  196.1040  176.6710  143.8750 N   0  0  0  0  0  1  0  0  0  0  0  0
  193.5550  174.4740  145.3450 C   0  0  0  0  0  0  0  0  0  0  0  0
  193.0630  175.2580  146.3940 C   0  0  0  0  0  3  0  0  0  0  0  0
  1 16  1  0  0  0  0
  1  2  1  0  0  0  0
  3  5  1  0  0  0  0
  3  4  2  0  0  0  0
  4  6  1  0  0  0  0
  5  1  2  0  0  0  0
  6  2  2  0  0  0  0
  6  9  1  0  0  0  0
  8  7  1  0  0  0  0
  8  4  1  0  0  0  0
  9 13  1  1  0  0  0
 11 12  1  0  0  0  0
 11 10  1  0  0  0  0
 12  9  1  6  0  0  0
 12 10  1  0  0  0  0
 14 15  1  0  0  0  0
 15 13  1  0  0  0  0
 16 17  1  0  0  0  0
 17 18  1  0  0  0  0
 19 21  1  0  0  0  0
 19 20  1  0  0  0  0
 20 27  1  6  0  0  0
 21 18  1  1  0  0  0
 21 20  1  0  0  0  0
 22 25  2  0  0  0  0
 22 27  1  0  0  0  0
 23 24  2  0  0  0  0
 25 23  1  0  0  0  0
 26 25  1  0  0  0  0
 27 28  2  0  0  0  0
 28 24  1  0  0  0  0
M  END
>  <MODEL>
4

>  <REMARK>
 VINA RESULT:      -6.1      3.172      6.924
  Name = 
  10 active torsions:
  status: ('A' for Active; 'I' for Inactive)
    1  A    between atoms: C_1  and  C_18
    2  A    between atoms: C_1  and  N_23
    3  A    between atoms: C_4  and  C_18
    4  A    between atoms: C_8  and  C_20
    5  A    between atoms: C_10  and  C_16
    6  A    between atoms: C_11  and  C_16
    7  A    between atoms: C_11  and  C_25
    8  A    between atoms: C_11  and  C_28
    9  A    between atoms: C_21  and  O_26
   10  A    between atoms: N_23  and  C_24
                            x       y       z     vdW  Elec       q    Type
                         _______ _______ _______ _____ _____    ______ ____

>  <TORSDO>
F 10

$$$$
=
 OpenBabel11062419553D

 28 31  0  0  1  0  0  0  0  0999 V2000
  187.6730  176.2680  141.9170 C   0  0  0  0  0  0  0  0  0  0  0  0
  187.9420  176.3410  143.2860 C   0  0  0  0  0  3  0  0  0  0  0  0
  186.3320  178.2730  142.0770 C   0  0  0  0  0  3  0  0  0  0  0  0
  186.5900  178.3530  143.4550 C   0  0  0  0  0  0  0  0  0  0  0  0
  186.8710  177.2370  141.3120 C   0  0  0  0  0  3  0  0  0  0  0  0
  187.4030  177.3720  144.0640 C   0  0  0  0  0  0  0  0  0  0  0  0
  184.6580  179.5930  144.3880 C   0  0  0  0  0  1  0  0  0  0  0  0
  186.0550  179.3930  144.2260 O   0  0  0  0  0  0  0  0  0  0  0  0
  187.7440  177.3950  145.5300 C   0  0  1  0  0  3  0  0  0  0  0  0
  185.8830  177.2890  147.2550 C   0  0  0  0  0  2  0  0  0  0  0  0
  185.5050  176.6390  146.0710 O   0  0  0  0  0  0  0  0  0  0  0  0
  186.8610  176.5200  146.4440 C   0  0  1  0  0  3  0  0  0  0  0  0
  189.2460  177.3440  145.8150 C   0  0  0  0  0  2  0  0  0  0  0  0
  190.1970  175.1110  146.4080 C   0  0  0  0  0  1  0  0  0  0  0  0
  189.5550  176.3760  146.9450 C   0  0  0  0  0  2  0  0  0  0  0  0
  188.2660  175.1760  141.0980 C   0  0  0  0  0  2  0  0  0  0  0  0
  189.1220  174.2740  141.9710 C   0  0  0  0  0  2  0  0  0  0  0  0
  190.5280  174.5210  141.7020 N   0  0  0  0  0  2  0  0  0  0  0  0
  191.4140  176.4180  142.7230 O   0  0  0  0  0  0  0  0  0  0  0  0
  192.4920  175.5140  142.6530 C   0  0  2  0  0  3  0  0  0  0  0  0
  191.1070  175.0600  142.9190 C   0  0  2  0  0  3  0  0  0  0  0  0
  194.1220  174.5500  144.2470 N   0  0  0  0  0  0  0  0  0  0  0  0
  194.8040  175.6750  146.2400 C   0  0  0  0  0  3  0  0  0  0  0  0
  193.9580  176.7380  145.9200 C   0  0  0  0  0  3  0  0  0  0  0  0
  194.8740  174.5770  145.3800 C   0  0  0  0  0  0  0  0  0  0  0  0
  195.7350  173.4890  145.6870 N   0  0  0  0  0  1  0  0  0  0  0  0
  193.2790  175.5700  143.9220 C   0  0  0  0  0  0  0  0  0  0  0  0
  193.1930  176.6910  144.7540 C   0  0  0  0  0  3  0  0  0  0  0  0
  1  2  1  0  0  0  0
  2  6  2  0  0  0  0
  3  4  2  0  0  0  0
  4  6  1  0  0  0  0
  4  8  1  0  0  0  0
  5  1  2  0  0  0  0
  5  3  1  0  0  0  0
  6  9  1  0  0  0  0
  8  7  1  0  0  0  0
  9 13  1  6  0  0  0
 11 12  1  0  0  0  0
 11 10  1  0  0  0  0
 12  9  1  6  0  0  0
 12 10  1  0  0  0  0
 13 15  1  0  0  0  0
 14 15  1  0  0  0  0
 16  1  1  0  0  0  0
 16 17  1  0  0  0  0
 18 17  1  0  0  0  0
 19 21  1  0  0  0  0
 20 19  1  0  0  0  0
 20 21  1  0  0  0  0
 20 27  1  1  0  0  0
 21 18  1  6  0  0  0
 22 25  1  0  0  0  0
 24 23  1  0  0  0  0
 25 26  1  0  0  0  0
 25 23  2  0  0  0  0
 27 22  2  0  0  0  0
 27 28  1  0  0  0  0
 28 24  2  0  0  0  0
M  END
>  <MODEL>
5

>  <REMARK>
 VINA RESULT:      -6.1      3.077      6.776
  Name = 
  10 active torsions:
  status: ('A' for Active; 'I' for Inactive)
    1  A    between atoms: C_1  and  C_18
    2  A    between atoms: C_1  and  N_23
    3  A    between atoms: C_4  and  C_18
    4  A    between atoms: C_8  and  C_20
    5  A    between atoms: C_10  and  C_16
    6  A    between atoms: C_11  and  C_16
    7  A    between atoms: C_11  and  C_25
    8  A    between atoms: C_11  and  C_28
    9  A    between atoms: C_21  and  O_26
   10  A    between atoms: N_23  and  C_24
                            x       y       z     vdW  Elec       q    Type
                         _______ _______ _______ _____ _____    ______ ____

>  <TORSDO>
F 10

$$$$
=
 OpenBabel11062419553D

 28 31  0  0  1  0  0  0  0  0999 V2000
  190.1110  176.7340  143.1030 C   0  0  0  0  0  0  0  0  0  0  0  0
  189.7120  175.5240  142.5300 C   0  0  0  0  0  3  0  0  0  0  0  0
  188.3500  177.8790  141.9060 C   0  0  0  0  0  3  0  0  0  0  0  0
  187.9430  176.6690  141.3190 C   0  0  0  0  0  0  0  0  0  0  0  0
  189.4280  177.9110  142.7930 C   0  0  0  0  0  3  0  0  0  0  0  0
  188.6360  175.4800  141.6350 C   0  0  0  0  0  0  0  0  0  0  0  0
  186.0330  177.7570  140.1760 C   0  0  0  0  0  1  0  0  0  0  0  0
  186.8600  176.6310  140.4320 O   0  0  0  0  0  0  0  0  0  0  0  0
  188.2520  174.1400  141.0660 C   0  0  1  0  0  3  0  0  0  0  0  0
  188.2860  172.9900  138.8020 C   0  0  0  0  0  2  0  0  0  0  0  0
  188.6900  174.3280  138.6890 O   0  0  0  0  0  0  0  0  0  0  0  0
  189.0870  173.6530  139.8630 C   0  0  1  0  0  3  0  0  0  0  0  0
  187.9420  173.0840  142.1290 C   0  0  0  0  0  2  0  0  0  0  0  0
  189.4680  172.0550  143.8190 C   0  0  0  0  0  1  0  0  0  0  0  0
  189.1300  172.1610  142.3430 C   0  0  0  0  0  2  0  0  0  0  0  0
  191.2470  176.7640  144.0660 C   0  0  0  0  0  2  0  0  0  0  0  0
  190.7650  177.2390  145.4260 C   0  0  0  0  0  2  0  0  0  0  0  0
  189.9230  176.2210  146.0310 N   0  0  0  0  0  2  0  0  0  0  0  0
  187.9230  175.9720  147.1990 O   0  0  0  0  0  0  0  0  0  0  0  0
  187.5320  176.1650  145.8610 C   0  0  2  0  0  3  0  0  0  0  0  0
  188.6940  176.8740  146.4450 C   0  0  2  0  0  3  0  0  0  0  0  0
  185.8190  177.4370  144.6050 N   0  0  0  0  0  0  0  0  0  0  0  0
  184.0870  178.6820  145.6790 C   0  0  0  0  0  3  0  0  0  0  0  0
  184.5950  178.3020  146.9220 C   0  0  0  0  0  3  0  0  0  0  0  0
  184.7200  178.2330  144.5180 C   0  0  0  0  0  0  0  0  0  0  0  0
  184.2110  178.6050  143.2440 N   0  0  0  0  0  1  0  0  0  0  0  0
  186.3400  177.0640  145.8080 C   0  0  0  0  0  0  0  0  0  0  0  0
  185.7250  177.4860  146.9920 C   0  0  0  0  0  3  0  0  0  0  0  0
  1 16  1  0  0  0  0
  2  1  2  0  0  0  0
  3  5  2  0  0  0  0
  4  6  2  0  0  0  0
  4  3  1  0  0  0  0
  5  1  1  0  0  0  0
  6  2  1  0  0  0  0
  7  8  1  0  0  0  0
  8  4  1  0  0  0  0
  9  6  1  0  0  0  0
  9 13  1  1  0  0  0
 10 12  1  0  0  0  0
 11 10  1  0  0  0  0
 11 12  1  0  0  0  0
 12  9  1  1  0  0  0
 13 15  1  0  0  0  0
 15 14  1  0  0  0  0
 16 17  1  0  0  0  0
 17 18  1  0  0  0  0
 20 27  1  1  0  0  0
 20 21  1  0  0  0  0
 20 19  1  0  0  0  0
 21 18  1  6  0  0  0
 21 19  1  0  0  0  0
 22 27  1  0  0  0  0
 23 24  2  0  0  0  0
 24 28  1  0  0  0  0
 25 22  2  0  0  0  0
 25 23  1  0  0  0  0
 26 25  1  0  0  0  0
 27 28  2  0  0  0  0
M  END
>  <MODEL>
6

>  <REMARK>
 VINA RESULT:      -6.1      2.469      5.259
  Name = 
  10 active torsions:
  status: ('A' for Active; 'I' for Inactive)
    1  A    between atoms: C_1  and  C_18
    2  A    between atoms: C_1  and  N_23
    3  A    between atoms: C_4  and  C_18
    4  A    between atoms: C_8  and  C_20
    5  A    between atoms: C_10  and  C_16
    6  A    between atoms: C_11  and  C_16
    7  A    between atoms: C_11  and  C_25
    8  A    between atoms: C_11  and  C_28
    9  A    between atoms: C_21  and  O_26
   10  A    between atoms: N_23  and  C_24
                            x       y       z     vdW  Elec       q    Type
                         _______ _______ _______ _____ _____    ______ ____

>  <TORSDO>
F 10

$$$$
=
 OpenBabel11062419553D

 28 31  0  0  1  0  0  0  0  0999 V2000
  188.2780  176.2430  141.9170 C   0  0  0  0  0  0  0  0  0  0  0  0
  188.9480  176.0780  143.1310 C   0  0  0  0  0  3  0  0  0  0  0  0
  188.3420  173.8530  141.5600 C   0  0  0  0  0  3  0  0  0  0  0  0
  189.0210  173.6750  142.7770 C   0  0  0  0  0  0  0  0  0  0  0  0
  187.9720  175.1290  141.1330 C   0  0  0  0  0  3  0  0  0  0  0  0
  189.3290  174.8040  143.5680 C   0  0  0  0  0  0  0  0  0  0  0  0
  190.5520  171.7280  142.7430 C   0  0  0  0  0  1  0  0  0  0  0  0
  189.3900  172.3960  143.2120 O   0  0  0  0  0  0  0  0  0  0  0  0
  190.0360  174.6990  144.8930 C   0  0  1  0  0  3  0  0  0  0  0  0
  192.4910  174.0900  145.1140 C   0  0  0  0  0  2  0  0  0  0  0  0
  192.2180  174.6130  143.8410 O   0  0  0  0  0  0  0  0  0  0  0  0
  191.5020  175.1800  144.9160 C   0  0  1  0  0  3  0  0  0  0  0  0
  189.1790  175.1280  146.0860 C   0  0  0  0  0  2  0  0  0  0  0  0
  189.4500  177.5410  146.6750 C   0  0  0  0  0  1  0  0  0  0  0  0
  189.9200  176.1270  146.9590 C   0  0  0  0  0  2  0  0  0  0  0  0
  187.8640  177.6030  141.4720 C   0  0  0  0  0  2  0  0  0  0  0  0
  186.7120  177.5010  140.4870 C   0  0  0  0  0  2  0  0  0  0  0  0
  185.5910  178.2940  140.9600 N   0  0  0  0  0  2  0  0  0  0  0  0
  184.1390  178.5120  142.7690 O   0  0  0  0  0  0  0  0  0  0  0  0
  185.3870  178.9400  143.2610 C   0  0  2  0  0  3  0  0  0  0  0  0
  185.2680  177.8220  142.2950 C   0  0  2  0  0  3  0  0  0  0  0  0
  185.7090  179.2860  145.6900 N   0  0  0  0  0  0  0  0  0  0  0  0
  185.9000  177.4790  147.2400 C   0  0  0  0  0  3  0  0  0  0  0  0
  185.7650  176.5720  146.1880 C   0  0  0  0  0  3  0  0  0  0  0  0
  185.8690  178.8490  146.9690 C   0  0  0  0  0  0  0  0  0  0  0  0
  185.9980  179.7860  148.0290 N   0  0  0  0  0  1  0  0  0  0  0  0
  185.5880  178.4190  144.6460 C   0  0  0  0  0  0  0  0  0  0  0  0
  185.6050  177.0400  144.8830 C   0  0  0  0  0  3  0  0  0  0  0  0
  1  2  1  0  0  0  0
  2  6  2  0  0  0  0
  3  4  2  0  0  0  0
  4  8  1  0  0  0  0
  4  6  1  0  0  0  0
  5  3  1  0  0  0  0
  5  1  2  0  0  0  0
  6  9  1  0  0  0  0
  7  8  1  0  0  0  0
  9 13  1  1  0  0  0
 11 12  1  0  0  0  0
 11 10  1  0  0  0  0
 12  9  1  6  0  0  0
 12 10  1  0  0  0  0
 13 15  1  0  0  0  0
 14 15  1  0  0  0  0
 16  1  1  0  0  0  0
 17 18  1  0  0  0  0
 17 16  1  0  0  0  0
 19 20  1  0  0  0  0
 20 27  1  1  0  0  0
 21 18  1  6  0  0  0
 21 19  1  0  0  0  0
 21 20  1  0  0  0  0
 22 25  1  0  0  0  0
 24 23  1  0  0  0  0
 25 23  2  0  0  0  0
 25 26  1  0  0  0  0
 27 28  1  0  0  0  0
 27 22  2  0  0  0  0
 28 24  2  0  0  0  0
M  END
>  <MODEL>
7

>  <REMARK>
 VINA RESULT:      -6.0      1.464      2.070
  Name = 
  10 active torsions:
  status: ('A' for Active; 'I' for Inactive)
    1  A    between atoms: C_1  and  C_18
    2  A    between atoms: C_1  and  N_23
    3  A    between atoms: C_4  and  C_18
    4  A    between atoms: C_8  and  C_20
    5  A    between atoms: C_10  and  C_16
    6  A    between atoms: C_11  and  C_16
    7  A    between atoms: C_11  and  C_25
    8  A    between atoms: C_11  and  C_28
    9  A    between atoms: C_21  and  O_26
   10  A    between atoms: N_23  and  C_24
                            x       y       z     vdW  Elec       q    Type
                         _______ _______ _______ _____ _____    ______ ____

>  <TORSDO>
F 10

$$$$
=
 OpenBabel11062419553D

 28 31  0  0  1  0  0  0  0  0999 V2000
  189.8620  177.4420  144.8860 C   0  0  0  0  0  0  0  0  0  0  0  0
  188.6840  177.6320  144.1600 C   0  0  0  0  0  3  0  0  0  0  0  0
  188.5620  176.8780  146.8450 C   0  0  0  0  0  3  0  0  0  0  0  0
  187.3700  177.0730  146.1270 C   0  0  0  0  0  0  0  0  0  0  0  0
  189.8010  177.0610  146.2270 C   0  0  0  0  0  3  0  0  0  0  0  0
  187.4360  177.4580  144.7700 C   0  0  0  0  0  0  0  0  0  0  0  0
  185.6220  177.7580  147.7440 C   0  0  0  0  0  1  0  0  0  0  0  0
  186.1250  176.8870  146.7410 O   0  0  0  0  0  0  0  0  0  0  0  0
  186.2070  177.6680  143.9250 C   0  0  1  0  0  3  0  0  0  0  0  0
  184.4800  179.4700  144.3910 C   0  0  0  0  0  2  0  0  0  0  0  0
  185.7140  179.7980  144.9710 O   0  0  0  0  0  0  0  0  0  0  0  0
  185.7660  179.1330  143.7280 C   0  0  1  0  0  3  0  0  0  0  0  0
  186.1610  176.7880  142.6740 C   0  0  0  0  0  2  0  0  0  0  0  0
  187.0210  177.1530  140.3570 C   0  0  0  0  0  1  0  0  0  0  0  0
  186.0460  177.6330  141.4160 C   0  0  0  0  0  2  0  0  0  0  0  0
  191.1830  177.6150  144.2210 C   0  0  0  0  0  2  0  0  0  0  0  0
  191.3420  176.5990  143.1030 C   0  0  0  0  0  2  0  0  0  0  0  0
  192.7470  176.4630  142.7600 N   0  0  0  0  0  2  0  0  0  0  0  0
  194.5010  176.6070  144.2870 O   0  0  0  0  0  0  0  0  0  0  0  0
  194.7890  175.4620  143.5200 C   0  0  2  0  0  3  0  0  0  0  0  0
  193.4010  175.8260  143.8890 C   0  0  2  0  0  3  0  0  0  0  0  0
  194.5910  173.2230  144.5570 N   0  0  0  0  0  0  0  0  0  0  0  0
  196.2600  172.3150  146.0030 C   0  0  0  0  0  3  0  0  0  0  0  0
  197.0120  173.4820  145.8550 C   0  0  0  0  0  3  0  0  0  0  0  0
  195.0380  172.2020  145.3370 C   0  0  0  0  0  0  0  0  0  0  0  0
  194.2630  171.0190  145.4710 N   0  0  0  0  0  1  0  0  0  0  0  0
  195.3020  174.3760  144.4090 C   0  0  0  0  0  0  0  0  0  0  0  0
  196.5360  174.5190  145.0530 C   0  0  0  0  0  3  0  0  0  0  0  0
  1  5  1  0  0  0  0
  2  6  1  0  0  0  0
  2  1  2  0  0  0  0
  4  8  1  0  0  0  0
  4  3  1  0  0  0  0
  5  3  2  0  0  0  0
  6  4  2  0  0  0  0
  8  7  1  0  0  0  0
  9 13  1  6  0  0  0
  9  6  1  0  0  0  0
 10 11  1  0  0  0  0
 12  9  1  1  0  0  0
 12 10  1  0  0  0  0
 12 11  1  0  0  0  0
 14 15  1  0  0  0  0
 15 13  1  0  0  0  0
 16  1  1  0  0  0  0
 17 16  1  0  0  0  0
 18 17  1  0  0  0  0
 20 21  1  0  0  0  0
 20 19  1  0  0  0  0
 20 27  1  1  0  0  0
 21 18  1  6  0  0  0
 21 19  1  0  0  0  0
 22 25  1  0  0  0  0
 24 23  1  0  0  0  0
 25 26  1  0  0  0  0
 25 23  2  0  0  0  0
 27 22  2  0  0  0  0
 27 28  1  0  0  0  0
 28 24  2  0  0  0  0
M  END
>  <MODEL>
8

>  <REMARK>
 VINA RESULT:      -5.9      3.627      8.307
  Name = 
  10 active torsions:
  status: ('A' for Active; 'I' for Inactive)
    1  A    between atoms: C_1  and  C_18
    2  A    between atoms: C_1  and  N_23
    3  A    between atoms: C_4  and  C_18
    4  A    between atoms: C_8  and  C_20
    5  A    between atoms: C_10  and  C_16
    6  A    between atoms: C_11  and  C_16
    7  A    between atoms: C_11  and  C_25
    8  A    between atoms: C_11  and  C_28
    9  A    between atoms: C_21  and  O_26
   10  A    between atoms: N_23  and  C_24
                            x       y       z     vdW  Elec       q    Type
                         _______ _______ _______ _____ _____    ______ ____

>  <TORSDO>
F 10

$$$$
=
 OpenBabel11062419553D

 28 31  0  0  1  0  0  0  0  0999 V2000
  193.2080  175.5380  146.5100 C   0  0  0  0  0  0  0  0  0  0  0  0
  193.7050  174.4240  145.8290 C   0  0  0  0  0  3  0  0  0  0  0  0
  194.9380  176.9090  145.5250 C   0  0  0  0  0  3  0  0  0  0  0  0
  195.4510  175.7940  144.8400 C   0  0  0  0  0  0  0  0  0  0  0  0
  193.8230  176.7810  146.3540 C   0  0  0  0  0  3  0  0  0  0  0  0
  194.8260  174.5380  144.9990 C   0  0  0  0  0  0  0  0  0  0  0  0
  196.5010  176.5070  142.7120 C   0  0  0  0  0  1  0  0  0  0  0  0
  196.5680  175.9180  144.0030 O   0  0  0  0  0  0  0  0  0  0  0  0
  195.3000  173.2990  144.2860 C   0  0  1  0  0  3  0  0  0  0  0  0
  197.4740  172.1130  144.8490 C   0  0  0  0  0  2  0  0  0  0  0  0
  197.0270  172.8800  145.9350 O   0  0  0  0  0  0  0  0  0  0  0  0
  196.0280  172.2550  145.1580 C   0  0  1  0  0  3  0  0  0  0  0  0
  194.2880  172.7370  143.2860 C   0  0  0  0  0  2  0  0  0  0  0  0
  192.9210  174.1490  141.7420 C   0  0  0  0  0  1  0  0  0  0  0  0
  194.2880  173.5420  141.9970 C   0  0  0  0  0  2  0  0  0  0  0  0
  192.0050  175.4060  147.3770 C   0  0  0  0  0  2  0  0  0  0  0  0
  191.0270  176.5330  147.0890 C   0  0  0  0  0  2  0  0  0  0  0  0
  190.0050  176.0700  146.1660 N   0  0  0  0  0  2  0  0  0  0  0  0
  187.8490  175.7120  146.9710 O   0  0  0  0  0  0  0  0  0  0  0  0
  187.6630  176.2350  145.6770 C   0  0  2  0  0  3  0  0  0  0  0  0
  188.7580  176.7020  146.5600 C   0  0  2  0  0  3  0  0  0  0  0  0
  186.5390  178.2710  144.8310 N   0  0  0  0  0  0  0  0  0  0  0  0
  184.4100  179.0000  145.6290 C   0  0  0  0  0  3  0  0  0  0  0  0
  184.3730  177.9110  146.5020 C   0  0  0  0  0  3  0  0  0  0  0  0
  185.5140  179.1650  144.7910 C   0  0  0  0  0  0  0  0  0  0  0  0
  185.5650  180.2640  143.8910 N   0  0  0  0  0  1  0  0  0  0  0  0
  186.5300  177.2090  145.6840 C   0  0  0  0  0  0  0  0  0  0  0  0
  185.4350  177.0070  146.5310 C   0  0  0  0  0  3  0  0  0  0  0  0
  1 16  1  0  0  0  0
  2  1  2  0  0  0  0
  3  5  2  0  0  0  0
  4  6  2  0  0  0  0
  4  3  1  0  0  0  0
  5  1  1  0  0  0  0
  6  2  1  0  0  0  0
  7  8  1  0  0  0  0
  8  4  1  0  0  0  0
  9 13  1  1  0  0  0
  9  6  1  0  0  0  0
 10 12  1  0  0  0  0
 10 11  1  0  0  0  0
 12  9  1  6  0  0  0
 12 11  1  0  0  0  0
 14 15  1  0  0  0  0
 15 13  1  0  0  0  0
 17 16  1  0  0  0  0
 18 17  1  0  0  0  0
 20 27  1  1  0  0  0
 20 21  1  0  0  0  0
 20 19  1  0  0  0  0
 21 18  1  6  0  0  0
 21 19  1  0  0  0  0
 22 27  1  0  0  0  0
 23 24  2  0  0  0  0
 24 28  1  0  0  0  0
 25 22  2  0  0  0  0
 25 23  1  0  0  0  0
 26 25  1  0  0  0  0
 27 28  2  0  0  0  0
M  END
>  <MODEL>
9

>  <REMARK>
 VINA RESULT:      -5.9      2.973      5.266
  Name = 
  10 active torsions:
  status: ('A' for Active; 'I' for Inactive)
    1  A    between atoms: C_1  and  C_18
    2  A    between atoms: C_1  and  N_23
    3  A    between atoms: C_4  and  C_18
    4  A    between atoms: C_8  and  C_20
    5  A    between atoms: C_10  and  C_16
    6  A    between atoms: C_11  and  C_16
    7  A    between atoms: C_11  and  C_25
    8  A    between atoms: C_11  and  C_28
    9  A    between atoms: C_21  and  O_26
   10  A    between atoms: N_23  and  C_24
                            x       y       z     vdW  Elec       q    Type
                         _______ _______ _______ _____ _____    ______ ____

>  <TORSDO>
F 10

$$$$
