=
 OpenBabel11062422463D

 29 33  0  0  1  0  0  0  0  0999 V2000
  188.3150  178.1240  143.3900 N   0  0  0  0  0  0  0  0  0  0  0  0
  186.1500  177.6010  140.3120 C   0  0  0  0  0  0  0  0  0  0  0  0
  187.0940  177.4230  141.3350 C   0  0  0  0  0  0  0  0  0  0  0  0
  187.9940  175.5840  140.1040 N   0  0  0  0  0  0  0  0  0  0  0  0
  187.0890  178.2680  142.5890 C   0  0  1  0  0  3  0  0  0  0  0  0
  189.0450  176.2230  142.1780 N   0  0  0  0  0  2  0  0  0  0  0  0
  187.0640  175.7650  139.1320 C   0  0  0  0  0  3  0  0  0  0  0  0
  185.1780  178.6400  140.3900 N   0  0  0  0  0  1  0  0  0  0  0  0
  188.0260  176.3910  141.1950 C   0  0  0  0  0  0  0  0  0  0  0  0
  189.1930  177.1720  143.2400 C   0  0  0  0  0  0  0  0  0  0  0  0
  186.1540  176.7700  139.2380 N   0  0  0  0  0  0  0  0  0  0  0  0
  192.7510  177.3480  144.6060 C   0  0  0  0  0  2  0  0  0  0  0  0
  189.2600  175.6230  145.9040 C   0  0  0  0  0  2  0  0  0  0  0  0
  189.6350  175.1640  147.2910 C   0  0  0  0  0  2  0  0  0  0  0  0
  191.4480  176.5680  146.4500 C   0  0  1  0  0  3  0  0  0  0  0  0
  190.3520  177.0780  144.1570 C   0  0  0  0  0  0  0  0  0  0  0  0
  193.8080  176.4240  146.4490 C   0  0  0  0  0  1  0  0  0  0  0  0
  190.1550  176.8180  145.6390 C   0  0  1  0  0  3  0  0  0  0  0  0
  191.1270  175.3980  147.4020 C   0  0  2  0  0  3  0  0  0  0  0  0
  191.7930  174.2270  147.0240 O   0  0  0  0  0  1  0  0  0  0  0  0
  191.5800  177.3120  143.6840 C   0  0  0  0  0  3  0  0  0  0  0  0
  192.6270  176.2960  145.6080 N   0  0  0  0  0  0  0  0  0  0  0  0
  185.3270  179.2710  144.0890 C   0  0  0  0  0  2  0  0  0  0  0  0
  184.1960  178.9370  145.0540 C   0  0  0  0  0  2  0  0  0  0  0  0
  186.0840  176.8790  144.4550 C   0  0  0  0  0  3  0  0  0  0  0  0
  185.5400  176.9000  145.6820 C   0  0  0  0  0  3  0  0  0  0  0  0
  184.7420  178.0730  146.1890 C   0  0  2  0  0  3  0  0  0  0  0  0
  185.8510  177.9860  143.4470 C   0  0  2  0  0  3  0  0  0  0  0  0
  183.7050  177.6290  146.9850 F   0  0  0  0  0  0  0  0  0  0  0  0
  2  8  1  0  0  0  0
  2  3  2  0  0  0  0
  4  9  2  0  0  0  0
  5  3  1  6  0  0  0
  5  1  1  0  0  0  0
  5 28  1  0  0  0  0
  6 10  1  0  0  0  0
  7 11  2  0  0  0  0
  7  4  1  0  0  0  0
  9  3  1  0  0  0  0
  9  6  1  0  0  0  0
 10  1  2  0  0  0  0
 10 16  1  0  0  0  0
 11  2  1  0  0  0  0
 12 22  1  0  0  0  0
 13 14  1  0  0  0  0
 14 19  1  0  0  0  0
 15 22  1  6  0  0  0
 15 19  1  0  0  0  0
 16 18  1  0  0  0  0
 18 13  1  6  0  0  0
 18 15  1  0  0  0  0
 19 20  1  6  0  0  0
 21 16  2  0  0  0  0
 21 12  1  0  0  0  0
 22 17  1  0  0  0  0
 23 24  1  0  0  0  0
 24 27  1  0  0  0  0
 25 26  2  0  0  0  0
 26 27  1  0  0  0  0
 27 29  1  6  0  0  0
 28 23  1  1  0  0  0
 28 25  1  0  0  0  0
M  END
>  <MODEL>
1

>  <REMARK>
 VINA RESULT:      -7.9      0.000      0.000
  Name = 
  2 active torsions:
  status: ('A' for Active; 'I' for Inactive)
    1  A    between atoms: C_12  and  C_27
    2  A    between atoms: C_16  and  C_21
                            x       y       z     vdW  Elec       q    Type
                         _______ _______ _______ _____ _____    ______ ____

>  <TORSDO>
F 2

$$$$
=
 OpenBabel11062422463D

 29 33  0  0  1  0  0  0  0  0999 V2000
  189.6970  174.9970  145.0750 N   0  0  0  0  0  0  0  0  0  0  0  0
  191.0720  172.8630  142.2490 C   0  0  0  0  0  0  0  0  0  0  0  0
  190.3900  173.8510  142.9740 C   0  0  0  0  0  0  0  0  0  0  0  0
  189.1920  174.4040  140.9820 N   0  0  0  0  0  0  0  0  0  0  0  0
  190.7050  174.1450  144.4240 C   0  0  1  0  0  3  0  0  0  0  0  0
  188.6680  175.5800  143.0210 N   0  0  0  0  0  2  0  0  0  0  0  0
  189.8720  173.4510  140.2950 C   0  0  0  0  0  3  0  0  0  0  0  0
  192.0540  172.0440  142.8770 N   0  0  0  0  0  1  0  0  0  0  0  0
  189.4310  174.6150  142.3020 C   0  0  0  0  0  0  0  0  0  0  0  0
  188.7910  175.6900  144.4440 C   0  0  0  0  0  0  0  0  0  0  0  0
  190.8000  172.6870  140.9290 N   0  0  0  0  0  0  0  0  0  0  0  0
  186.6870  177.1720  147.2610 C   0  0  0  0  0  2  0  0  0  0  0  0
  186.8990  177.7860  143.2090 C   0  0  0  0  0  2  0  0  0  0  0  0
  186.0090  178.9910  143.0280 C   0  0  0  0  0  2  0  0  0  0  0  0
  186.3480  178.6610  145.4240 C   0  0  1  0  0  3  0  0  0  0  0  0
  187.8760  176.5790  145.1960 C   0  0  0  0  0  0  0  0  0  0  0  0
  184.9470  178.7000  147.3290 C   0  0  0  0  0  1  0  0  0  0  0  0
  187.4380  177.9130  144.6200 C   0  0  1  0  0  3  0  0  0  0  0  0
  185.3610  179.2170  144.3770 C   0  0  2  0  0  3  0  0  0  0  0  0
  184.1390  178.5380  144.4070 O   0  0  0  0  0  1  0  0  0  0  0  0
  187.5040  176.2390  146.4330 C   0  0  0  0  0  3  0  0  0  0  0  0
  185.6770  177.8180  146.4310 N   0  0  0  0  0  0  0  0  0  0  0  0
  192.6660  174.4730  145.9750 C   0  0  0  0  0  2  0  0  0  0  0  0
  193.9840  175.2160  146.1520 C   0  0  0  0  0  2  0  0  0  0  0  0
  192.1420  176.2200  144.2140 C   0  0  0  0  0  3  0  0  0  0  0  0
  192.9180  177.1020  144.8650 C   0  0  0  0  0  3  0  0  0  0  0  0
  193.7280  176.7190  146.0760 C   0  0  2  0  0  3  0  0  0  0  0  0
  192.1030  174.7510  144.5800 C   0  0  2  0  0  3  0  0  0  0  0  0
  194.9280  177.4040  146.0750 F   0  0  0  0  0  0  0  0  0  0  0  0
  2  8  1  0  0  0  0
  2  3  2  0  0  0  0
  4  9  2  0  0  0  0
  5  3  1  6  0  0  0
  5 28  1  0  0  0  0
  5  1  1  0  0  0  0
  6 10  1  0  0  0  0
  7 11  2  0  0  0  0
  7  4  1  0  0  0  0
  9  3  1  0  0  0  0
  9  6  1  0  0  0  0
 10  1  2  0  0  0  0
 10 16  1  0  0  0  0
 11  2  1  0  0  0  0
 14 13  1  0  0  0  0
 14 19  1  0  0  0  0
 15 22  1  1  0  0  0
 16 21  2  0  0  0  0
 18 13  1  6  0  0  0
 18 16  1  0  0  0  0
 18 15  1  0  0  0  0
 19 20  1  6  0  0  0
 19 15  1  0  0  0  0
 21 12  1  0  0  0  0
 22 12  1  0  0  0  0
 22 17  1  0  0  0  0
 23 24  1  0  0  0  0
 25 26  2  0  0  0  0
 26 27  1  0  0  0  0
 27 29  1  6  0  0  0
 27 24  1  0  0  0  0
 28 25  1  1  0  0  0
 28 23  1  0  0  0  0
M  END
>  <MODEL>
2

>  <REMARK>
 VINA RESULT:      -7.5      3.638      6.681
  Name = 
  2 active torsions:
  status: ('A' for Active; 'I' for Inactive)
    1  A    between atoms: C_12  and  C_27
    2  A    between atoms: C_16  and  C_21
                            x       y       z     vdW  Elec       q    Type
                         _______ _______ _______ _____ _____    ______ ____

>  <TORSDO>
F 2

$$$$
=
 OpenBabel11062422463D

 29 33  0  0  1  0  0  0  0  0999 V2000
  190.2430  176.4730  143.7910 N   0  0  0  0  0  0  0  0  0  0  0  0
  194.0030  176.0450  144.1240 C   0  0  0  0  0  0  0  0  0  0  0  0
  192.6370  176.1800  144.4140 C   0  0  0  0  0  0  0  0  0  0  0  0
  193.2160  176.5080  146.7090 N   0  0  0  0  0  0  0  0  0  0  0  0
  191.5700  176.0110  143.3550 C   0  0  1  0  0  3  0  0  0  0  0  0
  190.8960  176.6360  146.0630 N   0  0  0  0  0  2  0  0  0  0  0  0
  194.5320  176.3620  146.4080 C   0  0  0  0  0  3  0  0  0  0  0  0
  194.4450  175.8050  142.7900 N   0  0  0  0  0  1  0  0  0  0  0  0
  192.2690  176.4230  145.7400 C   0  0  0  0  0  0  0  0  0  0  0  0
  189.9110  176.7200  145.0270 C   0  0  0  0  0  0  0  0  0  0  0  0
  194.9170  176.1370  145.1240 N   0  0  0  0  0  0  0  0  0  0  0  0
  186.5880  177.0370  146.8750 C   0  0  0  0  0  2  0  0  0  0  0  0
  187.8450  177.8900  143.0620 C   0  0  0  0  0  2  0  0  0  0  0  0
  186.6520  178.6180  142.4940 C   0  0  0  0  0  2  0  0  0  0  0  0
  186.2890  178.3380  144.8940 C   0  0  1  0  0  3  0  0  0  0  0  0
  188.5200  177.1040  145.3620 C   0  0  0  0  0  0  0  0  0  0  0  0
  184.4570  177.6900  146.2410 C   0  0  0  0  0  1  0  0  0  0  0  0
  187.7880  178.1580  144.5530 C   0  0  1  0  0  3  0  0  0  0  0  0
  185.5650  178.4820  143.5400 C   0  0  2  0  0  3  0  0  0  0  0  0
  184.7960  177.3530  143.2430 O   0  0  0  0  0  1  0  0  0  0  0  0
  187.9380  176.5760  146.4420 C   0  0  0  0  0  3  0  0  0  0  0  0
  185.7360  177.2420  145.7090 N   0  0  0  0  0  0  0  0  0  0  0  0
  190.4450  174.4120  141.7630 C   0  0  0  0  0  2  0  0  0  0  0  0
  190.2890  172.9400  141.4020 C   0  0  0  0  0  2  0  0  0  0  0  0
  191.3150  173.5720  143.9910 C   0  0  0  0  0  3  0  0  0  0  0  0
  190.5660  172.4650  143.8610 C   0  0  0  0  0  3  0  0  0  0  0  0
  189.7670  172.1760  142.6170 C   0  0  2  0  0  3  0  0  0  0  0  0
  191.4990  174.5620  142.8600 C   0  0  2  0  0  3  0  0  0  0  0  0
  189.7700  170.8190  142.3600 F   0  0  0  0  0  0  0  0  0  0  0  0
  1 10  2  0  0  0  0
  2  3  2  0  0  0  0
  2 11  1  0  0  0  0
  3  9  1  0  0  0  0
  5  1  1  1  0  0  0
  5  3  1  0  0  0  0
  7  4  1  0  0  0  0
  8  2  1  0  0  0  0
  9  6  1  0  0  0  0
  9  4  2  0  0  0  0
 10 16  1  0  0  0  0
 10  6  1  0  0  0  0
 11  7  2  0  0  0  0
 14 13  1  0  0  0  0
 14 19  1  0  0  0  0
 15 22  1  6  0  0  0
 16 21  2  0  0  0  0
 18 13  1  6  0  0  0
 18 15  1  0  0  0  0
 18 16  1  0  0  0  0
 19 20  1  6  0  0  0
 19 15  1  0  0  0  0
 21 12  1  0  0  0  0
 22 17  1  0  0  0  0
 22 12  1  0  0  0  0
 24 23  1  0  0  0  0
 24 27  1  0  0  0  0
 26 25  2  0  0  0  0
 27 29  1  6  0  0  0
 27 26  1  0  0  0  0
 28 23  1  6  0  0  0
 28  5  1  0  0  0  0
 28 25  1  0  0  0  0
M  END
>  <MODEL>
3

>  <REMARK>
 VINA RESULT:      -7.4      3.440      7.171
  Name = 
  2 active torsions:
  status: ('A' for Active; 'I' for Inactive)
    1  A    between atoms: C_12  and  C_27
    2  A    between atoms: C_16  and  C_21
                            x       y       z     vdW  Elec       q    Type
                         _______ _______ _______ _____ _____    ______ ____

>  <TORSDO>
F 2

$$$$
=
 OpenBabel11062422463D

 29 33  0  0  1  0  0  0  0  0999 V2000
  190.0110  176.5280  143.3080 N   0  0  0  0  0  0  0  0  0  0  0  0
  193.5630  176.0800  144.5790 C   0  0  0  0  0  0  0  0  0  0  0  0
  192.1740  176.2600  144.5160 C   0  0  0  0  0  0  0  0  0  0  0  0
  192.1960  176.7910  146.8460 N   0  0  0  0  0  0  0  0  0  0  0  0
  191.3870  176.0090  143.2480 C   0  0  1  0  0  3  0  0  0  0  0  0
  190.1050  176.8920  145.6480 N   0  0  0  0  0  2  0  0  0  0  0  0
  193.5390  176.5990  146.8870 C   0  0  0  0  0  3  0  0  0  0  0  0
  194.3040  175.7110  143.4180 N   0  0  0  0  0  1  0  0  0  0  0  0
  191.5060  176.6310  145.6870 C   0  0  0  0  0  0  0  0  0  0  0  0
  189.4010  176.8930  144.4010 C   0  0  0  0  0  0  0  0  0  0  0  0
  194.2130  176.2510  145.7590 N   0  0  0  0  0  0  0  0  0  0  0  0
  186.1360  178.4720  143.2160 C   0  0  0  0  0  2  0  0  0  0  0  0
  187.4550  176.9440  146.7890 C   0  0  0  0  0  2  0  0  0  0  0  0
  186.1940  176.9490  147.6170 C   0  0  0  0  0  2  0  0  0  0  0  0
  185.5810  177.4640  145.3100 C   0  0  1  0  0  3  0  0  0  0  0  0
  187.9860  177.3270  144.3530 C   0  0  0  0  0  0  0  0  0  0  0  0
  184.1540  179.0410  144.2730 C   0  0  0  0  0  1  0  0  0  0  0  0
  186.9770  176.8010  145.3580 C   0  0  1  0  0  3  0  0  0  0  0  0
  185.1680  177.6830  146.7790 C   0  0  2  0  0  3  0  0  0  0  0  0
  185.1920  179.0370  147.1270 O   0  0  0  0  0  1  0  0  0  0  0  0
  187.5780  178.1220  143.3610 C   0  0  0  0  0  3  0  0  0  0  0  0
  185.5500  178.7150  144.5290 N   0  0  0  0  0  0  0  0  0  0  0  0
  190.6220  174.2860  141.5740 C   0  0  0  0  0  2  0  0  0  0  0  0
  190.5040  172.7890  141.3140 C   0  0  0  0  0  2  0  0  0  0  0  0
  190.8960  173.6440  144.0120 C   0  0  0  0  0  3  0  0  0  0  0  0
  190.1600  172.5410  143.7990 C   0  0  0  0  0  3  0  0  0  0  0  0
  189.6760  172.1490  142.4270 C   0  0  2  0  0  3  0  0  0  0  0  0
  191.3850  174.5220  142.8780 C   0  0  2  0  0  3  0  0  0  0  0  0
  189.6920  170.7740  142.2970 F   0  0  0  0  0  0  0  0  0  0  0  0
  1 10  2  0  0  0  0
  2 11  1  0  0  0  0
  3  2  2  0  0  0  0
  3  9  1  0  0  0  0
  4  7  1  0  0  0  0
  5  1  1  1  0  0  0
  5  3  1  0  0  0  0
  6  9  1  0  0  0  0
  8  2  1  0  0  0  0
  9  4  2  0  0  0  0
 10  6  1  0  0  0  0
 11  7  2  0  0  0  0
 12 21  1  0  0  0  0
 12 22  1  0  0  0  0
 13 14  1  0  0  0  0
 15 22  1  6  0  0  0
 15 18  1  0  0  0  0
 15 19  1  0  0  0  0
 16 10  1  0  0  0  0
 16 18  1  0  0  0  0
 17 22  1  0  0  0  0
 18 13  1  1  0  0  0
 19 20  1  1  0  0  0
 19 14  1  0  0  0  0
 21 16  2  0  0  0  0
 24 23  1  0  0  0  0
 24 27  1  0  0  0  0
 26 25  2  0  0  0  0
 27 29  1  1  0  0  0
 27 26  1  0  0  0  0
 28 23  1  6  0  0  0
 28  5  1  0  0  0  0
 28 25  1  0  0  0  0
M  END
>  <MODEL>
4

>  <REMARK>
 VINA RESULT:      -7.3      3.317      7.003
  Name = 
  2 active torsions:
  status: ('A' for Active; 'I' for Inactive)
    1  A    between atoms: C_12  and  C_27
    2  A    between atoms: C_16  and  C_21
                            x       y       z     vdW  Elec       q    Type
                         _______ _______ _______ _____ _____    ______ ____

>  <TORSDO>
F 2

$$$$
=
 OpenBabel11062422463D

 29 33  0  0  1  0  0  0  0  0999 V2000
  190.2130  174.4520  144.7680 N   0  0  0  0  0  0  0  0  0  0  0  0
  192.3820  176.5040  147.1170 C   0  0  0  0  0  0  0  0  0  0  0  0
  191.8880  175.8380  145.9860 C   0  0  0  0  0  0  0  0  0  0  0  0
  194.0200  176.1360  144.9490 N   0  0  0  0  0  0  0  0  0  0  0  0
  190.4510  175.3710  145.8920 C   0  0  1  0  0  3  0  0  0  0  0  0
  192.3060  174.9260  143.7610 N   0  0  0  0  0  2  0  0  0  0  0  0
  194.4750  176.7890  146.0490 C   0  0  0  0  0  3  0  0  0  0  0  0
  191.5580  176.7100  148.2610 N   0  0  0  0  0  1  0  0  0  0  0  0
  192.7490  175.6590  144.9000 C   0  0  0  0  0  0  0  0  0  0  0  0
  191.0310  174.2730  143.7690 C   0  0  0  0  0  0  0  0  0  0  0  0
  193.6600  176.9650  147.1230 N   0  0  0  0  0  0  0  0  0  0  0  0
  191.0240  171.3610  141.3030 C   0  0  0  0  0  2  0  0  0  0  0  0
  189.1300  174.9980  141.4550 C   0  0  0  0  0  2  0  0  0  0  0  0
  188.1600  174.8950  140.3040 C   0  0  0  0  0  2  0  0  0  0  0  0
  189.1460  172.6880  140.6560 C   0  0  1  0  0  3  0  0  0  0  0  0
  190.6530  173.3810  142.6480 C   0  0  0  0  0  0  0  0  0  0  0  0
  190.0230  171.0070  139.2430 C   0  0  0  0  0  1  0  0  0  0  0  0
  189.3390  173.5690  141.9130 C   0  0  1  0  0  3  0  0  0  0  0  0
  188.5220  173.6100  139.5890 C   0  0  2  0  0  3  0  0  0  0  0  0
  189.4300  173.9070  138.5670 O   0  0  0  0  0  1  0  0  0  0  0  0
  191.4410  172.3470  142.3410 C   0  0  0  0  0  3  0  0  0  0  0  0
  190.3910  172.0530  140.1870 N   0  0  0  0  0  0  0  0  0  0  0  0
  188.0830  176.1400  146.2870 C   0  0  0  0  0  2  0  0  0  0  0  0
  187.1110  177.2930  146.0700 C   0  0  0  0  0  2  0  0  0  0  0  0
  189.4820  177.2370  144.4780 C   0  0  0  0  0  3  0  0  0  0  0  0
  188.3670  177.7490  143.9330 C   0  0  0  0  0  3  0  0  0  0  0  0
  187.0130  177.5950  144.5760 C   0  0  2  0  0  3  0  0  0  0  0  0
  189.4820  176.5570  145.8320 C   0  0  2  0  0  3  0  0  0  0  0  0
  186.2620  178.7360  144.3720 F   0  0  0  0  0  0  0  0  0  0  0  0
  2 11  1  0  0  0  0
  2  8  1  0  0  0  0
  3  2  2  0  0  0  0
  4  7  1  0  0  0  0
  5  1  1  6  0  0  0
  5  3  1  0  0  0  0
  6 10  1  0  0  0  0
  6  9  1  0  0  0  0
  7 11  2  0  0  0  0
  9  4  2  0  0  0  0
  9  3  1  0  0  0  0
 10  1  2  0  0  0  0
 12 21  1  0  0  0  0
 14 13  1  0  0  0  0
 15 22  1  6  0  0  0
 15 18  1  0  0  0  0
 16 10  1  0  0  0  0
 17 22  1  0  0  0  0
 18 13  1  6  0  0  0
 18 16  1  0  0  0  0
 19 20  1  6  0  0  0
 19 14  1  0  0  0  0
 19 15  1  0  0  0  0
 21 16  2  0  0  0  0
 22 12  1  0  0  0  0
 24 23  1  0  0  0  0
 26 25  2  0  0  0  0
 26 27  1  0  0  0  0
 27 29  1  1  0  0  0
 27 24  1  0  0  0  0
 28 25  1  6  0  0  0
 28  5  1  0  0  0  0
 28 23  1  0  0  0  0
M  END
>  <MODEL>
5

>  <REMARK>
 VINA RESULT:      -7.3      3.341      6.632
  Name = 
  2 active torsions:
  status: ('A' for Active; 'I' for Inactive)
    1  A    between atoms: C_12  and  C_27
    2  A    between atoms: C_16  and  C_21
                            x       y       z     vdW  Elec       q    Type
                         _______ _______ _______ _____ _____    ______ ____

>  <TORSDO>
F 2

$$$$
=
 OpenBabel11062422463D

 29 33  0  0  1  0  0  0  0  0999 V2000
  189.9600  174.9360  144.2200 N   0  0  0  0  0  0  0  0  0  0  0  0
  192.2970  176.3120  146.8800 C   0  0  0  0  0  0  0  0  0  0  0  0
  191.7170  175.9750  145.6480 C   0  0  0  0  0  0  0  0  0  0  0  0
  193.7570  176.6130  144.5790 N   0  0  0  0  0  0  0  0  0  0  0  0
  190.2820  175.5100  145.5360 C   0  0  1  0  0  3  0  0  0  0  0  0
  191.9610  175.7330  143.2310 N   0  0  0  0  0  2  0  0  0  0  0  0
  194.2950  176.9460  145.7800 C   0  0  0  0  0  3  0  0  0  0  0  0
  191.5660  176.1660  148.0940 N   0  0  0  0  0  1  0  0  0  0  0  0
  192.4900  176.1310  144.4940 C   0  0  0  0  0  0  0  0  0  0  0  0
  190.6960  175.0660  143.1520 C   0  0  0  0  0  0  0  0  0  0  0  0
  193.5680  176.7900  146.9190 N   0  0  0  0  0  0  0  0  0  0  0  0
  188.5230  174.2990  140.1110 C   0  0  0  0  0  2  0  0  0  0  0  0
  191.9720  172.6960  141.6520 C   0  0  0  0  0  2  0  0  0  0  0  0
  192.3880  171.7400  140.5620 C   0  0  0  0  0  2  0  0  0  0  0  0
  190.5510  173.1030  139.7060 C   0  0  1  0  0  3  0  0  0  0  0  0
  190.2350  174.5130  141.8580 C   0  0  0  0  0  0  0  0  0  0  0  0
  188.5830  172.6660  138.4690 C   0  0  0  0  0  1  0  0  0  0  0  0
  191.1950  173.7830  140.9370 C   0  0  1  0  0  3  0  0  0  0  0  0
  191.2350  171.7270  139.5800 C   0  0  2  0  0  3  0  0  0  0  0  0
  190.3680  170.6840  139.9210 O   0  0  0  0  0  1  0  0  0  0  0  0
  188.9790  174.7360  141.4620 C   0  0  0  0  0  3  0  0  0  0  0  0
  189.0830  172.9900  139.7970 N   0  0  0  0  0  0  0  0  0  0  0  0
  188.1200  176.0990  146.6920 C   0  0  0  0  0  2  0  0  0  0  0  0
  187.0910  177.2060  146.8900 C   0  0  0  0  0  2  0  0  0  0  0  0
  188.8710  177.4270  144.6670 C   0  0  0  0  0  3  0  0  0  0  0  0
  187.6280  177.9160  144.5320 C   0  0  0  0  0  3  0  0  0  0  0  0
  186.5370  177.6260  145.5300 C   0  0  2  0  0  3  0  0  0  0  0  0
  189.3020  176.6360  145.8850 C   0  0  2  0  0  3  0  0  0  0  0  0
  185.7240  178.7340  145.6730 F   0  0  0  0  0  0  0  0  0  0  0  0
  2 11  1  0  0  0  0
  2  8  1  0  0  0  0
  3  2  2  0  0  0  0
  4  7  1  0  0  0  0
  5  1  1  6  0  0  0
  5  3  1  0  0  0  0
  5 28  1  0  0  0  0
  6  9  1  0  0  0  0
  7 11  2  0  0  0  0
  9  4  2  0  0  0  0
  9  3  1  0  0  0  0
 10  6  1  0  0  0  0
 10  1  2  0  0  0  0
 12 21  1  0  0  0  0
 14 13  1  0  0  0  0
 15 22  1  1  0  0  0
 15 18  1  0  0  0  0
 16 10  1  0  0  0  0
 17 22  1  0  0  0  0
 18 13  1  1  0  0  0
 18 16  1  0  0  0  0
 19 15  1  0  0  0  0
 19 20  1  1  0  0  0
 19 14  1  0  0  0  0
 21 16  2  0  0  0  0
 22 12  1  0  0  0  0
 23 24  1  0  0  0  0
 26 25  2  0  0  0  0
 26 27  1  0  0  0  0
 27 29  1  1  0  0  0
 27 24  1  0  0  0  0
 28 25  1  6  0  0  0
 28 23  1  0  0  0  0
M  END
>  <MODEL>
6

>  <REMARK>
 VINA RESULT:      -7.3      3.205      6.535
  Name = 
  2 active torsions:
  status: ('A' for Active; 'I' for Inactive)
    1  A    between atoms: C_12  and  C_27
    2  A    between atoms: C_16  and  C_21
                            x       y       z     vdW  Elec       q    Type
                         _______ _______ _______ _____ _____    ______ ____

>  <TORSDO>
F 2

$$$$
=
 OpenBabel11062422463D

 29 33  0  0  1  0  0  0  0  0999 V2000
  188.6890  175.0150  144.7130 N   0  0  0  0  0  0  0  0  0  0  0  0
  191.0330  172.5090  143.0820 C   0  0  0  0  0  0  0  0  0  0  0  0
  190.2240  173.6300  143.3230 C   0  0  0  0  0  0  0  0  0  0  0  0
  190.3820  174.1710  141.0010 N   0  0  0  0  0  0  0  0  0  0  0  0
  189.7490  173.9940  144.7120 C   0  0  1  0  0  3  0  0  0  0  0  0
  189.0250  175.5600  142.4310 N   0  0  0  0  0  2  0  0  0  0  0  0
  191.1740  173.0890  140.7920 C   0  0  0  0  0  3  0  0  0  0  0  0
  191.3890  171.6250  144.1410 N   0  0  0  0  0  1  0  0  0  0  0  0
  189.9020  174.4520  142.2400 C   0  0  0  0  0  0  0  0  0  0  0  0
  188.3790  175.7650  143.6930 C   0  0  0  0  0  0  0  0  0  0  0  0
  191.4910  172.2660  141.8260 N   0  0  0  0  0  0  0  0  0  0  0  0
  186.1740  178.7900  142.9570 C   0  0  0  0  0  2  0  0  0  0  0  0
  186.9300  176.5350  146.3020 C   0  0  0  0  0  2  0  0  0  0  0  0
  185.9100  177.0690  147.2770 C   0  0  0  0  0  2  0  0  0  0  0  0
  185.4040  177.9990  145.0760 C   0  0  1  0  0  3  0  0  0  0  0  0
  187.3470  176.8180  143.8300 C   0  0  0  0  0  0  0  0  0  0  0  0
  184.8170  180.1400  144.2630 C   0  0  0  0  0  1  0  0  0  0  0  0
  186.3090  176.7520  144.9360 C   0  0  1  0  0  3  0  0  0  0  0  0
  185.2870  178.2660  146.5900 C   0  0  2  0  0  3  0  0  0  0  0  0
  185.9900  179.4150  146.9670 O   0  0  0  0  0  1  0  0  0  0  0  0
  187.2780  177.7890  142.9160 C   0  0  0  0  0  3  0  0  0  0  0  0
  185.9020  179.1740  144.3380 N   0  0  0  0  0  0  0  0  0  0  0  0
  190.4090  174.9490  146.9500 C   0  0  0  0  0  2  0  0  0  0  0  0
  191.5740  175.5170  147.7520 C   0  0  0  0  0  2  0  0  0  0  0  0
  191.8430  175.4050  144.9100 C   0  0  0  0  0  3  0  0  0  0  0  0
  192.4420  176.4140  145.5620 C   0  0  0  0  0  3  0  0  0  0  0  0
  192.1560  176.7180  147.0100 C   0  0  2  0  0  3  0  0  0  0  0  0
  190.9160  174.4300  145.6050 C   0  0  2  0  0  3  0  0  0  0  0  0
  193.3100  177.1470  147.6380 F   0  0  0  0  0  0  0  0  0  0  0  0
  2  3  2  0  0  0  0
  2  8  1  0  0  0  0
  4  9  2  0  0  0  0
  5  3  1  6  0  0  0
  5  1  1  0  0  0  0
  5 28  1  0  0  0  0
  6 10  1  0  0  0  0
  7  4  1  0  0  0  0
  7 11  2  0  0  0  0
  9  6  1  0  0  0  0
  9  3  1  0  0  0  0
 10 16  1  0  0  0  0
 10  1  2  0  0  0  0
 11  2  1  0  0  0  0
 12 22  1  0  0  0  0
 13 14  1  0  0  0  0
 15 22  1  6  0  0  0
 15 19  1  0  0  0  0
 16 18  1  0  0  0  0
 17 22  1  0  0  0  0
 18 15  1  0  0  0  0
 18 13  1  1  0  0  0
 19 20  1  6  0  0  0
 19 14  1  0  0  0  0
 21 12  1  0  0  0  0
 21 16  2  0  0  0  0
 23 24  1  0  0  0  0
 25 26  2  0  0  0  0
 26 27  1  0  0  0  0
 27 29  1  1  0  0  0
 27 24  1  0  0  0  0
 28 25  1  6  0  0  0
 28 23  1  0  0  0  0
M  END
>  <MODEL>
7

>  <REMARK>
 VINA RESULT:      -7.3      3.307      6.293
  Name = 
  2 active torsions:
  status: ('A' for Active; 'I' for Inactive)
    1  A    between atoms: C_12  and  C_27
    2  A    between atoms: C_16  and  C_21
                            x       y       z     vdW  Elec       q    Type
                         _______ _______ _______ _____ _____    ______ ____

>  <TORSDO>
F 2

$$$$
=
 OpenBabel11062422463D

 29 33  0  0  1  0  0  0  0  0999 V2000
  189.0070  177.9160  144.1050 N   0  0  0  0  0  0  0  0  0  0  0  0
  185.9000  178.3820  141.9690 C   0  0  0  0  0  0  0  0  0  0  0  0
  187.1220  177.9160  142.4750 C   0  0  1  0  0  3  0  0  0  0  0  0
  187.4420  176.7130  140.4360 N   0  0  0  0  0  0  0  0  0  0  0  0
  187.5920  178.2500  143.8740 C   0  0  1  0  0  3  0  0  0  0  0  0
  189.1690  176.6360  142.1170 N   0  0  0  0  0  2  0  0  0  0  0  0
  186.2490  177.1660  139.9700 C   0  0  0  0  0  2  0  0  0  0  0  0
  185.0750  179.2520  142.7400 N   0  0  0  0  0  1  0  0  0  0  0  0
  187.8890  177.0740  141.6660 C   0  0  0  0  0  0  0  0  0  0  0  0
  189.7240  177.1470  143.3340 C   0  0  0  0  0  0  0  0  0  0  0  0
  185.4910  177.9970  140.7330 N   0  0  0  0  0  0  0  0  0  0  0  0
  193.4770  176.5000  143.1020 C   0  0  0  0  0  2  0  0  0  0  0  0
  190.6070  175.7610  145.9410 C   0  0  0  0  0  2  0  0  0  0  0  0
  191.4370  175.2910  147.1110 C   0  0  0  0  0  2  0  0  0  0  0  0
  192.9600  176.1580  145.4090 C   0  0  1  0  0  3  0  0  0  0  0  0
  191.1180  176.8120  143.7060 C   0  0  0  0  0  0  0  0  0  0  0  0
  195.0080  175.4330  144.4760 C   0  0  0  0  0  1  0  0  0  0  0  0
  191.5250  176.6820  145.1620 C   0  0  1  0  0  3  0  0  0  0  0  0
  192.8450  175.1520  146.5720 C   0  0  2  0  0  3  0  0  0  0  0  0
  193.0310  173.8360  146.1370 O   0  0  0  0  0  1  0  0  0  0  0  0
  192.0440  176.7110  142.7490 C   0  0  0  0  0  3  0  0  0  0  0  0
  193.5820  175.5610  144.2130 N   0  0  0  0  0  0  0  0  0  0  0  0
  185.9810  178.6440  145.7720 C   0  0  0  0  0  2  0  0  0  0  0  0
  185.2300  177.9650  146.9120 C   0  0  0  0  0  2  0  0  0  0  0  0
  187.4600  176.5850  145.7790 C   0  0  0  0  0  3  0  0  0  0  0  0
  187.2100  176.4150  147.0870 C   0  0  0  0  0  3  0  0  0  0  0  0
  186.2340  177.2820  147.8390 C   0  0  2  0  0  3  0  0  0  0  0  0
  186.7040  177.5900  144.9340 C   0  0  2  0  0  3  0  0  0  0  0  0
  185.5670  176.5290  148.7850 F   0  0  0  0  0  0  0  0  0  0  0  0
  2  3  1  0  0  0  0
  2  8  1  0  0  0  0
  3  9  1  1  0  0  0
  3  5  1  0  0  0  0
  4  9  2  0  0  0  0
  5  1  1  6  0  0  0
  5 28  1  0  0  0  0
  6 10  1  0  0  0  0
  7  4  1  0  0  0  0
  7 11  1  0  0  0  0
  9  6  1  0  0  0  0
 10 16  1  0  0  0  0
 10  1  2  0  0  0  0
 11  2  2  0  0  0  0
 12 22  1  0  0  0  0
 13 14  1  0  0  0  0
 15 22  1  6  0  0  0
 15 19  1  0  0  0  0
 16 18  1  0  0  0  0
 18 15  1  0  0  0  0
 18 13  1  1  0  0  0
 19 20  1  6  0  0  0
 19 14  1  0  0  0  0
 21 12  1  0  0  0  0
 21 16  2  0  0  0  0
 22 17  1  0  0  0  0
 23 24  1  0  0  0  0
 24 27  1  0  0  0  0
 25 26  2  0  0  0  0
 26 27  1  0  0  0  0
 27 29  1  1  0  0  0
 28 23  1  1  0  0  0
 28 25  1  0  0  0  0
M  END
>  <MODEL>
8

>  <REMARK>
 VINA RESULT:      -7.2      1.506      1.773
  Name = 
  2 active torsions:
  status: ('A' for Active; 'I' for Inactive)
    1  A    between atoms: C_12  and  C_27
    2  A    between atoms: C_16  and  C_21
                            x       y       z     vdW  Elec       q    Type
                         _______ _______ _______ _____ _____    ______ ____

>  <TORSDO>
F 2

$$$$
=
 OpenBabel11062422463D

 29 33  0  0  1  0  0  0  0  0999 V2000
  188.5880  177.6450  143.5000 N   0  0  0  0  0  0  0  0  0  0  0  0
  186.4650  177.4440  140.3560 C   0  0  0  0  0  0  0  0  0  0  0  0
  187.3570  177.1370  141.3940 C   0  0  0  0  0  0  0  0  0  0  0  0
  188.0930  175.2500  140.1270 N   0  0  0  0  0  0  0  0  0  0  0  0
  187.4060  177.9410  142.6750 C   0  0  1  0  0  3  0  0  0  0  0  0
  189.1480  175.7130  142.2450 N   0  0  0  0  0  2  0  0  0  0  0  0
  187.2140  175.5570  139.1390 C   0  0  0  0  0  3  0  0  0  0  0  0
  185.6060  178.5770  140.4430 N   0  0  0  0  0  1  0  0  0  0  0  0
  188.1790  176.0170  141.2440 C   0  0  0  0  0  0  0  0  0  0  0  0
  189.3650  176.6100  143.3410 C   0  0  0  0  0  0  0  0  0  0  0  0
  186.4120  176.6480  139.2560 N   0  0  0  0  0  0  0  0  0  0  0  0
  191.4660  176.5360  146.5250 C   0  0  0  0  0  2  0  0  0  0  0  0
  192.2500  175.8650  142.5530 C   0  0  0  0  0  2  0  0  0  0  0  0
  193.6620  175.3350  142.5970 C   0  0  0  0  0  2  0  0  0  0  0  0
  192.8300  175.4520  144.8910 C   0  0  1  0  0  3  0  0  0  0  0  0
  190.4830  176.3670  144.2820 C   0  0  0  0  0  0  0  0  0  0  0  0
  193.7180  176.1970  146.9520 C   0  0  0  0  0  1  0  0  0  0  0  0
  191.6500  175.4800  143.8910 C   0  0  1  0  0  3  0  0  0  0  0  0
  194.1100  175.5100  144.0330 C   0  0  2  0  0  3  0  0  0  0  0  0
  194.7570  176.7440  144.1530 O   0  0  0  0  0  1  0  0  0  0  0  0
  190.4170  176.8670  145.5190 C   0  0  0  0  0  3  0  0  0  0  0  0
  192.7790  176.5330  145.8920 N   0  0  0  0  0  0  0  0  0  0  0  0
  185.5790  179.1200  143.9510 C   0  0  0  0  0  2  0  0  0  0  0  0
  184.3960  178.9060  144.8870 C   0  0  0  0  0  2  0  0  0  0  0  0
  186.2920  176.7850  144.6350 C   0  0  0  0  0  3  0  0  0  0  0  0
  185.6850  176.9520  145.8210 C   0  0  0  0  0  3  0  0  0  0  0  0
  184.8730  178.1800  146.1430 C   0  0  2  0  0  3  0  0  0  0  0  0
  186.1220  177.7660  143.4940 C   0  0  2  0  0  3  0  0  0  0  0  0
  183.7920  177.8350  146.9300 F   0  0  0  0  0  0  0  0  0  0  0  0
  2  8  1  0  0  0  0
  2  3  2  0  0  0  0
  4  9  2  0  0  0  0
  5  3  1  6  0  0  0
  5 28  1  0  0  0  0
  5  1  1  0  0  0  0
  6 10  1  0  0  0  0
  7 11  2  0  0  0  0
  7  4  1  0  0  0  0
  9  3  1  0  0  0  0
  9  6  1  0  0  0  0
 10  1  2  0  0  0  0
 10 16  1  0  0  0  0
 11  2  1  0  0  0  0
 13 14  1  0  0  0  0
 14 19  1  0  0  0  0
 15 22  1  1  0  0  0
 16 21  2  0  0  0  0
 18 13  1  6  0  0  0
 18 16  1  0  0  0  0
 18 15  1  0  0  0  0
 19 20  1  6  0  0  0
 19 15  1  0  0  0  0
 21 12  1  0  0  0  0
 22 12  1  0  0  0  0
 22 17  1  0  0  0  0
 23 24  1  0  0  0  0
 24 27  1  0  0  0  0
 25 26  2  0  0  0  0
 26 27  1  0  0  0  0
 27 29  1  6  0  0  0
 28 23  1  1  0  0  0
 28 25  1  0  0  0  0
M  END
>  <MODEL>
9

>  <REMARK>
 VINA RESULT:      -7.1      1.345      2.111
  Name = 
  2 active torsions:
  status: ('A' for Active; 'I' for Inactive)
    1  A    between atoms: C_12  and  C_27
    2  A    between atoms: C_16  and  C_21
                            x       y       z     vdW  Elec       q    Type
                         _______ _______ _______ _____ _____    ______ ____

>  <TORSDO>
F 2

$$$$
