=
 OpenBabel11072409133D

 39 43  0  0  1  0  0  0  0  0999 V2000
  189.5980  173.5450  141.3850 C   0  0  0  0  0  3  0  0  0  0  0  0
  185.7910  177.9620  145.1780 C   0  0  0  0  0  0  0  0  0  0  0  0
  191.0030  174.4470  143.1580 C   0  0  0  0  0  0  0  0  0  0  0  0
  191.9980  173.0980  141.3950 C   0  0  0  0  0  0  0  0  0  0  0  0
  187.5670  176.6320  144.5860 C   0  0  2  0  0  0  0  0  0  0  0  0
  191.9130  172.4260  140.3320 O   0  0  0  0  0  0  0  0  0  0  0  0
  186.4410  178.7160  144.3660 N   0  0  0  0  0  0  0  0  0  0  0  0
  192.2350  174.5730  143.7250 N   0  0  0  0  0  0  0  0  0  0  0  0
  188.7270  176.4810  145.4600 N   0  0  0  0  0  2  0  0  0  0  0  0
  189.9160  175.8380  144.9970 C   0  0  0  0  0  0  0  0  0  0  0  0
  187.6230  178.0130  143.8890 C   0  0  2  0  0  3  0  0  0  0  0  0
  190.8620  173.6900  141.9690 C   0  0  0  0  0  0  0  0  0  0  0  0
  186.3580  176.6840  145.3880 N   0  0  0  0  0  2  0  0  0  0  0  0
  187.4820  175.5450  143.6570 O   0  0  0  0  0  0  0  0  0  0  0  0
  188.4820  174.1550  141.9580 C   0  0  0  0  0  3  0  0  0  0  0  0
  193.3450  173.9960  143.1920 C   0  0  0  0  0  0  0  0  0  0  0  0
  190.9650  175.9080  145.6900 O   0  0  0  0  0  0  0  0  0  0  0  0
  189.8710  175.0680  143.7340 C   0  0  0  0  0  0  0  0  0  0  0  0
  188.6150  174.9250  143.1160 C   0  0  0  0  0  0  0  0  0  0  0  0
  193.2410  173.2590  142.0040 C   0  0  0  0  0  2  0  0  0  0  0  0
  188.9820  178.2810  141.8160 C   0  0  0  0  0  1  0  0  0  0  0  0
  187.6090  177.9440  142.3640 C   0  0  0  0  0  2  0  0  0  0  0  0
  184.5650  178.3750  145.7980 C   0  0  0  0  0  0  0  0  0  0  0  0
  183.5760  178.7120  146.2950 N   0  0  0  0  0  0  0  0  0  0  0  0
  194.6730  174.2240  143.8510 C   0  0  1  0  0  3  0  0  0  0  0  0
  195.7100  173.3600  143.3010 N   0  0  0  0  0  2  0  0  0  0  0  0
  196.7620  173.2540  144.2990 C   0  0  0  0  0  2  0  0  0  0  0  0
  196.2380  172.5390  145.5350 C   0  0  0  0  0  2  0  0  0  0  0  0
  196.1830  171.0330  145.3230 C   0  0  1  0  0  3  0  0  0  0  0  0
  197.1380  170.3960  146.1180 O   0  0  0  0  0  1  0  0  0  0  0  0
  194.8250  170.5240  145.6710 C   0  0  0  0  0  0  0  0  0  0  0  0
  194.6660  169.5780  146.6770 O   0  0  0  0  0  1  0  0  0  0  0  0
  193.8180  170.9590  145.0550 O   0  0  0  0  0  0  0  0  0  0  0  0
  195.0690  175.6330  143.7740 N   0  0  0  0  0  0  0  0  0  0  0  0
  194.1260  177.1070  145.4930 C   0  0  0  0  0  2  0  0  0  0  0  0
  194.6470  175.8700  146.1860 C   0  0  0  0  0  2  0  0  0  0  0  0
  195.3810  176.4220  144.9720 C   0  0  0  0  0  3  0  0  0  0  0  0
  195.4170  176.1390  142.5120 C   0  0  0  0  0  0  0  0  0  0  0  0
  195.7030  176.5560  141.4710 N   0  0  0  0  0  0  0  0  0  0  0  0
  1 15  2  0  0  0  0
  1 12  1  0  0  0  0
  2 13  1  0  0  0  0
  2 23  1  0  0  0  0
  3  8  1  0  0  0  0
  3 18  1  0  0  0  0
  4 12  1  0  0  0  0
  4 20  1  0  0  0  0
  5 14  1  6  0  0  0
  5 13  1  0  0  0  0
  5  9  1  0  0  0  0
  6  4  2  0  0  0  0
  7  2  2  0  0  0  0
 10  9  1  0  0  0  0
 10 17  2  0  0  0  0
 11 22  1  6  0  0  0
 11  7  1  0  0  0  0
 11  5  1  0  0  0  0
 12  3  2  0  0  0  0
 15 19  1  0  0  0  0
 16  8  2  0  0  0  0
 16 25  1  0  0  0  0
 18 10  1  0  0  0  0
 19 14  1  0  0  0  0
 19 18  2  0  0  0  0
 20 16  1  0  0  0  0
 21 22  1  0  0  0  0
 23 24  3  0  0  0  0
 25 26  1  6  0  0  0
 26 27  1  0  0  0  0
 27 28  1  0  0  0  0
 29 28  1  0  0  0  0
 29 31  1  0  0  0  0
 29 30  1  1  0  0  0
 31 32  1  0  0  0  0
 33 31  2  0  0  0  0
 34 25  1  0  0  0  0
 34 37  1  0  0  0  0
 35 36  1  0  0  0  0
 37 35  1  0  0  0  0
 37 36  1  0  0  0  0
 38 34  1  0  0  0  0
 39 38  3  0  0  0  0
M  END
>  <MODEL>
1

>  <REMARK>
 VINA RESULT:      -6.1      0.000      0.000
  Name = 
  11 active torsions:
  status: ('A' for Active; 'I' for Inactive)
    1  A    between atoms: N_1  and  C_10
    2  A    between atoms: N_1  and  C_22
    3  A    between atoms: C_4  and  C_14
    4  A    between atoms: C_8  and  C_20
    5  A    between atoms: C_8  and  C_36
    6  A    between atoms: C_10  and  C_36
    7  A    between atoms: C_17  and  C_31
    8  A    between atoms: C_22  and  N_24
    9  A    between atoms: C_22  and  C_29
   10  A    between atoms: N_24  and  C_27
   11  A    between atoms: N_24  and  C_37
                            x       y       z     vdW  Elec       q    Type
                         _______ _______ _______ _____ _____    ______ ____

>  <TORSDO>
F 11

$$$$
=
 OpenBabel11072409133D

 39 43  0  0  1  0  0  0  0  0999 V2000
  190.1990  172.7460  142.5050 C   0  0  0  0  0  3  0  0  0  0  0  0
  186.2230  178.3250  143.7130 C   0  0  0  0  0  0  0  0  0  0  0  0
  191.6160  174.5300  143.3650 C   0  0  0  0  0  0  0  0  0  0  0  0
  192.6270  172.4920  142.5070 C   0  0  0  0  0  0  0  0  0  0  0  0
  188.0800  176.9730  143.7470 C   0  0  2  0  0  0  0  0  0  0  0  0
  192.5430  171.3480  141.9830 O   0  0  0  0  0  0  0  0  0  0  0  0
  186.7480  178.5500  142.5620 N   0  0  0  0  0  0  0  0  0  0  0  0
  192.8630  175.0020  143.6470 N   0  0  0  0  0  0  0  0  0  0  0  0
  189.2990  177.3750  144.4420 N   0  0  0  0  0  2  0  0  0  0  0  0
  190.5140  176.6410  144.2750 C   0  0  0  0  0  0  0  0  0  0  0  0
  187.9610  177.7580  142.4180 C   0  0  2  0  0  3  0  0  0  0  0  0
  191.4760  173.2450  142.7880 C   0  0  0  0  0  0  0  0  0  0  0  0
  186.9210  177.3930  144.5150 N   0  0  0  0  0  2  0  0  0  0  0  0
  188.0420  175.5530  143.5570 O   0  0  0  0  0  0  0  0  0  0  0  0
  189.0670  173.5150  142.7730 C   0  0  0  0  0  3  0  0  0  0  0  0
  193.9880  174.2820  143.3960 C   0  0  0  0  0  0  0  0  0  0  0  0
  191.5910  177.1260  144.7120 O   0  0  0  0  0  0  0  0  0  0  0  0
  190.4660  175.3090  143.6320 C   0  0  0  0  0  0  0  0  0  0  0  0
  189.1950  174.7940  143.3190 C   0  0  0  0  0  0  0  0  0  0  0  0
  193.8830  173.0160  142.8040 C   0  0  0  0  0  2  0  0  0  0  0  0
  186.8230  177.4310  140.2240 C   0  0  0  0  0  1  0  0  0  0  0  0
  187.8620  176.8740  141.1770 C   0  0  0  0  0  2  0  0  0  0  0  0
  185.0030  178.9490  144.1380 C   0  0  0  0  0  0  0  0  0  0  0  0
  184.0160  179.4480  144.4790 N   0  0  0  0  0  0  0  0  0  0  0  0
  195.3250  174.8950  143.6910 C   0  0  1  0  0  3  0  0  0  0  0  0
  195.3970  176.2820  143.2510 N   0  0  0  0  0  2  0  0  0  0  0  0
  196.7640  176.5330  142.8230 C   0  0  0  0  0  2  0  0  0  0  0  0
  197.1900  175.4890  141.8020 C   0  0  0  0  0  2  0  0  0  0  0  0
  196.8280  175.9170  140.3870 C   0  0  1  0  0  3  0  0  0  0  0  0
  197.9360  175.7940  139.5450 O   0  0  0  0  0  1  0  0  0  0  0  0
  195.7150  175.0690  139.8730 C   0  0  0  0  0  0  0  0  0  0  0  0
  195.9870  173.8650  139.2330 O   0  0  0  0  0  0  0  0  0  0  0  0
  194.5230  175.4430  140.0250 O   0  0  0  0  0  1  0  0  0  0  0  0
  195.6610  174.7780  145.1130 N   0  0  0  0  0  0  0  0  0  0  0  0
  196.5610  172.6270  145.8730 C   0  0  0  0  0  2  0  0  0  0  0  0
  197.2730  172.9940  144.5930 C   0  0  0  0  0  2  0  0  0  0  0  0
  196.8700  174.0850  145.5740 C   0  0  0  0  0  3  0  0  0  0  0  0
  194.9480  175.5840  146.0150 C   0  0  0  0  0  0  0  0  0  0  0  0
  194.3610  176.2490  146.7570 N   0  0  0  0  0  0  0  0  0  0  0  0
  1 15  2  0  0  0  0
  1 12  1  0  0  0  0
  2 23  1  0  0  0  0
  2 13  1  0  0  0  0
  3 18  1  0  0  0  0
  3  8  1  0  0  0  0
  4 12  1  0  0  0  0
  4 20  1  0  0  0  0
  5 14  1  6  0  0  0
  5  9  1  0  0  0  0
  5 13  1  0  0  0  0
  6  4  2  0  0  0  0
  7  2  2  0  0  0  0
 10  9  1  0  0  0  0
 10 17  2  0  0  0  0
 11 22  1  6  0  0  0
 11  7  1  0  0  0  0
 11  5  1  0  0  0  0
 12  3  2  0  0  0  0
 15 19  1  0  0  0  0
 16  8  2  0  0  0  0
 16 25  1  0  0  0  0
 18 10  1  0  0  0  0
 19 14  1  0  0  0  0
 19 18  2  0  0  0  0
 20 16  1  0  0  0  0
 21 22  1  0  0  0  0
 23 24  3  0  0  0  0
 25 26  1  1  0  0  0
 25 34  1  0  0  0  0
 27 26  1  0  0  0  0
 28 27  1  0  0  0  0
 29 30  1  6  0  0  0
 29 28  1  0  0  0  0
 31 33  1  0  0  0  0
 31 29  1  0  0  0  0
 32 31  2  0  0  0  0
 34 37  1  0  0  0  0
 34 38  1  0  0  0  0
 36 37  1  0  0  0  0
 36 35  1  0  0  0  0
 37 35  1  0  0  0  0
 38 39  3  0  0  0  0
M  END
>  <MODEL>
2

>  <REMARK>
 VINA RESULT:      -6.1      2.061      3.551
  Name = 
  11 active torsions:
  status: ('A' for Active; 'I' for Inactive)
    1  A    between atoms: N_1  and  C_10
    2  A    between atoms: N_1  and  C_22
    3  A    between atoms: C_4  and  C_14
    4  A    between atoms: C_8  and  C_20
    5  A    between atoms: C_8  and  C_36
    6  A    between atoms: C_10  and  C_36
    7  A    between atoms: C_17  and  C_31
    8  A    between atoms: C_22  and  N_24
    9  A    between atoms: C_22  and  C_29
   10  A    between atoms: N_24  and  C_27
   11  A    between atoms: N_24  and  C_37
                            x       y       z     vdW  Elec       q    Type
                         _______ _______ _______ _____ _____    ______ ____

>  <TORSDO>
F 11

$$$$
=
 OpenBabel11072409133D

 39 43  0  0  1  0  0  0  0  0999 V2000
  189.4460  173.7360  140.8400 C   0  0  0  0  0  3  0  0  0  0  0  0
  185.8920  177.8230  145.2040 C   0  0  0  0  0  0  0  0  0  0  0  0
  190.8940  174.3050  142.7130 C   0  0  0  0  0  0  0  0  0  0  0  0
  191.8150  173.1480  140.7830 C   0  0  0  0  0  0  0  0  0  0  0  0
  187.5880  176.4800  144.4330 C   0  0  2  0  0  0  0  0  0  0  0  0
  191.6960  172.6310  139.6390 O   0  0  0  0  0  0  0  0  0  0  0  0
  186.5900  178.6400  144.4990 N   0  0  0  0  0  0  0  0  0  0  0  0
  192.1290  174.2800  143.2880 N   0  0  0  0  0  0  0  0  0  0  0  0
  188.7330  176.1450  145.2760 N   0  0  0  0  0  2  0  0  0  0  0  0
  189.8830  175.4990  144.7260 C   0  0  0  0  0  0  0  0  0  0  0  0
  187.7300  177.9370  143.9280 C   0  0  2  0  0  3  0  0  0  0  0  0
  190.7130  173.7240  141.4350 C   0  0  0  0  0  0  0  0  0  0  0  0
  186.3810  176.4980  145.2390 N   0  0  0  0  0  2  0  0  0  0  0  0
  187.4430  175.5360  143.3660 O   0  0  0  0  0  0  0  0  0  0  0  0
  188.3660  174.3290  141.4930 C   0  0  0  0  0  3  0  0  0  0  0  0
  193.2040  173.7140  142.6790 C   0  0  0  0  0  0  0  0  0  0  0  0
  190.9310  175.4130  145.4190 O   0  0  0  0  0  0  0  0  0  0  0  0
  189.7980  174.9100  143.3710 C   0  0  0  0  0  0  0  0  0  0  0  0
  188.5390  174.9270  142.7430 C   0  0  0  0  0  0  0  0  0  0  0  0
  193.0620  173.1510  141.4030 C   0  0  0  0  0  2  0  0  0  0  0  0
  189.1300  178.2950  141.8960 C   0  0  0  0  0  1  0  0  0  0  0  0
  187.7200  178.0740  142.4080 C   0  0  0  0  0  2  0  0  0  0  0  0
  184.6900  178.2230  145.8780 C   0  0  0  0  0  0  0  0  0  0  0  0
  183.7230  178.5480  146.4240 N   0  0  0  0  0  0  0  0  0  0  0  0
  194.5400  173.7710  143.3600 C   0  0  1  0  0  3  0  0  0  0  0  0
  194.4680  174.4620  144.6410 N   0  0  0  0  0  2  0  0  0  0  0  0
  195.6600  175.2880  144.7570 C   0  0  0  0  0  2  0  0  0  0  0  0
  195.5110  176.5380  143.9020 C   0  0  0  0  0  2  0  0  0  0  0  0
  196.6830  176.6990  142.9450 C   0  0  1  0  0  3  0  0  0  0  0  0
  197.6870  175.7770  143.2500 O   0  0  0  0  0  1  0  0  0  0  0  0
  196.2210  176.4860  141.5430 C   0  0  0  0  0  0  0  0  0  0  0  0
  194.8870  176.6840  141.2060 O   0  0  0  0  0  1  0  0  0  0  0  0
  197.0450  176.1320  140.6600 O   0  0  0  0  0  0  0  0  0  0  0  0
  195.1150  172.4320  143.5170 N   0  0  0  0  0  0  0  0  0  0  0  0
  196.3900  171.2720  141.7720 C   0  0  0  0  0  2  0  0  0  0  0  0
  196.7320  172.7410  141.6890 C   0  0  0  0  0  2  0  0  0  0  0  0
  196.4650  172.1030  143.0440 C   0  0  0  0  0  3  0  0  0  0  0  0
  194.4560  171.5430  144.3800 C   0  0  0  0  0  0  0  0  0  0  0  0
  193.9120  170.8090  145.0910 N   0  0  0  0  0  0  0  0  0  0  0  0
  1 12  2  0  0  0  0
  1 15  1  0  0  0  0
  2 13  1  0  0  0  0
  2 23  1  0  0  0  0
  3  8  1  0  0  0  0
  3 18  2  0  0  0  0
  4 20  1  0  0  0  0
  4 12  1  0  0  0  0
  5 14  1  6  0  0  0
  5 13  1  0  0  0  0
  5  9  1  0  0  0  0
  6  4  2  0  0  0  0
  7  2  2  0  0  0  0
 10  9  1  0  0  0  0
 10 17  2  0  0  0  0
 11 22  1  6  0  0  0
 11  5  1  0  0  0  0
 11  7  1  0  0  0  0
 12  3  1  0  0  0  0
 15 19  2  0  0  0  0
 16  8  2  0  0  0  0
 16 25  1  0  0  0  0
 18 10  1  0  0  0  0
 19 14  1  0  0  0  0
 19 18  1  0  0  0  0
 20 16  1  0  0  0  0
 21 22  1  0  0  0  0
 23 24  3  0  0  0  0
 25 34  1  0  0  0  0
 25 26  1  1  0  0  0
 26 27  1  0  0  0  0
 28 27  1  0  0  0  0
 29 30  1  1  0  0  0
 29 28  1  0  0  0  0
 31 29  1  0  0  0  0
 32 31  1  0  0  0  0
 33 31  2  0  0  0  0
 34 38  1  0  0  0  0
 35 37  1  0  0  0  0
 36 35  1  0  0  0  0
 36 37  1  0  0  0  0
 37 34  1  0  0  0  0
 38 39  3  0  0  0  0
M  END
>  <MODEL>
3

>  <REMARK>
 VINA RESULT:      -5.8      2.067      3.572
  Name = 
  11 active torsions:
  status: ('A' for Active; 'I' for Inactive)
    1  A    between atoms: N_1  and  C_10
    2  A    between atoms: N_1  and  C_22
    3  A    between atoms: C_4  and  C_14
    4  A    between atoms: C_8  and  C_20
    5  A    between atoms: C_8  and  C_36
    6  A    between atoms: C_10  and  C_36
    7  A    between atoms: C_17  and  C_31
    8  A    between atoms: C_22  and  N_24
    9  A    between atoms: C_22  and  C_29
   10  A    between atoms: N_24  and  C_27
   11  A    between atoms: N_24  and  C_37
                            x       y       z     vdW  Elec       q    Type
                         _______ _______ _______ _____ _____    ______ ____

>  <TORSDO>
F 11

$$$$
=
 OpenBabel11072409133D

 39 43  0  0  1  0  0  0  0  0999 V2000
  191.9500  177.9060  144.1020 C   0  0  0  0  0  3  0  0  0  0  0  0
  185.4330  177.6520  141.6830 C   0  0  0  0  0  0  0  0  0  0  0  0
  191.5100  175.6450  143.3100 C   0  0  0  0  0  0  0  0  0  0  0  0
  193.5600  176.1210  144.5290 C   0  0  0  0  0  0  0  0  0  0  0  0
  187.5890  176.9770  142.0970 C   0  0  2  0  0  0  0  0  0  0  0  0
  194.3250  176.9100  145.1470 O   0  0  0  0  0  0  0  0  0  0  0  0
  185.3490  177.1810  142.8760 N   0  0  0  0  0  0  0  0  0  0  0  0
  191.9090  174.3480  143.1920 N   0  0  0  0  0  0  0  0  0  0  0  0
  188.1020  175.7130  141.5770 N   0  0  0  0  0  2  0  0  0  0  0  0
  189.3590  175.1950  142.0170 C   0  0  0  0  0  0  0  0  0  0  0  0
  186.6560  176.6980  143.3000 C   0  0  2  0  0  3  0  0  0  0  0  0
  192.3450  176.5680  143.9850 C   0  0  0  0  0  0  0  0  0  0  0  0
  186.7230  177.5940  141.1090 N   0  0  0  0  0  2  0  0  0  0  0  0
  188.6610  177.8700  142.4240 O   0  0  0  0  0  0  0  0  0  0  0  0
  190.7310  178.3290  143.5720 C   0  0  0  0  0  3  0  0  0  0  0  0
  193.0870  173.8990  143.6990 C   0  0  0  0  0  0  0  0  0  0  0  0
  189.6780  174.0150  141.7180 O   0  0  0  0  0  0  0  0  0  0  0  0
  190.2730  176.0770  142.7770 C   0  0  0  0  0  0  0  0  0  0  0  0
  189.8890  177.4220  142.9270 C   0  0  0  0  0  0  0  0  0  0  0  0
  193.9250  174.7830  144.3930 C   0  0  0  0  0  2  0  0  0  0  0  0
  187.6610  176.3870  145.5600 C   0  0  0  0  0  1  0  0  0  0  0  0
  187.0750  177.3960  144.5920 C   0  0  0  0  0  2  0  0  0  0  0  0
  184.3070  178.2210  141.0000 C   0  0  0  0  0  0  0  0  0  0  0  0
  183.3970  178.6760  140.4490 N   0  0  0  0  0  0  0  0  0  0  0  0
  193.4290  172.4440  143.5680 C   0  0  1  0  0  3  0  0  0  0  0  0
  192.7700  171.8310  142.4220 N   0  0  0  0  0  2  0  0  0  0  0  0
  191.8430  170.8340  142.9350 C   0  0  0  0  0  2  0  0  0  0  0  0
  190.6900  170.6450  141.9600 C   0  0  0  0  0  2  0  0  0  0  0  0
  191.1890  170.2190  140.5870 C   0  0  1  0  0  3  0  0  0  0  0  0
  190.6530  168.9760  140.2410 O   0  0  0  0  0  1  0  0  0  0  0  0
  190.7910  171.2330  139.5690 C   0  0  0  0  0  0  0  0  0  0  0  0
  189.4570  171.5920  139.4200 O   0  0  0  0  0  1  0  0  0  0  0  0
  191.6700  171.7720  138.8480 O   0  0  0  0  0  0  0  0  0  0  0  0
  194.8800  172.2420  143.5090 N   0  0  0  0  0  0  0  0  0  0  0  0
  196.0250  172.0820  145.6710 C   0  0  0  0  0  2  0  0  0  0  0  0
  194.8100  171.1880  145.7300 C   0  0  0  0  0  2  0  0  0  0  0  0
  195.5780  171.3330  144.4250 C   0  0  0  0  0  3  0  0  0  0  0  0
  195.5540  172.7230  142.3750 C   0  0  0  0  0  0  0  0  0  0  0  0
  196.1100  173.1180  141.4400 N   0  0  0  0  0  0  0  0  0  0  0  0
  2  7  2  0  0  0  0
  3 12  2  0  0  0  0
  4  6  2  0  0  0  0
  5 13  1  6  0  0  0
  5 14  1  0  0  0  0
  5 11  1  0  0  0  0
  7 11  1  0  0  0  0
  8  3  1  0  0  0  0
  8 16  2  0  0  0  0
  9 10  1  0  0  0  0
  9  5  1  0  0  0  0
 10 18  1  0  0  0  0
 11 22  1  1  0  0  0
 12  1  1  0  0  0  0
 12  4  1  0  0  0  0
 13  2  1  0  0  0  0
 14 19  1  0  0  0  0
 15  1  2  0  0  0  0
 16 20  1  0  0  0  0
 17 10  2  0  0  0  0
 18 19  2  0  0  0  0
 18  3  1  0  0  0  0
 19 15  1  0  0  0  0
 20  4  1  0  0  0  0
 22 21  1  0  0  0  0
 23  2  1  0  0  0  0
 24 23  3  0  0  0  0
 25 26  1  6  0  0  0
 25 16  1  0  0  0  0
 26 27  1  0  0  0  0
 28 27  1  0  0  0  0
 29 30  1  6  0  0  0
 29 28  1  0  0  0  0
 31 29  1  0  0  0  0
 32 31  1  0  0  0  0
 33 31  2  0  0  0  0
 34 25  1  0  0  0  0
 34 37  1  0  0  0  0
 35 36  1  0  0  0  0
 37 35  1  0  0  0  0
 37 36  1  0  0  0  0
 38 34  1  0  0  0  0
 39 38  3  0  0  0  0
M  END
>  <MODEL>
4

>  <REMARK>
 VINA RESULT:      -5.8      2.826      4.706
  Name = 
  11 active torsions:
  status: ('A' for Active; 'I' for Inactive)
    1  A    between atoms: N_1  and  C_10
    2  A    between atoms: N_1  and  C_22
    3  A    between atoms: C_4  and  C_14
    4  A    between atoms: C_8  and  C_20
    5  A    between atoms: C_8  and  C_36
    6  A    between atoms: C_10  and  C_36
    7  A    between atoms: C_17  and  C_31
    8  A    between atoms: C_22  and  N_24
    9  A    between atoms: C_22  and  C_29
   10  A    between atoms: N_24  and  C_27
   11  A    between atoms: N_24  and  C_37
                            x       y       z     vdW  Elec       q    Type
                         _______ _______ _______ _____ _____    ______ ____

>  <TORSDO>
F 11

$$$$
=
 OpenBabel11072409133D

 39 43  0  0  1  0  0  0  0  0999 V2000
  191.9490  177.8850  144.3450 C   0  0  0  0  0  3  0  0  0  0  0  0
  185.4260  177.5740  141.9510 C   0  0  0  0  0  0  0  0  0  0  0  0
  191.6700  175.7850  143.1430 C   0  0  0  0  0  0  0  0  0  0  0  0
  193.7000  176.1840  144.4210 C   0  0  0  0  0  0  0  0  0  0  0  0
  187.6350  177.0060  142.2210 C   0  0  2  0  0  0  0  0  0  0  0  0
  194.4140  176.9020  145.1730 O   0  0  0  0  0  0  0  0  0  0  0  0
  185.4020  176.8830  143.0340 N   0  0  0  0  0  0  0  0  0  0  0  0
  192.1640  174.5680  142.7810 N   0  0  0  0  0  0  0  0  0  0  0  0
  188.2340  175.9070  141.4700 N   0  0  0  0  0  2  0  0  0  0  0  0
  189.5350  175.4170  141.7990 C   0  0  0  0  0  0  0  0  0  0  0  0
  186.7490  176.4330  143.3540 C   0  0  2  0  0  3  0  0  0  0  0  0
  192.4440  176.6280  143.9760 C   0  0  0  0  0  0  0  0  0  0  0  0
  186.7050  177.7270  141.3700 N   0  0  0  0  0  2  0  0  0  0  0  0
  188.6410  177.9040  142.7050 O   0  0  0  0  0  0  0  0  0  0  0  0
  190.6920  178.3020  143.9100 C   0  0  0  0  0  3  0  0  0  0  0  0
  193.3840  174.1270  143.1900 C   0  0  0  0  0  0  0  0  0  0  0  0
  189.9370  174.3420  141.2810 O   0  0  0  0  0  0  0  0  0  0  0  0
  190.3930  176.2100  142.7070 C   0  0  0  0  0  0  0  0  0  0  0  0
  189.9090  177.4680  143.1090 C   0  0  0  0  0  0  0  0  0  0  0  0
  194.1640  174.9290  144.0340 C   0  0  0  0  0  2  0  0  0  0  0  0
  186.1850  177.9910  145.2170 C   0  0  0  0  0  1  0  0  0  0  0  0
  187.1390  176.9080  144.7520 C   0  0  0  0  0  2  0  0  0  0  0  0
  184.2460  178.1700  141.3920 C   0  0  0  0  0  0  0  0  0  0  0  0
  183.2980  178.6540  140.9390 N   0  0  0  0  0  0  0  0  0  0  0  0
  193.8340  172.7540  142.7860 C   0  0  1  0  0  3  0  0  0  0  0  0
  195.2850  172.6670  142.6780 N   0  0  0  0  0  2  0  0  0  0  0  0
  195.6480  173.1070  141.3400 C   0  0  0  0  0  2  0  0  0  0  0  0
  196.9040  173.9640  141.3980 C   0  0  0  0  0  2  0  0  0  0  0  0
  196.7360  175.2480  140.5980 C   0  0  1  0  0  3  0  0  0  0  0  0
  195.9210  175.0240  139.4860 O   0  0  0  0  0  1  0  0  0  0  0  0
  196.1250  176.3020  141.4590 C   0  0  0  0  0  0  0  0  0  0  0  0
  196.8070  176.7840  142.5700 O   0  0  0  0  0  1  0  0  0  0  0  0
  194.9890  176.7620  141.1720 O   0  0  0  0  0  0  0  0  0  0  0  0
  193.3140  171.7340  143.7010 N   0  0  0  0  0  0  0  0  0  0  0  0
  190.9510  171.3390  143.1740 C   0  0  0  0  0  2  0  0  0  0  0  0
  191.7490  171.0900  141.9160 C   0  0  0  0  0  2  0  0  0  0  0  0
  192.3390  170.7240  143.2690 C   0  0  0  0  0  3  0  0  0  0  0  0
  193.9760  171.5660  144.9270 C   0  0  0  0  0  0  0  0  0  0  0  0
  194.5220  171.4280  145.9380 N   0  0  0  0  0  0  0  0  0  0  0  0
  2  7  2  0  0  0  0
  3 12  2  0  0  0  0
  4  6  2  0  0  0  0
  5 13  1  6  0  0  0
  5 14  1  0  0  0  0
  5 11  1  0  0  0  0
  7 11  1  0  0  0  0
  8  3  1  0  0  0  0
  8 16  2  0  0  0  0
  9 10  1  0  0  0  0
  9  5  1  0  0  0  0
 10 18  1  0  0  0  0
 11 22  1  1  0  0  0
 12  1  1  0  0  0  0
 12  4  1  0  0  0  0
 13  2  1  0  0  0  0
 14 19  1  0  0  0  0
 15  1  2  0  0  0  0
 16 20  1  0  0  0  0
 17 10  2  0  0  0  0
 18 19  2  0  0  0  0
 18  3  1  0  0  0  0
 19 15  1  0  0  0  0
 20  4  1  0  0  0  0
 22 21  1  0  0  0  0
 23  2  1  0  0  0  0
 24 23  3  0  0  0  0
 25 26  1  1  0  0  0
 25 16  1  0  0  0  0
 25 34  1  0  0  0  0
 27 28  1  0  0  0  0
 27 26  1  0  0  0  0
 29 30  1  6  0  0  0
 29 28  1  0  0  0  0
 29 31  1  0  0  0  0
 31 32  1  0  0  0  0
 33 31  2  0  0  0  0
 34 38  1  0  0  0  0
 35 37  1  0  0  0  0
 36 35  1  0  0  0  0
 36 37  1  0  0  0  0
 37 34  1  0  0  0  0
 38 39  3  0  0  0  0
M  END
>  <MODEL>
5

>  <REMARK>
 VINA RESULT:      -5.7      2.873      4.802
  Name = 
  11 active torsions:
  status: ('A' for Active; 'I' for Inactive)
    1  A    between atoms: N_1  and  C_10
    2  A    between atoms: N_1  and  C_22
    3  A    between atoms: C_4  and  C_14
    4  A    between atoms: C_8  and  C_20
    5  A    between atoms: C_8  and  C_36
    6  A    between atoms: C_10  and  C_36
    7  A    between atoms: C_17  and  C_31
    8  A    between atoms: C_22  and  N_24
    9  A    between atoms: C_22  and  C_29
   10  A    between atoms: N_24  and  C_27
   11  A    between atoms: N_24  and  C_37
                            x       y       z     vdW  Elec       q    Type
                         _______ _______ _______ _____ _____    ______ ____

>  <TORSDO>
F 11

$$$$
=
 OpenBabel11072409133D

 39 43  0  0  1  0  0  0  0  0999 V2000
  190.4820  171.9850  142.7840 C   0  0  0  0  0  3  0  0  0  0  0  0
  187.7400  177.1540  146.5450 C   0  0  0  0  0  0  0  0  0  0  0  0
  192.2180  172.8870  144.2340 C   0  0  0  0  0  0  0  0  0  0  0  0
  192.8000  171.2690  142.5150 C   0  0  0  0  0  0  0  0  0  0  0  0
  189.2670  175.5780  145.8680 C   0  0  2  0  0  0  0  0  0  0  0  0
  192.4920  170.5110  141.5550 O   0  0  0  0  0  0  0  0  0  0  0  0
  188.3330  177.7470  145.5720 N   0  0  0  0  0  0  0  0  0  0  0  0
  193.5270  172.9250  144.6090 N   0  0  0  0  0  0  0  0  0  0  0  0
  190.5230  175.3810  146.5850 N   0  0  0  0  0  2  0  0  0  0  0  0
  191.5600  174.5640  146.0380 C   0  0  0  0  0  0  0  0  0  0  0  0
  189.3560  176.8700  145.0190 C   0  0  2  0  0  3  0  0  0  0  0  0
  191.8260  172.0400  143.1700 C   0  0  0  0  0  0  0  0  0  0  0  0
  188.2020  175.8470  146.8170 N   0  0  0  0  0  2  0  0  0  0  0  0
  188.9370  174.4240  145.0860 O   0  0  0  0  0  0  0  0  0  0  0  0
  189.5300  172.7710  143.4330 C   0  0  0  0  0  3  0  0  0  0  0  0
  194.4820  172.1760  143.9970 C   0  0  0  0  0  0  0  0  0  0  0  0
  192.7020  174.5810  146.5680 O   0  0  0  0  0  0  0  0  0  0  0  0
  191.2510  173.6860  144.8870 C   0  0  0  0  0  0  0  0  0  0  0  0
  189.9100  173.6290  144.4680 C   0  0  0  0  0  0  0  0  0  0  0  0
  194.1300  171.3450  142.9250 C   0  0  0  0  0  2  0  0  0  0  0  0
  190.4070  176.8000  142.7600 C   0  0  0  0  0  1  0  0  0  0  0  0
  189.1080  176.6560  143.5280 C   0  0  0  0  0  2  0  0  0  0  0  0
  186.6660  177.7640  147.2770 C   0  0  0  0  0  0  0  0  0  0  0  0
  185.8000  178.2570  147.8640 N   0  0  0  0  0  0  0  0  0  0  0  0
  195.9090  172.3130  144.4390 C   0  0  1  0  0  3  0  0  0  0  0  0
  196.0450  173.2360  145.5590 N   0  0  0  0  0  2  0  0  0  0  0  0
  197.1160  174.1640  145.2300 C   0  0  0  0  0  2  0  0  0  0  0  0
  196.9070  174.7240  143.8310 C   0  0  0  0  0  2  0  0  0  0  0  0
  196.5280  176.1970  143.8730 C   0  0  1  0  0  3  0  0  0  0  0  0
  196.7040  176.7800  142.6160 O   0  0  0  0  0  1  0  0  0  0  0  0
  195.1040  176.3390  144.2930 C   0  0  0  0  0  0  0  0  0  0  0  0
  194.7890  176.8160  145.5600 O   0  0  0  0  0  1  0  0  0  0  0  0
  194.1830  176.0310  143.4920 O   0  0  0  0  0  0  0  0  0  0  0  0
  196.4940  171.0090  144.7590 N   0  0  0  0  0  0  0  0  0  0  0  0
  197.5910  169.5830  143.0920 C   0  0  0  0  0  2  0  0  0  0  0  0
  197.9410  171.0160  142.7700 C   0  0  0  0  0  2  0  0  0  0  0  0
  197.7920  170.5830  144.2210 C   0  0  0  0  0  3  0  0  0  0  0  0
  195.9210  170.2850  145.8170 C   0  0  0  0  0  0  0  0  0  0  0  0
  195.4490  169.6890  146.6890 N   0  0  0  0  0  0  0  0  0  0  0  0
  1 12  2  0  0  0  0
  1 15  1  0  0  0  0
  2 13  1  0  0  0  0
  2 23  1  0  0  0  0
  3  8  1  0  0  0  0
  3 18  2  0  0  0  0
  4 20  1  0  0  0  0
  4 12  1  0  0  0  0
  5 14  1  6  0  0  0
  5  9  1  0  0  0  0
  5 13  1  0  0  0  0
  6  4  2  0  0  0  0
  7  2  2  0  0  0  0
 10 17  2  0  0  0  0
 10  9  1  0  0  0  0
 11 22  1  6  0  0  0
 11  7  1  0  0  0  0
 11  5  1  0  0  0  0
 12  3  1  0  0  0  0
 15 19  2  0  0  0  0
 16 25  1  0  0  0  0
 16  8  2  0  0  0  0
 18 10  1  0  0  0  0
 19 18  1  0  0  0  0
 19 14  1  0  0  0  0
 20 16  1  0  0  0  0
 21 22  1  0  0  0  0
 23 24  3  0  0  0  0
 25 34  1  0  0  0  0
 25 26  1  1  0  0  0
 27 26  1  0  0  0  0
 28 29  1  0  0  0  0
 28 27  1  0  0  0  0
 29 30  1  6  0  0  0
 29 31  1  0  0  0  0
 31 32  1  0  0  0  0
 33 31  2  0  0  0  0
 34 38  1  0  0  0  0
 35 37  1  0  0  0  0
 36 35  1  0  0  0  0
 36 37  1  0  0  0  0
 37 34  1  0  0  0  0
 38 39  3  0  0  0  0
M  END
>  <MODEL>
6

>  <REMARK>
 VINA RESULT:      -5.6      2.544      4.113
  Name = 
  11 active torsions:
  status: ('A' for Active; 'I' for Inactive)
    1  A    between atoms: N_1  and  C_10
    2  A    between atoms: N_1  and  C_22
    3  A    between atoms: C_4  and  C_14
    4  A    between atoms: C_8  and  C_20
    5  A    between atoms: C_8  and  C_36
    6  A    between atoms: C_10  and  C_36
    7  A    between atoms: C_17  and  C_31
    8  A    between atoms: C_22  and  N_24
    9  A    between atoms: C_22  and  C_29
   10  A    between atoms: N_24  and  C_27
   11  A    between atoms: N_24  and  C_37
                            x       y       z     vdW  Elec       q    Type
                         _______ _______ _______ _____ _____    ______ ____

>  <TORSDO>
F 11

$$$$
=
 OpenBabel11072409133D

 39 43  0  0  1  0  0  0  0  0999 V2000
  192.7090  176.9500  143.5880 C   0  0  0  0  0  3  0  0  0  0  0  0
  186.3160  177.6300  146.2430 C   0  0  0  0  0  0  0  0  0  0  0  0
  191.2120  175.4560  142.3810 C   0  0  0  0  0  0  0  0  0  0  0  0
  193.6100  175.3260  142.0030 C   0  0  0  0  0  0  0  0  0  0  0  0
  187.9710  176.9780  144.7900 C   0  0  2  0  0  0  0  0  0  0  0  0
  194.7910  175.7020  142.2350 O   0  0  0  0  0  0  0  0  0  0  0  0
  186.7920  176.5850  146.8190 N   0  0  0  0  0  0  0  0  0  0  0  0
  191.0370  174.4580  141.4710 N   0  0  0  0  0  0  0  0  0  0  0  0
  187.6620  176.2330  143.5730 N   0  0  0  0  0  2  0  0  0  0  0  0
  188.7020  175.6410  142.7920 C   0  0  0  0  0  0  0  0  0  0  0  0
  187.8710  176.0330  146.0120 C   0  0  2  0  0  3  0  0  0  0  0  0
  192.5200  175.9180  142.6610 C   0  0  0  0  0  0  0  0  0  0  0  0
  186.9420  177.9750  145.0240 N   0  0  0  0  0  2  0  0  0  0  0  0
  189.2480  177.6190  144.6890 O   0  0  0  0  0  0  0  0  0  0  0  0
  191.6170  177.5140  144.2460 C   0  0  0  0  0  3  0  0  0  0  0  0
  192.0780  173.8820  140.8130 C   0  0  0  0  0  0  0  0  0  0  0  0
  188.4000  174.8340  141.8740 O   0  0  0  0  0  0  0  0  0  0  0  0
  190.1060  176.0270  143.0540 C   0  0  0  0  0  0  0  0  0  0  0  0
  190.3250  177.0500  143.9960 C   0  0  0  0  0  0  0  0  0  0  0  0
  193.3880  174.3020  141.0850 C   0  0  0  0  0  2  0  0  0  0  0  0
  189.3300  174.5370  147.3700 C   0  0  0  0  0  1  0  0  0  0  0  0
  189.1500  175.9460  146.8410 C   0  0  0  0  0  2  0  0  0  0  0  0
  185.2510  178.4060  146.8130 C   0  0  0  0  0  0  0  0  0  0  0  0
  184.3930  179.0330  147.2680 N   0  0  0  0  0  0  0  0  0  0  0  0
  191.8040  172.7550  139.8610 C   0  0  1  0  0  3  0  0  0  0  0  0
  190.9660  171.7270  140.4640 N   0  0  0  0  0  2  0  0  0  0  0  0
  191.7860  171.0030  141.4220 C   0  0  0  0  0  2  0  0  0  0  0  0
  191.0270  170.8270  142.7290 C   0  0  0  0  0  2  0  0  0  0  0  0
  191.8780  171.2300  143.9240 C   0  0  1  0  0  3  0  0  0  0  0  0
  193.2070  171.4120  143.5340 O   0  0  0  0  0  1  0  0  0  0  0  0
  191.3540  172.4950  144.5130 C   0  0  0  0  0  0  0  0  0  0  0  0
  189.9860  172.7420  144.5440 O   0  0  0  0  0  0  0  0  0  0  0  0
  192.1540  173.3410  144.9910 O   0  0  0  0  0  1  0  0  0  0  0  0
  191.2160  173.2460  138.6120 N   0  0  0  0  0  0  0  0  0  0  0  0
  192.8680  174.4160  137.2270 C   0  0  0  0  0  2  0  0  0  0  0  0
  193.4430  173.0660  137.5820 C   0  0  0  0  0  2  0  0  0  0  0  0
  191.9480  173.2100  137.3400 C   0  0  0  0  0  3  0  0  0  0  0  0
  189.8350  173.4940  138.6000 C   0  0  0  0  0  0  0  0  0  0  0  0
  188.6960  173.6990  138.5920 N   0  0  0  0  0  0  0  0  0  0  0  0
  1 15  1  0  0  0  0
  2 23  1  0  0  0  0
  2  7  2  0  0  0  0
  3 12  1  0  0  0  0
  3 18  2  0  0  0  0
  4  6  2  0  0  0  0
  4 12  1  0  0  0  0
  5  9  1  6  0  0  0
  5 13  1  0  0  0  0
  5 11  1  0  0  0  0
  8  3  1  0  0  0  0
 10 18  1  0  0  0  0
 10  9  1  0  0  0  0
 11  7  1  0  0  0  0
 11 22  1  1  0  0  0
 12  1  2  0  0  0  0
 13  2  1  0  0  0  0
 14  5  1  0  0  0  0
 16 20  1  0  0  0  0
 16  8  2  0  0  0  0
 17 10  2  0  0  0  0
 18 19  1  0  0  0  0
 19 15  2  0  0  0  0
 19 14  1  0  0  0  0
 20  4  1  0  0  0  0
 22 21  1  0  0  0  0
 23 24  3  0  0  0  0
 25 26  1  1  0  0  0
 25 16  1  0  0  0  0
 26 27  1  0  0  0  0
 27 28  1  0  0  0  0
 28 29  1  0  0  0  0
 29 30  1  6  0  0  0
 29 31  1  0  0  0  0
 31 32  2  0  0  0  0
 31 33  1  0  0  0  0
 34 25  1  0  0  0  0
 35 37  1  0  0  0  0
 35 36  1  0  0  0  0
 37 36  1  0  0  0  0
 37 34  1  0  0  0  0
 38 34  1  0  0  0  0
 39 38  3  0  0  0  0
M  END
>  <MODEL>
7

>  <REMARK>
 VINA RESULT:      -5.6      2.841      4.821
  Name = 
  11 active torsions:
  status: ('A' for Active; 'I' for Inactive)
    1  A    between atoms: N_1  and  C_10
    2  A    between atoms: N_1  and  C_22
    3  A    between atoms: C_4  and  C_14
    4  A    between atoms: C_8  and  C_20
    5  A    between atoms: C_8  and  C_36
    6  A    between atoms: C_10  and  C_36
    7  A    between atoms: C_17  and  C_31
    8  A    between atoms: C_22  and  N_24
    9  A    between atoms: C_22  and  C_29
   10  A    between atoms: N_24  and  C_27
   11  A    between atoms: N_24  and  C_37
                            x       y       z     vdW  Elec       q    Type
                         _______ _______ _______ _____ _____    ______ ____

>  <TORSDO>
F 11

$$$$
=
 OpenBabel11072409133D

 39 43  0  0  1  0  0  0  0  0999 V2000
  192.1230  177.8830  144.2800 C   0  0  0  0  0  3  0  0  0  0  0  0
  185.6560  177.6010  141.7330 C   0  0  0  0  0  0  0  0  0  0  0  0
  191.7500  175.6540  143.3720 C   0  0  0  0  0  0  0  0  0  0  0  0
  193.7670  176.1160  144.6500 C   0  0  0  0  0  0  0  0  0  0  0  0
  187.8200  176.9560  142.1540 C   0  0  2  0  0  0  0  0  0  0  0  0
  194.5030  176.8910  145.3190 O   0  0  0  0  0  0  0  0  0  0  0  0
  185.5630  177.0720  142.9010 N   0  0  0  0  0  0  0  0  0  0  0  0
  192.1800  174.3730  143.1990 N   0  0  0  0  0  0  0  0  0  0  0  0
  188.3710  175.7300  141.5830 N   0  0  0  0  0  2  0  0  0  0  0  0
  189.6320  175.2200  142.0210 C   0  0  0  0  0  0  0  0  0  0  0  0
  186.8730  176.5980  143.3250 C   0  0  2  0  0  3  0  0  0  0  0  0
  192.5520  176.5620  144.1060 C   0  0  0  0  0  0  0  0  0  0  0  0
  186.9570  177.6010  141.1810 N   0  0  0  0  0  2  0  0  0  0  0  0
  188.8650  177.8550  142.5420 O   0  0  0  0  0  0  0  0  0  0  0  0
  190.9040  178.3040  143.7490 C   0  0  0  0  0  3  0  0  0  0  0  0
  193.3600  173.9270  143.7060 C   0  0  0  0  0  0  0  0  0  0  0  0
  189.9830  174.0620  141.6710 O   0  0  0  0  0  0  0  0  0  0  0  0
  190.5120  176.0840  142.8390 C   0  0  0  0  0  0  0  0  0  0  0  0
  190.0950  177.4110  143.0450 C   0  0  0  0  0  0  0  0  0  0  0  0
  194.1650  174.7950  144.4560 C   0  0  0  0  0  2  0  0  0  0  0  0
  186.2340  178.2980  145.0330 C   0  0  0  0  0  1  0  0  0  0  0  0
  187.2540  177.2420  144.6560 C   0  0  0  0  0  2  0  0  0  0  0  0
  184.5290  178.1780  141.0580 C   0  0  0  0  0  0  0  0  0  0  0  0
  183.6180  178.6400  140.5160 N   0  0  0  0  0  0  0  0  0  0  0  0
  193.7380  172.4880  143.5120 C   0  0  1  0  0  3  0  0  0  0  0  0
  192.7690  171.5850  144.1200 N   0  0  0  0  0  2  0  0  0  0  0  0
  193.5120  170.4780  144.7020 C   0  0  0  0  0  2  0  0  0  0  0  0
  194.5660  171.0080  145.6630 C   0  0  0  0  0  2  0  0  0  0  0  0
  195.7770  170.0880  145.7190 C   0  0  1  0  0  3  0  0  0  0  0  0
  196.9560  170.8350  145.6700 O   0  0  0  0  0  1  0  0  0  0  0  0
  195.7450  169.2900  146.9790 C   0  0  0  0  0  0  0  0  0  0  0  0
  194.5410  168.7980  147.4680 O   0  0  0  0  0  0  0  0  0  0  0  0
  196.8160  169.0560  147.5980 O   0  0  0  0  0  1  0  0  0  0  0  0
  193.9270  172.1750  142.0930 N   0  0  0  0  0  0  0  0  0  0  0  0
  195.9610  173.3450  141.3770 C   0  0  0  0  0  2  0  0  0  0  0  0
  196.3430  172.4050  142.4940 C   0  0  0  0  0  2  0  0  0  0  0  0
  195.2610  172.0010  141.5050 C   0  0  0  0  0  3  0  0  0  0  0  0
  192.7990  171.7690  141.3630 C   0  0  0  0  0  0  0  0  0  0  0  0
  191.8690  171.4340  140.7610 N   0  0  0  0  0  0  0  0  0  0  0  0
  2  7  2  0  0  0  0
  3 12  2  0  0  0  0
  4  6  2  0  0  0  0
  5 13  1  6  0  0  0
  5 14  1  0  0  0  0
  5 11  1  0  0  0  0
  7 11  1  0  0  0  0
  8  3  1  0  0  0  0
  8 16  2  0  0  0  0
  9 10  1  0  0  0  0
  9  5  1  0  0  0  0
 10 18  1  0  0  0  0
 11 22  1  1  0  0  0
 12  1  1  0  0  0  0
 12  4  1  0  0  0  0
 13  2  1  0  0  0  0
 14 19  1  0  0  0  0
 15  1  2  0  0  0  0
 16 20  1  0  0  0  0
 17 10  2  0  0  0  0
 18 19  2  0  0  0  0
 18  3  1  0  0  0  0
 19 15  1  0  0  0  0
 20  4  1  0  0  0  0
 22 21  1  0  0  0  0
 23  2  1  0  0  0  0
 24 23  3  0  0  0  0
 25 16  1  0  0  0  0
 25 26  1  6  0  0  0
 26 27  1  0  0  0  0
 27 28  1  0  0  0  0
 28 29  1  0  0  0  0
 29 30  1  1  0  0  0
 29 31  1  0  0  0  0
 31 32  2  0  0  0  0
 31 33  1  0  0  0  0
 34 25  1  0  0  0  0
 35 37  1  0  0  0  0
 35 36  1  0  0  0  0
 37 34  1  0  0  0  0
 37 36  1  0  0  0  0
 38 34  1  0  0  0  0
 39 38  3  0  0  0  0
M  END
>  <MODEL>
8

>  <REMARK>
 VINA RESULT:      -5.6      2.311      3.913
  Name = 
  11 active torsions:
  status: ('A' for Active; 'I' for Inactive)
    1  A    between atoms: N_1  and  C_10
    2  A    between atoms: N_1  and  C_22
    3  A    between atoms: C_4  and  C_14
    4  A    between atoms: C_8  and  C_20
    5  A    between atoms: C_8  and  C_36
    6  A    between atoms: C_10  and  C_36
    7  A    between atoms: C_17  and  C_31
    8  A    between atoms: C_22  and  N_24
    9  A    between atoms: C_22  and  C_29
   10  A    between atoms: N_24  and  C_27
   11  A    between atoms: N_24  and  C_37
                            x       y       z     vdW  Elec       q    Type
                         _______ _______ _______ _____ _____    ______ ____

>  <TORSDO>
F 11

$$$$
=
 OpenBabel11072409133D

 39 43  0  0  1  0  0  0  0  0999 V2000
  192.5940  175.1500  146.6240 C   0  0  0  0  0  3  0  0  0  0  0  0
  193.6560  171.4270  140.8450 C   0  0  0  0  0  0  0  0  0  0  0  0
  190.6790  175.4530  145.1500 C   0  0  0  0  0  0  0  0  0  0  0  0
  190.8890  176.8150  147.1540 C   0  0  0  0  0  0  0  0  0  0  0  0
  192.5360  172.7020  142.3930 C   0  0  2  0  0  0  0  0  0  0  0  0
  191.5040  177.1650  148.1980 O   0  0  0  0  0  0  0  0  0  0  0  0
  194.0090  172.6200  140.5250 N   0  0  0  0  0  0  0  0  0  0  0  0
  189.5080  176.0890  144.8680 N   0  0  0  0  0  0  0  0  0  0  0  0
  191.1200  173.0210  142.2330 N   0  0  0  0  0  2  0  0  0  0  0  0
  190.4870  173.9890  143.0720 C   0  0  0  0  0  0  0  0  0  0  0  0
  193.3730  173.5730  141.4240 C   0  0  2  0  0  3  0  0  0  0  0  0
  191.3950  175.8060  146.3190 C   0  0  0  0  0  0  0  0  0  0  0  0
  192.7810  171.3410  141.9520 N   0  0  0  0  0  2  0  0  0  0  0  0
  192.9430  172.8470  143.7590 O   0  0  0  0  0  0  0  0  0  0  0  0
  193.0930  174.1630  145.7740 C   0  0  0  0  0  3  0  0  0  0  0  0
  188.9940  177.0580  145.6710 C   0  0  0  0  0  0  0  0  0  0  0  0
  189.3320  174.3960  142.7790 O   0  0  0  0  0  0  0  0  0  0  0  0
  191.1900  174.4540  144.2880 C   0  0  0  0  0  0  0  0  0  0  0  0
  192.4070  173.8250  144.6060 C   0  0  0  0  0  0  0  0  0  0  0  0
  189.6910  177.4460  146.8240 C   0  0  0  0  0  2  0  0  0  0  0  0
  194.0440  175.8930  142.0430 C   0  0  0  0  0  1  0  0  0  0  0  0
  194.4330  174.4290  142.1120 C   0  0  0  0  0  2  0  0  0  0  0  0
  194.1390  170.2690  140.1490 C   0  0  0  0  0  0  0  0  0  0  0  0
  194.5320  169.3350  139.5910 N   0  0  0  0  0  0  0  0  0  0  0  0
  187.7230  177.7440  145.2630 C   0  0  1  0  0  3  0  0  0  0  0  0
  187.0660  177.0580  144.1580 N   0  0  0  0  0  2  0  0  0  0  0  0
  187.3130  177.8360  142.9540 C   0  0  0  0  0  2  0  0  0  0  0  0
  186.1090  178.7130  142.6450 C   0  0  0  0  0  2  0  0  0  0  0  0
  184.9410  177.8890  142.1240 C   0  0  1  0  0  3  0  0  0  0  0  0
  183.7520  178.2900  142.7370 O   0  0  0  0  0  1  0  0  0  0  0  0
  184.8230  178.0600  140.6470 C   0  0  0  0  0  0  0  0  0  0  0  0
  185.9380  177.9110  139.8310 O   0  0  0  0  0  0  0  0  0  0  0  0
  183.7060  178.3340  140.1380 O   0  0  0  0  0  1  0  0  0  0  0  0
  186.8130  177.8970  146.4010 N   0  0  0  0  0  0  0  0  0  0  0  0
  184.4930  178.5890  146.0060 C   0  0  0  0  0  2  0  0  0  0  0  0
  184.7580  178.6990  147.4890 C   0  0  0  0  0  2  0  0  0  0  0  0
  185.8680  179.0160  146.4980 C   0  0  0  0  0  3  0  0  0  0  0  0
  186.6640  176.7980  147.2630 C   0  0  0  0  0  0  0  0  0  0  0  0
  186.5410  175.8930  147.9730 N   0  0  0  0  0  0  0  0  0  0  0  0
  2 13  1  0  0  0  0
  3 12  2  0  0  0  0
  4  6  2  0  0  0  0
  5 13  1  6  0  0  0
  5 14  1  0  0  0  0
  7  2  2  0  0  0  0
  7 11  1  0  0  0  0
  8  3  1  0  0  0  0
  8 16  2  0  0  0  0
  9  5  1  0  0  0  0
  9 10  1  0  0  0  0
 10 18  1  0  0  0  0
 11 22  1  1  0  0  0
 11  5  1  0  0  0  0
 12  1  1  0  0  0  0
 12  4  1  0  0  0  0
 14 19  1  0  0  0  0
 15  1  2  0  0  0  0
 16 20  1  0  0  0  0
 17 10  2  0  0  0  0
 18 19  2  0  0  0  0
 18  3  1  0  0  0  0
 19 15  1  0  0  0  0
 20  4  1  0  0  0  0
 21 22  1  0  0  0  0
 23  2  1  0  0  0  0
 24 23  3  0  0  0  0
 25 26  1  6  0  0  0
 25 16  1  0  0  0  0
 25 34  1  0  0  0  0
 27 26  1  0  0  0  0
 28 27  1  0  0  0  0
 29 28  1  0  0  0  0
 29 30  1  1  0  0  0
 31 29  1  0  0  0  0
 32 31  2  0  0  0  0
 33 31  1  0  0  0  0
 34 37  1  0  0  0  0
 34 38  1  0  0  0  0
 35 37  1  0  0  0  0
 35 36  1  0  0  0  0
 37 36  1  0  0  0  0
 38 39  3  0  0  0  0
M  END
>  <MODEL>
9

>  <REMARK>
 VINA RESULT:      -5.5      2.679      9.345
  Name = 
  11 active torsions:
  status: ('A' for Active; 'I' for Inactive)
    1  A    between atoms: N_1  and  C_10
    2  A    between atoms: N_1  and  C_22
    3  A    between atoms: C_4  and  C_14
    4  A    between atoms: C_8  and  C_20
    5  A    between atoms: C_8  and  C_36
    6  A    between atoms: C_10  and  C_36
    7  A    between atoms: C_17  and  C_31
    8  A    between atoms: C_22  and  N_24
    9  A    between atoms: C_22  and  C_29
   10  A    between atoms: N_24  and  C_27
   11  A    between atoms: N_24  and  C_37
                            x       y       z     vdW  Elec       q    Type
                         _______ _______ _______ _____ _____    ______ ____

>  <TORSDO>
F 11

$$$$
