=
 OpenBabel11062419163D

 50 55  0  0  1  0  0  0  0  0999 V2000
  189.3900  175.1290  146.4930 C   0  0  0  0  0  3  0  0  0  0  0  0
  190.2140  174.7440  145.4310 C   0  0  0  0  0  0  0  0  0  0  0  0
  189.8850  175.9030  147.4960 N   0  0  0  0  0  0  0  0  0  0  0  0
  192.0420  175.9660  146.4570 C   0  0  0  0  0  0  0  0  0  0  0  0
  191.5380  175.1710  145.4180 C   0  0  0  0  0  3  0  0  0  0  0  0
  191.1790  176.3270  147.5050 C   0  0  0  0  0  0  0  0  0  0  0  0
  191.6410  177.1360  148.5840 N   0  0  0  0  0  1  0  0  0  0  0  0
  196.0870  175.1640  144.3430 N   0  0  0  0  0  0  0  0  0  0  0  0
  196.5800  173.9490  143.8670 N   0  0  0  0  0  0  0  0  0  0  0  0
  196.1770  173.0100  144.6700 C   0  0  0  0  0  0  0  0  0  0  0  0
  193.4500  176.4120  146.4510 C   0  0  0  0  0  3  0  0  0  0  0  0
  195.3350  174.8740  145.5070 C   0  0  0  0  0  0  0  0  0  0  0  0
  195.3400  173.4740  145.7400 N   0  0  0  0  0  2  0  0  0  0  0  0
  194.4090  175.6580  145.9840 C   0  0  0  0  0  0  0  0  0  0  0  0
  195.0990  170.8040  144.2040 C   0  0  0  0  0  2  0  0  0  0  0  0
  197.2750  169.6510  145.7350 C   0  0  0  0  0  3  0  0  0  0  0  0
  197.2080  170.9770  145.5720 C   0  0  0  0  0  3  0  0  0  0  0  0
  195.1450  169.2930  144.5180 C   0  0  0  0  0  2  0  0  0  0  0  0
  196.4320  171.5550  144.4150 C   0  0  2  0  0  0  0  0  0  0  0  0
  196.5610  168.7620  144.7610 C   0  0  0  0  0  2  0  0  0  0  0  0
  197.1910  171.4220  143.2630 F   0  0  0  0  0  0  0  0  0  0  0  0
  196.2590  176.4510  143.6790 C   0  0  0  0  0  2  0  0  0  0  0  0
  194.0030  175.2460  140.9750 N   0  0  0  0  0  2  0  0  0  0  0  0
  194.2610  175.6600  142.3400 C   0  0  0  0  0  2  0  0  0  0  0  0
  195.1570  175.3300  140.1640 C   0  0  0  0  0  0  0  0  0  0  0  0
  195.1150  175.0870  138.9300 O   0  0  0  0  0  0  0  0  0  0  0  0
  196.6300  175.9060  140.9700 S   0  0  0  0  0  0  0  0  0  0  0  0
  195.5490  176.4850  142.3290 C   0  0  2  0  0  3  0  0  0  0  0  0
  189.7320  173.9390  144.3540 N   0  0  0  0  0  2  0  0  0  0  0  0
  189.6170  174.4000  142.9780 C   0  0  1  0  0  3  0  0  0  0  0  0
  188.4260  173.7270  142.2780 C   0  0  0  0  0  2  0  0  0  0  0  0
  189.6120  173.6100  138.7200 C   0  0  0  0  0  2  0  0  0  0  0  0
  190.1370  172.1760  138.6280 C   0  0  0  0  0  2  0  0  0  0  0  0
  190.1690  171.4920  140.0040 C   0  0  0  0  0  2  0  0  0  0  0  0
  188.7660  172.9300  141.0130 C   0  0  2  0  0  3  0  0  0  0  0  0
  190.0840  172.4350  141.0440 O   0  0  0  0  0  0  0  0  0  0  0  0
  188.4690  173.7290  139.7300 C   0  0  0  0  0  2  0  0  0  0  0  0
  189.4910  175.7960  142.9510 O   0  0  0  0  0  0  0  0  0  0  0  0
  188.5050  177.8940  144.4780 O   0  0  0  0  0  0  0  0  0  0  0  0
  187.6920  177.1550  143.8590 C   0  0  0  0  0  0  0  0  0  0  0  0
  188.1660  176.0410  143.1030 N   0  0  0  0  0  2  0  0  0  0  0  0
  186.2190  177.4290  143.9160 C   0  0  2  0  0  3  0  0  0  0  0  0
  184.4350  178.1460  140.9880 C   0  0  0  0  0  2  0  0  0  0  0  0
  186.6110  178.5060  141.6750 C   0  0  0  0  0  2  0  0  0  0  0  0
  185.7860  178.5420  142.9500 C   0  0  1  0  0  3  0  0  0  0  0  0
  184.3600  178.3170  142.4880 C   0  0  0  0  0  2  0  0  0  0  0  0
  185.8160  177.8570  140.6440 N   0  0  0  0  0  2  0  0  0  0  0  0
  185.5740  179.0680  145.8060 C   0  0  0  0  0  1  0  0  0  0  0  0
  185.7710  177.6680  145.3340 C   0  0  0  0  0  0  0  0  0  0  0  0
  185.5150  176.6580  146.1670 C   0  0  0  0  0  2  0  0  0  0  0  0
  1  3  1  0  0  0  0
  2  1  2  0  0  0  0
  3  6  2  0  0  0  0
  4  6  1  0  0  0  0
  5  2  1  0  0  0  0
  5  4  2  0  0  0  0
  6  7  1  0  0  0  0
  8 12  1  0  0  0  0
  9  8  1  0  0  0  0
  9 10  2  0  0  0  0
 10 13  1  0  0  0  0
 11  4  1  0  0  0  0
 12 13  1  0  0  0  0
 12 14  2  0  0  0  0
 14 11  2  0  0  0  0
 15 19  1  0  0  0  0
 15 18  1  0  0  0  0
 17 16  2  0  0  0  0
 18 20  1  0  0  0  0
 19 21  1  6  0  0  0
 19 10  1  0  0  0  0
 19 17  1  0  0  0  0
 20 16  1  0  0  0  0
 22  8  1  0  0  0  0
 23 24  1  0  0  0  0
 25 27  1  0  0  0  0
 25 23  1  0  0  0  0
 26 25  2  0  0  0  0
 27 28  1  0  0  0  0
 28 24  1  0  0  0  0
 28 22  1  1  0  0  0
 29  2  1  0  0  0  0
 30 31  1  1  0  0  0
 30 29  1  0  0  0  0
 32 37  1  0  0  0  0
 33 32  1  0  0  0  0
 33 34  1  0  0  0  0
 34 36  1  0  0  0  0
 35 36  1  0  0  0  0
 35 31  1  1  0  0  0
 37 35  1  0  0  0  0
 38 30  1  0  0  0  0
 38 41  1  0  0  0  0
 40 39  2  0  0  0  0
 41 40  1  0  0  0  0
 42 40  1  1  0  0  0
 42 49  1  0  0  0  0
 43 46  1  0  0  0  0
 44 45  1  0  0  0  0
 45 42  1  1  0  0  0
 46 45  1  0  0  0  0
 47 43  1  0  0  0  0
 47 44  1  0  0  0  0
 49 48  1  0  0  0  0
 49 50  2  0  0  0  0
M  END
>  <MODEL>
1

>  <REMARK>
 VINA RESULT:      -8.1      0.000      0.000
  Name = 
  13 active torsions:
  status: ('A' for Active; 'I' for Inactive)
    1  A    between atoms: C_5  and  N_20
    2  A    between atoms: C_7  and  C_17
    3  A    between atoms: C_7  and  C_38
    4  A    between atoms: C_12  and  C_34
    5  A    between atoms: N_13  and  C_14
    6  A    between atoms: C_14  and  C_45
    7  A    between atoms: N_20  and  C_38
    8  A    between atoms: O_23  and  N_26
    9  A    between atoms: O_23  and  C_38
   10  A    between atoms: C_25  and  C_44
   11  A    between atoms: C_28  and  C_30
   12  A    between atoms: C_32  and  C_34
   13  A    between atoms: C_34  and  C_39
                            x       y       z     vdW  Elec       q    Type
                         _______ _______ _______ _____ _____    ______ ____

>  <TORSDO>
F 13

$$$$
=
 OpenBabel11062419163D

 50 55  0  0  1  0  0  0  0  0999 V2000
  188.9670  176.2270  145.8070 C   0  0  0  0  0  3  0  0  0  0  0  0
  189.7690  176.7950  144.8120 C   0  0  0  0  0  0  0  0  0  0  0  0
  189.5320  175.7350  146.9420 N   0  0  0  0  0  0  0  0  0  0  0  0
  191.7210  176.3390  146.1800 C   0  0  0  0  0  0  0  0  0  0  0  0
  191.1450  176.8520  145.0090 C   0  0  0  0  0  3  0  0  0  0  0  0
  190.8780  175.7750  147.1510 C   0  0  0  0  0  0  0  0  0  0  0  0
  191.4130  175.2430  148.3600 N   0  0  0  0  0  1  0  0  0  0  0  0
  195.6770  174.6040  144.5020 N   0  0  0  0  0  0  0  0  0  0  0  0
  195.9010  173.3320  143.9760 N   0  0  0  0  0  0  0  0  0  0  0  0
  195.1600  172.4900  144.6310 C   0  0  0  0  0  0  0  0  0  0  0  0
  193.1820  176.3890  146.3850 C   0  0  0  0  0  3  0  0  0  0  0  0
  194.7190  174.4590  145.5340 C   0  0  0  0  0  0  0  0  0  0  0  0
  194.3280  173.0980  145.6320 N   0  0  0  0  0  2  0  0  0  0  0  0
  193.9690  175.4340  145.9690 C   0  0  0  0  0  0  0  0  0  0  0  0
  193.8490  170.7920  143.3490 C   0  0  0  0  0  2  0  0  0  0  0  0
  194.5460  168.9510  145.4780 C   0  0  0  0  0  3  0  0  0  0  0  0
  194.9630  170.2210  145.5360 C   0  0  0  0  0  3  0  0  0  0  0  0
  193.2860  169.3540  143.3820 C   0  0  0  0  0  2  0  0  0  0  0  0
  195.0620  171.0380  144.2730 C   0  0  2  0  0  0  0  0  0  0  0  0
  194.1720  168.3680  144.1480 C   0  0  0  0  0  2  0  0  0  0  0  0
  196.2080  170.6610  143.5910 F   0  0  0  0  0  0  0  0  0  0  0  0
  196.2690  175.8350  143.9890 C   0  0  0  0  0  2  0  0  0  0  0  0
  194.0860  175.5040  140.9920 N   0  0  0  0  0  2  0  0  0  0  0  0
  194.2910  175.7000  142.4130 C   0  0  0  0  0  2  0  0  0  0  0  0
  195.3060  175.3840  140.2880 C   0  0  0  0  0  0  0  0  0  0  0  0
  195.3370  175.2870  139.0340 O   0  0  0  0  0  0  0  0  0  0  0  0
  196.7810  175.4950  141.2690 S   0  0  0  0  0  0  0  0  0  0  0  0
  195.7320  176.1800  142.6040 C   0  0  2  0  0  3  0  0  0  0  0  0
  189.2140  177.3310  143.6100 N   0  0  0  0  0  2  0  0  0  0  0  0
  187.9970  176.8390  142.9820 C   0  0  1  0  0  3  0  0  0  0  0  0
  186.9040  177.9200  142.9970 C   0  0  0  0  0  2  0  0  0  0  0  0
  183.9790  179.0970  145.0300 C   0  0  0  0  0  2  0  0  0  0  0  0
  184.1960  178.3290  146.3360 C   0  0  0  0  0  2  0  0  0  0  0  0
  185.3190  177.2890  146.2040 C   0  0  0  0  0  2  0  0  0  0  0  0
  186.2440  178.1750  144.3560 C   0  0  2  0  0  3  0  0  0  0  0  0
  185.6100  177.0200  144.8550 O   0  0  0  0  0  0  0  0  0  0  0  0
  185.3030  179.3930  144.3230 C   0  0  0  0  0  2  0  0  0  0  0  0
  188.2700  176.4210  141.6720 O   0  0  0  0  0  0  0  0  0  0  0  0
  188.1060  173.6500  141.6990 O   0  0  0  0  0  0  0  0  0  0  0  0
  189.2430  174.1940  141.7360 C   0  0  0  0  0  0  0  0  0  0  0  0
  189.3580  175.6160  141.7710 N   0  0  0  0  0  2  0  0  0  0  0  0
  190.4870  173.3570  141.7570 C   0  0  2  0  0  3  0  0  0  0  0  0
  192.5930  172.8120  139.0110 C   0  0  0  0  0  2  0  0  0  0  0  0
  190.3720  173.4030  139.2420 C   0  0  0  0  0  2  0  0  0  0  0  0
  190.6800  172.5520  140.4630 C   0  0  1  0  0  3  0  0  0  0  0  0
  192.1350  172.1600  140.2960 C   0  0  0  0  0  2  0  0  0  0  0  0
  191.6350  173.8500  138.6760 N   0  0  0  0  0  2  0  0  0  0  0  0
  191.0270  173.1070  144.2710 C   0  0  0  0  0  1  0  0  0  0  0  0
  190.5410  172.5050  142.9980 C   0  0  0  0  0  0  0  0  0  0  0  0
  190.1340  171.2340  142.9920 C   0  0  0  0  0  2  0  0  0  0  0  0
  1  3  1  0  0  0  0
  2  5  1  0  0  0  0
  2  1  2  0  0  0  0
  3  6  2  0  0  0  0
  4 11  1  0  0  0  0
  4  6  1  0  0  0  0
  5  4  2  0  0  0  0
  6  7  1  0  0  0  0
  8 12  1  0  0  0  0
  9  8  1  0  0  0  0
  9 10  2  0  0  0  0
 10 13  1  0  0  0  0
 12 13  1  0  0  0  0
 12 14  2  0  0  0  0
 14 11  2  0  0  0  0
 15 18  1  0  0  0  0
 15 19  1  0  0  0  0
 16 17  2  0  0  0  0
 18 20  1  0  0  0  0
 19 21  1  6  0  0  0
 19 10  1  0  0  0  0
 19 17  1  0  0  0  0
 20 16  1  0  0  0  0
 22  8  1  0  0  0  0
 23 24  1  0  0  0  0
 24 28  1  0  0  0  0
 25 23  1  0  0  0  0
 25 27  1  0  0  0  0
 26 25  2  0  0  0  0
 27 28  1  0  0  0  0
 28 22  1  1  0  0  0
 29  2  1  0  0  0  0
 30 31  1  6  0  0  0
 30 29  1  0  0  0  0
 32 33  1  0  0  0  0
 34 33  1  0  0  0  0
 35 31  1  6  0  0  0
 35 36  1  0  0  0  0
 36 34  1  0  0  0  0
 37 35  1  0  0  0  0
 37 32  1  0  0  0  0
 38 41  1  0  0  0  0
 38 30  1  0  0  0  0
 39 40  2  0  0  0  0
 40 41  1  0  0  0  0
 42 40  1  6  0  0  0
 42 49  1  0  0  0  0
 43 46  1  0  0  0  0
 44 45  1  0  0  0  0
 45 42  1  1  0  0  0
 46 45  1  0  0  0  0
 47 43  1  0  0  0  0
 47 44  1  0  0  0  0
 49 48  1  0  0  0  0
 50 49  2  0  0  0  0
M  END
>  <MODEL>
2

>  <REMARK>
 VINA RESULT:      -8.1      1.604      4.951
  Name = 
  13 active torsions:
  status: ('A' for Active; 'I' for Inactive)
    1  A    between atoms: C_5  and  N_20
    2  A    between atoms: C_7  and  C_17
    3  A    between atoms: C_7  and  C_38
    4  A    between atoms: C_12  and  C_34
    5  A    between atoms: N_13  and  C_14
    6  A    between atoms: C_14  and  C_45
    7  A    between atoms: N_20  and  C_38
    8  A    between atoms: O_23  and  N_26
    9  A    between atoms: O_23  and  C_38
   10  A    between atoms: C_25  and  C_44
   11  A    between atoms: C_28  and  C_30
   12  A    between atoms: C_32  and  C_34
   13  A    between atoms: C_34  and  C_39
                            x       y       z     vdW  Elec       q    Type
                         _______ _______ _______ _____ _____    ______ ____

>  <TORSDO>
F 13

$$$$
=
 OpenBabel11062419163D

 50 55  0  0  1  0  0  0  0  0999 V2000
  188.2870  172.8920  139.6090 C   0  0  0  0  0  3  0  0  0  0  0  0
  189.2040  173.1580  140.6310 C   0  0  0  0  0  0  0  0  0  0  0  0
  188.6740  172.9660  138.3080 N   0  0  0  0  0  0  0  0  0  0  0  0
  190.9030  173.5660  138.9460 C   0  0  0  0  0  0  0  0  0  0  0  0
  190.5130  173.4890  140.2900 C   0  0  0  0  0  3  0  0  0  0  0  0
  189.9470  173.2940  137.9530 C   0  0  0  0  0  0  0  0  0  0  0  0
  190.2930  173.3550  136.5720 N   0  0  0  0  0  1  0  0  0  0  0  0
  195.2220  173.5070  140.6230 N   0  0  0  0  0  0  0  0  0  0  0  0
  195.6320  173.6930  141.9440 N   0  0  0  0  0  0  0  0  0  0  0  0
  194.8350  174.5590  142.4940 C   0  0  0  0  0  0  0  0  0  0  0  0
  192.2870  173.9270  138.5830 C   0  0  0  0  0  3  0  0  0  0  0  0
  194.0910  174.3340  140.4250 C   0  0  0  0  0  0  0  0  0  0  0  0
  193.7820  175.0160  141.6310 N   0  0  0  0  0  2  0  0  0  0  0  0
  193.2050  174.1360  139.4880 C   0  0  0  0  0  0  0  0  0  0  0  0
  194.0240  173.9890  144.7870 C   0  0  0  0  0  2  0  0  0  0  0  0
  194.1670  176.8350  145.3200 C   0  0  0  0  0  3  0  0  0  0  0  0
  194.4920  176.3700  144.1090 C   0  0  0  0  0  3  0  0  0  0  0  0
  193.5410  174.5780  146.1310 C   0  0  0  0  0  2  0  0  0  0  0  0
  194.9100  174.9300  143.9430 C   0  0  2  0  0  0  0  0  0  0  0  0
  194.2150  175.9040  146.4940 C   0  0  0  0  0  2  0  0  0  0  0  0
  196.2190  174.7980  144.3790 F   0  0  0  0  0  0  0  0  0  0  0  0
  195.8180  172.5560  139.6910 C   0  0  0  0  0  2  0  0  0  0  0  0
  197.9400  175.3280  138.3990 N   0  0  0  0  0  2  0  0  0  0  0  0
  197.5030  174.4310  139.4500 C   0  0  0  0  0  2  0  0  0  0  0  0
  197.2770  175.0810  137.1750 C   0  0  0  0  0  0  0  0  0  0  0  0
  197.5750  175.7050  136.1250 O   0  0  0  0  0  0  0  0  0  0  0  0
  196.0870  173.7640  137.1920 S   0  0  0  0  0  0  0  0  0  0  0  0
  196.8350  173.2310  138.7750 C   0  0  2  0  0  3  0  0  0  0  0  0
  188.8410  173.0840  142.0100 N   0  0  0  0  0  2  0  0  0  0  0  0
  188.8520  174.2200  142.9200 C   0  0  1  0  0  3  0  0  0  0  0  0
  190.2240  174.3590  143.5980 C   0  0  0  0  0  2  0  0  0  0  0  0
  189.7840  177.5210  145.5690 C   0  0  0  0  0  2  0  0  0  0  0  0
  189.4440  176.9640  146.9530 C   0  0  0  0  0  2  0  0  0  0  0  0
  189.2150  175.4450  146.9150 C   0  0  0  0  0  2  0  0  0  0  0  0
  190.2280  175.1050  144.9370 C   0  0  2  0  0  3  0  0  0  0  0  0
  188.9910  174.9960  145.6010 O   0  0  0  0  0  0  0  0  0  0  0  0
  190.6850  176.5670  144.7820 C   0  0  0  0  0  2  0  0  0  0  0  0
  188.5140  175.3900  142.2260 O   0  0  0  0  0  0  0  0  0  0  0  0
  187.9720  177.9310  143.2040 O   0  0  0  0  0  0  0  0  0  0  0  0
  187.0410  177.0840  143.1590 C   0  0  0  0  0  0  0  0  0  0  0  0
  187.2990  175.7550  142.7050 N   0  0  0  0  0  2  0  0  0  0  0  0
  185.6540  177.4540  143.5920 C   0  0  2  0  0  3  0  0  0  0  0  0
  183.6150  178.1110  140.8190 C   0  0  0  0  0  2  0  0  0  0  0  0
  185.7760  178.6840  141.3990 C   0  0  0  0  0  2  0  0  0  0  0  0
  185.0370  178.5580  142.7200 C   0  0  1  0  0  3  0  0  0  0  0  0
  183.6180  178.1940  142.3290 C   0  0  0  0  0  2  0  0  0  0  0  0
  184.9940  178.0020  140.3800 N   0  0  0  0  0  2  0  0  0  0  0  0
  185.3810  179.1770  145.4960 C   0  0  0  0  0  1  0  0  0  0  0  0
  185.6160  177.7710  145.0640 C   0  0  0  0  0  0  0  0  0  0  0  0
  185.7550  176.8200  145.9890 C   0  0  0  0  0  2  0  0  0  0  0  0
  1  2  1  0  0  0  0
  2 29  1  0  0  0  0
  3  1  2  0  0  0  0
  4  5  1  0  0  0  0
  5  2  2  0  0  0  0
  6  3  1  0  0  0  0
  6  4  2  0  0  0  0
  7  6  1  0  0  0  0
  8  9  1  0  0  0  0
  9 10  2  0  0  0  0
 10 19  1  0  0  0  0
 11  4  1  0  0  0  0
 11 14  2  0  0  0  0
 12  8  1  0  0  0  0
 12 13  1  0  0  0  0
 13 10  1  0  0  0  0
 14 12  2  0  0  0  0
 15 18  1  0  0  0  0
 16 20  1  0  0  0  0
 17 16  2  0  0  0  0
 18 20  1  0  0  0  0
 19 17  1  0  0  0  0
 19 21  1  1  0  0  0
 19 15  1  0  0  0  0
 22  8  1  0  0  0  0
 23 24  1  0  0  0  0
 25 27  1  0  0  0  0
 25 23  1  0  0  0  0
 26 25  2  0  0  0  0
 27 28  1  0  0  0  0
 28 24  1  0  0  0  0
 28 22  1  1  0  0  0
 29 30  1  0  0  0  0
 30 31  1  6  0  0  0
 32 33  1  0  0  0  0
 34 33  1  0  0  0  0
 35 31  1  6  0  0  0
 35 36  1  0  0  0  0
 36 34  1  0  0  0  0
 37 35  1  0  0  0  0
 37 32  1  0  0  0  0
 38 41  1  0  0  0  0
 38 30  1  0  0  0  0
 40 39  2  0  0  0  0
 41 40  1  0  0  0  0
 42 40  1  6  0  0  0
 42 49  1  0  0  0  0
 43 46  1  0  0  0  0
 44 45  1  0  0  0  0
 45 42  1  1  0  0  0
 46 45  1  0  0  0  0
 47 43  1  0  0  0  0
 47 44  1  0  0  0  0
 49 48  1  0  0  0  0
 49 50  2  0  0  0  0
M  END
>  <MODEL>
3

>  <REMARK>
 VINA RESULT:      -8.0      2.686      5.357
  Name = 
  13 active torsions:
  status: ('A' for Active; 'I' for Inactive)
    1  A    between atoms: C_5  and  N_20
    2  A    between atoms: C_7  and  C_17
    3  A    between atoms: C_7  and  C_38
    4  A    between atoms: C_12  and  C_34
    5  A    between atoms: N_13  and  C_14
    6  A    between atoms: C_14  and  C_45
    7  A    between atoms: N_20  and  C_38
    8  A    between atoms: O_23  and  N_26
    9  A    between atoms: O_23  and  C_38
   10  A    between atoms: C_25  and  C_44
   11  A    between atoms: C_28  and  C_30
   12  A    between atoms: C_32  and  C_34
   13  A    between atoms: C_34  and  C_39
                            x       y       z     vdW  Elec       q    Type
                         _______ _______ _______ _____ _____    ______ ____

>  <TORSDO>
F 13

$$$$
=
 OpenBabel11062419163D

 50 55  0  0  1  0  0  0  0  0999 V2000
  189.5510  175.3240  146.3050 C   0  0  0  0  0  3  0  0  0  0  0  0
  190.2930  175.1650  145.1300 C   0  0  0  0  0  0  0  0  0  0  0  0
  190.1100  175.9210  147.3910 N   0  0  0  0  0  0  0  0  0  0  0  0
  192.1730  176.2460  146.2190 C   0  0  0  0  0  0  0  0  0  0  0  0
  191.6030  175.6350  145.0940 C   0  0  0  0  0  3  0  0  0  0  0  0
  191.3920  176.3810  147.3780 C   0  0  0  0  0  0  0  0  0  0  0  0
  191.9240  176.9980  148.5480 N   0  0  0  0  0  1  0  0  0  0  0  0
  196.2670  175.3890  144.2240 N   0  0  0  0  0  0  0  0  0  0  0  0
  196.8040  174.1530  143.8630 N   0  0  0  0  0  0  0  0  0  0  0  0
  196.4210  173.2770  144.7430 C   0  0  0  0  0  0  0  0  0  0  0  0
  193.5660  176.7350  146.1850 C   0  0  0  0  0  3  0  0  0  0  0  0
  195.5110  175.1800  145.4010 C   0  0  0  0  0  0  0  0  0  0  0  0
  195.5570  173.8070  145.7590 N   0  0  0  0  0  2  0  0  0  0  0  0
  194.5540  175.9740  145.7980 C   0  0  0  0  0  0  0  0  0  0  0  0
  195.6390  171.1070  143.7830 C   0  0  0  0  0  2  0  0  0  0  0  0
  196.7690  169.8870  146.1580 C   0  0  0  0  0  3  0  0  0  0  0  0
  196.8270  171.2140  146.0020 C   0  0  0  0  0  3  0  0  0  0  0  0
  195.4830  169.5950  144.0600 C   0  0  0  0  0  2  0  0  0  0  0  0
  196.7240  171.8150  144.6230 C   0  0  2  0  0  0  0  0  0  0  0  0
  196.5890  169.0190  144.9490 C   0  0  0  0  0  2  0  0  0  0  0  0
  197.9410  171.6550  143.9790 F   0  0  0  0  0  0  0  0  0  0  0  0
  196.4070  176.6170  143.4490 C   0  0  0  0  0  2  0  0  0  0  0  0
  194.0690  175.1820  140.9330 N   0  0  0  0  0  2  0  0  0  0  0  0
  194.3680  175.7170  142.2460 C   0  0  0  0  0  2  0  0  0  0  0  0
  195.1980  175.1850  140.0840 C   0  0  0  0  0  0  0  0  0  0  0  0
  195.1200  174.8300  138.8800 O   0  0  0  0  0  0  0  0  0  0  0  0
  196.6960  175.8240  140.7910 S   0  0  0  0  0  0  0  0  0  0  0  0
  195.6580  176.5310  142.1220 C   0  0  2  0  0  3  0  0  0  0  0  0
  189.7400  174.5520  143.9640 N   0  0  0  0  0  2  0  0  0  0  0  0
  189.8180  175.1220  142.6270 C   0  0  1  0  0  3  0  0  0  0  0  0
  190.5360  174.1580  141.6680 C   0  0  0  0  0  2  0  0  0  0  0  0
  191.3740  170.5500  141.0690 C   0  0  0  0  0  2  0  0  0  0  0  0
  191.8800  170.1290  142.4510 C   0  0  0  0  0  2  0  0  0  0  0  0
  192.0390  171.3350  143.3910 C   0  0  0  0  0  2  0  0  0  0  0  0
  190.7480  172.7350  142.1970 C   0  0  2  0  0  3  0  0  0  0  0  0
  192.0600  172.5430  142.6710 O   0  0  0  0  0  0  0  0  0  0  0  0
  190.3340  171.6680  141.1660 C   0  0  0  0  0  2  0  0  0  0  0  0
  188.5320  175.4270  142.1620 O   0  0  0  0  0  0  0  0  0  0  0  0
  188.1800  178.1800  142.1010 O   0  0  0  0  0  0  0  0  0  0  0  0
  187.7340  177.5300  143.0840 C   0  0  0  0  0  0  0  0  0  0  0  0
  187.9410  176.1200  143.1670 N   0  0  0  0  0  2  0  0  0  0  0  0
  186.9930  178.2280  144.1850 C   0  0  2  0  0  3  0  0  0  0  0  0
  184.7840  177.6240  146.8360 C   0  0  0  0  0  2  0  0  0  0  0  0
  187.0680  177.9350  146.6850 C   0  0  0  0  0  2  0  0  0  0  0  0
  186.6710  177.2970  145.3640 C   0  0  1  0  0  3  0  0  0  0  0  0
  185.1740  177.0860  145.4780 C   0  0  0  0  0  2  0  0  0  0  0  0
  185.8660  178.4720  147.3030 N   0  0  0  0  0  2  0  0  0  0  0  0
  184.9500  178.2810  142.6050 C   0  0  0  0  0  1  0  0  0  0  0  0
  185.7810  178.9440  143.6480 C   0  0  0  0  0  0  0  0  0  0  0  0
  185.4160  180.1420  144.1080 C   0  0  0  0  0  2  0  0  0  0  0  0
  1  3  1  0  0  0  0
  2  1  2  0  0  0  0
  4  6  1  0  0  0  0
  5  2  1  0  0  0  0
  5  4  2  0  0  0  0
  6  3  2  0  0  0  0
  6  7  1  0  0  0  0
  8 12  1  0  0  0  0
  9  8  1  0  0  0  0
  9 10  2  0  0  0  0
 10 13  1  0  0  0  0
 11  4  1  0  0  0  0
 12 13  1  0  0  0  0
 12 14  2  0  0  0  0
 14 11  2  0  0  0  0
 15 18  1  0  0  0  0
 15 19  1  0  0  0  0
 17 16  2  0  0  0  0
 18 20  1  0  0  0  0
 19 21  1  6  0  0  0
 19 10  1  0  0  0  0
 19 17  1  0  0  0  0
 20 16  1  0  0  0  0
 22  8  1  0  0  0  0
 23 24  1  0  0  0  0
 25 27  1  0  0  0  0
 25 23  1  0  0  0  0
 26 25  2  0  0  0  0
 27 28  1  0  0  0  0
 28 24  1  0  0  0  0
 28 22  1  1  0  0  0
 29  2  1  0  0  0  0
 30 31  1  6  0  0  0
 30 29  1  0  0  0  0
 32 37  1  0  0  0  0
 32 33  1  0  0  0  0
 33 34  1  0  0  0  0
 35 31  1  6  0  0  0
 35 36  1  0  0  0  0
 36 34  1  0  0  0  0
 37 35  1  0  0  0  0
 38 30  1  0  0  0  0
 38 41  1  0  0  0  0
 39 40  2  0  0  0  0
 40 41  1  0  0  0  0
 42 40  1  6  0  0  0
 43 47  1  0  0  0  0
 44 47  1  0  0  0  0
 45 42  1  6  0  0  0
 45 46  1  0  0  0  0
 45 44  1  0  0  0  0
 46 43  1  0  0  0  0
 48 49  1  0  0  0  0
 49 50  2  0  0  0  0
 49 42  1  0  0  0  0
M  END
>  <MODEL>
4

>  <REMARK>
 VINA RESULT:      -7.9      1.351      2.256
  Name = 
  13 active torsions:
  status: ('A' for Active; 'I' for Inactive)
    1  A    between atoms: C_5  and  N_20
    2  A    between atoms: C_7  and  C_17
    3  A    between atoms: C_7  and  C_38
    4  A    between atoms: C_12  and  C_34
    5  A    between atoms: N_13  and  C_14
    6  A    between atoms: C_14  and  C_45
    7  A    between atoms: N_20  and  C_38
    8  A    between atoms: O_23  and  N_26
    9  A    between atoms: O_23  and  C_38
   10  A    between atoms: C_25  and  C_44
   11  A    between atoms: C_28  and  C_30
   12  A    between atoms: C_32  and  C_34
   13  A    between atoms: C_34  and  C_39
                            x       y       z     vdW  Elec       q    Type
                         _______ _______ _______ _____ _____    ______ ____

>  <TORSDO>
F 13

$$$$
=
 OpenBabel11062419163D

 50 55  0  0  1  0  0  0  0  0999 V2000
  189.1010  176.2780  145.4210 C   0  0  0  0  0  3  0  0  0  0  0  0
  189.8610  176.5170  144.2710 C   0  0  0  0  0  0  0  0  0  0  0  0
  189.6890  176.3100  146.6470 N   0  0  0  0  0  0  0  0  0  0  0  0
  191.8170  176.8200  145.6750 C   0  0  0  0  0  0  0  0  0  0  0  0
  191.2180  176.7930  144.4080 C   0  0  0  0  0  3  0  0  0  0  0  0
  191.0160  176.5710  146.8010 C   0  0  0  0  0  0  0  0  0  0  0  0
  191.5760  176.5910  148.1120 N   0  0  0  0  0  1  0  0  0  0  0  0
  195.9670  175.2750  144.3090 N   0  0  0  0  0  0  0  0  0  0  0  0
  196.3560  173.9560  144.0730 N   0  0  0  0  0  0  0  0  0  0  0  0
  195.7330  173.1950  144.9220 C   0  0  0  0  0  0  0  0  0  0  0  0
  193.2590  177.1020  145.8210 C   0  0  0  0  0  3  0  0  0  0  0  0
  195.0370  175.2440  145.3750 C   0  0  0  0  0  0  0  0  0  0  0  0
  194.8290  173.9010  145.7860 N   0  0  0  0  0  2  0  0  0  0  0  0
  194.1650  176.1870  145.6040 C   0  0  0  0  0  0  0  0  0  0  0  0
  194.7110  171.0770  145.7630 C   0  0  0  0  0  2  0  0  0  0  0  0
  197.4090  170.0160  145.7580 C   0  0  0  0  0  3  0  0  0  0  0  0
  197.1930  171.2820  145.3830 C   0  0  0  0  0  3  0  0  0  0  0  0
  195.0180  169.6620  146.3040 C   0  0  0  0  0  2  0  0  0  0  0  0
  195.8270  171.7000  144.8990 C   0  0  2  0  0  0  0  0  0  0  0  0
  196.2760  169.0360  145.6980 C   0  0  0  0  0  2  0  0  0  0  0  0
  195.6650  171.2550  143.5960 F   0  0  0  0  0  0  0  0  0  0  0  0
  196.3920  176.4240  143.5180 C   0  0  0  0  0  2  0  0  0  0  0  0
  194.1720  175.2170  140.7850 N   0  0  0  0  0  2  0  0  0  0  0  0
  194.3970  175.7210  142.1250 C   0  0  0  0  0  2  0  0  0  0  0  0
  195.3700  175.1150  140.0430 C   0  0  0  0  0  0  0  0  0  0  0  0
  195.3700  174.7700  138.8330 O   0  0  0  0  0  0  0  0  0  0  0  0
  196.8490  175.6100  140.8900 S   0  0  0  0  0  0  0  0  0  0  0  0
  195.7630  176.4100  142.1270 C   0  0  2  0  0  3  0  0  0  0  0  0
  189.2810  176.5010  142.9660 N   0  0  0  0  0  2  0  0  0  0  0  0
  187.8500  176.4320  142.7090 C   0  0  1  0  0  3  0  0  0  0  0  0
  187.2320  177.8390  142.6980 C   0  0  0  0  0  2  0  0  0  0  0  0
  185.3470  177.3260  145.9010 C   0  0  0  0  0  2  0  0  0  0  0  0
  184.3220  178.4600  145.8280 C   0  0  0  0  0  2  0  0  0  0  0  0
  184.6140  179.4170  144.6610 C   0  0  0  0  0  2  0  0  0  0  0  0
  185.9610  178.0110  143.5370 C   0  0  2  0  0  3  0  0  0  0  0  0
  185.9290  179.2590  144.1890 O   0  0  0  0  0  0  0  0  0  0  0  0
  185.7460  176.8360  144.5080 C   0  0  0  0  0  2  0  0  0  0  0  0
  187.6140  175.7710  141.4960 O   0  0  0  0  0  0  0  0  0  0  0  0
  187.4200  173.0410  141.9660 O   0  0  0  0  0  0  0  0  0  0  0  0
  188.5130  173.5120  141.5490 C   0  0  0  0  0  0  0  0  0  0  0  0
  188.6580  174.9170  141.3430 N   0  0  0  0  0  2  0  0  0  0  0  0
  189.6770  172.6080  141.2750 C   0  0  2  0  0  3  0  0  0  0  0  0
  191.7700  171.2680  143.7450 C   0  0  0  0  0  2  0  0  0  0  0  0
  190.4170  173.1370  143.6230 C   0  0  0  0  0  2  0  0  0  0  0  0
  190.8750  172.8900  142.1950 C   0  0  1  0  0  3  0  0  0  0  0  0
  191.7700  171.6700  142.2880 C   0  0  0  0  0  2  0  0  0  0  0  0
  190.6370  171.9160  144.3820 N   0  0  0  0  0  2  0  0  0  0  0  0
  191.2140  173.4180  139.3640 C   0  0  0  0  0  1  0  0  0  0  0  0
  190.0370  172.6230  139.8130 C   0  0  0  0  0  0  0  0  0  0  0  0
  189.3490  171.9150  138.9150 C   0  0  0  0  0  2  0  0  0  0  0  0
  1  3  1  0  0  0  0
  2  5  1  0  0  0  0
  2  1  2  0  0  0  0
  3  6  2  0  0  0  0
  4 11  1  0  0  0  0
  4  6  1  0  0  0  0
  5  4  2  0  0  0  0
  6  7  1  0  0  0  0
  8 12  1  0  0  0  0
  9  8  1  0  0  0  0
  9 10  2  0  0  0  0
 10 13  1  0  0  0  0
 12 14  2  0  0  0  0
 12 13  1  0  0  0  0
 14 11  2  0  0  0  0
 15 18  1  0  0  0  0
 17 16  2  0  0  0  0
 19 21  1  6  0  0  0
 19 10  1  0  0  0  0
 19 17  1  0  0  0  0
 19 15  1  0  0  0  0
 20 16  1  0  0  0  0
 20 18  1  0  0  0  0
 22  8  1  0  0  0  0
 23 24  1  0  0  0  0
 24 28  1  0  0  0  0
 25 23  1  0  0  0  0
 25 27  1  0  0  0  0
 26 25  2  0  0  0  0
 27 28  1  0  0  0  0
 28 22  1  1  0  0  0
 29  2  1  0  0  0  0
 30 31  1  6  0  0  0
 30 29  1  0  0  0  0
 33 32  1  0  0  0  0
 34 33  1  0  0  0  0
 35 31  1  1  0  0  0
 35 36  1  0  0  0  0
 35 37  1  0  0  0  0
 36 34  1  0  0  0  0
 37 32  1  0  0  0  0
 38 30  1  0  0  0  0
 40 39  2  0  0  0  0
 41 38  1  0  0  0  0
 41 40  1  0  0  0  0
 42 49  1  6  0  0  0
 42 40  1  0  0  0  0
 43 47  1  0  0  0  0
 44 47  1  0  0  0  0
 45 42  1  6  0  0  0
 45 46  1  0  0  0  0
 45 44  1  0  0  0  0
 46 43  1  0  0  0  0
 48 49  1  0  0  0  0
 50 49  2  0  0  0  0
M  END
>  <MODEL>
5

>  <REMARK>
 VINA RESULT:      -7.8      1.447      5.095
  Name = 
  13 active torsions:
  status: ('A' for Active; 'I' for Inactive)
    1  A    between atoms: C_5  and  N_20
    2  A    between atoms: C_7  and  C_17
    3  A    between atoms: C_7  and  C_38
    4  A    between atoms: C_12  and  C_34
    5  A    between atoms: N_13  and  C_14
    6  A    between atoms: C_14  and  C_45
    7  A    between atoms: N_20  and  C_38
    8  A    between atoms: O_23  and  N_26
    9  A    between atoms: O_23  and  C_38
   10  A    between atoms: C_25  and  C_44
   11  A    between atoms: C_28  and  C_30
   12  A    between atoms: C_32  and  C_34
   13  A    between atoms: C_34  and  C_39
                            x       y       z     vdW  Elec       q    Type
                         _______ _______ _______ _____ _____    ______ ____

>  <TORSDO>
F 13

$$$$
=
 OpenBabel11062419163D

 50 55  0  0  1  0  0  0  0  0999 V2000
  191.0180  171.0690  138.9210 C   0  0  0  0  0  3  0  0  0  0  0  0
  191.2140  171.0450  140.3050 C   0  0  0  0  0  0  0  0  0  0  0  0
  189.9830  171.7740  138.3900 N   0  0  0  0  0  0  0  0  0  0  0  0
  189.2740  172.4790  140.5660 C   0  0  0  0  0  0  0  0  0  0  0  0
  190.3400  171.7580  141.1210 C   0  0  0  0  0  3  0  0  0  0  0  0
  189.1130  172.4720  139.1710 C   0  0  0  0  0  0  0  0  0  0  0  0
  188.0470  173.1920  138.5570 N   0  0  0  0  0  1  0  0  0  0  0  0
  189.0890  176.1700  143.3630 N   0  0  0  0  0  0  0  0  0  0  0  0
  190.0910  176.6630  144.1980 N   0  0  0  0  0  0  0  0  0  0  0  0
  190.7670  175.6530  144.6570 C   0  0  0  0  0  0  0  0  0  0  0  0
  188.3400  173.2270  141.4300 C   0  0  0  0  0  3  0  0  0  0  0  0
  189.2260  174.7610  143.3470 C   0  0  0  0  0  0  0  0  0  0  0  0
  190.3310  174.3810  144.1540 N   0  0  0  0  0  2  0  0  0  0  0  0
  188.7610  173.9990  142.3960 C   0  0  0  0  0  0  0  0  0  0  0  0
  192.8740  176.9560  144.9780 C   0  0  0  0  0  2  0  0  0  0  0  0
  194.0140  174.4760  145.9560 C   0  0  0  0  0  3  0  0  0  0  0  0
  192.7430  174.5030  145.5390 C   0  0  0  0  0  3  0  0  0  0  0  0
  194.3700  176.8530  145.3530 C   0  0  0  0  0  2  0  0  0  0  0  0
  191.9890  175.8090  145.5100 C   0  0  2  0  0  0  0  0  0  0  0  0
  194.6680  175.7570  146.3790 C   0  0  0  0  0  2  0  0  0  0  0  0
  191.6020  176.1250  146.8030 F   0  0  0  0  0  0  0  0  0  0  0  0
  188.1610  176.9930  142.5960 C   0  0  0  0  0  2  0  0  0  0  0  0
  185.2700  177.4110  144.9030 N   0  0  0  0  0  2  0  0  0  0  0  0
  186.5380  176.8160  144.5320 C   0  0  0  0  0  2  0  0  0  0  0  0
  184.8290  178.3630  143.9560 C   0  0  0  0  0  0  0  0  0  0  0  0
  183.7870  179.0430  144.1400 O   0  0  0  0  0  0  0  0  0  0  0  0
  185.8920  178.6140  142.5580 S   0  0  0  0  0  0  0  0  0  0  0  0
  187.1930  177.7430  143.5060 C   0  0  2  0  0  3  0  0  0  0  0  0
  192.2930  170.3250  140.9030 N   0  0  0  0  0  2  0  0  0  0  0  0
  193.4610  170.9540  141.5030 C   0  0  1  0  0  3  0  0  0  0  0  0
  193.9740  170.1220  142.6900 C   0  0  0  0  0  2  0  0  0  0  0  0
  195.3860  170.4870  146.1470 C   0  0  0  0  0  2  0  0  0  0  0  0
  196.6500  171.3030  145.8680 C   0  0  0  0  0  2  0  0  0  0  0  0
  196.9210  171.4350  144.3610 C   0  0  0  0  0  2  0  0  0  0  0  0
  194.8460  170.8780  143.6990 C   0  0  2  0  0  3  0  0  0  0  0  0
  196.1960  170.4800  143.6270 O   0  0  0  0  0  0  0  0  0  0  0  0
  194.2840  170.7880  145.1300 C   0  0  0  0  0  2  0  0  0  0  0  0
  194.4630  171.1200  140.5370 O   0  0  0  0  0  0  0  0  0  0  0  0
  197.0170  172.1970  140.6870 O   0  0  0  0  0  0  0  0  0  0  0  0
  196.0360  172.9730  140.5310 C   0  0  0  0  0  0  0  0  0  0  0  0
  194.7070  172.4530  140.4970 N   0  0  0  0  0  2  0  0  0  0  0  0
  196.2490  174.4500  140.3910 C   0  0  2  0  0  3  0  0  0  0  0  0
  196.9530  176.7600  142.9300 C   0  0  0  0  0  2  0  0  0  0  0  0
  196.0550  174.6320  142.8950 C   0  0  0  0  0  2  0  0  0  0  0  0
  195.6570  175.2480  141.5640 C   0  0  1  0  0  3  0  0  0  0  0  0
  196.2400  176.6460  141.6010 C   0  0  0  0  0  2  0  0  0  0  0  0
  197.1510  175.4160  143.4420 N   0  0  0  0  0  2  0  0  0  0  0  0
  194.3280  175.2220  138.8460 C   0  0  0  0  0  1  0  0  0  0  0  0
  195.7760  174.9370  139.0460 C   0  0  0  0  0  0  0  0  0  0  0  0
  196.6270  175.1510  138.0400 C   0  0  0  0  0  2  0  0  0  0  0  0
  1  2  1  0  0  0  0
  2 29  1  0  0  0  0
  2  5  2  0  0  0  0
  3  1  2  0  0  0  0
  3  6  1  0  0  0  0
  4  5  1  0  0  0  0
  4 11  1  0  0  0  0
  6  4  2  0  0  0  0
  7  6  1  0  0  0  0
  8  9  1  0  0  0  0
  9 10  2  0  0  0  0
 10 19  1  0  0  0  0
 11 14  2  0  0  0  0
 12  8  1  0  0  0  0
 12 13  1  0  0  0  0
 13 10  1  0  0  0  0
 14 12  2  0  0  0  0
 15 18  1  0  0  0  0
 15 19  1  0  0  0  0
 16 20  1  0  0  0  0
 17 16  2  0  0  0  0
 18 20  1  0  0  0  0
 19 17  1  0  0  0  0
 19 21  1  1  0  0  0
 22  8  1  0  0  0  0
 24 23  1  0  0  0  0
 25 26  2  0  0  0  0
 25 23  1  0  0  0  0
 27 28  1  0  0  0  0
 27 25  1  0  0  0  0
 28 22  1  6  0  0  0
 28 24  1  0  0  0  0
 29 30  1  0  0  0  0
 30 31  1  1  0  0  0
 33 32  1  0  0  0  0
 34 33  1  0  0  0  0
 35 31  1  6  0  0  0
 35 37  1  0  0  0  0
 36 35  1  0  0  0  0
 36 34  1  0  0  0  0
 37 32  1  0  0  0  0
 38 30  1  0  0  0  0
 40 39  2  0  0  0  0
 41 40  1  0  0  0  0
 41 38  1  0  0  0  0
 42 49  1  6  0  0  0
 42 40  1  0  0  0  0
 43 47  1  0  0  0  0
 44 47  1  0  0  0  0
 45 42  1  6  0  0  0
 45 46  1  0  0  0  0
 45 44  1  0  0  0  0
 46 43  1  0  0  0  0
 48 49  1  0  0  0  0
 50 49  2  0  0  0  0
M  END
>  <MODEL>
6

>  <REMARK>
 VINA RESULT:      -7.6      3.119      8.970
  Name = 
  13 active torsions:
  status: ('A' for Active; 'I' for Inactive)
    1  A    between atoms: C_5  and  N_20
    2  A    between atoms: C_7  and  C_17
    3  A    between atoms: C_7  and  C_38
    4  A    between atoms: C_12  and  C_34
    5  A    between atoms: N_13  and  C_14
    6  A    between atoms: C_14  and  C_45
    7  A    between atoms: N_20  and  C_38
    8  A    between atoms: O_23  and  N_26
    9  A    between atoms: O_23  and  C_38
   10  A    between atoms: C_25  and  C_44
   11  A    between atoms: C_28  and  C_30
   12  A    between atoms: C_32  and  C_34
   13  A    between atoms: C_34  and  C_39
                            x       y       z     vdW  Elec       q    Type
                         _______ _______ _______ _____ _____    ______ ____

>  <TORSDO>
F 13

$$$$
=
 OpenBabel11062419163D

 50 55  0  0  1  0  0  0  0  0999 V2000
  192.5260  176.7790  145.8240 C   0  0  0  0  0  3  0  0  0  0  0  0
  192.3930  175.4850  146.3370 C   0  0  0  0  0  0  0  0  0  0  0  0
  193.6300  177.1200  145.1080 N   0  0  0  0  0  0  0  0  0  0  0  0
  194.5400  174.9180  145.3580 C   0  0  0  0  0  0  0  0  0  0  0  0
  193.4020  174.5580  146.0940 C   0  0  0  0  0  3  0  0  0  0  0  0
  194.6320  176.2300  144.8650 C   0  0  0  0  0  0  0  0  0  0  0  0
  195.7660  176.6460  144.1070 N   0  0  0  0  0  1  0  0  0  0  0  0
  196.2480  172.1780  142.0340 N   0  0  0  0  0  0  0  0  0  0  0  0
  195.5470  171.5020  141.0350 N   0  0  0  0  0  0  0  0  0  0  0  0
  194.4040  171.1300  141.5270 C   0  0  0  0  0  0  0  0  0  0  0  0
  195.6170  173.9400  145.1080 C   0  0  0  0  0  3  0  0  0  0  0  0
  195.4170  172.1930  143.1790 C   0  0  0  0  0  0  0  0  0  0  0  0
  194.1880  171.5470  142.8840 N   0  0  0  0  0  2  0  0  0  0  0  0
  195.5370  173.0560  144.1500 C   0  0  0  0  0  0  0  0  0  0  0  0
  192.7960  171.4350  139.6400 C   0  0  0  0  0  2  0  0  0  0  0  0
  191.0500  169.6490  141.1110 C   0  0  0  0  0  3  0  0  0  0  0  0
  192.2420  169.9800  141.6200 C   0  0  0  0  0  3  0  0  0  0  0  0
  191.3650  171.1270  139.1460 C   0  0  0  0  0  2  0  0  0  0  0  0
  193.3410  170.4630  140.7080 C   0  0  2  0  0  0  0  0  0  0  0  0
  190.8280  169.7780  139.6340 C   0  0  0  0  0  2  0  0  0  0  0  0
  193.8890  169.3690  140.0580 F   0  0  0  0  0  0  0  0  0  0  0  0
  197.5480  172.8160  141.8550 C   0  0  0  0  0  2  0  0  0  0  0  0
  195.8820  175.3420  139.6880 N   0  0  0  0  0  2  0  0  0  0  0  0
  196.0860  174.6800  140.9610 C   0  0  0  0  0  2  0  0  0  0  0  0
  196.7390  174.8430  138.6820 C   0  0  0  0  0  0  0  0  0  0  0  0
  196.7660  175.3440  137.5280 O   0  0  0  0  0  0  0  0  0  0  0  0
  197.8470  173.5490  139.1810 S   0  0  0  0  0  0  0  0  0  0  0  0
  197.4600  174.0100  140.9100 C   0  0  2  0  0  3  0  0  0  0  0  0
  191.2450  175.0840  147.0870 N   0  0  0  0  0  2  0  0  0  0  0  0
  189.9060  174.9620  146.5280 C   0  0  1  0  0  3  0  0  0  0  0  0
  189.7240  173.5950  145.8500 C   0  0  0  0  0  2  0  0  0  0  0  0
  188.9690  172.3470  142.3930 C   0  0  0  0  0  2  0  0  0  0  0  0
  189.5950  173.4490  141.5350 C   0  0  0  0  0  2  0  0  0  0  0  0
  190.0450  174.6470  142.3870 C   0  0  0  0  0  2  0  0  0  0  0  0
  190.0410  173.5520  144.3510 C   0  0  2  0  0  3  0  0  0  0  0  0
  189.4440  174.6230  143.6580 O   0  0  0  0  0  0  0  0  0  0  0  0
  189.7000  172.1860  143.7270 C   0  0  0  0  0  2  0  0  0  0  0  0
  188.9500  175.1540  147.5340 O   0  0  0  0  0  0  0  0  0  0  0  0
  188.8980  177.6950  146.4150 O   0  0  0  0  0  0  0  0  0  0  0  0
  187.8830  176.9570  146.3010 C   0  0  0  0  0  0  0  0  0  0  0  0
  187.8620  175.6640  146.9050 N   0  0  0  0  0  2  0  0  0  0  0  0
  186.6800  177.4300  145.5400 C   0  0  2  0  0  3  0  0  0  0  0  0
  185.6970  178.6110  142.3910 C   0  0  0  0  0  2  0  0  0  0  0  0
  187.6040  177.5900  143.2030 C   0  0  0  0  0  2  0  0  0  0  0  0
  187.0450  178.3710  144.3810 C   0  0  1  0  0  3  0  0  0  0  0  0
  185.8020  179.0460  143.8360 C   0  0  0  0  0  2  0  0  0  0  0  0
  186.5440  177.4440  142.2180 N   0  0  0  0  0  2  0  0  0  0  0  0
  186.0200  179.1670  147.3340 C   0  0  0  0  0  1  0  0  0  0  0  0
  185.6490  178.0110  146.4710 C   0  0  0  0  0  0  0  0  0  0  0  0
  184.4020  177.5380  146.5170 C   0  0  0  0  0  2  0  0  0  0  0  0
  1  2  1  0  0  0  0
  2 29  1  0  0  0  0
  3  1  2  0  0  0  0
  4  5  1  0  0  0  0
  5  2  2  0  0  0  0
  6  3  1  0  0  0  0
  6  4  2  0  0  0  0
  7  6  1  0  0  0  0
  8 12  1  0  0  0  0
  9 10  2  0  0  0  0
  9  8  1  0  0  0  0
 10 13  1  0  0  0  0
 11  4  1  0  0  0  0
 12 14  2  0  0  0  0
 13 12  1  0  0  0  0
 14 11  2  0  0  0  0
 15 19  1  0  0  0  0
 16 17  2  0  0  0  0
 18 20  1  0  0  0  0
 18 15  1  0  0  0  0
 19 21  1  6  0  0  0
 19 10  1  0  0  0  0
 19 17  1  0  0  0  0
 20 16  1  0  0  0  0
 22  8  1  0  0  0  0
 23 24  1  0  0  0  0
 25 27  1  0  0  0  0
 25 23  1  0  0  0  0
 26 25  2  0  0  0  0
 27 28  1  0  0  0  0
 28 24  1  0  0  0  0
 28 22  1  1  0  0  0
 30 31  1  1  0  0  0
 30 29  1  0  0  0  0
 30 38  1  0  0  0  0
 32 37  1  0  0  0  0
 33 34  1  0  0  0  0
 33 32  1  0  0  0  0
 34 36  1  0  0  0  0
 35 31  1  1  0  0  0
 36 35  1  0  0  0  0
 37 35  1  0  0  0  0
 40 39  2  0  0  0  0
 40 41  1  0  0  0  0
 41 38  1  0  0  0  0
 42 40  1  1  0  0  0
 42 49  1  0  0  0  0
 43 46  1  0  0  0  0
 44 45  1  0  0  0  0
 45 42  1  1  0  0  0
 46 45  1  0  0  0  0
 47 43  1  0  0  0  0
 47 44  1  0  0  0  0
 49 50  2  0  0  0  0
 49 48  1  0  0  0  0
M  END
>  <MODEL>
7

>  <REMARK>
 VINA RESULT:      -7.4      2.182      3.874
  Name = 
  13 active torsions:
  status: ('A' for Active; 'I' for Inactive)
    1  A    between atoms: C_5  and  N_20
    2  A    between atoms: C_7  and  C_17
    3  A    between atoms: C_7  and  C_38
    4  A    between atoms: C_12  and  C_34
    5  A    between atoms: N_13  and  C_14
    6  A    between atoms: C_14  and  C_45
    7  A    between atoms: N_20  and  C_38
    8  A    between atoms: O_23  and  N_26
    9  A    between atoms: O_23  and  C_38
   10  A    between atoms: C_25  and  C_44
   11  A    between atoms: C_28  and  C_30
   12  A    between atoms: C_32  and  C_34
   13  A    between atoms: C_34  and  C_39
                            x       y       z     vdW  Elec       q    Type
                         _______ _______ _______ _____ _____    ______ ____

>  <TORSDO>
F 13

$$$$
=
 OpenBabel11062419163D

 50 55  0  0  1  0  0  0  0  0999 V2000
  191.7810  172.4530  137.9700 C   0  0  0  0  0  3  0  0  0  0  0  0
  191.7610  172.4460  139.3680 C   0  0  0  0  0  0  0  0  0  0  0  0
  190.7630  173.0280  137.2750 N   0  0  0  0  0  0  0  0  0  0  0  0
  189.6430  173.6300  139.3040 C   0  0  0  0  0  0  0  0  0  0  0  0
  190.6890  173.0420  140.0280 C   0  0  0  0  0  3  0  0  0  0  0  0
  189.7040  173.6110  137.9010 C   0  0  0  0  0  0  0  0  0  0  0  0
  188.6660  174.1970  137.1190 N   0  0  0  0  0  1  0  0  0  0  0  0
  188.6430  176.9870  142.3380 N   0  0  0  0  0  0  0  0  0  0  0  0
  189.4060  177.4150  143.4250 N   0  0  0  0  0  0  0  0  0  0  0  0
  190.0130  176.3810  143.9230 C   0  0  0  0  0  0  0  0  0  0  0  0
  188.5010  174.2520  140.0030 C   0  0  0  0  0  3  0  0  0  0  0  0
  188.8540  175.5930  142.2140 C   0  0  0  0  0  0  0  0  0  0  0  0
  189.7680  175.1590  143.2100 N   0  0  0  0  0  2  0  0  0  0  0  0
  188.6550  174.9260  141.1110 C   0  0  0  0  0  0  0  0  0  0  0  0
  192.3040  177.1510  144.5560 C   0  0  0  0  0  2  0  0  0  0  0  0
  192.3430  174.8810  146.3600 C   0  0  0  0  0  3  0  0  0  0  0  0
  191.2720  175.0970  145.5880 C   0  0  0  0  0  3  0  0  0  0  0  0
  193.5670  176.7970  145.3730 C   0  0  0  0  0  2  0  0  0  0  0  0
  191.0030  176.4770  145.0440 C   0  0  2  0  0  0  0  0  0  0  0  0
  193.2660  176.0240  146.6600 C   0  0  0  0  0  2  0  0  0  0  0  0
  190.4660  177.2550  146.0570 F   0  0  0  0  0  0  0  0  0  0  0  0
  187.8690  177.8630  141.4650 C   0  0  0  0  0  2  0  0  0  0  0  0
  184.2820  178.1160  140.5060 N   0  0  0  0  0  2  0  0  0  0  0  0
  185.6820  177.9200  140.1900 C   0  0  0  0  0  2  0  0  0  0  0  0
  184.0660  178.2930  141.8910 C   0  0  0  0  0  0  0  0  0  0  0  0
  182.9080  178.4000  142.3710 O   0  0  0  0  0  0  0  0  0  0  0  0
  185.5160  178.2410  142.9130 S   0  0  0  0  0  0  0  0  0  0  0  0
  186.3870  177.5030  141.4820 C   0  0  2  0  0  3  0  0  0  0  0  0
  192.8130  171.8610  140.1360 N   0  0  0  0  0  2  0  0  0  0  0  0
  194.2290  172.0400  139.8500 C   0  0  1  0  0  3  0  0  0  0  0  0
  194.5430  173.5180  139.5670 C   0  0  0  0  0  2  0  0  0  0  0  0
  195.7000  173.4650  135.9990 C   0  0  0  0  0  2  0  0  0  0  0  0
  196.8000  174.5300  136.0270 C   0  0  0  0  0  2  0  0  0  0  0  0
  196.8200  175.2910  137.3610 C   0  0  0  0  0  2  0  0  0  0  0  0
  195.6280  173.7750  138.5150 C   0  0  2  0  0  3  0  0  0  0  0  0
  195.6190  175.1110  138.0700 O   0  0  0  0  0  0  0  0  0  0  0  0
  195.5560  172.7680  137.3530 C   0  0  0  0  0  2  0  0  0  0  0  0
  194.9960  171.5610  140.9210 O   0  0  0  0  0  0  0  0  0  0  0  0
  196.9060  171.8600  142.9140 O   0  0  0  0  0  0  0  0  0  0  0  0
  195.9490  172.6790  142.8580 C   0  0  0  0  0  0  0  0  0  0  0  0
  194.9270  172.5240  141.8730 N   0  0  0  0  0  2  0  0  0  0  0  0
  195.8650  173.8180  143.8280 C   0  0  2  0  0  3  0  0  0  0  0  0
  196.5700  176.7890  142.1110 C   0  0  0  0  0  2  0  0  0  0  0  0
  197.5700  174.7090  142.2050 C   0  0  0  0  0  2  0  0  0  0  0  0
  196.9270  174.8970  143.5690 C   0  0  1  0  0  3  0  0  0  0  0  0
  196.2840  176.2680  143.5010 C   0  0  0  0  0  2  0  0  0  0  0  0
  196.9620  175.6600  141.2880 N   0  0  0  0  0  2  0  0  0  0  0  0
  196.9510  173.7530  146.1710 C   0  0  0  0  0  1  0  0  0  0  0  0
  195.8660  173.3160  145.2490 C   0  0  0  0  0  0  0  0  0  0  0  0
  194.9010  172.5170  145.7090 C   0  0  0  0  0  2  0  0  0  0  0  0
  1  2  1  0  0  0  0
  2  5  2  0  0  0  0
  2 29  1  0  0  0  0
  3  6  1  0  0  0  0
  3  1  2  0  0  0  0
  4 11  1  0  0  0  0
  4  5  1  0  0  0  0
  6  4  2  0  0  0  0
  7  6  1  0  0  0  0
  8  9  1  0  0  0  0
  9 10  2  0  0  0  0
 10 19  1  0  0  0  0
 11 14  2  0  0  0  0
 12  8  1  0  0  0  0
 12 13  1  0  0  0  0
 13 10  1  0  0  0  0
 14 12  2  0  0  0  0
 15 19  1  0  0  0  0
 15 18  1  0  0  0  0
 16 20  1  0  0  0  0
 17 16  2  0  0  0  0
 18 20  1  0  0  0  0
 19 17  1  0  0  0  0
 19 21  1  1  0  0  0
 22  8  1  0  0  0  0
 23 25  1  0  0  0  0
 24 23  1  0  0  0  0
 24 28  1  0  0  0  0
 25 26  2  0  0  0  0
 25 27  1  0  0  0  0
 28 22  1  6  0  0  0
 28 27  1  0  0  0  0
 30 31  1  1  0  0  0
 30 29  1  0  0  0  0
 30 38  1  0  0  0  0
 32 33  1  0  0  0  0
 32 37  1  0  0  0  0
 33 34  1  0  0  0  0
 34 36  1  0  0  0  0
 35 31  1  1  0  0  0
 36 35  1  0  0  0  0
 37 35  1  0  0  0  0
 38 41  1  0  0  0  0
 40 39  2  0  0  0  0
 41 40  1  0  0  0  0
 42 40  1  6  0  0  0
 42 49  1  0  0  0  0
 43 46  1  0  0  0  0
 44 45  1  0  0  0  0
 45 42  1  6  0  0  0
 46 45  1  0  0  0  0
 47 43  1  0  0  0  0
 47 44  1  0  0  0  0
 49 50  2  0  0  0  0
 49 48  1  0  0  0  0
M  END
>  <MODEL>
8

>  <REMARK>
 VINA RESULT:      -7.4      3.496      9.095
  Name = 
  13 active torsions:
  status: ('A' for Active; 'I' for Inactive)
    1  A    between atoms: C_5  and  N_20
    2  A    between atoms: C_7  and  C_17
    3  A    between atoms: C_7  and  C_38
    4  A    between atoms: C_12  and  C_34
    5  A    between atoms: N_13  and  C_14
    6  A    between atoms: C_14  and  C_45
    7  A    between atoms: N_20  and  C_38
    8  A    between atoms: O_23  and  N_26
    9  A    between atoms: O_23  and  C_38
   10  A    between atoms: C_25  and  C_44
   11  A    between atoms: C_28  and  C_30
   12  A    between atoms: C_32  and  C_34
   13  A    between atoms: C_34  and  C_39
                            x       y       z     vdW  Elec       q    Type
                         _______ _______ _______ _____ _____    ______ ____

>  <TORSDO>
F 13

$$$$
=
 OpenBabel11062419163D

 50 55  0  0  1  0  0  0  0  0999 V2000
  192.0680  175.8410  147.6330 C   0  0  0  0  0  3  0  0  0  0  0  0
  192.8830  176.2050  146.5570 C   0  0  0  0  0  0  0  0  0  0  0  0
  190.7490  176.1740  147.6350 N   0  0  0  0  0  0  0  0  0  0  0  0
  190.9590  177.2450  145.5030 C   0  0  0  0  0  0  0  0  0  0  0  0
  192.3190  176.9030  145.4920 C   0  0  0  0  0  3  0  0  0  0  0  0
  190.1800  176.8610  146.6070 C   0  0  0  0  0  0  0  0  0  0  0  0
  188.7920  177.1820  146.6650 N   0  0  0  0  0  1  0  0  0  0  0  0
  187.8480  176.7980  142.0980 N   0  0  0  0  0  0  0  0  0  0  0  0
  187.5430  175.6550  141.3600 N   0  0  0  0  0  0  0  0  0  0  0  0
  188.6370  174.9730  141.2030 C   0  0  0  0  0  0  0  0  0  0  0  0
  190.3620  177.9930  144.3800 C   0  0  0  0  0  3  0  0  0  0  0  0
  189.2320  176.7420  142.3880 C   0  0  0  0  0  0  0  0  0  0  0  0
  189.7830  175.5490  141.8500 N   0  0  0  0  0  2  0  0  0  0  0  0
  189.7930  177.3870  143.3730 C   0  0  0  0  0  0  0  0  0  0  0  0
  190.0280  172.9350  140.8070 C   0  0  0  0  0  2  0  0  0  0  0  0
  188.7190  172.7980  138.2230 C   0  0  0  0  0  3  0  0  0  0  0  0
  188.4210  173.7920  139.0670 C   0  0  0  0  0  3  0  0  0  0  0  0
  190.4330  171.8760  139.7580 C   0  0  0  0  0  2  0  0  0  0  0  0
  188.6730  173.6280  140.5440 C   0  0  2  0  0  0  0  0  0  0  0  0
  189.3140  171.5350  138.7700 C   0  0  0  0  0  2  0  0  0  0  0  0
  187.6710  172.8340  141.0780 F   0  0  0  0  0  0  0  0  0  0  0  0
  186.8730  177.7870  142.5460 C   0  0  0  0  0  2  0  0  0  0  0  0
  185.2860  176.7920  145.7620 N   0  0  0  0  0  2  0  0  0  0  0  0
  185.9390  176.4830  144.5050 C   0  0  0  0  0  2  0  0  0  0  0  0
  185.1600  178.1830  145.9720 C   0  0  0  0  0  0  0  0  0  0  0  0
  184.6910  178.6500  147.0410 O   0  0  0  0  0  0  0  0  0  0  0  0
  185.8080  179.2220  144.6860 S   0  0  0  0  0  0  0  0  0  0  0  0
  186.6850  177.7420  144.0590 C   0  0  2  0  0  3  0  0  0  0  0  0
  194.2700  175.8680  146.5110 N   0  0  0  0  0  2  0  0  0  0  0  0
  194.8780  175.0500  145.4710 C   0  0  1  0  0  3  0  0  0  0  0  0
  195.4530  175.9350  144.3530 C   0  0  0  0  0  2  0  0  0  0  0  0
  193.2520  174.9220  141.4880 C   0  0  0  0  0  2  0  0  0  0  0  0
  194.2090  175.0850  140.3060 C   0  0  0  0  0  2  0  0  0  0  0  0
  195.5210  175.7670  140.7250 C   0  0  0  0  0  2  0  0  0  0  0  0
  195.2860  175.3930  142.9290 C   0  0  2  0  0  3  0  0  0  0  0  0
  195.3840  176.4160  141.9650 O   0  0  0  0  0  0  0  0  0  0  0  0
  193.9990  174.5620  142.7740 C   0  0  0  0  0  2  0  0  0  0  0  0
  195.8720  174.2340  146.0270 O   0  0  0  0  0  0  0  0  0  0  0  0
  197.5860  172.3100  144.9930 O   0  0  0  0  0  0  0  0  0  0  0  0
  196.4020  171.9840  145.2730 C   0  0  0  0  0  0  0  0  0  0  0  0
  195.4840  172.9620  145.7620 N   0  0  0  0  0  2  0  0  0  0  0  0
  195.9370  170.5710  145.0860 C   0  0  2  0  0  3  0  0  0  0  0  0
  193.0940  168.5740  144.6320 C   0  0  0  0  0  2  0  0  0  0  0  0
  193.5420  170.8230  144.3510 C   0  0  0  0  0  2  0  0  0  0  0  0
  194.4630  170.3770  145.4750 C   0  0  1  0  0  3  0  0  0  0  0  0
  194.1530  168.9040  145.6590 C   0  0  0  0  0  2  0  0  0  0  0  0
  193.0920  169.6360  143.6420 N   0  0  0  0  0  2  0  0  0  0  0  0
  196.8160  169.4900  147.2620 C   0  0  0  0  0  1  0  0  0  0  0  0
  196.8630  169.6040  145.7770 C   0  0  0  0  0  0  0  0  0  0  0  0
  197.6990  168.8240  145.0890 C   0  0  0  0  0  2  0  0  0  0  0  0
  1  3  1  0  0  0  0
  2  1  2  0  0  0  0
  4  6  1  0  0  0  0
  5  4  2  0  0  0  0
  5  2  1  0  0  0  0
  6  7  1  0  0  0  0
  6  3  2  0  0  0  0
  8 12  1  0  0  0  0
  8 22  1  0  0  0  0
  9  8  1  0  0  0  0
 10  9  2  0  0  0  0
 10 13  1  0  0  0  0
 11  4  1  0  0  0  0
 12 14  2  0  0  0  0
 13 12  1  0  0  0  0
 14 11  2  0  0  0  0
 16 20  1  0  0  0  0
 16 17  2  0  0  0  0
 17 19  1  0  0  0  0
 18 15  1  0  0  0  0
 19 15  1  0  0  0  0
 19 21  1  1  0  0  0
 19 10  1  0  0  0  0
 20 18  1  0  0  0  0
 23 25  1  0  0  0  0
 24 23  1  0  0  0  0
 25 26  2  0  0  0  0
 27 25  1  0  0  0  0
 28 22  1  6  0  0  0
 28 24  1  0  0  0  0
 28 27  1  0  0  0  0
 29  2  1  0  0  0  0
 30 31  1  6  0  0  0
 30 38  1  0  0  0  0
 30 29  1  0  0  0  0
 32 37  1  0  0  0  0
 33 34  1  0  0  0  0
 33 32  1  0  0  0  0
 34 36  1  0  0  0  0
 35 31  1  1  0  0  0
 36 35  1  0  0  0  0
 37 35  1  0  0  0  0
 39 40  2  0  0  0  0
 40 41  1  0  0  0  0
 41 38  1  0  0  0  0
 42 40  1  1  0  0  0
 42 49  1  0  0  0  0
 43 46  1  0  0  0  0
 44 45  1  0  0  0  0
 45 42  1  6  0  0  0
 45 46  1  0  0  0  0
 47 44  1  0  0  0  0
 47 43  1  0  0  0  0
 49 48  1  0  0  0  0
 50 49  2  0  0  0  0
M  END
>  <MODEL>
9

>  <REMARK>
 VINA RESULT:      -7.4      3.169      9.067
  Name = 
  13 active torsions:
  status: ('A' for Active; 'I' for Inactive)
    1  A    between atoms: C_5  and  N_20
    2  A    between atoms: C_7  and  C_17
    3  A    between atoms: C_7  and  C_38
    4  A    between atoms: C_12  and  C_34
    5  A    between atoms: N_13  and  C_14
    6  A    between atoms: C_14  and  C_45
    7  A    between atoms: N_20  and  C_38
    8  A    between atoms: O_23  and  N_26
    9  A    between atoms: O_23  and  C_38
   10  A    between atoms: C_25  and  C_44
   11  A    between atoms: C_28  and  C_30
   12  A    between atoms: C_32  and  C_34
   13  A    between atoms: C_34  and  C_39
                            x       y       z     vdW  Elec       q    Type
                         _______ _______ _______ _____ _____    ______ ____

>  <TORSDO>
F 13

$$$$
