=
 OpenBabel11062421163D

 56 62  0  0  1  0  0  0  0  0999 V2000
  191.2780  174.4670  142.1110 C   0  0  1  0  0  3  0  0  0  0  0  0
  191.0430  175.5230  146.8930 C   0  0  2  0  0  3  0  0  0  0  0  0
  188.9630  177.1780  145.6250 C   0  0  0  0  0  2  0  0  0  0  0  0
  186.2700  180.5560  147.6490 O   0  0  0  0  0  0  0  0  0  0  0  0
  187.2160  176.0380  147.0520 C   0  0  0  0  0  2  0  0  0  0  0  0
  185.8340  177.0690  144.3720 C   0  0  0  0  0  0  0  0  0  0  0  0
  185.8070  175.8070  144.3450 O   0  0  0  0  0  0  0  0  0  0  0  0
  189.5530  175.2710  147.1490 C   0  0  0  0  0  2  0  0  0  0  0  0
  193.0920  174.5600  145.8240 C   0  0  0  0  0  2  0  0  0  0  0  0
  191.3040  176.8650  146.3510 N   0  0  0  0  0  2  0  0  0  0  0  0
  190.0870  172.2830  142.1620 C   0  0  0  0  0  2  0  0  0  0  0  0
  191.5860  174.4380  145.9730 C   0  0  0  0  0  2  0  0  0  0  0  0
  193.5580  173.7630  144.6170 C   0  0  1  0  0  3  0  0  0  0  0  0
  193.5670  174.6300  143.3400 C   0  0  1  0  0  3  0  0  0  0  0  0
  188.9460  177.4040  148.0060 O   0  0  0  0  0  1  0  0  0  0  0  0
  190.4350  177.1270  145.2040 C   0  0  0  0  0  2  0  0  0  0  0  0
  189.8520  175.0190  142.1770 C   0  0  0  0  0  2  0  0  0  0  0  0
  186.2180  179.4420  147.1570 C   0  0  0  0  0  0  0  0  0  0  0  0
  186.8720  178.6460  141.3380 O   0  0  0  0  0  0  0  0  0  0  0  0
  187.0450  176.3620  141.7290 N   0  0  0  0  0  2  0  0  0  0  0  0
  188.1930  174.8810  140.2140 C   0  0  0  0  0  0  0  0  0  0  0  0
  189.0420  174.2190  141.2150 C   0  0  0  0  0  0  0  0  0  0  0  0
  194.8390  173.2800  144.8760 O   0  0  0  0  0  1  0  0  0  0  0  0
  193.7180  172.5130  141.9350 C   0  0  0  0  0  2  0  0  0  0  0  0
  192.3010  172.4700  141.3820 C   0  0  0  0  0  2  0  0  0  0  0  0
  186.1040  177.0940  146.9100 C   0  0  1  0  0  3  0  0  0  0  0  0
  186.1710  179.2010  145.7000 C   0  0  0  0  0  2  0  0  0  0  0  0
  194.2030  173.9540  142.1030 C   0  0  2  0  0  3  0  0  0  0  0  0
  188.6750  176.5080  146.9730 C   0  0  1  0  0  0  0  0  0  0  0  0
  186.1860  178.1940  147.9650 C   0  0  0  0  0  2  0  0  0  0  0  0
  187.5750  176.0980  140.4860 O   0  0  0  0  0  0  0  0  0  0  0  0
  192.1960  175.2610  143.0390 C   0  0  0  0  0  2  0  0  0  0  0  0
  186.5360  177.6580  142.0420 C   0  0  0  0  0  0  0  0  0  0  0  0
  189.2180  172.9340  141.1790 N   0  0  0  0  0  0  0  0  0  0  0  0
  191.3580  173.0090  142.3540 N   0  0  1  0  0  0  0  0  0  0  0  0
  186.1060  177.7540  145.6020 N   0  0  0  0  0  0  0  0  0  0  0  0
  185.5190  177.8460  143.1290 C   0  0  1  0  0  3  0  0  0  0  0  0
  188.0400  174.3550  139.0810 O   0  0  0  0  0  0  0  0  0  0  0  0
  196.6020  172.4810  140.5460 O   0  0  0  0  0  0  0  0  0  0  0  0
  196.4740  176.0380  140.1490 C   0  0  0  0  0  3  0  0  0  0  0  0
  195.9260  176.4540  141.4860 C   0  0  0  0  0  2  0  0  0  0  0  0
  196.2370  175.4150  142.5620 C   0  0  0  0  0  2  0  0  0  0  0  0
  196.3350  173.6870  140.7900 C   0  0  0  0  0  0  0  0  0  0  0  0
  195.7390  174.0300  142.1280 C   0  0  2  0  0  3  0  0  0  0  0  0
  196.6270  174.7530  139.7870 C   0  0  0  0  0  0  0  0  0  0  0  0
  197.2140  173.1010  135.5750 C   0  0  0  0  0  3  0  0  0  0  0  0
  197.9410  175.3680  136.1780 C   0  0  0  0  0  2  0  0  0  0  0  0
  197.9410  172.5850  136.7720 C   0  0  0  0  0  2  0  0  0  0  0  0
  197.1960  174.4070  135.3110 C   0  0  0  0  0  3  0  0  0  0  0  0
  197.3970  175.4410  137.5740 C   0  0  0  0  0  3  0  0  0  0  0  0
  197.1790  172.9540  138.0330 C   0  0  0  0  0  2  0  0  0  0  0  0
  197.1310  174.4250  138.4210 C   0  0  0  0  0  0  0  0  0  0  0  0
  184.2200  177.4980  142.6580 O   0  0  0  0  0  0  0  0  0  0  0  0
  183.3990  178.4120  141.9980 C   0  0  0  0  0  0  0  0  0  0  0  0
  182.5010  179.0410  142.6180 O   0  0  0  0  0  0  0  0  0  0  0  0
  183.5690  178.6240  140.6030 N   0  0  0  0  0  1  0  0  0  0  0  0
  1 17  1  1  0  0  0
  1 35  1  0  0  0  0
  1 32  1  0  0  0  0
  2 12  1  6  0  0  0
  2  8  1  0  0  0  0
  3 29  1  0  0  0  0
  6 36  1  0  0  0  0
  7  6  2  0  0  0  0
  9 12  1  0  0  0  0
 10  2  1  0  0  0  0
 11 35  1  0  0  0  0
 13 23  1  1  0  0  0
 13  9  1  0  0  0  0
 14 32  1  6  0  0  0
 14 13  1  0  0  0  0
 16  3  1  0  0  0  0
 16 10  1  0  0  0  0
 18  4  2  0  0  0  0
 18 30  1  0  0  0  0
 19 33  2  0  0  0  0
 20 33  1  0  0  0  0
 21 31  1  0  0  0  0
 21 22  1  0  0  0  0
 22 17  1  0  0  0  0
 25 24  1  0  0  0  0
 26  5  1  6  0  0  0
 26 30  1  0  0  0  0
 27 18  1  0  0  0  0
 28 24  1  1  0  0  0
 28 44  1  0  0  0  0
 28 14  1  0  0  0  0
 29  5  1  0  0  0  0
 29  8  1  0  0  0  0
 29 15  1  1  0  0  0
 31 20  1  0  0  0  0
 33 37  1  0  0  0  0
 34 22  2  0  0  0  0
 34 11  1  0  0  0  0
 35 25  1  6  0  0  0
 36 27  1  0  0  0  0
 36 26  1  0  0  0  0
 37 53  1  6  0  0  0
 37  6  1  0  0  0  0
 38 21  2  0  0  0  0
 39 43  2  0  0  0  0
 40 41  1  0  0  0  0
 41 42  1  0  0  0  0
 43 44  1  0  0  0  0
 44 42  1  6  0  0  0
 45 40  2  0  0  0  0
 45 43  1  0  0  0  0
 46 48  1  0  0  0  0
 47 50  1  0  0  0  0
 48 51  1  0  0  0  0
 49 46  2  0  0  0  0
 49 47  1  0  0  0  0
 50 52  2  0  0  0  0
 51 52  1  0  0  0  0
 52 45  1  0  0  0  0
 54 55  2  0  0  0  0
 54 53  1  0  0  0  0
 56 54  1  0  0  0  0
M  END
>  <MODEL>
1

>  <REMARK>
 VINA RESULT:      -9.3      0.000      0.000
  Name = 
  4 active torsions:
  status: ('A' for Active; 'I' for Inactive)
    1  A    between atoms: C_6  and  O_14
    2  A    between atoms: O_14  and  C_55
    3  A    between atoms: C_41  and  C_48
    4  A    between atoms: C_52  and  C_53
                            x       y       z     vdW  Elec       q    Type
                         _______ _______ _______ _____ _____    ______ ____

>  <TORSDO>
F 4

$$$$
=
 OpenBabel11062421163D

 56 62  0  0  1  0  0  0  0  0999 V2000
  191.1880  174.5290  141.9150 C   0  0  1  0  0  3  0  0  0  0  0  0
  191.0850  175.5080  146.7180 C   0  0  2  0  0  3  0  0  0  0  0  0
  188.9550  177.1650  145.5390 C   0  0  0  0  0  2  0  0  0  0  0  0
  186.2950  180.4860  147.6940 O   0  0  0  0  0  0  0  0  0  0  0  0
  187.2600  175.9870  146.9970 C   0  0  0  0  0  2  0  0  0  0  0  0
  185.7910  177.0480  144.3760 C   0  0  0  0  0  0  0  0  0  0  0  0
  185.7740  175.7870  144.3290 O   0  0  0  0  0  0  0  0  0  0  0  0
  189.6050  175.2380  147.0130 C   0  0  0  0  0  2  0  0  0  0  0  0
  193.1090  174.5790  145.5750 C   0  0  0  0  0  2  0  0  0  0  0  0
  191.3180  176.8600  146.1900 N   0  0  0  0  0  2  0  0  0  0  0  0
  190.0170  172.3350  141.9650 C   0  0  0  0  0  2  0  0  0  0  0  0
  191.6090  174.4420  145.7660 C   0  0  0  0  0  2  0  0  0  0  0  0
  193.5460  173.8050  144.3420 C   0  0  1  0  0  3  0  0  0  0  0  0
  193.5110  174.6920  143.0790 C   0  0  1  0  0  3  0  0  0  0  0  0
  189.0060  177.3520  147.9220 O   0  0  0  0  0  1  0  0  0  0  0  0
  190.4140  177.1320  145.0740 C   0  0  0  0  0  2  0  0  0  0  0  0
  189.7600  175.0680  142.0320 C   0  0  0  0  0  2  0  0  0  0  0  0
  186.2370  179.3800  147.1860 C   0  0  0  0  0  0  0  0  0  0  0  0
  186.7280  178.6830  141.3390 O   0  0  0  0  0  0  0  0  0  0  0  0
  186.9310  176.3940  141.6870 N   0  0  0  0  0  2  0  0  0  0  0  0
  188.0460  174.9470  140.1160 C   0  0  0  0  0  0  0  0  0  0  0  0
  188.9290  174.2760  141.0800 C   0  0  0  0  0  0  0  0  0  0  0  0
  194.8380  173.3290  144.5550 O   0  0  0  0  0  1  0  0  0  0  0  0
  193.6370  172.6000  141.6360 C   0  0  0  0  0  2  0  0  0  0  0  0
  192.2060  172.5530  141.1240 C   0  0  0  0  0  2  0  0  0  0  0  0
  186.1350  177.0360  146.9040 C   0  0  1  0  0  3  0  0  0  0  0  0
  186.1500  179.1620  145.7270 C   0  0  0  0  0  2  0  0  0  0  0  0
  194.1150  174.0420  141.8140 C   0  0  2  0  0  3  0  0  0  0  0  0
  188.7120  176.4710  146.8830 C   0  0  1  0  0  0  0  0  0  0  0  0
  186.2400  178.1190  147.9750 C   0  0  0  0  0  2  0  0  0  0  0  0
  187.4260  176.1550  140.4250 O   0  0  0  0  0  0  0  0  0  0  0  0
  192.1260  175.3160  142.8280 C   0  0  0  0  0  2  0  0  0  0  0  0
  186.4200  177.6800  142.0350 C   0  0  0  0  0  0  0  0  0  0  0  0
  189.1150  172.9940  141.0190 N   0  0  0  0  0  0  0  0  0  0  0  0
  191.2870  173.0690  142.1320 N   0  0  1  0  0  0  0  0  0  0  0  0
  186.0940  177.7160  145.6080 N   0  0  0  0  0  0  0  0  0  0  0  0
  185.4340  177.8420  143.1550 C   0  0  1  0  0  3  0  0  0  0  0  0
  187.8630  174.4380  138.9790 O   0  0  0  0  0  0  0  0  0  0  0  0
  196.5380  171.9260  141.7570 O   0  0  0  0  0  0  0  0  0  0  0  0
  196.4160  174.1900  138.9850 C   0  0  0  0  0  3  0  0  0  0  0  0
  195.8480  175.4160  139.6430 C   0  0  0  0  0  2  0  0  0  0  0  0
  196.1430  175.4290  141.1420 C   0  0  0  0  0  2  0  0  0  0  0  0
  196.2680  172.9560  141.0860 C   0  0  0  0  0  0  0  0  0  0  0  0
  195.6510  174.1310  141.7950 C   0  0  2  0  0  3  0  0  0  0  0  0
  196.5750  173.0200  139.6260 C   0  0  0  0  0  0  0  0  0  0  0  0
  197.2290  168.9000  137.7800 C   0  0  0  0  0  3  0  0  0  0  0  0
  197.9410  170.9490  136.6300 C   0  0  0  0  0  2  0  0  0  0  0  0
  197.9400  169.3770  139.0020 C   0  0  0  0  0  2  0  0  0  0  0  0
  197.2120  169.6470  136.6770 C   0  0  0  0  0  3  0  0  0  0  0  0
  197.3760  171.9720  137.5710 C   0  0  0  0  0  3  0  0  0  0  0  0
  197.1570  170.5150  139.6380 C   0  0  0  0  0  2  0  0  0  0  0  0
  197.1000  171.8360  138.8850 C   0  0  0  0  0  0  0  0  0  0  0  0
  184.1250  177.4900  142.7160 O   0  0  0  0  0  0  0  0  0  0  0  0
  183.2510  178.4250  142.1610 C   0  0  0  0  0  0  0  0  0  0  0  0
  182.5400  179.1620  142.8940 O   0  0  0  0  0  0  0  0  0  0  0  0
  183.1510  178.5350  140.7480 N   0  0  0  0  0  1  0  0  0  0  0  0
  1 17  1  1  0  0  0
  1 35  1  0  0  0  0
  1 32  1  0  0  0  0
  2 12  1  6  0  0  0
  2  8  1  0  0  0  0
  3 29  1  0  0  0  0
  6 36  1  0  0  0  0
  7  6  2  0  0  0  0
  9 12  1  0  0  0  0
 10  2  1  0  0  0  0
 11 35  1  0  0  0  0
 13 23  1  1  0  0  0
 13  9  1  0  0  0  0
 14 32  1  6  0  0  0
 14 13  1  0  0  0  0
 16  3  1  0  0  0  0
 16 10  1  0  0  0  0
 18  4  2  0  0  0  0
 18 30  1  0  0  0  0
 19 33  2  0  0  0  0
 20 33  1  0  0  0  0
 21 31  1  0  0  0  0
 21 22  1  0  0  0  0
 22 17  1  0  0  0  0
 25 24  1  0  0  0  0
 26  5  1  6  0  0  0
 26 30  1  0  0  0  0
 27 18  1  0  0  0  0
 28 24  1  1  0  0  0
 28 14  1  0  0  0  0
 29  5  1  0  0  0  0
 29  8  1  0  0  0  0
 29 15  1  1  0  0  0
 31 20  1  0  0  0  0
 33 37  1  0  0  0  0
 34 22  2  0  0  0  0
 34 11  1  0  0  0  0
 35 25  1  6  0  0  0
 36 27  1  0  0  0  0
 36 26  1  0  0  0  0
 37 53  1  6  0  0  0
 37  6  1  0  0  0  0
 38 21  2  0  0  0  0
 40 45  2  0  0  0  0
 40 41  1  0  0  0  0
 41 42  1  0  0  0  0
 43 39  2  0  0  0  0
 43 44  1  0  0  0  0
 44 42  1  6  0  0  0
 44 28  1  0  0  0  0
 45 43  1  0  0  0  0
 46 48  1  0  0  0  0
 47 49  1  0  0  0  0
 47 50  1  0  0  0  0
 48 51  1  0  0  0  0
 49 46  2  0  0  0  0
 50 52  2  0  0  0  0
 52 45  1  0  0  0  0
 52 51  1  0  0  0  0
 54 53  1  0  0  0  0
 54 55  2  0  0  0  0
 56 54  1  0  0  0  0
M  END
>  <MODEL>
2

>  <REMARK>
 VINA RESULT:      -8.3      1.054      1.512
  Name = 
  4 active torsions:
  status: ('A' for Active; 'I' for Inactive)
    1  A    between atoms: C_6  and  O_14
    2  A    between atoms: O_14  and  C_55
    3  A    between atoms: C_41  and  C_48
    4  A    between atoms: C_52  and  C_53
                            x       y       z     vdW  Elec       q    Type
                         _______ _______ _______ _____ _____    ______ ____

>  <TORSDO>
F 4

$$$$
=
 OpenBabel11062421163D

 56 62  0  0  1  0  0  0  0  0999 V2000
  192.6560  173.5300  142.0790 C   0  0  1  0  0  3  0  0  0  0  0  0
  188.0870  174.7470  140.7830 C   0  0  2  0  0  3  0  0  0  0  0  0
  188.2360  175.2500  143.6810 C   0  0  0  0  0  2  0  0  0  0  0  0
  184.6920  176.4820  146.6260 O   0  0  0  0  0  0  0  0  0  0  0  0
  187.6820  177.6810  143.2660 C   0  0  0  0  0  2  0  0  0  0  0  0
  189.3510  177.4590  145.9720 C   0  0  0  0  0  0  0  0  0  0  0  0
  190.0700  178.0760  145.1390 O   0  0  0  0  0  0  0  0  0  0  0  0
  188.0180  176.1690  141.3540 C   0  0  0  0  0  2  0  0  0  0  0  0
  189.5040  173.1920  139.4260 C   0  0  0  0  0  2  0  0  0  0  0  0
  187.7970  173.7190  141.7920 N   0  0  0  0  0  2  0  0  0  0  0  0
  193.8240  175.5640  141.2510 C   0  0  0  0  0  2  0  0  0  0  0  0
  189.4510  174.5280  140.1430 C   0  0  0  0  0  2  0  0  0  0  0  0
  190.9490  172.8050  139.1570 C   0  0  1  0  0  3  0  0  0  0  0  0
  191.5340  171.9740  140.3180 C   0  0  1  0  0  3  0  0  0  0  0  0
  186.1270  175.9180  142.7730 O   0  0  0  0  0  1  0  0  0  0  0  0
  188.6110  173.9360  142.9870 C   0  0  0  0  0  2  0  0  0  0  0  0
  192.3000  174.4520  143.2470 C   0  0  0  0  0  2  0  0  0  0  0  0
  185.7170  176.9010  146.1170 C   0  0  0  0  0  0  0  0  0  0  0  0
  191.0050  174.8830  147.8160 O   0  0  0  0  0  0  0  0  0  0  0  0
  191.9410  175.9600  145.9820 N   0  0  0  0  0  2  0  0  0  0  0  0
  194.0180  175.2450  144.9920 C   0  0  0  0  0  0  0  0  0  0  0  0
  193.5470  175.1890  143.6010 C   0  0  0  0  0  0  0  0  0  0  0  0
  190.9960  172.0720  137.9730 O   0  0  0  0  0  1  0  0  0  0  0  0
  193.8740  172.4140  139.4200 C   0  0  0  0  0  2  0  0  0  0  0  0
  194.3640  173.4150  140.4540 C   0  0  0  0  0  2  0  0  0  0  0  0
  187.2210  178.0390  144.6920 C   0  0  1  0  0  3  0  0  0  0  0  0
  187.0650  176.5870  146.6360 C   0  0  0  0  0  2  0  0  0  0  0  0
  192.9360  171.3810  140.0480 C   0  0  2  0  0  3  0  0  0  0  0  0
  187.4840  176.2370  142.7830 C   0  0  1  0  0  0  0  0  0  0  0  0
  185.7330  177.7830  144.9200 C   0  0  0  0  0  2  0  0  0  0  0  0
  193.1210  175.2550  146.0570 O   0  0  0  0  0  0  0  0  0  0  0  0
  191.4410  172.6960  141.6740 C   0  0  0  0  0  2  0  0  0  0  0  0
  190.9660  175.8560  147.0180 C   0  0  0  0  0  0  0  0  0  0  0  0
  194.2860  175.6480  142.6380 N   0  0  0  0  0  0  0  0  0  0  0  0
  193.2590  174.2390  140.9280 N   0  0  1  0  0  0  0  0  0  0  0  0
  187.9470  177.3020  145.7290 N   0  0  0  0  0  0  0  0  0  0  0  0
  189.9590  176.9460  147.2440 C   0  0  1  0  0  3  0  0  0  0  0  0
  195.2540  175.2600  145.2310 O   0  0  0  0  0  0  0  0  0  0  0  0
  193.6110  170.5960  137.0020 O   0  0  0  0  0  0  0  0  0  0  0  0
  195.4670  168.8120  139.4910 C   0  0  0  0  0  3  0  0  0  0  0  0
  194.4570  168.7390  140.6020 C   0  0  0  0  0  2  0  0  0  0  0  0
  193.0310  168.8360  140.0630 C   0  0  0  0  0  2  0  0  0  0  0  0
  193.9080  170.0910  138.1160 C   0  0  0  0  0  0  0  0  0  0  0  0
  192.8680  170.0970  139.2040 C   0  0  2  0  0  3  0  0  0  0  0  0
  195.2490  169.4770  138.3440 C   0  0  0  0  0  0  0  0  0  0  0  0
  197.7590  169.1110  134.5520 C   0  0  0  0  0  3  0  0  0  0  0  0
  197.9410  171.0650  136.0280 C   0  0  0  0  0  2  0  0  0  0  0  0
  197.9370  168.2330  135.7450 C   0  0  0  0  0  2  0  0  0  0  0  0
  197.7390  170.4360  134.6890 C   0  0  0  0  0  3  0  0  0  0  0  0
  196.8390  170.7490  136.9960 C   0  0  0  0  0  3  0  0  0  0  0  0
  196.6710  168.2500  136.5860 C   0  0  0  0  0  2  0  0  0  0  0  0
  196.3260  169.5420  137.3120 C   0  0  0  0  0  0  0  0  0  0  0  0
  190.5480  178.0230  147.9660 O   0  0  0  0  0  0  0  0  0  0  0  0
  191.5490  177.8210  148.9170 C   0  0  0  0  0  0  0  0  0  0  0  0
  192.7310  177.5640  148.5680 O   0  0  0  0  0  0  0  0  0  0  0  0
  191.2240  177.8930  150.2980 N   0  0  0  0  0  1  0  0  0  0  0  0
  1 32  1  6  0  0  0
  1 17  1  0  0  0  0
  2 12  1  1  0  0  0
  2  8  1  0  0  0  0
  2 10  1  0  0  0  0
  6 37  1  0  0  0  0
  7  6  2  0  0  0  0
  8 29  1  0  0  0  0
  9 12  1  0  0  0  0
 10 16  1  0  0  0  0
 11 34  1  0  0  0  0
 13 23  1  6  0  0  0
 13  9  1  0  0  0  0
 13 14  1  0  0  0  0
 14 32  1  1  0  0  0
 16  3  1  0  0  0  0
 17 22  1  0  0  0  0
 18  4  2  0  0  0  0
 18 27  1  0  0  0  0
 20 31  1  0  0  0  0
 20 33  1  0  0  0  0
 21 38  2  0  0  0  0
 21 31  1  0  0  0  0
 22 21  1  0  0  0  0
 24 25  1  0  0  0  0
 26  5  1  6  0  0  0
 26 30  1  0  0  0  0
 26 36  1  0  0  0  0
 28 24  1  6  0  0  0
 28 14  1  0  0  0  0
 29 15  1  1  0  0  0
 29  5  1  0  0  0  0
 29  3  1  0  0  0  0
 30 18  1  0  0  0  0
 33 37  1  0  0  0  0
 33 19  2  0  0  0  0
 34 22  2  0  0  0  0
 35 25  1  1  0  0  0
 35 11  1  0  0  0  0
 35  1  1  0  0  0  0
 36  6  1  0  0  0  0
 36 27  1  0  0  0  0
 37 53  1  6  0  0  0
 39 43  2  0  0  0  0
 40 41  1  0  0  0  0
 42 41  1  0  0  0  0
 43 45  1  0  0  0  0
 43 44  1  0  0  0  0
 44 28  1  0  0  0  0
 44 42  1  1  0  0  0
 45 40  2  0  0  0  0
 46 49  2  0  0  0  0
 46 48  1  0  0  0  0
 47 50  1  0  0  0  0
 48 51  1  0  0  0  0
 49 47  1  0  0  0  0
 50 52  2  0  0  0  0
 51 52  1  0  0  0  0
 52 45  1  0  0  0  0
 53 54  1  0  0  0  0
 54 56  1  0  0  0  0
 55 54  2  0  0  0  0
M  END
>  <MODEL>
3

>  <REMARK>
 VINA RESULT:      -7.4      2.688      5.980
  Name = 
  4 active torsions:
  status: ('A' for Active; 'I' for Inactive)
    1  A    between atoms: C_6  and  O_14
    2  A    between atoms: O_14  and  C_55
    3  A    between atoms: C_41  and  C_48
    4  A    between atoms: C_52  and  C_53
                            x       y       z     vdW  Elec       q    Type
                         _______ _______ _______ _____ _____    ______ ____

>  <TORSDO>
F 4

$$$$
=
 OpenBabel11062421163D

 56 62  0  0  1  0  0  0  0  0999 V2000
  191.1120  173.2580  141.8700 C   0  0  1  0  0  3  0  0  0  0  0  0
  191.2310  172.5100  137.0270 C   0  0  2  0  0  3  0  0  0  0  0  0
  194.0340  172.3330  137.9120 C   0  0  0  0  0  2  0  0  0  0  0  0
  197.9410  171.9290  135.2060 O   0  0  0  0  0  0  0  0  0  0  0  0
  194.1400  169.9650  137.0360 C   0  0  0  0  0  2  0  0  0  0  0  0
  196.2610  170.2790  139.3940 C   0  0  0  0  0  0  0  0  0  0  0  0
  195.3710  169.4790  139.7960 O   0  0  0  0  0  0  0  0  0  0  0  0
  192.0030  171.1860  136.9810 C   0  0  0  0  0  2  0  0  0  0  0  0
  189.3410  173.6970  138.1610 C   0  0  0  0  0  2  0  0  0  0  0  0
  192.1180  173.6780  137.1230 N   0  0  0  0  0  2  0  0  0  0  0  0
  190.3220  171.0050  142.5680 C   0  0  0  0  0  2  0  0  0  0  0  0
  190.2370  172.4710  138.1790 C   0  0  0  0  0  2  0  0  0  0  0  0
  188.6550  173.8550  139.5090 C   0  0  1  0  0  3  0  0  0  0  0  0
  189.4900  174.7320  140.4650 C   0  0  1  0  0  3  0  0  0  0  0  0
  193.8090  171.8470  135.5810 O   0  0  0  0  0  1  0  0  0  0  0  0
  193.0820  173.4960  138.2080 C   0  0  0  0  0  2  0  0  0  0  0  0
  192.4550  172.5330  141.7610 C   0  0  0  0  0  2  0  0  0  0  0  0
  197.2530  171.3230  136.0090 C   0  0  0  0  0  0  0  0  0  0  0  0
  197.2160  172.8120  141.7270 O   0  0  0  0  0  0  0  0  0  0  0  0
  195.3820  171.4150  142.0190 N   0  0  0  0  0  2  0  0  0  0  0  0
  193.7960  171.7290  143.8060 C   0  0  0  0  0  0  0  0  0  0  0  0
  192.5810  171.6850  142.9810 C   0  0  0  0  0  0  0  0  0  0  0  0
  187.4040  174.4330  139.3000 O   0  0  0  0  0  1  0  0  0  0  0  0
  188.0950  173.8870  142.4180 C   0  0  0  0  0  2  0  0  0  0  0  0
  189.1040  172.9570  143.0730 C   0  0  0  0  0  2  0  0  0  0  0  0
  195.6730  169.8390  136.9500 C   0  0  1  0  0  3  0  0  0  0  0  0
  197.3550  171.5150  137.4700 C   0  0  0  0  0  2  0  0  0  0  0  0
  188.7840  175.1000  141.7900 C   0  0  2  0  0  3  0  0  0  0  0  0
  193.5160  171.3550  136.8530 C   0  0  1  0  0  0  0  0  0  0  0  0
  196.2360  170.3130  135.6130 C   0  0  0  0  0  2  0  0  0  0  0  0
  195.0450  171.9620  143.2370 O   0  0  0  0  0  0  0  0  0  0  0  0
  190.9160  174.1910  140.6770 C   0  0  0  0  0  2  0  0  0  0  0  0
  196.6080  171.7660  141.3790 C   0  0  0  0  0  0  0  0  0  0  0  0
  191.5390  171.0230  143.3810 N   0  0  0  0  0  0  0  0  0  0  0  0
  189.9630  172.3460  142.0660 N   0  0  1  0  0  0  0  0  0  0  0  0
  196.3670  170.5890  137.9980 N   0  0  0  0  0  0  0  0  0  0  0  0
  197.2430  170.8520  140.3720 C   0  0  1  0  0  3  0  0  0  0  0  0
  193.7090  171.5810  145.0530 O   0  0  0  0  0  0  0  0  0  0  0  0
  185.8640  175.8430  142.9190 O   0  0  0  0  0  0  0  0  0  0  0  0
  188.4590  178.1760  143.7260 C   0  0  0  0  0  3  0  0  0  0  0  0
  189.3320  178.0640  142.5080 C   0  0  0  0  0  2  0  0  0  0  0  0
  188.5350  177.5850  141.2950 C   0  0  0  0  0  2  0  0  0  0  0  0
  186.9520  176.4720  142.8410 C   0  0  0  0  0  0  0  0  0  0  0  0
  187.8060  176.2740  141.6180 C   0  0  2  0  0  3  0  0  0  0  0  0
  187.3730  177.4100  143.9230 C   0  0  0  0  0  0  0  0  0  0  0  0
  186.0030  178.1280  148.2150 C   0  0  0  0  0  3  0  0  0  0  0  0
  184.5470  178.6290  146.3030 C   0  0  0  0  0  2  0  0  0  0  0  0
  186.2370  176.7710  147.6410 C   0  0  0  0  0  2  0  0  0  0  0  0
  185.2300  179.0050  147.5760 C   0  0  0  0  0  3  0  0  0  0  0  0
  185.5060  178.3570  145.1810 C   0  0  0  0  0  3  0  0  0  0  0  0
  187.1480  176.8770  146.4300 C   0  0  0  0  0  2  0  0  0  0  0  0
  186.5880  177.5510  145.1850 C   0  0  0  0  0  0  0  0  0  0  0  0
  197.9390  169.7980  141.0300 O   0  0  0  0  0  0  0  0  0  0  0  0
  197.5640  169.3320  142.2900 C   0  0  0  0  0  0  0  0  0  0  0  0
  197.9410  169.9220  143.3370 O   0  0  0  0  0  0  0  0  0  0  0  0
  196.7570  168.1670  142.3920 N   0  0  0  0  0  1  0  0  0  0  0  0
  1 32  1  6  0  0  0
  1 35  1  0  0  0  0
  2  8  1  1  0  0  0
  2 10  1  0  0  0  0
  2 12  1  0  0  0  0
  3 16  1  0  0  0  0
  4 18  2  0  0  0  0
  6  7  2  0  0  0  0
  6 37  1  0  0  0  0
  9 12  1  0  0  0  0
  9 13  1  0  0  0  0
 10 16  1  0  0  0  0
 11 34  1  0  0  0  0
 13 23  1  6  0  0  0
 13 14  1  0  0  0  0
 14 32  1  1  0  0  0
 14 28  1  0  0  0  0
 17  1  1  0  0  0  0
 17 22  1  0  0  0  0
 18 27  1  0  0  0  0
 20 31  1  0  0  0  0
 21 38  2  0  0  0  0
 22 34  2  0  0  0  0
 22 21  1  0  0  0  0
 24 25  1  0  0  0  0
 26 30  1  6  0  0  0
 26  5  1  0  0  0  0
 26 36  1  0  0  0  0
 27 36  1  0  0  0  0
 28 24  1  6  0  0  0
 29 15  1  6  0  0  0
 29  8  1  0  0  0  0
 29  5  1  0  0  0  0
 29  3  1  0  0  0  0
 30 18  1  0  0  0  0
 31 21  1  0  0  0  0
 33 19  2  0  0  0  0
 33 20  1  0  0  0  0
 35 11  1  1  0  0  0
 35 25  1  0  0  0  0
 36  6  1  0  0  0  0
 37 53  1  1  0  0  0
 37 33  1  0  0  0  0
 40 45  2  0  0  0  0
 41 40  1  0  0  0  0
 42 41  1  0  0  0  0
 43 39  2  0  0  0  0
 43 45  1  0  0  0  0
 44 42  1  1  0  0  0
 44 28  1  0  0  0  0
 44 43  1  0  0  0  0
 45 52  1  0  0  0  0
 47 49  1  0  0  0  0
 48 46  1  0  0  0  0
 49 46  2  0  0  0  0
 50 52  2  0  0  0  0
 50 47  1  0  0  0  0
 51 48  1  0  0  0  0
 52 51  1  0  0  0  0
 53 54  1  0  0  0  0
 54 56  1  0  0  0  0
 54 55  2  0  0  0  0
M  END
>  <MODEL>
4

>  <REMARK>
 VINA RESULT:      -7.2      3.304     11.806
  Name = 
  4 active torsions:
  status: ('A' for Active; 'I' for Inactive)
    1  A    between atoms: C_6  and  O_14
    2  A    between atoms: O_14  and  C_55
    3  A    between atoms: C_41  and  C_48
    4  A    between atoms: C_52  and  C_53
                            x       y       z     vdW  Elec       q    Type
                         _______ _______ _______ _____ _____    ______ ____

>  <TORSDO>
F 4

$$$$
