=
 OpenBabel11072408343D

 26 28  0  0  1  0  0  0  0  0999 V2000
  187.1510  177.6590  144.2860 C   0  0  0  0  0  0  0  0  0  0  0  0
  188.1920  177.3760  143.2720 C   0  0  0  0  0  2  0  0  0  0  0  0
  189.4380  177.1200  144.1230 C   0  0  2  0  0  3  0  0  0  0  0  0
  184.6750  178.6160  147.5280 N   0  0  0  0  0  1  0  0  0  0  0  0
  186.8150  177.8000  146.6310 C   0  0  0  0  0  0  0  0  0  0  0  0
  188.9490  176.9700  145.5740 C   0  0  1  0  0  3  0  0  0  0  0  0
  190.3710  178.3120  144.0260 C   0  0  0  0  0  1  0  0  0  0  0  0
  185.5120  178.2790  146.4270 C   0  0  0  0  0  0  0  0  0  0  0  0
  187.5790  177.4650  145.5490 N   0  0  0  0  0  0  0  0  0  0  0  0
  187.2770  177.6960  147.8000 O   0  0  0  0  0  0  0  0  0  0  0  0
  185.8630  178.1410  144.0250 C   0  0  0  0  0  0  0  0  0  0  0  0
  185.0400  178.4430  145.1190 C   0  0  0  0  0  3  0  0  0  0  0  0
  188.9910  175.4790  145.9550 C   0  0  2  0  0  3  0  0  0  0  0  0
  188.5360  175.2750  147.2600 O   0  0  0  0  0  1  0  0  0  0  0  0
  194.5740  173.2110  145.4490 Cl  0  0  0  0  0  0  0  0  0  0  0  0
  192.9570  173.8650  145.5890 C   0  0  0  0  0  0  0  0  0  0  0  0
  190.6320  173.8680  144.9140 C   0  0  0  0  0  3  0  0  0  0  0  0
  191.4070  175.4280  146.5980 C   0  0  0  0  0  3  0  0  0  0  0  0
  190.3690  174.9120  145.8140 C   0  0  0  0  0  0  0  0  0  0  0  0
  191.9240  173.3460  144.8020 C   0  0  0  0  0  3  0  0  0  0  0  0
  192.6990  174.9050  146.4860 C   0  0  0  0  0  3  0  0  0  0  0  0
  184.1780  178.0620  142.2970 N   0  0  0  0  0  0  0  0  0  0  0  0
  185.3960  178.3370  142.6450 C   0  0  0  0  0  3  0  0  0  0  0  0
  182.3420  177.9940  140.6560 N   0  0  0  0  0  1  0  0  0  0  0  0
  184.4870  178.6330  140.0480 O   0  0  0  0  0  0  0  0  0  0  0  0
  183.7090  178.2480  140.9600 C   0  0  0  0  0  0  0  0  0  0  0  0
  1  9  1  0  0  0  0
  2  3  1  0  0  0  0
  2  1  1  0  0  0  0
  3  7  1  1  0  0  0
  3  6  1  0  0  0  0
  5 10  2  0  0  0  0
  6 13  1  6  0  0  0
  8  5  1  0  0  0  0
  8  4  1  0  0  0  0
  9  6  1  0  0  0  0
  9  5  1  0  0  0  0
 11  1  2  0  0  0  0
 11 12  1  0  0  0  0
 12  8  2  0  0  0  0
 13 14  1  1  0  0  0
 15 16  1  0  0  0  0
 16 21  1  0  0  0  0
 17 19  2  0  0  0  0
 19 13  1  0  0  0  0
 19 18  1  0  0  0  0
 20 17  1  0  0  0  0
 20 16  2  0  0  0  0
 21 18  2  0  0  0  0
 22 23  2  0  0  0  0
 23 11  1  0  0  0  0
 24 26  1  0  0  0  0
 25 26  2  0  0  0  0
 26 22  1  0  0  0  0
M  END
>  <MODEL>
1

>  <REMARK>
 VINA RESULT:      -7.5      0.000      0.000
  Name = 
  4 active torsions:
  status: ('A' for Active; 'I' for Inactive)
    1  A    between atoms: C_8  and  C_11
    2  A    between atoms: C_8  and  C_15
    3  A    between atoms: N_22  and  C_25
    4  A    between atoms: C_23  and  C_24
                            x       y       z     vdW  Elec       q    Type
                         _______ _______ _______ _____ _____    ______ ____

>  <TORSDO>
F 4

$$$$
=
 OpenBabel11072408343D

 26 28  0  0  1  0  0  0  0  0999 V2000
  188.0830  176.1840  144.8450 C   0  0  0  0  0  0  0  0  0  0  0  0
  188.0190  176.4530  146.3000 C   0  0  0  0  0  2  0  0  0  0  0  0
  189.3230  175.8420  146.8180 C   0  0  2  0  0  3  0  0  0  0  0  0
  188.6530  174.9620  140.8780 N   0  0  0  0  0  1  0  0  0  0  0  0
  189.4720  175.2120  143.1840 C   0  0  0  0  0  0  0  0  0  0  0  0
  190.1860  175.5420  145.5800 C   0  0  1  0  0  3  0  0  0  0  0  0
  189.0200  174.5470  147.5480 C   0  0  0  0  0  1  0  0  0  0  0  0
  188.4640  175.3890  142.2230 C   0  0  0  0  0  0  0  0  0  0  0  0
  189.2610  175.6560  144.4580 N   0  0  0  0  0  0  0  0  0  0  0  0
  190.5500  174.6370  142.8740 O   0  0  0  0  0  0  0  0  0  0  0  0
  187.0420  176.3770  143.9300 C   0  0  0  0  0  0  0  0  0  0  0  0
  187.2520  175.9760  142.6020 C   0  0  0  0  0  3  0  0  0  0  0  0
  191.2990  176.6010  145.4880 C   0  0  2  0  0  3  0  0  0  0  0  0
  191.1920  177.3500  144.3140 O   0  0  0  0  0  1  0  0  0  0  0  0
  196.7640  174.0280  145.7580 Cl  0  0  0  0  0  0  0  0  0  0  0  0
  195.1860  174.7780  145.6820 C   0  0  0  0  0  0  0  0  0  0  0  0
  193.8180  176.7670  145.4900 C   0  0  0  0  0  3  0  0  0  0  0  0
  192.7720  174.5900  145.6910 C   0  0  0  0  0  3  0  0  0  0  0  0
  192.6590  175.9790  145.5600 C   0  0  0  0  0  0  0  0  0  0  0  0
  195.0790  176.1660  145.5520 C   0  0  0  0  0  3  0  0  0  0  0  0
  194.0340  173.9910  145.7520 C   0  0  0  0  0  3  0  0  0  0  0  0
  185.4200  178.1630  143.9970 N   0  0  0  0  0  0  0  0  0  0  0  0
  185.7640  176.9660  144.3540 C   0  0  0  0  0  3  0  0  0  0  0  0
  183.8980  178.9080  145.7860 N   0  0  0  0  0  1  0  0  0  0  0  0
  183.3370  179.1330  143.5470 O   0  0  0  0  0  0  0  0  0  0  0  0
  184.1810  178.7510  144.4010 C   0  0  0  0  0  0  0  0  0  0  0  0
  1  2  1  0  0  0  0
  2  3  1  0  0  0  0
  3  7  1  6  0  0  0
  4  8  1  0  0  0  0
  5  9  1  0  0  0  0
  6 13  1  6  0  0  0
  6  3  1  0  0  0  0
  8 12  2  0  0  0  0
  8  5  1  0  0  0  0
  9  1  1  0  0  0  0
  9  6  1  0  0  0  0
 10  5  2  0  0  0  0
 11 23  1  0  0  0  0
 11  1  2  0  0  0  0
 12 11  1  0  0  0  0
 13 14  1  6  0  0  0
 13 19  1  0  0  0  0
 16 21  1  0  0  0  0
 16 15  1  0  0  0  0
 17 20  1  0  0  0  0
 17 19  2  0  0  0  0
 18 21  2  0  0  0  0
 19 18  1  0  0  0  0
 20 16  2  0  0  0  0
 22 23  2  0  0  0  0
 22 26  1  0  0  0  0
 25 26  2  0  0  0  0
 26 24  1  0  0  0  0
M  END
>  <MODEL>
2

>  <REMARK>
 VINA RESULT:      -7.3      2.480      3.996
  Name = 
  4 active torsions:
  status: ('A' for Active; 'I' for Inactive)
    1  A    between atoms: C_8  and  C_11
    2  A    between atoms: C_8  and  C_15
    3  A    between atoms: N_22  and  C_25
    4  A    between atoms: C_23  and  C_24
                            x       y       z     vdW  Elec       q    Type
                         _______ _______ _______ _____ _____    ______ ____

>  <TORSDO>
F 4

$$$$
=
 OpenBabel11072408343D

 26 28  0  0  1  0  0  0  0  0999 V2000
  188.3330  177.0000  144.1990 C   0  0  0  0  0  0  0  0  0  0  0  0
  189.3970  176.7280  143.2060 C   0  0  0  0  0  2  0  0  0  0  0  0
  190.6800  176.8960  144.0240 C   0  0  2  0  0  3  0  0  0  0  0  0
  185.7570  178.0840  147.3210 N   0  0  0  0  0  1  0  0  0  0  0  0
  188.0060  177.5380  146.4870 C   0  0  0  0  0  0  0  0  0  0  0  0
  190.2500  176.9460  145.5000 C   0  0  1  0  0  3  0  0  0  0  0  0
  191.3520  178.2030  143.6490 C   0  0  0  0  0  1  0  0  0  0  0  0
  186.6310  177.7030  146.2630 C   0  0  0  0  0  0  0  0  0  0  0  0
  188.8070  177.1490  145.4510 N   0  0  0  0  0  0  0  0  0  0  0  0
  188.4950  177.7620  147.6280 O   0  0  0  0  0  0  0  0  0  0  0  0
  186.9710  177.1580  143.9180 C   0  0  0  0  0  0  0  0  0  0  0  0
  186.1190  177.5070  144.9750 C   0  0  0  0  0  3  0  0  0  0  0  0
  190.5960  175.5990  146.1590 C   0  0  2  0  0  3  0  0  0  0  0  0
  190.2240  175.5810  147.5050 O   0  0  0  0  0  1  0  0  0  0  0  0
  196.4770  174.2930  145.6350 Cl  0  0  0  0  0  0  0  0  0  0  0  0
  194.7780  174.6760  145.7920 C   0  0  0  0  0  0  0  0  0  0  0  0
  193.0270  176.1850  146.5130 C   0  0  0  0  0  3  0  0  0  0  0  0
  192.4550  174.0840  145.4480 C   0  0  0  0  0  3  0  0  0  0  0  0
  192.0560  175.2870  146.0430 C   0  0  0  0  0  0  0  0  0  0  0  0
  194.3850  175.8780  146.3870 C   0  0  0  0  0  3  0  0  0  0  0  0
  193.8140  173.7790  145.3230 C   0  0  0  0  0  3  0  0  0  0  0  0
  186.0770  177.9900  141.8350 N   0  0  0  0  0  0  0  0  0  0  0  0
  186.4570  176.9800  142.5530 C   0  0  0  0  0  3  0  0  0  0  0  0
  184.2250  178.1780  140.2220 N   0  0  0  0  0  1  0  0  0  0  0  0
  186.3140  177.3970  139.5830 O   0  0  0  0  0  0  0  0  0  0  0  0
  185.5760  177.8340  140.5060 C   0  0  0  0  0  0  0  0  0  0  0  0
  1  9  1  0  0  0  0
  2  3  1  0  0  0  0
  2  1  1  0  0  0  0
  3  7  1  6  0  0  0
  3  6  1  0  0  0  0
  5 10  2  0  0  0  0
  6 13  1  6  0  0  0
  8  5  1  0  0  0  0
  8  4  1  0  0  0  0
  9  6  1  0  0  0  0
  9  5  1  0  0  0  0
 11  1  2  0  0  0  0
 11 12  1  0  0  0  0
 12  8  2  0  0  0  0
 13 14  1  1  0  0  0
 15 16  1  0  0  0  0
 16 20  1  0  0  0  0
 18 19  2  0  0  0  0
 19 13  1  0  0  0  0
 19 17  1  0  0  0  0
 20 17  2  0  0  0  0
 21 18  1  0  0  0  0
 21 16  2  0  0  0  0
 22 23  2  0  0  0  0
 23 11  1  0  0  0  0
 24 26  1  0  0  0  0
 25 26  2  0  0  0  0
 26 22  1  0  0  0  0
M  END
>  <MODEL>
3

>  <REMARK>
 VINA RESULT:      -7.2      1.441      1.900
  Name = 
  4 active torsions:
  status: ('A' for Active; 'I' for Inactive)
    1  A    between atoms: C_8  and  C_11
    2  A    between atoms: C_8  and  C_15
    3  A    between atoms: N_22  and  C_25
    4  A    between atoms: C_23  and  C_24
                            x       y       z     vdW  Elec       q    Type
                         _______ _______ _______ _____ _____    ______ ____

>  <TORSDO>
F 4

$$$$
=
 OpenBabel11072408343D

 26 28  0  0  1  0  0  0  0  0999 V2000
  189.0440  176.9080  145.0700 C   0  0  0  0  0  0  0  0  0  0  0  0
  189.3870  177.3050  146.4540 C   0  0  0  0  0  2  0  0  0  0  0  0
  190.6970  176.5560  146.7100 C   0  0  2  0  0  3  0  0  0  0  0  0
  188.4290  175.2890  141.2540 N   0  0  0  0  0  1  0  0  0  0  0  0
  189.8340  175.6090  143.2480 C   0  0  0  0  0  0  0  0  0  0  0  0
  191.1720  176.0320  145.3440 C   0  0  1  0  0  3  0  0  0  0  0  0
  190.4380  175.3850  147.6380 C   0  0  0  0  0  1  0  0  0  0  0  0
  188.6440  175.8500  142.5460 C   0  0  0  0  0  0  0  0  0  0  0  0
  190.0120  176.1840  144.4740 N   0  0  0  0  0  0  0  0  0  0  0  0
  190.7210  174.8590  142.7560 O   0  0  0  0  0  0  0  0  0  0  0  0
  187.8340  177.1730  144.4170 C   0  0  0  0  0  0  0  0  0  0  0  0
  187.6480  176.6370  143.1350 C   0  0  0  0  0  3  0  0  0  0  0  0
  192.3430  176.9050  144.8610 C   0  0  2  0  0  3  0  0  0  0  0  0
  192.1260  177.3740  143.5640 O   0  0  0  0  0  1  0  0  0  0  0  0
  197.6130  173.9430  145.0070 Cl  0  0  0  0  0  0  0  0  0  0  0  0
  196.0860  174.7960  144.9710 C   0  0  0  0  0  0  0  0  0  0  0  0
  194.1060  175.5980  146.1090 C   0  0  0  0  0  3  0  0  0  0  0  0
  194.4080  176.0400  143.7460 C   0  0  0  0  0  3  0  0  0  0  0  0
  193.6430  176.1630  144.9120 C   0  0  0  0  0  0  0  0  0  0  0  0
  195.3250  174.9160  146.1380 C   0  0  0  0  0  3  0  0  0  0  0  0
  195.6280  175.3580  143.7760 C   0  0  0  0  0  3  0  0  0  0  0  0
  185.7440  177.4240  145.6000 N   0  0  0  0  0  0  0  0  0  0  0  0
  186.7880  177.9760  145.0660 C   0  0  0  0  0  3  0  0  0  0  0  0
  184.7810  178.4170  147.6380 N   0  0  0  0  0  1  0  0  0  0  0  0
  183.7610  178.6670  145.5690 O   0  0  0  0  0  0  0  0  0  0  0  0
  184.7180  178.1890  146.2350 C   0  0  0  0  0  0  0  0  0  0  0  0
  1  2  1  0  0  0  0
  2  3  1  0  0  0  0
  3  7  1  1  0  0  0
  4  8  1  0  0  0  0
  5  9  1  0  0  0  0
  6 13  1  6  0  0  0
  6  3  1  0  0  0  0
  8 12  2  0  0  0  0
  8  5  1  0  0  0  0
  9  1  1  0  0  0  0
  9  6  1  0  0  0  0
 10  5  2  0  0  0  0
 11 23  1  0  0  0  0
 11  1  2  0  0  0  0
 12 11  1  0  0  0  0
 13 14  1  6  0  0  0
 13 19  1  0  0  0  0
 16 15  1  0  0  0  0
 16 20  1  0  0  0  0
 17 20  2  0  0  0  0
 18 21  1  0  0  0  0
 18 19  2  0  0  0  0
 19 17  1  0  0  0  0
 21 16  2  0  0  0  0
 22 26  1  0  0  0  0
 23 22  2  0  0  0  0
 25 26  2  0  0  0  0
 26 24  1  0  0  0  0
M  END
>  <MODEL>
4

>  <REMARK>
 VINA RESULT:      -7.0      2.844      4.506
  Name = 
  4 active torsions:
  status: ('A' for Active; 'I' for Inactive)
    1  A    between atoms: C_8  and  C_11
    2  A    between atoms: C_8  and  C_15
    3  A    between atoms: N_22  and  C_25
    4  A    between atoms: C_23  and  C_24
                            x       y       z     vdW  Elec       q    Type
                         _______ _______ _______ _____ _____    ______ ____

>  <TORSDO>
F 4

$$$$
=
 OpenBabel11072408343D

 26 28  0  0  1  0  0  0  0  0999 V2000
  191.7700  175.5220  145.0020 C   0  0  0  0  0  0  0  0  0  0  0  0
  191.6410  174.7750  143.7300 C   0  0  0  0  0  2  0  0  0  0  0  0
  190.1250  174.6480  143.5610 C   0  0  2  0  0  3  0  0  0  0  0  0
  191.5690  177.4210  148.7320 N   0  0  0  0  0  1  0  0  0  0  0  0
  190.4760  176.5370  146.7130 C   0  0  0  0  0  0  0  0  0  0  0  0
  189.4920  175.6020  144.5880 C   0  0  1  0  0  3  0  0  0  0  0  0
  189.7000  173.2240  143.8640 C   0  0  0  0  0  1  0  0  0  0  0  0
  191.6380  176.7870  147.4580 C   0  0  0  0  0  0  0  0  0  0  0  0
  190.5870  175.9470  145.4850 N   0  0  0  0  0  0  0  0  0  0  0  0
  189.3440  176.8390  147.1810 O   0  0  0  0  0  0  0  0  0  0  0  0
  192.9600  175.7400  145.7070 C   0  0  0  0  0  0  0  0  0  0  0  0
  192.8790  176.3900  146.9470 C   0  0  0  0  0  3  0  0  0  0  0  0
  188.9700  176.8460  143.8470 C   0  0  2  0  0  3  0  0  0  0  0  0
  189.8920  177.8930  143.9020 O   0  0  0  0  0  1  0  0  0  0  0  0
  183.6770  178.6660  146.1360 Cl  0  0  0  0  0  0  0  0  0  0  0  0
  185.2070  178.1440  145.4690 C   0  0  0  0  0  0  0  0  0  0  0  0
  187.1400  178.5700  144.0740 C   0  0  0  0  0  3  0  0  0  0  0  0
  186.9430  176.4680  145.2630 C   0  0  0  0  0  3  0  0  0  0  0  0
  187.6580  177.3080  144.4010 C   0  0  0  0  0  0  0  0  0  0  0  0
  185.9170  178.9870  144.6080 C   0  0  0  0  0  3  0  0  0  0  0  0
  185.7200  176.8860  145.7960 C   0  0  0  0  0  3  0  0  0  0  0  0
  195.0250  176.0870  144.5060 N   0  0  0  0  0  0  0  0  0  0  0  0
  194.2500  175.2870  145.1680 C   0  0  0  0  0  3  0  0  0  0  0  0
  197.0300  176.5480  143.1510 N   0  0  0  0  0  1  0  0  0  0  0  0
  196.7380  174.5150  144.2290 O   0  0  0  0  0  0  0  0  0  0  0  0
  196.2830  175.6620  143.9750 C   0  0  0  0  0  0  0  0  0  0  0  0
  1  9  1  0  0  0  0
  1 11  2  0  0  0  0
  2  1  1  0  0  0  0
  3  2  1  0  0  0  0
  3  7  1  1  0  0  0
  3  6  1  0  0  0  0
  5 10  2  0  0  0  0
  5  8  1  0  0  0  0
  6 13  1  6  0  0  0
  6  9  1  0  0  0  0
  8  4  1  0  0  0  0
  9  5  1  0  0  0  0
 11 12  1  0  0  0  0
 12  8  2  0  0  0  0
 13 14  1  1  0  0  0
 13 19  1  0  0  0  0
 16 21  1  0  0  0  0
 16 15  1  0  0  0  0
 17 19  2  0  0  0  0
 17 20  1  0  0  0  0
 18 21  2  0  0  0  0
 19 18  1  0  0  0  0
 20 16  2  0  0  0  0
 22 23  2  0  0  0  0
 23 11  1  0  0  0  0
 24 26  1  0  0  0  0
 26 25  2  0  0  0  0
 26 22  1  0  0  0  0
M  END
>  <MODEL>
5

>  <REMARK>
 VINA RESULT:      -7.0      4.346      7.803
  Name = 
  4 active torsions:
  status: ('A' for Active; 'I' for Inactive)
    1  A    between atoms: C_8  and  C_11
    2  A    between atoms: C_8  and  C_15
    3  A    between atoms: N_22  and  C_25
    4  A    between atoms: C_23  and  C_24
                            x       y       z     vdW  Elec       q    Type
                         _______ _______ _______ _____ _____    ______ ____

>  <TORSDO>
F 4

$$$$
=
 OpenBabel11072408343D

 26 28  0  0  1  0  0  0  0  0999 V2000
  188.9450  176.4590  143.4640 C   0  0  0  0  0  0  0  0  0  0  0  0
  190.3410  176.3830  142.9760 C   0  0  0  0  0  2  0  0  0  0  0  0
  191.1310  177.0740  144.0900 C   0  0  2  0  0  3  0  0  0  0  0  0
  185.1890  177.1550  145.1860 N   0  0  0  0  0  1  0  0  0  0  0  0
  187.6450  177.2210  145.2970 C   0  0  0  0  0  0  0  0  0  0  0  0
  190.1670  177.2190  145.2800 C   0  0  1  0  0  3  0  0  0  0  0  0
  191.5670  178.4490  143.6230 C   0  0  0  0  0  1  0  0  0  0  0  0
  186.4660  176.9070  144.6060 C   0  0  0  0  0  0  0  0  0  0  0  0
  188.8510  176.9460  144.7160 N   0  0  0  0  0  0  0  0  0  0  0  0
  187.5890  177.7650  146.4340 O   0  0  0  0  0  0  0  0  0  0  0  0
  187.8000  176.1340  142.7270 C   0  0  0  0  0  0  0  0  0  0  0  0
  186.5500  176.3590  143.3210 C   0  0  0  0  0  3  0  0  0  0  0  0
  190.5400  176.1720  146.3450 C   0  0  2  0  0  3  0  0  0  0  0  0
  190.3590  176.6730  147.6350 O   0  0  0  0  0  1  0  0  0  0  0  0
  196.2650  174.3170  145.7580 Cl  0  0  0  0  0  0  0  0  0  0  0  0
  194.6070  174.8490  145.9220 C   0  0  0  0  0  0  0  0  0  0  0  0
  192.2400  174.4640  145.5920 C   0  0  0  0  0  3  0  0  0  0  0  0
  192.9990  176.5090  146.6460 C   0  0  0  0  0  3  0  0  0  0  0  0
  191.9520  175.7020  146.1860 C   0  0  0  0  0  0  0  0  0  0  0  0
  193.5650  174.0390  145.4600 C   0  0  0  0  0  3  0  0  0  0  0  0
  194.3250  176.0830  146.5140 C   0  0  0  0  0  3  0  0  0  0  0  0
  188.3010  174.3720  141.1540 N   0  0  0  0  0  0  0  0  0  0  0  0
  187.9090  175.5890  141.3660 C   0  0  0  0  0  3  0  0  0  0  0  0
  188.7790  172.4630  139.6730 N   0  0  0  0  0  1  0  0  0  0  0  0
  188.1870  174.5370  138.8210 O   0  0  0  0  0  0  0  0  0  0  0  0
  188.4120  173.8270  139.8370 C   0  0  0  0  0  0  0  0  0  0  0  0
  1  9  1  0  0  0  0
  2  1  1  0  0  0  0
  2  3  1  0  0  0  0
  3  7  1  6  0  0  0
  3  6  1  0  0  0  0
  5 10  2  0  0  0  0
  6 13  1  1  0  0  0
  8  4  1  0  0  0  0
  8  5  1  0  0  0  0
  9  6  1  0  0  0  0
  9  5  1  0  0  0  0
 11 12  1  0  0  0  0
 11  1  2  0  0  0  0
 12  8  2  0  0  0  0
 13 14  1  1  0  0  0
 15 16  1  0  0  0  0
 16 21  1  0  0  0  0
 17 19  2  0  0  0  0
 19 13  1  0  0  0  0
 19 18  1  0  0  0  0
 20 17  1  0  0  0  0
 20 16  2  0  0  0  0
 21 18  2  0  0  0  0
 22 23  2  0  0  0  0
 23 11  1  0  0  0  0
 24 26  1  0  0  0  0
 25 26  2  0  0  0  0
 26 22  1  0  0  0  0
M  END
>  <MODEL>
6

>  <REMARK>
 VINA RESULT:      -6.9      2.792      3.326
  Name = 
  4 active torsions:
  status: ('A' for Active; 'I' for Inactive)
    1  A    between atoms: C_8  and  C_11
    2  A    between atoms: C_8  and  C_15
    3  A    between atoms: N_22  and  C_25
    4  A    between atoms: C_23  and  C_24
                            x       y       z     vdW  Elec       q    Type
                         _______ _______ _______ _____ _____    ______ ____

>  <TORSDO>
F 4

$$$$
=
 OpenBabel11072408343D

 26 28  0  0  1  0  0  0  0  0999 V2000
  188.3780  177.0150  144.5300 C   0  0  0  0  0  0  0  0  0  0  0  0
  189.0160  176.6770  143.2370 C   0  0  0  0  0  2  0  0  0  0  0  0
  187.8180  176.4620  142.3100 C   0  0  2  0  0  3  0  0  0  0  0  0
  186.0740  177.6740  147.9670 N   0  0  0  0  0  1  0  0  0  0  0  0
  186.2540  177.3380  145.5370 C   0  0  0  0  0  0  0  0  0  0  0  0
  186.5860  176.9960  143.0610 C   0  0  1  0  0  3  0  0  0  0  0  0
  187.6440  174.9790  142.0450 C   0  0  0  0  0  1  0  0  0  0  0  0
  186.8580  177.4630  146.7970 C   0  0  0  0  0  0  0  0  0  0  0  0
  187.0420  177.1590  144.4360 N   0  0  0  0  0  0  0  0  0  0  0  0
  184.9980  177.3750  145.4290 O   0  0  0  0  0  0  0  0  0  0  0  0
  189.0320  177.1240  145.7630 C   0  0  0  0  0  0  0  0  0  0  0  0
  188.2500  177.3590  146.9030 C   0  0  0  0  0  3  0  0  0  0  0  0
  186.1860  178.3490  142.4470 C   0  0  2  0  0  3  0  0  0  0  0  0
  186.3410  179.3890  143.3650 O   0  0  0  0  0  1  0  0  0  0  0  0
  180.5050  178.2370  140.3780 Cl  0  0  0  0  0  0  0  0  0  0  0  0
  182.1460  178.2740  140.9820 C   0  0  0  0  0  0  0  0  0  0  0  0
  183.7050  178.6650  142.7930 C   0  0  0  0  0  3  0  0  0  0  0  0
  184.5210  177.9730  140.6190 C   0  0  0  0  0  3  0  0  0  0  0  0
  184.7740  178.3330  141.9480 C   0  0  0  0  0  0  0  0  0  0  0  0
  182.3930  178.6360  142.3100 C   0  0  0  0  0  3  0  0  0  0  0  0
  183.2090  177.9430  140.1370 C   0  0  0  0  0  3  0  0  0  0  0  0
  191.0400  175.8560  146.1980 N   0  0  0  0  0  0  0  0  0  0  0  0
  190.4920  176.9800  145.8580 C   0  0  0  0  0  3  0  0  0  0  0  0
  193.0440  174.4360  146.0030 N   0  0  0  0  0  1  0  0  0  0  0  0
  193.1940  176.6640  146.6310 O   0  0  0  0  0  0  0  0  0  0  0  0
  192.4580  175.6990  146.2940 C   0  0  0  0  0  0  0  0  0  0  0  0
  1 11  2  0  0  0  0
  2  1  1  0  0  0  0
  3  7  1  1  0  0  0
  3  6  1  0  0  0  0
  3  2  1  0  0  0  0
  5  8  1  0  0  0  0
  6 13  1  6  0  0  0
  6  9  1  0  0  0  0
  8 12  2  0  0  0  0
  8  4  1  0  0  0  0
  9  1  1  0  0  0  0
  9  5  1  0  0  0  0
 10  5  2  0  0  0  0
 11 23  1  0  0  0  0
 11 12  1  0  0  0  0
 13 14  1  1  0  0  0
 15 16  1  0  0  0  0
 16 20  1  0  0  0  0
 18 19  2  0  0  0  0
 19 13  1  0  0  0  0
 19 17  1  0  0  0  0
 20 17  2  0  0  0  0
 21 18  1  0  0  0  0
 21 16  2  0  0  0  0
 22 26  1  0  0  0  0
 23 22  2  0  0  0  0
 24 26  1  0  0  0  0
 26 25  2  0  0  0  0
M  END
>  <MODEL>
7

>  <REMARK>
 VINA RESULT:      -6.9      3.918      7.715
  Name = 
  4 active torsions:
  status: ('A' for Active; 'I' for Inactive)
    1  A    between atoms: C_8  and  C_11
    2  A    between atoms: C_8  and  C_15
    3  A    between atoms: N_22  and  C_25
    4  A    between atoms: C_23  and  C_24
                            x       y       z     vdW  Elec       q    Type
                         _______ _______ _______ _____ _____    ______ ____

>  <TORSDO>
F 4

$$$$
=
 OpenBabel11072408343D

 26 28  0  0  1  0  0  0  0  0999 V2000
  191.7940  176.1730  145.8740 C   0  0  0  0  0  0  0  0  0  0  0  0
  192.1160  175.7130  147.2430 C   0  0  0  0  0  2  0  0  0  0  0  0
  191.0220  176.3670  148.0900 C   0  0  2  0  0  3  0  0  0  0  0  0
  190.5870  177.9470  142.2740 N   0  0  0  0  0  1  0  0  0  0  0  0
  190.2220  177.4740  144.6610 C   0  0  0  0  0  0  0  0  0  0  0  0
  189.9690  176.9020  147.1040 C   0  0  1  0  0  3  0  0  0  0  0  0
  191.6120  177.5230  148.8750 C   0  0  0  0  0  1  0  0  0  0  0  0
  190.9900  177.3330  143.4950 C   0  0  0  0  0  0  0  0  0  0  0  0
  190.6310  176.8510  145.8060 N   0  0  0  0  0  0  0  0  0  0  0  0
  189.1780  178.1810  144.6520 O   0  0  0  0  0  0  0  0  0  0  0  0
  192.6010  176.0070  144.7420 C   0  0  0  0  0  0  0  0  0  0  0  0
  192.1770  176.5940  143.5410 C   0  0  0  0  0  3  0  0  0  0  0  0
  188.7460  175.9700  147.1370 C   0  0  2  0  0  3  0  0  0  0  0  0
  188.9190  174.8730  146.2900 O   0  0  0  0  0  1  0  0  0  0  0  0
  183.6970  178.9530  145.6600 Cl  0  0  0  0  0  0  0  0  0  0  0  0
  185.1550  178.0840  146.0830 C   0  0  0  0  0  0  0  0  0  0  0  0
  186.7310  176.2980  145.6510 C   0  0  0  0  0  3  0  0  0  0  0  0
  187.0740  177.7880  147.5310 C   0  0  0  0  0  3  0  0  0  0  0  0
  187.4900  176.6940  146.7620 C   0  0  0  0  0  0  0  0  0  0  0  0
  185.5660  176.9920  145.3130 C   0  0  0  0  0  3  0  0  0  0  0  0
  185.9080  178.4820  147.1910 C   0  0  0  0  0  3  0  0  0  0  0  0
  195.0030  175.8210  144.5880 N   0  0  0  0  0  0  0  0  0  0  0  0
  193.8610  175.2540  144.8190 C   0  0  0  0  0  3  0  0  0  0  0  0
  196.4560  174.1900  145.7270 N   0  0  0  0  0  1  0  0  0  0  0  0
  197.1320  175.2680  143.7870 O   0  0  0  0  0  0  0  0  0  0  0  0
  196.2370  175.1040  144.6580 C   0  0  0  0  0  0  0  0  0  0  0  0
  1  2  1  0  0  0  0
  2  3  1  0  0  0  0
  3  7  1  6  0  0  0
  4  8  1  0  0  0  0
  5  9  1  0  0  0  0
  6 13  1  6  0  0  0
  6  3  1  0  0  0  0
  8 12  2  0  0  0  0
  8  5  1  0  0  0  0
  9  1  1  0  0  0  0
  9  6  1  0  0  0  0
 10  5  2  0  0  0  0
 11 23  1  0  0  0  0
 11  1  2  0  0  0  0
 12 11  1  0  0  0  0
 13 14  1  6  0  0  0
 15 16  1  0  0  0  0
 16 21  1  0  0  0  0
 17 19  2  0  0  0  0
 19 13  1  0  0  0  0
 19 18  1  0  0  0  0
 20 17  1  0  0  0  0
 20 16  2  0  0  0  0
 21 18  2  0  0  0  0
 22 26  1  0  0  0  0
 22 23  2  0  0  0  0
 25 26  2  0  0  0  0
 26 24  1  0  0  0  0
M  END
>  <MODEL>
8

>  <REMARK>
 VINA RESULT:      -6.8      4.340      7.799
  Name = 
  4 active torsions:
  status: ('A' for Active; 'I' for Inactive)
    1  A    between atoms: C_8  and  C_11
    2  A    between atoms: C_8  and  C_15
    3  A    between atoms: N_22  and  C_25
    4  A    between atoms: C_23  and  C_24
                            x       y       z     vdW  Elec       q    Type
                         _______ _______ _______ _____ _____    ______ ____

>  <TORSDO>
F 4

$$$$
=
 OpenBabel11072408343D

 26 28  0  0  1  0  0  0  0  0999 V2000
  192.0680  175.2290  144.1590 C   0  0  0  0  0  0  0  0  0  0  0  0
  192.5190  176.5320  144.6980 C   0  0  0  0  0  2  0  0  0  0  0  0
  191.2300  177.3580  144.7200 C   0  0  2  0  0  3  0  0  0  0  0  0
  190.3180  171.8590  142.3860 N   0  0  0  0  0  1  0  0  0  0  0  0
  190.1260  174.0890  143.4080 C   0  0  0  0  0  0  0  0  0  0  0  0
  190.0760  176.3680  144.4850 C   0  0  1  0  0  3  0  0  0  0  0  0
  191.2610  178.3740  143.5960 C   0  0  0  0  0  1  0  0  0  0  0  0
  190.9110  172.9990  143.0000 C   0  0  0  0  0  0  0  0  0  0  0  0
  190.7300  175.1530  144.0140 N   0  0  0  0  0  0  0  0  0  0  0  0
  188.8820  174.0870  143.2010 O   0  0  0  0  0  0  0  0  0  0  0  0
  192.8980  174.1740  143.7630 C   0  0  0  0  0  0  0  0  0  0  0  0
  192.2980  173.0470  143.1850 C   0  0  0  0  0  3  0  0  0  0  0  0
  189.3560  176.1250  145.8230 C   0  0  2  0  0  3  0  0  0  0  0  0
  189.2280  174.7610  146.0910 O   0  0  0  0  0  1  0  0  0  0  0  0
  183.8950  178.7230  145.8450 Cl  0  0  0  0  0  0  0  0  0  0  0  0
  185.4740  177.9710  145.8460 C   0  0  0  0  0  0  0  0  0  0  0  0
  187.1080  176.5280  146.9000 C   0  0  0  0  0  3  0  0  0  0  0  0
  187.6260  177.6100  144.7940 C   0  0  0  0  0  3  0  0  0  0  0  0
  188.0030  176.7670  145.8460 C   0  0  0  0  0  0  0  0  0  0  0  0
  185.8470  177.1300  146.9000 C   0  0  0  0  0  3  0  0  0  0  0  0
  186.3630  178.2110  144.7950 C   0  0  0  0  0  3  0  0  0  0  0  0
  194.9800  173.4960  144.7800 N   0  0  0  0  0  0  0  0  0  0  0  0
  194.3550  174.2560  143.9370 C   0  0  0  0  0  3  0  0  0  0  0  0
  196.9360  173.5640  146.2770 N   0  0  0  0  0  1  0  0  0  0  0  0
  197.1730  173.6180  143.9700 O   0  0  0  0  0  0  0  0  0  0  0  0
  196.3960  173.5620  144.9610 C   0  0  0  0  0  0  0  0  0  0  0  0
  1  2  1  0  0  0  0
  2  3  1  0  0  0  0
  3  7  1  6  0  0  0
  4  8  1  0  0  0  0
  5  9  1  0  0  0  0
  6  3  1  0  0  0  0
  6 13  1  1  0  0  0
  8 12  2  0  0  0  0
  8  5  1  0  0  0  0
  9  1  1  0  0  0  0
  9  6  1  0  0  0  0
 10  5  2  0  0  0  0
 11 23  1  0  0  0  0
 11  1  2  0  0  0  0
 12 11  1  0  0  0  0
 13 19  1  0  0  0  0
 13 14  1  6  0  0  0
 15 16  1  0  0  0  0
 16 20  1  0  0  0  0
 18 21  1  0  0  0  0
 18 19  2  0  0  0  0
 19 17  1  0  0  0  0
 20 17  2  0  0  0  0
 21 16  2  0  0  0  0
 22 26  1  0  0  0  0
 23 22  2  0  0  0  0
 25 26  2  0  0  0  0
 26 24  1  0  0  0  0
M  END
>  <MODEL>
9

>  <REMARK>
 VINA RESULT:      -6.7      4.575      8.236
  Name = 
  4 active torsions:
  status: ('A' for Active; 'I' for Inactive)
    1  A    between atoms: C_8  and  C_11
    2  A    between atoms: C_8  and  C_15
    3  A    between atoms: N_22  and  C_25
    4  A    between atoms: C_23  and  C_24
                            x       y       z     vdW  Elec       q    Type
                         _______ _______ _______ _____ _____    ______ ____

>  <TORSDO>
F 4

$$$$
