=
 OpenBabel11062422383D

 44 50  0  0  1  0  0  0  0  0999 V2000
  192.3730  175.3630  144.4110 C   0  0  2  0  0  3  0  0  0  0  0  0
  191.9470  177.2160  143.0100 O   0  0  0  0  0  0  0  0  0  0  0  0
  193.0170  175.4540  141.8740 C   0  0  0  0  0  2  0  0  0  0  0  0
  192.5870  173.8480  144.3220 C   0  0  0  0  0  2  0  0  0  0  0  0
  192.8680  173.9940  141.8950 N   0  0  0  0  0  0  0  0  0  0  0  0
  193.4490  173.4550  143.1240 C   0  0  0  0  0  2  0  0  0  0  0  0
  192.4040  176.0870  143.0900 C   0  0  0  0  0  0  0  0  0  0  0  0
  194.2800  176.6240  145.1440 N   0  0  0  0  0  2  0  0  0  0  0  0
  192.8100  176.0330  146.8730 N   0  0  0  0  0  2  0  0  0  0  0  0
  193.1840  176.0340  145.4880 C   0  0  0  0  0  0  0  0  0  0  0  0
  191.6150  175.4120  147.4230 C   0  0  0  0  0  2  0  0  0  0  0  0
  190.4960  176.4330  147.5680 C   0  0  0  0  0  2  0  0  0  0  0  0
  189.2810  176.0590  146.7320 C   0  0  0  0  0  2  0  0  0  0  0  0
  188.7710  177.2600  145.9520 C   0  0  1  0  0  3  0  0  0  0  0  0
  188.7640  176.9530  144.4690 C   0  0  0  0  0  2  0  0  0  0  0  0
  187.4760  176.8810  145.2630 C   0  0  2  0  0  3  0  0  0  0  0  0
  184.2470  178.6500  145.1830 C   0  0  0  0  0  2  0  0  0  0  0  0
  184.6680  178.7340  143.7250 C   0  0  2  0  0  0  0  0  0  0  0  0
  184.5140  178.4550  141.2040 C   0  0  2  0  0  3  0  0  0  0  0  0
  183.8440  178.1560  142.5700 C   0  0  2  0  0  3  0  0  0  0  0  0
  186.7790  178.7540  142.4920 C   0  0  2  0  0  3  0  0  0  0  0  0
  182.5690  178.6950  142.5850 F   0  0  0  0  0  0  0  0  0  0  0  0
  186.0390  178.1360  143.6610 C   0  0  1  0  0  0  0  0  0  0  0  0
  185.8510  179.6020  143.3410 C   0  0  2  0  0  3  0  0  0  0  0  0
  185.4480  178.1290  145.9800 C   0  0  0  0  0  2  0  0  0  0  0  0
  183.9490  177.6580  140.2080 O   0  0  0  0  0  1  0  0  0  0  0  0
  186.0570  178.2600  141.2140 C   0  0  0  0  0  2  0  0  0  0  0  0
  186.6490  178.1360  145.0420 C   0  0  1  0  0  3  0  0  0  0  0  0
  193.5590  173.3770  140.7510 C   0  0  2  0  0  3  0  0  0  0  0  0
  196.5890  175.3580  139.8100 C   0  0  0  0  0  2  0  0  0  0  0  0
  196.6780  175.1340  138.3020 C   0  0  0  0  0  2  0  0  0  0  0  0
  195.8230  174.2800  140.4320 N   0  0  0  0  0  2  0  0  0  0  0  0
  194.4210  174.0600  138.4280 C   0  0  0  0  0  2  0  0  0  0  0  0
  194.4480  174.3410  139.9380 C   0  0  1  0  0  3  0  0  0  0  0  0
  195.2760  175.0940  137.7030 C   0  0  0  0  0  2  0  0  0  0  0  0
  192.6080  172.5430  139.8920 C   0  0  0  0  0  2  0  0  0  0  0  0
  191.2520  173.0650  139.9850 N   0  0  0  0  0  2  0  0  0  0  0  0
  190.5710  171.5260  141.6020 O   0  0  0  0  0  0  0  0  0  0  0  0
  190.2740  172.5180  140.8790 C   0  0  0  0  0  0  0  0  0  0  0  0
  188.1740  172.9190  139.6480 C   0  0  0  0  0  1  0  0  0  0  0  0
  188.9070  173.1480  140.9590 C   0  0  0  0  0  0  0  0  0  0  0  0
  188.0840  172.5360  142.0860 C   0  0  0  0  0  1  0  0  0  0  0  0
  187.8350  175.2920  141.2650 O   0  0  0  0  0  1  0  0  0  0  0  0
  189.0730  174.6460  141.2060 C   0  0  0  0  0  2  0  0  0  0  0  0
  1 10  1  1  0  0  0
  2  7  2  0  0  0  0
  3  5  1  0  0  0  0
  3  7  1  0  0  0  0
  4  1  1  0  0  0  0
  5  6  1  0  0  0  0
  6  4  1  0  0  0  0
  7  1  1  0  0  0  0
  8 10  2  0  0  0  0
  9 11  1  0  0  0  0
 10  9  1  0  0  0  0
 11 12  1  0  0  0  0
 13 12  1  0  0  0  0
 14 13  1  1  0  0  0
 15 14  1  0  0  0  0
 16 15  1  6  0  0  0
 16 14  1  0  0  0  0
 17 25  1  0  0  0  0
 18 17  1  1  0  0  0
 19 26  1  6  0  0  0
 19 27  1  0  0  0  0
 19 20  1  0  0  0  0
 20 22  1  6  0  0  0
 20 18  1  0  0  0  0
 21 27  1  6  0  0  0
 21 24  1  0  0  0  0
 21 23  1  0  0  0  0
 23 18  1  0  0  0  0
 23 28  1  0  0  0  0
 24 23  1  0  0  0  0
 24 18  1  0  0  0  0
 28 16  1  0  0  0  0
 28 25  1  0  0  0  0
 29  5  1  0  0  0  0
 30 32  1  0  0  0  0
 31 30  1  0  0  0  0
 33 34  1  0  0  0  0
 34 32  1  0  0  0  0
 34 29  1  0  0  0  0
 35 31  1  0  0  0  0
 35 33  1  0  0  0  0
 36 37  1  0  0  0  0
 36 29  1  0  0  0  0
 37 39  1  0  0  0  0
 39 41  1  0  0  0  0
 39 38  2  0  0  0  0
 40 41  1  0  0  0  0
 41 44  1  0  0  0  0
 41 42  1  0  0  0  0
 44 43  1  0  0  0  0
M  END
>  <MODEL>
1

>  <REMARK>
 VINA RESULT:      -7.5      0.000      0.000
  Name = 
  12 active torsions:
  status: ('A' for Active; 'I' for Inactive)
    1  A    between atoms: C_5  and  C_21
    2  A    between atoms: C_10  and  N_11
    3  A    between atoms: C_10  and  C_20
    4  A    between atoms: C_13  and  C_39
    5  A    between atoms: C_14  and  C_32
    6  A    between atoms: C_14  and  C_39
    7  A    between atoms: N_19  and  C_32
    8  A    between atoms: C_20  and  C_27
    9  A    between atoms: C_20  and  N_30
   10  A    between atoms: C_26  and  C_34
   11  A    between atoms: C_26  and  C_43
   12  A    between atoms: C_36  and  C_42
                            x       y       z     vdW  Elec       q    Type
                         _______ _______ _______ _____ _____    ______ ____

>  <TORSDO>
F 12

$$$$
=
 OpenBabel11062422383D

 44 50  0  0  1  0  0  0  0  0999 V2000
  193.0070  175.1680  145.4770 C   0  0  2  0  0  3  0  0  0  0  0  0
  192.1880  174.0250  143.5790 O   0  0  0  0  0  0  0  0  0  0  0  0
  194.5240  174.3130  143.5200 C   0  0  0  0  0  2  0  0  0  0  0  0
  194.2950  175.3110  146.2960 C   0  0  0  0  0  2  0  0  0  0  0  0
  195.5850  174.2140  144.5290 N   0  0  0  0  0  0  0  0  0  0  0  0
  195.5380  175.3780  145.4120 C   0  0  0  0  0  2  0  0  0  0  0  0
  193.1720  174.4620  144.1560 C   0  0  0  0  0  0  0  0  0  0  0  0
  192.4350  177.2450  144.4210 N   0  0  0  0  0  2  0  0  0  0  0  0
  191.1740  176.7770  146.3420 N   0  0  0  0  0  2  0  0  0  0  0  0
  192.1910  176.4300  145.3910 C   0  0  0  0  0  0  0  0  0  0  0  0
  190.7830  175.9730  147.4900 C   0  0  0  0  0  2  0  0  0  0  0  0
  189.7480  174.9320  147.0890 C   0  0  0  0  0  2  0  0  0  0  0  0
  188.3290  175.4350  147.3100 C   0  0  0  0  0  2  0  0  0  0  0  0
  188.0650  176.6870  146.4890 C   0  0  1  0  0  3  0  0  0  0  0  0
  188.0670  176.3510  145.0130 C   0  0  0  0  0  2  0  0  0  0  0  0
  186.7540  176.5190  145.7500 C   0  0  2  0  0  3  0  0  0  0  0  0
  183.8780  178.7990  145.4460 C   0  0  0  0  0  2  0  0  0  0  0  0
  184.4070  178.7960  144.0200 C   0  0  2  0  0  0  0  0  0  0  0  0
  184.3830  178.5180  141.4940 C   0  0  2  0  0  3  0  0  0  0  0  0
  183.5800  178.3500  142.8100 C   0  0  2  0  0  3  0  0  0  0  0  0
  186.5720  178.4510  142.9370 C   0  0  2  0  0  3  0  0  0  0  0  0
  182.4140  179.0930  142.7370 F   0  0  0  0  0  0  0  0  0  0  0  0
  185.6600  177.9780  144.0520 C   0  0  1  0  0  0  0  0  0  0  0  0
  185.7420  179.4510  143.7200 C   0  0  2  0  0  3  0  0  0  0  0  0
  184.9180  178.0950  146.3240 C   0  0  0  0  0  2  0  0  0  0  0  0
  183.7630  177.8160  140.4610 O   0  0  0  0  0  1  0  0  0  0  0  0
  185.8670  178.0700  141.6120 C   0  0  0  0  0  2  0  0  0  0  0  0
  186.1650  177.8920  145.4720 C   0  0  1  0  0  3  0  0  0  0  0  0
  196.9120  174.1690  143.8960 C   0  0  2  0  0  3  0  0  0  0  0  0
  196.8880  175.9830  140.6240 C   0  0  0  0  0  2  0  0  0  0  0  0
  197.9160  175.2060  139.8050 C   0  0  0  0  0  2  0  0  0  0  0  0
  197.1290  175.7800  142.0520 N   0  0  0  0  0  2  0  0  0  0  0  0
  197.9390  173.5000  141.6370 C   0  0  0  0  0  2  0  0  0  0  0  0
  196.9040  174.3700  142.3660 C   0  0  1  0  0  3  0  0  0  0  0  0
  197.8180  173.7190  140.1330 C   0  0  0  0  0  2  0  0  0  0  0  0
  197.7230  172.9570  144.3540 C   0  0  0  0  0  2  0  0  0  0  0  0
  196.8460  171.9510  144.9360 N   0  0  0  0  0  2  0  0  0  0  0  0
  196.5610  170.7780  142.9380 O   0  0  0  0  0  0  0  0  0  0  0  0
  196.3030  170.8660  144.1710 C   0  0  0  0  0  0  0  0  0  0  0  0
  194.0250  170.3520  144.9630 C   0  0  0  0  0  1  0  0  0  0  0  0
  195.4480  169.8310  144.8560 C   0  0  0  0  0  0  0  0  0  0  0  0
  195.4270  168.5260  144.0690 C   0  0  0  0  0  1  0  0  0  0  0  0
  194.9970  169.2840  147.1660 O   0  0  0  0  0  1  0  0  0  0  0  0
  196.0140  169.5750  146.2520 C   0  0  0  0  0  2  0  0  0  0  0  0
  1 10  1  6  0  0  0
  1  4  1  0  0  0  0
  2  7  2  0  0  0  0
  3  7  1  0  0  0  0
  3  5  1  0  0  0  0
  5  6  1  0  0  0  0
  6  4  1  0  0  0  0
  7  1  1  0  0  0  0
  8 10  2  0  0  0  0
  9 11  1  0  0  0  0
 10  9  1  0  0  0  0
 12 13  1  0  0  0  0
 12 11  1  0  0  0  0
 14 13  1  1  0  0  0
 15 14  1  0  0  0  0
 16 15  1  6  0  0  0
 16 14  1  0  0  0  0
 17 25  1  0  0  0  0
 18 23  1  0  0  0  0
 18 17  1  1  0  0  0
 19 26  1  6  0  0  0
 19 27  1  0  0  0  0
 19 20  1  0  0  0  0
 20 22  1  6  0  0  0
 20 18  1  0  0  0  0
 21 27  1  6  0  0  0
 21 24  1  0  0  0  0
 21 23  1  0  0  0  0
 23 28  1  0  0  0  0
 24 18  1  0  0  0  0
 24 23  1  0  0  0  0
 28 16  1  0  0  0  0
 28 25  1  0  0  0  0
 29 36  1  0  0  0  0
 29  5  1  0  0  0  0
 30 32  1  0  0  0  0
 31 35  1  0  0  0  0
 31 30  1  0  0  0  0
 32 34  1  0  0  0  0
 33 34  1  0  0  0  0
 34 29  1  0  0  0  0
 35 33  1  0  0  0  0
 36 37  1  0  0  0  0
 38 39  2  0  0  0  0
 39 41  1  0  0  0  0
 39 37  1  0  0  0  0
 41 40  1  0  0  0  0
 41 44  1  0  0  0  0
 42 41  1  0  0  0  0
 44 43  1  0  0  0  0
M  END
>  <MODEL>
2

>  <REMARK>
 VINA RESULT:      -7.5      2.789      4.231
  Name = 
  12 active torsions:
  status: ('A' for Active; 'I' for Inactive)
    1  A    between atoms: C_5  and  C_21
    2  A    between atoms: C_10  and  N_11
    3  A    between atoms: C_10  and  C_20
    4  A    between atoms: C_13  and  C_39
    5  A    between atoms: C_14  and  C_32
    6  A    between atoms: C_14  and  C_39
    7  A    between atoms: N_19  and  C_32
    8  A    between atoms: C_20  and  C_27
    9  A    between atoms: C_20  and  N_30
   10  A    between atoms: C_26  and  C_34
   11  A    between atoms: C_26  and  C_43
   12  A    between atoms: C_36  and  C_42
                            x       y       z     vdW  Elec       q    Type
                         _______ _______ _______ _____ _____    ______ ____

>  <TORSDO>
F 12

$$$$
=
 OpenBabel11062422383D

 44 50  0  0  1  0  0  0  0  0999 V2000
  190.1910  173.0570  140.5700 C   0  0  2  0  0  3  0  0  0  0  0  0
  187.9450  172.7980  139.8860 O   0  0  0  0  0  0  0  0  0  0  0  0
  188.1710  174.2870  141.6960 C   0  0  0  0  0  2  0  0  0  0  0  0
  191.0930  174.0730  141.2800 C   0  0  0  0  0  2  0  0  0  0  0  0
  189.1380  175.3390  142.0300 N   0  0  0  0  0  0  0  0  0  0  0  0
  190.3960  174.7360  142.4660 C   0  0  0  0  0  2  0  0  0  0  0  0
  188.7160  173.3500  140.6560 C   0  0  0  0  0  0  0  0  0  0  0  0
  190.1160  171.1020  141.9610 N   0  0  0  0  0  2  0  0  0  0  0  0
  191.3350  170.8120  139.9790 N   0  0  0  0  0  2  0  0  0  0  0  0
  190.5410  171.6210  140.8580 C   0  0  0  0  0  0  0  0  0  0  0  0
  191.8920  171.2450  138.7070 C   0  0  0  0  0  2  0  0  0  0  0  0
  193.4130  171.1900  138.7380 C   0  0  0  0  0  2  0  0  0  0  0  0
  194.0080  172.4430  139.3640 C   0  0  0  0  0  2  0  0  0  0  0  0
  194.6850  172.1170  140.6860 C   0  0  1  0  0  3  0  0  0  0  0  0
  195.7890  173.1150  140.9650 C   0  0  0  0  0  2  0  0  0  0  0  0
  194.4460  173.2600  141.6510 C   0  0  2  0  0  3  0  0  0  0  0  0
  192.8730  172.4300  144.8760 C   0  0  0  0  0  2  0  0  0  0  0  0
  193.8430  173.5250  145.2910 C   0  0  2  0  0  0  0  0  0  0  0  0
  194.6350  175.7170  146.3050 C   0  0  2  0  0  3  0  0  0  0  0  0
  193.4070  174.8360  145.9530 C   0  0  2  0  0  3  0  0  0  0  0  0
  195.9820  174.3930  144.4860 C   0  0  2  0  0  3  0  0  0  0  0  0
  192.6880  174.5670  147.1050 F   0  0  0  0  0  0  0  0  0  0  0  0
  194.6260  173.8640  144.0620 C   0  0  1  0  0  0  0  0  0  0  0  0
  195.3350  173.2530  145.2500 C   0  0  2  0  0  3  0  0  0  0  0  0
  193.2070  172.0430  143.4320 C   0  0  0  0  0  2  0  0  0  0  0  0
  194.2240  177.0180  146.5930 O   0  0  0  0  0  1  0  0  0  0  0  0
  195.7170  175.7470  145.1890 C   0  0  0  0  0  2  0  0  0  0  0  0
  194.5200  172.7290  143.0730 C   0  0  1  0  0  3  0  0  0  0  0  0
  188.6330  176.1910  143.1200 C   0  0  2  0  0  3  0  0  0  0  0  0
  190.6650  177.3010  146.0580 C   0  0  0  0  0  2  0  0  0  0  0  0
  190.0040  176.5600  147.2180 C   0  0  0  0  0  2  0  0  0  0  0  0
  189.7270  177.4240  144.9440 N   0  0  0  0  0  2  0  0  0  0  0  0
  188.6910  175.2730  145.5190 C   0  0  0  0  0  2  0  0  0  0  0  0
  189.4240  176.0850  144.4410 C   0  0  1  0  0  3  0  0  0  0  0  0
  189.5690  175.1710  146.7620 C   0  0  0  0  0  2  0  0  0  0  0  0
  187.1200  176.0580  143.2940 C   0  0  0  0  0  2  0  0  0  0  0  0
  186.5430  177.3310  143.7020 N   0  0  0  0  0  2  0  0  0  0  0  0
  185.5210  176.4660  145.6140 O   0  0  0  0  0  0  0  0  0  0  0  0
  185.7580  177.4760  144.8930 C   0  0  0  0  0  0  0  0  0  0  0  0
  185.6040  179.8360  144.1920 C   0  0  0  0  0  1  0  0  0  0  0  0
  185.2420  178.8380  145.2790 C   0  0  0  0  0  0  0  0  0  0  0  0
  183.7260  178.8270  145.4380 C   0  0  0  0  0  1  0  0  0  0  0  0
  185.1540  178.7840  147.6930 O   0  0  0  0  0  1  0  0  0  0  0  0
  185.8890  179.2500  146.5990 C   0  0  0  0  0  2  0  0  0  0  0  0
  1  7  1  0  0  0  0
  1 10  1  1  0  0  0
  1  4  1  0  0  0  0
  2  7  2  0  0  0  0
  3  5  1  0  0  0  0
  4  6  1  0  0  0  0
  5  6  1  0  0  0  0
  5 29  1  0  0  0  0
  7  3  1  0  0  0  0
  9 10  1  0  0  0  0
 10  8  2  0  0  0  0
 11 12  1  0  0  0  0
 11  9  1  0  0  0  0
 12 13  1  0  0  0  0
 14 13  1  6  0  0  0
 14 15  1  0  0  0  0
 14 16  1  0  0  0  0
 16 15  1  1  0  0  0
 16 28  1  0  0  0  0
 18 17  1  6  0  0  0
 18 20  1  0  0  0  0
 19 26  1  6  0  0  0
 20 19  1  0  0  0  0
 20 22  1  1  0  0  0
 21 27  1  1  0  0  0
 21 24  1  0  0  0  0
 23 21  1  0  0  0  0
 23 24  1  0  0  0  0
 23 18  1  0  0  0  0
 24 18  1  0  0  0  0
 25 17  1  0  0  0  0
 27 19  1  0  0  0  0
 28 25  1  0  0  0  0
 28 23  1  0  0  0  0
 29 36  1  0  0  0  0
 29 34  1  0  0  0  0
 30 31  1  0  0  0  0
 32 30  1  0  0  0  0
 33 35  1  0  0  0  0
 34 32  1  0  0  0  0
 34 33  1  0  0  0  0
 35 31  1  0  0  0  0
 36 37  1  0  0  0  0
 37 39  1  0  0  0  0
 39 41  1  0  0  0  0
 39 38  2  0  0  0  0
 40 41  1  0  0  0  0
 41 42  1  0  0  0  0
 41 44  1  0  0  0  0
 44 43  1  0  0  0  0
M  END
>  <MODEL>
3

>  <REMARK>
 VINA RESULT:      -7.3      3.135      8.810
  Name = 
  12 active torsions:
  status: ('A' for Active; 'I' for Inactive)
    1  A    between atoms: C_5  and  C_21
    2  A    between atoms: C_10  and  N_11
    3  A    between atoms: C_10  and  C_20
    4  A    between atoms: C_13  and  C_39
    5  A    between atoms: C_14  and  C_32
    6  A    between atoms: C_14  and  C_39
    7  A    between atoms: N_19  and  C_32
    8  A    between atoms: C_20  and  C_27
    9  A    between atoms: C_20  and  N_30
   10  A    between atoms: C_26  and  C_34
   11  A    between atoms: C_26  and  C_43
   12  A    between atoms: C_36  and  C_42
                            x       y       z     vdW  Elec       q    Type
                         _______ _______ _______ _____ _____    ______ ____

>  <TORSDO>
F 12

$$$$
=
 OpenBabel11062422383D

 44 50  0  0  1  0  0  0  0  0999 V2000
  192.5200  172.7670  141.1640 C   0  0  2  0  0  3  0  0  0  0  0  0
  191.5790  171.4960  142.9180 O   0  0  0  0  0  0  0  0  0  0  0  0
  193.8720  171.9200  143.2410 C   0  0  0  0  0  2  0  0  0  0  0  0
  193.6890  173.7250  140.9040 C   0  0  0  0  0  2  0  0  0  0  0  0
  194.7270  173.0930  143.0280 N   0  0  0  0  0  0  0  0  0  0  0  0
  194.9720  173.2740  141.5980 C   0  0  0  0  0  2  0  0  0  0  0  0
  192.5840  172.0320  142.4780 C   0  0  0  0  0  0  0  0  0  0  0  0
  192.8460  170.7920  139.8410 N   0  0  0  0  0  2  0  0  0  0  0  0
  191.1640  172.2110  139.0310 N   0  0  0  0  0  2  0  0  0  0  0  0
  192.1780  171.8860  139.9930 C   0  0  0  0  0  0  0  0  0  0  0  0
  190.3290  173.4020  139.0550 C   0  0  0  0  0  2  0  0  0  0  0  0
  188.9110  173.0570  139.4860 C   0  0  0  0  0  2  0  0  0  0  0  0
  188.7840  172.9920  141.0010 C   0  0  0  0  0  2  0  0  0  0  0  0
  189.1980  174.3100  141.6350 C   0  0  1  0  0  3  0  0  0  0  0  0
  188.2090  175.3970  141.2700 C   0  0  0  0  0  2  0  0  0  0  0  0
  188.1330  174.7300  142.6280 C   0  0  2  0  0  3  0  0  0  0  0  0
  188.8620  175.5460  146.1440 C   0  0  0  0  0  2  0  0  0  0  0  0
  188.0120  176.7370  145.7330 C   0  0  2  0  0  0  0  0  0  0  0  0
  186.0960  178.4050  145.8010 C   0  0  2  0  0  3  0  0  0  0  0  0
  186.6900  177.1100  146.4130 C   0  0  2  0  0  3  0  0  0  0  0  0
  187.5270  177.9320  143.6550 C   0  0  2  0  0  3  0  0  0  0  0  0
  186.8930  177.2920  147.7700 F   0  0  0  0  0  0  0  0  0  0  0  0
  187.7480  176.5640  144.2700 C   0  0  1  0  0  0  0  0  0  0  0  0
  188.5680  177.7430  144.7430 C   0  0  2  0  0  3  0  0  0  0  0  0
  189.2050  174.7640  144.8720 C   0  0  0  0  0  2  0  0  0  0  0  0
  184.7630  178.5490  146.1850 O   0  0  0  0  0  1  0  0  0  0  0  0
  186.2010  178.4640  144.2510 C   0  0  0  0  0  2  0  0  0  0  0  0
  188.7680  175.6170  143.6870 C   0  0  1  0  0  3  0  0  0  0  0  0
  196.0260  172.9270  143.7000 C   0  0  2  0  0  3  0  0  0  0  0  0
  197.3480  169.4280  143.7480 C   0  0  0  0  0  2  0  0  0  0  0  0
  197.8890  169.2960  145.1700 C   0  0  0  0  0  2  0  0  0  0  0  0
  197.2780  170.8380  143.3680 N   0  0  0  0  0  2  0  0  0  0  0  0
  196.7890  171.4840  145.6850 C   0  0  0  0  0  2  0  0  0  0  0  0
  196.3020  171.5040  144.2290 C   0  0  1  0  0  3  0  0  0  0  0  0
  196.9770  170.0410  146.1390 C   0  0  0  0  0  2  0  0  0  0  0  0
  196.2810  174.0280  144.7310 C   0  0  0  0  0  2  0  0  0  0  0  0
  195.0290  174.4460  145.3450 N   0  0  0  0  0  2  0  0  0  0  0  0
  195.2980  176.6990  144.7980 O   0  0  0  0  0  0  0  0  0  0  0  0
  194.5810  175.8080  145.3320 C   0  0  0  0  0  0  0  0  0  0  0  0
  192.5920  174.8870  146.4640 C   0  0  0  0  0  1  0  0  0  0  0  0
  193.2460  176.1550  145.9400 C   0  0  0  0  0  0  0  0  0  0  0  0
  193.4050  177.1300  147.1000 C   0  0  0  0  0  1  0  0  0  0  0  0
  192.3020  175.9790  143.7220 O   0  0  0  0  0  1  0  0  0  0  0  0
  192.3660  176.7850  144.8620 C   0  0  0  0  0  2  0  0  0  0  0  0
  1 10  1  6  0  0  0
  1  7  1  0  0  0  0
  4  1  1  0  0  0  0
  4  6  1  0  0  0  0
  5  3  1  0  0  0  0
  5 29  1  0  0  0  0
  6  5  1  0  0  0  0
  7  2  2  0  0  0  0
  7  3  1  0  0  0  0
  8 10  2  0  0  0  0
  9 11  1  0  0  0  0
  9 10  1  0  0  0  0
 11 12  1  0  0  0  0
 12 13  1  0  0  0  0
 14 13  1  6  0  0  0
 14 16  1  0  0  0  0
 15 14  1  0  0  0  0
 16 15  1  6  0  0  0
 16 28  1  0  0  0  0
 18 17  1  1  0  0  0
 18 20  1  0  0  0  0
 19 26  1  6  0  0  0
 19 20  1  0  0  0  0
 20 22  1  1  0  0  0
 21 27  1  1  0  0  0
 21 23  1  0  0  0  0
 21 24  1  0  0  0  0
 23 24  1  0  0  0  0
 23 18  1  0  0  0  0
 24 18  1  0  0  0  0
 25 17  1  0  0  0  0
 27 19  1  0  0  0  0
 28 23  1  0  0  0  0
 28 25  1  0  0  0  0
 29 34  1  0  0  0  0
 29 36  1  0  0  0  0
 30 31  1  0  0  0  0
 31 35  1  0  0  0  0
 32 30  1  0  0  0  0
 32 34  1  0  0  0  0
 33 35  1  0  0  0  0
 34 33  1  0  0  0  0
 36 37  1  0  0  0  0
 38 39  2  0  0  0  0
 39 37  1  0  0  0  0
 39 41  1  0  0  0  0
 41 40  1  0  0  0  0
 41 42  1  0  0  0  0
 43 44  1  0  0  0  0
 44 41  1  0  0  0  0
M  END
>  <MODEL>
4

>  <REMARK>
 VINA RESULT:      -7.2      2.830      6.050
  Name = 
  12 active torsions:
  status: ('A' for Active; 'I' for Inactive)
    1  A    between atoms: C_5  and  C_21
    2  A    between atoms: C_10  and  N_11
    3  A    between atoms: C_10  and  C_20
    4  A    between atoms: C_13  and  C_39
    5  A    between atoms: C_14  and  C_32
    6  A    between atoms: C_14  and  C_39
    7  A    between atoms: N_19  and  C_32
    8  A    between atoms: C_20  and  C_27
    9  A    between atoms: C_20  and  N_30
   10  A    between atoms: C_26  and  C_34
   11  A    between atoms: C_26  and  C_43
   12  A    between atoms: C_36  and  C_42
                            x       y       z     vdW  Elec       q    Type
                         _______ _______ _______ _____ _____    ______ ____

>  <TORSDO>
F 12

$$$$
=
 OpenBabel11062422383D

 44 50  0  0  1  0  0  0  0  0999 V2000
  194.8300  175.1930  146.0200 C   0  0  2  0  0  3  0  0  0  0  0  0
  192.5670  174.9730  146.6590 O   0  0  0  0  0  0  0  0  0  0  0  0
  193.3810  173.0610  145.5550 C   0  0  0  0  0  2  0  0  0  0  0  0
  196.0530  174.3220  145.7130 C   0  0  0  0  0  2  0  0  0  0  0  0
  194.6480  172.3210  145.6060 N   0  0  0  0  0  0  0  0  0  0  0  0
  195.6900  173.0750  144.9100 C   0  0  0  0  0  2  0  0  0  0  0  0
  193.5280  174.4420  146.1250 C   0  0  0  0  0  0  0  0  0  0  0  0
  194.9370  177.5770  145.7670 N   0  0  0  0  0  2  0  0  0  0  0  0
  194.4350  176.4330  143.7830 N   0  0  0  0  0  2  0  0  0  0  0  0
  194.7420  176.4420  145.1840 C   0  0  0  0  0  0  0  0  0  0  0  0
  194.1850  175.2440  142.9810 C   0  0  0  0  0  2  0  0  0  0  0  0
  192.7460  175.2220  142.4870 C   0  0  0  0  0  2  0  0  0  0  0  0
  192.0220  176.5220  142.8050 C   0  0  0  0  0  2  0  0  0  0  0  0
  190.6130  176.2470  143.3040 C   0  0  1  0  0  3  0  0  0  0  0  0
  190.3940  176.9180  144.6430 C   0  0  0  0  0  2  0  0  0  0  0  0
  189.8570  177.5580  143.3800 C   0  0  2  0  0  3  0  0  0  0  0  0
  186.4180  178.6600  142.6600 C   0  0  0  0  0  2  0  0  0  0  0  0
  186.3010  178.2560  144.1210 C   0  0  2  0  0  0  0  0  0  0  0  0
  185.7970  178.4880  146.6010 C   0  0  2  0  0  3  0  0  0  0  0  0
  185.8730  179.2180  145.2340 C   0  0  2  0  0  3  0  0  0  0  0  0
  187.4270  176.6850  145.6180 C   0  0  2  0  0  3  0  0  0  0  0  0
  184.6370  179.7650  144.9350 F   0  0  0  0  0  0  0  0  0  0  0  0
  187.6310  177.6800  144.4930 C   0  0  1  0  0  0  0  0  0  0  0  0
  186.4070  176.7910  144.4990 C   0  0  2  0  0  3  0  0  0  0  0  0
  187.7820  178.1770  142.1570 C   0  0  0  0  0  2  0  0  0  0  0  0
  185.7340  179.4190  147.6380 O   0  0  0  0  0  1  0  0  0  0  0  0
  186.9800  177.5100  146.8490 C   0  0  0  0  0  2  0  0  0  0  0  0
  188.3700  177.2790  143.2390 C   0  0  1  0  0  3  0  0  0  0  0  0
  194.5180  171.0080  144.9550 C   0  0  2  0  0  3  0  0  0  0  0  0
  197.4040  169.1470  146.4380 C   0  0  0  0  0  2  0  0  0  0  0  0
  196.8100  168.5870  147.7290 C   0  0  0  0  0  2  0  0  0  0  0  0
  196.6320  170.3060  145.9940 N   0  0  0  0  0  2  0  0  0  0  0  0
  194.5690  169.3380  146.9080 C   0  0  0  0  0  2  0  0  0  0  0  0
  195.2810  169.8630  145.6520 C   0  0  1  0  0  3  0  0  0  0  0  0
  195.3610  168.1740  147.4930 C   0  0  0  0  0  2  0  0  0  0  0  0
  194.7700  171.0900  143.4490 C   0  0  0  0  0  2  0  0  0  0  0  0
  193.5170  170.9700  142.7170 N   0  0  0  0  0  2  0  0  0  0  0  0
  194.1990  172.3410  140.9560 O   0  0  0  0  0  0  0  0  0  0  0  0
  193.2960  171.6140  141.4560 C   0  0  0  0  0  0  0  0  0  0  0  0
  191.9680  172.2580  139.4790 C   0  0  0  0  0  1  0  0  0  0  0  0
  191.9920  171.3970  140.7310 C   0  0  0  0  0  0  0  0  0  0  0  0
  191.8290  169.9390  140.3170 C   0  0  0  0  0  1  0  0  0  0  0  0
  189.6960  172.1220  140.9310 O   0  0  0  0  0  1  0  0  0  0  0  0
  190.8450  171.7940  141.6570 C   0  0  0  0  0  2  0  0  0  0  0  0
  1 10  1  6  0  0  0
  1  7  1  0  0  0  0
  3  5  1  0  0  0  0
  3  7  1  0  0  0  0
  4  1  1  0  0  0  0
  6  5  1  0  0  0  0
  6  4  1  0  0  0  0
  7  2  2  0  0  0  0
  9 10  1  0  0  0  0
 10  8  2  0  0  0  0
 11  9  1  0  0  0  0
 12 13  1  0  0  0  0
 12 11  1  0  0  0  0
 14 13  1  6  0  0  0
 14 16  1  0  0  0  0
 14 15  1  0  0  0  0
 16 15  1  1  0  0  0
 18 17  1  6  0  0  0
 18 23  1  0  0  0  0
 18 24  1  0  0  0  0
 18 20  1  0  0  0  0
 19 27  1  0  0  0  0
 19 26  1  1  0  0  0
 20 22  1  6  0  0  0
 20 19  1  0  0  0  0
 21 27  1  1  0  0  0
 23 24  1  0  0  0  0
 23 21  1  0  0  0  0
 24 21  1  0  0  0  0
 25 17  1  0  0  0  0
 25 28  1  0  0  0  0
 28 16  1  0  0  0  0
 28 23  1  0  0  0  0
 29  5  1  0  0  0  0
 29 34  1  0  0  0  0
 30 31  1  0  0  0  0
 32 30  1  0  0  0  0
 33 35  1  0  0  0  0
 34 32  1  0  0  0  0
 34 33  1  0  0  0  0
 35 31  1  0  0  0  0
 36 29  1  0  0  0  0
 37 36  1  0  0  0  0
 38 39  2  0  0  0  0
 39 37  1  0  0  0  0
 40 41  1  0  0  0  0
 41 39  1  0  0  0  0
 41 44  1  0  0  0  0
 42 41  1  0  0  0  0
 43 44  1  0  0  0  0
M  END
>  <MODEL>
5

>  <REMARK>
 VINA RESULT:      -7.1      3.300      5.129
  Name = 
  12 active torsions:
  status: ('A' for Active; 'I' for Inactive)
    1  A    between atoms: C_5  and  C_21
    2  A    between atoms: C_10  and  N_11
    3  A    between atoms: C_10  and  C_20
    4  A    between atoms: C_13  and  C_39
    5  A    between atoms: C_14  and  C_32
    6  A    between atoms: C_14  and  C_39
    7  A    between atoms: N_19  and  C_32
    8  A    between atoms: C_20  and  C_27
    9  A    between atoms: C_20  and  N_30
   10  A    between atoms: C_26  and  C_34
   11  A    between atoms: C_26  and  C_43
   12  A    between atoms: C_36  and  C_42
                            x       y       z     vdW  Elec       q    Type
                         _______ _______ _______ _____ _____    ______ ____

>  <TORSDO>
F 12

$$$$
=
 OpenBabel11062422383D

 44 50  0  0  1  0  0  0  0  0999 V2000
  194.7650  176.0190  144.5330 C   0  0  2  0  0  3  0  0  0  0  0  0
  196.3960  174.6670  145.5790 O   0  0  0  0  0  0  0  0  0  0  0  0
  194.5940  173.4130  144.7300 C   0  0  0  0  0  2  0  0  0  0  0  0
  193.6690  175.9230  143.4660 C   0  0  0  0  0  2  0  0  0  0  0  0
  193.8020  173.4790  143.4960 N   0  0  0  0  0  0  0  0  0  0  0  0
  192.8850  174.6160  143.5580 C   0  0  0  0  0  2  0  0  0  0  0  0
  195.3320  174.6960  144.9800 C   0  0  0  0  0  0  0  0  0  0  0  0
  195.1070  178.0490  145.7670 N   0  0  0  0  0  2  0  0  0  0  0  0
  193.4290  176.6690  146.6520 N   0  0  0  0  0  2  0  0  0  0  0  0
  194.4350  176.9510  145.6690 C   0  0  0  0  0  0  0  0  0  0  0  0
  192.5920  175.4800  146.6870 C   0  0  0  0  0  2  0  0  0  0  0  0
  191.4570  175.6500  147.6860 C   0  0  0  0  0  2  0  0  0  0  0  0
  190.1090  175.3080  147.0690 C   0  0  0  0  0  2  0  0  0  0  0  0
  189.4720  176.5390  146.4450 C   0  0  1  0  0  3  0  0  0  0  0  0
  189.4760  176.4200  144.9350 C   0  0  0  0  0  2  0  0  0  0  0  0
  188.2120  176.1220  145.7150 C   0  0  2  0  0  3  0  0  0  0  0  0
  184.8140  177.5320  145.5550 C   0  0  0  0  0  2  0  0  0  0  0  0
  185.3900  177.9920  144.2250 C   0  0  2  0  0  0  0  0  0  0  0  0
  185.5720  178.2880  141.7070 C   0  0  2  0  0  3  0  0  0  0  0  0
  184.7890  177.6180  142.8660 C   0  0  2  0  0  3  0  0  0  0  0  0
  187.6110  178.5050  143.3410 C   0  0  2  0  0  3  0  0  0  0  0  0
  183.4620  178.0090  142.8140 F   0  0  0  0  0  0  0  0  0  0  0  0
  186.8240  177.5640  144.2310 C   0  0  1  0  0  0  0  0  0  0  0  0
  186.4880  179.0390  144.2110 C   0  0  2  0  0  3  0  0  0  0  0  0
  185.9700  176.9640  146.3840 C   0  0  0  0  0  2  0  0  0  0  0  0
  185.2350  177.6910  140.4930 O   0  0  0  0  0  1  0  0  0  0  0  0
  187.1150  178.2510  141.8970 C   0  0  0  0  0  2  0  0  0  0  0  0
  187.2620  177.3060  145.6520 C   0  0  1  0  0  3  0  0  0  0  0  0
  193.0070  172.2550  143.3140 C   0  0  2  0  0  3  0  0  0  0  0  0
  193.3490  168.7820  144.6610 C   0  0  0  0  0  2  0  0  0  0  0  0
  194.3920  168.1660  143.7310 C   0  0  0  0  0  2  0  0  0  0  0  0
  192.7010  169.9150  144.0040 N   0  0  0  0  0  2  0  0  0  0  0  0
  194.7690  170.4580  142.7980 C   0  0  0  0  0  2  0  0  0  0  0  0
  193.7010  170.9580  143.7810 C   0  0  1  0  0  3  0  0  0  0  0  0
  195.4410  169.2130  143.3680 C   0  0  0  0  0  2  0  0  0  0  0  0
  192.4120  172.1640  141.9080 C   0  0  0  0  0  2  0  0  0  0  0  0
  190.9610  172.2760  141.9630 N   0  0  0  0  0  2  0  0  0  0  0  0
  190.8640  174.1140  140.5270 O   0  0  0  0  0  0  0  0  0  0  0  0
  190.2370  173.2730  141.2300 C   0  0  0  0  0  0  0  0  0  0  0  0
  188.1710  172.8120  139.9630 C   0  0  0  0  0  1  0  0  0  0  0  0
  188.7310  173.2900  141.2930 C   0  0  0  0  0  0  0  0  0  0  0  0
  188.2160  172.3690  142.3920 C   0  0  0  0  0  1  0  0  0  0  0  0
  187.9030  175.3710  140.3860 O   0  0  0  0  0  1  0  0  0  0  0  0
  188.2680  174.7190  141.5680 C   0  0  0  0  0  2  0  0  0  0  0  0
  1  7  1  0  0  0  0
  1 10  1  1  0  0  0
  3  7  1  0  0  0  0
  4  6  1  0  0  0  0
  4  1  1  0  0  0  0
  5  6  1  0  0  0  0
  5  3  1  0  0  0  0
  7  2  2  0  0  0  0
  9 11  1  0  0  0  0
 10  8  2  0  0  0  0
 10  9  1  0  0  0  0
 11 12  1  0  0  0  0
 13 12  1  0  0  0  0
 14 13  1  1  0  0  0
 15 14  1  0  0  0  0
 16 15  1  6  0  0  0
 16 14  1  0  0  0  0
 17 25  1  0  0  0  0
 18 23  1  0  0  0  0
 18 17  1  1  0  0  0
 19 26  1  6  0  0  0
 19 27  1  0  0  0  0
 19 20  1  0  0  0  0
 20 22  1  1  0  0  0
 20 18  1  0  0  0  0
 21 27  1  6  0  0  0
 21 24  1  0  0  0  0
 21 23  1  0  0  0  0
 23 28  1  0  0  0  0
 24 18  1  0  0  0  0
 24 23  1  0  0  0  0
 28 16  1  0  0  0  0
 28 25  1  0  0  0  0
 29  5  1  0  0  0  0
 29 34  1  0  0  0  0
 31 30  1  0  0  0  0
 32 30  1  0  0  0  0
 33 35  1  0  0  0  0
 33 34  1  0  0  0  0
 34 32  1  0  0  0  0
 35 31  1  0  0  0  0
 36 37  1  0  0  0  0
 36 29  1  0  0  0  0
 38 39  2  0  0  0  0
 39 41  1  0  0  0  0
 39 37  1  0  0  0  0
 40 41  1  0  0  0  0
 41 44  1  0  0  0  0
 41 42  1  0  0  0  0
 43 44  1  0  0  0  0
M  END
>  <MODEL>
6

>  <REMARK>
 VINA RESULT:      -7.1      2.227      3.259
  Name = 
  12 active torsions:
  status: ('A' for Active; 'I' for Inactive)
    1  A    between atoms: C_5  and  C_21
    2  A    between atoms: C_10  and  N_11
    3  A    between atoms: C_10  and  C_20
    4  A    between atoms: C_13  and  C_39
    5  A    between atoms: C_14  and  C_32
    6  A    between atoms: C_14  and  C_39
    7  A    between atoms: N_19  and  C_32
    8  A    between atoms: C_20  and  C_27
    9  A    between atoms: C_20  and  N_30
   10  A    between atoms: C_26  and  C_34
   11  A    between atoms: C_26  and  C_43
   12  A    between atoms: C_36  and  C_42
                            x       y       z     vdW  Elec       q    Type
                         _______ _______ _______ _____ _____    ______ ____

>  <TORSDO>
F 12

$$$$
=
 OpenBabel11062422383D

 44 50  0  0  1  0  0  0  0  0999 V2000
  194.2110  175.8250  143.9360 C   0  0  2  0  0  3  0  0  0  0  0  0
  193.9770  174.3200  145.7410 O   0  0  0  0  0  0  0  0  0  0  0  0
  191.9220  175.2540  145.0740 C   0  0  0  0  0  2  0  0  0  0  0  0
  193.3910  176.4080  142.7800 C   0  0  0  0  0  2  0  0  0  0  0  0
  191.3210  175.5590  143.7700 N   0  0  0  0  0  0  0  0  0  0  0  0
  191.9600  176.7410  143.1950 C   0  0  0  0  0  2  0  0  0  0  0  0
  193.4090  175.0720  144.9650 C   0  0  0  0  0  0  0  0  0  0  0  0
  194.8730  177.4120  145.6100 N   0  0  0  0  0  2  0  0  0  0  0  0
  196.4860  177.0580  143.9450 N   0  0  0  0  0  2  0  0  0  0  0  0
  195.2040  176.7880  144.5300 C   0  0  0  0  0  0  0  0  0  0  0  0
  197.0070  176.4450  142.7330 C   0  0  0  0  0  2  0  0  0  0  0  0
  197.8630  175.2320  143.0680 C   0  0  0  0  0  2  0  0  0  0  0  0
  197.5120  174.0380  142.1930 C   0  0  0  0  0  2  0  0  0  0  0  0
  196.0860  174.1450  141.6780 C   0  0  1  0  0  3  0  0  0  0  0  0
  195.9210  173.3120  140.4240 C   0  0  0  0  0  2  0  0  0  0  0  0
  195.4340  172.7800  141.7570 C   0  0  2  0  0  3  0  0  0  0  0  0
  192.0450  171.4100  142.2060 C   0  0  0  0  0  2  0  0  0  0  0  0
  191.9470  171.9910  140.8050 C   0  0  2  0  0  0  0  0  0  0  0  0
  191.5300  172.0510  138.2990 C   0  0  2  0  0  3  0  0  0  0  0  0
  191.6080  171.1580  139.5640 C   0  0  2  0  0  3  0  0  0  0  0  0
  193.0230  173.8000  139.5600 C   0  0  2  0  0  3  0  0  0  0  0  0
  190.3980  170.5110  139.7470 F   0  0  0  0  0  0  0  0  0  0  0  0
  193.2520  172.6810  140.5570 C   0  0  1  0  0  0  0  0  0  0  0  0
  191.9790  173.4960  140.6180 C   0  0  2  0  0  3  0  0  0  0  0  0
  193.3640  171.8980  142.8160 C   0  0  0  0  0  2  0  0  0  0  0  0
  191.5510  171.2590  137.1510 O   0  0  0  0  0  1  0  0  0  0  0  0
  192.6610  173.1150  138.2190 C   0  0  0  0  0  2  0  0  0  0  0  0
  193.9290  172.9580  141.8770 C   0  0  1  0  0  3  0  0  0  0  0  0
  189.8810  175.8340  143.9050 C   0  0  2  0  0  3  0  0  0  0  0  0
  188.0410  174.6740  140.8630 C   0  0  0  0  0  2  0  0  0  0  0  0
  188.3000  173.1690  140.8700 C   0  0  0  0  0  2  0  0  0  0  0  0
  189.0750  175.3640  141.6310 N   0  0  0  0  0  2  0  0  0  0  0  0
  189.2820  173.4500  143.1550 C   0  0  0  0  0  2  0  0  0  0  0  0
  188.9700  174.9480  143.0290 C   0  0  1  0  0  3  0  0  0  0  0  0
  188.2980  172.6530  142.3060 C   0  0  0  0  0  2  0  0  0  0  0  0
  189.5730  177.3280  143.8020 C   0  0  0  0  0  2  0  0  0  0  0  0
  188.1920  177.5880  144.1820 N   0  0  0  0  0  2  0  0  0  0  0  0
  187.5900  178.4610  142.1030 O   0  0  0  0  0  0  0  0  0  0  0  0
  187.2350  178.1480  143.2740 C   0  0  0  0  0  0  0  0  0  0  0  0
  185.5540  177.4720  144.9470 C   0  0  0  0  0  1  0  0  0  0  0  0
  185.8090  178.3360  143.7230 C   0  0  0  0  0  0  0  0  0  0  0  0
  185.5350  179.7890  144.0920 C   0  0  0  0  0  1  0  0  0  0  0  0
  183.5570  178.2950  142.8460 O   0  0  0  0  0  1  0  0  0  0  0  0
  184.8780  177.9150  142.5880 C   0  0  0  0  0  2  0  0  0  0  0  0
  1 10  1  1  0  0  0
  1  7  1  0  0  0  0
  4  6  1  0  0  0  0
  4  1  1  0  0  0  0
  5 29  1  0  0  0  0
  5  3  1  0  0  0  0
  6  5  1  0  0  0  0
  7  3  1  0  0  0  0
  7  2  2  0  0  0  0
  9 10  1  0  0  0  0
 10  8  2  0  0  0  0
 11 12  1  0  0  0  0
 11  9  1  0  0  0  0
 13 12  1  0  0  0  0
 14 16  1  0  0  0  0
 14 13  1  1  0  0  0
 15 14  1  0  0  0  0
 16 15  1  6  0  0  0
 16 28  1  0  0  0  0
 17 25  1  0  0  0  0
 18 17  1  1  0  0  0
 19 26  1  6  0  0  0
 19 20  1  0  0  0  0
 20 22  1  1  0  0  0
 20 18  1  0  0  0  0
 21 27  1  6  0  0  0
 21 23  1  0  0  0  0
 21 24  1  0  0  0  0
 23 24  1  0  0  0  0
 23 18  1  0  0  0  0
 23 28  1  0  0  0  0
 24 18  1  0  0  0  0
 27 19  1  0  0  0  0
 28 25  1  0  0  0  0
 30 31  1  0  0  0  0
 30 32  1  0  0  0  0
 31 35  1  0  0  0  0
 32 34  1  0  0  0  0
 34 33  1  0  0  0  0
 34 29  1  0  0  0  0
 35 33  1  0  0  0  0
 36 29  1  0  0  0  0
 36 37  1  0  0  0  0
 38 39  2  0  0  0  0
 39 41  1  0  0  0  0
 39 37  1  0  0  0  0
 41 42  1  0  0  0  0
 41 40  1  0  0  0  0
 44 43  1  0  0  0  0
 44 41  1  0  0  0  0
M  END
>  <MODEL>
7

>  <REMARK>
 VINA RESULT:      -7.0      2.842      7.706
  Name = 
  12 active torsions:
  status: ('A' for Active; 'I' for Inactive)
    1  A    between atoms: C_5  and  C_21
    2  A    between atoms: C_10  and  N_11
    3  A    between atoms: C_10  and  C_20
    4  A    between atoms: C_13  and  C_39
    5  A    between atoms: C_14  and  C_32
    6  A    between atoms: C_14  and  C_39
    7  A    between atoms: N_19  and  C_32
    8  A    between atoms: C_20  and  C_27
    9  A    between atoms: C_20  and  N_30
   10  A    between atoms: C_26  and  C_34
   11  A    between atoms: C_26  and  C_43
   12  A    between atoms: C_36  and  C_42
                            x       y       z     vdW  Elec       q    Type
                         _______ _______ _______ _____ _____    ______ ____

>  <TORSDO>
F 12

$$$$
=
 OpenBabel11062422383D

 44 50  0  0  1  0  0  0  0  0999 V2000
  188.5120  174.9010  141.8090 C   0  0  2  0  0  3  0  0  0  0  0  0
  187.6870  172.7590  142.3650 O   0  0  0  0  0  0  0  0  0  0  0  0
  189.9770  172.9970  142.8520 C   0  0  0  0  0  2  0  0  0  0  0  0
  189.6390  175.8630  142.2020 C   0  0  0  0  0  2  0  0  0  0  0  0
  190.7870  174.0800  143.4230 N   0  0  0  0  0  0  0  0  0  0  0  0
  190.9640  175.1400  142.4310 C   0  0  0  0  0  2  0  0  0  0  0  0
  188.6540  173.5030  142.3530 C   0  0  0  0  0  0  0  0  0  0  0  0
  188.4750  173.9430  139.6090 N   0  0  0  0  0  2  0  0  0  0  0  0
  187.4710  176.0580  139.7420 N   0  0  0  0  0  2  0  0  0  0  0  0
  188.1460  174.9480  140.3500 C   0  0  0  0  0  0  0  0  0  0  0  0
  187.0390  177.2640  140.4330 C   0  0  0  0  0  2  0  0  0  0  0  0
  185.6390  177.6650  139.9890 C   0  0  0  0  0  2  0  0  0  0  0  0
  184.9090  178.4470  141.0710 C   0  0  0  0  0  2  0  0  0  0  0  0
  185.3540  178.0000  142.4540 C   0  0  1  0  0  3  0  0  0  0  0  0
  186.0910  179.1240  143.1530 C   0  0  0  0  0  2  0  0  0  0  0  0
  184.6420  178.8430  143.4930 C   0  0  2  0  0  3  0  0  0  0  0  0
  184.5350  178.6710  147.1700 C   0  0  0  0  0  2  0  0  0  0  0  0
  185.8300  177.9300  146.8750 C   0  0  2  0  0  0  0  0  0  0  0  0
  188.3070  177.3740  146.9760 C   0  0  2  0  0  3  0  0  0  0  0  0
  187.1980  178.3690  147.4060 C   0  0  2  0  0  3  0  0  0  0  0  0
  186.7320  176.6140  145.0220 C   0  0  2  0  0  3  0  0  0  0  0  0
  187.1630  178.4520  148.7880 F   0  0  0  0  0  0  0  0  0  0  0  0
  185.9180  177.8400  145.3830 C   0  0  1  0  0  0  0  0  0  0  0  0
  185.7730  176.5740  146.1970 C   0  0  2  0  0  3  0  0  0  0  0  0
  183.8100  178.8790  145.8360 C   0  0  0  0  0  2  0  0  0  0  0  0
  189.5650  177.9430  147.1740 O   0  0  0  0  0  1  0  0  0  0  0  0
  188.1760  176.8980  145.5020 C   0  0  0  0  0  2  0  0  0  0  0  0
  184.5470  178.0540  144.7880 C   0  0  1  0  0  3  0  0  0  0  0  0
  192.1180  173.5910  143.8170 C   0  0  2  0  0  3  0  0  0  0  0  0
  194.5710  175.3460  146.0290 C   0  0  0  0  0  2  0  0  0  0  0  0
  193.6930  176.3580  146.7620 C   0  0  0  0  0  2  0  0  0  0  0  0
  193.9320  174.9440  144.7780 N   0  0  0  0  0  2  0  0  0  0  0  0
  191.7050  175.1950  145.7810 C   0  0  0  0  0  2  0  0  0  0  0  0
  192.6910  174.2380  145.0950 C   0  0  1  0  0  3  0  0  0  0  0  0
  192.3320  175.7380  147.0620 C   0  0  0  0  0  2  0  0  0  0  0  0
  193.0940  173.5820  142.6400 C   0  0  0  0  0  2  0  0  0  0  0  0
  193.2360  172.2330  142.1090 N   0  0  0  0  0  2  0  0  0  0  0  0
  192.1660  172.7150  140.0910 O   0  0  0  0  0  0  0  0  0  0  0  0
  192.7590  171.8620  140.8090 C   0  0  0  0  0  0  0  0  0  0  0  0
  193.6470  170.5250  138.9360 C   0  0  0  0  0  1  0  0  0  0  0  0
  192.9930  170.4610  140.3060 C   0  0  0  0  0  0  0  0  0  0  0  0
  193.9130  169.6870  141.2430 C   0  0  0  0  0  1  0  0  0  0  0  0
  191.8000  168.4430  139.7200 O   0  0  0  0  0  1  0  0  0  0  0  0
  191.6480  169.7450  140.2070 C   0  0  0  0  0  2  0  0  0  0  0  0
  1 10  1  6  0  0  0
  1  4  1  0  0  0  0
  1  7  1  0  0  0  0
  3  5  1  0  0  0  0
  4  6  1  0  0  0  0
  5 29  1  0  0  0  0
  6  5  1  0  0  0  0
  7  2  2  0  0  0  0
  7  3  1  0  0  0  0
  8 10  2  0  0  0  0
  9 10  1  0  0  0  0
  9 11  1  0  0  0  0
 12 11  1  0  0  0  0
 12 13  1  0  0  0  0
 14 13  1  6  0  0  0
 14 15  1  0  0  0  0
 14 16  1  0  0  0  0
 16 15  1  1  0  0  0
 16 28  1  0  0  0  0
 18 17  1  1  0  0  0
 18 20  1  0  0  0  0
 19 26  1  6  0  0  0
 19 20  1  0  0  0  0
 20 22  1  1  0  0  0
 21 23  1  0  0  0  0
 21 27  1  1  0  0  0
 21 24  1  0  0  0  0
 23 24  1  0  0  0  0
 23 18  1  0  0  0  0
 24 18  1  0  0  0  0
 25 17  1  0  0  0  0
 27 19  1  0  0  0  0
 28 23  1  0  0  0  0
 28 25  1  0  0  0  0
 29 34  1  0  0  0  0
 30 31  1  0  0  0  0
 31 35  1  0  0  0  0
 32 34  1  0  0  0  0
 32 30  1  0  0  0  0
 33 35  1  0  0  0  0
 34 33  1  0  0  0  0
 36 29  1  0  0  0  0
 37 36  1  0  0  0  0
 38 39  2  0  0  0  0
 39 37  1  0  0  0  0
 40 41  1  0  0  0  0
 41 39  1  0  0  0  0
 41 42  1  0  0  0  0
 43 44  1  0  0  0  0
 44 41  1  0  0  0  0
M  END
>  <MODEL>
8

>  <REMARK>
 VINA RESULT:      -6.9      2.719      5.806
  Name = 
  12 active torsions:
  status: ('A' for Active; 'I' for Inactive)
    1  A    between atoms: C_5  and  C_21
    2  A    between atoms: C_10  and  N_11
    3  A    between atoms: C_10  and  C_20
    4  A    between atoms: C_13  and  C_39
    5  A    between atoms: C_14  and  C_32
    6  A    between atoms: C_14  and  C_39
    7  A    between atoms: N_19  and  C_32
    8  A    between atoms: C_20  and  C_27
    9  A    between atoms: C_20  and  N_30
   10  A    between atoms: C_26  and  C_34
   11  A    between atoms: C_26  and  C_43
   12  A    between atoms: C_36  and  C_42
                            x       y       z     vdW  Elec       q    Type
                         _______ _______ _______ _____ _____    ______ ____

>  <TORSDO>
F 12

$$$$
=
 OpenBabel11062422383D

 44 50  0  0  1  0  0  0  0  0999 V2000
  193.9620  174.6750  143.2150 C   0  0  2  0  0  3  0  0  0  0  0  0
  193.7660  176.7300  142.0680 O   0  0  0  0  0  0  0  0  0  0  0  0
  193.5550  174.8740  140.6360 C   0  0  0  0  0  2  0  0  0  0  0  0
  193.5310  173.2100  143.0820 C   0  0  0  0  0  2  0  0  0  0  0  0
  192.8840  173.5740  140.7500 N   0  0  0  0  0  0  0  0  0  0  0  0
  193.6420  172.7020  141.6460 C   0  0  0  0  0  2  0  0  0  0  0  0
  193.7510  175.5120  141.9810 C   0  0  0  0  0  0  0  0  0  0  0  0
  196.3110  174.2030  143.3570 N   0  0  0  0  0  2  0  0  0  0  0  0
  195.5450  175.7140  144.9790 N   0  0  0  0  0  2  0  0  0  0  0  0
  195.3150  174.8610  143.8490 C   0  0  0  0  0  0  0  0  0  0  0  0
  194.5340  176.5160  145.6510 C   0  0  0  0  0  2  0  0  0  0  0  0
  193.6320  175.6380  146.5060 C   0  0  0  0  0  2  0  0  0  0  0  0
  192.4340  176.4110  147.0370 C   0  0  0  0  0  2  0  0  0  0  0  0
  191.1510  175.9460  146.3680 C   0  0  1  0  0  3  0  0  0  0  0  0
  189.9610  176.2510  147.2530 C   0  0  0  0  0  2  0  0  0  0  0  0
  190.2830  177.1550  146.0820 C   0  0  2  0  0  3  0  0  0  0  0  0
  188.5420  178.1410  142.9900 C   0  0  0  0  0  2  0  0  0  0  0  0
  187.3690  177.8470  143.9110 C   0  0  2  0  0  0  0  0  0  0  0  0
  185.2120  178.2580  145.1910 C   0  0  2  0  0  3  0  0  0  0  0  0
  186.3020  178.8830  144.2820 C   0  0  2  0  0  3  0  0  0  0  0  0
  186.9560  176.4130  145.8480 C   0  0  2  0  0  3  0  0  0  0  0  0
  185.7130  179.3850  143.1340 F   0  0  0  0  0  0  0  0  0  0  0  0
  187.9670  177.3230  145.1790 C   0  0  1  0  0  0  0  0  0  0  0  0
  187.0970  176.4170  144.3370 C   0  0  2  0  0  3  0  0  0  0  0  0
  189.8120  177.6450  143.6890 C   0  0  0  0  0  2  0  0  0  0  0  0
  184.4470  179.2630  145.7820 O   0  0  0  0  0  1  0  0  0  0  0  0
  185.7840  177.3220  146.2930 C   0  0  0  0  0  2  0  0  0  0  0  0
  189.3710  176.8410  144.9070 C   0  0  1  0  0  3  0  0  0  0  0  0
  192.7870  172.9140  139.4380 C   0  0  2  0  0  3  0  0  0  0  0  0
  195.2270  173.7240  136.7210 C   0  0  0  0  0  2  0  0  0  0  0  0
  194.3160  174.1620  135.5760 C   0  0  0  0  0  2  0  0  0  0  0  0
  194.4830  172.8850  137.6590 N   0  0  0  0  0  2  0  0  0  0  0  0
  192.4180  174.1330  137.2070 C   0  0  0  0  0  2  0  0  0  0  0  0
  193.4310  173.6940  138.2740 C   0  0  1  0  0  3  0  0  0  0  0  0
  193.1310  174.9450  136.1310 C   0  0  0  0  0  2  0  0  0  0  0  0
  191.3660  172.4310  139.1460 C   0  0  0  0  0  2  0  0  0  0  0  0
  190.4120  173.1100  140.0110 N   0  0  0  0  0  2  0  0  0  0  0  0
  190.0540  171.2550  141.3820 O   0  0  0  0  0  0  0  0  0  0  0  0
  189.7950  172.4660  141.1340 C   0  0  0  0  0  0  0  0  0  0  0  0
  188.8010  174.6890  141.5270 C   0  0  0  0  0  1  0  0  0  0  0  0
  188.8600  173.2510  142.0180 C   0  0  0  0  0  0  0  0  0  0  0  0
  187.4520  172.6710  141.9820 C   0  0  0  0  0  1  0  0  0  0  0  0
  190.4550  174.1040  143.6210 O   0  0  0  0  0  1  0  0  0  0  0  0
  189.3910  173.2130  143.4490 C   0  0  0  0  0  2  0  0  0  0  0  0
  1 10  1  6  0  0  0
  3  5  1  0  0  0  0
  3  7  1  0  0  0  0
  4  1  1  0  0  0  0
  5  6  1  0  0  0  0
  6  4  1  0  0  0  0
  7  2  2  0  0  0  0
  7  1  1  0  0  0  0
  8 10  2  0  0  0  0
  9 11  1  0  0  0  0
 10  9  1  0  0  0  0
 11 12  1  0  0  0  0
 12 13  1  0  0  0  0
 14 13  1  1  0  0  0
 14 15  1  0  0  0  0
 16 14  1  0  0  0  0
 16 15  1  1  0  0  0
 17 25  1  0  0  0  0
 18 17  1  6  0  0  0
 18 20  1  0  0  0  0
 18 24  1  0  0  0  0
 18 23  1  0  0  0  0
 19 26  1  1  0  0  0
 19 27  1  0  0  0  0
 20 22  1  6  0  0  0
 20 19  1  0  0  0  0
 21 27  1  6  0  0  0
 23 21  1  0  0  0  0
 24 23  1  0  0  0  0
 24 21  1  0  0  0  0
 25 28  1  0  0  0  0
 28 23  1  0  0  0  0
 28 16  1  0  0  0  0
 29  5  1  0  0  0  0
 30 32  1  0  0  0  0
 31 35  1  0  0  0  0
 31 30  1  0  0  0  0
 32 34  1  0  0  0  0
 33 34  1  0  0  0  0
 34 29  1  0  0  0  0
 35 33  1  0  0  0  0
 36 29  1  0  0  0  0
 36 37  1  0  0  0  0
 37 39  1  0  0  0  0
 39 38  2  0  0  0  0
 39 41  1  0  0  0  0
 40 41  1  0  0  0  0
 41 44  1  0  0  0  0
 42 41  1  0  0  0  0
 44 43  1  0  0  0  0
M  END
>  <MODEL>
9

>  <REMARK>
 VINA RESULT:      -6.9      2.016      3.036
  Name = 
  12 active torsions:
  status: ('A' for Active; 'I' for Inactive)
    1  A    between atoms: C_5  and  C_21
    2  A    between atoms: C_10  and  N_11
    3  A    between atoms: C_10  and  C_20
    4  A    between atoms: C_13  and  C_39
    5  A    between atoms: C_14  and  C_32
    6  A    between atoms: C_14  and  C_39
    7  A    between atoms: N_19  and  C_32
    8  A    between atoms: C_20  and  C_27
    9  A    between atoms: C_20  and  N_30
   10  A    between atoms: C_26  and  C_34
   11  A    between atoms: C_26  and  C_43
   12  A    between atoms: C_36  and  C_42
                            x       y       z     vdW  Elec       q    Type
                         _______ _______ _______ _____ _____    ______ ____

>  <TORSDO>
F 12

$$$$
