=
 OpenBabel11062419063D

 32 34  0  0  1  0  0  0  0  0999 V2000
  188.9040  176.4870  145.5880 C   0  0  1  0  0  3  0  0  0  0  0  0
  191.8860  175.4780  145.7610 O   0  0  0  0  0  0  0  0  0  0  0  0
  191.1040  175.7680  147.3080 S   0  0  0  0  0  0  0  0  0  0  0  0
  190.4660  175.9790  143.8740 O   0  0  0  0  0  0  0  0  0  0  0  0
  189.5090  176.8110  144.3750 O   0  0  0  0  0  0  0  0  0  0  0  0
  189.2840  177.9330  147.5400 O   0  0  0  0  0  0  0  0  0  0  0  0
  190.2680  174.6030  144.1340 C   0  0  2  0  0  3  0  0  0  0  0  0
  189.6950  176.9390  146.8820 C   0  0  0  0  0  0  0  0  0  0  0  0
  191.3560  174.2810  145.2080 C   0  0  1  0  0  3  0  0  0  0  0  0
  195.1860  174.6490  142.5560 C   0  0  0  0  0  2  0  0  0  0  0  0
  193.7540  174.1100  144.5610 N   0  0  0  0  0  0  0  0  0  0  0  0
  192.5220  173.4660  144.7900 C   0  0  0  0  0  0  0  0  0  0  0  0
  196.2920  174.3260  144.8230 C   0  0  1  0  0  3  0  0  0  0  0  0
  192.5200  172.1390  144.7120 O   0  0  0  0  0  0  0  0  0  0  0  0
  193.8180  174.5700  143.2420 C   0  0  0  0  0  2  0  0  0  0  0  0
  196.2080  176.7190  143.6800 C   0  0  0  0  0  1  0  0  0  0  0  0
  196.1480  175.1850  143.6090 C   0  0  2  0  0  3  0  0  0  0  0  0
  194.9120  173.6920  145.4440 C   0  0  0  0  0  2  0  0  0  0  0  0
  197.5910  173.4040  144.8650 C   0  0  0  0  0  1  0  0  0  0  0  0
  188.1710  172.7690  141.6700 C   0  0  0  0  0  2  0  0  0  0  0  0
  190.1050  173.7970  142.8450 N   0  0  0  0  0  0  0  0  0  0  0  0
  189.7810  174.4710  141.6400 C   0  0  0  0  0  2  0  0  0  0  0  0
  189.0540  173.5320  140.6790 C   0  0  0  0  0  2  0  0  0  0  0  0
  189.0000  172.7110  142.9540 C   0  0  0  0  0  2  0  0  0  0  0  0
  186.2180  176.9060  146.3920 C   0  0  0  0  0  1  0  0  0  0  0  0
  187.4200  177.0510  145.4640 C   0  0  2  0  0  3  0  0  0  0  0  0
  186.8970  177.5560  144.1350 N   0  0  0  0  0  2  0  0  0  0  0  0
  186.6920  175.8950  142.6220 O   0  0  0  0  0  1  0  0  0  0  0  0
  185.9650  176.7500  143.4030 C   0  0  2  0  0  3  0  0  0  0  0  0
  185.2500  177.6290  142.4190 C   0  0  0  0  0  0  0  0  0  0  0  0
  184.0710  177.9800  142.6440 O   0  0  0  0  0  1  0  0  0  0  0  0
  185.8820  178.2130  141.2160 O   0  0  0  0  0  0  0  0  0  0  0  0
  1 26  1  6  0  0  0
  1  8  1  0  0  0  0
  2  3  1  0  0  0  0
  4  7  1  0  0  0  0
  4  5  1  0  0  0  0
  5  1  1  0  0  0  0
  7 21  1  6  0  0  0
  7  9  1  0  0  0  0
  8  3  1  0  0  0  0
  8  6  2  0  0  0  0
  9 12  1  6  0  0  0
  9  2  1  0  0  0  0
 10 15  1  0  0  0  0
 10 17  1  0  0  0  0
 11 12  1  0  0  0  0
 11 18  1  0  0  0  0
 13 19  1  6  0  0  0
 13 18  1  0  0  0  0
 14 12  2  0  0  0  0
 15 11  1  0  0  0  0
 17 16  1  1  0  0  0
 17 13  1  0  0  0  0
 20 24  1  0  0  0  0
 21 24  1  0  0  0  0
 22 21  1  0  0  0  0
 23 22  1  0  0  0  0
 23 20  1  0  0  0  0
 26 25  1  6  0  0  0
 27 26  1  0  0  0  0
 29 28  1  6  0  0  0
 29 27  1  0  0  0  0
 30 31  1  0  0  0  0
 30 29  1  0  0  0  0
 32 30  2  0  0  0  0
M  END
>  <MODEL>
1

>  <REMARK>
 VINA RESULT:      -6.8      0.000      0.000
  Name = 
  6 active torsions:
  status: ('A' for Active; 'I' for Inactive)
    1  A    between atoms: C_4  and  C_27
    2  A    between atoms: C_5  and  C_29
    3  A    between atoms: C_10  and  C_25
    4  A    between atoms: N_11  and  C_18
    5  A    between atoms: N_21  and  C_27
    6  A    between atoms: N_21  and  C_29
                            x       y       z     vdW  Elec       q    Type
                         _______ _______ _______ _____ _____    ______ ____

>  <TORSDO>
F 6

$$$$
=
 OpenBabel11062419063D

 32 34  0  0  1  0  0  0  0  0999 V2000
  188.9850  175.4500  142.0650 C   0  0  1  0  0  3  0  0  0  0  0  0
  190.8940  172.9740  142.4770 O   0  0  0  0  0  0  0  0  0  0  0  0
  190.6900  173.4930  140.8090 S   0  0  0  0  0  0  0  0  0  0  0  0
  189.6030  174.2860  144.0400 O   0  0  0  0  0  0  0  0  0  0  0  0
  188.6310  174.8670  143.2810 O   0  0  0  0  0  0  0  0  0  0  0  0
  188.1550  174.4590  139.9740 O   0  0  0  0  0  0  0  0  0  0  0  0
  190.8690  174.9120  143.9840 C   0  0  2  0  0  3  0  0  0  0  0  0
  189.0750  174.4560  140.8370 C   0  0  0  0  0  0  0  0  0  0  0  0
  191.7260  173.9160  143.1400 C   0  0  1  0  0  3  0  0  0  0  0  0
  196.3420  173.1930  143.0130 C   0  0  0  0  0  2  0  0  0  0  0  0
  194.0590  173.6680  143.9750 N   0  0  0  0  0  0  0  0  0  0  0  0
  192.7650  173.1260  143.8440 C   0  0  0  0  0  0  0  0  0  0  0  0
  196.1590  174.2460  145.3210 C   0  0  1  0  0  3  0  0  0  0  0  0
  192.5380  171.9710  144.4620 O   0  0  0  0  0  0  0  0  0  0  0  0
  194.8260  173.3560  142.8490 C   0  0  0  0  0  2  0  0  0  0  0  0
  197.0970  175.6350  143.2650 C   0  0  0  0  0  1  0  0  0  0  0  0
  196.7770  174.3030  143.9620 C   0  0  2  0  0  3  0  0  0  0  0  0
  194.5550  173.9060  145.3860 C   0  0  0  0  0  2  0  0  0  0  0  0
  197.0740  173.6250  146.4690 C   0  0  0  0  0  1  0  0  0  0  0  0
  190.3030  176.9690  147.0310 C   0  0  0  0  0  2  0  0  0  0  0  0
  191.3070  175.4340  145.3530 N   0  0  0  0  0  0  0  0  0  0  0  0
  190.8830  174.7560  146.5240 C   0  0  0  0  0  2  0  0  0  0  0  0
  190.8470  175.7120  147.7150 C   0  0  0  0  0  2  0  0  0  0  0  0
  190.8570  176.8990  145.6080 C   0  0  0  0  0  2  0  0  0  0  0  0
  188.2220  178.1350  141.5700 C   0  0  0  0  0  1  0  0  0  0  0  0
  187.9700  176.6640  141.8880 C   0  0  2  0  0  3  0  0  0  0  0  0
  186.5450  176.5560  142.3880 N   0  0  0  0  0  2  0  0  0  0  0  0
  185.7900  176.6770  144.5110 O   0  0  0  0  0  1  0  0  0  0  0  0
  186.1010  177.4430  143.4210 C   0  0  2  0  0  3  0  0  0  0  0  0
  184.7870  178.0370  143.0040 C   0  0  0  0  0  0  0  0  0  0  0  0
  184.3760  177.8730  141.8340 O   0  0  0  0  0  0  0  0  0  0  0  0
  183.8640  178.7370  143.9240 O   0  0  0  0  0  1  0  0  0  0  0  0
  1 26  1  6  0  0  0
  1  5  1  0  0  0  0
  2  9  1  0  0  0  0
  3  8  1  0  0  0  0
  3  2  1  0  0  0  0
  5  4  1  0  0  0  0
  6  8  2  0  0  0  0
  7  4  1  0  0  0  0
  7 21  1  1  0  0  0
  8  1  1  0  0  0  0
  9 12  1  1  0  0  0
  9  7  1  0  0  0  0
 10 17  1  0  0  0  0
 11 18  1  0  0  0  0
 12 11  1  0  0  0  0
 12 14  2  0  0  0  0
 13 18  1  0  0  0  0
 13 19  1  1  0  0  0
 15 10  1  0  0  0  0
 15 11  1  0  0  0  0
 17 16  1  6  0  0  0
 17 13  1  0  0  0  0
 20 23  1  0  0  0  0
 21 24  1  0  0  0  0
 21 22  1  0  0  0  0
 22 23  1  0  0  0  0
 24 20  1  0  0  0  0
 26 25  1  1  0  0  0
 26 27  1  0  0  0  0
 27 29  1  0  0  0  0
 29 28  1  1  0  0  0
 30 29  1  0  0  0  0
 30 32  1  0  0  0  0
 31 30  2  0  0  0  0
M  END
>  <MODEL>
2

>  <REMARK>
 VINA RESULT:      -6.6      2.253      3.787
  Name = 
  6 active torsions:
  status: ('A' for Active; 'I' for Inactive)
    1  A    between atoms: C_4  and  C_27
    2  A    between atoms: C_5  and  C_29
    3  A    between atoms: C_10  and  C_25
    4  A    between atoms: N_11  and  C_18
    5  A    between atoms: N_21  and  C_27
    6  A    between atoms: N_21  and  C_29
                            x       y       z     vdW  Elec       q    Type
                         _______ _______ _______ _____ _____    ______ ____

>  <TORSDO>
F 6

$$$$
=
 OpenBabel11062419063D

 32 34  0  0  1  0  0  0  0  0999 V2000
  190.0810  173.6500  141.4830 C   0  0  1  0  0  3  0  0  0  0  0  0
  189.0980  176.5670  142.1670 O   0  0  0  0  0  0  0  0  0  0  0  0
  187.9000  175.5350  141.3980 S   0  0  0  0  0  0  0  0  0  0  0  0
  191.2330  175.4790  142.4640 O   0  0  0  0  0  0  0  0  0  0  0  0
  191.2210  174.4470  141.5720 O   0  0  0  0  0  0  0  0  0  0  0  0
  188.7510  173.6910  139.4150 O   0  0  0  0  0  0  0  0  0  0  0  0
  190.5270  175.2480  143.6670 C   0  0  2  0  0  3  0  0  0  0  0  0
  188.9330  174.2110  140.5490 C   0  0  0  0  0  0  0  0  0  0  0  0
  189.2550  176.1420  143.5140 C   0  0  1  0  0  3  0  0  0  0  0  0
  186.0290  179.0930  145.1650 C   0  0  0  0  0  2  0  0  0  0  0  0
  188.0280  177.5550  145.1570 N   0  0  0  0  0  0  0  0  0  0  0  0
  189.1650  177.3660  144.3460 C   0  0  0  0  0  0  0  0  0  0  0  0
  186.8820  178.1510  147.3680 C   0  0  1  0  0  3  0  0  0  0  0  0
  190.1380  178.2640  144.4670 O   0  0  0  0  0  0  0  0  0  0  0  0
  187.0160  178.1830  144.4250 C   0  0  0  0  0  2  0  0  0  0  0  0
  184.5500  177.3750  146.3710 C   0  0  0  0  0  1  0  0  0  0  0  0
  185.7080  178.3800  146.4730 C   0  0  2  0  0  3  0  0  0  0  0  0
  188.2660  177.6360  146.6510 C   0  0  0  0  0  2  0  0  0  0  0  0
  187.0380  179.1780  148.5770 C   0  0  0  0  0  1  0  0  0  0  0  0
  193.3760  173.9560  145.6780 C   0  0  0  0  0  2  0  0  0  0  0  0
  191.4460  175.3070  144.8870 N   0  0  0  0  0  0  0  0  0  0  0  0
  192.6730  176.0110  144.8000 C   0  0  0  0  0  2  0  0  0  0  0  0
  193.6860  175.4500  145.7960 C   0  0  0  0  0  2  0  0  0  0  0  0
  191.8770  173.8990  145.3820 C   0  0  0  0  0  2  0  0  0  0  0  0
  190.4460  170.8550  141.7850 C   0  0  0  0  0  1  0  0  0  0  0  0
  190.6280  172.2050  141.0980 C   0  0  2  0  0  3  0  0  0  0  0  0
  191.7640  172.0500  140.1080 N   0  0  0  0  0  2  0  0  0  0  0  0
  192.4770  170.6070  138.5260 O   0  0  0  0  0  1  0  0  0  0  0  0
  191.4880  171.5080  138.8110 C   0  0  2  0  0  3  0  0  0  0  0  0
  191.6770  172.5950  137.7930 C   0  0  0  0  0  0  0  0  0  0  0  0
  191.5550  172.3320  136.5770 O   0  0  0  0  0  0  0  0  0  0  0  0
  191.9020  174.0170  138.1310 O   0  0  0  0  0  1  0  0  0  0  0  0
  1 26  1  6  0  0  0
  1  5  1  0  0  0  0
  2  9  1  0  0  0  0
  3  2  1  0  0  0  0
  4  7  1  0  0  0  0
  5  4  1  0  0  0  0
  6  8  2  0  0  0  0
  7 21  1  1  0  0  0
  8  3  1  0  0  0  0
  8  1  1  0  0  0  0
  9  7  1  0  0  0  0
  9 12  1  1  0  0  0
 10 17  1  0  0  0  0
 11 18  1  0  0  0  0
 12 14  2  0  0  0  0
 12 11  1  0  0  0  0
 13 19  1  6  0  0  0
 15 11  1  0  0  0  0
 15 10  1  0  0  0  0
 17 16  1  6  0  0  0
 17 13  1  0  0  0  0
 18 13  1  0  0  0  0
 20 23  1  0  0  0  0
 21 24  1  0  0  0  0
 22 21  1  0  0  0  0
 22 23  1  0  0  0  0
 24 20  1  0  0  0  0
 26 25  1  1  0  0  0
 27 26  1  0  0  0  0
 29 28  1  6  0  0  0
 29 27  1  0  0  0  0
 30 32  1  0  0  0  0
 30 29  1  0  0  0  0
 31 30  2  0  0  0  0
M  END
>  <MODEL>
3

>  <REMARK>
 VINA RESULT:      -6.5      3.276      7.737
  Name = 
  6 active torsions:
  status: ('A' for Active; 'I' for Inactive)
    1  A    between atoms: C_4  and  C_27
    2  A    between atoms: C_5  and  C_29
    3  A    between atoms: C_10  and  C_25
    4  A    between atoms: N_11  and  C_18
    5  A    between atoms: N_21  and  C_27
    6  A    between atoms: N_21  and  C_29
                            x       y       z     vdW  Elec       q    Type
                         _______ _______ _______ _____ _____    ______ ____

>  <TORSDO>
F 6

$$$$
=
 OpenBabel11062419063D

 32 34  0  0  1  0  0  0  0  0999 V2000
  189.0440  177.1730  146.0030 C   0  0  1  0  0  3  0  0  0  0  0  0
  192.0860  176.8150  145.2540 O   0  0  0  0  0  0  0  0  0  0  0  0
  191.7050  176.6070  146.9580 S   0  0  0  0  0  0  0  0  0  0  0  0
  190.1550  177.3740  143.9150 O   0  0  0  0  0  0  0  0  0  0  0  0
  189.2460  177.8610  144.8080 O   0  0  0  0  0  0  0  0  0  0  0  0
  189.6940  178.2360  148.1230 O   0  0  0  0  0  0  0  0  0  0  0  0
  190.2530  175.9650  143.8580 C   0  0  2  0  0  3  0  0  0  0  0  0
  190.0680  177.5100  147.1620 C   0  0  0  0  0  0  0  0  0  0  0  0
  191.6230  175.6720  144.5490 C   0  0  1  0  0  3  0  0  0  0  0  0
  195.5580  173.1700  144.8570 C   0  0  0  0  0  2  0  0  0  0  0  0
  193.3490  173.9810  143.9480 N   0  0  0  0  0  0  0  0  0  0  0  0
  192.7500  175.2300  143.6920 C   0  0  0  0  0  0  0  0  0  0  0  0
  194.2760  171.7080  143.2180 C   0  0  1  0  0  3  0  0  0  0  0  0
  193.1780  175.8870  142.6190 O   0  0  0  0  0  0  0  0  0  0  0  0
  194.3560  174.1200  144.9090 C   0  0  0  0  0  2  0  0  0  0  0  0
  194.5340  170.9950  145.7600 C   0  0  0  0  0  1  0  0  0  0  0  0
  194.9870  171.7960  144.5290 C   0  0  2  0  0  3  0  0  0  0  0  0
  193.2760  172.9530  142.8390 C   0  0  0  0  0  2  0  0  0  0  0  0
  195.1100  171.0660  142.0220 C   0  0  0  0  0  1  0  0  0  0  0  0
  188.3590  173.6400  141.6580 C   0  0  0  0  0  2  0  0  0  0  0  0
  189.8830  175.4240  142.4760 N   0  0  0  0  0  0  0  0  0  0  0  0
  188.7480  175.9460  141.8070 C   0  0  0  0  0  2  0  0  0  0  0  0
  188.1790  174.9170  140.8320 C   0  0  0  0  0  2  0  0  0  0  0  0
  189.6210  173.8930  142.4830 C   0  0  0  0  0  2  0  0  0  0  0  0
  186.5600  176.6410  147.2610 C   0  0  0  0  0  1  0  0  0  0  0  0
  187.5100  177.4180  146.3560 C   0  0  2  0  0  3  0  0  0  0  0  0
  186.6590  178.3310  145.4980 N   0  0  0  0  0  2  0  0  0  0  0  0
  186.2190  178.0990  143.2970 O   0  0  0  0  0  1  0  0  0  0  0  0
  185.7660  177.7510  144.5400 C   0  0  2  0  0  3  0  0  0  0  0  0
  184.4370  178.4410  144.6520 C   0  0  0  0  0  0  0  0  0  0  0  0
  183.7620  178.6580  143.6220 O   0  0  0  0  0  0  0  0  0  0  0  0
  183.7980  178.8040  145.9350 O   0  0  0  0  0  1  0  0  0  0  0  0
  1 26  1  1  0  0  0
  1  8  1  0  0  0  0
  2  3  1  0  0  0  0
  3  8  1  0  0  0  0
  4  5  1  0  0  0  0
  5  1  1  0  0  0  0
  7 21  1  6  0  0  0
  7  4  1  0  0  0  0
  7  9  1  0  0  0  0
  8  6  2  0  0  0  0
  9 12  1  6  0  0  0
  9  2  1  0  0  0  0
 10 15  1  0  0  0  0
 11 15  1  0  0  0  0
 12 11  1  0  0  0  0
 13 19  1  6  0  0  0
 13 17  1  0  0  0  0
 14 12  2  0  0  0  0
 17 10  1  0  0  0  0
 17 16  1  1  0  0  0
 18 13  1  0  0  0  0
 18 11  1  0  0  0  0
 20 24  1  0  0  0  0
 21 24  1  0  0  0  0
 22 21  1  0  0  0  0
 23 20  1  0  0  0  0
 23 22  1  0  0  0  0
 26 25  1  6  0  0  0
 27 26  1  0  0  0  0
 29 28  1  6  0  0  0
 29 30  1  0  0  0  0
 29 27  1  0  0  0  0
 30 32  1  0  0  0  0
 31 30  2  0  0  0  0
M  END
>  <MODEL>
4

>  <REMARK>
 VINA RESULT:      -6.3      1.791      2.519
  Name = 
  6 active torsions:
  status: ('A' for Active; 'I' for Inactive)
    1  A    between atoms: C_4  and  C_27
    2  A    between atoms: C_5  and  C_29
    3  A    between atoms: C_10  and  C_25
    4  A    between atoms: N_11  and  C_18
    5  A    between atoms: N_21  and  C_27
    6  A    between atoms: N_21  and  C_29
                            x       y       z     vdW  Elec       q    Type
                         _______ _______ _______ _____ _____    ______ ____

>  <TORSDO>
F 6

$$$$
=
 OpenBabel11062419063D

 32 34  0  0  1  0  0  0  0  0999 V2000
  188.8310  176.0990  144.2200 C   0  0  1  0  0  3  0  0  0  0  0  0
  191.4410  174.6050  145.1700 O   0  0  0  0  0  0  0  0  0  0  0  0
  190.3290  175.0590  146.4540 S   0  0  0  0  0  0  0  0  0  0  0  0
  190.6890  175.2950  142.9810 O   0  0  0  0  0  0  0  0  0  0  0  0
  189.7870  176.2880  143.2240 O   0  0  0  0  0  0  0  0  0  0  0  0
  188.9070  177.5050  146.2360 O   0  0  0  0  0  0  0  0  0  0  0  0
  190.2000  173.9790  143.1460 C   0  0  2  0  0  3  0  0  0  0  0  0
  189.3060  176.4410  145.6910 C   0  0  0  0  0  0  0  0  0  0  0  0
  190.8850  173.5030  144.4660 C   0  0  1  0  0  3  0  0  0  0  0  0
  195.3140  173.1730  143.0110 C   0  0  0  0  0  2  0  0  0  0  0  0
  193.3040  172.9110  144.5110 N   0  0  0  0  0  0  0  0  0  0  0  0
  191.9660  172.4940  144.3600 C   0  0  0  0  0  0  0  0  0  0  0  0
  195.6620  172.6870  145.4820 C   0  0  1  0  0  3  0  0  0  0  0  0
  191.7620  171.1860  144.2330 O   0  0  0  0  0  0  0  0  0  0  0  0
  193.8150  173.3390  143.2820 C   0  0  0  0  0  2  0  0  0  0  0  0
  196.3110  175.0450  144.4570 C   0  0  0  0  0  1  0  0  0  0  0  0
  196.0150  173.5440  144.3110 C   0  0  2  0  0  3  0  0  0  0  0  0
  194.0760  172.3080  145.6660 C   0  0  0  0  0  2  0  0  0  0  0  0
  196.7200  171.5530  145.8510 C   0  0  0  0  0  1  0  0  0  0  0  0
  188.9720  173.2290  139.7160 C   0  0  0  0  0  2  0  0  0  0  0  0
  190.2580  173.1820  141.8420 N   0  0  0  0  0  0  0  0  0  0  0  0
  191.0220  173.6810  140.7560 C   0  0  0  0  0  2  0  0  0  0  0  0
  190.4740  173.1580  139.4300 C   0  0  0  0  0  2  0  0  0  0  0  0
  188.8550  172.9540  141.2160 C   0  0  0  0  0  2  0  0  0  0  0  0
  187.4430  178.1670  142.8670 C   0  0  0  0  0  1  0  0  0  0  0  0
  187.5530  176.9020  143.7120 C   0  0  2  0  0  3  0  0  0  0  0  0
  186.1970  176.6720  144.3460 N   0  0  0  0  0  2  0  0  0  0  0  0
  185.3950  176.7440  146.4540 O   0  0  0  0  0  1  0  0  0  0  0  0
  185.7680  177.5380  145.4050 C   0  0  2  0  0  3  0  0  0  0  0  0
  184.4950  178.2100  144.9810 C   0  0  0  0  0  0  0  0  0  0  0  0
  183.7850  178.7860  145.8340 O   0  0  0  0  0  1  0  0  0  0  0  0
  184.0520  178.3370  143.5760 O   0  0  0  0  0  0  0  0  0  0  0  0
  1 26  1  6  0  0  0
  1  8  1  0  0  0  0
  2  3  1  0  0  0  0
  4  7  1  0  0  0  0
  4  5  1  0  0  0  0
  5  1  1  0  0  0  0
  7 21  1  6  0  0  0
  7  9  1  0  0  0  0
  8  6  2  0  0  0  0
  8  3  1  0  0  0  0
  9 12  1  6  0  0  0
  9  2  1  0  0  0  0
 10 15  1  0  0  0  0
 10 17  1  0  0  0  0
 11 18  1  0  0  0  0
 12 11  1  0  0  0  0
 13 18  1  0  0  0  0
 13 19  1  6  0  0  0
 14 12  2  0  0  0  0
 15 11  1  0  0  0  0
 17 16  1  1  0  0  0
 17 13  1  0  0  0  0
 20 24  1  0  0  0  0
 22 21  1  0  0  0  0
 23 20  1  0  0  0  0
 23 22  1  0  0  0  0
 24 21  1  0  0  0  0
 26 25  1  1  0  0  0
 26 27  1  0  0  0  0
 27 29  1  0  0  0  0
 29 28  1  1  0  0  0
 30 29  1  0  0  0  0
 30 31  1  0  0  0  0
 32 30  2  0  0  0  0
M  END
>  <MODEL>
5

>  <REMARK>
 VINA RESULT:      -6.3      1.654      1.986
  Name = 
  6 active torsions:
  status: ('A' for Active; 'I' for Inactive)
    1  A    between atoms: C_4  and  C_27
    2  A    between atoms: C_5  and  C_29
    3  A    between atoms: C_10  and  C_25
    4  A    between atoms: N_11  and  C_18
    5  A    between atoms: N_21  and  C_27
    6  A    between atoms: N_21  and  C_29
                            x       y       z     vdW  Elec       q    Type
                         _______ _______ _______ _____ _____    ______ ____

>  <TORSDO>
F 6

$$$$
=
 OpenBabel11062419063D

 32 34  0  0  1  0  0  0  0  0999 V2000
  192.3870  175.3300  144.7240 C   0  0  1  0  0  3  0  0  0  0  0  0
  189.2540  175.6770  144.8260 O   0  0  0  0  0  0  0  0  0  0  0  0
  190.1780  177.0200  145.4860 S   0  0  0  0  0  0  0  0  0  0  0  0
  190.6470  173.8670  144.0420 O   0  0  0  0  0  0  0  0  0  0  0  0
  191.8390  174.0490  144.6780 O   0  0  0  0  0  0  0  0  0  0  0  0
  192.5800  176.4710  146.8940 O   0  0  0  0  0  0  0  0  0  0  0  0
  190.4310  174.6880  142.9120 C   0  0  2  0  0  3  0  0  0  0  0  0
  191.8490  176.2550  145.8900 C   0  0  0  0  0  0  0  0  0  0  0  0
  189.3630  175.7120  143.4100 C   0  0  1  0  0  3  0  0  0  0  0  0
  185.0820  177.4130  144.2020 C   0  0  0  0  0  2  0  0  0  0  0  0
  187.1340  176.7070  142.9160 N   0  0  0  0  0  0  0  0  0  0  0  0
  187.9810  175.5810  142.8870 C   0  0  0  0  0  0  0  0  0  0  0  0
  185.4490  178.3160  141.8540 C   0  0  1  0  0  3  0  0  0  0  0  0
  187.5060  174.4940  142.2880 O   0  0  0  0  0  0  0  0  0  0  0  0
  186.4780  176.7820  144.1490 C   0  0  0  0  0  2  0  0  0  0  0  0
  185.6350  179.9090  143.9660 C   0  0  0  0  0  1  0  0  0  0  0  0
  185.1390  178.6260  143.2820 C   0  0  2  0  0  3  0  0  0  0  0  0
  186.6350  177.2160  141.5790 C   0  0  0  0  0  2  0  0  0  0  0  0
  184.1970  178.2850  140.8670 C   0  0  0  0  0  1  0  0  0  0  0  0
  191.8120  172.5550  140.1950 C   0  0  0  0  0  2  0  0  0  0  0  0
  190.2650  173.8650  141.6330 N   0  0  0  0  0  0  0  0  0  0  0  0
  190.0430  172.4680  141.7300 C   0  0  0  0  0  2  0  0  0  0  0  0
  190.5330  171.7590  140.4690 C   0  0  0  0  0  2  0  0  0  0  0  0
  191.4960  173.9670  140.6910 C   0  0  0  0  0  2  0  0  0  0  0  0
  194.8080  173.9720  145.3000 C   0  0  0  0  0  1  0  0  0  0  0  0
  193.9620  175.0970  144.7110 C   0  0  2  0  0  3  0  0  0  0  0  0
  194.9060  176.2330  144.3740 N   0  0  0  0  0  2  0  0  0  0  0  0
  196.8290  177.0840  143.5550 O   0  0  0  0  0  1  0  0  0  0  0  0
  196.0280  175.9750  143.5220 C   0  0  2  0  0  3  0  0  0  0  0  0
  195.5420  175.9160  142.1030 C   0  0  0  0  0  0  0  0  0  0  0  0
  195.7090  176.8990  141.3490 O   0  0  0  0  0  0  0  0  0  0  0  0
  194.9550  174.7110  141.4780 O   0  0  0  0  0  1  0  0  0  0  0  0
  1 26  1  1  0  0  0
  1  8  1  0  0  0  0
  2  3  1  0  0  0  0
  3  8  1  0  0  0  0
  4  5  1  0  0  0  0
  5  1  1  0  0  0  0
  7 21  1  6  0  0  0
  7  9  1  0  0  0  0
  7  4  1  0  0  0  0
  8  6  2  0  0  0  0
  9 12  1  6  0  0  0
  9  2  1  0  0  0  0
 11 15  1  0  0  0  0
 12 11  1  0  0  0  0
 13 19  1  1  0  0  0
 13 17  1  0  0  0  0
 14 12  2  0  0  0  0
 15 10  1  0  0  0  0
 17 16  1  1  0  0  0
 17 10  1  0  0  0  0
 18 13  1  0  0  0  0
 18 11  1  0  0  0  0
 20 23  1  0  0  0  0
 20 24  1  0  0  0  0
 21 22  1  0  0  0  0
 23 22  1  0  0  0  0
 24 21  1  0  0  0  0
 26 25  1  1  0  0  0
 27 26  1  0  0  0  0
 29 28  1  6  0  0  0
 29 27  1  0  0  0  0
 30 29  1  0  0  0  0
 31 30  2  0  0  0  0
 32 30  1  0  0  0  0
M  END
>  <MODEL>
6

>  <REMARK>
 VINA RESULT:      -6.3      2.387      7.632
  Name = 
  6 active torsions:
  status: ('A' for Active; 'I' for Inactive)
    1  A    between atoms: C_4  and  C_27
    2  A    between atoms: C_5  and  C_29
    3  A    between atoms: C_10  and  C_25
    4  A    between atoms: N_11  and  C_18
    5  A    between atoms: N_21  and  C_27
    6  A    between atoms: N_21  and  C_29
                            x       y       z     vdW  Elec       q    Type
                         _______ _______ _______ _____ _____    ______ ____

>  <TORSDO>
F 6

$$$$
=
 OpenBabel11062419063D

 32 34  0  0  1  0  0  0  0  0999 V2000
  192.8260  175.5820  144.3960 C   0  0  1  0  0  3  0  0  0  0  0  0
  190.1210  177.2000  144.4800 O   0  0  0  0  0  0  0  0  0  0  0  0
  191.5470  178.1470  144.0800 S   0  0  0  0  0  0  0  0  0  0  0  0
  190.6190  174.8770  144.9130 O   0  0  0  0  0  0  0  0  0  0  0  0
  191.9510  174.8590  145.2050 O   0  0  0  0  0  0  0  0  0  0  0  0
  194.0090  177.5180  145.3430 O   0  0  0  0  0  0  0  0  0  0  0  0
  190.3020  174.9400  143.5370 C   0  0  2  0  0  3  0  0  0  0  0  0
  192.9690  177.1170  144.7540 C   0  0  0  0  0  0  0  0  0  0  0  0
  189.7830  176.4020  143.3540 C   0  0  1  0  0  3  0  0  0  0  0  0
  185.8020  176.6060  145.7930 C   0  0  0  0  0  2  0  0  0  0  0  0
  187.5720  177.2560  144.1180 N   0  0  0  0  0  0  0  0  0  0  0  0
  188.3310  176.5980  143.1300 C   0  0  0  0  0  0  0  0  0  0  0  0
  185.8460  178.9820  144.8890 C   0  0  1  0  0  3  0  0  0  0  0  0
  187.6970  176.2860  142.0030 O   0  0  0  0  0  0  0  0  0  0  0  0
  187.1280  176.3360  145.0740 C   0  0  0  0  0  2  0  0  0  0  0  0
  186.4680  178.4790  147.4180 C   0  0  0  0  0  1  0  0  0  0  0  0
  185.7880  178.1000  146.0930 C   0  0  2  0  0  3  0  0  0  0  0  0
  186.9000  178.5500  143.7090 C   0  0  0  0  0  2  0  0  0  0  0  0
  184.4530  179.5990  144.4200 C   0  0  0  0  0  1  0  0  0  0  0  0
  189.8910  171.9450  141.3700 C   0  0  0  0  0  2  0  0  0  0  0  0
  189.5150  173.7120  143.0770 N   0  0  0  0  0  0  0  0  0  0  0  0
  189.7960  172.4490  143.6560 C   0  0  0  0  0  2  0  0  0  0  0  0
  189.4320  171.3230  142.6910 C   0  0  0  0  0  2  0  0  0  0  0  0
  189.6580  173.4450  141.5530 C   0  0  0  0  0  2  0  0  0  0  0  0
  195.0090  174.2240  145.5910 C   0  0  0  0  0  1  0  0  0  0  0  0
  194.1820  174.7470  144.4210 C   0  0  2  0  0  3  0  0  0  0  0  0
  195.0550  174.6600  143.1860 N   0  0  0  0  0  2  0  0  0  0  0  0
  194.7530  175.1780  141.0100 O   0  0  0  0  0  1  0  0  0  0  0  0
  195.0210  175.7290  142.2330 C   0  0  2  0  0  3  0  0  0  0  0  0
  196.4090  176.2820  142.0900 C   0  0  0  0  0  0  0  0  0  0  0  0
  197.0060  176.1830  140.9970 O   0  0  0  0  0  0  0  0  0  0  0  0
  197.1080  177.0480  143.1450 O   0  0  0  0  0  1  0  0  0  0  0  0
  1 26  1  1  0  0  0
  1  8  1  0  0  0  0
  1  5  1  0  0  0  0
  3  2  1  0  0  0  0
  3  8  1  0  0  0  0
  4  5  1  0  0  0  0
  7 21  1  1  0  0  0
  7  4  1  0  0  0  0
  8  6  2  0  0  0  0
  9 12  1  1  0  0  0
  9  7  1  0  0  0  0
  9  2  1  0  0  0  0
 10 17  1  0  0  0  0
 11 15  1  0  0  0  0
 12 11  1  0  0  0  0
 13 19  1  6  0  0  0
 13 17  1  0  0  0  0
 14 12  2  0  0  0  0
 15 10  1  0  0  0  0
 17 16  1  1  0  0  0
 18 11  1  0  0  0  0
 18 13  1  0  0  0  0
 20 24  1  0  0  0  0
 20 23  1  0  0  0  0
 21 22  1  0  0  0  0
 23 22  1  0  0  0  0
 24 21  1  0  0  0  0
 26 25  1  1  0  0  0
 27 26  1  0  0  0  0
 29 28  1  6  0  0  0
 29 27  1  0  0  0  0
 30 29  1  0  0  0  0
 30 32  1  0  0  0  0
 31 30  2  0  0  0  0
M  END
>  <MODEL>
7

>  <REMARK>
 VINA RESULT:      -6.2      2.570      7.655
  Name = 
  6 active torsions:
  status: ('A' for Active; 'I' for Inactive)
    1  A    between atoms: C_4  and  C_27
    2  A    between atoms: C_5  and  C_29
    3  A    between atoms: C_10  and  C_25
    4  A    between atoms: N_11  and  C_18
    5  A    between atoms: N_21  and  C_27
    6  A    between atoms: N_21  and  C_29
                            x       y       z     vdW  Elec       q    Type
                         _______ _______ _______ _____ _____    ______ ____

>  <TORSDO>
F 6

$$$$
=
 OpenBabel11062419063D

 32 34  0  0  1  0  0  0  0  0999 V2000
  192.8940  175.5530  144.2460 C   0  0  1  0  0  3  0  0  0  0  0  0
  190.1440  177.0760  144.4870 O   0  0  0  0  0  0  0  0  0  0  0  0
  191.5360  178.0950  144.1440 S   0  0  0  0  0  0  0  0  0  0  0  0
  190.7170  174.7440  144.7330 O   0  0  0  0  0  0  0  0  0  0  0  0
  192.0520  174.7440  145.0070 O   0  0  0  0  0  0  0  0  0  0  0  0
  194.0330  177.4460  145.3250 O   0  0  0  0  0  0  0  0  0  0  0  0
  190.3780  174.9030  143.3700 C   0  0  2  0  0  3  0  0  0  0  0  0
  192.9970  177.0600  144.7200 C   0  0  0  0  0  0  0  0  0  0  0  0
  189.8130  176.3580  143.3070 C   0  0  1  0  0  3  0  0  0  0  0  0
  185.8960  176.5870  145.8470 C   0  0  0  0  0  2  0  0  0  0  0  0
  187.6110  177.2060  144.1040 N   0  0  0  0  0  0  0  0  0  0  0  0
  188.3520  176.5260  143.1170 C   0  0  0  0  0  0  0  0  0  0  0  0
  185.8810  178.9320  144.8650 C   0  0  1  0  0  3  0  0  0  0  0  0
  187.6930  176.1690  142.0180 O   0  0  0  0  0  0  0  0  0  0  0  0
  187.2070  176.3120  145.1010 C   0  0  0  0  0  2  0  0  0  0  0  0
  186.5790  178.5220  147.3910 C   0  0  0  0  0  1  0  0  0  0  0  0
  185.8690  178.0890  146.0980 C   0  0  2  0  0  3  0  0  0  0  0  0
  186.9100  178.4760  143.6710 C   0  0  0  0  0  2  0  0  0  0  0  0
  184.4670  179.5140  144.4140 C   0  0  0  0  0  1  0  0  0  0  0  0
  190.0670  172.0180  141.0420 C   0  0  0  0  0  2  0  0  0  0  0  0
  189.6210  173.6900  142.8260 N   0  0  0  0  0  0  0  0  0  0  0  0
  189.9030  172.4030  143.3470 C   0  0  0  0  0  2  0  0  0  0  0  0
  189.5800  171.3230  142.3170 C   0  0  0  0  0  2  0  0  0  0  0  0
  189.8090  173.5040  141.2950 C   0  0  0  0  0  2  0  0  0  0  0  0
  195.1520  174.3740  143.0020 C   0  0  0  0  0  1  0  0  0  0  0  0
  194.2740  174.7600  144.1880 C   0  0  2  0  0  3  0  0  0  0  0  0
  194.7400  173.9390  145.3730 N   0  0  0  0  0  2  0  0  0  0  0  0
  194.3400  171.7720  145.8600 O   0  0  0  0  0  1  0  0  0  0  0  0
  195.1780  172.5930  145.1550 C   0  0  2  0  0  3  0  0  0  0  0  0
  196.5120  172.4150  145.8210 C   0  0  0  0  0  0  0  0  0  0  0  0
  197.1940  171.3950  145.5800 O   0  0  0  0  0  0  0  0  0  0  0  0
  197.1460  173.4300  146.6900 O   0  0  0  0  0  1  0  0  0  0  0  0
  1 26  1  1  0  0  0
  1  8  1  0  0  0  0
  1  5  1  0  0  0  0
  3  2  1  0  0  0  0
  3  8  1  0  0  0  0
  4  5  1  0  0  0  0
  7 21  1  1  0  0  0
  7  4  1  0  0  0  0
  8  6  2  0  0  0  0
  9 12  1  1  0  0  0
  9  7  1  0  0  0  0
  9  2  1  0  0  0  0
 10 17  1  0  0  0  0
 11 15  1  0  0  0  0
 12 11  1  0  0  0  0
 13 19  1  6  0  0  0
 13 17  1  0  0  0  0
 14 12  2  0  0  0  0
 15 10  1  0  0  0  0
 17 16  1  1  0  0  0
 18 11  1  0  0  0  0
 18 13  1  0  0  0  0
 20 24  1  0  0  0  0
 20 23  1  0  0  0  0
 21 22  1  0  0  0  0
 23 22  1  0  0  0  0
 24 21  1  0  0  0  0
 26 25  1  6  0  0  0
 26 27  1  0  0  0  0
 29 27  1  0  0  0  0
 29 30  1  0  0  0  0
 29 28  1  1  0  0  0
 30 32  1  0  0  0  0
 31 30  2  0  0  0  0
M  END
>  <MODEL>
8

>  <REMARK>
 VINA RESULT:      -6.1      2.153      8.015
  Name = 
  6 active torsions:
  status: ('A' for Active; 'I' for Inactive)
    1  A    between atoms: C_4  and  C_27
    2  A    between atoms: C_5  and  C_29
    3  A    between atoms: C_10  and  C_25
    4  A    between atoms: N_11  and  C_18
    5  A    between atoms: N_21  and  C_27
    6  A    between atoms: N_21  and  C_29
                            x       y       z     vdW  Elec       q    Type
                         _______ _______ _______ _____ _____    ______ ____

>  <TORSDO>
F 6

$$$$
=
 OpenBabel11062419063D

 32 34  0  0  1  0  0  0  0  0999 V2000
  190.9540  176.1870  146.2940 C   0  0  1  0  0  3  0  0  0  0  0  0
  193.7210  176.7790  144.9020 O   0  0  0  0  0  0  0  0  0  0  0  0
  193.8150  176.3670  146.6090 S   0  0  0  0  0  0  0  0  0  0  0  0
  191.4570  176.8290  144.0650 O   0  0  0  0  0  0  0  0  0  0  0  0
  190.6810  176.9740  145.1770 O   0  0  0  0  0  0  0  0  0  0  0  0
  191.7620  177.2640  148.3510 O   0  0  0  0  0  0  0  0  0  0  0  0
  191.9170  175.5160  143.8150 C   0  0  2  0  0  3  0  0  0  0  0  0
  192.0870  176.7380  147.2530 C   0  0  0  0  0  0  0  0  0  0  0  0
  193.4360  175.5950  144.1710 C   0  0  1  0  0  3  0  0  0  0  0  0
  197.9360  174.5870  143.4140 C   0  0  0  0  0  2  0  0  0  0  0  0
  195.4360  174.5860  143.0820 N   0  0  0  0  0  0  0  0  0  0  0  0
  194.4110  175.5540  143.0550 C   0  0  0  0  0  0  0  0  0  0  0  0
  196.8690  172.7580  142.0070 C   0  0  1  0  0  3  0  0  0  0  0  0
  194.3320  176.3050  141.9610 O   0  0  0  0  0  0  0  0  0  0  0  0
  196.5340  175.0710  143.8000 C   0  0  0  0  0  2  0  0  0  0  0  0
  197.9390  172.2030  144.3700 C   0  0  0  0  0  1  0  0  0  0  0  0
  197.7970  173.0970  143.1270 C   0  0  2  0  0  3  0  0  0  0  0  0
  195.4520  173.5820  141.9480 C   0  0  0  0  0  2  0  0  0  0  0  0
  197.5650  172.4240  140.6120 C   0  0  0  0  0  1  0  0  0  0  0  0
  190.2060  172.9080  141.7890 C   0  0  0  0  0  2  0  0  0  0  0  0
  191.4000  174.9750  142.4820 N   0  0  0  0  0  0  0  0  0  0  0  0
  190.0560  175.2250  142.1050 C   0  0  0  0  0  2  0  0  0  0  0  0
  189.5550  174.1390  141.1540 C   0  0  0  0  0  2  0  0  0  0  0  0
  191.5190  173.4300  142.3760 C   0  0  0  0  0  2  0  0  0  0  0  0
  188.8580  174.6690  147.4510 C   0  0  0  0  0  1  0  0  0  0  0  0
  189.5360  175.9510  146.9790 C   0  0  2  0  0  3  0  0  0  0  0  0
  188.4690  177.0260  146.9300 N   0  0  0  0  0  2  0  0  0  0  0  0
  187.3230  177.2420  144.9980 O   0  0  0  0  0  1  0  0  0  0  0  0
  187.2300  176.7450  146.2700 C   0  0  2  0  0  3  0  0  0  0  0  0
  186.1530  177.5730  146.9090 C   0  0  0  0  0  0  0  0  0  0  0  0
  186.4650  178.5130  147.6720 O   0  0  0  0  0  1  0  0  0  0  0  0
  184.7110  177.4240  146.6190 O   0  0  0  0  0  0  0  0  0  0  0  0
  1 26  1  1  0  0  0
  1  8  1  0  0  0  0
  2  3  1  0  0  0  0
  3  8  1  0  0  0  0
  4  5  1  0  0  0  0
  5  1  1  0  0  0  0
  7 21  1  6  0  0  0
  7  4  1  0  0  0  0
  7  9  1  0  0  0  0
  8  6  2  0  0  0  0
  9 12  1  6  0  0  0
  9  2  1  0  0  0  0
 10 15  1  0  0  0  0
 11 15  1  0  0  0  0
 12 11  1  0  0  0  0
 13 19  1  6  0  0  0
 13 17  1  0  0  0  0
 14 12  2  0  0  0  0
 17 10  1  0  0  0  0
 17 16  1  1  0  0  0
 18 13  1  0  0  0  0
 18 11  1  0  0  0  0
 20 24  1  0  0  0  0
 22 21  1  0  0  0  0
 23 20  1  0  0  0  0
 23 22  1  0  0  0  0
 24 21  1  0  0  0  0
 26 25  1  6  0  0  0
 27 26  1  0  0  0  0
 29 28  1  6  0  0  0
 29 30  1  0  0  0  0
 29 27  1  0  0  0  0
 30 31  1  0  0  0  0
 32 30  2  0  0  0  0
M  END
>  <MODEL>
9

>  <REMARK>
 VINA RESULT:      -6.1      2.367      3.210
  Name = 
  6 active torsions:
  status: ('A' for Active; 'I' for Inactive)
    1  A    between atoms: C_4  and  C_27
    2  A    between atoms: C_5  and  C_29
    3  A    between atoms: C_10  and  C_25
    4  A    between atoms: N_11  and  C_18
    5  A    between atoms: N_21  and  C_27
    6  A    between atoms: N_21  and  C_29
                            x       y       z     vdW  Elec       q    Type
                         _______ _______ _______ _____ _____    ______ ____

>  <TORSDO>
F 6

$$$$
