8fo7
 OpenBabel11072415313D

 42 47  0  0  1  0  0  0  0  0999 V2000
  193.5360  174.2490  145.4480 C   0  0  0  0  0  3  0  0  0  0  0  0
  192.3880  174.7750  146.0530 C   0  0  0  0  0  3  0  0  0  0  0  0
  192.2170  172.5560  144.3720 C   0  0  0  0  0  3  0  0  0  0  0  0
  193.4670  173.1210  144.5920 C   0  0  0  0  0  0  0  0  0  0  0  0
  191.1370  174.1890  145.8120 C   0  0  0  0  0  0  0  0  0  0  0  0
  191.0670  173.0790  144.9700 C   0  0  0  0  0  0  0  0  0  0  0  0
  185.6530  179.1680  146.5580 C   0  0  0  0  0  1  0  0  0  0  0  0
  189.8520  178.2010  143.1240 C   0  0  0  0  0  1  0  0  0  0  0  0
  185.5350  177.9010  140.5340 C   0  0  0  0  0  3  0  0  0  0  0  0
  186.8360  177.4800  140.2780 C   0  0  0  0  0  3  0  0  0  0  0  0
  185.1940  178.3790  141.7990 C   0  0  0  0  0  3  0  0  0  0  0  0
  187.8140  177.5260  141.2740 C   0  0  0  0  0  3  0  0  0  0  0  0
  189.9260  174.5740  146.3230 N   0  0  0  0  0  2  0  0  0  0  0  0
  184.8490  179.8360  144.0860 O   0  0  0  0  0  0  0  0  0  0  0  0
  185.7320  178.9440  144.1150 C   0  0  0  0  0  0  0  0  0  0  0  0
  186.1630  178.4290  142.8170 C   0  0  0  0  0  0  0  0  0  0  0  0
  187.4940  178.0090  142.5680 C   0  0  0  0  0  0  0  0  0  0  0  0
  186.2060  178.5460  145.3840 N   0  0  0  0  0  0  0  0  0  0  0  0
  188.4800  178.0420  143.5370 N   0  0  0  0  0  0  0  0  0  0  0  0
  188.0530  175.7440  146.8900 N   0  0  0  0  0  0  0  0  0  0  0  0
  189.0620  175.5540  146.0270 C   0  0  0  0  0  0  0  0  0  0  0  0
  189.1970  176.3150  144.9280 N   0  0  0  0  0  0  0  0  0  0  0  0
  188.3070  177.2950  144.6680 C   0  0  2  0  0  3  0  0  0  0  0  0
  187.2090  177.5330  145.5470 C   0  0  0  0  0  0  0  0  0  0  0  0
  187.1550  176.6840  146.6850 C   0  0  0  0  0  3  0  0  0  0  0  0
  196.7610  172.7000  140.8140 C   0  0  0  0  0  2  0  0  0  0  0  0
  194.2950  173.5860  140.5770 C   0  0  0  0  0  2  0  0  0  0  0  0
  196.3550  172.2900  142.2430 C   0  0  0  0  0  2  0  0  0  0  0  0
  194.5850  174.0260  142.0120 C   0  0  0  0  0  2  0  0  0  0  0  0
  195.1740  171.6050  144.5860 O   0  0  0  0  0  0  0  0  0  0  0  0
  194.6190  172.5520  143.9600 C   0  0  0  0  0  0  0  0  0  0  0  0
  195.5750  173.0680  139.8760 C   0  0  1  0  0  3  0  0  0  0  0  0
  195.1740  172.9380  142.7700 N   0  0  0  0  0  0  0  0  0  0  0  0
  197.0240  174.4690  135.3500 C   0  0  0  0  0  1  0  0  0  0  0  0
  197.6000  175.4450  137.5660 C   0  0  0  0  0  2  0  0  0  0  0  0
  195.2470  175.3410  136.8110 C   0  0  0  0  0  2  0  0  0  0  0  0
  197.3800  174.1460  138.3730 C   0  0  0  0  0  2  0  0  0  0  0  0
  195.0510  174.0360  137.6020 C   0  0  0  0  0  2  0  0  0  0  0  0
  196.6720  175.4620  136.3950 N   0  0  0  0  0  0  0  0  0  0  0  0
  195.9410  174.0290  138.7900 N   0  0  0  0  0  0  0  0  0  0  0  0
  189.3960  172.2000  143.4710 C   0  0  0  0  0  1  0  0  0  0  0  0
  189.8120  172.5670  144.7970 O   0  0  0  0  0  0  0  0  0  0  0  0
  1  2  1  0  0  0  0
  3  4  1  0  0  0  0
  3  6  2  0  0  0  0
  4  1  2  0  0  0  0
  5  2  2  0  0  0  0
  5 13  1  0  0  0  0
  6  5  1  0  0  0  0
  8 19  1  0  0  0  0
  9 11  1  0  0  0  0
 10  9  2  0  0  0  0
 10 12  1  0  0  0  0
 11 16  2  0  0  0  0
 12 17  2  0  0  0  0
 14 15  2  0  0  0  0
 15 18  1  0  0  0  0
 16 15  1  0  0  0  0
 17 16  1  0  0  0  0
 17 19  1  0  0  0  0
 18 24  1  0  0  0  0
 18  7  1  0  0  0  0
 19 23  1  0  0  0  0
 21 13  1  0  0  0  0
 21 20  2  0  0  0  0
 22 21  2  0  0  0  0
 23 22  1  6  0  0  0
 23 24  1  0  0  0  0
 24 25  2  0  0  0  0
 25 20  1  0  0  0  0
 26 28  1  0  0  0  0
 27 29  1  0  0  0  0
 28 33  1  0  0  0  0
 29 33  1  0  0  0  0
 31 30  2  0  0  0  0
 31  4  1  0  0  0  0
 32 40  1  6  0  0  0
 32 27  1  0  0  0  0
 32 26  1  0  0  0  0
 33 31  1  0  0  0  0
 34 39  1  0  0  0  0
 35 37  1  0  0  0  0
 36 38  1  0  0  0  0
 37 40  1  0  0  0  0
 38 40  1  0  0  0  0
 39 36  1  0  0  0  0
 39 35  1  0  0  0  0
 41 42  1  0  0  0  0
 42  6  1  0  0  0  0
M  END
>  <MODEL>
1

>  <REMARK>
 VINA RESULT:      -8.7      0.000      0.000
  Name = 8fo7
  4 active torsions:
  status: ('A' for Active; 'I' for Inactive)
    1  A    between atoms: N_20  and  C_26
    2  A    between atoms: O_23  and  C_27
    3  A    between atoms: C_24  and  C_25
    4  A    between atoms: C_31  and  N_34
                            x       y       z     vdW  Elec       q    Type
                         _______ _______ _______ _____ _____    ______ ____

>  <TORSDO>
F 4

$$$$
8fo7
 OpenBabel11072415313D

 42 47  0  0  1  0  0  0  0  0999 V2000
  194.9380  175.7370  145.3660 C   0  0  0  0  0  3  0  0  0  0  0  0
  193.7260  175.7370  146.0650 C   0  0  0  0  0  3  0  0  0  0  0  0
  194.2630  173.7750  144.1580 C   0  0  0  0  0  3  0  0  0  0  0  0
  195.2280  174.7470  144.3930 C   0  0  0  0  0  0  0  0  0  0  0  0
  192.7660  174.7490  145.8070 C   0  0  0  0  0  0  0  0  0  0  0  0
  193.0490  173.7730  144.8510 C   0  0  0  0  0  0  0  0  0  0  0  0
  186.0270  177.3620  147.5870 C   0  0  0  0  0  1  0  0  0  0  0  0
  190.0230  178.4980  143.9690 C   0  0  0  0  0  1  0  0  0  0  0  0
  185.8540  177.2210  141.4340 C   0  0  0  0  0  3  0  0  0  0  0  0
  187.1970  177.3170  141.0810 C   0  0  0  0  0  3  0  0  0  0  0  0
  185.4770  177.3220  142.7730 C   0  0  0  0  0  3  0  0  0  0  0  0
  188.1800  177.5130  142.0530 C   0  0  0  0  0  3  0  0  0  0  0  0
  191.5410  174.6030  146.4020 N   0  0  0  0  0  2  0  0  0  0  0  0
  184.8540  178.1460  145.3040 O   0  0  0  0  0  0  0  0  0  0  0  0
  185.9800  177.6150  145.1460 C   0  0  0  0  0  0  0  0  0  0  0  0
  186.4530  177.5160  143.7670 C   0  0  0  0  0  0  0  0  0  0  0  0
  187.8230  177.6220  143.4210 C   0  0  0  0  0  0  0  0  0  0  0  0
  186.6580  177.1820  146.3060 N   0  0  0  0  0  0  0  0  0  0  0  0
  188.8180  177.8140  144.3630 N   0  0  0  0  0  0  0  0  0  0  0  0
  189.4380  174.9500  147.2130 N   0  0  0  0  0  0  0  0  0  0  0  0
  190.3820  175.2690  146.3140 C   0  0  0  0  0  0  0  0  0  0  0  0
  190.1710  176.2130  145.3810 N   0  0  0  0  0  0  0  0  0  0  0  0
  188.9900  176.8650  145.3300 C   0  0  2  0  0  3  0  0  0  0  0  0
  187.9490  176.5560  146.2550 C   0  0  0  0  0  0  0  0  0  0  0  0
  188.2680  175.5520  147.2080 C   0  0  0  0  0  3  0  0  0  0  0  0
  197.9410  175.0170  140.1660 C   0  0  0  0  0  2  0  0  0  0  0  0
  195.3970  174.3560  140.2900 C   0  0  0  0  0  2  0  0  0  0  0  0
  197.9280  174.9020  141.7030 C   0  0  0  0  0  2  0  0  0  0  0  0
  195.4760  175.2870  141.5000 C   0  0  0  0  0  2  0  0  0  0  0  0
  197.4890  174.4340  144.3380 O   0  0  0  0  0  0  0  0  0  0  0  0
  196.4580  174.7100  143.6610 C   0  0  0  0  0  0  0  0  0  0  0  0
  196.6990  174.4070  139.4530 C   0  0  1  0  0  3  0  0  0  0  0  0
  196.6230  174.9550  142.3250 N   0  0  0  0  0  0  0  0  0  0  0  0
  195.8010  174.5540  134.5830 C   0  0  0  0  0  1  0  0  0  0  0  0
  197.0860  176.1450  136.0010 C   0  0  0  0  0  2  0  0  0  0  0  0
  194.6950  175.7020  136.4570 C   0  0  0  0  0  2  0  0  0  0  0  0
  197.4660  175.1170  137.0900 C   0  0  0  0  0  2  0  0  0  0  0  0
  195.0910  174.6650  137.5220 C   0  0  0  0  0  2  0  0  0  0  0  0
  195.7600  175.7800  135.4170 N   0  0  0  0  0  0  0  0  0  0  0  0
  196.3890  175.0420  138.1350 N   0  0  0  0  0  0  0  0  0  0  0  0
  192.4290  171.5390  144.1900 C   0  0  0  0  0  1  0  0  0  0  0  0
  192.0630  172.8440  144.6690 O   0  0  0  0  0  0  0  0  0  0  0  0
  1  2  1  0  0  0  0
  3  4  1  0  0  0  0
  3  6  2  0  0  0  0
  4  1  2  0  0  0  0
  5  2  2  0  0  0  0
  5 13  1  0  0  0  0
  6  5  1  0  0  0  0
  8 19  1  0  0  0  0
  9 11  1  0  0  0  0
 10  9  2  0  0  0  0
 10 12  1  0  0  0  0
 11 16  2  0  0  0  0
 12 17  2  0  0  0  0
 15 14  2  0  0  0  0
 15 18  1  0  0  0  0
 16 15  1  0  0  0  0
 17 16  1  0  0  0  0
 17 19  1  0  0  0  0
 18  7  1  0  0  0  0
 19 23  1  0  0  0  0
 21 13  1  0  0  0  0
 21 20  2  0  0  0  0
 22 21  2  0  0  0  0
 23 22  1  6  0  0  0
 23 24  1  0  0  0  0
 24 18  1  0  0  0  0
 24 25  2  0  0  0  0
 25 20  1  0  0  0  0
 26 28  1  0  0  0  0
 27 29  1  0  0  0  0
 28 33  1  0  0  0  0
 29 33  1  0  0  0  0
 31 30  2  0  0  0  0
 31  4  1  0  0  0  0
 32 40  1  6  0  0  0
 32 26  1  0  0  0  0
 32 27  1  0  0  0  0
 33 31  1  0  0  0  0
 34 39  1  0  0  0  0
 35 37  1  0  0  0  0
 36 38  1  0  0  0  0
 37 40  1  0  0  0  0
 38 40  1  0  0  0  0
 39 35  1  0  0  0  0
 39 36  1  0  0  0  0
 41 42  1  0  0  0  0
 42  6  1  0  0  0  0
M  END
>  <MODEL>
2

>  <REMARK>
 VINA RESULT:      -8.6      1.583      1.854
  Name = 8fo7
  4 active torsions:
  status: ('A' for Active; 'I' for Inactive)
    1  A    between atoms: N_20  and  C_26
    2  A    between atoms: O_23  and  C_27
    3  A    between atoms: C_24  and  C_25
    4  A    between atoms: C_31  and  N_34
                            x       y       z     vdW  Elec       q    Type
                         _______ _______ _______ _____ _____    ______ ____

>  <TORSDO>
F 4

$$$$
8fo7
 OpenBabel11072415313D

 42 47  0  0  1  0  0  0  0  0999 V2000
  194.0370  174.4050  144.1780 C   0  0  0  0  0  3  0  0  0  0  0  0
  192.9410  174.8260  144.9400 C   0  0  0  0  0  3  0  0  0  0  0  0
  192.8620  172.4050  143.5600 C   0  0  0  0  0  3  0  0  0  0  0  0
  194.0140  173.1760  143.4710 C   0  0  0  0  0  0  0  0  0  0  0  0
  191.7880  174.0320  145.0110 C   0  0  0  0  0  0  0  0  0  0  0  0
  191.7630  172.8230  144.3160 C   0  0  0  0  0  0  0  0  0  0  0  0
  186.2140  178.5760  146.9350 C   0  0  0  0  0  1  0  0  0  0  0  0
  189.9560  178.1800  142.9110 C   0  0  0  0  0  1  0  0  0  0  0  0
  185.3510  177.8450  140.8830 C   0  0  0  0  0  3  0  0  0  0  0  0
  186.6260  177.5300  140.4210 C   0  0  0  0  0  3  0  0  0  0  0  0
  185.1600  178.1860  142.2210 C   0  0  0  0  0  3  0  0  0  0  0  0
  187.7240  177.5470  141.2820 C   0  0  0  0  0  3  0  0  0  0  0  0
  190.6390  174.2940  145.7090 N   0  0  0  0  0  2  0  0  0  0  0  0
  185.0540  179.4100  144.6630 O   0  0  0  0  0  0  0  0  0  0  0  0
  185.9750  178.5760  144.4920 C   0  0  0  0  0  0  0  0  0  0  0  0
  186.2530  178.2060  143.1060 C   0  0  0  0  0  0  0  0  0  0  0  0
  187.5580  177.8930  142.6470 C   0  0  0  0  0  0  0  0  0  0  0  0
  186.6340  178.0960  145.6450 N   0  0  0  0  0  0  0  0  0  0  0  0
  188.6620  177.9000  143.4790 N   0  0  0  0  0  0  0  0  0  0  0  0
  188.8030  175.2910  146.6230 N   0  0  0  0  0  0  0  0  0  0  0  0
  189.6950  175.2410  145.6220 C   0  0  0  0  0  0  0  0  0  0  0  0
  189.6440  176.1040  144.5930 N   0  0  0  0  0  0  0  0  0  0  0  0
  188.6790  177.0470  144.5470 C   0  0  2  0  0  3  0  0  0  0  0  0
  187.6990  177.1360  145.5790 C   0  0  0  0  0  0  0  0  0  0  0  0
  187.8410  176.1890  146.6270 C   0  0  0  0  0  3  0  0  0  0  0  0
  196.6330  172.8010  139.1930 C   0  0  0  0  0  2  0  0  0  0  0  0
  194.0530  173.2930  139.3480 C   0  0  0  0  0  2  0  0  0  0  0  0
  196.5500  172.5020  140.7030 C   0  0  0  0  0  2  0  0  0  0  0  0
  194.5110  173.9310  140.6600 C   0  0  0  0  0  2  0  0  0  0  0  0
  195.9160  171.9280  143.2760 O   0  0  0  0  0  0  0  0  0  0  0  0
  195.1160  172.7090  142.6860 C   0  0  0  0  0  0  0  0  0  0  0  0
  195.2590  172.8860  138.4660 C   0  0  1  0  0  3  0  0  0  0  0  0
  195.3890  173.0310  141.3840 N   0  0  0  0  0  0  0  0  0  0  0  0
  196.8330  176.5520  135.5290 C   0  0  0  0  0  1  0  0  0  0  0  0
  194.5130  175.7690  135.9720 C   0  0  0  0  0  2  0  0  0  0  0  0
  196.1950  174.2350  135.0050 C   0  0  0  0  0  2  0  0  0  0  0  0
  194.8080  175.1830  137.3710 C   0  0  0  0  0  2  0  0  0  0  0  0
  196.4930  173.6780  136.4080 C   0  0  0  0  0  2  0  0  0  0  0  0
  195.7320  175.6470  135.1180 N   0  0  0  0  0  0  0  0  0  0  0  0
  195.2740  173.7600  137.2520 N   0  0  0  0  0  0  0  0  0  0  0  0
  189.7950  171.8940  143.2790 C   0  0  0  0  0  1  0  0  0  0  0  0
  190.6050  172.1090  144.4460 O   0  0  0  0  0  0  0  0  0  0  0  0
  1  2  1  0  0  0  0
  2  5  2  0  0  0  0
  3  6  2  0  0  0  0
  4  3  1  0  0  0  0
  4  1  2  0  0  0  0
  5 13  1  0  0  0  0
  6 42  1  0  0  0  0
  6  5  1  0  0  0  0
  8 19  1  0  0  0  0
  9 11  1  0  0  0  0
 10  9  2  0  0  0  0
 10 12  1  0  0  0  0
 11 16  2  0  0  0  0
 12 17  2  0  0  0  0
 15 14  2  0  0  0  0
 15 18  1  0  0  0  0
 16 15  1  0  0  0  0
 17 16  1  0  0  0  0
 17 19  1  0  0  0  0
 18  7  1  0  0  0  0
 19 23  1  0  0  0  0
 20 25  1  0  0  0  0
 21 13  1  0  0  0  0
 21 20  2  0  0  0  0
 22 21  2  0  0  0  0
 23 22  1  6  0  0  0
 23 24  1  0  0  0  0
 24 18  1  0  0  0  0
 24 25  2  0  0  0  0
 26 28  1  0  0  0  0
 27 29  1  0  0  0  0
 28 33  1  0  0  0  0
 29 33  1  0  0  0  0
 31 30  2  0  0  0  0
 31  4  1  0  0  0  0
 32 40  1  6  0  0  0
 32 26  1  0  0  0  0
 32 27  1  0  0  0  0
 33 31  1  0  0  0  0
 35 37  1  0  0  0  0
 36 39  1  0  0  0  0
 36 38  1  0  0  0  0
 38 40  1  0  0  0  0
 39 34  1  0  0  0  0
 39 35  1  0  0  0  0
 40 37  1  0  0  0  0
 41 42  1  0  0  0  0
M  END
>  <MODEL>
3

>  <REMARK>
 VINA RESULT:      -8.0      1.008      1.320
  Name = 8fo7
  4 active torsions:
  status: ('A' for Active; 'I' for Inactive)
    1  A    between atoms: N_20  and  C_26
    2  A    between atoms: O_23  and  C_27
    3  A    between atoms: C_24  and  C_25
    4  A    between atoms: C_31  and  N_34
                            x       y       z     vdW  Elec       q    Type
                         _______ _______ _______ _____ _____    ______ ____

>  <TORSDO>
F 4

$$$$
8fo7
 OpenBabel11072415313D

 42 47  0  0  1  0  0  0  0  0999 V2000
  192.6350  174.0720  144.8490 C   0  0  0  0  0  3  0  0  0  0  0  0
  191.2650  174.1010  145.1350 C   0  0  0  0  0  3  0  0  0  0  0  0
  192.9990  175.9370  146.3170 C   0  0  0  0  0  3  0  0  0  0  0  0
  193.5310  174.9990  145.4410 C   0  0  0  0  0  0  0  0  0  0  0  0
  190.7530  175.0550  146.0260 C   0  0  0  0  0  0  0  0  0  0  0  0
  191.6330  175.9680  146.6090 C   0  0  0  0  0  0  0  0  0  0  0  0
  184.4100  178.9520  146.0560 C   0  0  0  0  0  1  0  0  0  0  0  0
  189.0310  178.6940  143.0670 C   0  0  0  0  0  1  0  0  0  0  0  0
  185.1160  177.5400  140.1050 C   0  0  0  0  0  3  0  0  0  0  0  0
  186.4910  177.3600  139.9870 C   0  0  0  0  0  3  0  0  0  0  0  0
  184.5720  177.9760  141.3130 C   0  0  0  0  0  3  0  0  0  0  0  0
  187.3410  177.6100  141.0660 C   0  0  0  0  0  3  0  0  0  0  0  0
  189.4490  175.2210  146.4080 N   0  0  0  0  0  2  0  0  0  0  0  0
  183.7450  179.4000  143.4950 O   0  0  0  0  0  0  0  0  0  0  0  0
  184.7680  178.6870  143.6420 C   0  0  0  0  0  0  0  0  0  0  0  0
  185.4110  178.2300  142.4130 C   0  0  0  0  0  0  0  0  0  0  0  0
  186.8140  178.0570  142.3040 C   0  0  0  0  0  0  0  0  0  0  0  0
  185.1790  178.4140  144.9650 N   0  0  0  0  0  0  0  0  0  0  0  0
  187.6780  178.2940  143.3580 N   0  0  0  0  0  0  0  0  0  0  0  0
  187.3470  176.0390  146.7500 N   0  0  0  0  0  0  0  0  0  0  0  0
  188.4540  176.0170  145.9920 C   0  0  0  0  0  0  0  0  0  0  0  0
  188.5560  176.7640  144.8790 N   0  0  0  0  0  0  0  0  0  0  0  0
  187.5320  177.5560  144.4980 C   0  0  2  0  0  3  0  0  0  0  0  0
  186.3290  177.6080  145.2620 C   0  0  0  0  0  0  0  0  0  0  0  0
  186.3190  176.7920  146.4250 C   0  0  0  0  0  3  0  0  0  0  0  0
  197.5100  174.6600  142.3830 C   0  0  0  0  0  2  0  0  0  0  0  0
  195.1520  173.5890  141.9200 C   0  0  0  0  0  2  0  0  0  0  0  0
  196.9730  174.9510  143.7990 C   0  0  0  0  0  2  0  0  0  0  0  0
  194.7210  174.8020  142.7450 C   0  0  0  0  0  2  0  0  0  0  0  0
  195.6880  175.1130  146.1810 O   0  0  0  0  0  0  0  0  0  0  0  0
  194.9370  175.0050  145.1700 C   0  0  0  0  0  0  0  0  0  0  0  0
  196.6540  173.6630  141.5500 C   0  0  1  0  0  3  0  0  0  0  0  0
  195.5340  174.9180  143.9420 N   0  0  0  0  0  0  0  0  0  0  0  0
  195.3030  175.2910  137.0700 C   0  0  0  0  0  1  0  0  0  0  0  0
  196.3680  173.1360  137.7120 C   0  0  0  0  0  2  0  0  0  0  0  0
  197.4970  175.2850  138.1840 C   0  0  0  0  0  2  0  0  0  0  0  0
  195.8320  173.1190  139.1610 C   0  0  0  0  0  2  0  0  0  0  0  0
  196.9370  175.2650  139.6170 C   0  0  0  0  0  2  0  0  0  0  0  0
  196.5710  174.5500  137.2760 N   0  0  0  0  0  0  0  0  0  0  0  0
  196.7680  173.8620  140.0720 N   0  0  0  0  0  0  0  0  0  0  0  0
  191.5920  177.0150  148.7800 C   0  0  0  0  0  1  0  0  0  0  0  0
  191.0490  176.8670  147.4570 O   0  0  0  0  0  0  0  0  0  0  0  0
  1  2  2  0  0  0  0
  1  4  1  0  0  0  0
  2  5  1  0  0  0  0
  3  6  1  0  0  0  0
  4  3  2  0  0  0  0
  5 13  1  0  0  0  0
  5  6  2  0  0  0  0
  6 42  1  0  0  0  0
  8 19  1  0  0  0  0
  9 11  1  0  0  0  0
 10  9  2  0  0  0  0
 10 12  1  0  0  0  0
 11 16  2  0  0  0  0
 12 17  2  0  0  0  0
 14 15  2  0  0  0  0
 15 18  1  0  0  0  0
 16 15  1  0  0  0  0
 17 16  1  0  0  0  0
 17 19  1  0  0  0  0
 18 24  1  0  0  0  0
 18  7  1  0  0  0  0
 19 23  1  0  0  0  0
 21 13  1  0  0  0  0
 21 20  2  0  0  0  0
 22 21  2  0  0  0  0
 23 22  1  6  0  0  0
 23 24  1  0  0  0  0
 24 25  2  0  0  0  0
 25 20  1  0  0  0  0
 26 28  1  0  0  0  0
 27 29  1  0  0  0  0
 28 33  1  0  0  0  0
 29 33  1  0  0  0  0
 31  4  1  0  0  0  0
 31 30  2  0  0  0  0
 32 40  1  6  0  0  0
 32 27  1  0  0  0  0
 32 26  1  0  0  0  0
 33 31  1  0  0  0  0
 34 39  1  0  0  0  0
 35 37  1  0  0  0  0
 36 38  1  0  0  0  0
 37 40  1  0  0  0  0
 38 40  1  0  0  0  0
 39 35  1  0  0  0  0
 39 36  1  0  0  0  0
 42 41  1  0  0  0  0
M  END
>  <MODEL>
4

>  <REMARK>
 VINA RESULT:      -7.8      1.663      2.317
  Name = 8fo7
  4 active torsions:
  status: ('A' for Active; 'I' for Inactive)
    1  A    between atoms: N_20  and  C_26
    2  A    between atoms: O_23  and  C_27
    3  A    between atoms: C_24  and  C_25
    4  A    between atoms: C_31  and  N_34
                            x       y       z     vdW  Elec       q    Type
                         _______ _______ _______ _____ _____    ______ ____

>  <TORSDO>
F 4

$$$$
8fo7
 OpenBabel11072415313D

 42 47  0  0  1  0  0  0  0  0999 V2000
  188.1940  175.6630  146.8790 C   0  0  0  0  0  3  0  0  0  0  0  0
  189.3190  174.8940  146.5620 C   0  0  0  0  0  3  0  0  0  0  0  0
  189.0570  177.4930  145.5880 C   0  0  0  0  0  3  0  0  0  0  0  0
  188.0450  176.9870  146.3930 C   0  0  0  0  0  0  0  0  0  0  0  0
  190.3250  175.4260  145.7430 C   0  0  0  0  0  0  0  0  0  0  0  0
  190.1810  176.7280  145.2640 C   0  0  0  0  0  0  0  0  0  0  0  0
  193.9290  170.0290  142.0950 C   0  0  0  0  0  1  0  0  0  0  0  0
  188.9060  172.2920  142.1200 C   0  0  0  0  0  1  0  0  0  0  0  0
  190.9810  172.9960  137.5770 C   0  0  0  0  0  3  0  0  0  0  0  0
  189.9010  173.5760  138.2370 C   0  0  0  0  0  3  0  0  0  0  0  0
  191.8410  172.1430  138.2670 C   0  0  0  0  0  3  0  0  0  0  0  0
  189.6630  173.3170  139.5880 C   0  0  0  0  0  3  0  0  0  0  0  0
  191.4830  174.8140  145.3440 N   0  0  0  0  0  2  0  0  0  0  0  0
  193.0390  170.0560  139.5630 O   0  0  0  0  0  0  0  0  0  0  0  0
  192.5640  170.9670  140.2830 C   0  0  0  0  0  0  0  0  0  0  0  0
  191.6220  171.8720  139.6300 C   0  0  0  0  0  0  0  0  0  0  0  0
  190.5220  172.4510  140.3120 C   0  0  0  0  0  0  0  0  0  0  0  0
  192.9850  171.0110  141.6300 N   0  0  0  0  0  0  0  0  0  0  0  0
  190.2660  172.2140  141.6500 N   0  0  0  0  0  0  0  0  0  0  0  0
  193.0130  173.3840  144.4410 N   0  0  0  0  0  0  0  0  0  0  0  0
  191.7750  173.8990  144.4090 C   0  0  0  0  0  0  0  0  0  0  0  0
  190.8770  173.5070  143.4900 N   0  0  0  0  0  0  0  0  0  0  0  0
  191.2090  172.5790  142.5690 C   0  0  2  0  0  3  0  0  0  0  0  0
  192.5160  172.0080  142.5510 C   0  0  0  0  0  0  0  0  0  0  0  0
  193.3920  172.4770  143.5660 C   0  0  0  0  0  3  0  0  0  0  0  0
  183.5770  179.0410  145.3350 C   0  0  0  0  0  2  0  0  0  0  0  0
  185.3350  178.2430  143.5480 C   0  0  0  0  0  2  0  0  0  0  0  0
  184.6960  178.8130  146.3700 C   0  0  0  0  0  2  0  0  0  0  0  0
  185.6580  177.2620  144.6760 C   0  0  0  0  0  2  0  0  0  0  0  0
  186.9700  178.4320  147.7970 O   0  0  0  0  0  0  0  0  0  0  0  0
  186.9110  177.8060  146.7000 C   0  0  0  0  0  0  0  0  0  0  0  0
  184.0480  179.0490  143.8520 C   0  0  1  0  0  3  0  0  0  0  0  0
  185.7850  177.9640  145.9400 N   0  0  0  0  0  0  0  0  0  0  0  0
  180.6810  179.6550  140.2690 C   0  0  0  0  0  1  0  0  0  0  0  0
  180.6030  178.1880  142.2780 C   0  0  0  0  0  2  0  0  0  0  0  0
  182.3910  177.9160  140.5900 C   0  0  0  0  0  2  0  0  0  0  0  0
  181.5660  179.0410  143.1340 C   0  0  0  0  0  2  0  0  0  0  0  0
  183.3290  178.7850  141.4450 C   0  0  0  0  0  2  0  0  0  0  0  0
  180.9770  178.3170  140.8370 N   0  0  0  0  0  0  0  0  0  0  0  0
  182.9890  178.6320  142.8820 N   0  0  0  0  0  0  0  0  0  0  0  0
  190.9040  177.7230  143.1910 C   0  0  0  0  0  1  0  0  0  0  0  0
  191.2100  177.1700  144.4810 O   0  0  0  0  0  0  0  0  0  0  0  0
  2  1  1  0  0  0  0
  3  4  1  0  0  0  0
  4 31  1  0  0  0  0
  4  1  2  0  0  0  0
  5  2  2  0  0  0  0
  6  3  2  0  0  0  0
  6  5  1  0  0  0  0
  9 10  2  0  0  0  0
  9 11  1  0  0  0  0
 10 12  1  0  0  0  0
 11 16  2  0  0  0  0
 12 17  2  0  0  0  0
 13  5  1  0  0  0  0
 14 15  2  0  0  0  0
 15 18  1  0  0  0  0
 16 15  1  0  0  0  0
 16 17  1  0  0  0  0
 17 19  1  0  0  0  0
 18  7  1  0  0  0  0
 18 24  1  0  0  0  0
 19  8  1  0  0  0  0
 19 23  1  0  0  0  0
 21 20  2  0  0  0  0
 21 13  1  0  0  0  0
 22 21  2  0  0  0  0
 23 24  1  6  0  0  0
 23 22  1  0  0  0  0
 24 25  2  0  0  0  0
 25 20  1  0  0  0  0
 26 28  1  0  0  0  0
 27 32  1  0  0  0  0
 27 29  1  0  0  0  0
 29 33  1  0  0  0  0
 31 30  2  0  0  0  0
 32 40  1  6  0  0  0
 32 26  1  0  0  0  0
 33 28  1  0  0  0  0
 33 31  1  0  0  0  0
 34 39  1  0  0  0  0
 35 37  1  0  0  0  0
 36 39  1  0  0  0  0
 36 38  1  0  0  0  0
 38 40  1  0  0  0  0
 39 35  1  0  0  0  0
 40 37  1  0  0  0  0
 41 42  1  0  0  0  0
 42  6  1  0  0  0  0
M  END
>  <MODEL>
5

>  <REMARK>
 VINA RESULT:      -7.5      3.416     10.218
  Name = 8fo7
  4 active torsions:
  status: ('A' for Active; 'I' for Inactive)
    1  A    between atoms: N_20  and  C_26
    2  A    between atoms: O_23  and  C_27
    3  A    between atoms: C_24  and  C_25
    4  A    between atoms: C_31  and  N_34
                            x       y       z     vdW  Elec       q    Type
                         _______ _______ _______ _____ _____    ______ ____

>  <TORSDO>
F 4

$$$$
8fo7
 OpenBabel11072415313D

 42 47  0  0  1  0  0  0  0  0999 V2000
  193.1590  175.8690  146.3000 C   0  0  0  0  0  3  0  0  0  0  0  0
  191.8390  176.1240  146.6870 C   0  0  0  0  0  3  0  0  0  0  0  0
  192.4360  173.9800  145.0080 C   0  0  0  0  0  3  0  0  0  0  0  0
  193.4810  174.7830  145.4470 C   0  0  0  0  0  0  0  0  0  0  0  0
  190.8000  175.3020  146.2260 C   0  0  0  0  0  0  0  0  0  0  0  0
  191.1150  174.2320  145.3880 C   0  0  0  0  0  0  0  0  0  0  0  0
  184.3100  178.9230  145.8050 C   0  0  0  0  0  1  0  0  0  0  0  0
  189.1450  178.8860  143.1630 C   0  0  0  0  0  1  0  0  0  0  0  0
  185.5120  177.5870  139.9160 C   0  0  0  0  0  3  0  0  0  0  0  0
  186.8980  177.4670  139.8990 C   0  0  0  0  0  3  0  0  0  0  0  0
  184.8620  177.9900  141.0820 C   0  0  0  0  0  3  0  0  0  0  0  0
  187.6550  177.7450  141.0390 C   0  0  0  0  0  3  0  0  0  0  0  0
  189.4660  175.4090  146.5110 N   0  0  0  0  0  2  0  0  0  0  0  0
  183.8160  179.3610  143.2030 O   0  0  0  0  0  0  0  0  0  0  0  0
  184.8550  178.6920  143.4220 C   0  0  0  0  0  0  0  0  0  0  0  0
  185.6060  178.2710  142.2420 C   0  0  0  0  0  0  0  0  0  0  0  0
  187.0190  178.1600  142.2370 C   0  0  0  0  0  0  0  0  0  0  0  0
  185.1790  178.4270  144.7710 N   0  0  0  0  0  0  0  0  0  0  0  0
  187.7920  178.4260  143.3520 N   0  0  0  0  0  0  0  0  0  0  0  0
  187.3110  176.1330  146.7010 N   0  0  0  0  0  0  0  0  0  0  0  0
  188.4710  176.1650  146.0270 C   0  0  0  0  0  0  0  0  0  0  0  0
  188.6210  176.9230  144.9280 N   0  0  0  0  0  0  0  0  0  0  0  0
  187.5950  177.6740  144.4760 C   0  0  2  0  0  3  0  0  0  0  0  0
  186.3380  177.6680  145.1490 C   0  0  0  0  0  0  0  0  0  0  0  0
  186.2780  176.8440  146.3040 C   0  0  0  0  0  3  0  0  0  0  0  0
  197.0030  173.8600  141.9760 C   0  0  0  0  0  2  0  0  0  0  0  0
  194.4250  173.4330  141.6650 C   0  0  0  0  0  2  0  0  0  0  0  0
  196.6660  174.1090  143.4600 C   0  0  0  0  0  2  0  0  0  0  0  0
  194.3710  174.6130  142.6360 C   0  0  0  0  0  2  0  0  0  0  0  0
  195.6510  174.3020  145.9670 O   0  0  0  0  0  0  0  0  0  0  0  0
  194.8190  174.4870  145.0340 C   0  0  0  0  0  0  0  0  0  0  0  0
  195.8650  173.1930  141.1490 C   0  0  1  0  0  3  0  0  0  0  0  0
  195.2790  174.4000  143.7480 N   0  0  0  0  0  0  0  0  0  0  0  0
  197.9280  174.5990  136.8700 C   0  0  0  0  0  1  0  0  0  0  0  0
  195.6750  175.1270  137.7860 C   0  0  0  0  0  2  0  0  0  0  0  0
  196.3460  172.7830  137.3710 C   0  0  0  0  0  2  0  0  0  0  0  0
  196.0650  174.9580  139.2720 C   0  0  0  0  0  2  0  0  0  0  0  0
  196.7500  172.6380  138.8490 C   0  0  0  0  0  2  0  0  0  0  0  0
  196.5000  174.2040  136.9510 N   0  0  0  0  0  0  0  0  0  0  0  0
  195.9070  173.5230  139.6910 N   0  0  0  0  0  0  0  0  0  0  0  0
  190.1930  172.6220  143.8480 C   0  0  0  0  0  1  0  0  0  0  0  0
  190.0450  173.4770  144.9930 O   0  0  0  0  0  0  0  0  0  0  0  0
  1  2  1  0  0  0  0
  3  6  2  0  0  0  0
  3  4  1  0  0  0  0
  4  1  2  0  0  0  0
  5 13  1  0  0  0  0
  5  2  2  0  0  0  0
  6  5  1  0  0  0  0
  8 19  1  0  0  0  0
  9 11  1  0  0  0  0
 10  9  2  0  0  0  0
 10 12  1  0  0  0  0
 11 16  2  0  0  0  0
 12 17  2  0  0  0  0
 14 15  2  0  0  0  0
 15 18  1  0  0  0  0
 16 15  1  0  0  0  0
 17 16  1  0  0  0  0
 17 19  1  0  0  0  0
 18 24  1  0  0  0  0
 18  7  1  0  0  0  0
 19 23  1  0  0  0  0
 21 13  1  0  0  0  0
 21 20  2  0  0  0  0
 22 21  2  0  0  0  0
 23 22  1  6  0  0  0
 23 24  1  0  0  0  0
 24 25  2  0  0  0  0
 25 20  1  0  0  0  0
 26 28  1  0  0  0  0
 27 29  1  0  0  0  0
 28 33  1  0  0  0  0
 29 33  1  0  0  0  0
 31  4  1  0  0  0  0
 31 30  2  0  0  0  0
 32 40  1  6  0  0  0
 32 27  1  0  0  0  0
 32 26  1  0  0  0  0
 33 31  1  0  0  0  0
 34 39  1  0  0  0  0
 35 37  1  0  0  0  0
 36 38  1  0  0  0  0
 37 40  1  0  0  0  0
 38 40  1  0  0  0  0
 39 36  1  0  0  0  0
 39 35  1  0  0  0  0
 41 42  1  0  0  0  0
 42  6  1  0  0  0  0
M  END
>  <MODEL>
6

>  <REMARK>
 VINA RESULT:      -7.5      1.250      1.468
  Name = 8fo7
  4 active torsions:
  status: ('A' for Active; 'I' for Inactive)
    1  A    between atoms: N_20  and  C_26
    2  A    between atoms: O_23  and  C_27
    3  A    between atoms: C_24  and  C_25
    4  A    between atoms: C_31  and  N_34
                            x       y       z     vdW  Elec       q    Type
                         _______ _______ _______ _____ _____    ______ ____

>  <TORSDO>
F 4

$$$$
8fo7
 OpenBabel11072415313D

 42 47  0  0  1  0  0  0  0  0999 V2000
  189.1200  177.1020  143.4170 C   0  0  0  0  0  3  0  0  0  0  0  0
  190.1110  176.3700  142.7540 C   0  0  0  0  0  3  0  0  0  0  0  0
  188.9490  175.3900  145.0920 C   0  0  0  0  0  3  0  0  0  0  0  0
  188.5180  176.6180  144.6070 C   0  0  0  0  0  0  0  0  0  0  0  0
  190.5320  175.1350  143.2650 C   0  0  0  0  0  0  0  0  0  0  0  0
  189.9410  174.6570  144.4350 C   0  0  0  0  0  0  0  0  0  0  0  0
  192.4960  169.3950  138.9500 C   0  0  0  0  0  1  0  0  0  0  0  0
  188.2120  172.8170  139.4950 C   0  0  0  0  0  1  0  0  0  0  0  0
  190.2000  173.4240  134.9000 C   0  0  0  0  0  3  0  0  0  0  0  0
  189.3310  174.1860  135.6750 C   0  0  0  0  0  3  0  0  0  0  0  0
  190.8460  172.3210  135.4580 C   0  0  0  0  0  3  0  0  0  0  0  0
  189.0940  173.8640  137.0130 C   0  0  0  0  0  3  0  0  0  0  0  0
  191.4790  174.2970  142.7400 N   0  0  0  0  0  2  0  0  0  0  0  0
  191.5330  169.8870  136.4940 O   0  0  0  0  0  0  0  0  0  0  0  0
  191.3340  170.8130  137.3170 C   0  0  0  0  0  0  0  0  0  0  0  0
  190.6240  171.9820  136.8050 C   0  0  0  0  0  0  0  0  0  0  0  0
  189.7370  172.7460  137.6040 C   0  0  0  0  0  0  0  0  0  0  0  0
  191.8100  170.6200  138.6320 N   0  0  0  0  0  0  0  0  0  0  0  0
  189.4870  172.4510  138.9320 N   0  0  0  0  0  0  0  0  0  0  0  0
  192.5590  172.6270  141.6220 N   0  0  0  0  0  0  0  0  0  0  0  0
  191.4900  173.4330  141.7150 C   0  0  0  0  0  0  0  0  0  0  0  0
  190.4840  173.3680  140.8280 N   0  0  0  0  0  0  0  0  0  0  0  0
  190.5310  172.4800  139.8130 C   0  0  2  0  0  3  0  0  0  0  0  0
  191.6490  171.6080  139.6610 C   0  0  0  0  0  0  0  0  0  0  0  0
  192.6580  171.7450  140.6520 C   0  0  0  0  0  3  0  0  0  0  0  0
  183.9470  178.6790  145.0100 C   0  0  0  0  0  2  0  0  0  0  0  0
  185.2210  178.2580  142.7470 C   0  0  0  0  0  2  0  0  0  0  0  0
  185.2790  178.3130  145.6950 C   0  0  0  0  0  2  0  0  0  0  0  0
  185.7940  177.1080  143.5770 C   0  0  0  0  0  2  0  0  0  0  0  0
  187.8230  177.7650  146.4550 O   0  0  0  0  0  0  0  0  0  0  0  0
  187.4990  177.3360  145.3110 C   0  0  0  0  0  0  0  0  0  0  0  0
  184.0520  178.9570  143.4820 C   0  0  1  0  0  3  0  0  0  0  0  0
  186.2250  177.5860  144.8780 N   0  0  0  0  0  0  0  0  0  0  0  0
  180.2960  179.9240  140.3990 C   0  0  0  0  0  1  0  0  0  0  0  0
  180.2940  178.6620  142.5440 C   0  0  0  0  0  2  0  0  0  0  0  0
  181.6950  177.9160  140.6470 C   0  0  0  0  0  2  0  0  0  0  0  0
  181.5230  179.3760  143.1490 C   0  0  0  0  0  2  0  0  0  0  0  0
  182.9040  178.6510  141.2520 C   0  0  0  0  0  2  0  0  0  0  0  0
  180.4390  178.6030  141.0580 N   0  0  0  0  0  0  0  0  0  0  0  0
  182.7880  178.6800  142.7320 N   0  0  0  0  0  0  0  0  0  0  0  0
  189.5960  172.2780  144.6230 C   0  0  0  0  0  1  0  0  0  0  0  0
  190.4050  173.4420  144.8580 O   0  0  0  0  0  0  0  0  0  0  0  0
  1  4  1  0  0  0  0
  2  5  1  0  0  0  0
  2  1  2  0  0  0  0
  4  3  2  0  0  0  0
  4 31  1  0  0  0  0
  5  6  2  0  0  0  0
  6 42  1  0  0  0  0
  6  3  1  0  0  0  0
  9 11  2  0  0  0  0
  9 10  1  0  0  0  0
 10 12  2  0  0  0  0
 11 16  1  0  0  0  0
 12 17  1  0  0  0  0
 13  5  1  0  0  0  0
 14 15  2  0  0  0  0
 15 18  1  0  0  0  0
 16 15  1  0  0  0  0
 16 17  2  0  0  0  0
 17 19  1  0  0  0  0
 18  7  1  0  0  0  0
 18 24  1  0  0  0  0
 19  8  1  0  0  0  0
 19 23  1  0  0  0  0
 20 21  2  0  0  0  0
 21 13  1  0  0  0  0
 22 21  2  0  0  0  0
 23 24  1  6  0  0  0
 23 22  1  0  0  0  0
 24 25  2  0  0  0  0
 25 20  1  0  0  0  0
 26 28  1  0  0  0  0
 27 32  1  0  0  0  0
 27 29  1  0  0  0  0
 29 33  1  0  0  0  0
 31 30  2  0  0  0  0
 32 40  1  6  0  0  0
 32 26  1  0  0  0  0
 33 31  1  0  0  0  0
 33 28  1  0  0  0  0
 34 39  1  0  0  0  0
 35 37  1  0  0  0  0
 36 39  1  0  0  0  0
 36 38  1  0  0  0  0
 38 40  1  0  0  0  0
 39 35  1  0  0  0  0
 40 37  1  0  0  0  0
 41 42  1  0  0  0  0
M  END
>  <MODEL>
7

>  <REMARK>
 VINA RESULT:      -7.0      4.067     10.445
  Name = 8fo7
  4 active torsions:
  status: ('A' for Active; 'I' for Inactive)
    1  A    between atoms: N_20  and  C_26
    2  A    between atoms: O_23  and  C_27
    3  A    between atoms: C_24  and  C_25
    4  A    between atoms: C_31  and  N_34
                            x       y       z     vdW  Elec       q    Type
                         _______ _______ _______ _____ _____    ______ ____

>  <TORSDO>
F 4

$$$$
8fo7
 OpenBabel11072415313D

 42 47  0  0  1  0  0  0  0  0999 V2000
  194.9190  175.9680  144.3600 C   0  0  0  0  0  3  0  0  0  0  0  0
  195.8820  175.2320  143.6620 C   0  0  0  0  0  3  0  0  0  0  0  0
  193.9360  173.9380  145.1830 C   0  0  0  0  0  3  0  0  0  0  0  0
  193.9210  175.3260  145.1370 C   0  0  0  0  0  0  0  0  0  0  0  0
  195.8800  173.8310  143.7270 C   0  0  0  0  0  0  0  0  0  0  0  0
  194.8990  173.1980  144.4910 C   0  0  0  0  0  0  0  0  0  0  0  0
  197.7920  169.5580  137.9390 C   0  0  0  0  0  1  0  0  0  0  0  0
  194.3640  173.7470  138.9660 C   0  0  0  0  0  1  0  0  0  0  0  0
  197.7200  175.2090  135.4970 C   0  0  0  0  0  3  0  0  0  0  0  0
  196.8390  175.8970  136.3270 C   0  0  0  0  0  3  0  0  0  0  0  0
  197.9220  173.8410  135.6780 C   0  0  0  0  0  3  0  0  0  0  0  0
  196.1500  175.2360  137.3460 C   0  0  0  0  0  3  0  0  0  0  0  0
  196.7420  172.9680  143.1060 N   0  0  0  0  0  2  0  0  0  0  0  0
  197.7370  171.1150  135.7550 O   0  0  0  0  0  0  0  0  0  0  0  0
  197.5000  171.7250  136.8250 C   0  0  0  0  0  0  0  0  0  0  0  0
  197.2400  173.1570  136.7000 C   0  0  0  0  0  0  0  0  0  0  0  0
  196.3350  173.8450  137.5480 C   0  0  0  0  0  0  0  0  0  0  0  0
  197.5080  170.9660  138.0150 N   0  0  0  0  0  0  0  0  0  0  0  0
  195.6420  173.2150  138.5660 N   0  0  0  0  0  0  0  0  0  0  0  0
  197.7300  171.5220  141.6450 N   0  0  0  0  0  0  0  0  0  0  0  0
  196.8780  172.5390  141.8440 C   0  0  0  0  0  0  0  0  0  0  0  0
  196.1930  173.0880  140.8270 N   0  0  0  0  0  0  0  0  0  0  0  0
  196.3550  172.6230  139.5700 C   0  0  2  0  0  3  0  0  0  0  0  0
  197.2570  171.5510  139.3020 C   0  0  0  0  0  0  0  0  0  0  0  0
  197.9270  171.0300  140.4410 C   0  0  0  0  0  3  0  0  0  0  0  0
  189.3650  177.4020  145.6220 C   0  0  0  0  0  2  0  0  0  0  0  0
  190.6010  176.9850  143.3370 C   0  0  0  0  0  2  0  0  0  0  0  0
  190.7060  177.0280  146.2840 C   0  0  0  0  0  2  0  0  0  0  0  0
  191.1820  175.8300  144.1540 C   0  0  0  0  0  2  0  0  0  0  0  0
  193.2610  176.4680  147.0010 O   0  0  0  0  0  0  0  0  0  0  0  0
  192.9160  176.0450  145.8610 C   0  0  0  0  0  0  0  0  0  0  0  0
  189.4460  177.6860  144.0940 C   0  0  1  0  0  3  0  0  0  0  0  0
  191.6370  176.3010  145.4490 N   0  0  0  0  0  0  0  0  0  0  0  0
  184.7530  178.4680  142.7130 C   0  0  0  0  0  1  0  0  0  0  0  0
  185.9280  176.3220  143.1690 C   0  0  0  0  0  2  0  0  0  0  0  0
  186.7340  177.8450  141.3940 C   0  0  0  0  0  2  0  0  0  0  0  0
  186.9790  176.9190  144.1330 C   0  0  0  0  0  2  0  0  0  0  0  0
  187.7590  178.4440  142.3730 C   0  0  0  0  0  2  0  0  0  0  0  0
  185.5510  177.3500  142.1530 N   0  0  0  0  0  0  0  0  0  0  0  0
  188.1690  177.4170  143.3640 N   0  0  0  0  0  0  0  0  0  0  0  0
  194.5510  171.1260  145.6740 C   0  0  0  0  0  1  0  0  0  0  0  0
  194.9640  171.8320  144.4930 O   0  0  0  0  0  0  0  0  0  0  0  0
  1  4  1  0  0  0  0
  2  5  1  0  0  0  0
  2  1  2  0  0  0  0
  4  3  2  0  0  0  0
  4 31  1  0  0  0  0
  5  6  2  0  0  0  0
  6 42  1  0  0  0  0
  6  3  1  0  0  0  0
  7 18  1  0  0  0  0
  9 11  2  0  0  0  0
  9 10  1  0  0  0  0
 10 12  2  0  0  0  0
 11 16  1  0  0  0  0
 12 17  1  0  0  0  0
 13  5  1  0  0  0  0
 14 15  2  0  0  0  0
 15 18  1  0  0  0  0
 16 15  1  0  0  0  0
 16 17  2  0  0  0  0
 17 19  1  0  0  0  0
 18 24  1  0  0  0  0
 19  8  1  0  0  0  0
 19 23  1  0  0  0  0
 20 21  2  0  0  0  0
 21 13  1  0  0  0  0
 22 21  2  0  0  0  0
 23 24  1  6  0  0  0
 23 22  1  0  0  0  0
 24 25  2  0  0  0  0
 25 20  1  0  0  0  0
 26 28  1  0  0  0  0
 27 29  1  0  0  0  0
 29 33  1  0  0  0  0
 31 30  2  0  0  0  0
 32 27  1  6  0  0  0
 32 26  1  0  0  0  0
 33 31  1  0  0  0  0
 33 28  1  0  0  0  0
 35 37  1  0  0  0  0
 36 39  1  0  0  0  0
 36 38  1  0  0  0  0
 38 40  1  0  0  0  0
 39 34  1  0  0  0  0
 39 35  1  0  0  0  0
 40 32  1  0  0  0  0
 40 37  1  0  0  0  0
 42 41  1  0  0  0  0
M  END
>  <MODEL>
8

>  <REMARK>
 VINA RESULT:      -7.0      2.518     10.382
  Name = 8fo7
  4 active torsions:
  status: ('A' for Active; 'I' for Inactive)
    1  A    between atoms: N_20  and  C_26
    2  A    between atoms: O_23  and  C_27
    3  A    between atoms: C_24  and  C_25
    4  A    between atoms: C_31  and  N_34
                            x       y       z     vdW  Elec       q    Type
                         _______ _______ _______ _____ _____    ______ ____

>  <TORSDO>
F 4

$$$$
8fo7
 OpenBabel11072415313D

 42 47  0  0  1  0  0  0  0  0999 V2000
  193.6290  175.6870  143.2510 C   0  0  0  0  0  3  0  0  0  0  0  0
  194.0890  174.9650  142.1440 C   0  0  0  0  0  3  0  0  0  0  0  0
  193.7270  173.7080  144.6070 C   0  0  0  0  0  3  0  0  0  0  0  0
  193.4380  175.0630  144.5110 C   0  0  0  0  0  0  0  0  0  0  0  0
  194.3790  173.5980  142.2680 C   0  0  0  0  0  0  0  0  0  0  0  0
  194.1910  172.9830  143.5060 C   0  0  0  0  0  0  0  0  0  0  0  0
  193.2290  168.2060  137.2650 C   0  0  0  0  0  1  0  0  0  0  0  0
  190.2280  171.8570  140.0970 C   0  0  0  0  0  1  0  0  0  0  0  0
  189.6910  172.7880  135.1700 C   0  0  0  0  0  3  0  0  0  0  0  0
  189.4240  173.5280  136.3180 C   0  0  0  0  0  3  0  0  0  0  0  0
  190.3980  171.5900  135.2620 C   0  0  0  0  0  3  0  0  0  0  0  0
  189.8570  173.0880  137.5700 C   0  0  0  0  0  3  0  0  0  0  0  0
  194.8290  172.7520  141.2900 N   0  0  0  0  0  2  0  0  0  0  0  0
  191.2260  169.0180  135.6740 O   0  0  0  0  0  0  0  0  0  0  0  0
  191.5770  169.8660  136.5300 C   0  0  0  0  0  0  0  0  0  0  0  0
  190.8460  171.1310  136.5130 C   0  0  0  0  0  0  0  0  0  0  0  0
  190.5760  171.8710  137.6920 C   0  0  0  0  0  0  0  0  0  0  0  0
  192.6240  169.5040  137.4050 N   0  0  0  0  0  0  0  0  0  0  0  0
  190.9950  171.4590  138.9440 N   0  0  0  0  0  0  0  0  0  0  0  0
  195.0000  171.1330  139.6940 N   0  0  0  0  0  0  0  0  0  0  0  0
  194.2240  172.0010  140.3610 C   0  0  0  0  0  0  0  0  0  0  0  0
  192.9080  172.1000  140.1100 N   0  0  0  0  0  0  0  0  0  0  0  0
  192.3360  171.3210  139.1680 C   0  0  2  0  0  3  0  0  0  0  0  0
  193.1170  170.3900  138.4220 C   0  0  0  0  0  0  0  0  0  0  0  0
  194.4950  170.3500  138.7640 C   0  0  0  0  0  3  0  0  0  0  0  0
  189.8430  177.2500  147.2670 C   0  0  0  0  0  2  0  0  0  0  0  0
  189.7660  176.9370  144.6550 C   0  0  0  0  0  2  0  0  0  0  0  0
  191.3120  176.7920  147.1630 C   0  0  0  0  0  2  0  0  0  0  0  0
  190.6050  175.7150  145.0320 C   0  0  0  0  0  2  0  0  0  0  0  0
  193.8500  176.1060  146.4990 O   0  0  0  0  0  0  0  0  0  0  0  0
  192.9640  175.7660  145.6640 C   0  0  0  0  0  0  0  0  0  0  0  0
  189.1780  177.6260  145.9110 C   0  0  1  0  0  3  0  0  0  0  0  0
  191.6650  176.0890  145.9500 N   0  0  0  0  0  0  0  0  0  0  0  0
  184.4320  179.0360  145.7370 C   0  0  0  0  0  1  0  0  0  0  0  0
  185.4900  177.2140  147.0600 C   0  0  0  0  0  2  0  0  0  0  0  0
  185.6070  177.2060  144.5890 C   0  0  0  0  0  2  0  0  0  0  0  0
  186.8970  177.8490  147.1070 C   0  0  0  0  0  2  0  0  0  0  0  0
  186.9990  177.8590  144.6540 C   0  0  0  0  0  2  0  0  0  0  0  0
  184.8140  177.6040  145.7860 N   0  0  0  0  0  0  0  0  0  0  0  0
  187.6930  177.4440  145.8990 N   0  0  0  0  0  0  0  0  0  0  0  0
  193.8370  170.8210  144.5110 C   0  0  0  0  0  1  0  0  0  0  0  0
  194.4890  171.6490  143.5350 O   0  0  0  0  0  0  0  0  0  0  0  0
  1  4  1  0  0  0  0
  2  5  1  0  0  0  0
  2  1  2  0  0  0  0
  4  3  2  0  0  0  0
  4 31  1  0  0  0  0
  5  6  2  0  0  0  0
  6 42  1  0  0  0  0
  6  3  1  0  0  0  0
  7 18  1  0  0  0  0
  9 11  2  0  0  0  0
  9 10  1  0  0  0  0
 10 12  2  0  0  0  0
 11 16  1  0  0  0  0
 12 17  1  0  0  0  0
 13  5  1  0  0  0  0
 14 15  2  0  0  0  0
 15 18  1  0  0  0  0
 16 15  1  0  0  0  0
 16 17  2  0  0  0  0
 17 19  1  0  0  0  0
 18 24  1  0  0  0  0
 19 23  1  0  0  0  0
 19  8  1  0  0  0  0
 20 21  2  0  0  0  0
 21 13  1  0  0  0  0
 22 21  2  0  0  0  0
 23 24  1  6  0  0  0
 23 22  1  0  0  0  0
 24 25  2  0  0  0  0
 25 20  1  0  0  0  0
 27 29  1  0  0  0  0
 28 26  1  0  0  0  0
 29 33  1  0  0  0  0
 31 33  1  0  0  0  0
 31 30  2  0  0  0  0
 32 27  1  6  0  0  0
 32 26  1  0  0  0  0
 33 28  1  0  0  0  0
 34 39  1  0  0  0  0
 35 37  1  0  0  0  0
 36 38  1  0  0  0  0
 36 39  1  0  0  0  0
 38 40  1  0  0  0  0
 39 35  1  0  0  0  0
 40 32  1  0  0  0  0
 40 37  1  0  0  0  0
 42 41  1  0  0  0  0
M  END
>  <MODEL>
9

>  <REMARK>
 VINA RESULT:      -6.8      3.691      9.782
  Name = 8fo7
  4 active torsions:
  status: ('A' for Active; 'I' for Inactive)
    1  A    between atoms: N_20  and  C_26
    2  A    between atoms: O_23  and  C_27
    3  A    between atoms: C_24  and  C_25
    4  A    between atoms: C_31  and  N_34
                            x       y       z     vdW  Elec       q    Type
                         _______ _______ _______ _____ _____    ______ ____

>  <TORSDO>
F 4

$$$$
