8smc
 OpenBabel11072415313D

 24 25  0  0  0  0  0  0  0  0999 V2000
  186.9960  177.4280  142.3520 C   0  0  0  0  0  1  0  0  0  0  0  0
  187.2510  178.2210  143.5370 N   0  0  0  0  0  2  0  0  0  0  0  0
  187.1590  177.6200  144.8500 C   0  0  0  0  0  0  0  0  0  0  0  0
  188.1280  176.8560  145.3150 N   0  0  0  0  0  4  0  0  0  0  0  0
  188.0600  176.3120  146.5090 C   0  0  0  0  0  0  0  0  0  0  0  0
  189.1100  175.4530  147.0360 N   0  0  0  0  0  2  0  0  0  0  0  0
  187.0020  176.5130  147.2710 N   0  0  0  0  0  0  0  0  0  0  0  0
  185.9940  177.2640  146.8840 C   0  0  0  0  0  3  0  0  0  0  0  0
  186.0470  177.8530  145.6330 C   0  0  0  0  0  0  0  0  0  0  0  0
  190.5500  175.6110  146.9130 C   0  0  0  0  0  0  0  0  0  0  0  0
  192.5450  175.2950  146.1310 N   0  0  0  0  0  0  0  0  0  0  0  0
  191.3060  174.9100  146.0060 C   0  0  0  0  0  3  0  0  0  0  0  0
  192.6410  176.2600  147.0890 N   0  0  0  0  0  0  0  0  0  0  0  0
  191.4190  176.4810  147.5750 C   0  0  0  0  0  0  0  0  0  0  0  0
  191.1150  177.4960  148.6750 C   0  0  0  0  0  1  0  0  0  0  0  0
  193.6640  174.7870  145.3650 C   0  0  0  0  0  0  0  0  0  0  0  0
  193.6030  173.2600  145.3170 C   0  0  0  0  0  1  0  0  0  0  0  0
  194.9650  175.2190  146.0370 C   0  0  0  0  0  1  0  0  0  0  0  0
  193.5920  175.7790  142.8940 N   0  0  0  0  0  0  0  0  0  0  0  0
  193.6210  175.3550  143.9470 C   0  0  0  0  0  0  0  0  0  0  0  0
  184.9190  178.7270  145.1150 C   0  0  0  0  0  0  0  0  0  0  0  0
  184.2910  178.0790  144.0950 F   0  0  0  0  0  0  0  0  0  0  0  0
  184.0310  178.9470  146.1250 F   0  0  0  0  0  0  0  0  0  0  0  0
  185.4120  179.9170  144.6740 F   0  0  0  0  0  0  0  0  0  0  0  0
  1  2  1  0  0  0  0
  2  3  1  0  0  0  0
  3  4  2  0  0  0  0
  3  9  1  0  0  0  0
  4  5  2  0  0  0  0
  5  6  1  0  0  0  0
  5  7  2  0  0  0  0
  8  7  1  0  0  0  0
  9  8  2  0  0  0  0
 10  6  1  0  0  0  0
 10 14  1  0  0  0  0
 11 13  1  0  0  0  0
 12 11  1  0  0  0  0
 12 10  2  0  0  0  0
 13 14  2  0  0  0  0
 14 15  1  0  0  0  0
 16 18  1  0  0  0  0
 16 11  1  0  0  0  0
 17 16  1  0  0  0  0
 19 20  3  0  0  0  0
 20 16  1  0  0  0  0
 21  9  1  0  0  0  0
 21 23  1  0  0  0  0
 22 21  1  0  0  0  0
 24 21  1  0  0  0  0
M  END
>  <MODEL>
1

>  <REMARK>
 VINA RESULT:      -6.7      0.000      0.000
  Name = 8smc
  4 active torsions:
  status: ('A' for Active; 'I' for Inactive)
    1  A    between atoms: N_6  and  C_7
    2  A    between atoms: N_8  and  C_15
    3  A    between atoms: C_15  and  C_18
    4  A    between atoms: C_20  and  C_21
                            x       y       z     vdW  Elec       q    Type
                         _______ _______ _______ _____ _____    ______ ____

>  <TORSDO>
F 4

$$$$
8smc
 OpenBabel11072415313D

 24 25  0  0  0  0  0  0  0  0999 V2000
  186.1210  177.6440  142.4680 C   0  0  0  0  0  1  0  0  0  0  0  0
  186.8340  178.2600  143.5690 N   0  0  0  0  0  2  0  0  0  0  0  0
  187.2370  177.4660  144.7100 C   0  0  0  0  0  0  0  0  0  0  0  0
  188.2890  176.6730  144.6460 N   0  0  0  0  0  4  0  0  0  0  0  0
  188.6710  175.9560  145.6780 C   0  0  0  0  0  0  0  0  0  0  0  0
  189.8180  175.0620  145.6250 N   0  0  0  0  0  2  0  0  0  0  0  0
  187.9920  176.0050  146.8090 N   0  0  0  0  0  0  0  0  0  0  0  0
  186.9340  176.7710  146.9560 C   0  0  0  0  0  3  0  0  0  0  0  0
  186.5180  177.5420  145.8850 C   0  0  0  0  0  0  0  0  0  0  0  0
  191.1050  175.2850  144.9850 C   0  0  0  0  0  0  0  0  0  0  0  0
  193.2200  175.7220  144.8290 N   0  0  0  0  0  0  0  0  0  0  0  0
  192.2400  175.6180  145.6830 C   0  0  0  0  0  3  0  0  0  0  0  0
  192.7780  175.4450  143.5710 N   0  0  0  0  0  0  0  0  0  0  0  0
  191.4780  175.1580  143.6450 C   0  0  0  0  0  0  0  0  0  0  0  0
  190.6180  174.7970  142.4360 C   0  0  0  0  0  1  0  0  0  0  0  0
  194.5870  176.0730  145.1590 C   0  0  0  0  0  0  0  0  0  0  0  0
  195.2160  174.9570  145.9930 C   0  0  0  0  0  1  0  0  0  0  0  0
  194.5870  177.3690  145.9660 C   0  0  0  0  0  1  0  0  0  0  0  0
  195.9860  176.4360  142.9210 N   0  0  0  0  0  0  0  0  0  0  0  0
  195.3910  176.2820  143.8770 C   0  0  0  0  0  0  0  0  0  0  0  0
  185.3020  178.4460  145.9780 C   0  0  0  0  0  0  0  0  0  0  0  0
  185.6380  179.6880  145.5340 F   0  0  0  0  0  0  0  0  0  0  0  0
  184.3140  177.9380  145.1880 F   0  0  0  0  0  0  0  0  0  0  0  0
  184.8650  178.5150  147.2660 F   0  0  0  0  0  0  0  0  0  0  0  0
  1  2  1  0  0  0  0
  2  3  1  0  0  0  0
  3  9  1  0  0  0  0
  4  3  2  0  0  0  0
  4  5  2  0  0  0  0
  5  7  2  0  0  0  0
  6  5  1  0  0  0  0
  7  8  1  0  0  0  0
  9 21  1  0  0  0  0
  9  8  2  0  0  0  0
 10  6  1  0  0  0  0
 10 12  2  0  0  0  0
 11 16  1  0  0  0  0
 11 12  1  0  0  0  0
 13 14  2  0  0  0  0
 13 11  1  0  0  0  0
 14 10  1  0  0  0  0
 15 14  1  0  0  0  0
 16 18  1  0  0  0  0
 16 17  1  0  0  0  0
 19 20  3  0  0  0  0
 20 16  1  0  0  0  0
 21 24  1  0  0  0  0
 22 21  1  0  0  0  0
 23 21  1  0  0  0  0
M  END
>  <MODEL>
2

>  <REMARK>
 VINA RESULT:      -6.6      1.545      2.370
  Name = 8smc
  4 active torsions:
  status: ('A' for Active; 'I' for Inactive)
    1  A    between atoms: N_6  and  C_7
    2  A    between atoms: N_8  and  C_15
    3  A    between atoms: C_15  and  C_18
    4  A    between atoms: C_20  and  C_21
                            x       y       z     vdW  Elec       q    Type
                         _______ _______ _______ _____ _____    ______ ____

>  <TORSDO>
F 4

$$$$
8smc
 OpenBabel11072415313D

 24 25  0  0  0  0  0  0  0  0999 V2000
  187.0710  178.7040  148.1430 C   0  0  0  0  0  1  0  0  0  0  0  0
  186.7500  177.6310  147.2240 N   0  0  0  0  0  2  0  0  0  0  0  0
  187.0590  177.7610  145.8160 C   0  0  0  0  0  0  0  0  0  0  0  0
  188.2900  177.5930  145.3740 N   0  0  0  0  0  4  0  0  0  0  0  0
  188.5800  177.6990  144.0970 C   0  0  0  0  0  0  0  0  0  0  0  0
  189.9350  177.5340  143.5890 N   0  0  0  0  0  2  0  0  0  0  0  0
  187.6370  177.9920  143.2230 N   0  0  0  0  0  0  0  0  0  0  0  0
  186.3840  178.1710  143.5800 C   0  0  0  0  0  3  0  0  0  0  0  0
  186.0530  178.0570  144.9190 C   0  0  0  0  0  0  0  0  0  0  0  0
  190.9370  176.5620  143.9950 C   0  0  0  0  0  0  0  0  0  0  0  0
  192.8130  175.8250  144.7880 N   0  0  0  0  0  0  0  0  0  0  0  0
  192.1640  176.9180  144.5010 C   0  0  0  0  0  3  0  0  0  0  0  0
  192.0430  174.7360  144.5100 N   0  0  0  0  0  0  0  0  0  0  0  0
  190.8750  175.1680  144.0340 C   0  0  0  0  0  0  0  0  0  0  0  0
  189.7410  174.2410  143.6010 C   0  0  0  0  0  1  0  0  0  0  0  0
  194.1540  175.7640  145.3330 C   0  0  0  0  0  0  0  0  0  0  0  0
  194.4680  174.3310  145.7620 C   0  0  0  0  0  1  0  0  0  0  0  0
  194.2410  176.6850  146.5470 C   0  0  0  0  0  1  0  0  0  0  0  0
  195.9110  176.5660  143.4980 N   0  0  0  0  0  0  0  0  0  0  0  0
  195.1610  176.2260  144.2810 C   0  0  0  0  0  0  0  0  0  0  0  0
  184.6300  178.2580  145.4080 C   0  0  0  0  0  0  0  0  0  0  0  0
  184.5660  179.4180  146.1180 F   0  0  0  0  0  0  0  0  0  0  0  0
  183.8000  178.3420  144.3310 F   0  0  0  0  0  0  0  0  0  0  0  0
  184.2520  177.2120  146.1940 F   0  0  0  0  0  0  0  0  0  0  0  0
  2  1  1  0  0  0  0
  3  2  1  0  0  0  0
  4  3  2  0  0  0  0
  5  4  2  0  0  0  0
  6 10  1  0  0  0  0
  6  5  1  0  0  0  0
  7  8  1  0  0  0  0
  7  5  2  0  0  0  0
  8  9  2  0  0  0  0
  9 21  1  0  0  0  0
  9  3  1  0  0  0  0
 10 14  1  0  0  0  0
 10 12  2  0  0  0  0
 11 16  1  0  0  0  0
 12 11  1  0  0  0  0
 13 11  1  0  0  0  0
 14 13  2  0  0  0  0
 15 14  1  0  0  0  0
 16 17  1  0  0  0  0
 16 18  1  0  0  0  0
 19 20  3  0  0  0  0
 20 16  1  0  0  0  0
 21 22  1  0  0  0  0
 21 24  1  0  0  0  0
 23 21  1  0  0  0  0
M  END
>  <MODEL>
3

>  <REMARK>
 VINA RESULT:      -6.5      1.823      3.061
  Name = 8smc
  4 active torsions:
  status: ('A' for Active; 'I' for Inactive)
    1  A    between atoms: N_6  and  C_7
    2  A    between atoms: N_8  and  C_15
    3  A    between atoms: C_15  and  C_18
    4  A    between atoms: C_20  and  C_21
                            x       y       z     vdW  Elec       q    Type
                         _______ _______ _______ _____ _____    ______ ____

>  <TORSDO>
F 4

$$$$
8smc
 OpenBabel11072415313D

 24 25  0  0  0  0  0  0  0  0999 V2000
  190.5960  172.6850  144.5190 C   0  0  0  0  0  1  0  0  0  0  0  0
  190.6690  173.8210  145.4160 N   0  0  0  0  0  2  0  0  0  0  0  0
  190.9170  175.1480  144.8930 C   0  0  0  0  0  0  0  0  0  0  0  0
  189.9540  175.8370  144.3110 N   0  0  0  0  0  4  0  0  0  0  0  0
  190.1640  177.0460  143.8410 C   0  0  0  0  0  0  0  0  0  0  0  0
  189.1210  177.8180  143.1820 N   0  0  0  0  0  2  0  0  0  0  0  0
  191.3600  177.5950  143.9310 N   0  0  0  0  0  0  0  0  0  0  0  0
  192.3720  176.9770  144.4990 C   0  0  0  0  0  3  0  0  0  0  0  0
  192.1730  175.7060  145.0080 C   0  0  0  0  0  0  0  0  0  0  0  0
  187.7170  177.9300  143.5440 C   0  0  0  0  0  0  0  0  0  0  0  0
  185.9850  178.1090  144.8300 N   0  0  0  0  0  0  0  0  0  0  0  0
  187.2830  177.9880  144.8450 C   0  0  0  0  0  3  0  0  0  0  0  0
  185.5330  178.1580  143.5460 N   0  0  0  0  0  0  0  0  0  0  0  0
  186.5870  178.0640  142.7350 C   0  0  0  0  0  0  0  0  0  0  0  0
  186.4890  178.0760  141.2110 C   0  0  0  0  0  1  0  0  0  0  0  0
  185.1350  178.1900  146.0010 C   0  0  0  0  0  0  0  0  0  0  0  0
  184.9000  176.7880  146.5630 C   0  0  0  0  0  1  0  0  0  0  0  0
  183.7970  178.8060  145.6030 C   0  0  0  0  0  1  0  0  0  0  0  0
  186.2870  179.7290  147.8450 N   0  0  0  0  0  0  0  0  0  0  0  0
  185.7960  179.0710  147.0600 C   0  0  0  0  0  0  0  0  0  0  0  0
  193.2950  174.9270  145.6700 C   0  0  0  0  0  0  0  0  0  0  0  0
  194.3690  175.7480  145.8330 F   0  0  0  0  0  0  0  0  0  0  0  0
  192.8710  174.4920  146.8900 F   0  0  0  0  0  0  0  0  0  0  0  0
  193.6420  173.8580  144.9000 F   0  0  0  0  0  0  0  0  0  0  0  0
  1  2  1  0  0  0  0
  3  9  1  0  0  0  0
  3  2  1  0  0  0  0
  4  3  2  0  0  0  0
  5  7  2  0  0  0  0
  5  4  2  0  0  0  0
  6 10  1  0  0  0  0
  6  5  1  0  0  0  0
  7  8  1  0  0  0  0
  8  9  2  0  0  0  0
  9 21  1  0  0  0  0
 10 12  2  0  0  0  0
 11 12  1  0  0  0  0
 11 16  1  0  0  0  0
 13 11  1  0  0  0  0
 14 10  1  0  0  0  0
 14 13  2  0  0  0  0
 15 14  1  0  0  0  0
 16 17  1  0  0  0  0
 16 20  1  0  0  0  0
 18 16  1  0  0  0  0
 20 19  3  0  0  0  0
 21 22  1  0  0  0  0
 21 23  1  0  0  0  0
 24 21  1  0  0  0  0
M  END
>  <MODEL>
4

>  <REMARK>
 VINA RESULT:      -6.2      4.023      7.744
  Name = 8smc
  4 active torsions:
  status: ('A' for Active; 'I' for Inactive)
    1  A    between atoms: N_6  and  C_7
    2  A    between atoms: N_8  and  C_15
    3  A    between atoms: C_15  and  C_18
    4  A    between atoms: C_20  and  C_21
                            x       y       z     vdW  Elec       q    Type
                         _______ _______ _______ _____ _____    ______ ____

>  <TORSDO>
F 4

$$$$
8smc
 OpenBabel11072415313D

 24 25  0  0  0  0  0  0  0  0999 V2000
  191.0250  172.6200  144.4500 C   0  0  0  0  0  1  0  0  0  0  0  0
  190.8140  173.8050  145.2570 N   0  0  0  0  0  2  0  0  0  0  0  0
  191.0920  175.1160  144.7130 C   0  0  0  0  0  0  0  0  0  0  0  0
  190.2510  175.6970  143.8790 N   0  0  0  0  0  4  0  0  0  0  0  0
  190.4880  176.8910  143.3860 C   0  0  0  0  0  0  0  0  0  0  0  0
  189.5820  177.5430  142.4520 N   0  0  0  0  0  2  0  0  0  0  0  0
  191.5930  177.5360  143.7100 N   0  0  0  0  0  0  0  0  0  0  0  0
  192.4810  177.0300  144.5370 C   0  0  0  0  0  3  0  0  0  0  0  0
  192.2490  175.7760  145.0740 C   0  0  0  0  0  0  0  0  0  0  0  0
  188.1280  177.5640  142.4730 C   0  0  0  0  0  0  0  0  0  0  0  0
  186.1380  178.0630  143.1670 N   0  0  0  0  0  0  0  0  0  0  0  0
  187.4030  178.2100  143.4450 C   0  0  0  0  0  3  0  0  0  0  0  0
  185.9910  177.3500  142.0150 N   0  0  0  0  0  0  0  0  0  0  0  0
  187.2070  177.0450  141.5620 C   0  0  0  0  0  0  0  0  0  0  0  0
  187.4600  176.2420  140.2870 C   0  0  0  0  0  1  0  0  0  0  0  0
  185.0390  178.5830  143.9550 C   0  0  0  0  0  0  0  0  0  0  0  0
  183.7380  178.4630  143.1620 C   0  0  0  0  0  1  0  0  0  0  0  0
  185.3040  180.0530  144.2690 C   0  0  0  0  0  1  0  0  0  0  0  0
  184.8390  177.2230  146.2370 N   0  0  0  0  0  0  0  0  0  0  0  0
  184.9260  177.8040  145.2640 C   0  0  0  0  0  0  0  0  0  0  0  0
  193.2320  175.1230  146.0300 C   0  0  0  0  0  0  0  0  0  0  0  0
  194.1980  176.0250  146.3550 F   0  0  0  0  0  0  0  0  0  0  0  0
  192.5670  174.7470  147.1590 F   0  0  0  0  0  0  0  0  0  0  0  0
  193.7960  174.0290  145.4470 F   0  0  0  0  0  0  0  0  0  0  0  0
  1  2  1  0  0  0  0
  3  9  1  0  0  0  0
  3  2  1  0  0  0  0
  4  3  2  0  0  0  0
  5  7  2  0  0  0  0
  5  4  2  0  0  0  0
  6 10  1  0  0  0  0
  6  5  1  0  0  0  0
  7  8  1  0  0  0  0
  8  9  2  0  0  0  0
  9 21  1  0  0  0  0
 10 12  2  0  0  0  0
 11 12  1  0  0  0  0
 11 16  1  0  0  0  0
 13 11  1  0  0  0  0
 14 13  2  0  0  0  0
 14 10  1  0  0  0  0
 15 14  1  0  0  0  0
 16 18  1  0  0  0  0
 16 20  1  0  0  0  0
 17 16  1  0  0  0  0
 20 19  3  0  0  0  0
 21 22  1  0  0  0  0
 21 23  1  0  0  0  0
 24 21  1  0  0  0  0
M  END
>  <MODEL>
5

>  <REMARK>
 VINA RESULT:      -6.2      3.986      7.922
  Name = 8smc
  4 active torsions:
  status: ('A' for Active; 'I' for Inactive)
    1  A    between atoms: N_6  and  C_7
    2  A    between atoms: N_8  and  C_15
    3  A    between atoms: C_15  and  C_18
    4  A    between atoms: C_20  and  C_21
                            x       y       z     vdW  Elec       q    Type
                         _______ _______ _______ _____ _____    ______ ____

>  <TORSDO>
F 4

$$$$
8smc
 OpenBabel11072415313D

 24 25  0  0  0  0  0  0  0  0999 V2000
  192.6580  172.2320  143.6130 C   0  0  0  0  0  1  0  0  0  0  0  0
  192.9320  172.9680  144.8310 N   0  0  0  0  0  2  0  0  0  0  0  0
  193.1450  174.3990  144.7850 C   0  0  0  0  0  0  0  0  0  0  0  0
  192.1290  175.2320  144.6670 N   0  0  0  0  0  4  0  0  0  0  0  0
  192.3090  176.5320  144.6330 C   0  0  0  0  0  0  0  0  0  0  0  0
  191.2050  177.4690  144.4880 N   0  0  0  0  0  2  0  0  0  0  0  0
  193.5260  177.0370  144.7050 N   0  0  0  0  0  0  0  0  0  0  0  0
  194.5920  176.2760  144.8270 C   0  0  0  0  0  3  0  0  0  0  0  0
  194.4260  174.9030  144.8720 C   0  0  0  0  0  0  0  0  0  0  0  0
  189.8890  177.4130  145.1040 C   0  0  0  0  0  0  0  0  0  0  0  0
  187.7260  177.3770  145.2190 N   0  0  0  0  0  0  0  0  0  0  0  0
  188.7210  177.4780  144.3830 C   0  0  0  0  0  3  0  0  0  0  0  0
  188.1950  177.2210  146.4890 N   0  0  0  0  0  0  0  0  0  0  0  0
  189.5270  177.2260  146.4390 C   0  0  0  0  0  0  0  0  0  0  0  0
  190.4220  177.0800  147.6680 C   0  0  0  0  0  1  0  0  0  0  0  0
  186.3230  177.4150  144.8620 C   0  0  0  0  0  0  0  0  0  0  0  0
  185.4870  176.8460  146.0080 C   0  0  0  0  0  1  0  0  0  0  0  0
  186.1050  176.5690  143.6100 C   0  0  0  0  0  1  0  0  0  0  0  0
  185.5860  179.9250  144.3610 N   0  0  0  0  0  0  0  0  0  0  0  0
  185.9000  178.8540  144.5730 C   0  0  0  0  0  0  0  0  0  0  0  0
  195.6090  173.9610  145.0040 C   0  0  0  0  0  0  0  0  0  0  0  0
  195.7970  173.3180  143.8190 F   0  0  0  0  0  0  0  0  0  0  0  0
  196.7220  174.6880  145.3040 F   0  0  0  0  0  0  0  0  0  0  0  0
  195.3780  173.0530  145.9930 F   0  0  0  0  0  0  0  0  0  0  0  0
  1  2  1  0  0  0  0
  3  2  1  0  0  0  0
  3  9  1  0  0  0  0
  4  3  2  0  0  0  0
  5  4  2  0  0  0  0
  5  7  2  0  0  0  0
  6  5  1  0  0  0  0
  6 10  1  0  0  0  0
  7  8  1  0  0  0  0
  8  9  2  0  0  0  0
  9 21  1  0  0  0  0
 10 14  1  0  0  0  0
 11 13  1  0  0  0  0
 12 10  2  0  0  0  0
 12 11  1  0  0  0  0
 14 13  2  0  0  0  0
 14 15  1  0  0  0  0
 16 11  1  0  0  0  0
 16 17  1  0  0  0  0
 18 16  1  0  0  0  0
 19 20  3  0  0  0  0
 20 16  1  0  0  0  0
 21 23  1  0  0  0  0
 21 24  1  0  0  0  0
 22 21  1  0  0  0  0
M  END
>  <MODEL>
6

>  <REMARK>
 VINA RESULT:      -6.1      4.670      7.942
  Name = 8smc
  4 active torsions:
  status: ('A' for Active; 'I' for Inactive)
    1  A    between atoms: N_6  and  C_7
    2  A    between atoms: N_8  and  C_15
    3  A    between atoms: C_15  and  C_18
    4  A    between atoms: C_20  and  C_21
                            x       y       z     vdW  Elec       q    Type
                         _______ _______ _______ _____ _____    ______ ____

>  <TORSDO>
F 4

$$$$
8smc
 OpenBabel11072415313D

 24 25  0  0  0  0  0  0  0  0999 V2000
  194.5030  176.0690  141.8440 C   0  0  0  0  0  1  0  0  0  0  0  0
  194.1130  175.0930  142.8420 N   0  0  0  0  0  2  0  0  0  0  0  0
  193.8660  175.5050  144.2070 C   0  0  0  0  0  0  0  0  0  0  0  0
  192.7380  176.1010  144.5410 N   0  0  0  0  0  4  0  0  0  0  0  0
  192.4980  176.4710  145.7790 C   0  0  0  0  0  0  0  0  0  0  0  0
  191.2680  177.1440  146.1670 N   0  0  0  0  0  2  0  0  0  0  0  0
  193.3980  176.2630  146.7210 N   0  0  0  0  0  0  0  0  0  0  0  0
  194.5460  175.6720  146.4720 C   0  0  0  0  0  3  0  0  0  0  0  0
  194.8180  175.2670  145.1770 C   0  0  0  0  0  0  0  0  0  0  0  0
  189.9110  176.8710  145.7190 C   0  0  0  0  0  0  0  0  0  0  0  0
  188.1090  177.0770  144.5370 N   0  0  0  0  0  0  0  0  0  0  0  0
  189.2990  177.5780  144.7130 C   0  0  0  0  0  3  0  0  0  0  0  0
  187.9100  176.0300  145.3860 N   0  0  0  0  0  0  0  0  0  0  0  0
  189.0160  175.8760  146.1160 C   0  0  0  0  0  0  0  0  0  0  0  0
  189.1810  174.8030  147.1900 C   0  0  0  0  0  1  0  0  0  0  0  0
  187.1330  177.5480  143.5750 C   0  0  0  0  0  0  0  0  0  0  0  0
  186.2080  176.3980  143.1770 C   0  0  0  0  0  1  0  0  0  0  0  0
  187.8630  178.0620  142.3370 C   0  0  0  0  0  1  0  0  0  0  0  0
  185.7080  179.5350  144.6320 N   0  0  0  0  0  0  0  0  0  0  0  0
  186.3160  178.6870  144.1830 C   0  0  0  0  0  0  0  0  0  0  0  0
  196.1240  174.5860  144.8110 C   0  0  0  0  0  0  0  0  0  0  0  0
  195.8520  173.4640  144.0890 F   0  0  0  0  0  0  0  0  0  0  0  0
  196.8710  175.4390  144.0550 F   0  0  0  0  0  0  0  0  0  0  0  0
  196.8130  174.2560  145.9390 F   0  0  0  0  0  0  0  0  0  0  0  0
  1  2  1  0  0  0  0
  2  3  1  0  0  0  0
  3  4  2  0  0  0  0
  3  9  1  0  0  0  0
  4  5  2  0  0  0  0
  5  6  1  0  0  0  0
  5  7  2  0  0  0  0
  8  7  1  0  0  0  0
  9  8  2  0  0  0  0
 10 14  1  0  0  0  0
 10  6  1  0  0  0  0
 11 12  1  0  0  0  0
 11 13  1  0  0  0  0
 12 10  2  0  0  0  0
 13 14  2  0  0  0  0
 14 15  1  0  0  0  0
 16 20  1  0  0  0  0
 16 11  1  0  0  0  0
 17 16  1  0  0  0  0
 18 16  1  0  0  0  0
 20 19  3  0  0  0  0
 21  9  1  0  0  0  0
 21 24  1  0  0  0  0
 22 21  1  0  0  0  0
 23 21  1  0  0  0  0
M  END
>  <MODEL>
7

>  <REMARK>
 VINA RESULT:      -6.1      4.764      7.873
  Name = 8smc
  4 active torsions:
  status: ('A' for Active; 'I' for Inactive)
    1  A    between atoms: N_6  and  C_7
    2  A    between atoms: N_8  and  C_15
    3  A    between atoms: C_15  and  C_18
    4  A    between atoms: C_20  and  C_21
                            x       y       z     vdW  Elec       q    Type
                         _______ _______ _______ _____ _____    ______ ____

>  <TORSDO>
F 4

$$$$
8smc
 OpenBabel11072415313D

 24 25  0  0  0  0  0  0  0  0999 V2000
  189.4980  174.5410  147.4540 C   0  0  0  0  0  1  0  0  0  0  0  0
  189.8760  175.8770  147.0410 N   0  0  0  0  0  2  0  0  0  0  0  0
  190.3150  176.1240  145.6840 C   0  0  0  0  0  0  0  0  0  0  0  0
  189.4450  176.2070  144.6950 N   0  0  0  0  0  4  0  0  0  0  0  0
  189.8310  176.4400  143.4610 C   0  0  0  0  0  0  0  0  0  0  0  0
  188.8910  176.5190  142.3530 N   0  0  0  0  0  2  0  0  0  0  0  0
  191.1120  176.5840  143.1810 N   0  0  0  0  0  0  0  0  0  0  0  0
  192.0420  176.5190  144.1090 C   0  0  0  0  0  3  0  0  0  0  0  0
  191.6590  176.2820  145.4170 C   0  0  0  0  0  0  0  0  0  0  0  0
  187.5780  177.1430  142.3280 C   0  0  0  0  0  0  0  0  0  0  0  0
  185.8080  178.1260  143.0980 N   0  0  0  0  0  0  0  0  0  0  0  0
  186.9470  177.6040  143.4580 C   0  0  0  0  0  3  0  0  0  0  0  0
  185.6640  178.0490  141.7440 N   0  0  0  0  0  0  0  0  0  0  0  0
  186.7520  177.4590  141.2480 C   0  0  0  0  0  0  0  0  0  0  0  0
  186.9640  177.1870  139.7600 C   0  0  0  0  0  1  0  0  0  0  0  0
  184.8320  178.7130  143.9930 C   0  0  0  0  0  0  0  0  0  0  0  0
  183.4480  178.6660  143.3470 C   0  0  0  0  0  1  0  0  0  0  0  0
  185.2150  180.1660  144.2630 C   0  0  0  0  0  1  0  0  0  0  0  0
  184.8050  177.3790  146.2990 N   0  0  0  0  0  0  0  0  0  0  0  0
  184.8160  177.9470  145.3150 C   0  0  0  0  0  0  0  0  0  0  0  0
  192.6750  176.1850  146.5410 C   0  0  0  0  0  0  0  0  0  0  0  0
  192.8290  174.8780  146.8880 F   0  0  0  0  0  0  0  0  0  0  0  0
  193.8670  176.6790  146.1020 F   0  0  0  0  0  0  0  0  0  0  0  0
  192.2540  176.9040  147.6180 F   0  0  0  0  0  0  0  0  0  0  0  0
  2  1  1  0  0  0  0
  3  2  1  0  0  0  0
  4  3  2  0  0  0  0
  5  4  2  0  0  0  0
  6  5  1  0  0  0  0
  7  5  2  0  0  0  0
  7  8  1  0  0  0  0
  8  9  2  0  0  0  0
  9  3  1  0  0  0  0
  9 21  1  0  0  0  0
 10  6  1  0  0  0  0
 10 12  2  0  0  0  0
 11 12  1  0  0  0  0
 11 16  1  0  0  0  0
 13 11  1  0  0  0  0
 14 13  2  0  0  0  0
 14 10  1  0  0  0  0
 15 14  1  0  0  0  0
 16 18  1  0  0  0  0
 16 20  1  0  0  0  0
 17 16  1  0  0  0  0
 20 19  3  0  0  0  0
 21 22  1  0  0  0  0
 21 24  1  0  0  0  0
 23 21  1  0  0  0  0
M  END
>  <MODEL>
8

>  <REMARK>
 VINA RESULT:      -6.0      3.588      7.784
  Name = 8smc
  4 active torsions:
  status: ('A' for Active; 'I' for Inactive)
    1  A    between atoms: N_6  and  C_7
    2  A    between atoms: N_8  and  C_15
    3  A    between atoms: C_15  and  C_18
    4  A    between atoms: C_20  and  C_21
                            x       y       z     vdW  Elec       q    Type
                         _______ _______ _______ _____ _____    ______ ____

>  <TORSDO>
F 4

$$$$
8smc
 OpenBabel11072415313D

 24 25  0  0  0  0  0  0  0  0999 V2000
  193.8700  176.6320  146.5950 C   0  0  0  0  0  1  0  0  0  0  0  0
  193.5850  176.9960  145.2220 N   0  0  0  0  0  2  0  0  0  0  0  0
  192.7700  176.1330  144.3940 C   0  0  0  0  0  0  0  0  0  0  0  0
  191.4570  176.1130  144.5210 N   0  0  0  0  0  4  0  0  0  0  0  0
  190.7070  175.3410  143.7690 C   0  0  0  0  0  0  0  0  0  0  0  0
  189.2580  175.2920  143.9030 N   0  0  0  0  0  2  0  0  0  0  0  0
  191.2590  174.5510  142.8680 N   0  0  0  0  0  0  0  0  0  0  0  0
  192.5590  174.5130  142.6760 C   0  0  0  0  0  3  0  0  0  0  0  0
  193.3700  175.3230  143.4510 C   0  0  0  0  0  0  0  0  0  0  0  0
  188.3360  176.3930  144.1320 C   0  0  0  0  0  0  0  0  0  0  0  0
  186.8350  177.5740  145.1510 N   0  0  0  0  0  0  0  0  0  0  0  0
  187.5120  176.4630  145.2280 C   0  0  0  0  0  3  0  0  0  0  0  0
  187.2000  178.2700  144.0380 N   0  0  0  0  0  0  0  0  0  0  0  0
  188.1370  177.5660  143.4020 C   0  0  0  0  0  0  0  0  0  0  0  0
  188.7980  178.0160  142.1000 C   0  0  0  0  0  1  0  0  0  0  0  0
  185.8420  178.0210  146.1080 C   0  0  0  0  0  0  0  0  0  0  0  0
  184.9140  176.8600  146.4640 C   0  0  0  0  0  1  0  0  0  0  0  0
  185.0230  179.1490  145.4850 C   0  0  0  0  0  1  0  0  0  0  0  0
  187.0500  178.9250  148.3030 N   0  0  0  0  0  0  0  0  0  0  0  0
  186.5340  178.5410  147.3660 C   0  0  0  0  0  0  0  0  0  0  0  0
  194.8790  175.3270  143.2920 C   0  0  0  0  0  0  0  0  0  0  0  0
  195.2120  174.5830  142.2020 F   0  0  0  0  0  0  0  0  0  0  0  0
  195.3000  176.6110  143.1070 F   0  0  0  0  0  0  0  0  0  0  0  0
  195.4700  174.8100  144.4050 F   0  0  0  0  0  0  0  0  0  0  0  0
  2  1  1  0  0  0  0
  3  4  2  0  0  0  0
  3  2  1  0  0  0  0
  5  6  1  0  0  0  0
  5  4  2  0  0  0  0
  6 10  1  0  0  0  0
  7  5  2  0  0  0  0
  8  7  1  0  0  0  0
  8  9  2  0  0  0  0
  9  3  1  0  0  0  0
 10 12  2  0  0  0  0
 11 12  1  0  0  0  0
 11 16  1  0  0  0  0
 13 11  1  0  0  0  0
 14 13  2  0  0  0  0
 14 10  1  0  0  0  0
 15 14  1  0  0  0  0
 16 17  1  0  0  0  0
 16 20  1  0  0  0  0
 18 16  1  0  0  0  0
 20 19  3  0  0  0  0
 21  9  1  0  0  0  0
 21 24  1  0  0  0  0
 22 21  1  0  0  0  0
 23 21  1  0  0  0  0
M  END
>  <MODEL>
9

>  <REMARK>
 VINA RESULT:      -5.9      4.423      7.894
  Name = 8smc
  4 active torsions:
  status: ('A' for Active; 'I' for Inactive)
    1  A    between atoms: N_6  and  C_7
    2  A    between atoms: N_8  and  C_15
    3  A    between atoms: C_15  and  C_18
    4  A    between atoms: C_20  and  C_21
                            x       y       z     vdW  Elec       q    Type
                         _______ _______ _______ _____ _____    ______ ____

>  <TORSDO>
F 4

$$$$
