8tzc
 OpenBabel11072415313D

 28 32  0  0  1  0  0  0  0  0999 V2000
  185.7620  178.1830  141.0040 N   0  0  0  0  0  0  0  0  0  0  0  0
  187.1150  176.6100  140.1180 N   0  0  0  0  0  0  0  0  0  0  0  0
  187.2070  176.0390  141.2050 C   0  0  0  0  0  0  0  0  0  0  0  0
  186.6220  176.4370  142.2890 C   0  0  0  0  0  3  0  0  0  0  0  0
  185.8710  177.5490  142.2050 C   0  0  0  0  0  0  0  0  0  0  0  0
  186.4220  177.6520  139.9860 C   0  0  0  0  0  3  0  0  0  0  0  0
  189.0970  172.4770  138.8070 C   0  0  0  0  0  1  0  0  0  0  0  0
  188.0020  174.8830  141.2580 N   0  0  0  0  0  0  0  0  0  0  0  0
  189.0360  172.4900  141.0940 O   0  0  0  0  0  0  0  0  0  0  0  0
  189.3570  173.2450  140.0520 C   0  0  2  0  0  3  0  0  0  0  0  0
  188.6250  174.5330  140.0250 C   0  0  0  0  0  2  0  0  0  0  0  0
  188.1660  174.1190  142.4570 C   0  0  0  0  0  2  0  0  0  0  0  0
  189.2400  173.1180  142.2490 C   0  0  1  0  0  3  0  0  0  0  0  0
  189.3530  172.0800  143.3220 C   0  0  0  0  0  1  0  0  0  0  0  0
  184.3090  178.7140  143.2780 N   0  0  0  0  0  0  0  0  0  0  0  0
  183.9290  178.9520  144.4970 N   0  0  0  0  0  0  0  0  0  0  0  0
  185.1920  178.0160  143.4410 C   0  0  0  0  0  0  0  0  0  0  0  0
  184.7310  178.2830  145.4290 C   0  0  0  0  0  0  0  0  0  0  0  0
  184.7670  178.1900  146.7470 C   0  0  0  0  0  3  0  0  0  0  0  0
  185.6960  177.4410  147.2690 C   0  0  0  0  0  3  0  0  0  0  0  0
  186.5770  176.7900  146.5140 C   0  0  0  0  0  0  0  0  0  0  0  0
  186.5060  176.9010  145.1910 C   0  0  0  0  0  3  0  0  0  0  0  0
  185.6110  177.6330  144.6220 C   0  0  1  0  0  3  0  0  0  0  0  0
  187.5310  176.0070  147.1750 O   0  0  0  0  0  0  0  0  0  0  0  0
  188.8240  176.0090  146.7770 C   0  0  0  0  0  0  0  0  0  0  0  0
  189.6110  177.2850  146.9290 C   0  0  0  0  0  1  0  0  0  0  0  0
  189.3970  174.9220  145.9150 C   0  0  0  0  0  2  0  0  0  0  0  0
  189.3640  174.7630  147.3970 C   0  0  0  0  0  2  0  0  0  0  0  0
  1  5  1  0  0  0  0
  2  3  2  0  0  0  0
  3  8  1  0  0  0  0
  3  4  1  0  0  0  0
  5  4  2  0  0  0  0
  5 17  1  0  0  0  0
  6  2  1  0  0  0  0
  6  1  2  0  0  0  0
  8 12  1  0  0  0  0
  9 13  1  0  0  0  0
 10  7  1  6  0  0  0
 10  9  1  0  0  0  0
 11 10  1  0  0  0  0
 11  8  1  0  0  0  0
 13 12  1  0  0  0  0
 13 14  1  1  0  0  0
 15 17  2  0  0  0  0
 15 16  1  0  0  0  0
 16 18  2  0  0  0  0
 17 23  1  0  0  0  0
 18 19  1  0  0  0  0
 19 20  2  0  0  0  0
 21 24  1  0  0  0  0
 21 20  1  0  0  0  0
 22 21  2  0  0  0  0
 23 22  1  6  0  0  0
 23 18  1  0  0  0  0
 25 26  1  0  0  0  0
 25 24  1  0  0  0  0
 25 28  1  0  0  0  0
 27 25  1  0  0  0  0
 27 28  1  0  0  0  0
M  END
>  <MODEL>
1

>  <REMARK>
 VINA RESULT:      -8.9      0.000      0.000
  Name = 8tzc
  3 active torsions:
  status: ('A' for Active; 'I' for Inactive)
    1  A    between atoms: C_5  and  C_9
    2  A    between atoms: C_13  and  O_16
    3  A    between atoms: O_16  and  C_17
                            x       y       z     vdW  Elec       q    Type
                         _______ _______ _______ _____ _____    ______ ____

>  <TORSDO>
F 3

$$$$
8tzc
 OpenBabel11072415313D

 28 32  0  0  1  0  0  0  0  0999 V2000
  188.2650  174.8240  140.1780 N   0  0  0  0  0  0  0  0  0  0  0  0
  190.0400  174.0870  141.3570 N   0  0  0  0  0  0  0  0  0  0  0  0
  189.8390  174.9240  142.2360 C   0  0  0  0  0  0  0  0  0  0  0  0
  188.8730  175.7870  142.2140 C   0  0  0  0  0  3  0  0  0  0  0  0
  188.0480  175.7530  141.1520 C   0  0  0  0  0  0  0  0  0  0  0  0
  189.2960  174.0110  140.3460 C   0  0  0  0  0  3  0  0  0  0  0  0
  192.8980  172.4780  144.8170 C   0  0  0  0  0  1  0  0  0  0  0  0
  190.7200  174.9340  143.3280 N   0  0  0  0  0  0  0  0  0  0  0  0
  192.0690  174.4910  145.5220 O   0  0  0  0  0  0  0  0  0  0  0  0
  192.6140  173.8940  144.4700 C   0  0  2  0  0  3  0  0  0  0  0  0
  191.7650  173.9670  143.2580 C   0  0  0  0  0  2  0  0  0  0  0  0
  190.5750  175.8440  144.4240 C   0  0  0  0  0  2  0  0  0  0  0  0
  191.7830  175.7670  145.2800 C   0  0  1  0  0  3  0  0  0  0  0  0
  191.6700  176.4690  146.5980 C   0  0  0  0  0  1  0  0  0  0  0  0
  186.7130  177.1800  140.0910 N   0  0  0  0  0  0  0  0  0  0  0  0
  185.7270  177.9810  140.3580 N   0  0  0  0  0  0  0  0  0  0  0  0
  186.9360  176.7350  141.1140 C   0  0  0  0  0  0  0  0  0  0  0  0
  185.3870  177.9500  141.7150 C   0  0  1  0  0  3  0  0  0  0  0  0
  184.4880  178.5520  142.4760 C   0  0  0  0  0  3  0  0  0  0  0  0
  184.4810  178.2510  143.7440 C   0  0  0  0  0  3  0  0  0  0  0  0
  185.3370  177.3740  144.2600 C   0  0  0  0  0  0  0  0  0  0  0  0
  186.2220  176.7830  143.4630 C   0  0  0  0  0  3  0  0  0  0  0  0
  186.2780  177.0470  142.2030 C   0  0  0  0  0  0  0  0  0  0  0  0
  185.2400  177.1180  145.6330 O   0  0  0  0  0  0  0  0  0  0  0  0
  186.0710  177.7260  146.5110 C   0  0  0  0  0  0  0  0  0  0  0  0
  185.7190  179.1150  146.9760 C   0  0  0  0  0  1  0  0  0  0  0  0
  187.4570  177.2180  146.7830 C   0  0  0  0  0  2  0  0  0  0  0  0
  186.2970  176.6680  147.5410 C   0  0  0  0  0  2  0  0  0  0  0  0
  1  6  2  0  0  0  0
  1  5  1  0  0  0  0
  2  3  2  0  0  0  0
  3  8  1  0  0  0  0
  4  3  1  0  0  0  0
  5  4  2  0  0  0  0
  6  2  1  0  0  0  0
  8 12  1  0  0  0  0
 10  7  1  1  0  0  0
 10  9  1  0  0  0  0
 11  8  1  0  0  0  0
 11 10  1  0  0  0  0
 12 13  1  0  0  0  0
 13  9  1  0  0  0  0
 13 14  1  1  0  0  0
 15 16  2  0  0  0  0
 15 17  1  0  0  0  0
 16 18  1  0  0  0  0
 17  5  1  0  0  0  0
 17 23  2  0  0  0  0
 18 23  1  0  0  0  0
 18 19  1  6  0  0  0
 19 20  2  0  0  0  0
 20 21  1  0  0  0  0
 21 24  1  0  0  0  0
 22 21  2  0  0  0  0
 23 22  1  0  0  0  0
 24 25  1  0  0  0  0
 25 27  1  0  0  0  0
 25 26  1  0  0  0  0
 25 28  1  0  0  0  0
 27 28  1  0  0  0  0
M  END
>  <MODEL>
2

>  <REMARK>
 VINA RESULT:      -7.9      2.184      4.104
  Name = 8tzc
  3 active torsions:
  status: ('A' for Active; 'I' for Inactive)
    1  A    between atoms: C_5  and  C_9
    2  A    between atoms: C_13  and  O_16
    3  A    between atoms: O_16  and  C_17
                            x       y       z     vdW  Elec       q    Type
                         _______ _______ _______ _____ _____    ______ ____

>  <TORSDO>
F 3

$$$$
8tzc
 OpenBabel11072415313D

 28 32  0  0  1  0  0  0  0  0999 V2000
  186.2420  178.0970  146.8340 N   0  0  0  0  0  0  0  0  0  0  0  0
  184.9070  178.4540  145.0520 N   0  0  0  0  0  0  0  0  0  0  0  0
  185.7860  178.0700  144.2820 C   0  0  0  0  0  0  0  0  0  0  0  0
  186.9580  177.6660  144.6570 C   0  0  0  0  0  3  0  0  0  0  0  0
  187.2140  177.6770  145.9770 C   0  0  0  0  0  0  0  0  0  0  0  0
  185.0940  178.4800  146.2960 C   0  0  0  0  0  3  0  0  0  0  0  0
  182.4270  177.9630  141.0100 C   0  0  0  0  0  1  0  0  0  0  0  0
  185.4870  178.0750  142.9100 N   0  0  0  0  0  0  0  0  0  0  0  0
  184.6270  177.6190  140.4860 O   0  0  0  0  0  0  0  0  0  0  0  0
  183.8260  178.4380  141.1550 C   0  0  2  0  0  3  0  0  0  0  0  0
  184.1850  178.5550  142.5880 C   0  0  0  0  0  2  0  0  0  0  0  0
  186.4190  177.6280  141.9200 C   0  0  0  0  0  2  0  0  0  0  0  0
  185.9030  177.9820  140.5760 C   0  0  1  0  0  3  0  0  0  0  0  0
  186.6400  177.3580  139.4310 C   0  0  0  0  0  1  0  0  0  0  0  0
  189.0300  177.8300  147.2520 N   0  0  0  0  0  0  0  0  0  0  0  0
  190.1590  177.2120  147.4260 N   0  0  0  0  0  0  0  0  0  0  0  0
  188.5530  177.2150  146.4220 C   0  0  0  0  0  0  0  0  0  0  0  0
  190.2910  176.1210  146.5610 C   0  0  0  0  0  0  0  0  0  0  0  0
  191.2120  175.1970  146.3410 C   0  0  0  0  0  3  0  0  0  0  0  0
  190.9640  174.3130  145.4170 C   0  0  0  0  0  3  0  0  0  0  0  0
  189.8310  174.3280  144.7190 C   0  0  0  0  0  0  0  0  0  0  0  0
  188.9240  175.2680  144.9730 C   0  0  0  0  0  3  0  0  0  0  0  0
  189.1200  176.1700  145.8720 C   0  0  1  0  0  3  0  0  0  0  0  0
  189.6610  173.3290  143.7540 O   0  0  0  0  0  0  0  0  0  0  0  0
  189.4420  173.6490  142.4580 C   0  0  0  0  0  0  0  0  0  0  0  0
  190.5370  174.3640  141.7090 C   0  0  0  0  0  1  0  0  0  0  0  0
  188.0720  173.6140  141.8460 C   0  0  0  0  0  2  0  0  0  0  0  0
  188.9040  172.3780  141.8880 C   0  0  0  0  0  2  0  0  0  0  0  0
  2  6  2  0  0  0  0
  3  4  2  0  0  0  0
  3  2  1  0  0  0  0
  4  5  1  0  0  0  0
  5 17  1  0  0  0  0
  5  1  2  0  0  0  0
  6  1  1  0  0  0  0
  8  3  1  0  0  0  0
  9 13  1  0  0  0  0
  9 10  1  0  0  0  0
 10  7  1  1  0  0  0
 10 11  1  0  0  0  0
 11  8  1  0  0  0  0
 12  8  1  0  0  0  0
 13 14  1  6  0  0  0
 13 12  1  0  0  0  0
 15 16  1  0  0  0  0
 17 15  2  0  0  0  0
 18 16  2  0  0  0  0
 19 18  1  0  0  0  0
 20 19  2  0  0  0  0
 21 22  2  0  0  0  0
 21 20  1  0  0  0  0
 23 22  1  1  0  0  0
 23 17  1  0  0  0  0
 23 18  1  0  0  0  0
 24 21  1  0  0  0  0
 25 24  1  0  0  0  0
 26 25  1  0  0  0  0
 27 28  1  0  0  0  0
 27 25  1  0  0  0  0
 28 25  1  0  0  0  0
M  END
>  <MODEL>
3

>  <REMARK>
 VINA RESULT:      -7.6      2.660      5.737
  Name = 8tzc
  3 active torsions:
  status: ('A' for Active; 'I' for Inactive)
    1  A    between atoms: C_5  and  C_9
    2  A    between atoms: C_13  and  O_16
    3  A    between atoms: O_16  and  C_17
                            x       y       z     vdW  Elec       q    Type
                         _______ _______ _______ _____ _____    ______ ____

>  <TORSDO>
F 3

$$$$
8tzc
 OpenBabel11072415313D

 28 32  0  0  1  0  0  0  0  0999 V2000
  189.0950  174.9160  144.5170 N   0  0  0  0  0  0  0  0  0  0  0  0
  191.2880  174.4880  144.8240 N   0  0  0  0  0  0  0  0  0  0  0  0
  191.5870  175.1720  143.8450 C   0  0  0  0  0  0  0  0  0  0  0  0
  190.7280  175.7930  143.1000 C   0  0  0  0  0  3  0  0  0  0  0  0
  189.4310  175.6690  143.4310 C   0  0  0  0  0  0  0  0  0  0  0  0
  190.0900  174.3440  145.1770 C   0  0  0  0  0  3  0  0  0  0  0  0
  196.0030  174.8970  145.4030 C   0  0  0  0  0  1  0  0  0  0  0  0
  192.9500  175.2770  143.5250 N   0  0  0  0  0  0  0  0  0  0  0  0
  195.4990  175.8290  143.3750 O   0  0  0  0  0  0  0  0  0  0  0  0
  195.2620  174.7590  144.1230 C   0  0  2  0  0  3  0  0  0  0  0  0
  193.8200  174.5430  144.3830 C   0  0  0  0  0  2  0  0  0  0  0  0
  193.4220  176.0630  142.4260 C   0  0  0  0  0  2  0  0  0  0  0  0
  194.8600  175.7760  142.2090 C   0  0  1  0  0  3  0  0  0  0  0  0
  195.5550  176.7050  141.2630 C   0  0  0  0  0  1  0  0  0  0  0  0
  188.4560  176.1110  141.4810 N   0  0  0  0  0  0  0  0  0  0  0  0
  187.5080  176.8630  141.0090 N   0  0  0  0  0  0  0  0  0  0  0  0
  188.4350  176.3770  142.5870 C   0  0  0  0  0  0  0  0  0  0  0  0
  186.9080  177.6320  142.0120 C   0  0  1  0  0  3  0  0  0  0  0  0
  185.9330  178.5230  142.0610 C   0  0  0  0  0  3  0  0  0  0  0  0
  185.6510  179.0400  143.2230 C   0  0  0  0  0  3  0  0  0  0  0  0
  186.3120  178.6890  144.3230 C   0  0  0  0  0  0  0  0  0  0  0  0
  187.2830  177.7840  144.2370 C   0  0  0  0  0  3  0  0  0  0  0  0
  187.6060  177.2450  143.1120 C   0  0  0  0  0  0  0  0  0  0  0  0
  185.9270  179.2990  145.5220 O   0  0  0  0  0  0  0  0  0  0  0  0
  185.6180  178.5560  146.6090 C   0  0  0  0  0  0  0  0  0  0  0  0
  186.3640  178.8260  147.8900 C   0  0  0  0  0  1  0  0  0  0  0  0
  184.8160  177.2900  146.5120 C   0  0  0  0  0  2  0  0  0  0  0  0
  184.1250  178.6060  146.6330 C   0  0  0  0  0  2  0  0  0  0  0  0
  1  6  1  0  0  0  0
  2  6  2  0  0  0  0
  3  2  1  0  0  0  0
  4  5  1  0  0  0  0
  4  3  2  0  0  0  0
  5  1  2  0  0  0  0
  8  3  1  0  0  0  0
  8 11  1  0  0  0  0
  9 10  1  0  0  0  0
 10 11  1  0  0  0  0
 10  7  1  1  0  0  0
 12  8  1  0  0  0  0
 13 14  1  6  0  0  0
 13 12  1  0  0  0  0
 13  9  1  0  0  0  0
 15 17  1  0  0  0  0
 16 15  2  0  0  0  0
 16 18  1  0  0  0  0
 17 23  2  0  0  0  0
 17  5  1  0  0  0  0
 18 19  1  1  0  0  0
 18 23  1  0  0  0  0
 19 20  2  0  0  0  0
 20 21  1  0  0  0  0
 21 24  1  0  0  0  0
 22 21  2  0  0  0  0
 23 22  1  0  0  0  0
 24 25  1  0  0  0  0
 25 28  1  0  0  0  0
 25 26  1  0  0  0  0
 27 25  1  0  0  0  0
 27 28  1  0  0  0  0
M  END
>  <MODEL>
4

>  <REMARK>
 VINA RESULT:      -7.6      3.808      5.588
  Name = 8tzc
  3 active torsions:
  status: ('A' for Active; 'I' for Inactive)
    1  A    between atoms: C_5  and  C_9
    2  A    between atoms: C_13  and  O_16
    3  A    between atoms: O_16  and  C_17
                            x       y       z     vdW  Elec       q    Type
                         _______ _______ _______ _____ _____    ______ ____

>  <TORSDO>
F 3

$$$$
8tzc
 OpenBabel11072415313D

 28 32  0  0  1  0  0  0  0  0999 V2000
  191.5930  177.2200  143.8200 N   0  0  0  0  0  0  0  0  0  0  0  0
  193.4710  176.3360  144.7010 N   0  0  0  0  0  0  0  0  0  0  0  0
  193.0360  175.1940  144.5510 C   0  0  0  0  0  0  0  0  0  0  0  0
  191.8790  174.9160  144.0410 C   0  0  0  0  0  3  0  0  0  0  0  0
  191.1150  175.9540  143.6590 C   0  0  0  0  0  0  0  0  0  0  0  0
  192.7970  177.3410  144.3570 C   0  0  0  0  0  3  0  0  0  0  0  0
  197.4100  173.7570  145.4530 C   0  0  0  0  0  1  0  0  0  0  0  0
  193.8590  174.1340  144.9630 N   0  0  0  0  0  0  0  0  0  0  0  0
  195.6750  172.2780  145.2520 O   0  0  0  0  0  0  0  0  0  0  0  0
  196.0200  173.4130  145.8470 C   0  0  2  0  0  3  0  0  0  0  0  0
  195.1030  174.5330  145.5330 C   0  0  0  0  0  2  0  0  0  0  0  0
  193.4740  172.7620  144.8170 C   0  0  0  0  0  2  0  0  0  0  0  0
  194.4350  171.9100  145.5580 C   0  0  1  0  0  3  0  0  0  0  0  0
  194.3130  170.4410  145.2910 C   0  0  0  0  0  1  0  0  0  0  0  0
  189.7890  174.8900  142.2240 N   0  0  0  0  0  0  0  0  0  0  0  0
  188.5280  174.8300  141.9160 N   0  0  0  0  0  0  0  0  0  0  0  0
  189.7850  175.6500  143.0710 C   0  0  0  0  0  0  0  0  0  0  0  0
  187.7580  175.6810  142.7160 C   0  0  1  0  0  3  0  0  0  0  0  0
  186.4740  175.9820  142.8090 C   0  0  0  0  0  3  0  0  0  0  0  0
  186.1270  176.8540  143.7120 C   0  0  0  0  0  3  0  0  0  0  0  0
  187.0220  177.4220  144.5160 C   0  0  0  0  0  0  0  0  0  0  0  0
  188.3040  177.0900  144.3990 C   0  0  0  0  0  3  0  0  0  0  0  0
  188.7030  176.2380  143.5190 C   0  0  0  0  0  0  0  0  0  0  0  0
  186.5430  178.3420  145.4560 O   0  0  0  0  0  0  0  0  0  0  0  0
  185.8910  177.9220  146.5640 C   0  0  0  0  0  0  0  0  0  0  0  0
  186.4420  176.7310  147.3050 C   0  0  0  0  0  1  0  0  0  0  0  0
  184.4990  178.3770  146.8930 C   0  0  0  0  0  2  0  0  0  0  0  0
  185.6730  179.1900  147.3220 C   0  0  0  0  0  2  0  0  0  0  0  0
  1  6  1  0  0  0  0
  3  2  1  0  0  0  0
  3  8  1  0  0  0  0
  4  3  2  0  0  0  0
  5  1  2  0  0  0  0
  5  4  1  0  0  0  0
  6  2  2  0  0  0  0
  8 11  1  0  0  0  0
  9 13  1  0  0  0  0
  9 10  1  0  0  0  0
 10  7  1  6  0  0  0
 11 10  1  0  0  0  0
 12  8  1  0  0  0  0
 12 13  1  0  0  0  0
 13 14  1  6  0  0  0
 15 17  1  0  0  0  0
 16 15  2  0  0  0  0
 16 18  1  0  0  0  0
 17 23  2  0  0  0  0
 17  5  1  0  0  0  0
 18 19  1  1  0  0  0
 18 23  1  0  0  0  0
 19 20  2  0  0  0  0
 20 21  1  0  0  0  0
 21 24  1  0  0  0  0
 22 21  2  0  0  0  0
 23 22  1  0  0  0  0
 24 25  1  0  0  0  0
 25 27  1  0  0  0  0
 25 26  1  0  0  0  0
 25 28  1  0  0  0  0
 27 28  1  0  0  0  0
M  END
>  <MODEL>
5

>  <REMARK>
 VINA RESULT:      -7.6      4.201      6.145
  Name = 8tzc
  3 active torsions:
  status: ('A' for Active; 'I' for Inactive)
    1  A    between atoms: C_5  and  C_9
    2  A    between atoms: C_13  and  O_16
    3  A    between atoms: O_16  and  C_17
                            x       y       z     vdW  Elec       q    Type
                         _______ _______ _______ _____ _____    ______ ____

>  <TORSDO>
F 3

$$$$
8tzc
 OpenBabel11072415313D

 28 32  0  0  1  0  0  0  0  0999 V2000
  190.2620  174.8140  143.2330 N   0  0  0  0  0  0  0  0  0  0  0  0
  188.3240  175.5430  142.3380 N   0  0  0  0  0  0  0  0  0  0  0  0
  188.2130  176.4040  143.2110 C   0  0  0  0  0  0  0  0  0  0  0  0
  189.0650  176.5830  144.1700 C   0  0  0  0  0  3  0  0  0  0  0  0
  190.1320  175.7660  144.2000 C   0  0  0  0  0  0  0  0  0  0  0  0
  189.3050  174.7560  142.3190 C   0  0  0  0  0  3  0  0  0  0  0  0
  184.8480  178.2470  140.5120 C   0  0  0  0  0  1  0  0  0  0  0  0
  187.0860  177.2380  143.1510 N   0  0  0  0  0  0  0  0  0  0  0  0
  185.2720  179.0410  142.6150 O   0  0  0  0  0  0  0  0  0  0  0  0
  185.0730  177.9150  141.9420 C   0  0  2  0  0  3  0  0  0  0  0  0
  186.1920  176.9540  142.0780 C   0  0  0  0  0  2  0  0  0  0  0  0
  186.8590  178.2910  144.0950 C   0  0  0  0  0  2  0  0  0  0  0  0
  185.4860  178.8180  143.9090 C   0  0  1  0  0  3  0  0  0  0  0  0
  185.1910  180.0870  144.6480 C   0  0  0  0  0  1  0  0  0  0  0  0
  190.6840  175.9680  146.3450 N   0  0  0  0  0  0  0  0  0  0  0  0
  191.7460  176.1540  147.0690 N   0  0  0  0  0  0  0  0  0  0  0  0
  191.1170  175.9620  145.2930 C   0  0  0  0  0  0  0  0  0  0  0  0
  192.8970  176.2620  146.2820 C   0  0  0  0  0  0  0  0  0  0  0  0
  194.1860  176.4470  146.5160 C   0  0  0  0  0  3  0  0  0  0  0  0
  194.9810  176.4920  145.4850 C   0  0  0  0  0  3  0  0  0  0  0  0
  194.5240  176.3560  144.2420 C   0  0  0  0  0  0  0  0  0  0  0  0
  193.2230  176.1640  144.0460 C   0  0  0  0  0  3  0  0  0  0  0  0
  192.3910  176.1170  145.0290 C   0  0  1  0  0  3  0  0  0  0  0  0
  195.4630  176.4140  143.2060 O   0  0  0  0  0  0  0  0  0  0  0  0
  196.3710  175.4260  143.0390 C   0  0  0  0  0  0  0  0  0  0  0  0
  195.8850  174.0000  143.0810 C   0  0  0  0  0  1  0  0  0  0  0  0
  197.8490  175.6730  143.1370 C   0  0  0  0  0  2  0  0  0  0  0  0
  197.1400  175.8800  141.8420 C   0  0  0  0  0  2  0  0  0  0  0  0
  1  5  1  0  0  0  0
  2  3  2  0  0  0  0
  3  4  1  0  0  0  0
  4  5  2  0  0  0  0
  5 17  1  0  0  0  0
  6  2  1  0  0  0  0
  6  1  2  0  0  0  0
  8  3  1  0  0  0  0
  8 12  1  0  0  0  0
  9 13  1  0  0  0  0
 10  7  1  6  0  0  0
 10 11  1  0  0  0  0
 10  9  1  0  0  0  0
 11  8  1  0  0  0  0
 13 12  1  0  0  0  0
 13 14  1  1  0  0  0
 15 16  1  0  0  0  0
 17 15  2  0  0  0  0
 18 19  1  0  0  0  0
 18 16  2  0  0  0  0
 20 19  2  0  0  0  0
 21 20  1  0  0  0  0
 22 21  2  0  0  0  0
 23 22  1  1  0  0  0
 23 17  1  0  0  0  0
 23 18  1  0  0  0  0
 24 21  1  0  0  0  0
 25 26  1  0  0  0  0
 25 27  1  0  0  0  0
 25 24  1  0  0  0  0
 28 25  1  0  0  0  0
 28 27  1  0  0  0  0
M  END
>  <MODEL>
6

>  <REMARK>
 VINA RESULT:      -7.5      4.664      7.133
  Name = 8tzc
  3 active torsions:
  status: ('A' for Active; 'I' for Inactive)
    1  A    between atoms: C_5  and  C_9
    2  A    between atoms: C_13  and  O_16
    3  A    between atoms: O_16  and  C_17
                            x       y       z     vdW  Elec       q    Type
                         _______ _______ _______ _____ _____    ______ ____

>  <TORSDO>
F 3

$$$$
8tzc
 OpenBabel11072415313D

 28 32  0  0  1  0  0  0  0  0999 V2000
  190.9070  176.8820  143.6400 N   0  0  0  0  0  0  0  0  0  0  0  0
  193.0630  176.5720  143.0540 N   0  0  0  0  0  0  0  0  0  0  0  0
  193.2630  175.8810  144.0530 C   0  0  0  0  0  0  0  0  0  0  0  0
  192.3630  175.6050  144.9410 C   0  0  0  0  0  3  0  0  0  0  0  0
  191.1350  176.1180  144.7460 C   0  0  0  0  0  0  0  0  0  0  0  0
  191.9320  177.0730  142.8240 C   0  0  0  0  0  3  0  0  0  0  0  0
  197.2970  174.6530  141.9960 C   0  0  0  0  0  1  0  0  0  0  0  0
  194.5570  175.3630  144.2270 N   0  0  0  0  0  0  0  0  0  0  0  0
  196.8060  174.0360  144.1430 O   0  0  0  0  0  0  0  0  0  0  0  0
  196.8140  175.0850  143.3320 C   0  0  2  0  0  3  0  0  0  0  0  0
  195.4880  175.7360  143.2150 C   0  0  0  0  0  2  0  0  0  0  0  0
  194.9050  174.5250  145.3340 C   0  0  0  0  0  2  0  0  0  0  0  0
  196.3770  174.3500  145.3630 C   0  0  1  0  0  3  0  0  0  0  0  0
  196.8700  173.2970  146.3070 C   0  0  0  0  0  1  0  0  0  0  0  0
  190.3540  174.9800  146.4900 N   0  0  0  0  0  0  0  0  0  0  0  0
  189.2860  174.9300  147.2270 N   0  0  0  0  0  0  0  0  0  0  0  0
  190.0920  175.8090  145.7560 C   0  0  0  0  0  0  0  0  0  0  0  0
  188.3300  175.8660  146.8180 C   0  0  0  0  0  0  0  0  0  0  0  0
  187.1180  176.2130  147.2190 C   0  0  0  0  0  3  0  0  0  0  0  0
  186.5210  177.1660  146.5620 C   0  0  0  0  0  3  0  0  0  0  0  0
  187.1000  177.7740  145.5290 C   0  0  0  0  0  0  0  0  0  0  0  0
  188.3220  177.4030  145.1590 C   0  0  0  0  0  3  0  0  0  0  0  0
  188.9570  176.4630  145.7700 C   0  0  1  0  0  3  0  0  0  0  0  0
  186.3740  178.7890  144.8960 O   0  0  0  0  0  0  0  0  0  0  0  0
  185.2780  178.5000  144.1570 C   0  0  0  0  0  0  0  0  0  0  0  0
  183.9470  179.0270  144.6260 C   0  0  0  0  0  1  0  0  0  0  0  0
  185.2850  177.4340  143.1000 C   0  0  0  0  0  2  0  0  0  0  0  0
  185.7200  178.8210  142.7670 C   0  0  0  0  0  2  0  0  0  0  0  0
  1  5  1  0  0  0  0
  2  3  2  0  0  0  0
  3  8  1  0  0  0  0
  3  4  1  0  0  0  0
  5  4  2  0  0  0  0
  5 17  1  0  0  0  0
  6  2  1  0  0  0  0
  6  1  2  0  0  0  0
  8 12  1  0  0  0  0
  9 13  1  0  0  0  0
 10  7  1  6  0  0  0
 10  9  1  0  0  0  0
 11 10  1  0  0  0  0
 11  8  1  0  0  0  0
 12 13  1  0  0  0  0
 13 14  1  1  0  0  0
 15 16  1  0  0  0  0
 17 23  1  0  0  0  0
 17 15  2  0  0  0  0
 18 19  1  0  0  0  0
 18 16  2  0  0  0  0
 20 19  2  0  0  0  0
 21 20  1  0  0  0  0
 22 21  2  0  0  0  0
 23 22  1  1  0  0  0
 23 18  1  0  0  0  0
 24 21  1  0  0  0  0
 25 26  1  0  0  0  0
 25 24  1  0  0  0  0
 27 25  1  0  0  0  0
 28 27  1  0  0  0  0
 28 25  1  0  0  0  0
M  END
>  <MODEL>
7

>  <REMARK>
 VINA RESULT:      -7.5      4.783      6.320
  Name = 8tzc
  3 active torsions:
  status: ('A' for Active; 'I' for Inactive)
    1  A    between atoms: C_5  and  C_9
    2  A    between atoms: C_13  and  O_16
    3  A    between atoms: O_16  and  C_17
                            x       y       z     vdW  Elec       q    Type
                         _______ _______ _______ _____ _____    ______ ____

>  <TORSDO>
F 3

$$$$
8tzc
 OpenBabel11072415313D

 28 32  0  0  1  0  0  0  0  0999 V2000
  188.2360  175.1810  140.9230 N   0  0  0  0  0  0  0  0  0  0  0  0
  186.9170  176.8100  141.7560 N   0  0  0  0  0  0  0  0  0  0  0  0
  187.1200  176.4240  142.9070 C   0  0  0  0  0  0  0  0  0  0  0  0
  187.8700  175.4140  143.2150 C   0  0  0  0  0  3  0  0  0  0  0  0
  188.4550  174.7560  142.1990 C   0  0  0  0  0  0  0  0  0  0  0  0
  187.4420  176.2300  140.7710 C   0  0  0  0  0  3  0  0  0  0  0  0
  185.1900  180.4780  144.2650 C   0  0  0  0  0  1  0  0  0  0  0  0
  186.4920  177.1320  143.9430 N   0  0  0  0  0  0  0  0  0  0  0  0
  185.7270  178.8390  145.7680 O   0  0  0  0  0  0  0  0  0  0  0  0
  185.1110  179.0350  144.6090 C   0  0  2  0  0  3  0  0  0  0  0  0
  185.6680  178.2120  143.5110 C   0  0  0  0  0  2  0  0  0  0  0  0
  186.6710  176.7950  145.3230 C   0  0  0  0  0  2  0  0  0  0  0  0
  185.7000  177.5620  146.1390 C   0  0  1  0  0  3  0  0  0  0  0  0
  185.9340  177.5080  147.6170 C   0  0  0  0  0  1  0  0  0  0  0  0
  188.8840  172.5750  142.2920 N   0  0  0  0  0  0  0  0  0  0  0  0
  189.8310  171.7800  142.6880 N   0  0  0  0  0  0  0  0  0  0  0  0
  189.3200  173.5970  142.5380 C   0  0  0  0  0  0  0  0  0  0  0  0
  190.9150  172.4880  143.2180 C   0  0  0  0  0  0  0  0  0  0  0  0
  192.0880  172.1680  143.7380 C   0  0  0  0  0  3  0  0  0  0  0  0
  192.8530  173.1440  144.1350 C   0  0  0  0  0  3  0  0  0  0  0  0
  192.4790  174.4170  144.0240 C   0  0  0  0  0  0  0  0  0  0  0  0
  191.2960  174.7010  143.4890 C   0  0  0  0  0  3  0  0  0  0  0  0
  190.4970  173.7750  143.0850 C   0  0  1  0  0  3  0  0  0  0  0  0
  193.3790  175.3890  144.4750 O   0  0  0  0  0  0  0  0  0  0  0  0
  193.4330  175.7280  145.7830 C   0  0  0  0  0  0  0  0  0  0  0  0
  192.3580  175.2010  146.6980 C   0  0  0  0  0  1  0  0  0  0  0  0
  194.3070  176.8400  146.2860 C   0  0  0  0  0  2  0  0  0  0  0  0
  194.8590  175.4630  146.1370 C   0  0  0  0  0  2  0  0  0  0  0  0
  1  5  1  0  0  0  0
  2  3  2  0  0  0  0
  3  4  1  0  0  0  0
  3  8  1  0  0  0  0
  5 17  1  0  0  0  0
  5  4  2  0  0  0  0
  6  1  2  0  0  0  0
  6  2  1  0  0  0  0
  8 12  1  0  0  0  0
  9 13  1  0  0  0  0
 10  7  1  6  0  0  0
 10  9  1  0  0  0  0
 11  8  1  0  0  0  0
 11 10  1  0  0  0  0
 12 13  1  0  0  0  0
 13 14  1  1  0  0  0
 15 17  2  0  0  0  0
 15 16  1  0  0  0  0
 16 18  2  0  0  0  0
 17 23  1  0  0  0  0
 18 19  1  0  0  0  0
 19 20  2  0  0  0  0
 21 20  1  0  0  0  0
 21 24  1  0  0  0  0
 22 21  2  0  0  0  0
 23 18  1  0  0  0  0
 23 22  1  6  0  0  0
 24 25  1  0  0  0  0
 25 28  1  0  0  0  0
 25 27  1  0  0  0  0
 25 26  1  0  0  0  0
 28 27  1  0  0  0  0
M  END
>  <MODEL>
8

>  <REMARK>
 VINA RESULT:      -7.3      2.844      6.456
  Name = 8tzc
  3 active torsions:
  status: ('A' for Active; 'I' for Inactive)
    1  A    between atoms: C_5  and  C_9
    2  A    between atoms: C_13  and  O_16
    3  A    between atoms: O_16  and  C_17
                            x       y       z     vdW  Elec       q    Type
                         _______ _______ _______ _____ _____    ______ ____

>  <TORSDO>
F 3

$$$$
8tzc
 OpenBabel11072415313D

 28 32  0  0  1  0  0  0  0  0999 V2000
  189.6190  173.6240  144.0140 N   0  0  0  0  0  0  0  0  0  0  0  0
  191.8280  173.4590  144.4380 N   0  0  0  0  0  0  0  0  0  0  0  0
  192.0810  174.3260  143.6030 C   0  0  0  0  0  0  0  0  0  0  0  0
  191.1870  174.9350  142.8900 C   0  0  0  0  0  3  0  0  0  0  0  0
  189.9050  174.5820  143.0870 C   0  0  0  0  0  0  0  0  0  0  0  0
  190.6450  173.0950  144.6630 C   0  0  0  0  0  3  0  0  0  0  0  0
  196.3830  174.4160  145.4710 C   0  0  0  0  0  1  0  0  0  0  0  0
  193.4300  174.6690  143.4200 N   0  0  0  0  0  0  0  0  0  0  0  0
  195.8720  175.5850  143.5720 O   0  0  0  0  0  0  0  0  0  0  0  0
  195.7520  174.3860  144.1270 C   0  0  2  0  0  3  0  0  0  0  0  0
  194.3450  173.9340  144.2280 C   0  0  0  0  0  2  0  0  0  0  0  0
  193.8470  175.6800  142.4960 C   0  0  0  0  0  2  0  0  0  0  0  0
  195.3230  175.6340  142.3620 C   0  0  1  0  0  3  0  0  0  0  0  0
  195.9280  176.7910  141.6290 C   0  0  0  0  0  1  0  0  0  0  0  0
  188.7750  174.9190  141.2010 N   0  0  0  0  0  0  0  0  0  0  0  0
  187.8230  175.6800  140.7530 N   0  0  0  0  0  0  0  0  0  0  0  0
  188.8690  175.2720  142.2780 C   0  0  0  0  0  0  0  0  0  0  0  0
  187.3550  176.5570  141.7370 C   0  0  1  0  0  3  0  0  0  0  0  0
  186.4300  177.5000  141.7970 C   0  0  0  0  0  3  0  0  0  0  0  0
  186.2810  178.1220  142.9320 C   0  0  0  0  0  3  0  0  0  0  0  0
  187.0240  177.8240  143.9950 C   0  0  0  0  0  0  0  0  0  0  0  0
  187.9400  176.8650  143.9000 C   0  0  0  0  0  3  0  0  0  0  0  0
  188.1330  176.2220  142.8000 C   0  0  0  0  0  0  0  0  0  0  0  0
  186.7800  178.5480  145.1680 O   0  0  0  0  0  0  0  0  0  0  0  0
  186.0450  178.0130  146.1710 C   0  0  0  0  0  0  0  0  0  0  0  0
  185.1910  176.8110  145.8620 C   0  0  0  0  0  1  0  0  0  0  0  0
  185.8000  178.7430  147.4600 C   0  0  0  0  0  2  0  0  0  0  0  0
  187.0300  177.9160  147.2890 C   0  0  0  0  0  2  0  0  0  0  0  0
  1  6  1  0  0  0  0
  2  6  2  0  0  0  0
  3  2  1  0  0  0  0
  4  5  1  0  0  0  0
  4  3  2  0  0  0  0
  5  1  2  0  0  0  0
  8  3  1  0  0  0  0
  8 11  1  0  0  0  0
  9 10  1  0  0  0  0
 10 11  1  0  0  0  0
 10  7  1  1  0  0  0
 12  8  1  0  0  0  0
 13 14  1  1  0  0  0
 13 12  1  0  0  0  0
 13  9  1  0  0  0  0
 15 17  1  0  0  0  0
 16 15  2  0  0  0  0
 16 18  1  0  0  0  0
 17 23  2  0  0  0  0
 17  5  1  0  0  0  0
 18 19  1  1  0  0  0
 18 23  1  0  0  0  0
 19 20  2  0  0  0  0
 20 21  1  0  0  0  0
 21 24  1  0  0  0  0
 22 21  2  0  0  0  0
 23 22  1  0  0  0  0
 24 25  1  0  0  0  0
 25 28  1  0  0  0  0
 25 27  1  0  0  0  0
 26 25  1  0  0  0  0
 28 27  1  0  0  0  0
M  END
>  <MODEL>
9

>  <REMARK>
 VINA RESULT:      -7.2      3.989      5.903
  Name = 8tzc
  3 active torsions:
  status: ('A' for Active; 'I' for Inactive)
    1  A    between atoms: C_5  and  C_9
    2  A    between atoms: C_13  and  O_16
    3  A    between atoms: O_16  and  C_17
                            x       y       z     vdW  Elec       q    Type
                         _______ _______ _______ _____ _____    ______ ____

>  <TORSDO>
F 3

$$$$
