8u8b
 OpenBabel11072415303D

 41 45  0  0  0  0  0  0  0  0999 V2000
  190.1350  177.5850  143.9750 N   0  0  0  0  0  2  0  0  0  0  0  0
  191.1980  176.7300  144.5220 C   0  0  0  0  0  0  0  0  0  0  0  0
  192.5810  177.0090  144.1260 N   0  0  0  0  0  2  0  0  0  0  0  0
  190.9300  175.8410  145.2620 O   0  0  0  0  0  0  0  0  0  0  0  0
  194.0400  175.8710  145.8430 C   0  0  0  0  0  3  0  0  0  0  0  0
  195.2090  175.1870  146.1430 C   0  0  0  0  0  3  0  0  0  0  0  0
  196.1380  174.9160  145.1550 C   0  0  0  0  0  0  0  0  0  0  0  0
  195.8800  175.3150  143.8540 C   0  0  0  0  0  3  0  0  0  0  0  0
  194.7140  175.9990  143.5620 C   0  0  0  0  0  0  0  0  0  0  0  0
  193.7940  176.2900  144.5410 C   0  0  0  0  0  0  0  0  0  0  0  0
  194.4600  176.4030  142.2890 F   0  0  0  0  0  0  0  0  0  0  0  0
  197.3130  174.1970  145.4400 O   0  0  0  0  0  0  0  0  0  0  0  0
  197.6930  171.0190  143.5430 C   0  0  0  0  0  3  0  0  0  0  0  0
  197.2560  170.1570  144.4470 N   0  0  0  0  0  0  0  0  0  0  0  0
  196.8480  170.5560  145.6340 C   0  0  0  0  0  0  0  0  0  0  0  0
  196.8610  171.8980  145.9720 C   0  0  0  0  0  3  0  0  0  0  0  0
  197.3210  172.8410  145.0640 C   0  0  0  0  0  0  0  0  0  0  0  0
  197.7350  172.3810  143.8220 C   0  0  0  0  0  3  0  0  0  0  0  0
  196.3440  169.5560  146.6710 C   0  0  0  0  0  0  0  0  0  0  0  0
  197.1210  168.9900  147.3620 O   0  0  0  0  0  0  0  0  0  0  0  0
  194.9280  169.2850  146.8230 N   0  0  0  0  0  2  0  0  0  0  0  0
  194.5050  168.3230  147.8240 C   0  0  0  0  0  1  0  0  0  0  0  0
  186.7300  177.5390  145.3100 C   0  0  0  0  0  0  0  0  0  0  0  0
  188.0350  178.0200  145.3240 C   0  0  0  0  0  3  0  0  0  0  0  0
  188.7230  177.3820  144.3180 C   0  0  0  0  0  0  0  0  0  0  0  0
  187.8730  176.5630  143.7260 N   0  0  0  0  0  0  0  0  0  0  0  0
  186.6350  176.6450  144.3190 N   0  0  0  0  0  0  0  0  0  0  0  0
  188.1680  175.6870  142.5930 C   0  0  0  0  0  0  0  0  0  0  0  0
  187.7220  176.0500  141.3200 C   0  0  0  0  0  3  0  0  0  0  0  0
  187.9830  175.2240  140.2280 C   0  0  0  0  0  3  0  0  0  0  0  0
  188.7030  174.0040  140.4090 C   0  0  0  0  0  0  0  0  0  0  0  0
  189.1370  173.6480  141.6520 C   0  0  0  0  0  0  0  0  0  0  0  0
  188.8660  174.4930  142.7750 C   0  0  0  0  0  3  0  0  0  0  0  0
  189.6450  172.0320  139.4690 C   0  0  0  0  0  3  0  0  0  0  0  0
  188.9610  173.1930  139.3120 N   0  0  0  0  0  0  0  0  0  0  0  0
  189.8390  172.4510  141.8130 C   0  0  0  0  0  3  0  0  0  0  0  0
  190.0910  171.6530  140.7350 C   0  0  0  0  0  3  0  0  0  0  0  0
  185.6010  177.9630  146.2530 C   0  0  0  0  0  0  0  0  0  0  0  0
  184.7940  176.7340  146.6680 C   0  0  0  0  0  1  0  0  0  0  0  0
  184.6960  178.9610  145.5340 C   0  0  0  0  0  1  0  0  0  0  0  0
  186.2100  178.6130  147.4830 C   0  0  0  0  0  1  0  0  0  0  0  0
  1 25  1  0  0  0  0
  1  2  1  0  0  0  0
  2  4  2  0  0  0  0
  3  2  1  0  0  0  0
  3 10  1  0  0  0  0
  5  6  1  0  0  0  0
  7 12  1  0  0  0  0
  7  6  2  0  0  0  0
  8  7  1  0  0  0  0
  9  8  2  0  0  0  0
  9 10  1  0  0  0  0
 10  5  2  0  0  0  0
 11  9  1  0  0  0  0
 13 18  2  0  0  0  0
 13 14  1  0  0  0  0
 14 15  2  0  0  0  0
 15 16  1  0  0  0  0
 15 19  1  0  0  0  0
 17 12  1  0  0  0  0
 17 16  2  0  0  0  0
 18 17  1  0  0  0  0
 19 21  1  0  0  0  0
 19 20  2  0  0  0  0
 21 22  1  0  0  0  0
 23 24  1  0  0  0  0
 23 38  1  0  0  0  0
 25 24  2  0  0  0  0
 26 25  1  0  0  0  0
 26 27  1  0  0  0  0
 27 23  2  0  0  0  0
 28 33  1  0  0  0  0
 28 26  1  0  0  0  0
 29 28  2  0  0  0  0
 30 31  2  0  0  0  0
 30 29  1  0  0  0  0
 31 32  1  0  0  0  0
 32 36  1  0  0  0  0
 32 33  2  0  0  0  0
 34 37  1  0  0  0  0
 35 34  2  0  0  0  0
 35 31  1  0  0  0  0
 37 36  2  0  0  0  0
 38 39  1  0  0  0  0
 38 41  1  0  0  0  0
 40 38  1  0  0  0  0
M  END
>  <MODEL>
1

>  <REMARK>
 VINA RESULT:      -8.5      0.000      0.000
  Name = 8u8b
  7 active torsions:
  status: ('A' for Active; 'I' for Inactive)
    1  A    between atoms: C_1  and  N_26
    2  A    between atoms: C_13  and  C_33
    3  A    between atoms: C_15  and  O_32
    4  A    between atoms: C_19  and  O_32
    5  A    between atoms: C_22  and  N_30
    6  A    between atoms: C_23  and  C_37
    7  A    between atoms: C_25  and  N_28
                            x       y       z     vdW  Elec       q    Type
                         _______ _______ _______ _____ _____    ______ ____

>  <TORSDO>
F 7

$$$$
8u8b
 OpenBabel11072415303D

 41 45  0  0  0  0  0  0  0  0999 V2000
  194.2190  175.0950  144.1870 N   0  0  0  0  0  2  0  0  0  0  0  0
  192.7670  175.0750  144.4130 C   0  0  0  0  0  0  0  0  0  0  0  0
  192.2510  175.6830  145.6430 N   0  0  0  0  0  2  0  0  0  0  0  0
  192.0430  174.5760  143.6150 O   0  0  0  0  0  0  0  0  0  0  0  0
  190.1910  174.7790  146.7880 C   0  0  0  0  0  3  0  0  0  0  0  0
  188.8690  174.9570  147.1680 C   0  0  0  0  0  3  0  0  0  0  0  0
  188.1940  176.1210  146.8450 C   0  0  0  0  0  0  0  0  0  0  0  0
  188.8600  177.1210  146.1560 C   0  0  0  0  0  3  0  0  0  0  0  0
  190.1780  176.9370  145.7780 C   0  0  0  0  0  0  0  0  0  0  0  0
  190.8500  175.7750  146.0770 C   0  0  0  0  0  0  0  0  0  0  0  0
  190.8340  177.9100  145.0920 F   0  0  0  0  0  0  0  0  0  0  0  0
  186.8630  176.3260  147.2490 O   0  0  0  0  0  0  0  0  0  0  0  0
  184.2510  178.5290  145.7790 C   0  0  0  0  0  3  0  0  0  0  0  0
  184.4790  178.3310  144.4910 N   0  0  0  0  0  0  0  0  0  0  0  0
  185.4350  177.5210  144.0800 C   0  0  0  0  0  0  0  0  0  0  0  0
  186.2300  176.8490  144.9900 C   0  0  0  0  0  3  0  0  0  0  0  0
  186.0400  177.0320  146.3520 C   0  0  0  0  0  0  0  0  0  0  0  0
  185.0180  177.8860  146.7440 C   0  0  0  0  0  3  0  0  0  0  0  0
  185.6910  177.2960  142.5930 C   0  0  0  0  0  0  0  0  0  0  0  0
  186.3470  176.3730  142.2470 O   0  0  0  0  0  0  0  0  0  0  0  0
  185.1450  178.1940  141.5950 N   0  0  0  0  0  2  0  0  0  0  0  0
  185.4210  177.9330  140.1940 C   0  0  0  0  0  1  0  0  0  0  0  0
  195.7060  174.2750  140.9480 C   0  0  0  0  0  0  0  0  0  0  0  0
  195.1680  175.1960  141.8400 C   0  0  0  0  0  3  0  0  0  0  0  0
  194.8240  174.5140  142.9840 C   0  0  0  0  0  0  0  0  0  0  0  0
  195.1450  173.2480  142.7910 N   0  0  0  0  0  0  0  0  0  0  0  0
  195.6940  173.0760  141.5420 N   0  0  0  0  0  0  0  0  0  0  0  0
  194.9660  172.1570  143.7490 C   0  0  0  0  0  0  0  0  0  0  0  0
  193.7340  171.5030  143.8100 C   0  0  0  0  0  3  0  0  0  0  0  0
  193.5390  170.4670  144.7220 C   0  0  0  0  0  3  0  0  0  0  0  0
  194.5970  170.0760  145.5980 C   0  0  0  0  0  0  0  0  0  0  0  0
  195.7990  170.7150  145.5400 C   0  0  0  0  0  0  0  0  0  0  0  0
  196.0000  171.7820  144.6060 C   0  0  0  0  0  3  0  0  0  0  0  0
  195.3870  168.6560  147.3350 C   0  0  0  0  0  3  0  0  0  0  0  0
  194.3910  169.0380  146.4980 N   0  0  0  0  0  0  0  0  0  0  0  0
  196.8240  170.3220  146.4040 C   0  0  0  0  0  3  0  0  0  0  0  0
  196.6210  169.3040  147.2900 C   0  0  0  0  0  3  0  0  0  0  0  0
  196.2280  174.5790  139.5410 C   0  0  0  0  0  0  0  0  0  0  0  0
  197.3590  175.6020  139.6270 C   0  0  0  0  0  1  0  0  0  0  0  0
  195.0870  175.1340  138.6920 C   0  0  0  0  0  1  0  0  0  0  0  0
  196.7500  173.2920  138.9250 C   0  0  0  0  0  1  0  0  0  0  0  0
  1  2  1  0  0  0  0
  2  3  1  0  0  0  0
  3 10  1  0  0  0  0
  4  2  2  0  0  0  0
  5  6  1  0  0  0  0
  7  6  2  0  0  0  0
  7 12  1  0  0  0  0
  8  7  1  0  0  0  0
  9 10  1  0  0  0  0
  9  8  2  0  0  0  0
 10  5  2  0  0  0  0
 11  9  1  0  0  0  0
 13 18  1  0  0  0  0
 14 13  2  0  0  0  0
 15 14  1  0  0  0  0
 15 16  2  0  0  0  0
 16 17  1  0  0  0  0
 17 18  2  0  0  0  0
 17 12  1  0  0  0  0
 19 15  1  0  0  0  0
 20 19  2  0  0  0  0
 21 19  1  0  0  0  0
 22 21  1  0  0  0  0
 23 27  2  0  0  0  0
 23 24  1  0  0  0  0
 24 25  2  0  0  0  0
 25  1  1  0  0  0  0
 26 25  1  0  0  0  0
 26 28  1  0  0  0  0
 27 26  1  0  0  0  0
 28 29  2  0  0  0  0
 28 33  1  0  0  0  0
 29 30  1  0  0  0  0
 30 31  2  0  0  0  0
 31 35  1  0  0  0  0
 32 31  1  0  0  0  0
 32 36  1  0  0  0  0
 33 32  2  0  0  0  0
 35 34  2  0  0  0  0
 36 37  2  0  0  0  0
 37 34  1  0  0  0  0
 38 39  1  0  0  0  0
 38 23  1  0  0  0  0
 40 38  1  0  0  0  0
 41 38  1  0  0  0  0
M  END
>  <MODEL>
2

>  <REMARK>
 VINA RESULT:      -8.5      3.342     10.229
  Name = 8u8b
  7 active torsions:
  status: ('A' for Active; 'I' for Inactive)
    1  A    between atoms: C_1  and  N_26
    2  A    between atoms: C_13  and  C_33
    3  A    between atoms: C_15  and  O_32
    4  A    between atoms: C_19  and  O_32
    5  A    between atoms: C_22  and  N_30
    6  A    between atoms: C_23  and  C_37
    7  A    between atoms: C_25  and  N_28
                            x       y       z     vdW  Elec       q    Type
                         _______ _______ _______ _____ _____    ______ ____

>  <TORSDO>
F 7

$$$$
8u8b
 OpenBabel11072415303D

 41 45  0  0  0  0  0  0  0  0999 V2000
  187.6490  174.9130  142.8840 N   0  0  0  0  0  2  0  0  0  0  0  0
  188.4830  175.0290  141.6790 C   0  0  0  0  0  0  0  0  0  0  0  0
  188.9250  173.7940  141.0230 N   0  0  0  0  0  2  0  0  0  0  0  0
  188.7830  176.0980  141.2590 O   0  0  0  0  0  0  0  0  0  0  0  0
  191.1220  173.3980  139.8460 C   0  0  0  0  0  3  0  0  0  0  0  0
  191.8300  173.2840  138.6590 C   0  0  0  0  0  3  0  0  0  0  0  0
  191.1910  173.4380  137.4410 C   0  0  0  0  0  0  0  0  0  0  0  0
  189.8280  173.6850  137.4180 C   0  0  0  0  0  3  0  0  0  0  0  0
  189.1280  173.8000  138.6050 C   0  0  0  0  0  0  0  0  0  0  0  0
  189.7590  173.6680  139.8210 C   0  0  0  0  0  0  0  0  0  0  0  0
  187.7930  174.0540  138.5900 F   0  0  0  0  0  0  0  0  0  0  0  0
  191.8900  173.2950  136.2300 O   0  0  0  0  0  0  0  0  0  0  0  0
  195.3900  174.5480  136.0820 C   0  0  0  0  0  3  0  0  0  0  0  0
  195.1710  175.8090  135.7480 N   0  0  0  0  0  0  0  0  0  0  0  0
  193.9490  176.2690  135.5700 C   0  0  0  0  0  0  0  0  0  0  0  0
  192.8520  175.4410  135.7300 C   0  0  0  0  0  3  0  0  0  0  0  0
  193.0290  174.1070  136.0670 C   0  0  0  0  0  0  0  0  0  0  0  0
  194.3300  173.6640  136.2540 C   0  0  0  0  0  3  0  0  0  0  0  0
  193.7030  177.7260  135.1870 C   0  0  0  0  0  0  0  0  0  0  0  0
  192.5940  178.1350  135.1320 O   0  0  0  0  0  0  0  0  0  0  0  0
  194.8060  178.6170  134.8890 N   0  0  0  0  0  2  0  0  0  0  0  0
  194.5150  179.9920  134.5290 C   0  0  0  0  0  1  0  0  0  0  0  0
  185.8910  177.8050  144.2720 C   0  0  0  0  0  0  0  0  0  0  0  0
  185.9650  176.7400  143.3800 C   0  0  0  0  0  3  0  0  0  0  0  0
  187.1590  176.0940  143.6030 C   0  0  0  0  0  0  0  0  0  0  0  0
  187.7680  176.7340  144.5830 N   0  0  0  0  0  0  0  0  0  0  0  0
  187.0040  177.7930  145.0150 N   0  0  0  0  0  0  0  0  0  0  0  0
  189.0680  176.3910  145.1610 C   0  0  0  0  0  0  0  0  0  0  0  0
  189.1140  175.5640  146.2860 C   0  0  0  0  0  3  0  0  0  0  0  0
  190.3410  175.2320  146.8580 C   0  0  0  0  0  3  0  0  0  0  0  0
  191.5520  175.7410  146.2980 C   0  0  0  0  0  0  0  0  0  0  0  0
  191.5080  176.5500  145.2020 C   0  0  0  0  0  0  0  0  0  0  0  0
  190.2480  176.8950  144.6160 C   0  0  0  0  0  3  0  0  0  0  0  0
  193.9270  175.8740  146.3530 C   0  0  0  0  0  3  0  0  0  0  0  0
  192.7690  175.3990  146.8750 N   0  0  0  0  0  0  0  0  0  0  0  0
  192.7020  177.0410  144.6660 C   0  0  0  0  0  3  0  0  0  0  0  0
  193.8960  176.7060  145.2340 C   0  0  0  0  0  3  0  0  0  0  0  0
  184.7390  178.8060  144.3900 C   0  0  0  0  0  0  0  0  0  0  0  0
  184.0700  178.6550  145.7550 C   0  0  0  0  0  1  0  0  0  0  0  0
  183.7250  178.5350  143.2810 C   0  0  0  0  0  1  0  0  0  0  0  0
  185.2960  180.2110  144.2470 C   0  0  0  0  0  1  0  0  0  0  0  0
  1 25  1  0  0  0  0
  2  1  1  0  0  0  0
  3  2  1  0  0  0  0
  4  2  2  0  0  0  0
  6  5  2  0  0  0  0
  7  6  1  0  0  0  0
  8  7  2  0  0  0  0
  8  9  1  0  0  0  0
  9 10  2  0  0  0  0
 10  5  1  0  0  0  0
 10  3  1  0  0  0  0
 11  9  1  0  0  0  0
 12  7  1  0  0  0  0
 13 18  1  0  0  0  0
 14 13  2  0  0  0  0
 15 16  2  0  0  0  0
 15 14  1  0  0  0  0
 16 17  1  0  0  0  0
 17 12  1  0  0  0  0
 17 18  2  0  0  0  0
 19 15  1  0  0  0  0
 20 19  2  0  0  0  0
 21 19  1  0  0  0  0
 22 21  1  0  0  0  0
 23 38  1  0  0  0  0
 23 27  2  0  0  0  0
 24 25  2  0  0  0  0
 24 23  1  0  0  0  0
 25 26  1  0  0  0  0
 26 27  1  0  0  0  0
 26 28  1  0  0  0  0
 28 29  1  0  0  0  0
 29 30  2  0  0  0  0
 31 30  1  0  0  0  0
 31 35  1  0  0  0  0
 32 31  2  0  0  0  0
 33 28  2  0  0  0  0
 33 32  1  0  0  0  0
 34 35  2  0  0  0  0
 36 32  1  0  0  0  0
 36 37  2  0  0  0  0
 37 34  1  0  0  0  0
 38 39  1  0  0  0  0
 40 38  1  0  0  0  0
 41 38  1  0  0  0  0
M  END
>  <MODEL>
3

>  <REMARK>
 VINA RESULT:      -8.1      4.652      8.214
  Name = 8u8b
  7 active torsions:
  status: ('A' for Active; 'I' for Inactive)
    1  A    between atoms: C_1  and  N_26
    2  A    between atoms: C_13  and  C_33
    3  A    between atoms: C_15  and  O_32
    4  A    between atoms: C_19  and  O_32
    5  A    between atoms: C_22  and  N_30
    6  A    between atoms: C_23  and  C_37
    7  A    between atoms: C_25  and  N_28
                            x       y       z     vdW  Elec       q    Type
                         _______ _______ _______ _____ _____    ______ ____

>  <TORSDO>
F 7

$$$$
8u8b
 OpenBabel11072415303D

 41 45  0  0  0  0  0  0  0  0999 V2000
  193.9550  175.4330  143.3750 N   0  0  0  0  0  2  0  0  0  0  0  0
  192.5210  175.4560  143.6980 C   0  0  0  0  0  0  0  0  0  0  0  0
  192.0970  176.1690  144.9070 N   0  0  0  0  0  2  0  0  0  0  0  0
  191.7390  174.9080  142.9920 O   0  0  0  0  0  0  0  0  0  0  0  0
  189.9910  177.4930  145.3330 C   0  0  0  0  0  3  0  0  0  0  0  0
  188.7010  177.5420  145.8390 C   0  0  0  0  0  3  0  0  0  0  0  0
  188.1380  176.4300  146.4390 C   0  0  0  0  0  0  0  0  0  0  0  0
  188.8680  175.2550  146.5080 C   0  0  0  0  0  3  0  0  0  0  0  0
  190.1550  175.2130  146.0040 C   0  0  0  0  0  0  0  0  0  0  0  0
  190.7300  176.3200  145.4240 C   0  0  0  0  0  0  0  0  0  0  0  0
  190.8820  174.0660  146.0790 F   0  0  0  0  0  0  0  0  0  0  0  0
  186.8200  176.4570  146.9300 O   0  0  0  0  0  0  0  0  0  0  0  0
  184.0710  178.7770  145.9820 C   0  0  0  0  0  3  0  0  0  0  0  0
  184.1330  178.6820  144.6630 N   0  0  0  0  0  0  0  0  0  0  0  0
  185.0190  177.9060  144.0720 C   0  0  0  0  0  0  0  0  0  0  0  0
  185.9150  177.1610  144.8180 C   0  0  0  0  0  3  0  0  0  0  0  0
  185.8990  177.2350  146.2030 C   0  0  0  0  0  0  0  0  0  0  0  0
  184.9460  178.0560  146.7870 C   0  0  0  0  0  3  0  0  0  0  0  0
  185.0830  177.8010  142.5510 C   0  0  0  0  0  0  0  0  0  0  0  0
  184.0860  177.8910  141.9170 O   0  0  0  0  0  0  0  0  0  0  0  0
  186.3430  177.5920  141.8670 N   0  0  0  0  0  2  0  0  0  0  0  0
  186.3460  177.4980  140.4190 C   0  0  0  0  0  1  0  0  0  0  0  0
  195.1760  174.3240  140.1100 C   0  0  0  0  0  0  0  0  0  0  0  0
  194.6880  175.3180  140.9520 C   0  0  0  0  0  3  0  0  0  0  0  0
  194.4700  174.7470  142.1850 C   0  0  0  0  0  0  0  0  0  0  0  0
  194.8150  173.4760  142.0890 N   0  0  0  0  0  0  0  0  0  0  0  0
  195.2560  173.1920  140.8180 N   0  0  0  0  0  0  0  0  0  0  0  0
  194.7570  172.4840  143.1630 C   0  0  0  0  0  0  0  0  0  0  0  0
  193.5320  171.8880  143.4710 C   0  0  0  0  0  3  0  0  0  0  0  0
  193.4540  170.9470  144.4970 C   0  0  0  0  0  3  0  0  0  0  0  0
  194.6240  170.5940  145.2360 C   0  0  0  0  0  0  0  0  0  0  0  0
  195.8190  171.1770  144.9360 C   0  0  0  0  0  0  0  0  0  0  0  0
  195.9010  172.1460  143.8860 C   0  0  0  0  0  3  0  0  0  0  0  0
  195.6360  169.3060  146.9610 C   0  0  0  0  0  3  0  0  0  0  0  0
  194.5320  169.6510  146.2520 N   0  0  0  0  0  0  0  0  0  0  0  0
  196.9550  170.8210  145.6680 C   0  0  0  0  0  3  0  0  0  0  0  0
  196.8640  169.8970  146.6680 C   0  0  0  0  0  3  0  0  0  0  0  0
  195.5610  174.4960  138.6380 C   0  0  0  0  0  0  0  0  0  0  0  0
  194.4590  175.2630  137.9090 C   0  0  0  0  0  1  0  0  0  0  0  0
  195.7440  173.1190  138.0040 C   0  0  0  0  0  1  0  0  0  0  0  0
  196.8620  175.2760  138.5620 C   0  0  0  0  0  1  0  0  0  0  0  0
  1  2  1  0  0  0  0
  2  3  1  0  0  0  0
  3 10  1  0  0  0  0
  4  2  2  0  0  0  0
  5 10  2  0  0  0  0
  5  6  1  0  0  0  0
  6  7  2  0  0  0  0
  7  8  1  0  0  0  0
  7 12  1  0  0  0  0
  9 11  1  0  0  0  0
  9  8  2  0  0  0  0
 10  9  1  0  0  0  0
 13 18  1  0  0  0  0
 14 13  2  0  0  0  0
 15 14  1  0  0  0  0
 15 16  2  0  0  0  0
 16 17  1  0  0  0  0
 17 18  2  0  0  0  0
 17 12  1  0  0  0  0
 19 15  1  0  0  0  0
 20 19  2  0  0  0  0
 21 19  1  0  0  0  0
 22 21  1  0  0  0  0
 23 27  2  0  0  0  0
 23 24  1  0  0  0  0
 24 25  2  0  0  0  0
 25  1  1  0  0  0  0
 26 25  1  0  0  0  0
 26 28  1  0  0  0  0
 27 26  1  0  0  0  0
 28 29  2  0  0  0  0
 28 33  1  0  0  0  0
 29 30  1  0  0  0  0
 30 31  2  0  0  0  0
 31 35  1  0  0  0  0
 32 31  1  0  0  0  0
 32 36  1  0  0  0  0
 33 32  2  0  0  0  0
 35 34  2  0  0  0  0
 36 37  2  0  0  0  0
 37 34  1  0  0  0  0
 38 23  1  0  0  0  0
 39 38  1  0  0  0  0
 40 38  1  0  0  0  0
 41 38  1  0  0  0  0
M  END
>  <MODEL>
4

>  <REMARK>
 VINA RESULT:      -8.1      3.297     10.265
  Name = 8u8b
  7 active torsions:
  status: ('A' for Active; 'I' for Inactive)
    1  A    between atoms: C_1  and  N_26
    2  A    between atoms: C_13  and  C_33
    3  A    between atoms: C_15  and  O_32
    4  A    between atoms: C_19  and  O_32
    5  A    between atoms: C_22  and  N_30
    6  A    between atoms: C_23  and  C_37
    7  A    between atoms: C_25  and  N_28
                            x       y       z     vdW  Elec       q    Type
                         _______ _______ _______ _____ _____    ______ ____

>  <TORSDO>
F 7

$$$$
8u8b
 OpenBabel11072415303D

 41 45  0  0  0  0  0  0  0  0999 V2000
  187.4190  174.9380  142.7640 N   0  0  0  0  0  2  0  0  0  0  0  0
  188.1720  175.0910  141.5110 C   0  0  0  0  0  0  0  0  0  0  0  0
  188.5670  173.8770  140.7900 N   0  0  0  0  0  2  0  0  0  0  0  0
  188.4470  176.1720  141.1050 O   0  0  0  0  0  0  0  0  0  0  0  0
  188.7560  173.9750  138.2750 C   0  0  0  0  0  3  0  0  0  0  0  0
  189.5460  173.8830  137.1390 C   0  0  0  0  0  3  0  0  0  0  0  0
  190.8970  173.6050  137.2430 C   0  0  0  0  0  0  0  0  0  0  0  0
  191.4610  173.4410  138.4970 C   0  0  0  0  0  3  0  0  0  0  0  0
  190.6670  173.5300  139.6260 C   0  0  0  0  0  0  0  0  0  0  0  0
  189.3200  173.7870  139.5320 C   0  0  0  0  0  0  0  0  0  0  0  0
  191.2130  173.3590  140.8600 F   0  0  0  0  0  0  0  0  0  0  0  0
  191.7160  173.5380  136.1010 O   0  0  0  0  0  0  0  0  0  0  0  0
  192.6850  176.9160  134.8810 C   0  0  0  0  0  3  0  0  0  0  0  0
  193.9740  176.9110  135.1840 N   0  0  0  0  0  0  0  0  0  0  0  0
  194.5380  175.8700  135.7630 C   0  0  0  0  0  0  0  0  0  0  0  0
  193.7950  174.7430  136.0690 C   0  0  0  0  0  3  0  0  0  0  0  0
  192.4380  174.7040  135.7820 C   0  0  0  0  0  0  0  0  0  0  0  0
  191.8840  175.8160  135.1660 C   0  0  0  0  0  3  0  0  0  0  0  0
  196.0240  175.8700  136.1080 C   0  0  0  0  0  0  0  0  0  0  0  0
  196.8030  176.3090  135.3320 O   0  0  0  0  0  0  0  0  0  0  0  0
  196.4990  175.3420  137.3710 N   0  0  0  0  0  2  0  0  0  0  0  0
  197.9240  175.3660  137.6470 C   0  0  0  0  0  1  0  0  0  0  0  0
  185.7860  177.8200  144.3170 C   0  0  0  0  0  0  0  0  0  0  0  0
  185.8140  176.8030  143.3670 C   0  0  0  0  0  3  0  0  0  0  0  0
  186.9800  176.0970  143.5500 C   0  0  0  0  0  0  0  0  0  0  0  0
  187.6180  176.6560  144.5610 N   0  0  0  0  0  0  0  0  0  0  0  0
  186.8990  177.7200  145.0540 N   0  0  0  0  0  0  0  0  0  0  0  0
  188.9030  176.2280  145.1140 C   0  0  0  0  0  0  0  0  0  0  0  0
  188.9160  175.3230  146.1780 C   0  0  0  0  0  3  0  0  0  0  0  0
  190.1290  174.9090  146.7260 C   0  0  0  0  0  3  0  0  0  0  0  0
  191.3590  175.4120  146.2020 C   0  0  0  0  0  0  0  0  0  0  0  0
  191.3460  176.2960  145.1650 C   0  0  0  0  0  0  0  0  0  0  0  0
  190.1010  176.7250  144.6040 C   0  0  0  0  0  3  0  0  0  0  0  0
  193.7370  175.4560  146.2660 C   0  0  0  0  0  3  0  0  0  0  0  0
  192.5620  174.9870  146.7540 N   0  0  0  0  0  0  0  0  0  0  0  0
  192.5580  176.7790  144.6640 C   0  0  0  0  0  3  0  0  0  0  0  0
  193.7390  176.3630  145.2080 C   0  0  0  0  0  3  0  0  0  0  0  0
  184.6770  178.8600  144.4950 C   0  0  0  0  0  0  0  0  0  0  0  0
  184.0210  178.6770  145.8620 C   0  0  0  0  0  1  0  0  0  0  0  0
  183.6390  178.6780  143.3910 C   0  0  0  0  0  1  0  0  0  0  0  0
  185.2890  180.2470  144.4050 C   0  0  0  0  0  1  0  0  0  0  0  0
  1 25  1  0  0  0  0
  2  1  1  0  0  0  0
  3  2  1  0  0  0  0
  4  2  2  0  0  0  0
  5 10  1  0  0  0  0
  6  7  1  0  0  0  0
  6  5  2  0  0  0  0
  7  8  2  0  0  0  0
  8  9  1  0  0  0  0
  9 11  1  0  0  0  0
 10  9  2  0  0  0  0
 10  3  1  0  0  0  0
 12  7  1  0  0  0  0
 13 18  2  0  0  0  0
 13 14  1  0  0  0  0
 14 15  2  0  0  0  0
 15 16  1  0  0  0  0
 15 19  1  0  0  0  0
 17 16  2  0  0  0  0
 17 12  1  0  0  0  0
 18 17  1  0  0  0  0
 19 21  1  0  0  0  0
 20 19  2  0  0  0  0
 21 22  1  0  0  0  0
 23 38  1  0  0  0  0
 23 27  2  0  0  0  0
 24 25  2  0  0  0  0
 24 23  1  0  0  0  0
 25 26  1  0  0  0  0
 26 27  1  0  0  0  0
 26 28  1  0  0  0  0
 28 29  1  0  0  0  0
 29 30  2  0  0  0  0
 31 30  1  0  0  0  0
 31 35  1  0  0  0  0
 32 31  2  0  0  0  0
 33 28  2  0  0  0  0
 33 32  1  0  0  0  0
 34 35  2  0  0  0  0
 36 32  1  0  0  0  0
 36 37  2  0  0  0  0
 37 34  1  0  0  0  0
 38 39  1  0  0  0  0
 40 38  1  0  0  0  0
 41 38  1  0  0  0  0
M  END
>  <MODEL>
5

>  <REMARK>
 VINA RESULT:      -8.0      4.343      7.835
  Name = 8u8b
  7 active torsions:
  status: ('A' for Active; 'I' for Inactive)
    1  A    between atoms: C_1  and  N_26
    2  A    between atoms: C_13  and  C_33
    3  A    between atoms: C_15  and  O_32
    4  A    between atoms: C_19  and  O_32
    5  A    between atoms: C_22  and  N_30
    6  A    between atoms: C_23  and  C_37
    7  A    between atoms: C_25  and  N_28
                            x       y       z     vdW  Elec       q    Type
                         _______ _______ _______ _____ _____    ______ ____

>  <TORSDO>
F 7

$$$$
8u8b
 OpenBabel11072415303D

 41 45  0  0  0  0  0  0  0  0999 V2000
  188.1400  176.7020  141.7180 N   0  0  0  0  0  2  0  0  0  0  0  0
  186.6910  176.7710  141.9540 C   0  0  0  0  0  0  0  0  0  0  0  0
  185.9610  177.9290  141.4290 N   0  0  0  0  0  2  0  0  0  0  0  0
  186.1400  175.9080  142.5530 O   0  0  0  0  0  0  0  0  0  0  0  0
  183.6080  178.0120  140.5160 C   0  0  0  0  0  3  0  0  0  0  0  0
  182.2650  178.2920  140.7190 C   0  0  0  0  0  3  0  0  0  0  0  0
  181.8220  178.7670  141.9400 C   0  0  0  0  0  0  0  0  0  0  0  0
  182.7310  178.9390  142.9710 C   0  0  0  0  0  3  0  0  0  0  0  0
  184.0700  178.6620  142.7620 C   0  0  0  0  0  0  0  0  0  0  0  0
  184.5230  178.2080  141.5450 C   0  0  0  0  0  0  0  0  0  0  0  0
  184.9700  178.8390  143.7660 F   0  0  0  0  0  0  0  0  0  0  0  0
  180.4590  179.0260  142.1680 O   0  0  0  0  0  0  0  0  0  0  0  0
  178.0880  178.6970  139.3200 C   0  0  0  0  0  3  0  0  0  0  0  0
  178.2130  179.8970  138.7750 N   0  0  0  0  0  0  0  0  0  0  0  0
  179.0250  180.8010  139.2860 C   0  0  0  0  0  0  0  0  0  0  0  0
  179.7770  180.5190  140.4120 C   0  0  0  0  0  3  0  0  0  0  0  0
  179.6730  179.2800  141.0290 C   0  0  0  0  0  0  0  0  0  0  0  0
  178.8130  178.3540  140.4560 C   0  0  0  0  0  3  0  0  0  0  0  0
  179.1650  182.1810  138.6500 C   0  0  0  0  0  0  0  0  0  0  0  0
  179.5670  182.2740  137.5400 O   0  0  0  0  0  0  0  0  0  0  0  0
  178.8170  183.3810  139.3840 N   0  0  0  0  0  2  0  0  0  0  0  0
  178.9710  184.6680  138.7310 C   0  0  0  0  0  1  0  0  0  0  0  0
  190.1820  173.7200  142.2810 C   0  0  0  0  0  0  0  0  0  0  0  0
  189.4900  174.5770  141.4320 C   0  0  0  0  0  3  0  0  0  0  0  0
  188.9520  175.5810  142.2040 C   0  0  0  0  0  0  0  0  0  0  0  0
  189.3080  175.3420  143.4520 N   0  0  0  0  0  0  0  0  0  0  0  0
  190.0700  174.2000  143.5250 N   0  0  0  0  0  0  0  0  0  0  0  0
  188.9670  176.1580  144.6170 C   0  0  0  0  0  0  0  0  0  0  0  0
  189.9930  176.7680  145.3430 C   0  0  0  0  0  3  0  0  0  0  0  0
  189.6900  177.5420  146.4620 C   0  0  0  0  0  3  0  0  0  0  0  0
  188.3320  177.7090  146.8710 C   0  0  0  0  0  0  0  0  0  0  0  0
  187.3310  177.1120  146.1640 C   0  0  0  0  0  0  0  0  0  0  0  0
  187.6400  176.3140  145.0170 C   0  0  0  0  0  3  0  0  0  0  0  0
  186.7590  178.6540  148.3850 C   0  0  0  0  0  3  0  0  0  0  0  0
  188.0450  178.4870  147.9850 N   0  0  0  0  0  0  0  0  0  0  0  0
  186.0070  177.2840  146.5780 C   0  0  0  0  0  3  0  0  0  0  0  0
  185.7250  178.0470  147.6740 C   0  0  0  0  0  3  0  0  0  0  0  0
  190.9440  172.4590  141.8660 C   0  0  0  0  0  0  0  0  0  0  0  0
  192.4160  172.8010  141.6450 C   0  0  0  0  0  1  0  0  0  0  0  0
  190.3380  171.9090  140.5770 C   0  0  0  0  0  1  0  0  0  0  0  0
  190.8210  171.4270  142.9740 C   0  0  0  0  0  1  0  0  0  0  0  0
  1  2  1  0  0  0  0
  1 25  1  0  0  0  0
  2  4  2  0  0  0  0
  3 10  1  0  0  0  0
  3  2  1  0  0  0  0
  5  6  2  0  0  0  0
  5 10  1  0  0  0  0
  6  7  1  0  0  0  0
  7 12  1  0  0  0  0
  7  8  2  0  0  0  0
  9  8  1  0  0  0  0
  9 11  1  0  0  0  0
 10  9  2  0  0  0  0
 13 18  1  0  0  0  0
 14 15  1  0  0  0  0
 14 13  2  0  0  0  0
 15 16  2  0  0  0  0
 16 17  1  0  0  0  0
 17 12  1  0  0  0  0
 18 17  2  0  0  0  0
 19 15  1  0  0  0  0
 19 21  1  0  0  0  0
 20 19  2  0  0  0  0
 22 21  1  0  0  0  0
 23 27  2  0  0  0  0
 24 25  2  0  0  0  0
 24 23  1  0  0  0  0
 25 26  1  0  0  0  0
 26 27  1  0  0  0  0
 26 28  1  0  0  0  0
 28 33  2  0  0  0  0
 28 29  1  0  0  0  0
 29 30  2  0  0  0  0
 30 31  1  0  0  0  0
 31 35  1  0  0  0  0
 32 36  1  0  0  0  0
 32 31  2  0  0  0  0
 33 32  1  0  0  0  0
 35 34  2  0  0  0  0
 36 37  2  0  0  0  0
 37 34  1  0  0  0  0
 38 23  1  0  0  0  0
 38 41  1  0  0  0  0
 39 38  1  0  0  0  0
 40 38  1  0  0  0  0
M  END
>  <MODEL>
6

>  <REMARK>
 VINA RESULT:      -7.9      5.914     13.399
  Name = 8u8b
  7 active torsions:
  status: ('A' for Active; 'I' for Inactive)
    1  A    between atoms: C_1  and  N_26
    2  A    between atoms: C_13  and  C_33
    3  A    between atoms: C_15  and  O_32
    4  A    between atoms: C_19  and  O_32
    5  A    between atoms: C_22  and  N_30
    6  A    between atoms: C_23  and  C_37
    7  A    between atoms: C_25  and  N_28
                            x       y       z     vdW  Elec       q    Type
                         _______ _______ _______ _____ _____    ______ ____

>  <TORSDO>
F 7

$$$$
8u8b
 OpenBabel11072415303D

 41 45  0  0  0  0  0  0  0  0999 V2000
  189.1960  177.3580  142.8720 N   0  0  0  0  0  2  0  0  0  0  0  0
  187.7500  177.3800  143.1390 C   0  0  0  0  0  0  0  0  0  0  0  0
  186.9140  178.2810  142.3400 N   0  0  0  0  0  2  0  0  0  0  0  0
  187.2860  176.6830  143.9800 O   0  0  0  0  0  0  0  0  0  0  0  0
  184.5620  178.0830  141.4450 C   0  0  0  0  0  3  0  0  0  0  0  0
  183.2030  178.2910  141.6230 C   0  0  0  0  0  3  0  0  0  0  0  0
  182.7270  178.8840  142.7780 C   0  0  0  0  0  0  0  0  0  0  0  0
  183.6210  179.2490  143.7710 C   0  0  0  0  0  3  0  0  0  0  0  0
  184.9760  179.0420  143.5860 C   0  0  0  0  0  0  0  0  0  0  0  0
  185.4600  178.4710  142.4330 C   0  0  0  0  0  0  0  0  0  0  0  0
  185.8610  179.4070  144.5520 F   0  0  0  0  0  0  0  0  0  0  0  0
  181.3480  179.0740  142.9840 O   0  0  0  0  0  0  0  0  0  0  0  0
  179.2600  177.9850  140.1030 C   0  0  0  0  0  3  0  0  0  0  0  0
  178.9860  179.1600  139.5600 N   0  0  0  0  0  0  0  0  0  0  0  0
  179.4440  180.2810  140.0810 C   0  0  0  0  0  0  0  0  0  0  0  0
  180.2320  180.2610  141.2170 C   0  0  0  0  0  3  0  0  0  0  0  0
  180.5380  179.0560  141.8330 C   0  0  0  0  0  0  0  0  0  0  0  0
  180.0440  177.8980  141.2490 C   0  0  0  0  0  3  0  0  0  0  0  0
  179.1250  181.6320  139.4460 C   0  0  0  0  0  0  0  0  0  0  0  0
  178.8170  182.5420  140.1380 O   0  0  0  0  0  0  0  0  0  0  0  0
  179.1910  181.8190  138.0110 N   0  0  0  0  0  2  0  0  0  0  0  0
  178.8770  183.1250  137.4620 C   0  0  0  0  0  1  0  0  0  0  0  0
  191.5330  175.7100  145.1530 C   0  0  0  0  0  0  0  0  0  0  0  0
  190.7760  176.8150  144.7770 C   0  0  0  0  0  3  0  0  0  0  0  0
  190.1080  176.4860  143.6200 C   0  0  0  0  0  0  0  0  0  0  0  0
  190.4430  175.2450  143.3190 N   0  0  0  0  0  0  0  0  0  0  0  0
  191.3200  174.7440  144.2530 N   0  0  0  0  0  0  0  0  0  0  0  0
  189.9640  174.4770  142.1700 C   0  0  0  0  0  0  0  0  0  0  0  0
  188.6660  173.9610  142.1920 C   0  0  0  0  0  3  0  0  0  0  0  0
  188.1930  173.2180  141.1120 C   0  0  0  0  0  3  0  0  0  0  0  0
  189.0350  172.9800  139.9830 C   0  0  0  0  0  0  0  0  0  0  0  0
  190.3020  173.4820  139.9620 C   0  0  0  0  0  0  0  0  0  0  0  0
  190.7910  174.2410  141.0720 C   0  0  0  0  0  3  0  0  0  0  0  0
  189.3370  172.0090  137.8330 C   0  0  0  0  0  3  0  0  0  0  0  0
  188.5480  172.2430  138.9110 N   0  0  0  0  0  0  0  0  0  0  0  0
  191.1140  173.2390  138.8510 C   0  0  0  0  0  3  0  0  0  0  0  0
  190.6370  172.5130  137.7990 C   0  0  0  0  0  3  0  0  0  0  0  0
  192.4410  175.6130  146.3820 C   0  0  0  0  0  0  0  0  0  0  0  0
  193.2230  174.3020  146.3360 C   0  0  0  0  0  1  0  0  0  0  0  0
  191.5820  175.6630  147.6440 C   0  0  0  0  0  1  0  0  0  0  0  0
  193.4070  176.7850  146.3690 C   0  0  0  0  0  1  0  0  0  0  0  0
  1  2  1  0  0  0  0
  1 25  1  0  0  0  0
  2  4  2  0  0  0  0
  3 10  1  0  0  0  0
  3  2  1  0  0  0  0
  5  6  2  0  0  0  0
  5 10  1  0  0  0  0
  6  7  1  0  0  0  0
  7 12  1  0  0  0  0
  7  8  2  0  0  0  0
  9  8  1  0  0  0  0
  9 11  1  0  0  0  0
 10  9  2  0  0  0  0
 13 18  1  0  0  0  0
 14 15  1  0  0  0  0
 14 13  2  0  0  0  0
 15 16  2  0  0  0  0
 16 17  1  0  0  0  0
 17 12  1  0  0  0  0
 18 17  2  0  0  0  0
 19 15  1  0  0  0  0
 19 20  2  0  0  0  0
 21 19  1  0  0  0  0
 22 21  1  0  0  0  0
 23 38  1  0  0  0  0
 24 23  1  0  0  0  0
 25 24  2  0  0  0  0
 26 25  1  0  0  0  0
 26 27  1  0  0  0  0
 27 23  2  0  0  0  0
 28 29  1  0  0  0  0
 28 26  1  0  0  0  0
 30 29  2  0  0  0  0
 31 30  1  0  0  0  0
 32 31  1  0  0  0  0
 32 33  1  0  0  0  0
 33 28  2  0  0  0  0
 34 35  1  0  0  0  0
 35 31  2  0  0  0  0
 36 32  2  0  0  0  0
 37 34  2  0  0  0  0
 37 36  1  0  0  0  0
 38 40  1  0  0  0  0
 39 38  1  0  0  0  0
 41 38  1  0  0  0  0
M  END
>  <MODEL>
7

>  <REMARK>
 VINA RESULT:      -7.8      5.389     12.187
  Name = 8u8b
  7 active torsions:
  status: ('A' for Active; 'I' for Inactive)
    1  A    between atoms: C_1  and  N_26
    2  A    between atoms: C_13  and  C_33
    3  A    between atoms: C_15  and  O_32
    4  A    between atoms: C_19  and  O_32
    5  A    between atoms: C_22  and  N_30
    6  A    between atoms: C_23  and  C_37
    7  A    between atoms: C_25  and  N_28
                            x       y       z     vdW  Elec       q    Type
                         _______ _______ _______ _____ _____    ______ ____

>  <TORSDO>
F 7

$$$$
8u8b
 OpenBabel11072415303D

 41 45  0  0  0  0  0  0  0  0999 V2000
  187.6160  174.9380  142.8250 N   0  0  0  0  0  2  0  0  0  0  0  0
  188.1400  175.0360  141.4550 C   0  0  0  0  0  0  0  0  0  0  0  0
  188.5950  173.8060  140.8000 N   0  0  0  0  0  2  0  0  0  0  0  0
  188.1890  176.0880  140.9070 O   0  0  0  0  0  0  0  0  0  0  0  0
  188.4010  173.7590  138.2840 C   0  0  0  0  0  3  0  0  0  0  0  0
  189.0150  173.6250  137.0470 C   0  0  0  0  0  3  0  0  0  0  0  0
  190.3770  173.3980  136.9600 C   0  0  0  0  0  0  0  0  0  0  0  0
  191.1290  173.3280  138.1210 C   0  0  0  0  0  3  0  0  0  0  0  0
  190.5100  173.4590  139.3510 C   0  0  0  0  0  0  0  0  0  0  0  0
  189.1540  173.6660  139.4490 C   0  0  0  0  0  0  0  0  0  0  0  0
  191.2410  173.3810  140.4950 F   0  0  0  0  0  0  0  0  0  0  0  0
  191.0170  173.2900  135.7120 O   0  0  0  0  0  0  0  0  0  0  0  0
  191.5620  169.6830  134.9790 C   0  0  0  0  0  3  0  0  0  0  0  0
  192.8810  169.6660  134.8740 N   0  0  0  0  0  0  0  0  0  0  0  0
  193.5970  170.7620  135.0280 C   0  0  0  0  0  0  0  0  0  0  0  0
  192.9850  171.9700  135.3100 C   0  0  0  0  0  3  0  0  0  0  0  0
  191.6040  172.0450  135.4170 C   0  0  0  0  0  0  0  0  0  0  0  0
  190.8880  170.8680  135.2560 C   0  0  0  0  0  3  0  0  0  0  0  0
  195.1180  170.7330  134.9070 C   0  0  0  0  0  0  0  0  0  0  0  0
  195.6760  169.6930  134.8150 O   0  0  0  0  0  0  0  0  0  0  0  0
  195.8920  171.9580  134.9050 N   0  0  0  0  0  2  0  0  0  0  0  0
  197.3350  171.8720  134.7880 C   0  0  0  0  0  1  0  0  0  0  0  0
  185.8880  177.8350  144.2380 C   0  0  0  0  0  0  0  0  0  0  0  0
  185.9560  176.7840  143.3300 C   0  0  0  0  0  3  0  0  0  0  0  0
  187.1360  176.1140  143.5570 C   0  0  0  0  0  0  0  0  0  0  0  0
  187.7430  176.7290  144.5550 N   0  0  0  0  0  0  0  0  0  0  0  0
  186.9910  177.7930  144.9940 N   0  0  0  0  0  0  0  0  0  0  0  0
  189.0290  176.3560  145.1440 C   0  0  0  0  0  0  0  0  0  0  0  0
  189.0480  175.5010  146.2480 C   0  0  0  0  0  3  0  0  0  0  0  0
  190.2620  175.1400  146.8300 C   0  0  0  0  0  3  0  0  0  0  0  0
  191.4880  175.6460  146.3000 C   0  0  0  0  0  0  0  0  0  0  0  0
  191.4700  176.4820  145.2240 C   0  0  0  0  0  0  0  0  0  0  0  0
  190.2240  176.8570  144.6280 C   0  0  0  0  0  3  0  0  0  0  0  0
  193.8630  175.7470  146.3940 C   0  0  0  0  0  3  0  0  0  0  0  0
  192.6910  175.2740  146.8870 N   0  0  0  0  0  0  0  0  0  0  0  0
  192.6780  176.9690  144.7180 C   0  0  0  0  0  3  0  0  0  0  0  0
  193.8600  176.6050  145.2950 C   0  0  0  0  0  3  0  0  0  0  0  0
  184.7510  178.8530  144.3580 C   0  0  0  0  0  0  0  0  0  0  0  0
  183.7430  178.6270  143.2320 C   0  0  0  0  0  1  0  0  0  0  0  0
  185.3280  180.2640  144.2630 C   0  0  0  0  0  1  0  0  0  0  0  0
  184.0660  178.6660  145.7000 C   0  0  0  0  0  1  0  0  0  0  0  0
  1 25  1  0  0  0  0
  2  1  1  0  0  0  0
  3  2  1  0  0  0  0
  4  2  2  0  0  0  0
  5 10  1  0  0  0  0
  6  5  2  0  0  0  0
  7  6  1  0  0  0  0
  7  8  2  0  0  0  0
  8  9  1  0  0  0  0
  9 10  2  0  0  0  0
  9 11  1  0  0  0  0
 10  3  1  0  0  0  0
 12  7  1  0  0  0  0
 13 18  1  0  0  0  0
 14 13  2  0  0  0  0
 14 15  1  0  0  0  0
 15 16  2  0  0  0  0
 16 17  1  0  0  0  0
 17 12  1  0  0  0  0
 18 17  2  0  0  0  0
 19 15  1  0  0  0  0
 20 19  2  0  0  0  0
 21 19  1  0  0  0  0
 22 21  1  0  0  0  0
 23 38  1  0  0  0  0
 23 27  2  0  0  0  0
 24 25  2  0  0  0  0
 24 23  1  0  0  0  0
 25 26  1  0  0  0  0
 26 27  1  0  0  0  0
 26 28  1  0  0  0  0
 28 29  1  0  0  0  0
 29 30  2  0  0  0  0
 31 30  1  0  0  0  0
 31 35  1  0  0  0  0
 32 31  2  0  0  0  0
 33 28  2  0  0  0  0
 33 32  1  0  0  0  0
 34 35  2  0  0  0  0
 36 32  1  0  0  0  0
 36 37  2  0  0  0  0
 37 34  1  0  0  0  0
 38 41  1  0  0  0  0
 39 38  1  0  0  0  0
 40 38  1  0  0  0  0
M  END
>  <MODEL>
8

>  <REMARK>
 VINA RESULT:      -7.7      4.333      7.915
  Name = 8u8b
  7 active torsions:
  status: ('A' for Active; 'I' for Inactive)
    1  A    between atoms: C_1  and  N_26
    2  A    between atoms: C_13  and  C_33
    3  A    between atoms: C_15  and  O_32
    4  A    between atoms: C_19  and  O_32
    5  A    between atoms: C_22  and  N_30
    6  A    between atoms: C_23  and  C_37
    7  A    between atoms: C_25  and  N_28
                            x       y       z     vdW  Elec       q    Type
                         _______ _______ _______ _____ _____    ______ ____

>  <TORSDO>
F 7

$$$$
8u8b
 OpenBabel11072415303D

 41 45  0  0  0  0  0  0  0  0999 V2000
  187.6200  175.0110  142.7520 N   0  0  0  0  0  2  0  0  0  0  0  0
  188.1070  174.9620  141.3660 C   0  0  0  0  0  0  0  0  0  0  0  0
  188.5070  173.6620  140.8200 N   0  0  0  0  0  2  0  0  0  0  0  0
  188.1700  175.9550  140.7180 O   0  0  0  0  0  0  0  0  0  0  0  0
  188.4810  173.9050  138.3080 C   0  0  0  0  0  3  0  0  0  0  0  0
  189.0400  173.5900  137.0780 C   0  0  0  0  0  3  0  0  0  0  0  0
  190.1360  172.7490  136.9990 C   0  0  0  0  0  0  0  0  0  0  0  0
  190.6880  172.2420  138.1640 C   0  0  0  0  0  3  0  0  0  0  0  0
  190.1240  172.5580  139.3870 C   0  0  0  0  0  0  0  0  0  0  0  0
  189.0220  173.3760  139.4740 C   0  0  0  0  0  0  0  0  0  0  0  0
  190.6530  172.0550  140.5330 F   0  0  0  0  0  0  0  0  0  0  0  0
  190.7310  172.4460  135.7610 O   0  0  0  0  0  0  0  0  0  0  0  0
  194.4350  172.4120  135.4110 C   0  0  0  0  0  3  0  0  0  0  0  0
  194.6710  173.7120  135.3280 N   0  0  0  0  0  0  0  0  0  0  0  0
  193.6920  174.5920  135.3790 C   0  0  0  0  0  0  0  0  0  0  0  0
  192.3790  174.1800  135.5250 C   0  0  0  0  0  3  0  0  0  0  0  0
  192.0770  172.8280  135.6050 C   0  0  0  0  0  0  0  0  0  0  0  0
  193.1370  171.9340  135.5550 C   0  0  0  0  0  3  0  0  0  0  0  0
  193.9720  176.0890  135.2840 C   0  0  0  0  0  0  0  0  0  0  0  0
  195.0850  176.4810  135.3800 O   0  0  0  0  0  0  0  0  0  0  0  0
  192.8980  177.0400  135.0800 N   0  0  0  0  0  2  0  0  0  0  0  0
  193.2220  178.4520  134.9980 C   0  0  0  0  0  1  0  0  0  0  0  0
  185.9440  177.9600  144.1210 C   0  0  0  0  0  0  0  0  0  0  0  0
  185.9070  176.7450  143.4450 C   0  0  0  0  0  3  0  0  0  0  0  0
  187.1960  176.2670  143.3810 C   0  0  0  0  0  0  0  0  0  0  0  0
  187.9660  177.1470  143.9920 N   0  0  0  0  0  0  0  0  0  0  0  0
  187.2160  178.2000  144.4600 N   0  0  0  0  0  0  0  0  0  0  0  0
  189.4150  177.0470  144.1720 C   0  0  0  0  0  0  0  0  0  0  0  0
  190.2580  177.6810  143.2570 C   0  0  0  0  0  3  0  0  0  0  0  0
  191.6420  177.5910  143.4050 C   0  0  0  0  0  3  0  0  0  0  0  0
  192.1980  176.8470  144.4900 C   0  0  0  0  0  0  0  0  0  0  0  0
  191.3750  176.2260  145.3820 C   0  0  0  0  0  0  0  0  0  0  0  0
  189.9540  176.3150  145.2290 C   0  0  0  0  0  3  0  0  0  0  0  0
  194.1200  176.0660  145.6550 C   0  0  0  0  0  3  0  0  0  0  0  0
  193.5780  176.7690  144.6290 N   0  0  0  0  0  0  0  0  0  0  0  0
  191.9340  175.5020  146.4380 C   0  0  0  0  0  3  0  0  0  0  0  0
  193.2900  175.4230  146.5730 C   0  0  0  0  0  3  0  0  0  0  0  0
  184.7440  178.8580  144.4310 C   0  0  0  0  0  0  0  0  0  0  0  0
  183.6560  178.6360  143.3810 C   0  0  0  0  0  1  0  0  0  0  0  0
  185.1920  180.3180  144.4150 C   0  0  0  0  0  1  0  0  0  0  0  0
  184.2070  178.4990  145.8050 C   0  0  0  0  0  1  0  0  0  0  0  0
  1 25  1  0  0  0  0
  2  1  1  0  0  0  0
  3  2  1  0  0  0  0
  4  2  2  0  0  0  0
  5 10  1  0  0  0  0
  6  5  2  0  0  0  0
  7  6  1  0  0  0  0
  7  8  2  0  0  0  0
  8  9  1  0  0  0  0
  9 10  2  0  0  0  0
  9 11  1  0  0  0  0
 10  3  1  0  0  0  0
 12  7  1  0  0  0  0
 13 18  1  0  0  0  0
 14 15  1  0  0  0  0
 14 13  2  0  0  0  0
 15 16  2  0  0  0  0
 16 17  1  0  0  0  0
 17 12  1  0  0  0  0
 18 17  2  0  0  0  0
 19 15  1  0  0  0  0
 19 20  2  0  0  0  0
 21 19  1  0  0  0  0
 22 21  1  0  0  0  0
 23 38  1  0  0  0  0
 23 27  2  0  0  0  0
 24 23  1  0  0  0  0
 25 24  2  0  0  0  0
 25 26  1  0  0  0  0
 26 28  1  0  0  0  0
 26 27  1  0  0  0  0
 28 33  1  0  0  0  0
 29 30  1  0  0  0  0
 29 28  2  0  0  0  0
 30 31  2  0  0  0  0
 31 35  1  0  0  0  0
 31 32  1  0  0  0  0
 32 36  1  0  0  0  0
 33 32  2  0  0  0  0
 34 37  1  0  0  0  0
 35 34  2  0  0  0  0
 36 37  2  0  0  0  0
 38 41  1  0  0  0  0
 39 38  1  0  0  0  0
 40 38  1  0  0  0  0
M  END
>  <MODEL>
9

>  <REMARK>
 VINA RESULT:      -7.7      4.403      8.094
  Name = 8u8b
  7 active torsions:
  status: ('A' for Active; 'I' for Inactive)
    1  A    between atoms: C_1  and  N_26
    2  A    between atoms: C_13  and  C_33
    3  A    between atoms: C_15  and  O_32
    4  A    between atoms: C_19  and  O_32
    5  A    between atoms: C_22  and  N_30
    6  A    between atoms: C_23  and  C_37
    7  A    between atoms: C_25  and  N_28
                            x       y       z     vdW  Elec       q    Type
                         _______ _______ _______ _____ _____    ______ ____

>  <TORSDO>
F 7

$$$$
