8u7h
 OpenBabel11072415313D

 31 33  0  0  0  0  0  0  0  0999 V2000
  190.7120  175.5350  146.7650 C   0  0  0  0  0  0  0  0  0  0  0  0
  191.6660  176.4370  147.2190 C   0  0  0  0  0  3  0  0  0  0  0  0
  192.9860  176.3310  146.7960 C   0  0  0  0  0  0  0  0  0  0  0  0
  193.3480  175.3390  145.9000 C   0  0  0  0  0  0  0  0  0  0  0  0
  192.3950  174.4480  145.4380 C   0  0  0  0  0  3  0  0  0  0  0  0
  191.0780  174.5600  145.8520 C   0  0  0  0  0  0  0  0  0  0  0  0
  193.9260  177.2090  147.2580 F   0  0  0  0  0  0  0  0  0  0  0  0
  194.8070  175.1990  145.4050 C   0  0  0  0  0  0  0  0  0  0  0  0
  195.6140  174.7820  146.1630 O   0  0  0  0  0  0  0  0  0  0  0  0
  195.2380  175.6050  144.0650 N   0  0  0  0  0  0  0  0  0  0  0  0
  194.3820  176.1340  143.0320 C   0  0  0  0  0  2  0  0  0  0  0  0
  194.5230  175.1650  141.8510 C   0  0  0  0  0  2  0  0  0  0  0  0
  195.8490  175.1730  141.3180 O   0  0  0  0  0  0  0  0  0  0  0  0
  196.7700  175.9100  142.1150 C   0  0  0  0  0  2  0  0  0  0  0  0
  196.6070  175.4900  143.5870 C   0  0  0  0  0  2  0  0  0  0  0  0
  187.2790  177.5610  144.8000 C   0  0  0  0  0  0  0  0  0  0  0  0
  186.0730  177.6240  145.4860 C   0  0  0  0  0  0  0  0  0  0  0  0
  186.0070  176.9870  146.7110 C   0  0  0  0  0  3  0  0  0  0  0  0
  187.0690  176.3670  147.1910 N   0  0  0  0  0  0  0  0  0  0  0  0
  188.1990  176.3190  146.5090 C   0  0  0  0  0  0  0  0  0  0  0  0
  188.3030  176.9150  145.3350 N   0  0  0  0  0  4  0  0  0  0  0  0
  189.3030  175.6020  147.1460 N   0  0  0  0  0  2  0  0  0  0  0  0
  184.8600  178.3510  144.9200 C   0  0  0  0  0  0  0  0  0  0  0  0
  183.8480  178.2780  145.8240 F   0  0  0  0  0  0  0  0  0  0  0  0
  185.1820  179.6590  144.7150 F   0  0  0  0  0  0  0  0  0  0  0  0
  184.4500  177.7970  143.7500 F   0  0  0  0  0  0  0  0  0  0  0  0
  187.4060  178.2080  143.5050 N   0  0  0  0  0  2  0  0  0  0  0  0
  186.9470  176.2940  142.0670 C   0  0  0  0  0  1  0  0  0  0  0  0
  187.8880  177.4620  142.3580 C   0  0  0  0  0  2  0  0  0  0  0  0
  190.1040  173.6660  145.3920 O   0  0  0  0  0  0  0  0  0  0  0  0
  189.7580  173.7820  144.0400 C   0  0  0  0  0  1  0  0  0  0  0  0
  1 22  1  0  0  0  0
  1  2  1  0  0  0  0
  3  2  2  0  0  0  0
  3  7  1  0  0  0  0
  4  3  1  0  0  0  0
  5  6  1  0  0  0  0
  5  4  2  0  0  0  0
  6  1  2  0  0  0  0
  8  4  1  0  0  0  0
  8  9  2  0  0  0  0
 10  8  1  0  0  0  0
 11 10  1  0  0  0  0
 12 11  1  0  0  0  0
 13 12  1  0  0  0  0
 13 14  1  0  0  0  0
 14 15  1  0  0  0  0
 15 10  1  0  0  0  0
 16 21  2  0  0  0  0
 16 17  1  0  0  0  0
 17 18  2  0  0  0  0
 18 19  1  0  0  0  0
 20 22  1  0  0  0  0
 20 19  2  0  0  0  0
 21 20  2  0  0  0  0
 23 17  1  0  0  0  0
 23 24  1  0  0  0  0
 25 23  1  0  0  0  0
 26 23  1  0  0  0  0
 27 16  1  0  0  0  0
 28 29  1  0  0  0  0
 29 27  1  0  0  0  0
 30  6  1  0  0  0  0
 31 30  1  0  0  0  0
M  END
>  <MODEL>
1

>  <REMARK>
 VINA RESULT:      -7.6      0.000      0.000
  Name = 8u7h
  6 active torsions:
  status: ('A' for Active; 'I' for Inactive)
    1  A    between atoms: C_2  and  N_3
    2  A    between atoms: N_3  and  C_4
    3  A    between atoms: C_5  and  C_27
    4  A    between atoms: N_10  and  C_11
    5  A    between atoms: C_14  and  C_19
    6  A    between atoms: C_16  and  O_17
                            x       y       z     vdW  Elec       q    Type
                         _______ _______ _______ _____ _____    ______ ____

>  <TORSDO>
F 6

$$$$
8u7h
 OpenBabel11072415313D

 31 33  0  0  0  0  0  0  0  0999 V2000
  189.7740  175.2710  146.4460 C   0  0  0  0  0  0  0  0  0  0  0  0
  190.0070  174.1840  145.6130 C   0  0  0  0  0  3  0  0  0  0  0  0
  191.3050  173.8660  145.2260 C   0  0  0  0  0  0  0  0  0  0  0  0
  192.3700  174.6190  145.6910 C   0  0  0  0  0  0  0  0  0  0  0  0
  192.1380  175.6950  146.5300 C   0  0  0  0  0  3  0  0  0  0  0  0
  190.8460  176.0050  146.9230 C   0  0  0  0  0  0  0  0  0  0  0  0
  191.5300  172.8060  144.3920 F   0  0  0  0  0  0  0  0  0  0  0  0
  193.8250  174.2880  145.2830 C   0  0  0  0  0  0  0  0  0  0  0  0
  194.3340  173.3340  145.7650 O   0  0  0  0  0  0  0  0  0  0  0  0
  194.6100  175.1260  144.3740 N   0  0  0  0  0  0  0  0  0  0  0  0
  194.1390  176.3170  143.7130 C   0  0  0  0  0  2  0  0  0  0  0  0
  194.2920  176.0380  142.2120 C   0  0  0  0  0  2  0  0  0  0  0  0
  195.6640  175.8870  141.8420 O   0  0  0  0  0  0  0  0  0  0  0  0
  196.5450  175.8300  142.9580 C   0  0  0  0  0  2  0  0  0  0  0  0
  195.9820  174.8350  143.9890 C   0  0  0  0  0  2  0  0  0  0  0  0
  186.5780  177.6410  144.4670 C   0  0  0  0  0  0  0  0  0  0  0  0
  185.4720  178.0140  145.2220 C   0  0  0  0  0  0  0  0  0  0  0  0
  185.4140  177.5590  146.5260 C   0  0  0  0  0  3  0  0  0  0  0  0
  186.3910  176.8160  147.0110 N   0  0  0  0  0  0  0  0  0  0  0  0
  187.4250  176.4730  146.2630 C   0  0  0  0  0  0  0  0  0  0  0  0
  187.5180  176.8870  145.0130 N   0  0  0  0  0  4  0  0  0  0  0  0
  188.4420  175.6470  146.9140 N   0  0  0  0  0  2  0  0  0  0  0  0
  184.3580  178.8780  144.6480 C   0  0  0  0  0  0  0  0  0  0  0  0
  183.4000  179.0410  145.5980 F   0  0  0  0  0  0  0  0  0  0  0  0
  184.8670  180.0970  144.3160 F   0  0  0  0  0  0  0  0  0  0  0  0
  183.8010  178.3060  143.5490 F   0  0  0  0  0  0  0  0  0  0  0  0
  186.6910  178.0860  143.0890 N   0  0  0  0  0  2  0  0  0  0  0  0
  186.1790  177.9110  140.7120 C   0  0  0  0  0  1  0  0  0  0  0  0
  186.4900  177.1500  141.9980 C   0  0  0  0  0  2  0  0  0  0  0  0
  190.5970  177.0900  147.7730 O   0  0  0  0  0  0  0  0  0  0  0  0
  191.5660  177.3300  148.7560 C   0  0  0  0  0  1  0  0  0  0  0  0
  1 22  1  0  0  0  0
  1  6  1  0  0  0  0
  2  1  2  0  0  0  0
  3  2  1  0  0  0  0
  3  4  2  0  0  0  0
  4  5  1  0  0  0  0
  5  6  2  0  0  0  0
  6 30  1  0  0  0  0
  7  3  1  0  0  0  0
  8  4  1  0  0  0  0
  8  9  2  0  0  0  0
 10  8  1  0  0  0  0
 11 10  1  0  0  0  0
 12 11  1  0  0  0  0
 13 12  1  0  0  0  0
 13 14  1  0  0  0  0
 14 15  1  0  0  0  0
 15 10  1  0  0  0  0
 16 21  2  0  0  0  0
 16 17  1  0  0  0  0
 17 18  2  0  0  0  0
 18 19  1  0  0  0  0
 20 22  1  0  0  0  0
 20 19  2  0  0  0  0
 21 20  2  0  0  0  0
 23 17  1  0  0  0  0
 23 24  1  0  0  0  0
 25 23  1  0  0  0  0
 26 23  1  0  0  0  0
 27 16  1  0  0  0  0
 28 29  1  0  0  0  0
 29 27  1  0  0  0  0
 30 31  1  0  0  0  0
M  END
>  <MODEL>
2

>  <REMARK>
 VINA RESULT:      -7.4      1.636      2.165
  Name = 8u7h
  6 active torsions:
  status: ('A' for Active; 'I' for Inactive)
    1  A    between atoms: C_2  and  N_3
    2  A    between atoms: N_3  and  C_4
    3  A    between atoms: C_5  and  C_27
    4  A    between atoms: N_10  and  C_11
    5  A    between atoms: C_14  and  C_19
    6  A    between atoms: C_16  and  O_17
                            x       y       z     vdW  Elec       q    Type
                         _______ _______ _______ _____ _____    ______ ____

>  <TORSDO>
F 6

$$$$
8u7h
 OpenBabel11072415313D

 31 33  0  0  0  0  0  0  0  0999 V2000
  190.3810  175.7830  145.3430 C   0  0  0  0  0  0  0  0  0  0  0  0
  191.3920  176.7090  145.5680 C   0  0  0  0  0  3  0  0  0  0  0  0
  192.6210  176.5690  144.9330 C   0  0  0  0  0  0  0  0  0  0  0  0
  192.8330  175.5180  144.0550 C   0  0  0  0  0  0  0  0  0  0  0  0
  191.8210  174.6030  143.8230 C   0  0  0  0  0  3  0  0  0  0  0  0
  190.5930  174.7490  144.4480 C   0  0  0  0  0  0  0  0  0  0  0  0
  193.6210  177.4720  145.1690 F   0  0  0  0  0  0  0  0  0  0  0  0
  194.1860  175.3390  143.3300 C   0  0  0  0  0  0  0  0  0  0  0  0
  194.3510  175.9140  142.3090 O   0  0  0  0  0  0  0  0  0  0  0  0
  195.2450  174.4530  143.8220 N   0  0  0  0  0  0  0  0  0  0  0  0
  195.1960  173.6820  145.0390 C   0  0  0  0  0  2  0  0  0  0  0  0
  196.3910  174.1620  145.8730 C   0  0  0  0  0  2  0  0  0  0  0  0
  197.6340  173.8430  145.2440 O   0  0  0  0  0  0  0  0  0  0  0  0
  197.4830  173.3460  143.9200 C   0  0  0  0  0  2  0  0  0  0  0  0
  196.5190  174.2650  143.1470 C   0  0  0  0  0  2  0  0  0  0  0  0
  186.7400  177.9580  144.0150 C   0  0  0  0  0  0  0  0  0  0  0  0
  185.6660  178.0380  144.8930 C   0  0  0  0  0  0  0  0  0  0  0  0
  185.7830  177.3730  146.0990 C   0  0  0  0  0  3  0  0  0  0  0  0
  186.8880  176.7100  146.3830 N   0  0  0  0  0  0  0  0  0  0  0  0
  187.8880  176.6470  145.5230 C   0  0  0  0  0  0  0  0  0  0  0  0
  187.8160  177.2680  144.3600 N   0  0  0  0  0  4  0  0  0  0  0  0
  189.0570  175.8810  145.9540 N   0  0  0  0  0  2  0  0  0  0  0  0
  184.4010  178.8150  144.5510 C   0  0  0  0  0  0  0  0  0  0  0  0
  183.5630  178.7740  145.6200 F   0  0  0  0  0  0  0  0  0  0  0  0
  184.7320  180.1110  144.2930 F   0  0  0  0  0  0  0  0  0  0  0  0
  183.7700  178.2850  143.4710 F   0  0  0  0  0  0  0  0  0  0  0  0
  186.6730  178.6330  142.7310 N   0  0  0  0  0  2  0  0  0  0  0  0
  185.4980  178.1430  140.6530 C   0  0  0  0  0  1  0  0  0  0  0  0
  186.7400  177.8710  141.4980 C   0  0  0  0  0  2  0  0  0  0  0  0
  189.5610  173.8300  144.2200 O   0  0  0  0  0  0  0  0  0  0  0  0
  189.8190  172.5110  144.6130 C   0  0  0  0  0  1  0  0  0  0  0  0
  1  2  1  0  0  0  0
  1 22  1  0  0  0  0
  3  7  1  0  0  0  0
  3  2  2  0  0  0  0
  4  3  1  0  0  0  0
  5  4  2  0  0  0  0
  5  6  1  0  0  0  0
  6  1  2  0  0  0  0
  8 10  1  0  0  0  0
  8  4  1  0  0  0  0
  9  8  2  0  0  0  0
 10 11  1  0  0  0  0
 11 12  1  0  0  0  0
 13 12  1  0  0  0  0
 14 13  1  0  0  0  0
 15 10  1  0  0  0  0
 15 14  1  0  0  0  0
 16 21  2  0  0  0  0
 16 17  1  0  0  0  0
 17 18  2  0  0  0  0
 18 19  1  0  0  0  0
 20 22  1  0  0  0  0
 20 19  2  0  0  0  0
 21 20  2  0  0  0  0
 23 17  1  0  0  0  0
 23 24  1  0  0  0  0
 25 23  1  0  0  0  0
 26 23  1  0  0  0  0
 27 16  1  0  0  0  0
 28 29  1  0  0  0  0
 29 27  1  0  0  0  0
 30  6  1  0  0  0  0
 30 31  1  0  0  0  0
M  END
>  <MODEL>
3

>  <REMARK>
 VINA RESULT:      -7.3      1.503      2.079
  Name = 8u7h
  6 active torsions:
  status: ('A' for Active; 'I' for Inactive)
    1  A    between atoms: C_2  and  N_3
    2  A    between atoms: N_3  and  C_4
    3  A    between atoms: C_5  and  C_27
    4  A    between atoms: N_10  and  C_11
    5  A    between atoms: C_14  and  C_19
    6  A    between atoms: C_16  and  O_17
                            x       y       z     vdW  Elec       q    Type
                         _______ _______ _______ _____ _____    ______ ____

>  <TORSDO>
F 6

$$$$
8u7h
 OpenBabel11072415313D

 31 33  0  0  0  0  0  0  0  0999 V2000
  191.0090  176.9260  144.6520 C   0  0  0  0  0  0  0  0  0  0  0  0
  190.7040  177.5520  143.4500 C   0  0  0  0  0  3  0  0  0  0  0  0
  189.3950  177.5670  142.9820 C   0  0  0  0  0  0  0  0  0  0  0  0
  188.3860  176.9780  143.7270 C   0  0  0  0  0  0  0  0  0  0  0  0
  188.6890  176.3650  144.9300 C   0  0  0  0  0  3  0  0  0  0  0  0
  189.9920  176.3590  145.4010 C   0  0  0  0  0  0  0  0  0  0  0  0
  189.1010  178.1690  141.7900 F   0  0  0  0  0  0  0  0  0  0  0  0
  186.9200  176.9830  143.2370 C   0  0  0  0  0  0  0  0  0  0  0  0
  186.6040  176.1920  142.4150 O   0  0  0  0  0  0  0  0  0  0  0  0
  185.9260  177.9530  143.7040 N   0  0  0  0  0  0  0  0  0  0  0  0
  186.1530  178.9780  144.6920 C   0  0  0  0  0  2  0  0  0  0  0  0
  185.1450  178.6940  145.8130 C   0  0  0  0  0  2  0  0  0  0  0  0
  183.7980  178.8580  145.3660 O   0  0  0  0  0  0  0  0  0  0  0  0
  183.6920  179.0450  143.9590 C   0  0  0  0  0  2  0  0  0  0  0  0
  184.5450  177.9790  143.2470 C   0  0  0  0  0  2  0  0  0  0  0  0
  194.0550  173.6900  144.6810 C   0  0  0  0  0  0  0  0  0  0  0  0
  195.1900  173.8630  145.4630 C   0  0  0  0  0  0  0  0  0  0  0  0
  195.3240  175.0680  146.1280 C   0  0  0  0  0  3  0  0  0  0  0  0
  194.3870  175.9910  146.0170 N   0  0  0  0  0  0  0  0  0  0  0  0
  193.3230  175.7970  145.2590 C   0  0  0  0  0  0  0  0  0  0  0  0
  193.1580  174.6600  144.6080 N   0  0  0  0  0  4  0  0  0  0  0  0
  192.3560  176.8940  145.2170 N   0  0  0  0  0  2  0  0  0  0  0  0
  196.2580  172.7840  145.5860 C   0  0  0  0  0  0  0  0  0  0  0  0
  197.1830  173.1880  146.4950 F   0  0  0  0  0  0  0  0  0  0  0  0
  195.6770  171.6320  146.0220 F   0  0  0  0  0  0  0  0  0  0  0  0
  196.8740  172.5570  144.3970 F   0  0  0  0  0  0  0  0  0  0  0  0
  193.8630  172.4460  143.9570 N   0  0  0  0  0  2  0  0  0  0  0  0
  194.8750  172.9640  141.8010 C   0  0  0  0  0  1  0  0  0  0  0  0
  193.6280  172.4610  142.5250 C   0  0  0  0  0  2  0  0  0  0  0  0
  190.3110  175.7430  146.6170 O   0  0  0  0  0  0  0  0  0  0  0  0
  189.3960  174.7880  147.0770 C   0  0  0  0  0  1  0  0  0  0  0  0
  1 22  1  0  0  0  0
  1  6  1  0  0  0  0
  2  1  2  0  0  0  0
  3  2  1  0  0  0  0
  3  4  2  0  0  0  0
  4  5  1  0  0  0  0
  5  6  2  0  0  0  0
  6 30  1  0  0  0  0
  7  3  1  0  0  0  0
  8 10  1  0  0  0  0
  8  4  1  0  0  0  0
  9  8  2  0  0  0  0
 10 11  1  0  0  0  0
 11 12  1  0  0  0  0
 13 12  1  0  0  0  0
 14 13  1  0  0  0  0
 15 10  1  0  0  0  0
 15 14  1  0  0  0  0
 16 17  1  0  0  0  0
 17 23  1  0  0  0  0
 17 18  2  0  0  0  0
 19 18  1  0  0  0  0
 20 19  2  0  0  0  0
 21 16  2  0  0  0  0
 21 20  2  0  0  0  0
 22 20  1  0  0  0  0
 23 25  1  0  0  0  0
 23 24  1  0  0  0  0
 26 23  1  0  0  0  0
 27 16  1  0  0  0  0
 28 29  1  0  0  0  0
 29 27  1  0  0  0  0
 30 31  1  0  0  0  0
M  END
>  <MODEL>
4

>  <REMARK>
 VINA RESULT:      -6.9      3.317      8.889
  Name = 8u7h
  6 active torsions:
  status: ('A' for Active; 'I' for Inactive)
    1  A    between atoms: C_2  and  N_3
    2  A    between atoms: N_3  and  C_4
    3  A    between atoms: C_5  and  C_27
    4  A    between atoms: N_10  and  C_11
    5  A    between atoms: C_14  and  C_19
    6  A    between atoms: C_16  and  O_17
                            x       y       z     vdW  Elec       q    Type
                         _______ _______ _______ _____ _____    ______ ____

>  <TORSDO>
F 6

$$$$
8u7h
 OpenBabel11072415313D

 31 33  0  0  0  0  0  0  0  0999 V2000
  190.5130  174.5070  144.1810 C   0  0  0  0  0  0  0  0  0  0  0  0
  190.7010  175.8220  144.5900 C   0  0  0  0  0  3  0  0  0  0  0  0
  189.8480  176.8220  144.1370 C   0  0  0  0  0  0  0  0  0  0  0  0
  188.7950  176.5070  143.2950 C   0  0  0  0  0  0  0  0  0  0  0  0
  188.6010  175.1950  142.8980 C   0  0  0  0  0  3  0  0  0  0  0  0
  189.4440  174.1970  143.3580 C   0  0  0  0  0  0  0  0  0  0  0  0
  190.0460  178.1180  144.5260 F   0  0  0  0  0  0  0  0  0  0  0  0
  187.8260  177.5960  142.7790 C   0  0  0  0  0  0  0  0  0  0  0  0
  187.9090  177.9230  141.6440 O   0  0  0  0  0  0  0  0  0  0  0  0
  186.8530  178.2730  143.6400 N   0  0  0  0  0  0  0  0  0  0  0  0
  186.6350  177.9960  145.0380 C   0  0  0  0  0  2  0  0  0  0  0  0
  185.1600  177.5860  145.1460 C   0  0  0  0  0  2  0  0  0  0  0  0
  184.2870  178.6660  144.8080 O   0  0  0  0  0  0  0  0  0  0  0  0
  184.9690  179.7910  144.2640 C   0  0  0  0  0  2  0  0  0  0  0  0
  185.9420  179.3060  143.1740 C   0  0  0  0  0  2  0  0  0  0  0  0
  194.8300  174.3950  145.2290 C   0  0  0  0  0  0  0  0  0  0  0  0
  195.4210  173.1570  145.4510 C   0  0  0  0  0  0  0  0  0  0  0  0
  194.6010  172.0450  145.3960 C   0  0  0  0  0  3  0  0  0  0  0  0
  193.3160  172.1850  145.1260 N   0  0  0  0  0  0  0  0  0  0  0  0
  192.7850  173.3770  144.9280 C   0  0  0  0  0  0  0  0  0  0  0  0
  193.5340  174.4640  144.9710 N   0  0  0  0  0  4  0  0  0  0  0  0
  191.3520  173.4010  144.6380 N   0  0  0  0  0  2  0  0  0  0  0  0
  196.9060  173.0140  145.7540 C   0  0  0  0  0  0  0  0  0  0  0  0
  197.1910  173.7190  146.8800 F   0  0  0  0  0  0  0  0  0  0  0  0
  197.1920  171.6990  145.9660 F   0  0  0  0  0  0  0  0  0  0  0  0
  197.6690  173.4830  144.7320 F   0  0  0  0  0  0  0  0  0  0  0  0
  195.6420  175.5990  145.2780 N   0  0  0  0  0  2  0  0  0  0  0  0
  196.8120  176.5000  143.3390 C   0  0  0  0  0  1  0  0  0  0  0  0
  195.5610  176.5790  144.2120 C   0  0  0  0  0  2  0  0  0  0  0  0
  189.2590  172.8650  142.9650 O   0  0  0  0  0  0  0  0  0  0  0  0
  188.4370  172.6670  141.8480 C   0  0  0  0  0  1  0  0  0  0  0  0
  1  2  1  0  0  0  0
  1 22  1  0  0  0  0
  3  7  1  0  0  0  0
  3  2  2  0  0  0  0
  4  3  1  0  0  0  0
  5  4  2  0  0  0  0
  5  6  1  0  0  0  0
  6  1  2  0  0  0  0
  8  4  1  0  0  0  0
  8 10  1  0  0  0  0
  9  8  2  0  0  0  0
 10 11  1  0  0  0  0
 11 12  1  0  0  0  0
 13 12  1  0  0  0  0
 14 13  1  0  0  0  0
 15 10  1  0  0  0  0
 15 14  1  0  0  0  0
 16 27  1  0  0  0  0
 16 17  1  0  0  0  0
 17 23  1  0  0  0  0
 18 17  2  0  0  0  0
 19 18  1  0  0  0  0
 20 21  2  0  0  0  0
 20 19  2  0  0  0  0
 21 16  2  0  0  0  0
 22 20  1  0  0  0  0
 23 25  1  0  0  0  0
 23 24  1  0  0  0  0
 26 23  1  0  0  0  0
 28 29  1  0  0  0  0
 29 27  1  0  0  0  0
 30  6  1  0  0  0  0
 31 30  1  0  0  0  0
M  END
>  <MODEL>
5

>  <REMARK>
 VINA RESULT:      -6.8      3.300      8.818
  Name = 8u7h
  6 active torsions:
  status: ('A' for Active; 'I' for Inactive)
    1  A    between atoms: C_2  and  N_3
    2  A    between atoms: N_3  and  C_4
    3  A    between atoms: C_5  and  C_27
    4  A    between atoms: N_10  and  C_11
    5  A    between atoms: C_14  and  C_19
    6  A    between atoms: C_16  and  O_17
                            x       y       z     vdW  Elec       q    Type
                         _______ _______ _______ _____ _____    ______ ____

>  <TORSDO>
F 6

$$$$
8u7h
 OpenBabel11072415313D

 31 33  0  0  0  0  0  0  0  0999 V2000
  188.3510  177.1610  142.0150 C   0  0  0  0  0  0  0  0  0  0  0  0
  189.2770  178.1550  142.3060 C   0  0  0  0  0  3  0  0  0  0  0  0
  190.3010  177.9110  143.2150 C   0  0  0  0  0  0  0  0  0  0  0  0
  190.4130  176.6670  143.8140 C   0  0  0  0  0  0  0  0  0  0  0  0
  189.4970  175.6740  143.5150 C   0  0  0  0  0  3  0  0  0  0  0  0
  188.4830  175.9140  142.6010 C   0  0  0  0  0  0  0  0  0  0  0  0
  191.2010  178.8960  143.5130 F   0  0  0  0  0  0  0  0  0  0  0  0
  191.5440  176.3630  144.8240 C   0  0  0  0  0  0  0  0  0  0  0  0
  191.3990  176.7140  145.9450 O   0  0  0  0  0  0  0  0  0  0  0  0
  192.8000  175.7110  144.4440 N   0  0  0  0  0  0  0  0  0  0  0  0
  193.1310  175.2320  143.1250 C   0  0  0  0  0  2  0  0  0  0  0  0
  193.3970  173.7300  143.2920 C   0  0  0  0  0  2  0  0  0  0  0  0
  194.5440  173.4860  144.1090 O   0  0  0  0  0  0  0  0  0  0  0  0
  195.0480  174.6600  144.7360 C   0  0  0  0  0  2  0  0  0  0  0  0
  193.8780  175.4260  145.3780 C   0  0  0  0  0  2  0  0  0  0  0  0
  184.1340  178.4310  142.6110 C   0  0  0  0  0  0  0  0  0  0  0  0
  183.2580  178.3280  141.5370 C   0  0  0  0  0  0  0  0  0  0  0  0
  183.7820  177.8990  140.3320 C   0  0  0  0  0  3  0  0  0  0  0  0
  185.0620  177.5910  140.2410 N   0  0  0  0  0  0  0  0  0  0  0  0
  185.8690  177.7080  141.2790 C   0  0  0  0  0  0  0  0  0  0  0  0
  185.4080  178.1140  142.4480 N   0  0  0  0  0  4  0  0  0  0  0  0
  187.2660  177.3370  141.0520 N   0  0  0  0  0  2  0  0  0  0  0  0
  181.7820  178.6800  141.6630 C   0  0  0  0  0  0  0  0  0  0  0  0
  181.4320  179.4710  140.6160 F   0  0  0  0  0  0  0  0  0  0  0  0
  181.0470  177.5330  141.6210 F   0  0  0  0  0  0  0  0  0  0  0  0
  181.5250  179.3390  142.8230 F   0  0  0  0  0  0  0  0  0  0  0  0
  183.6400  178.8810  143.9010 N   0  0  0  0  0  2  0  0  0  0  0  0
  184.2470  178.1300  146.1390 C   0  0  0  0  0  1  0  0  0  0  0  0
  184.5610  179.0980  145.0020 C   0  0  0  0  0  2  0  0  0  0  0  0
  187.5500  174.9180  142.2890 O   0  0  0  0  0  0  0  0  0  0  0  0
  188.0760  173.7350  141.7550 C   0  0  0  0  0  1  0  0  0  0  0  0
  1  2  2  0  0  0  0
  1  6  1  0  0  0  0
  2  3  1  0  0  0  0
  3  7  1  0  0  0  0
  3  4  2  0  0  0  0
  4  8  1  0  0  0  0
  5  4  1  0  0  0  0
  6  5  2  0  0  0  0
  8  9  2  0  0  0  0
 10  8  1  0  0  0  0
 10 15  1  0  0  0  0
 11 12  1  0  0  0  0
 11 10  1  0  0  0  0
 12 13  1  0  0  0  0
 13 14  1  0  0  0  0
 14 15  1  0  0  0  0
 16 27  1  0  0  0  0
 17 23  1  0  0  0  0
 17 16  1  0  0  0  0
 18 17  2  0  0  0  0
 19 18  1  0  0  0  0
 19 20  2  0  0  0  0
 20 21  2  0  0  0  0
 21 16  2  0  0  0  0
 22 20  1  0  0  0  0
 22  1  1  0  0  0  0
 23 26  1  0  0  0  0
 24 23  1  0  0  0  0
 25 23  1  0  0  0  0
 27 29  1  0  0  0  0
 29 28  1  0  0  0  0
 30  6  1  0  0  0  0
 31 30  1  0  0  0  0
M  END
>  <MODEL>
6

>  <REMARK>
 VINA RESULT:      -6.7      2.941      4.625
  Name = 8u7h
  6 active torsions:
  status: ('A' for Active; 'I' for Inactive)
    1  A    between atoms: C_2  and  N_3
    2  A    between atoms: N_3  and  C_4
    3  A    between atoms: C_5  and  C_27
    4  A    between atoms: N_10  and  C_11
    5  A    between atoms: C_14  and  C_19
    6  A    between atoms: C_16  and  O_17
                            x       y       z     vdW  Elec       q    Type
                         _______ _______ _______ _____ _____    ______ ____

>  <TORSDO>
F 6

$$$$
8u7h
 OpenBabel11072415313D

 31 33  0  0  0  0  0  0  0  0999 V2000
  190.8670  176.7200  143.3180 C   0  0  0  0  0  0  0  0  0  0  0  0
  191.6580  177.2330  144.3390 C   0  0  0  0  0  3  0  0  0  0  0  0
  192.6600  176.4530  144.9040 C   0  0  0  0  0  0  0  0  0  0  0  0
  192.8890  175.1700  144.4340 C   0  0  0  0  0  0  0  0  0  0  0  0
  192.1090  174.6650  143.4090 C   0  0  0  0  0  3  0  0  0  0  0  0
  191.1170  175.4460  142.8390 C   0  0  0  0  0  0  0  0  0  0  0  0
  193.4250  176.9540  145.9210 F   0  0  0  0  0  0  0  0  0  0  0  0
  194.0000  174.2810  145.0380 C   0  0  0  0  0  0  0  0  0  0  0  0
  193.6750  173.3790  145.7330 O   0  0  0  0  0  0  0  0  0  0  0  0
  195.4280  174.5360  144.8320 N   0  0  0  0  0  0  0  0  0  0  0  0
  195.9830  175.5930  144.0240 C   0  0  0  0  0  2  0  0  0  0  0  0
  196.8310  174.8860  142.9580 C   0  0  0  0  0  2  0  0  0  0  0  0
  197.9410  174.1980  143.5380 O   0  0  0  0  0  0  0  0  0  0  0  0
  197.8940  174.1550  144.9600 C   0  0  0  0  0  2  0  0  0  0  0  0
  196.4860  173.7160  145.4010 C   0  0  0  0  0  2  0  0  0  0  0  0
  186.8010  177.8440  144.7160 C   0  0  0  0  0  0  0  0  0  0  0  0
  185.9290  178.4220  143.8030 C   0  0  0  0  0  0  0  0  0  0  0  0
  186.4140  178.6710  142.5330 C   0  0  0  0  0  3  0  0  0  0  0  0
  187.6560  178.3460  142.2250 N   0  0  0  0  0  0  0  0  0  0  0  0
  188.4630  177.8040  143.1200 C   0  0  0  0  0  0  0  0  0  0  0  0
  188.0370  177.5510  144.3440 N   0  0  0  0  0  4  0  0  0  0  0  0
  189.8150  177.4910  142.6590 N   0  0  0  0  0  2  0  0  0  0  0  0
  184.4960  178.7830  144.1730 C   0  0  0  0  0  0  0  0  0  0  0  0
  183.7090  178.6210  143.0770 F   0  0  0  0  0  0  0  0  0  0  0  0
  184.0670  177.9460  145.1580 F   0  0  0  0  0  0  0  0  0  0  0  0
  184.4020  180.0690  144.6000 F   0  0  0  0  0  0  0  0  0  0  0  0
  186.3480  177.5640  146.0670 N   0  0  0  0  0  2  0  0  0  0  0  0
  185.9740  179.3940  147.6330 C   0  0  0  0  0  1  0  0  0  0  0  0
  186.9190  178.2780  147.1940 C   0  0  0  0  0  2  0  0  0  0  0  0
  190.3210  174.9470  141.8000 O   0  0  0  0  0  0  0  0  0  0  0  0
  189.5220  173.8420  142.1190 C   0  0  0  0  0  1  0  0  0  0  0  0
  1  2  1  0  0  0  0
  2  3  2  0  0  0  0
  3  7  1  0  0  0  0
  4  3  1  0  0  0  0
  4  8  1  0  0  0  0
  5  4  2  0  0  0  0
  6  1  2  0  0  0  0
  6  5  1  0  0  0  0
  8  9  2  0  0  0  0
 10  8  1  0  0  0  0
 10 15  1  0  0  0  0
 11 10  1  0  0  0  0
 12 13  1  0  0  0  0
 12 11  1  0  0  0  0
 13 14  1  0  0  0  0
 14 15  1  0  0  0  0
 16 27  1  0  0  0  0
 17 23  1  0  0  0  0
 17 16  1  0  0  0  0
 18 17  2  0  0  0  0
 19 18  1  0  0  0  0
 19 20  2  0  0  0  0
 20 21  2  0  0  0  0
 21 16  2  0  0  0  0
 22 20  1  0  0  0  0
 22  1  1  0  0  0  0
 23 26  1  0  0  0  0
 23 25  1  0  0  0  0
 24 23  1  0  0  0  0
 27 29  1  0  0  0  0
 29 28  1  0  0  0  0
 30 31  1  0  0  0  0
 30  6  1  0  0  0  0
M  END
>  <MODEL>
7

>  <REMARK>
 VINA RESULT:      -6.7      1.965      3.099
  Name = 8u7h
  6 active torsions:
  status: ('A' for Active; 'I' for Inactive)
    1  A    between atoms: C_2  and  N_3
    2  A    between atoms: N_3  and  C_4
    3  A    between atoms: C_5  and  C_27
    4  A    between atoms: N_10  and  C_11
    5  A    between atoms: C_14  and  C_19
    6  A    between atoms: C_16  and  O_17
                            x       y       z     vdW  Elec       q    Type
                         _______ _______ _______ _____ _____    ______ ____

>  <TORSDO>
F 6

$$$$
8u7h
 OpenBabel11072415313D

 31 33  0  0  0  0  0  0  0  0999 V2000
  192.5070  176.0870  145.9150 C   0  0  0  0  0  0  0  0  0  0  0  0
  193.4920  177.0610  145.8080 C   0  0  0  0  0  3  0  0  0  0  0  0
  194.6610  176.7990  145.1010 C   0  0  0  0  0  0  0  0  0  0  0  0
  194.8350  175.5720  144.4820 C   0  0  0  0  0  0  0  0  0  0  0  0
  193.8480  174.6060  144.5780 C   0  0  0  0  0  3  0  0  0  0  0  0
  192.6800  174.8720  145.2740 C   0  0  0  0  0  0  0  0  0  0  0  0
  195.6360  177.7530  145.0130 F   0  0  0  0  0  0  0  0  0  0  0  0
  196.1200  175.2520  143.6840 C   0  0  0  0  0  0  0  0  0  0  0  0
  197.0270  174.7590  144.2630 O   0  0  0  0  0  0  0  0  0  0  0  0
  196.2820  175.5800  142.2650 N   0  0  0  0  0  0  0  0  0  0  0  0
  195.2790  176.1860  141.4240 C   0  0  0  0  0  2  0  0  0  0  0  0
  195.0440  175.1850  140.2850 C   0  0  0  0  0  2  0  0  0  0  0  0
  196.2090  175.0270  139.4730 O   0  0  0  0  0  0  0  0  0  0  0  0
  197.3610  175.6660  140.0120 C   0  0  0  0  0  2  0  0  0  0  0  0
  197.4870  175.2960  141.5020 C   0  0  0  0  0  2  0  0  0  0  0  0
  188.5540  177.4450  144.4060 C   0  0  0  0  0  0  0  0  0  0  0  0
  187.5650  177.7490  145.3340 C   0  0  0  0  0  0  0  0  0  0  0  0
  187.8630  177.5400  146.6670 C   0  0  0  0  0  3  0  0  0  0  0  0
  189.0520  177.0850  147.0150 N   0  0  0  0  0  0  0  0  0  0  0  0
  189.9670  176.7980  146.1070 C   0  0  0  0  0  0  0  0  0  0  0  0
  189.7220  176.9840  144.8230 N   0  0  0  0  0  4  0  0  0  0  0  0
  191.2440  176.3010  146.6180 N   0  0  0  0  0  2  0  0  0  0  0  0
  186.2010  178.2810  144.9140 C   0  0  0  0  0  0  0  0  0  0  0  0
  185.5740  177.3330  144.1700 F   0  0  0  0  0  0  0  0  0  0  0  0
  185.4620  178.5330  146.0300 F   0  0  0  0  0  0  0  0  0  0  0  0
  186.3160  179.4180  144.1810 F   0  0  0  0  0  0  0  0  0  0  0  0
  188.2970  177.6400  142.9900 N   0  0  0  0  0  2  0  0  0  0  0  0
  187.7230  175.6410  141.7180 C   0  0  0  0  0  1  0  0  0  0  0  0
  188.7960  176.6860  142.0170 C   0  0  0  0  0  2  0  0  0  0  0  0
  191.6730  173.9040  145.3780 O   0  0  0  0  0  0  0  0  0  0  0  0
  191.8360  172.7650  144.5800 C   0  0  0  0  0  1  0  0  0  0  0  0
  1 22  1  0  0  0  0
  2  1  1  0  0  0  0
  3  2  2  0  0  0  0
  4  5  2  0  0  0  0
  4  3  1  0  0  0  0
  5  6  1  0  0  0  0
  6 30  1  0  0  0  0
  6  1  2  0  0  0  0
  7  3  1  0  0  0  0
  8  9  2  0  0  0  0
  8  4  1  0  0  0  0
 10  8  1  0  0  0  0
 11 10  1  0  0  0  0
 12 11  1  0  0  0  0
 13 14  1  0  0  0  0
 13 12  1  0  0  0  0
 14 15  1  0  0  0  0
 15 10  1  0  0  0  0
 16 21  2  0  0  0  0
 16 17  1  0  0  0  0
 17 18  2  0  0  0  0
 18 19  1  0  0  0  0
 20 22  1  0  0  0  0
 20 19  2  0  0  0  0
 21 20  2  0  0  0  0
 23 17  1  0  0  0  0
 23 25  1  0  0  0  0
 24 23  1  0  0  0  0
 26 23  1  0  0  0  0
 27 16  1  0  0  0  0
 28 29  1  0  0  0  0
 29 27  1  0  0  0  0
 31 30  1  0  0  0  0
M  END
>  <MODEL>
8

>  <REMARK>
 VINA RESULT:      -6.5      1.554      1.977
  Name = 8u7h
  6 active torsions:
  status: ('A' for Active; 'I' for Inactive)
    1  A    between atoms: C_2  and  N_3
    2  A    between atoms: N_3  and  C_4
    3  A    between atoms: C_5  and  C_27
    4  A    between atoms: N_10  and  C_11
    5  A    between atoms: C_14  and  C_19
    6  A    between atoms: C_16  and  O_17
                            x       y       z     vdW  Elec       q    Type
                         _______ _______ _______ _____ _____    ______ ____

>  <TORSDO>
F 6

$$$$
8u7h
 OpenBabel11072415313D

 31 33  0  0  0  0  0  0  0  0999 V2000
  189.9510  175.5750  142.3880 C   0  0  0  0  0  0  0  0  0  0  0  0
  188.6750  175.0250  142.3720 C   0  0  0  0  0  3  0  0  0  0  0  0
  187.5690  175.8190  142.6530 C   0  0  0  0  0  0  0  0  0  0  0  0
  187.7340  177.1670  142.9260 C   0  0  0  0  0  0  0  0  0  0  0  0
  189.0050  177.7160  142.9300 C   0  0  0  0  0  3  0  0  0  0  0  0
  190.1060  176.9270  142.6400 C   0  0  0  0  0  0  0  0  0  0  0  0
  186.3160  175.2710  142.6540 F   0  0  0  0  0  0  0  0  0  0  0  0
  186.5230  178.0770  143.2360 C   0  0  0  0  0  0  0  0  0  0  0  0
  186.0630  178.7130  142.3500 O   0  0  0  0  0  0  0  0  0  0  0  0
  185.9590  178.2250  144.5810 N   0  0  0  0  0  0  0  0  0  0  0  0
  186.4090  177.5280  145.7600 C   0  0  0  0  0  2  0  0  0  0  0  0
  185.1860  176.7490  146.2630 C   0  0  0  0  0  2  0  0  0  0  0  0
  184.1400  177.6250  146.6870 O   0  0  0  0  0  0  0  0  0  0  0  0
  184.3840  178.9900  146.3640 C   0  0  0  0  0  2  0  0  0  0  0  0
  184.8280  179.0830  144.8920 C   0  0  0  0  0  2  0  0  0  0  0  0
  193.3350  174.3280  144.9850 C   0  0  0  0  0  0  0  0  0  0  0  0
  194.4530  173.7650  144.3830 C   0  0  0  0  0  0  0  0  0  0  0  0
  194.4040  173.5690  143.0150 C   0  0  0  0  0  3  0  0  0  0  0  0
  193.3320  173.9280  142.3340 N   0  0  0  0  0  0  0  0  0  0  0  0
  192.2820  174.4530  142.9390 C   0  0  0  0  0  0  0  0  0  0  0  0
  192.2890  174.6560  144.2440 N   0  0  0  0  0  4  0  0  0  0  0  0
  191.1550  174.8080  142.0770 N   0  0  0  0  0  2  0  0  0  0  0  0
  195.6850  173.3650  145.1830 C   0  0  0  0  0  0  0  0  0  0  0  0
  196.6670  173.0010  144.3180 F   0  0  0  0  0  0  0  0  0  0  0  0
  196.1080  174.4350  145.9120 F   0  0  0  0  0  0  0  0  0  0  0  0
  195.4200  172.3260  146.0170 F   0  0  0  0  0  0  0  0  0  0  0  0
  193.3270  174.5530  146.4200 N   0  0  0  0  0  2  0  0  0  0  0  0
  194.0490  176.8720  146.6240 C   0  0  0  0  0  1  0  0  0  0  0  0
  192.9620  175.8520  146.9550 C   0  0  0  0  0  2  0  0  0  0  0  0
  191.3960  177.4710  142.6390 O   0  0  0  0  0  0  0  0  0  0  0  0
  191.7100  178.2990  143.7240 C   0  0  0  0  0  1  0  0  0  0  0  0
  1  6  1  0  0  0  0
  2  1  2  0  0  0  0
  2  3  1  0  0  0  0
  3  7  1  0  0  0  0
  3  4  2  0  0  0  0
  4  5  1  0  0  0  0
  4  8  1  0  0  0  0
  6  5  2  0  0  0  0
  8 10  1  0  0  0  0
  9  8  2  0  0  0  0
 10 15  1  0  0  0  0
 10 11  1  0  0  0  0
 11 12  1  0  0  0  0
 12 13  1  0  0  0  0
 14 13  1  0  0  0  0
 15 14  1  0  0  0  0
 16 27  1  0  0  0  0
 17 16  1  0  0  0  0
 17 23  1  0  0  0  0
 18 17  2  0  0  0  0
 19 20  2  0  0  0  0
 19 18  1  0  0  0  0
 20 21  2  0  0  0  0
 21 16  2  0  0  0  0
 22  1  1  0  0  0  0
 22 20  1  0  0  0  0
 23 25  1  0  0  0  0
 23 26  1  0  0  0  0
 24 23  1  0  0  0  0
 27 29  1  0  0  0  0
 28 29  1  0  0  0  0
 30  6  1  0  0  0  0
 30 31  1  0  0  0  0
M  END
>  <MODEL>
9

>  <REMARK>
 VINA RESULT:      -6.5      3.250      8.991
  Name = 8u7h
  6 active torsions:
  status: ('A' for Active; 'I' for Inactive)
    1  A    between atoms: C_2  and  N_3
    2  A    between atoms: N_3  and  C_4
    3  A    between atoms: C_5  and  C_27
    4  A    between atoms: N_10  and  C_11
    5  A    between atoms: C_14  and  C_19
    6  A    between atoms: C_16  and  O_17
                            x       y       z     vdW  Elec       q    Type
                         _______ _______ _______ _____ _____    ______ ____

>  <TORSDO>
F 6

$$$$
