8u8a
 OpenBabel11072415303D

 39 43  0  0  0  0  0  0  0  0999 V2000
  190.0180  177.0060  144.3220 O   0  0  0  0  0  0  0  0  0  0  0  0
  190.4810  176.3360  146.4370 N   0  0  0  0  0  2  0  0  0  0  0  0
  189.6830  176.8660  145.4980 C   0  0  0  0  0  0  0  0  0  0  0  0
  186.1150  178.0380  145.1350 C   0  0  0  0  0  0  0  0  0  0  0  0
  185.6880  178.2810  146.5030 C   0  0  0  0  0  0  0  0  0  0  0  0
  186.6230  178.0520  147.5630 C   0  0  0  0  0  3  0  0  0  0  0  0
  187.9390  177.5850  147.2830 C   0  0  0  0  0  3  0  0  0  0  0  0
  188.3350  177.3410  145.9190 C   0  0  0  0  0  0  0  0  0  0  0  0
  187.4190  177.5810  144.8740 C   0  0  0  0  0  3  0  0  0  0  0  0
  184.2870  178.7850  146.8350 C   0  0  0  0  0  1  0  0  0  0  0  0
  185.2440  178.2240  143.9880 C   0  0  0  0  0  0  0  0  0  0  0  0
  184.4890  178.2540  143.0390 C   0  0  0  0  0  0  0  0  0  0  0  0
  183.9710  177.7200  140.7320 C   0  0  0  0  0  3  0  0  0  0  0  0
  182.8940  177.7940  139.8840 N   0  0  0  0  0  0  0  0  0  0  0  0
  183.6240  178.1590  141.9520 C   0  0  0  0  0  0  0  0  0  0  0  0
  180.5590  178.6100  140.3130 C   0  0  0  0  0  3  0  0  0  0  0  0
  181.6120  179.0670  142.9470 N   0  0  0  0  0  0  0  0  0  0  0  0
  179.7800  179.1300  141.3190 C   0  0  0  0  0  3  0  0  0  0  0  0
  182.3330  178.5540  141.9100 N   0  0  0  0  0  0  0  0  0  0  0  0
  180.3570  179.3320  142.5980 C   0  0  0  0  0  3  0  0  0  0  0  0
  181.9140  178.2890  140.5980 C   0  0  0  0  0  0  0  0  0  0  0  0
  191.7930  175.8390  146.2370 C   0  0  0  0  0  0  0  0  0  0  0  0
  192.8910  176.6770  146.5370 C   0  0  0  0  0  3  0  0  0  0  0  0
  194.2290  176.2030  146.3520 C   0  0  0  0  0  3  0  0  0  0  0  0
  194.4990  174.8710  145.8610 C   0  0  0  0  0  0  0  0  0  0  0  0
  193.3610  174.0120  145.5470 C   0  0  0  0  0  0  0  0  0  0  0  0
  192.0520  174.5200  145.7430 C   0  0  0  0  0  3  0  0  0  0  0  0
  193.4520  172.5750  145.0240 C   0  0  0  0  0  0  0  0  0  0  0  0
  192.2530  172.0960  144.8090 F   0  0  0  0  0  0  0  0  0  0  0  0
  194.1150  172.4930  143.8830 F   0  0  0  0  0  0  0  0  0  0  0  0
  194.0870  171.8070  145.9040 F   0  0  0  0  0  0  0  0  0  0  0  0
  195.9760  174.4530  145.6980 C   0  0  0  0  0  2  0  0  0  0  0  0
  196.5760  174.8850  144.4330 N   0  0  0  0  0  0  0  0  0  0  0  0
  197.0240  175.0330  141.5480 N   0  0  0  0  0  0  0  0  0  0  0  0
  197.1160  173.7460  143.6470 C   0  0  0  0  0  2  0  0  0  0  0  0
  197.9140  174.2690  142.4370 C   0  0  0  0  0  2  0  0  0  0  0  0
  196.3430  176.1380  142.2850 C   0  0  0  0  0  2  0  0  0  0  0  0
  195.6360  175.6290  143.5780 C   0  0  0  0  0  2  0  0  0  0  0  0
  197.7380  175.4980  140.3710 C   0  0  0  0  0  1  0  0  0  0  0  0
  1  3  2  0  0  0  0
  3  8  1  0  0  0  0
  3  2  1  0  0  0  0
  4  5  1  0  0  0  0
  5 10  1  0  0  0  0
  5  6  2  0  0  0  0
  7  6  1  0  0  0  0
  8  7  2  0  0  0  0
  9  4  2  0  0  0  0
  9  8  1  0  0  0  0
 11  4  1  0  0  0  0
 12 11  3  0  0  0  0
 13 15  2  0  0  0  0
 14 21  2  0  0  0  0
 14 13  1  0  0  0  0
 15 12  1  0  0  0  0
 16 21  1  0  0  0  0
 16 18  2  0  0  0  0
 18 20  1  0  0  0  0
 19 15  1  0  0  0  0
 19 17  1  0  0  0  0
 20 17  2  0  0  0  0
 21 19  1  0  0  0  0
 22  2  1  0  0  0  0
 22 23  1  0  0  0  0
 24 23  2  0  0  0  0
 25 24  1  0  0  0  0
 26 27  1  0  0  0  0
 26 25  2  0  0  0  0
 27 22  2  0  0  0  0
 28 26  1  0  0  0  0
 28 31  1  0  0  0  0
 29 28  1  0  0  0  0
 30 28  1  0  0  0  0
 32 25  1  0  0  0  0
 33 32  1  0  0  0  0
 34 37  1  0  0  0  0
 34 36  1  0  0  0  0
 35 33  1  0  0  0  0
 36 35  1  0  0  0  0
 37 38  1  0  0  0  0
 38 33  1  0  0  0  0
 39 34  1  0  0  0  0
M  END
>  <MODEL>
1

>  <REMARK>
 VINA RESULT:      -8.1      0.000      0.000
  Name = 8u8a
  8 active torsions:
  status: ('A' for Active; 'I' for Inactive)
    1  A    between atoms: C_4  and  C_6
    2  A    between atoms: N_5  and  C_18
    3  A    between atoms: C_6  and  C_8
    4  A    between atoms: N_7  and  C_25
    5  A    between atoms: C_8  and  C_10
    6  A    between atoms: C_14  and  C_17
    7  A    between atoms: C_21  and  C_25
    8  A    between atoms: C_22  and  C_24
                            x       y       z     vdW  Elec       q    Type
                         _______ _______ _______ _____ _____    ______ ____

>  <TORSDO>
F 8

$$$$
8u8a
 OpenBabel11072415303D

 39 43  0  0  0  0  0  0  0  0999 V2000
  190.1110  177.7480  144.3680 O   0  0  0  0  0  0  0  0  0  0  0  0
  189.9130  175.7360  145.3910 N   0  0  0  0  0  2  0  0  0  0  0  0
  189.4630  176.9510  145.0460 C   0  0  0  0  0  0  0  0  0  0  0  0
  185.8430  178.0040  144.8880 C   0  0  0  0  0  0  0  0  0  0  0  0
  185.4730  178.1870  146.2810 C   0  0  0  0  0  0  0  0  0  0  0  0
  186.4650  177.9600  147.2890 C   0  0  0  0  0  3  0  0  0  0  0  0
  187.7820  177.5500  146.9320 C   0  0  0  0  0  3  0  0  0  0  0  0
  188.1200  177.3630  145.5440 C   0  0  0  0  0  0  0  0  0  0  0  0
  187.1480  177.6020  144.5520 C   0  0  0  0  0  3  0  0  0  0  0  0
  184.0730  178.6300  146.6940 C   0  0  0  0  0  1  0  0  0  0  0  0
  184.9120  178.1930  143.7900 C   0  0  0  0  0  0  0  0  0  0  0  0
  184.0870  178.2360  142.9010 C   0  0  0  0  0  0  0  0  0  0  0  0
  183.4610  177.7250  140.6160 C   0  0  0  0  0  3  0  0  0  0  0  0
  182.3500  177.8250  139.8150 N   0  0  0  0  0  0  0  0  0  0  0  0
  183.1750  178.1640  141.8520 C   0  0  0  0  0  0  0  0  0  0  0  0
  180.0520  178.6830  140.3480 C   0  0  0  0  0  3  0  0  0  0  0  0
  181.2250  179.1050  142.9360 N   0  0  0  0  0  0  0  0  0  0  0  0
  179.3270  179.2120  141.3890 C   0  0  0  0  0  3  0  0  0  0  0  0
  181.8910  178.5840  141.8670 N   0  0  0  0  0  0  0  0  0  0  0  0
  179.9620  179.3970  142.6430 C   0  0  0  0  0  3  0  0  0  0  0  0
  181.4110  178.3350  140.5730 C   0  0  0  0  0  0  0  0  0  0  0  0
  191.1590  175.1700  145.0240 C   0  0  0  0  0  0  0  0  0  0  0  0
  191.1790  174.1270  144.0700 C   0  0  0  0  0  3  0  0  0  0  0  0
  192.4210  173.5380  143.6730 C   0  0  0  0  0  3  0  0  0  0  0  0
  193.6800  173.9840  144.2250 C   0  0  0  0  0  0  0  0  0  0  0  0
  193.6540  175.0570  145.2140 C   0  0  0  0  0  0  0  0  0  0  0  0
  192.4020  175.6130  145.5810 C   0  0  0  0  0  3  0  0  0  0  0  0
  194.8830  175.6610  145.9010 C   0  0  0  0  0  0  0  0  0  0  0  0
  194.5140  176.5660  146.7720 F   0  0  0  0  0  0  0  0  0  0  0  0
  195.5920  174.7570  146.5550 F   0  0  0  0  0  0  0  0  0  0  0  0
  195.6870  176.2140  144.9980 F   0  0  0  0  0  0  0  0  0  0  0  0
  194.9660  173.2870  143.7320 C   0  0  0  0  0  2  0  0  0  0  0  0
  195.5200  172.3230  144.6860 N   0  0  0  0  0  0  0  0  0  0  0  0
  196.4890  169.7630  145.7110 N   0  0  0  0  0  0  0  0  0  0  0  0
  194.6290  171.1510  144.8850 C   0  0  0  0  0  2  0  0  0  0  0  0
  195.1520  170.2800  146.0440 C   0  0  0  0  0  2  0  0  0  0  0  0
  197.4300  170.8730  145.3810 C   0  0  0  0  0  2  0  0  0  0  0  0
  196.8500  171.8290  144.2950 C   0  0  0  0  0  2  0  0  0  0  0  0
  196.9880  168.8960  146.7640 C   0  0  0  0  0  1  0  0  0  0  0  0
  1  3  2  0  0  0  0
  3  2  1  0  0  0  0
  3  8  1  0  0  0  0
  4  5  1  0  0  0  0
  5 10  1  0  0  0  0
  5  6  2  0  0  0  0
  7  6  1  0  0  0  0
  8  7  2  0  0  0  0
  9  4  2  0  0  0  0
  9  8  1  0  0  0  0
 11  4  1  0  0  0  0
 12 11  3  0  0  0  0
 13 15  2  0  0  0  0
 14 21  2  0  0  0  0
 14 13  1  0  0  0  0
 15 19  1  0  0  0  0
 15 12  1  0  0  0  0
 16 21  1  0  0  0  0
 16 18  2  0  0  0  0
 18 20  1  0  0  0  0
 19 17  1  0  0  0  0
 20 17  2  0  0  0  0
 21 19  1  0  0  0  0
 22  2  1  0  0  0  0
 22 27  1  0  0  0  0
 23 22  2  0  0  0  0
 24 23  1  0  0  0  0
 24 25  2  0  0  0  0
 25 26  1  0  0  0  0
 26 27  2  0  0  0  0
 26 28  1  0  0  0  0
 28 30  1  0  0  0  0
 28 29  1  0  0  0  0
 31 28  1  0  0  0  0
 32 25  1  0  0  0  0
 32 33  1  0  0  0  0
 33 35  1  0  0  0  0
 34 36  1  0  0  0  0
 34 39  1  0  0  0  0
 35 36  1  0  0  0  0
 37 34  1  0  0  0  0
 38 33  1  0  0  0  0
 38 37  1  0  0  0  0
M  END
>  <MODEL>
2

>  <REMARK>
 VINA RESULT:      -7.9      2.086      3.109
  Name = 8u8a
  8 active torsions:
  status: ('A' for Active; 'I' for Inactive)
    1  A    between atoms: C_4  and  C_6
    2  A    between atoms: N_5  and  C_18
    3  A    between atoms: C_6  and  C_8
    4  A    between atoms: N_7  and  C_25
    5  A    between atoms: C_8  and  C_10
    6  A    between atoms: C_14  and  C_17
    7  A    between atoms: C_21  and  C_25
    8  A    between atoms: C_22  and  C_24
                            x       y       z     vdW  Elec       q    Type
                         _______ _______ _______ _____ _____    ______ ____

>  <TORSDO>
F 8

$$$$
8u8a
 OpenBabel11072415303D

 39 43  0  0  0  0  0  0  0  0999 V2000
  189.9220  177.9280  144.2580 O   0  0  0  0  0  0  0  0  0  0  0  0
  189.8380  175.9520  145.3640 N   0  0  0  0  0  2  0  0  0  0  0  0
  189.3270  177.1320  144.9840 C   0  0  0  0  0  0  0  0  0  0  0  0
  185.6810  178.0960  144.8750 C   0  0  0  0  0  0  0  0  0  0  0  0
  185.3210  178.2570  146.2750 C   0  0  0  0  0  0  0  0  0  0  0  0
  186.3300  178.0430  147.2700 C   0  0  0  0  0  3  0  0  0  0  0  0
  187.6530  177.6700  146.8940 C   0  0  0  0  0  3  0  0  0  0  0  0
  187.9800  177.5060  145.5010 C   0  0  0  0  0  0  0  0  0  0  0  0
  186.9910  177.7310  144.5210 C   0  0  0  0  0  3  0  0  0  0  0  0
  183.9160  178.6600  146.7080 C   0  0  0  0  0  1  0  0  0  0  0  0
  184.7330  178.2740  143.7900 C   0  0  0  0  0  0  0  0  0  0  0  0
  183.9420  178.2950  142.8700 C   0  0  0  0  0  0  0  0  0  0  0  0
  183.3410  177.7280  140.5910 C   0  0  0  0  0  3  0  0  0  0  0  0
  182.2360  177.7970  139.7790 N   0  0  0  0  0  0  0  0  0  0  0  0
  183.0400  178.1900  141.8150 C   0  0  0  0  0  0  0  0  0  0  0  0
  179.9240  178.6400  140.2740 C   0  0  0  0  0  3  0  0  0  0  0  0
  181.0700  179.1320  142.8620 N   0  0  0  0  0  0  0  0  0  0  0  0
  179.1840  179.1840  141.2970 C   0  0  0  0  0  3  0  0  0  0  0  0
  181.7520  178.5960  141.8110 N   0  0  0  0  0  0  0  0  0  0  0  0
  179.8070  179.4030  142.5520 C   0  0  0  0  0  3  0  0  0  0  0  0
  181.2850  178.3130  140.5180 C   0  0  0  0  0  0  0  0  0  0  0  0
  191.0990  175.4260  144.9880 C   0  0  0  0  0  0  0  0  0  0  0  0
  191.1440  174.3840  144.0340 C   0  0  0  0  0  3  0  0  0  0  0  0
  192.4010  173.8340  143.6270 C   0  0  0  0  0  3  0  0  0  0  0  0
  193.6500  174.3210  144.1680 C   0  0  0  0  0  0  0  0  0  0  0  0
  193.5980  175.3940  145.1560 C   0  0  0  0  0  0  0  0  0  0  0  0
  192.3320  175.9100  145.5330 C   0  0  0  0  0  3  0  0  0  0  0  0
  194.8130  176.0390  145.8310 C   0  0  0  0  0  0  0  0  0  0  0  0
  195.5050  176.7230  144.9550 F   0  0  0  0  0  0  0  0  0  0  0  0
  194.4700  176.8760  146.7960 F   0  0  0  0  0  0  0  0  0  0  0  0
  195.5840  175.1040  146.3760 F   0  0  0  0  0  0  0  0  0  0  0  0
  194.9540  173.6650  143.6640 C   0  0  0  0  0  2  0  0  0  0  0  0
  195.2370  173.9240  142.2500 N   0  0  0  0  0  0  0  0  0  0  0  0
  196.5380  175.0970  139.9100 N   0  0  0  0  0  0  0  0  0  0  0  0
  195.1190  175.3650  141.9060 C   0  0  0  0  0  2  0  0  0  0  0  0
  195.2200  175.5540  140.3800 C   0  0  0  0  0  2  0  0  0  0  0  0
  196.7950  173.6830  140.3140 C   0  0  0  0  0  2  0  0  0  0  0  0
  196.5740  173.4620  141.8410 C   0  0  0  0  0  2  0  0  0  0  0  0
  196.6820  175.3100  138.4800 C   0  0  0  0  0  1  0  0  0  0  0  0
  1  3  2  0  0  0  0
  3  2  1  0  0  0  0
  3  8  1  0  0  0  0
  4  5  1  0  0  0  0
  5 10  1  0  0  0  0
  5  6  2  0  0  0  0
  7  6  1  0  0  0  0
  8  7  2  0  0  0  0
  9  4  2  0  0  0  0
  9  8  1  0  0  0  0
 11  4  1  0  0  0  0
 12 11  3  0  0  0  0
 13 15  2  0  0  0  0
 14 21  2  0  0  0  0
 14 13  1  0  0  0  0
 15 12  1  0  0  0  0
 16 21  1  0  0  0  0
 16 18  2  0  0  0  0
 18 20  1  0  0  0  0
 19 15  1  0  0  0  0
 19 17  1  0  0  0  0
 20 17  2  0  0  0  0
 21 19  1  0  0  0  0
 22  2  1  0  0  0  0
 22 27  1  0  0  0  0
 23 22  2  0  0  0  0
 24 23  1  0  0  0  0
 24 25  2  0  0  0  0
 25 26  1  0  0  0  0
 26 27  2  0  0  0  0
 26 28  1  0  0  0  0
 28 31  1  0  0  0  0
 28 30  1  0  0  0  0
 29 28  1  0  0  0  0
 32 25  1  0  0  0  0
 33 32  1  0  0  0  0
 34 37  1  0  0  0  0
 34 36  1  0  0  0  0
 35 33  1  0  0  0  0
 36 35  1  0  0  0  0
 37 38  1  0  0  0  0
 38 33  1  0  0  0  0
 39 34  1  0  0  0  0
M  END
>  <MODEL>
3

>  <REMARK>
 VINA RESULT:      -7.8      1.730      2.265
  Name = 8u8a
  8 active torsions:
  status: ('A' for Active; 'I' for Inactive)
    1  A    between atoms: C_4  and  C_6
    2  A    between atoms: N_5  and  C_18
    3  A    between atoms: C_6  and  C_8
    4  A    between atoms: N_7  and  C_25
    5  A    between atoms: C_8  and  C_10
    6  A    between atoms: C_14  and  C_17
    7  A    between atoms: C_21  and  C_25
    8  A    between atoms: C_22  and  C_24
                            x       y       z     vdW  Elec       q    Type
                         _______ _______ _______ _____ _____    ______ ____

>  <TORSDO>
F 8

$$$$
8u8a
 OpenBabel11072415303D

 39 43  0  0  0  0  0  0  0  0999 V2000
  189.8560  177.5920  143.7860 O   0  0  0  0  0  0  0  0  0  0  0  0
  190.5180  176.7540  145.7850 N   0  0  0  0  0  2  0  0  0  0  0  0
  189.6080  177.2770  144.9490 C   0  0  0  0  0  0  0  0  0  0  0  0
  185.9040  177.9910  144.8710 C   0  0  0  0  0  0  0  0  0  0  0  0
  185.5260  178.0220  146.2750 C   0  0  0  0  0  0  0  0  0  0  0  0
  186.5410  177.8060  147.2620 C   0  0  0  0  0  3  0  0  0  0  0  0
  187.8890  177.5530  146.8750 C   0  0  0  0  0  3  0  0  0  0  0  0
  188.2350  177.5160  145.4770 C   0  0  0  0  0  0  0  0  0  0  0  0
  187.2390  177.7440  144.5060 C   0  0  0  0  0  3  0  0  0  0  0  0
  184.0930  178.2930  146.7210 C   0  0  0  0  0  1  0  0  0  0  0  0
  184.9530  178.1820  143.7910 C   0  0  0  0  0  0  0  0  0  0  0  0
  184.1790  178.2200  142.8580 C   0  0  0  0  0  0  0  0  0  0  0  0
  183.4460  177.7590  140.5930 C   0  0  0  0  0  3  0  0  0  0  0  0
  182.3020  177.8820  139.8460 N   0  0  0  0  0  0  0  0  0  0  0  0
  183.2200  178.1750  141.8490 C   0  0  0  0  0  0  0  0  0  0  0  0
  180.0360  178.7450  140.4980 C   0  0  0  0  0  3  0  0  0  0  0  0
  181.3280  179.1080  143.0390 N   0  0  0  0  0  0  0  0  0  0  0  0
  179.3630  179.2590  141.5810 C   0  0  0  0  0  3  0  0  0  0  0  0
  181.9420  178.6040  141.9310 N   0  0  0  0  0  0  0  0  0  0  0  0
  180.0550  179.4140  142.8080 C   0  0  0  0  0  3  0  0  0  0  0  0
  181.4020  178.3840  140.6550 C   0  0  0  0  0  0  0  0  0  0  0  0
  191.8690  176.4620  145.4740 C   0  0  0  0  0  0  0  0  0  0  0  0
  192.8230  176.4670  146.5170 C   0  0  0  0  0  3  0  0  0  0  0  0
  194.1950  176.1700  146.2380 C   0  0  0  0  0  3  0  0  0  0  0  0
  194.6450  175.8580  144.9010 C   0  0  0  0  0  0  0  0  0  0  0  0
  193.6570  175.8600  143.8260 C   0  0  0  0  0  0  0  0  0  0  0  0
  192.3080  176.1610  144.1450 C   0  0  0  0  0  3  0  0  0  0  0  0
  193.9450  175.5480  142.3550 C   0  0  0  0  0  0  0  0  0  0  0  0
  192.8460  175.6400  141.6500 F   0  0  0  0  0  0  0  0  0  0  0  0
  194.8200  176.3860  141.8230 F   0  0  0  0  0  0  0  0  0  0  0  0
  194.4500  174.3250  142.2360 F   0  0  0  0  0  0  0  0  0  0  0  0
  196.1450  175.5500  144.7020 C   0  0  0  0  0  2  0  0  0  0  0  0
  196.5140  174.1730  145.0370 N   0  0  0  0  0  0  0  0  0  0  0  0
  196.7170  171.2700  144.7600 N   0  0  0  0  0  0  0  0  0  0  0  0
  195.3330  173.2760  145.1190 C   0  0  0  0  0  2  0  0  0  0  0  0
  195.7500  171.9000  145.6740 C   0  0  0  0  0  2  0  0  0  0  0  0
  197.8950  172.1560  144.5260 C   0  0  0  0  0  2  0  0  0  0  0  0
  197.4710  173.5880  144.0820 C   0  0  0  0  0  2  0  0  0  0  0  0
  197.0920  169.9480  145.2330 C   0  0  0  0  0  1  0  0  0  0  0  0
  1  3  2  0  0  0  0
  3  8  1  0  0  0  0
  3  2  1  0  0  0  0
  4  5  1  0  0  0  0
  5 10  1  0  0  0  0
  5  6  2  0  0  0  0
  7  6  1  0  0  0  0
  8  7  2  0  0  0  0
  9  4  2  0  0  0  0
  9  8  1  0  0  0  0
 11  4  1  0  0  0  0
 12 11  3  0  0  0  0
 13 15  2  0  0  0  0
 14 13  1  0  0  0  0
 14 21  2  0  0  0  0
 15 19  1  0  0  0  0
 15 12  1  0  0  0  0
 16 21  1  0  0  0  0
 16 18  2  0  0  0  0
 18 20  1  0  0  0  0
 19 17  1  0  0  0  0
 20 17  2  0  0  0  0
 21 19  1  0  0  0  0
 22  2  1  0  0  0  0
 22 23  1  0  0  0  0
 24 23  2  0  0  0  0
 25 24  1  0  0  0  0
 26 27  1  0  0  0  0
 26 25  2  0  0  0  0
 27 22  2  0  0  0  0
 28 26  1  0  0  0  0
 29 28  1  0  0  0  0
 30 28  1  0  0  0  0
 31 28  1  0  0  0  0
 32 25  1  0  0  0  0
 32 33  1  0  0  0  0
 33 35  1  0  0  0  0
 34 39  1  0  0  0  0
 34 36  1  0  0  0  0
 35 36  1  0  0  0  0
 37 34  1  0  0  0  0
 38 37  1  0  0  0  0
 38 33  1  0  0  0  0
M  END
>  <MODEL>
4

>  <REMARK>
 VINA RESULT:      -7.5      1.673      2.475
  Name = 8u8a
  8 active torsions:
  status: ('A' for Active; 'I' for Inactive)
    1  A    between atoms: C_4  and  C_6
    2  A    between atoms: N_5  and  C_18
    3  A    between atoms: C_6  and  C_8
    4  A    between atoms: N_7  and  C_25
    5  A    between atoms: C_8  and  C_10
    6  A    between atoms: C_14  and  C_17
    7  A    between atoms: C_21  and  C_25
    8  A    between atoms: C_22  and  C_24
                            x       y       z     vdW  Elec       q    Type
                         _______ _______ _______ _____ _____    ______ ____

>  <TORSDO>
F 8

$$$$
8u8a
 OpenBabel11072415303D

 39 43  0  0  0  0  0  0  0  0999 V2000
  192.8270  177.0340  146.0670 O   0  0  0  0  0  0  0  0  0  0  0  0
  191.8100  175.9300  144.3690 N   0  0  0  0  0  2  0  0  0  0  0  0
  192.8460  176.1760  145.1850 C   0  0  0  0  0  0  0  0  0  0  0  0
  195.7820  174.6860  143.3420 C   0  0  0  0  0  0  0  0  0  0  0  0
  196.4790  173.9180  144.3600 C   0  0  0  0  0  0  0  0  0  0  0  0
  195.9430  173.8970  145.6880 C   0  0  0  0  0  3  0  0  0  0  0  0
  194.7600  174.6250  146.0060 C   0  0  0  0  0  3  0  0  0  0  0  0
  194.0940  175.3880  144.9810 C   0  0  0  0  0  0  0  0  0  0  0  0
  194.6130  175.3950  143.6700 C   0  0  0  0  0  3  0  0  0  0  0  0
  197.7440  173.1260  144.0500 C   0  0  0  0  0  1  0  0  0  0  0  0
  196.2470  174.7860  141.9700 C   0  0  0  0  0  0  0  0  0  0  0  0
  196.5330  174.9430  140.8010 C   0  0  0  0  0  0  0  0  0  0  0  0
  197.9370  175.2330  138.8470 C   0  0  0  0  0  3  0  0  0  0  0  0
  197.7810  175.4120  137.4950 N   0  0  0  0  0  0  0  0  0  0  0  0
  196.7370  175.1010  139.4330 C   0  0  0  0  0  0  0  0  0  0  0  0
  195.6850  175.5330  136.1180 C   0  0  0  0  0  3  0  0  0  0  0  0
  194.4370  175.1550  138.6770 N   0  0  0  0  0  0  0  0  0  0  0  0
  194.3190  175.4710  136.2500 C   0  0  0  0  0  3  0  0  0  0  0  0
  195.7850  175.2230  138.4830 N   0  0  0  0  0  0  0  0  0  0  0  0
  193.7630  175.2830  137.5390 C   0  0  0  0  0  3  0  0  0  0  0  0
  196.4890  175.3990  137.2820 C   0  0  0  0  0  0  0  0  0  0  0  0
  190.5490  176.5760  144.3990 C   0  0  0  0  0  0  0  0  0  0  0  0
  190.2400  177.5120  143.3860 C   0  0  0  0  0  3  0  0  0  0  0  0
  188.9730  178.1770  143.3840 C   0  0  0  0  0  3  0  0  0  0  0  0
  187.9800  177.9180  144.4010 C   0  0  0  0  0  0  0  0  0  0  0  0
  188.3070  176.9550  145.4490 C   0  0  0  0  0  0  0  0  0  0  0  0
  189.5740  176.3180  145.4160 C   0  0  0  0  0  3  0  0  0  0  0  0
  187.3830  176.5500  146.6010 C   0  0  0  0  0  0  0  0  0  0  0  0
  187.9230  175.5780  147.2930 F   0  0  0  0  0  0  0  0  0  0  0  0
  187.1550  177.5460  147.4410 F   0  0  0  0  0  0  0  0  0  0  0  0
  186.2040  176.1580  146.1270 F   0  0  0  0  0  0  0  0  0  0  0  0
  186.6440  178.6850  144.3110 C   0  0  0  0  0  2  0  0  0  0  0  0
  185.7600  178.2080  143.2450 N   0  0  0  0  0  0  0  0  0  0  0  0
  183.8870  178.3400  141.0040 N   0  0  0  0  0  0  0  0  0  0  0  0
  184.3730  178.7230  143.3890 C   0  0  0  0  0  2  0  0  0  0  0  0
  183.4440  178.0300  142.3730 C   0  0  0  0  0  2  0  0  0  0  0  0
  185.3160  177.9590  140.8000 C   0  0  0  0  0  2  0  0  0  0  0  0
  186.2440  178.5590  141.9000 C   0  0  0  0  0  2  0  0  0  0  0  0
  182.9990  177.7400  140.0230 C   0  0  0  0  0  1  0  0  0  0  0  0
  2 22  1  0  0  0  0
  2  3  1  0  0  0  0
  3  1  2  0  0  0  0
  4  9  2  0  0  0  0
  4  5  1  0  0  0  0
  5  6  2  0  0  0  0
  6  7  1  0  0  0  0
  8  3  1  0  0  0  0
  8  7  2  0  0  0  0
  9  8  1  0  0  0  0
 10  5  1  0  0  0  0
 11  4  1  0  0  0  0
 12 11  3  0  0  0  0
 13 15  2  0  0  0  0
 14 13  1  0  0  0  0
 15 12  1  0  0  0  0
 16 18  2  0  0  0  0
 16 21  1  0  0  0  0
 18 20  1  0  0  0  0
 19 17  1  0  0  0  0
 19 15  1  0  0  0  0
 20 17  2  0  0  0  0
 21 14  2  0  0  0  0
 21 19  1  0  0  0  0
 22 27  1  0  0  0  0
 23 22  2  0  0  0  0
 24 23  1  0  0  0  0
 24 25  2  0  0  0  0
 25 26  1  0  0  0  0
 26 28  1  0  0  0  0
 27 26  2  0  0  0  0
 28 29  1  0  0  0  0
 28 30  1  0  0  0  0
 31 28  1  0  0  0  0
 32 25  1  0  0  0  0
 33 35  1  0  0  0  0
 33 32  1  0  0  0  0
 34 36  1  0  0  0  0
 36 35  1  0  0  0  0
 37 34  1  0  0  0  0
 37 38  1  0  0  0  0
 38 33  1  0  0  0  0
 39 34  1  0  0  0  0
M  END
>  <MODEL>
5

>  <REMARK>
 VINA RESULT:      -7.3      3.030     11.028
  Name = 8u8a
  8 active torsions:
  status: ('A' for Active; 'I' for Inactive)
    1  A    between atoms: C_4  and  C_6
    2  A    between atoms: N_5  and  C_18
    3  A    between atoms: C_6  and  C_8
    4  A    between atoms: N_7  and  C_25
    5  A    between atoms: C_8  and  C_10
    6  A    between atoms: C_14  and  C_17
    7  A    between atoms: C_21  and  C_25
    8  A    between atoms: C_22  and  C_24
                            x       y       z     vdW  Elec       q    Type
                         _______ _______ _______ _____ _____    ______ ____

>  <TORSDO>
F 8

$$$$
8u8a
 OpenBabel11072415303D

 39 43  0  0  0  0  0  0  0  0999 V2000
  181.6290  179.4160  143.1640 O   0  0  0  0  0  0  0  0  0  0  0  0
  182.9880  178.3430  141.7010 N   0  0  0  0  0  2  0  0  0  0  0  0
  181.8430  178.9540  142.0440 C   0  0  0  0  0  0  0  0  0  0  0  0
  179.6310  177.8520  139.1930 C   0  0  0  0  0  0  0  0  0  0  0  0
  178.7670  178.9980  138.9600 C   0  0  0  0  0  0  0  0  0  0  0  0
  178.9400  180.1630  139.7740 C   0  0  0  0  0  3  0  0  0  0  0  0
  179.9310  180.1930  140.7990 C   0  0  0  0  0  3  0  0  0  0  0  0
  180.7670  179.0390  141.0170 C   0  0  0  0  0  0  0  0  0  0  0  0
  180.6060  177.8980  140.2050 C   0  0  0  0  0  3  0  0  0  0  0  0
  177.7010  178.9980  137.8690 C   0  0  0  0  0  1  0  0  0  0  0  0
  179.5290  176.6170  138.4360 C   0  0  0  0  0  0  0  0  0  0  0  0
  179.3180  175.6060  137.8000 C   0  0  0  0  0  0  0  0  0  0  0  0
  178.1750  174.5520  135.9400 C   0  0  0  0  0  3  0  0  0  0  0  0
  178.0840  173.3060  135.3710 N   0  0  0  0  0  0  0  0  0  0  0  0
  179.0250  174.5200  136.9780 C   0  0  0  0  0  0  0  0  0  0  0  0
  179.2100  171.1560  136.0140 C   0  0  0  0  0  3  0  0  0  0  0  0
  180.3480  172.8100  138.0680 N   0  0  0  0  0  0  0  0  0  0  0  0
  180.0890  170.6490  136.9410 C   0  0  0  0  0  3  0  0  0  0  0  0
  179.4730  173.2540  137.1230 N   0  0  0  0  0  0  0  0  0  0  0  0
  180.6170  171.5160  137.9300 C   0  0  0  0  0  3  0  0  0  0  0  0
  178.8690  172.5340  136.0810 C   0  0  0  0  0  0  0  0  0  0  0  0
  184.1180  178.1560  142.5350 C   0  0  0  0  0  0  0  0  0  0  0  0
  185.3450  177.7780  141.9430 C   0  0  0  0  0  3  0  0  0  0  0  0
  186.5070  177.5870  142.7560 C   0  0  0  0  0  3  0  0  0  0  0  0
  186.4680  177.7730  144.1880 C   0  0  0  0  0  0  0  0  0  0  0  0
  185.1970  178.1580  144.7950 C   0  0  0  0  0  0  0  0  0  0  0  0
  184.0680  178.3360  143.9550 C   0  0  0  0  0  3  0  0  0  0  0  0
  184.9660  178.4050  146.2900 C   0  0  0  0  0  0  0  0  0  0  0  0
  185.4220  177.3970  146.9890 F   0  0  0  0  0  0  0  0  0  0  0  0
  185.5830  179.4910  146.7230 F   0  0  0  0  0  0  0  0  0  0  0  0
  183.6690  178.5660  146.5320 F   0  0  0  0  0  0  0  0  0  0  0  0
  187.7750  177.5450  144.9780 C   0  0  0  0  0  2  0  0  0  0  0  0
  188.8440  176.9340  144.1850 N   0  0  0  0  0  0  0  0  0  0  0  0
  191.5000  175.8920  143.5510 N   0  0  0  0  0  0  0  0  0  0  0  0
  190.0440  177.8050  144.0900 C   0  0  0  0  0  2  0  0  0  0  0  0
  191.0490  177.2120  143.0820 C   0  0  0  0  0  2  0  0  0  0  0  0
  190.3440  174.9780  143.7860 C   0  0  0  0  0  2  0  0  0  0  0  0
  189.2670  175.6240  144.7080 C   0  0  0  0  0  2  0  0  0  0  0  0
  192.4880  175.3300  142.6450 C   0  0  0  0  0  1  0  0  0  0  0  0
  2  3  1  0  0  0  0
  2 22  1  0  0  0  0
  3  1  2  0  0  0  0
  4  9  1  0  0  0  0
  5  4  2  0  0  0  0
  5  6  1  0  0  0  0
  6  7  2  0  0  0  0
  7  8  1  0  0  0  0
  8  3  1  0  0  0  0
  9  8  2  0  0  0  0
 10  5  1  0  0  0  0
 11  4  1  0  0  0  0
 12 11  3  0  0  0  0
 13 15  2  0  0  0  0
 14 13  1  0  0  0  0
 14 21  2  0  0  0  0
 15 19  1  0  0  0  0
 15 12  1  0  0  0  0
 16 21  1  0  0  0  0
 16 18  2  0  0  0  0
 18 20  1  0  0  0  0
 19 17  1  0  0  0  0
 20 17  2  0  0  0  0
 21 19  1  0  0  0  0
 22 27  1  0  0  0  0
 23 22  2  0  0  0  0
 23 24  1  0  0  0  0
 24 25  2  0  0  0  0
 25 26  1  0  0  0  0
 25 32  1  0  0  0  0
 26 28  1  0  0  0  0
 27 26  2  0  0  0  0
 28 31  1  0  0  0  0
 28 30  1  0  0  0  0
 28 29  1  0  0  0  0
 33 38  1  0  0  0  0
 33 32  1  0  0  0  0
 34 37  1  0  0  0  0
 35 33  1  0  0  0  0
 36 34  1  0  0  0  0
 36 35  1  0  0  0  0
 37 38  1  0  0  0  0
 39 34  1  0  0  0  0
M  END
>  <MODEL>
6

>  <REMARK>
 VINA RESULT:      -7.3      4.978      8.837
  Name = 8u8a
  8 active torsions:
  status: ('A' for Active; 'I' for Inactive)
    1  A    between atoms: C_4  and  C_6
    2  A    between atoms: N_5  and  C_18
    3  A    between atoms: C_6  and  C_8
    4  A    between atoms: N_7  and  C_25
    5  A    between atoms: C_8  and  C_10
    6  A    between atoms: C_14  and  C_17
    7  A    between atoms: C_21  and  C_25
    8  A    between atoms: C_22  and  C_24
                            x       y       z     vdW  Elec       q    Type
                         _______ _______ _______ _____ _____    ______ ____

>  <TORSDO>
F 8

$$$$
8u8a
 OpenBabel11072415303D

 39 43  0  0  0  0  0  0  0  0999 V2000
  184.2250  178.6030  140.2140 O   0  0  0  0  0  0  0  0  0  0  0  0
  184.3170  177.8410  142.3470 N   0  0  0  0  0  2  0  0  0  0  0  0
  183.6630  178.2790  141.2600 C   0  0  0  0  0  0  0  0  0  0  0  0
  180.0510  177.9040  140.2390 C   0  0  0  0  0  0  0  0  0  0  0  0
  179.3170  178.5710  141.3020 C   0  0  0  0  0  0  0  0  0  0  0  0
  180.0560  179.1640  142.3760 C   0  0  0  0  0  3  0  0  0  0  0  0
  181.4790  179.0890  142.4070 C   0  0  0  0  0  3  0  0  0  0  0  0
  182.1810  178.4120  141.3470 C   0  0  0  0  0  0  0  0  0  0  0  0
  181.4540  177.8410  140.2820 C   0  0  0  0  0  3  0  0  0  0  0  0
  177.7950  178.6710  141.2940 C   0  0  0  0  0  1  0  0  0  0  0  0
  179.4000  177.2580  139.1130 C   0  0  0  0  0  0  0  0  0  0  0  0
  178.9600  176.6450  138.1630 C   0  0  0  0  0  0  0  0  0  0  0  0
  177.9910  176.4800  135.9470 C   0  0  0  0  0  3  0  0  0  0  0  0
  177.7060  175.5030  135.0270 N   0  0  0  0  0  0  0  0  0  0  0  0
  178.5760  175.9380  137.0260 C   0  0  0  0  0  0  0  0  0  0  0  0
  178.0990  173.0250  135.1360 C   0  0  0  0  0  3  0  0  0  0  0  0
  179.1750  173.6950  137.7140 N   0  0  0  0  0  0  0  0  0  0  0  0
  178.6150  172.0640  135.9730 C   0  0  0  0  0  3  0  0  0  0  0  0
  178.6510  174.6020  136.8430 N   0  0  0  0  0  0  0  0  0  0  0  0
  179.1320  172.4570  137.2320 C   0  0  0  0  0  3  0  0  0  0  0  0
  178.1100  174.3800  135.5670 C   0  0  0  0  0  0  0  0  0  0  0  0
  185.7170  177.6570  142.4630 C   0  0  0  0  0  0  0  0  0  0  0  0
  186.5340  178.7840  142.7060 C   0  0  0  0  0  3  0  0  0  0  0  0
  187.9510  178.6330  142.8350 C   0  0  0  0  0  3  0  0  0  0  0  0
  188.5860  177.3390  142.7240 C   0  0  0  0  0  0  0  0  0  0  0  0
  187.7390  176.1790  142.4670 C   0  0  0  0  0  0  0  0  0  0  0  0
  186.3400  176.3720  142.3440 C   0  0  0  0  0  3  0  0  0  0  0  0
  188.2310  174.7350  142.3250 C   0  0  0  0  0  0  0  0  0  0  0  0
  189.1220  174.6530  141.3690 F   0  0  0  0  0  0  0  0  0  0  0  0
  188.8030  174.2860  143.4290 F   0  0  0  0  0  0  0  0  0  0  0  0
  187.2110  173.9270  142.0530 F   0  0  0  0  0  0  0  0  0  0  0  0
  190.1210  177.2790  142.8800 C   0  0  0  0  0  2  0  0  0  0  0  0
  190.5690  177.1520  144.2690 N   0  0  0  0  0  0  0  0  0  0  0  0
  190.8050  176.0280  146.9560 N   0  0  0  0  0  0  0  0  0  0  0  0
  189.4350  177.1230  145.2270 C   0  0  0  0  0  2  0  0  0  0  0  0
  189.9620  177.2000  146.6740 C   0  0  0  0  0  2  0  0  0  0  0  0
  191.9150  175.9090  145.9660 C   0  0  0  0  0  2  0  0  0  0  0  0
  191.3950  175.9550  144.4970 C   0  0  0  0  0  2  0  0  0  0  0  0
  191.2770  176.0470  148.3310 C   0  0  0  0  0  1  0  0  0  0  0  0
  1  3  2  0  0  0  0
  2 22  1  0  0  0  0
  3  8  1  0  0  0  0
  3  2  1  0  0  0  0
  4  9  2  0  0  0  0
  4  5  1  0  0  0  0
  5  6  2  0  0  0  0
  6  7  1  0  0  0  0
  8  7  2  0  0  0  0
  9  8  1  0  0  0  0
 10  5  1  0  0  0  0
 11  4  1  0  0  0  0
 12 11  3  0  0  0  0
 13 15  2  0  0  0  0
 14 21  2  0  0  0  0
 14 13  1  0  0  0  0
 15 12  1  0  0  0  0
 16 21  1  0  0  0  0
 16 18  2  0  0  0  0
 18 20  1  0  0  0  0
 19 15  1  0  0  0  0
 19 17  1  0  0  0  0
 20 17  2  0  0  0  0
 21 19  1  0  0  0  0
 22 23  1  0  0  0  0
 23 24  2  0  0  0  0
 25 24  1  0  0  0  0
 25 32  1  0  0  0  0
 26 25  2  0  0  0  0
 27 22  2  0  0  0  0
 27 26  1  0  0  0  0
 28 26  1  0  0  0  0
 28 30  1  0  0  0  0
 29 28  1  0  0  0  0
 31 28  1  0  0  0  0
 32 33  1  0  0  0  0
 33 38  1  0  0  0  0
 33 35  1  0  0  0  0
 34 39  1  0  0  0  0
 35 36  1  0  0  0  0
 36 34  1  0  0  0  0
 37 34  1  0  0  0  0
 38 37  1  0  0  0  0
M  END
>  <MODEL>
7

>  <REMARK>
 VINA RESULT:      -7.3      4.056      7.622
  Name = 8u8a
  8 active torsions:
  status: ('A' for Active; 'I' for Inactive)
    1  A    between atoms: C_4  and  C_6
    2  A    between atoms: N_5  and  C_18
    3  A    between atoms: C_6  and  C_8
    4  A    between atoms: N_7  and  C_25
    5  A    between atoms: C_8  and  C_10
    6  A    between atoms: C_14  and  C_17
    7  A    between atoms: C_21  and  C_25
    8  A    between atoms: C_22  and  C_24
                            x       y       z     vdW  Elec       q    Type
                         _______ _______ _______ _____ _____    ______ ____

>  <TORSDO>
F 8

$$$$
8u8a
 OpenBabel11072415303D

 39 43  0  0  0  0  0  0  0  0999 V2000
  191.4700  176.4860  145.9670 O   0  0  0  0  0  0  0  0  0  0  0  0
  189.9250  175.3630  144.7470 N   0  0  0  0  0  2  0  0  0  0  0  0
  191.1200  175.4840  145.3440 C   0  0  0  0  0  0  0  0  0  0  0  0
  192.5490  172.2400  144.0510 C   0  0  0  0  0  0  0  0  0  0  0  0
  193.7790  172.0760  144.8090 C   0  0  0  0  0  0  0  0  0  0  0  0
  194.1260  173.0720  145.7770 C   0  0  0  0  0  3  0  0  0  0  0  0
  193.2890  174.2070  145.9830 C   0  0  0  0  0  3  0  0  0  0  0  0
  192.0810  174.3530  145.2110 C   0  0  0  0  0  0  0  0  0  0  0  0
  191.7330  173.3630  144.2690 C   0  0  0  0  0  3  0  0  0  0  0  0
  194.6930  170.8710  144.6140 C   0  0  0  0  0  1  0  0  0  0  0  0
  192.1130  171.2980  143.0360 C   0  0  0  0  0  0  0  0  0  0  0  0
  191.6460  170.5860  142.1720 C   0  0  0  0  0  0  0  0  0  0  0  0
  190.8140  168.5640  141.1250 C   0  0  0  0  0  3  0  0  0  0  0  0
  190.3560  168.1660  139.8940 N   0  0  0  0  0  0  0  0  0  0  0  0
  191.1190  169.8710  141.1000 C   0  0  0  0  0  0  0  0  0  0  0  0
  190.0710  169.4860  137.7770 C   0  0  0  0  0  3  0  0  0  0  0  0
  191.0910  171.6130  139.4180 N   0  0  0  0  0  0  0  0  0  0  0  0
  190.2450  170.7560  137.2820 C   0  0  0  0  0  3  0  0  0  0  0  0
  190.8970  170.3350  139.8510 N   0  0  0  0  0  0  0  0  0  0  0  0
  190.7520  171.7630  138.1410 C   0  0  0  0  0  3  0  0  0  0  0  0
  190.4020  169.2340  139.1360 C   0  0  0  0  0  0  0  0  0  0  0  0
  188.8860  176.3260  144.7520 C   0  0  0  0  0  0  0  0  0  0  0  0
  188.8310  177.2740  143.7040 C   0  0  0  0  0  3  0  0  0  0  0  0
  187.7910  178.2560  143.6760 C   0  0  0  0  0  3  0  0  0  0  0  0
  186.7740  178.3120  144.7030 C   0  0  0  0  0  0  0  0  0  0  0  0
  186.8390  177.3350  145.7860 C   0  0  0  0  0  0  0  0  0  0  0  0
  187.8870  176.3790  145.7770 C   0  0  0  0  0  3  0  0  0  0  0  0
  185.8510  177.2360  146.9520 C   0  0  0  0  0  0  0  0  0  0  0  0
  186.2710  176.3570  147.8270 F   0  0  0  0  0  0  0  0  0  0  0  0
  185.7080  178.3840  147.5920 F   0  0  0  0  0  0  0  0  0  0  0  0
  184.6500  176.8810  146.5060 F   0  0  0  0  0  0  0  0  0  0  0  0
  185.6930  179.4070  144.5830 C   0  0  0  0  0  2  0  0  0  0  0  0
  184.8290  179.2590  143.4100 N   0  0  0  0  0  0  0  0  0  0  0  0
  183.0890  177.9420  141.4650 N   0  0  0  0  0  0  0  0  0  0  0  0
  185.3190  178.2110  142.4770 C   0  0  0  0  0  2  0  0  0  0  0  0
  184.5000  178.2400  141.1720 C   0  0  0  0  0  2  0  0  0  0  0  0
  182.5390  178.8800  142.4880 C   0  0  0  0  0  2  0  0  0  0  0  0
  183.4340  178.9450  143.7620 C   0  0  0  0  0  2  0  0  0  0  0  0
  182.2990  177.9130  140.2460 C   0  0  0  0  0  1  0  0  0  0  0  0
  2 22  1  0  0  0  0
  2  3  1  0  0  0  0
  3  1  2  0  0  0  0
  4  9  2  0  0  0  0
  4  5  1  0  0  0  0
  5  6  2  0  0  0  0
  6  7  1  0  0  0  0
  8  3  1  0  0  0  0
  8  7  2  0  0  0  0
  9  8  1  0  0  0  0
 10  5  1  0  0  0  0
 11  4  1  0  0  0  0
 12 11  3  0  0  0  0
 14 13  1  0  0  0  0
 15 13  2  0  0  0  0
 15 12  1  0  0  0  0
 16 21  1  0  0  0  0
 17 19  1  0  0  0  0
 18 16  2  0  0  0  0
 18 20  1  0  0  0  0
 19 15  1  0  0  0  0
 20 17  2  0  0  0  0
 21 19  1  0  0  0  0
 21 14  2  0  0  0  0
 22 27  1  0  0  0  0
 23 22  2  0  0  0  0
 24 23  1  0  0  0  0
 24 25  2  0  0  0  0
 25 26  1  0  0  0  0
 26 28  1  0  0  0  0
 27 26  2  0  0  0  0
 28 30  1  0  0  0  0
 28 29  1  0  0  0  0
 31 28  1  0  0  0  0
 32 25  1  0  0  0  0
 33 38  1  0  0  0  0
 33 32  1  0  0  0  0
 34 37  1  0  0  0  0
 35 33  1  0  0  0  0
 36 34  1  0  0  0  0
 36 35  1  0  0  0  0
 37 38  1  0  0  0  0
 39 34  1  0  0  0  0
M  END
>  <MODEL>
8

>  <REMARK>
 VINA RESULT:      -7.2      4.653     10.450
  Name = 8u8a
  8 active torsions:
  status: ('A' for Active; 'I' for Inactive)
    1  A    between atoms: C_4  and  C_6
    2  A    between atoms: N_5  and  C_18
    3  A    between atoms: C_6  and  C_8
    4  A    between atoms: N_7  and  C_25
    5  A    between atoms: C_8  and  C_10
    6  A    between atoms: C_14  and  C_17
    7  A    between atoms: C_21  and  C_25
    8  A    between atoms: C_22  and  C_24
                            x       y       z     vdW  Elec       q    Type
                         _______ _______ _______ _____ _____    ______ ____

>  <TORSDO>
F 8

$$$$
8u8a
 OpenBabel11072415303D

 39 43  0  0  0  0  0  0  0  0999 V2000
  193.0160  173.4180  143.5410 O   0  0  0  0  0  0  0  0  0  0  0  0
  190.7710  173.6250  143.3120 N   0  0  0  0  0  2  0  0  0  0  0  0
  191.9390  173.8730  143.9240 C   0  0  0  0  0  0  0  0  0  0  0  0
  190.5760  176.2790  146.4910 C   0  0  0  0  0  0  0  0  0  0  0  0
  191.6620  176.4220  147.4460 C   0  0  0  0  0  0  0  0  0  0  0  0
  192.8770  175.7000  147.2140 C   0  0  0  0  0  3  0  0  0  0  0  0
  193.0120  174.8500  146.0780 C   0  0  0  0  0  3  0  0  0  0  0  0
  191.9150  174.7170  145.1520 C   0  0  0  0  0  0  0  0  0  0  0  0
  190.7250  175.4400  145.3730 C   0  0  0  0  0  3  0  0  0  0  0  0
  191.5510  177.3260  148.6690 C   0  0  0  0  0  1  0  0  0  0  0  0
  189.2980  176.9540  146.6390 C   0  0  0  0  0  0  0  0  0  0  0  0
  188.1790  177.4150  146.7060 C   0  0  0  0  0  0  0  0  0  0  0  0
  186.0510  177.8660  147.7770 C   0  0  0  0  0  3  0  0  0  0  0  0
  184.8030  178.3120  147.4210 N   0  0  0  0  0  0  0  0  0  0  0  0
  186.8560  177.8510  146.7030 C   0  0  0  0  0  0  0  0  0  0  0  0
  183.9250  179.0200  145.1770 C   0  0  0  0  0  3  0  0  0  0  0  0
  186.5990  178.3680  144.3520 N   0  0  0  0  0  0  0  0  0  0  0  0
  184.3290  179.1570  143.8700 C   0  0  0  0  0  3  0  0  0  0  0  0
  186.1410  178.2530  145.6300 N   0  0  0  0  0  0  0  0  0  0  0  0
  185.6610  178.8190  143.5250 C   0  0  0  0  0  3  0  0  0  0  0  0
  184.8650  178.5490  146.1340 C   0  0  0  0  0  0  0  0  0  0  0  0
  190.5880  172.8440  142.1450 C   0  0  0  0  0  0  0  0  0  0  0  0
  190.9950  171.4910  142.1610 C   0  0  0  0  0  3  0  0  0  0  0  0
  190.8180  170.6720  141.0000 C   0  0  0  0  0  3  0  0  0  0  0  0
  190.2240  171.1930  139.7900 C   0  0  0  0  0  0  0  0  0  0  0  0
  189.8100  172.5930  139.7770 C   0  0  0  0  0  0  0  0  0  0  0  0
  190.0040  173.3700  140.9470 C   0  0  0  0  0  3  0  0  0  0  0  0
  189.1600  173.3150  138.5920 C   0  0  0  0  0  0  0  0  0  0  0  0
  190.0080  173.4060  137.5990 F   0  0  0  0  0  0  0  0  0  0  0  0
  188.0930  172.6800  138.1370 F   0  0  0  0  0  0  0  0  0  0  0  0
  188.7680  174.5320  138.9560 F   0  0  0  0  0  0  0  0  0  0  0  0
  190.0740  170.2310  138.5920 C   0  0  0  0  0  2  0  0  0  0  0  0
  191.1680  170.3210  137.6220 N   0  0  0  0  0  0  0  0  0  0  0  0
  193.0820  169.4420  135.5950 N   0  0  0  0  0  0  0  0  0  0  0  0
  192.2650  169.3640  137.9180 C   0  0  0  0  0  2  0  0  0  0  0  0
  193.4720  169.6420  137.0000 C   0  0  0  0  0  2  0  0  0  0  0  0
  191.9040  170.2850  135.2360 C   0  0  0  0  0  2  0  0  0  0  0  0
  190.7230  170.0970  136.2360 C   0  0  0  0  0  2  0  0  0  0  0  0
  194.2140  169.6490  134.7070 C   0  0  0  0  0  1  0  0  0  0  0  0
  1  3  2  0  0  0  0
  2  3  1  0  0  0  0
  3  8  1  0  0  0  0
  4 11  1  0  0  0  0
  4  5  1  0  0  0  0
  5 10  1  0  0  0  0
  6  5  2  0  0  0  0
  7  6  1  0  0  0  0
  8  9  1  0  0  0  0
  8  7  2  0  0  0  0
  9  4  2  0  0  0  0
 11 12  3  0  0  0  0
 14 13  1  0  0  0  0
 15 12  1  0  0  0  0
 15 13  2  0  0  0  0
 16 21  1  0  0  0  0
 17 19  1  0  0  0  0
 18 16  2  0  0  0  0
 19 21  1  0  0  0  0
 19 15  1  0  0  0  0
 20 18  1  0  0  0  0
 20 17  2  0  0  0  0
 21 14  2  0  0  0  0
 22 23  1  0  0  0  0
 22  2  1  0  0  0  0
 24 23  2  0  0  0  0
 25 24  1  0  0  0  0
 26 25  2  0  0  0  0
 26 27  1  0  0  0  0
 27 22  2  0  0  0  0
 28 31  1  0  0  0  0
 28 26  1  0  0  0  0
 29 28  1  0  0  0  0
 30 28  1  0  0  0  0
 32 25  1  0  0  0  0
 33 35  1  0  0  0  0
 33 32  1  0  0  0  0
 34 36  1  0  0  0  0
 36 35  1  0  0  0  0
 37 34  1  0  0  0  0
 37 38  1  0  0  0  0
 38 33  1  0  0  0  0
 39 34  1  0  0  0  0
M  END
>  <MODEL>
9

>  <REMARK>
 VINA RESULT:      -7.1      5.386      7.101
  Name = 8u8a
  8 active torsions:
  status: ('A' for Active; 'I' for Inactive)
    1  A    between atoms: C_4  and  C_6
    2  A    between atoms: N_5  and  C_18
    3  A    between atoms: C_6  and  C_8
    4  A    between atoms: N_7  and  C_25
    5  A    between atoms: C_8  and  C_10
    6  A    between atoms: C_14  and  C_17
    7  A    between atoms: C_21  and  C_25
    8  A    between atoms: C_22  and  C_24
                            x       y       z     vdW  Elec       q    Type
                         _______ _______ _______ _____ _____    ______ ____

>  <TORSDO>
F 8

$$$$
