8tyq
 OpenBabel11072415313D

 39 43  0  0  1  0  0  0  0  0999 V2000
  189.3350  177.1170  144.9770 C   0  0  0  0  0  0  0  0  0  0  0  0
  189.7850  177.8670  144.2180 O   0  0  0  0  0  0  0  0  0  0  0  0
  189.9980  175.8640  145.3470 N   0  0  0  0  0  2  0  0  0  0  0  0
  184.1060  178.6890  146.8440 C   0  0  0  0  0  1  0  0  0  0  0  0
  185.4910  178.2790  146.3940 C   0  0  0  0  0  0  0  0  0  0  0  0
  185.7320  178.0380  145.0690 C   0  0  0  0  0  0  0  0  0  0  0  0
  186.9670  177.6720  144.6180 C   0  0  0  0  0  3  0  0  0  0  0  0
  187.9810  177.5470  145.5280 C   0  0  0  0  0  0  0  0  0  0  0  0
  187.7660  177.7700  146.8660 C   0  0  0  0  0  3  0  0  0  0  0  0
  186.5090  178.1450  147.3030 C   0  0  0  0  0  3  0  0  0  0  0  0
  184.5950  178.1900  144.0880 C   0  0  0  0  0  0  0  0  0  0  0  0
  183.7110  178.3250  143.3260 C   0  0  0  0  0  0  0  0  0  0  0  0
  182.5640  178.5160  142.3560 C   0  0  2  0  0  3  0  0  0  0  0  0
  181.3830  179.0920  142.7280 C   0  0  0  0  0  3  0  0  0  0  0  0
  180.4660  179.1930  141.7820 C   0  0  0  0  0  0  0  0  0  0  0  0
  180.6780  178.7460  140.4740 C   0  0  0  0  0  0  0  0  0  0  0  0
  179.4370  179.0810  139.8810 N   0  0  0  0  0  0  0  0  0  0  0  0
  178.4830  179.6520  140.5470 N   0  0  0  0  0  0  0  0  0  0  0  0
  179.1320  179.6840  141.6220 C   0  0  0  0  0  3  0  0  0  0  0  0
  181.7940  178.1870  140.0900 N   0  0  0  0  0  0  0  0  0  0  0  0
  182.7680  178.0640  141.0330 C   0  0  0  0  0  3  0  0  0  0  0  0
  191.3130  175.4670  144.7820 C   0  0  0  0  0  0  0  0  0  0  0  0
  192.4780  175.9050  145.3660 C   0  0  0  0  0  3  0  0  0  0  0  0
  193.7350  175.5740  144.8740 C   0  0  0  0  0  0  0  0  0  0  0  0
  193.8540  174.7430  143.7330 C   0  0  0  0  0  0  0  0  0  0  0  0
  192.6610  174.2800  143.1720 C   0  0  0  0  0  3  0  0  0  0  0  0
  191.4080  174.6480  143.6760 C   0  0  0  0  0  3  0  0  0  0  0  0
  194.9370  176.1330  145.6020 C   0  0  0  0  0  0  0  0  0  0  0  0
  194.5470  176.8860  146.6490 F   0  0  0  0  0  0  0  0  0  0  0  0
  195.6800  175.1160  146.0620 F   0  0  0  0  0  0  0  0  0  0  0  0
  195.6700  176.8390  144.7220 F   0  0  0  0  0  0  0  0  0  0  0  0
  195.2810  174.3270  143.2010 C   0  0  0  0  0  2  0  0  0  0  0  0
  195.7570  174.8210  142.0470 N   0  0  0  0  0  0  0  0  0  0  0  0
  197.0180  175.1160  142.1730 C   0  0  0  0  0  2  0  0  0  0  0  0
  197.6900  175.6280  140.8900 C   0  0  0  0  0  2  0  0  0  0  0  0
  197.4490  174.7970  139.9080 N   0  0  0  0  0  0  0  0  0  0  0  0
  196.1640  174.7820  139.8090 C   0  0  0  0  0  2  0  0  0  0  0  0
  195.5670  174.0910  141.0160 C   0  0  0  0  0  2  0  0  0  0  0  0
  197.9410  175.2490  138.7980 C   0  0  0  0  0  1  0  0  0  0  0  0
  1  3  1  0  0  0  0
  1  8  1  0  0  0  0
  2  1  2  0  0  0  0
  5  4  1  0  0  0  0
  5 10  1  0  0  0  0
  6  5  2  0  0  0  0
  7  6  1  0  0  0  0
  7  8  2  0  0  0  0
  8  9  1  0  0  0  0
  9 10  2  0  0  0  0
 11  6  1  0  0  0  0
 12 11  3  0  0  0  0
 13 14  1  0  0  0  0
 13 12  1  1  0  0  0
 15 14  2  0  0  0  0
 16 15  1  0  0  0  0
 17 16  2  0  0  0  0
 17 18  1  0  0  0  0
 18 19  2  0  0  0  0
 19 15  1  0  0  0  0
 20 16  1  0  0  0  0
 20 21  2  0  0  0  0
 21 13  1  0  0  0  0
 22  3  1  0  0  0  0
 22 23  1  0  0  0  0
 24 23  2  0  0  0  0
 24 28  1  0  0  0  0
 25 24  1  0  0  0  0
 26 27  1  0  0  0  0
 26 25  2  0  0  0  0
 27 22  2  0  0  0  0
 28 30  1  0  0  0  0
 28 29  1  0  0  0  0
 31 28  1  0  0  0  0
 32 25  1  0  0  0  0
 33 34  1  0  0  0  0
 33 32  1  0  0  0  0
 35 34  1  0  0  0  0
 36 35  1  0  0  0  0
 37 36  1  0  0  0  0
 37 38  1  0  0  0  0
 38 33  1  0  0  0  0
 39 36  1  0  0  0  0
M  END
>  <MODEL>
1

>  <REMARK>
 VINA RESULT:      -7.5      0.000      0.000
  Name = 8tyq
  8 active torsions:
  status: ('A' for Active; 'I' for Inactive)
    1  A    between atoms: C_3  and  C_26
    2  A    between atoms: C_5  and  C_8
    3  A    between atoms: N_10  and  C_11
    4  A    between atoms: C_13  and  C_25
    5  A    between atoms: C_14  and  C_17
    6  A    between atoms: C_17  and  N_18
    7  A    between atoms: C_26  and  C_27
    8  A    between atoms: C_27  and  C_28
                            x       y       z     vdW  Elec       q    Type
                         _______ _______ _______ _____ _____    ______ ____

>  <TORSDO>
F 8

$$$$
8tyq
 OpenBabel11072415313D

 39 43  0  0  1  0  0  0  0  0999 V2000
  189.4420  176.5570  145.1510 C   0  0  0  0  0  0  0  0  0  0  0  0
  189.5740  175.4510  145.4650 O   0  0  0  0  0  0  0  0  0  0  0  0
  190.4340  177.2840  144.3550 N   0  0  0  0  0  2  0  0  0  0  0  0
  184.4570  178.8840  146.8940 C   0  0  0  0  0  1  0  0  0  0  0  0
  185.7780  178.2770  146.4770 C   0  0  0  0  0  0  0  0  0  0  0  0
  185.9770  177.9130  145.1730 C   0  0  0  0  0  0  0  0  0  0  0  0
  187.1560  177.3680  144.7500 C   0  0  0  0  0  3  0  0  0  0  0  0
  188.1540  177.1860  145.6680 C   0  0  0  0  0  0  0  0  0  0  0  0
  187.9780  177.5310  146.9870 C   0  0  0  0  0  3  0  0  0  0  0  0
  186.7800  178.0860  147.3940 C   0  0  0  0  0  3  0  0  0  0  0  0
  184.8600  178.1320  144.1830 C   0  0  0  0  0  0  0  0  0  0  0  0
  183.9880  178.2860  143.4090 C   0  0  0  0  0  0  0  0  0  0  0  0
  182.8580  178.4640  142.4190 C   0  0  2  0  0  3  0  0  0  0  0  0
  181.6690  179.0390  142.7660 C   0  0  0  0  0  3  0  0  0  0  0  0
  180.7660  179.1280  141.8030 C   0  0  0  0  0  0  0  0  0  0  0  0
  181.0020  178.6710  140.5030 C   0  0  0  0  0  0  0  0  0  0  0  0
  179.7710  178.9950  139.8860 N   0  0  0  0  0  0  0  0  0  0  0  0
  178.8030  179.5680  140.5310 N   0  0  0  0  0  0  0  0  0  0  0  0
  179.4340  179.6130  141.6170 C   0  0  0  0  0  3  0  0  0  0  0  0
  182.1280  178.1120  140.1430 N   0  0  0  0  0  0  0  0  0  0  0  0
  183.0850  178.0020  141.1030 C   0  0  0  0  0  3  0  0  0  0  0  0
  191.6870  176.6450  143.8760 C   0  0  0  0  0  0  0  0  0  0  0  0
  192.8840  176.9220  144.4900 C   0  0  0  0  0  3  0  0  0  0  0  0
  194.0870  176.3620  144.0770 C   0  0  0  0  0  0  0  0  0  0  0  0
  194.1110  175.4550  142.9900 C   0  0  0  0  0  0  0  0  0  0  0  0
  192.8810  175.1580  142.3980 C   0  0  0  0  0  3  0  0  0  0  0  0
  191.6870  175.7550  142.8210 C   0  0  0  0  0  3  0  0  0  0  0  0
  195.3360  176.7620  144.8300 C   0  0  0  0  0  0  0  0  0  0  0  0
  196.3180  177.1020  143.9710 F   0  0  0  0  0  0  0  0  0  0  0  0
  195.0590  177.8240  145.6010 F   0  0  0  0  0  0  0  0  0  0  0  0
  195.6960  175.7360  145.6220 F   0  0  0  0  0  0  0  0  0  0  0  0
  195.4700  174.7810  142.5500 C   0  0  0  0  0  2  0  0  0  0  0  0
  195.8650  173.6140  143.0840 N   0  0  0  0  0  0  0  0  0  0  0  0
  197.0340  173.7500  143.6380 C   0  0  0  0  0  2  0  0  0  0  0  0
  197.5610  172.4920  144.3450 C   0  0  0  0  0  2  0  0  0  0  0  0
  196.6480  172.0370  145.1660 N   0  0  0  0  0  0  0  0  0  0  0  0
  195.6370  171.7800  144.4110 C   0  0  0  0  0  2  0  0  0  0  0  0
  195.0410  173.0740  143.8980 C   0  0  0  0  0  2  0  0  0  0  0  0
  197.0410  170.9310  145.7160 C   0  0  0  0  0  1  0  0  0  0  0  0
  1  2  2  0  0  0  0
  1  8  1  0  0  0  0
  3  1  1  0  0  0  0
  5  4  1  0  0  0  0
  5 10  1  0  0  0  0
  6  5  2  0  0  0  0
  7  6  1  0  0  0  0
  7  8  2  0  0  0  0
  8  9  1  0  0  0  0
  9 10  2  0  0  0  0
 11  6  1  0  0  0  0
 12 11  3  0  0  0  0
 13 14  1  0  0  0  0
 13 12  1  1  0  0  0
 15 14  2  0  0  0  0
 16 15  1  0  0  0  0
 17 16  2  0  0  0  0
 17 18  1  0  0  0  0
 18 19  2  0  0  0  0
 19 15  1  0  0  0  0
 20 16  1  0  0  0  0
 20 21  2  0  0  0  0
 21 13  1  0  0  0  0
 22  3  1  0  0  0  0
 22 23  1  0  0  0  0
 24 23  2  0  0  0  0
 24 28  1  0  0  0  0
 25 24  1  0  0  0  0
 26 27  1  0  0  0  0
 26 25  2  0  0  0  0
 27 22  2  0  0  0  0
 28 30  1  0  0  0  0
 28 31  1  0  0  0  0
 29 28  1  0  0  0  0
 32 25  1  0  0  0  0
 32 33  1  0  0  0  0
 33 34  1  0  0  0  0
 33 38  1  0  0  0  0
 34 35  1  0  0  0  0
 35 36  1  0  0  0  0
 36 39  1  0  0  0  0
 37 36  1  0  0  0  0
 38 37  1  0  0  0  0
M  END
>  <MODEL>
2

>  <REMARK>
 VINA RESULT:      -7.4      1.554      2.359
  Name = 8tyq
  8 active torsions:
  status: ('A' for Active; 'I' for Inactive)
    1  A    between atoms: C_3  and  C_26
    2  A    between atoms: C_5  and  C_8
    3  A    between atoms: N_10  and  C_11
    4  A    between atoms: C_13  and  C_25
    5  A    between atoms: C_14  and  C_17
    6  A    between atoms: C_17  and  N_18
    7  A    between atoms: C_26  and  C_27
    8  A    between atoms: C_27  and  C_28
                            x       y       z     vdW  Elec       q    Type
                         _______ _______ _______ _____ _____    ______ ____

>  <TORSDO>
F 8

$$$$
8tyq
 OpenBabel11072415313D

 39 43  0  0  1  0  0  0  0  0999 V2000
  190.0270  177.1100  145.4290 C   0  0  0  0  0  0  0  0  0  0  0  0
  190.1760  177.2800  144.2940 O   0  0  0  0  0  0  0  0  0  0  0  0
  191.0590  176.5280  146.2900 N   0  0  0  0  0  2  0  0  0  0  0  0
  184.7150  178.6190  147.1050 C   0  0  0  0  0  1  0  0  0  0  0  0
  186.1200  178.2250  146.7060 C   0  0  0  0  0  0  0  0  0  0  0  0
  186.4150  178.0000  145.3890 C   0  0  0  0  0  0  0  0  0  0  0  0
  187.6700  177.6490  144.9820 C   0  0  0  0  0  3  0  0  0  0  0  0
  188.6490  177.5220  145.9300 C   0  0  0  0  0  0  0  0  0  0  0  0
  188.3790  177.7300  147.2620 C   0  0  0  0  0  3  0  0  0  0  0  0
  187.1030  178.0900  147.6520 C   0  0  0  0  0  3  0  0  0  0  0  0
  185.3160  178.1540  144.3660 C   0  0  0  0  0  0  0  0  0  0  0  0
  184.4580  178.2580  143.5690 C   0  0  0  0  0  0  0  0  0  0  0  0
  183.3380  178.3860  142.5590 C   0  0  2  0  0  3  0  0  0  0  0  0
  182.0930  178.8310  142.9040 C   0  0  0  0  0  3  0  0  0  0  0  0
  181.2080  178.8890  141.9230 C   0  0  0  0  0  0  0  0  0  0  0  0
  181.5140  178.5260  140.6080 C   0  0  0  0  0  0  0  0  0  0  0  0
  180.2710  178.7700  139.9760 N   0  0  0  0  0  0  0  0  0  0  0  0
  179.2410  179.2170  140.6230 N   0  0  0  0  0  0  0  0  0  0  0  0
  179.8410  179.2600  141.7260 C   0  0  0  0  0  3  0  0  0  0  0  0
  182.6930  178.0920  140.2500 N   0  0  0  0  0  0  0  0  0  0  0  0
  183.6360  178.0180  141.2280 C   0  0  0  0  0  3  0  0  0  0  0  0
  192.3900  176.1240  145.7680 C   0  0  0  0  0  0  0  0  0  0  0  0
  192.6480  174.8060  145.4740 C   0  0  0  0  0  3  0  0  0  0  0  0
  193.8770  174.3700  144.9930 C   0  0  0  0  0  0  0  0  0  0  0  0
  194.9230  175.2990  144.7750 C   0  0  0  0  0  0  0  0  0  0  0  0
  194.6340  176.6390  145.0470 C   0  0  0  0  0  3  0  0  0  0  0  0
  193.3930  177.0460  145.5520 C   0  0  0  0  0  3  0  0  0  0  0  0
  194.0340  172.8900  144.7230 C   0  0  0  0  0  0  0  0  0  0  0  0
  194.4170  172.6810  143.4480 F   0  0  0  0  0  0  0  0  0  0  0  0
  194.9780  172.3970  145.5380 F   0  0  0  0  0  0  0  0  0  0  0  0
  192.8650  172.2860  145.0010 F   0  0  0  0  0  0  0  0  0  0  0  0
  196.3050  174.8140  144.1850 C   0  0  0  0  0  2  0  0  0  0  0  0
  196.6850  175.1620  142.9460 N   0  0  0  0  0  0  0  0  0  0  0  0
  197.3290  174.1820  142.3830 C   0  0  0  0  0  2  0  0  0  0  0  0
  197.7560  174.4420  140.9310 C   0  0  0  0  0  2  0  0  0  0  0  0
  196.7220  174.8490  140.2370 N   0  0  0  0  0  0  0  0  0  0  0  0
  196.3430  175.9270  140.8300 C   0  0  0  0  0  2  0  0  0  0  0  0
  195.7520  175.5850  142.1820 C   0  0  0  0  0  2  0  0  0  0  0  0
  197.0770  175.1480  139.0270 C   0  0  0  0  0  1  0  0  0  0  0  0
  1  8  1  0  0  0  0
  1  3  1  0  0  0  0
  2  1  2  0  0  0  0
  5  4  1  0  0  0  0
  5 10  1  0  0  0  0
  6  5  2  0  0  0  0
  7  6  1  0  0  0  0
  7  8  2  0  0  0  0
  8  9  1  0  0  0  0
  9 10  2  0  0  0  0
 11  6  1  0  0  0  0
 12 11  3  0  0  0  0
 13 14  1  0  0  0  0
 13 12  1  1  0  0  0
 15 14  2  0  0  0  0
 16 15  1  0  0  0  0
 17 16  2  0  0  0  0
 17 18  1  0  0  0  0
 18 19  2  0  0  0  0
 19 15  1  0  0  0  0
 20 16  1  0  0  0  0
 20 21  2  0  0  0  0
 21 13  1  0  0  0  0
 22  3  1  0  0  0  0
 23 22  2  0  0  0  0
 24 23  1  0  0  0  0
 25 24  2  0  0  0  0
 25 26  1  0  0  0  0
 26 27  2  0  0  0  0
 27 22  1  0  0  0  0
 28 24  1  0  0  0  0
 28 31  1  0  0  0  0
 28 30  1  0  0  0  0
 29 28  1  0  0  0  0
 32 25  1  0  0  0  0
 33 32  1  0  0  0  0
 34 33  1  0  0  0  0
 35 34  1  0  0  0  0
 36 37  1  0  0  0  0
 36 35  1  0  0  0  0
 37 38  1  0  0  0  0
 38 33  1  0  0  0  0
 39 36  1  0  0  0  0
M  END
>  <MODEL>
3

>  <REMARK>
 VINA RESULT:      -7.3      1.551      1.895
  Name = 8tyq
  8 active torsions:
  status: ('A' for Active; 'I' for Inactive)
    1  A    between atoms: C_3  and  C_26
    2  A    between atoms: C_5  and  C_8
    3  A    between atoms: N_10  and  C_11
    4  A    between atoms: C_13  and  C_25
    5  A    between atoms: C_14  and  C_17
    6  A    between atoms: C_17  and  N_18
    7  A    between atoms: C_26  and  C_27
    8  A    between atoms: C_27  and  C_28
                            x       y       z     vdW  Elec       q    Type
                         _______ _______ _______ _____ _____    ______ ____

>  <TORSDO>
F 8

$$$$
8tyq
 OpenBabel11072415313D

 39 43  0  0  1  0  0  0  0  0999 V2000
  189.4890  177.1540  145.3870 C   0  0  0  0  0  0  0  0  0  0  0  0
  188.8670  177.3270  146.3480 O   0  0  0  0  0  0  0  0  0  0  0  0
  188.9480  177.3510  144.0400 N   0  0  0  0  0  2  0  0  0  0  0  0
  194.9270  175.3960  146.1850 C   0  0  0  0  0  1  0  0  0  0  0  0
  193.4960  175.8550  146.0180 C   0  0  0  0  0  0  0  0  0  0  0  0
  193.0060  176.1120  144.7670 C   0  0  0  0  0  0  0  0  0  0  0  0
  191.7190  176.5210  144.5680 C   0  0  0  0  0  3  0  0  0  0  0  0
  190.9100  176.6760  145.6600 C   0  0  0  0  0  0  0  0  0  0  0  0
  191.3780  176.4380  146.9300 C   0  0  0  0  0  3  0  0  0  0  0  0
  192.6820  176.0180  147.1100 C   0  0  0  0  0  3  0  0  0  0  0  0
  193.9210  175.9260  143.5810 C   0  0  0  0  0  0  0  0  0  0  0  0
  194.6430  175.7920  142.6630 C   0  0  0  0  0  0  0  0  0  0  0  0
  195.5630  175.6350  141.4710 C   0  0  2  0  0  3  0  0  0  0  0  0
  195.0880  175.4320  140.2070 C   0  0  0  0  0  3  0  0  0  0  0  0
  196.0020  175.3070  139.2590 C   0  0  0  0  0  0  0  0  0  0  0  0
  197.3740  175.3810  139.5190 C   0  0  0  0  0  0  0  0  0  0  0  0
  197.8950  175.1990  138.2170 N   0  0  0  0  0  0  0  0  0  0  0  0
  197.1320  175.0280  137.1830 N   0  0  0  0  0  0  0  0  0  0  0  0
  196.0680  175.0970  137.8460 C   0  0  0  0  0  3  0  0  0  0  0  0
  197.8580  175.5690  140.7190 N   0  0  0  0  0  0  0  0  0  0  0  0
  196.9510  175.7040  141.7250 C   0  0  0  0  0  3  0  0  0  0  0  0
  187.5530  177.8060  143.8070 C   0  0  0  0  0  0  0  0  0  0  0  0
  186.6730  177.9110  144.8580 C   0  0  0  0  0  3  0  0  0  0  0  0
  185.3550  178.3210  144.6960 C   0  0  0  0  0  0  0  0  0  0  0  0
  184.8720  178.6630  143.4100 C   0  0  0  0  0  0  0  0  0  0  0  0
  185.7880  178.5830  142.3570 C   0  0  0  0  0  3  0  0  0  0  0  0
  187.1040  178.1450  142.5470 C   0  0  0  0  0  3  0  0  0  0  0  0
  184.4880  178.3800  145.9330 C   0  0  0  0  0  0  0  0  0  0  0  0
  184.2710  177.1410  146.4180 F   0  0  0  0  0  0  0  0  0  0  0  0
  185.1180  179.1010  146.8730 F   0  0  0  0  0  0  0  0  0  0  0  0
  183.3390  179.0010  145.6110 F   0  0  0  0  0  0  0  0  0  0  0  0
  183.3890  179.1740  143.2300 C   0  0  0  0  0  2  0  0  0  0  0  0
  182.5340  178.5370  142.4140 N   0  0  0  0  0  0  0  0  0  0  0  0
  181.3240  178.9760  142.6020 C   0  0  0  0  0  2  0  0  0  0  0  0
  180.2660  178.3650  141.6720 C   0  0  0  0  0  2  0  0  0  0  0  0
  180.6660  178.4660  140.4290 N   0  0  0  0  0  0  0  0  0  0  0  0
  181.7750  177.8110  140.3960 C   0  0  0  0  0  2  0  0  0  0  0  0
  182.8350  178.5630  141.1730 C   0  0  0  0  0  2  0  0  0  0  0  0
  179.8240  177.8870  139.6320 C   0  0  0  0  0  1  0  0  0  0  0  0
  1  8  1  0  0  0  0
  1  2  2  0  0  0  0
  3  1  1  0  0  0  0
  5  4  1  0  0  0  0
  5 10  1  0  0  0  0
  6  5  2  0  0  0  0
  7  6  1  0  0  0  0
  7  8  2  0  0  0  0
  8  9  1  0  0  0  0
  9 10  2  0  0  0  0
 11  6  1  0  0  0  0
 12 11  3  0  0  0  0
 13 21  1  0  0  0  0
 13 12  1  1  0  0  0
 14 13  1  0  0  0  0
 15 16  1  0  0  0  0
 15 14  2  0  0  0  0
 16 20  1  0  0  0  0
 17 16  2  0  0  0  0
 18 19  2  0  0  0  0
 18 17  1  0  0  0  0
 19 15  1  0  0  0  0
 20 21  2  0  0  0  0
 22  3  1  0  0  0  0
 22 23  1  0  0  0  0
 24 23  2  0  0  0  0
 24 28  1  0  0  0  0
 25 24  1  0  0  0  0
 26 27  1  0  0  0  0
 26 25  2  0  0  0  0
 27 22  2  0  0  0  0
 28 29  1  0  0  0  0
 28 30  1  0  0  0  0
 31 28  1  0  0  0  0
 32 25  1  0  0  0  0
 33 34  1  0  0  0  0
 33 32  1  0  0  0  0
 35 34  1  0  0  0  0
 36 35  1  0  0  0  0
 37 36  1  0  0  0  0
 37 38  1  0  0  0  0
 38 33  1  0  0  0  0
 39 36  1  0  0  0  0
M  END
>  <MODEL>
4

>  <REMARK>
 VINA RESULT:      -7.0      3.281     12.239
  Name = 8tyq
  8 active torsions:
  status: ('A' for Active; 'I' for Inactive)
    1  A    between atoms: C_3  and  C_26
    2  A    between atoms: C_5  and  C_8
    3  A    between atoms: N_10  and  C_11
    4  A    between atoms: C_13  and  C_25
    5  A    between atoms: C_14  and  C_17
    6  A    between atoms: C_17  and  N_18
    7  A    between atoms: C_26  and  C_27
    8  A    between atoms: C_27  and  C_28
                            x       y       z     vdW  Elec       q    Type
                         _______ _______ _______ _____ _____    ______ ____

>  <TORSDO>
F 8

$$$$
8tyq
 OpenBabel11072415313D

 39 43  0  0  1  0  0  0  0  0999 V2000
  191.3520  176.3540  144.9670 C   0  0  0  0  0  0  0  0  0  0  0  0
  192.2120  176.2770  145.7380 O   0  0  0  0  0  0  0  0  0  0  0  0
  191.5130  175.9970  143.5550 N   0  0  0  0  0  2  0  0  0  0  0  0
  186.3130  178.3150  146.9820 C   0  0  0  0  0  1  0  0  0  0  0  0
  187.6500  177.8030  146.4930 C   0  0  0  0  0  0  0  0  0  0  0  0
  187.8230  177.5140  145.1670 C   0  0  0  0  0  0  0  0  0  0  0  0
  189.0130  177.0560  144.6800 C   0  0  0  0  0  3  0  0  0  0  0  0
  190.0510  176.8850  145.5550 C   0  0  0  0  0  0  0  0  0  0  0  0
  189.9030  177.1550  146.8950 C   0  0  0  0  0  3  0  0  0  0  0  0
  188.6910  177.6240  147.3670 C   0  0  0  0  0  3  0  0  0  0  0  0
  186.6620  177.7180  144.2250 C   0  0  0  0  0  0  0  0  0  0  0  0
  185.7520  177.8900  143.5000 C   0  0  0  0  0  0  0  0  0  0  0  0
  184.5670  178.1090  142.5840 C   0  0  2  0  0  3  0  0  0  0  0  0
  183.3320  178.4460  143.0590 C   0  0  0  0  0  3  0  0  0  0  0  0
  182.3860  178.6030  142.1490 C   0  0  0  0  0  0  0  0  0  0  0  0
  182.6210  178.4420  140.7800 C   0  0  0  0  0  0  0  0  0  0  0  0
  181.3340  178.7170  140.2610 N   0  0  0  0  0  0  0  0  0  0  0  0
  180.3310  179.0230  141.0230 N   0  0  0  0  0  0  0  0  0  0  0  0
  180.9970  178.9370  142.0850 C   0  0  0  0  0  3  0  0  0  0  0  0
  183.7910  178.1150  140.2970 N   0  0  0  0  0  0  0  0  0  0  0  0
  184.7950  177.9450  141.2000 C   0  0  0  0  0  3  0  0  0  0  0  0
  192.7990  175.4920  143.0080 C   0  0  0  0  0  0  0  0  0  0  0  0
  193.9820  176.1100  143.3370 C   0  0  0  0  0  3  0  0  0  0  0  0
  195.2120  175.6880  142.8470 C   0  0  0  0  0  0  0  0  0  0  0  0
  195.2840  174.5710  141.9800 C   0  0  0  0  0  0  0  0  0  0  0  0
  194.0760  173.9330  141.6810 C   0  0  0  0  0  3  0  0  0  0  0  0
  192.8490  174.3950  142.1720 C   0  0  0  0  0  3  0  0  0  0  0  0
  196.4360  176.4640  143.2770 C   0  0  0  0  0  0  0  0  0  0  0  0
  196.9860  177.1000  142.2230 F   0  0  0  0  0  0  0  0  0  0  0  0
  196.0740  177.3810  144.1860 F   0  0  0  0  0  0  0  0  0  0  0  0
  197.2980  175.6050  143.8500 F   0  0  0  0  0  0  0  0  0  0  0  0
  196.6850  174.0600  141.4590 C   0  0  0  0  0  2  0  0  0  0  0  0
  197.0430  174.2200  140.1760 N   0  0  0  0  0  0  0  0  0  0  0  0
  196.8180  173.1260  139.5090 C   0  0  0  0  0  2  0  0  0  0  0  0
  197.1270  173.2130  138.0070 C   0  0  0  0  0  2  0  0  0  0  0  0
  196.5300  174.2610  137.4980 N   0  0  0  0  0  0  0  0  0  0  0  0
  197.0210  175.2570  138.1510 C   0  0  0  0  0  2  0  0  0  0  0  0
  196.5240  175.2240  139.5810 C   0  0  0  0  0  2  0  0  0  0  0  0
  196.8410  174.3980  136.2470 C   0  0  0  0  0  1  0  0  0  0  0  0
  1  8  1  0  0  0  0
  1  2  2  0  0  0  0
  3  1  1  0  0  0  0
  5  4  1  0  0  0  0
  5 10  1  0  0  0  0
  6  5  2  0  0  0  0
  7  6  1  0  0  0  0
  7  8  2  0  0  0  0
  8  9  1  0  0  0  0
  9 10  2  0  0  0  0
 11  6  1  0  0  0  0
 12 11  3  0  0  0  0
 13 14  1  0  0  0  0
 13 12  1  1  0  0  0
 15 14  2  0  0  0  0
 16 15  1  0  0  0  0
 17 16  2  0  0  0  0
 17 18  1  0  0  0  0
 18 19  2  0  0  0  0
 19 15  1  0  0  0  0
 20 16  1  0  0  0  0
 20 21  2  0  0  0  0
 21 13  1  0  0  0  0
 22 23  1  0  0  0  0
 22  3  1  0  0  0  0
 24 28  1  0  0  0  0
 24 23  2  0  0  0  0
 25 24  1  0  0  0  0
 26 25  2  0  0  0  0
 26 27  1  0  0  0  0
 27 22  2  0  0  0  0
 28 31  1  0  0  0  0
 28 30  1  0  0  0  0
 29 28  1  0  0  0  0
 32 25  1  0  0  0  0
 33 32  1  0  0  0  0
 34 33  1  0  0  0  0
 35 34  1  0  0  0  0
 36 35  1  0  0  0  0
 36 37  1  0  0  0  0
 37 38  1  0  0  0  0
 38 33  1  0  0  0  0
 39 36  1  0  0  0  0
M  END
>  <MODEL>
5

>  <REMARK>
 VINA RESULT:      -6.9      1.555      2.477
  Name = 8tyq
  8 active torsions:
  status: ('A' for Active; 'I' for Inactive)
    1  A    between atoms: C_3  and  C_26
    2  A    between atoms: C_5  and  C_8
    3  A    between atoms: N_10  and  C_11
    4  A    between atoms: C_13  and  C_25
    5  A    between atoms: C_14  and  C_17
    6  A    between atoms: C_17  and  N_18
    7  A    between atoms: C_26  and  C_27
    8  A    between atoms: C_27  and  C_28
                            x       y       z     vdW  Elec       q    Type
                         _______ _______ _______ _____ _____    ______ ____

>  <TORSDO>
F 8

$$$$
8tyq
 OpenBabel11072415313D

 39 43  0  0  1  0  0  0  0  0999 V2000
  189.3340  177.2050  144.5550 C   0  0  0  0  0  0  0  0  0  0  0  0
  189.7120  177.9800  143.7820 O   0  0  0  0  0  0  0  0  0  0  0  0
  190.0790  175.9910  144.8970 N   0  0  0  0  0  2  0  0  0  0  0  0
  184.0970  178.4890  146.6120 C   0  0  0  0  0  1  0  0  0  0  0  0
  185.4850  178.1530  146.1120 C   0  0  0  0  0  0  0  0  0  0  0  0
  185.7030  177.9890  144.7710 C   0  0  0  0  0  0  0  0  0  0  0  0
  186.9400  177.6910  144.2750 C   0  0  0  0  0  3  0  0  0  0  0  0
  187.9790  177.5570  145.1560 C   0  0  0  0  0  0  0  0  0  0  0  0
  187.7870  177.7030  146.5090 C   0  0  0  0  0  3  0  0  0  0  0  0
  186.5280  178.0100  146.9910 C   0  0  0  0  0  3  0  0  0  0  0  0
  184.5400  178.1500  143.8240 C   0  0  0  0  0  0  0  0  0  0  0  0
  183.6340  178.2920  143.0880 C   0  0  0  0  0  0  0  0  0  0  0  0
  182.4540  178.4680  142.1560 C   0  0  2  0  0  3  0  0  0  0  0  0
  181.3160  179.1200  142.5370 C   0  0  0  0  0  3  0  0  0  0  0  0
  180.3620  179.1970  141.6250 C   0  0  0  0  0  0  0  0  0  0  0  0
  180.4960  178.6540  140.3440 C   0  0  0  0  0  0  0  0  0  0  0  0
  179.2450  179.0030  139.7810 N   0  0  0  0  0  0  0  0  0  0  0  0
  178.3470  179.6590  140.4450 N   0  0  0  0  0  0  0  0  0  0  0  0
  179.0440  179.7360  141.4870 C   0  0  0  0  0  3  0  0  0  0  0  0
  181.5700  178.0210  139.9530 N   0  0  0  0  0  0  0  0  0  0  0  0
  182.5790  177.9190  140.8610 C   0  0  0  0  0  3  0  0  0  0  0  0
  191.3940  175.6700  144.2830 C   0  0  0  0  0  0  0  0  0  0  0  0
  191.4550  175.1250  143.0230 C   0  0  0  0  0  3  0  0  0  0  0  0
  192.6550  174.7950  142.4050 C   0  0  0  0  0  0  0  0  0  0  0  0
  193.8830  175.0300  143.0700 C   0  0  0  0  0  0  0  0  0  0  0  0
  193.8050  175.6150  144.3360 C   0  0  0  0  0  3  0  0  0  0  0  0
  192.5800  175.9160  144.9430 C   0  0  0  0  0  3  0  0  0  0  0  0
  192.5820  174.1880  141.0210 C   0  0  0  0  0  0  0  0  0  0  0  0
  193.3470  174.8870  140.1590 F   0  0  0  0  0  0  0  0  0  0  0  0
  193.0400  172.9290  141.0740 F   0  0  0  0  0  0  0  0  0  0  0  0
  191.2930  174.1640  140.6410 F   0  0  0  0  0  0  0  0  0  0  0  0
  195.2500  174.7000  142.3510 C   0  0  0  0  0  2  0  0  0  0  0  0
  195.9770  173.6310  142.7100 N   0  0  0  0  0  0  0  0  0  0  0  0
  197.0170  174.0070  143.3960 C   0  0  0  0  0  2  0  0  0  0  0  0
  197.8900  172.8580  143.9210 C   0  0  0  0  0  2  0  0  0  0  0  0
  197.1390  171.9910  144.5530 N   0  0  0  0  0  0  0  0  0  0  0  0
  196.2960  171.5910  143.6660 C   0  0  0  0  0  2  0  0  0  0  0  0
  195.3380  172.7130  143.3290 C   0  0  0  0  0  2  0  0  0  0  0  0
  197.8450  170.9740  144.9390 C   0  0  0  0  0  1  0  0  0  0  0  0
  1  3  1  0  0  0  0
  1  8  1  0  0  0  0
  2  1  2  0  0  0  0
  5  4  1  0  0  0  0
  5 10  1  0  0  0  0
  6  5  2  0  0  0  0
  7  6  1  0  0  0  0
  7  8  2  0  0  0  0
  8  9  1  0  0  0  0
  9 10  2  0  0  0  0
 11  6  1  0  0  0  0
 12 11  3  0  0  0  0
 13 14  1  0  0  0  0
 13 12  1  1  0  0  0
 15 14  2  0  0  0  0
 16 15  1  0  0  0  0
 17 16  2  0  0  0  0
 17 18  1  0  0  0  0
 18 19  2  0  0  0  0
 19 15  1  0  0  0  0
 20 16  1  0  0  0  0
 20 21  2  0  0  0  0
 21 13  1  0  0  0  0
 22  3  1  0  0  0  0
 22 27  1  0  0  0  0
 23 22  2  0  0  0  0
 24 23  1  0  0  0  0
 24 25  2  0  0  0  0
 25 26  1  0  0  0  0
 26 27  2  0  0  0  0
 28 30  1  0  0  0  0
 28 24  1  0  0  0  0
 29 28  1  0  0  0  0
 31 28  1  0  0  0  0
 32 33  1  0  0  0  0
 32 25  1  0  0  0  0
 33 38  1  0  0  0  0
 33 34  1  0  0  0  0
 34 35  1  0  0  0  0
 35 36  1  0  0  0  0
 36 39  1  0  0  0  0
 37 36  1  0  0  0  0
 38 37  1  0  0  0  0
M  END
>  <MODEL>
6

>  <REMARK>
 VINA RESULT:      -6.8      2.153      2.885
  Name = 8tyq
  8 active torsions:
  status: ('A' for Active; 'I' for Inactive)
    1  A    between atoms: C_3  and  C_26
    2  A    between atoms: C_5  and  C_8
    3  A    between atoms: N_10  and  C_11
    4  A    between atoms: C_13  and  C_25
    5  A    between atoms: C_14  and  C_17
    6  A    between atoms: C_17  and  N_18
    7  A    between atoms: C_26  and  C_27
    8  A    between atoms: C_27  and  C_28
                            x       y       z     vdW  Elec       q    Type
                         _______ _______ _______ _____ _____    ______ ____

>  <TORSDO>
F 8

$$$$
8tyq
 OpenBabel11072415313D

 39 43  0  0  1  0  0  0  0  0999 V2000
  188.0280  176.3760  142.4290 C   0  0  0  0  0  0  0  0  0  0  0  0
  188.8390  177.0880  142.0090 O   0  0  0  0  0  0  0  0  0  0  0  0
  188.0180  174.9360  142.1630 N   0  0  0  0  0  2  0  0  0  0  0  0
  183.8330  179.0180  145.3830 C   0  0  0  0  0  1  0  0  0  0  0  0
  184.9580  178.3270  144.6430 C   0  0  0  0  0  0  0  0  0  0  0  0
  184.7900  177.9680  143.3340 C   0  0  0  0  0  0  0  0  0  0  0  0
  185.7790  177.3490  142.6250 C   0  0  0  0  0  3  0  0  0  0  0  0
  186.9640  177.0860  143.2560 C   0  0  0  0  0  0  0  0  0  0  0  0
  187.1570  177.4230  144.5750 C   0  0  0  0  0  3  0  0  0  0  0  0
  186.1450  178.0550  145.2730 C   0  0  0  0  0  3  0  0  0  0  0  0
  183.4740  178.2770  142.6630 C   0  0  0  0  0  0  0  0  0  0  0  0
  182.4500  178.5040  142.1310 C   0  0  0  0  0  0  0  0  0  0  0  0
  181.1350  178.8190  141.4510 C   0  0  2  0  0  3  0  0  0  0  0  0
  180.9510  179.9500  140.7090 C   0  0  0  0  0  3  0  0  0  0  0  0
  179.7510  180.1020  140.1740 C   0  0  0  0  0  0  0  0  0  0  0  0
  178.7250  179.1680  140.3460 C   0  0  0  0  0  0  0  0  0  0  0  0
  177.6910  179.7770  139.5950 N   0  0  0  0  0  0  0  0  0  0  0  0
  177.8560  180.9060  138.9790 N   0  0  0  0  0  0  0  0  0  0  0  0
  179.0480  181.0380  139.3530 C   0  0  0  0  0  3  0  0  0  0  0  0
  178.8690  178.0800  141.0550 N   0  0  0  0  0  0  0  0  0  0  0  0
  180.0910  177.8830  141.6220 C   0  0  0  0  0  3  0  0  0  0  0  0
  189.0640  174.2750  141.3410 C   0  0  0  0  0  0  0  0  0  0  0  0
  188.8550  174.0560  140.0000 C   0  0  0  0  0  3  0  0  0  0  0  0
  189.7940  173.4330  139.1860 C   0  0  0  0  0  0  0  0  0  0  0  0
  191.0300  173.0060  139.7270 C   0  0  0  0  0  0  0  0  0  0  0  0
  191.2400  173.2650  141.0850 C   0  0  0  0  0  3  0  0  0  0  0  0
  190.2670  173.8740  141.8850 C   0  0  0  0  0  3  0  0  0  0  0  0
  189.4340  173.2410  137.7290 C   0  0  0  0  0  0  0  0  0  0  0  0
  189.5320  171.9410  137.3870 F   0  0  0  0  0  0  0  0  0  0  0  0
  188.1680  173.6390  137.5370 F   0  0  0  0  0  0  0  0  0  0  0  0
  190.2470  174.0170  136.9900 F   0  0  0  0  0  0  0  0  0  0  0  0
  192.1170  172.3410  138.7950 C   0  0  0  0  0  2  0  0  0  0  0  0
  193.2820  172.9590  138.5450 N   0  0  0  0  0  0  0  0  0  0  0  0
  193.1210  174.2490  138.5840 C   0  0  0  0  0  2  0  0  0  0  0  0
  194.4070  175.0640  138.3790 C   0  0  0  0  0  2  0  0  0  0  0  0
  195.3330  174.6330  139.1990 N   0  0  0  0  0  0  0  0  0  0  0  0
  195.4900  173.3950  138.8820 C   0  0  0  0  0  2  0  0  0  0  0  0
  194.2620  172.6050  139.2850 C   0  0  0  0  0  2  0  0  0  0  0  0
  196.4500  175.2560  138.9890 C   0  0  0  0  0  1  0  0  0  0  0  0
  1  8  1  0  0  0  0
  2  1  2  0  0  0  0
  3  1  1  0  0  0  0
  5 10  1  0  0  0  0
  5  4  1  0  0  0  0
  6  5  2  0  0  0  0
  7  8  2  0  0  0  0
  7  6  1  0  0  0  0
  8  9  1  0  0  0  0
  9 10  2  0  0  0  0
 11  6  1  0  0  0  0
 12 11  3  0  0  0  0
 13 21  1  0  0  0  0
 13 12  1  1  0  0  0
 14 13  1  0  0  0  0
 15 16  1  0  0  0  0
 15 14  2  0  0  0  0
 16 20  1  0  0  0  0
 17 16  2  0  0  0  0
 18 19  2  0  0  0  0
 18 17  1  0  0  0  0
 19 15  1  0  0  0  0
 20 21  2  0  0  0  0
 22 27  1  0  0  0  0
 22  3  1  0  0  0  0
 23 22  2  0  0  0  0
 24 25  2  0  0  0  0
 24 23  1  0  0  0  0
 25 26  1  0  0  0  0
 26 27  2  0  0  0  0
 28 24  1  0  0  0  0
 29 28  1  0  0  0  0
 30 28  1  0  0  0  0
 31 28  1  0  0  0  0
 32 25  1  0  0  0  0
 33 34  1  0  0  0  0
 33 32  1  0  0  0  0
 33 38  1  0  0  0  0
 35 34  1  0  0  0  0
 35 36  1  0  0  0  0
 37 36  1  0  0  0  0
 37 38  1  0  0  0  0
 39 36  1  0  0  0  0
M  END
>  <MODEL>
7

>  <REMARK>
 VINA RESULT:      -6.6      3.905      4.682
  Name = 8tyq
  8 active torsions:
  status: ('A' for Active; 'I' for Inactive)
    1  A    between atoms: C_3  and  C_26
    2  A    between atoms: C_5  and  C_8
    3  A    between atoms: N_10  and  C_11
    4  A    between atoms: C_13  and  C_25
    5  A    between atoms: C_14  and  C_17
    6  A    between atoms: C_17  and  N_18
    7  A    between atoms: C_26  and  C_27
    8  A    between atoms: C_27  and  C_28
                            x       y       z     vdW  Elec       q    Type
                         _______ _______ _______ _____ _____    ______ ____

>  <TORSDO>
F 8

$$$$
8tyq
 OpenBabel11072415313D

 39 43  0  0  1  0  0  0  0  0999 V2000
  182.8650  178.6060  142.9000 C   0  0  0  0  0  0  0  0  0  0  0  0
  183.3270  178.2750  141.8920 O   0  0  0  0  0  0  0  0  0  0  0  0
  181.4620  179.0040  143.0410 N   0  0  0  0  0  2  0  0  0  0  0  0
  186.8200  178.5950  147.1030 C   0  0  0  0  0  1  0  0  0  0  0  0
  185.7540  178.6130  146.0290 C   0  0  0  0  0  0  0  0  0  0  0  0
  186.0610  178.1980  144.7610 C   0  0  0  0  0  0  0  0  0  0  0  0
  185.1300  178.1910  143.7620 C   0  0  0  0  0  3  0  0  0  0  0  0
  183.8610  178.6140  144.0530 C   0  0  0  0  0  0  0  0  0  0  0  0
  183.5280  179.0490  145.3130 C   0  0  0  0  0  3  0  0  0  0  0  0
  184.4840  179.0430  146.3120 C   0  0  0  0  0  3  0  0  0  0  0  0
  187.4660  177.7310  144.4730 C   0  0  0  0  0  0  0  0  0  0  0  0
  188.5600  177.3570  144.2620 C   0  0  0  0  0  0  0  0  0  0  0  0
  189.9720  176.8710  144.0120 C   0  0  2  0  0  3  0  0  0  0  0  0
  191.0220  177.2430  144.8010 C   0  0  0  0  0  3  0  0  0  0  0  0
  192.2010  176.7480  144.4670 C   0  0  0  0  0  0  0  0  0  0  0  0
  192.3780  175.8910  143.3760 C   0  0  0  0  0  0  0  0  0  0  0  0
  193.7710  175.6540  143.4550 N   0  0  0  0  0  0  0  0  0  0  0  0
  194.5120  176.1850  144.3760 N   0  0  0  0  0  0  0  0  0  0  0  0
  193.5580  176.7980  144.9160 C   0  0  0  0  0  3  0  0  0  0  0  0
  191.3940  175.5220  142.6000 N   0  0  0  0  0  0  0  0  0  0  0  0
  190.1610  176.0070  142.9090 C   0  0  0  0  0  3  0  0  0  0  0  0
  180.5180  178.9980  141.8940 C   0  0  0  0  0  0  0  0  0  0  0  0
  180.3040  180.1440  141.1670 C   0  0  0  0  0  3  0  0  0  0  0  0
  179.4250  180.1980  140.0920 C   0  0  0  0  0  0  0  0  0  0  0  0
  178.7150  179.0380  139.6970 C   0  0  0  0  0  0  0  0  0  0  0  0
  178.9690  177.8730  140.4260 C   0  0  0  0  0  3  0  0  0  0  0  0
  179.8430  177.8540  141.5190 C   0  0  0  0  0  3  0  0  0  0  0  0
  179.2700  181.5260  139.3850 C   0  0  0  0  0  0  0  0  0  0  0  0
  178.8590  181.3400  138.1150 F   0  0  0  0  0  0  0  0  0  0  0  0
  178.3480  182.2570  140.0280 F   0  0  0  0  0  0  0  0  0  0  0  0
  180.4490  182.1710  139.4410 F   0  0  0  0  0  0  0  0  0  0  0  0
  177.7520  179.0850  138.4470 C   0  0  0  0  0  2  0  0  0  0  0  0
  177.6910  178.0580  137.5840 N   0  0  0  0  0  0  0  0  0  0  0  0
  177.6940  178.5010  136.3610 C   0  0  0  0  0  2  0  0  0  0  0  0
  177.6960  177.4080  135.2820 C   0  0  0  0  0  2  0  0  0  0  0  0
  178.6600  176.5550  135.5250 N   0  0  0  0  0  0  0  0  0  0  0  0
  178.3810  176.0830  136.6910 C   0  0  0  0  0  2  0  0  0  0  0  0
  178.5840  177.1570  137.7390 C   0  0  0  0  0  2  0  0  0  0  0  0
  178.6320  175.5820  134.6700 C   0  0  0  0  0  1  0  0  0  0  0  0
  1  3  1  0  0  0  0
  1  8  1  0  0  0  0
  2  1  2  0  0  0  0
  5 10  1  0  0  0  0
  5  4  1  0  0  0  0
  6  5  2  0  0  0  0
  7  8  2  0  0  0  0
  7  6  1  0  0  0  0
  8  9  1  0  0  0  0
  9 10  2  0  0  0  0
 11  6  1  0  0  0  0
 12 11  3  0  0  0  0
 13 12  1  6  0  0  0
 13 14  1  0  0  0  0
 15 14  2  0  0  0  0
 15 19  1  0  0  0  0
 16 17  2  0  0  0  0
 16 15  1  0  0  0  0
 17 18  1  0  0  0  0
 18 19  2  0  0  0  0
 20 21  2  0  0  0  0
 20 16  1  0  0  0  0
 21 13  1  0  0  0  0
 22  3  1  0  0  0  0
 23 22  2  0  0  0  0
 24 23  1  0  0  0  0
 25 24  2  0  0  0  0
 25 26  1  0  0  0  0
 26 27  2  0  0  0  0
 27 22  1  0  0  0  0
 28 31  1  0  0  0  0
 28 30  1  0  0  0  0
 28 24  1  0  0  0  0
 29 28  1  0  0  0  0
 32 25  1  0  0  0  0
 33 38  1  0  0  0  0
 33 32  1  0  0  0  0
 34 33  1  0  0  0  0
 35 36  1  0  0  0  0
 35 34  1  0  0  0  0
 36 37  1  0  0  0  0
 37 38  1  0  0  0  0
 39 36  1  0  0  0  0
M  END
>  <MODEL>
8

>  <REMARK>
 VINA RESULT:      -6.5      5.725     13.526
  Name = 8tyq
  8 active torsions:
  status: ('A' for Active; 'I' for Inactive)
    1  A    between atoms: C_3  and  C_26
    2  A    between atoms: C_5  and  C_8
    3  A    between atoms: N_10  and  C_11
    4  A    between atoms: C_13  and  C_25
    5  A    between atoms: C_14  and  C_17
    6  A    between atoms: C_17  and  N_18
    7  A    between atoms: C_26  and  C_27
    8  A    between atoms: C_27  and  C_28
                            x       y       z     vdW  Elec       q    Type
                         _______ _______ _______ _____ _____    ______ ____

>  <TORSDO>
F 8

$$$$
8tyq
 OpenBabel11072415313D

 39 43  0  0  1  0  0  0  0  0999 V2000
  184.6420  177.8990  143.6630 C   0  0  0  0  0  0  0  0  0  0  0  0
  184.8230  177.2190  142.7440 O   0  0  0  0  0  0  0  0  0  0  0  0
  183.4510  178.7390  143.8100 N   0  0  0  0  0  2  0  0  0  0  0  0
  189.0820  177.7180  147.3440 C   0  0  0  0  0  1  0  0  0  0  0  0
  187.8930  177.7760  146.4110 C   0  0  0  0  0  0  0  0  0  0  0  0
  188.0570  177.4930  145.0830 C   0  0  0  0  0  0  0  0  0  0  0  0
  187.0110  177.5270  144.2060 C   0  0  0  0  0  3  0  0  0  0  0  0
  185.7710  177.8560  144.6840 C   0  0  0  0  0  0  0  0  0  0  0  0
  185.5790  178.1570  146.0110 C   0  0  0  0  0  3  0  0  0  0  0  0
  186.6500  178.1120  146.8840 C   0  0  0  0  0  3  0  0  0  0  0  0
  189.4340  177.1280  144.5860 C   0  0  0  0  0  0  0  0  0  0  0  0
  190.5130  176.8490  144.2120 C   0  0  0  0  0  0  0  0  0  0  0  0
  191.8960  176.4690  143.7280 C   0  0  2  0  0  3  0  0  0  0  0  0
  193.0250  176.7770  144.4330 C   0  0  0  0  0  3  0  0  0  0  0  0
  194.1670  176.3900  143.8920 C   0  0  0  0  0  0  0  0  0  0  0  0
  194.2320  175.7020  142.6770 C   0  0  0  0  0  0  0  0  0  0  0  0
  195.6310  175.5230  142.5540 N   0  0  0  0  0  0  0  0  0  0  0  0
  196.4650  175.9540  143.4470 N   0  0  0  0  0  0  0  0  0  0  0  0
  195.5670  176.4410  144.1790 C   0  0  0  0  0  3  0  0  0  0  0  0
  193.1710  175.3990  141.9780 N   0  0  0  0  0  0  0  0  0  0  0  0
  191.9720  175.7780  142.4990 C   0  0  0  0  0  3  0  0  0  0  0  0
  182.3720  178.7690  142.7900 C   0  0  0  0  0  0  0  0  0  0  0  0
  181.0580  178.8960  143.1740 C   0  0  0  0  0  3  0  0  0  0  0  0
  180.0080  178.9190  142.2640 C   0  0  0  0  0  0  0  0  0  0  0  0
  180.2710  178.8210  140.8760 C   0  0  0  0  0  0  0  0  0  0  0  0
  181.6130  178.7260  140.5000 C   0  0  0  0  0  3  0  0  0  0  0  0
  182.6490  178.6830  141.4410 C   0  0  0  0  0  3  0  0  0  0  0  0
  178.6080  179.0500  142.8190 C   0  0  0  0  0  0  0  0  0  0  0  0
  177.9990  180.1410  142.3140 F   0  0  0  0  0  0  0  0  0  0  0  0
  177.8980  177.9660  142.4710 F   0  0  0  0  0  0  0  0  0  0  0  0
  178.6910  179.0980  144.1610 F   0  0  0  0  0  0  0  0  0  0  0  0
  179.0840  178.8940  139.8370 C   0  0  0  0  0  2  0  0  0  0  0  0
  178.6210  180.0770  139.4020 N   0  0  0  0  0  0  0  0  0  0  0  0
  179.5280  180.9960  139.5560 C   0  0  0  0  0  2  0  0  0  0  0  0
  179.1330  182.3840  139.0280 C   0  0  0  0  0  2  0  0  0  0  0  0
  178.7090  182.2770  137.7940 N   0  0  0  0  0  0  0  0  0  0  0  0
  177.6980  181.4840  137.8700 C   0  0  0  0  0  2  0  0  0  0  0  0
  178.1700  180.0850  138.2060 C   0  0  0  0  0  2  0  0  0  0  0  0
  178.2980  183.4250  137.3540 C   0  0  0  0  0  1  0  0  0  0  0  0
  1  3  1  0  0  0  0
  1  8  1  0  0  0  0
  2  1  2  0  0  0  0
  5 10  1  0  0  0  0
  5  4  1  0  0  0  0
  6  5  2  0  0  0  0
  7  8  2  0  0  0  0
  7  6  1  0  0  0  0
  8  9  1  0  0  0  0
  9 10  2  0  0  0  0
 11  6  1  0  0  0  0
 12 11  3  0  0  0  0
 13 12  1  6  0  0  0
 13 14  1  0  0  0  0
 15 19  1  0  0  0  0
 15 14  2  0  0  0  0
 16 15  1  0  0  0  0
 17 16  2  0  0  0  0
 17 18  1  0  0  0  0
 18 19  2  0  0  0  0
 20 21  2  0  0  0  0
 20 16  1  0  0  0  0
 21 13  1  0  0  0  0
 22 23  1  0  0  0  0
 22  3  1  0  0  0  0
 24 28  1  0  0  0  0
 24 23  2  0  0  0  0
 25 24  1  0  0  0  0
 26 25  2  0  0  0  0
 26 27  1  0  0  0  0
 27 22  2  0  0  0  0
 28 31  1  0  0  0  0
 29 28  1  0  0  0  0
 30 28  1  0  0  0  0
 32 25  1  0  0  0  0
 33 34  1  0  0  0  0
 33 32  1  0  0  0  0
 35 34  1  0  0  0  0
 36 37  1  0  0  0  0
 36 35  1  0  0  0  0
 37 38  1  0  0  0  0
 38 33  1  0  0  0  0
 39 36  1  0  0  0  0
M  END
>  <MODEL>
9

>  <REMARK>
 VINA RESULT:      -6.5      5.178     13.489
  Name = 8tyq
  8 active torsions:
  status: ('A' for Active; 'I' for Inactive)
    1  A    between atoms: C_3  and  C_26
    2  A    between atoms: C_5  and  C_8
    3  A    between atoms: N_10  and  C_11
    4  A    between atoms: C_13  and  C_25
    5  A    between atoms: C_14  and  C_17
    6  A    between atoms: C_17  and  N_18
    7  A    between atoms: C_26  and  C_27
    8  A    between atoms: C_27  and  C_28
                            x       y       z     vdW  Elec       q    Type
                         _______ _______ _______ _____ _____    ______ ____

>  <TORSDO>
F 8

$$$$
