7li3
 OpenBabel11072415313D

 31 33  0  0  1  0  0  0  0  0999 V2000
  191.0210  176.5720  145.6050 C   0  0  1  0  0  3  0  0  0  0  0  0
  190.3130  177.5760  144.8880 O   0  0  0  0  0  0  0  0  0  0  0  0
  190.0090  175.5350  146.0510 C   0  0  1  0  0  3  0  0  0  0  0  0
  190.0060  175.5000  147.4760 O   0  0  0  0  0  1  0  0  0  0  0  0
  188.6630  176.0320  145.5790 C   0  0  1  0  0  3  0  0  0  0  0  0
  187.7540  176.0690  146.6800 O   0  0  0  0  0  1  0  0  0  0  0  0
  188.9110  177.4390  145.0760 C   0  0  2  0  0  3  0  0  0  0  0  0
  184.3710  178.3070  142.6690 N   0  0  0  0  0  0  0  0  0  0  0  0
  184.6500  178.1640  143.9760 C   0  0  0  0  0  3  0  0  0  0  0  0
  185.8820  177.9400  144.4560 N   0  0  0  0  0  0  0  0  0  0  0  0
  186.9350  177.8460  143.6180 C   0  0  0  0  0  0  0  0  0  0  0  0
  186.7190  177.9950  142.1780 C   0  0  0  0  0  0  0  0  0  0  0  0
  185.3340  178.2360  141.7250 C   0  0  0  0  0  0  0  0  0  0  0  0
  185.0500  178.3820  140.4110 N   0  0  0  0  0  1  0  0  0  0  0  0
  187.9190  177.8620  141.5900 N   0  0  0  0  0  0  0  0  0  0  0  0
  188.8270  177.6480  142.5730 C   0  0  0  0  0  3  0  0  0  0  0  0
  188.2360  177.6410  143.7780 N   0  0  0  0  0  0  0  0  0  0  0  0
  192.1080  175.9820  144.7230 C   0  0  0  0  0  2  0  0  0  0  0  0
  191.6250  175.9270  143.3890 O   0  0  0  0  0  0  0  0  0  0  0  0
  191.4890  174.5010  142.6700 P   0  0  1  0  0  0  0  0  0  0  0  0
  191.9970  174.6150  141.2550 O   0  0  0  0  0  0  0  0  0  0  0  0
  192.0190  173.4450  143.6050 O   0  0  0  0  0  1  0  0  0  0  0  0
  189.8910  174.3500  142.6550 O   0  0  0  0  0  0  0  0  0  0  0  0
  189.1800  173.3750  141.5950 P   0  0  1  0  0  0  0  0  0  0  0  0
  190.1840  172.3270  141.1850 O   0  0  0  0  0  0  0  0  0  0  0  0
  187.8370  172.9630  142.1440 O   0  0  0  0  0  1  0  0  0  0  0  0
  188.9610  174.3650  140.3480 O   0  0  0  0  0  0  0  0  0  0  0  0
  188.6590  173.7760  138.8840 P   0  0  0  0  0  0  0  0  0  0  0  0
  190.0260  173.6360  138.2600 O   0  0  0  0  0  1  0  0  0  0  0  0
  187.7890  174.8330  138.2460 O   0  0  0  0  0  0  0  0  0  0  0  0
  187.9630  172.4650  139.1540 O   0  0  0  0  0  1  0  0  0  0  0  0
  1 18  1  6  0  0  0
  1  3  1  0  0  0  0
  2  7  1  0  0  0  0
  2  1  1  0  0  0  0
  3  4  1  1  0  0  0
  5  3  1  0  0  0  0
  5  6  1  1  0  0  0
  7 17  1  6  0  0  0
  7  5  1  0  0  0  0
  8  9  1  0  0  0  0
  9 10  2  0  0  0  0
 11 17  1  0  0  0  0
 11 10  1  0  0  0  0
 12 11  2  0  0  0  0
 13 12  1  0  0  0  0
 13  8  2  0  0  0  0
 14 13  1  0  0  0  0
 15 12  1  0  0  0  0
 15 16  2  0  0  0  0
 16 17  1  0  0  0  0
 19 18  1  0  0  0  0
 20 21  2  6  0  0  0
 20 19  1  0  0  0  0
 20 22  1  0  0  0  0
 23 20  1  0  0  0  0
 24 25  2  6  0  0  0
 24 26  1  0  0  0  0
 24 23  1  0  0  0  0
 27 24  1  0  0  0  0
 28 31  1  0  0  0  0
 28 27  1  0  0  0  0
 29 28  1  0  0  0  0
 30 28  2  0  0  0  0
M  END
>  <MODEL>
1

>  <REMARK>
 VINA RESULT:      -6.4      0.000      0.000
  Name = 7li3
  8 active torsions:
  status: ('A' for Active; 'I' for Inactive)
    1  A    between atoms: P_1  and  O_5
    2  A    between atoms: P_1  and  O_22
    3  A    between atoms: P_2  and  O_22
    4  A    between atoms: P_2  and  O_23
    5  A    between atoms: P_3  and  O_23
    6  A    between atoms: C_4  and  O_5
    7  A    between atoms: C_4  and  C_6
    8  A    between atoms: C_12  and  N_31
                            x       y       z     vdW  Elec       q    Type
                         _______ _______ _______ _____ _____    ______ ____

>  <TORSDO>
F 8

$$$$
7li3
 OpenBabel11072415313D

 31 33  0  0  1  0  0  0  0  0999 V2000
  188.1580  177.3550  146.7910 C   0  0  1  0  0  3  0  0  0  0  0  0
  188.2340  177.9610  145.5060 O   0  0  0  0  0  0  0  0  0  0  0  0
  186.8340  176.6230  146.8690 C   0  0  1  0  0  3  0  0  0  0  0  0
  186.0650  177.2040  147.9200 O   0  0  0  0  0  1  0  0  0  0  0  0
  186.1320  176.8830  145.5580 C   0  0  1  0  0  3  0  0  0  0  0  0
  184.8250  177.4000  145.8100 O   0  0  0  0  0  1  0  0  0  0  0  0
  186.9690  177.9340  144.8590 C   0  0  2  0  0  3  0  0  0  0  0  0
  184.9100  177.9490  140.0720 N   0  0  0  0  0  0  0  0  0  0  0  0
  184.4130  178.4050  141.2350 C   0  0  0  0  0  3  0  0  0  0  0  0
  185.0640  178.3310  142.4040 N   0  0  0  0  0  0  0  0  0  0  0  0
  186.2930  177.7770  142.4690 C   0  0  0  0  0  0  0  0  0  0  0  0
  186.9090  177.2590  141.2460 C   0  0  0  0  0  0  0  0  0  0  0  0
  186.1290  177.3740  139.9970 C   0  0  0  0  0  0  0  0  0  0  0  0
  186.6260  176.9170  138.8260 N   0  0  0  0  0  1  0  0  0  0  0  0
  188.1120  176.7750  141.5940 N   0  0  0  0  0  0  0  0  0  0  0  0
  188.2540  176.9680  142.9280 C   0  0  0  0  0  3  0  0  0  0  0  0
  187.1680  177.5660  143.4430 N   0  0  0  0  0  0  0  0  0  0  0  0
  189.3480  176.4320  146.9930 C   0  0  0  0  0  2  0  0  0  0  0  0
  190.3280  176.7410  146.0130 O   0  0  0  0  0  0  0  0  0  0  0  0
  191.1870  175.5490  145.3720 P   0  0  1  0  0  0  0  0  0  0  0  0
  191.4430  175.8560  143.9180 O   0  0  0  0  0  0  0  0  0  0  0  0
  192.3210  175.2220  146.3090 O   0  0  0  0  0  1  0  0  0  0  0  0
  190.1260  174.3500  145.4890 O   0  0  0  0  0  0  0  0  0  0  0  0
  190.2030  173.1000  144.4820 P   0  0  1  0  0  0  0  0  0  0  0  0
  191.6360  172.9570  144.0320 O   0  0  0  0  0  0  0  0  0  0  0  0
  189.4850  171.9310  145.1080 O   0  0  0  0  0  1  0  0  0  0  0  0
  189.3450  173.6420  143.2350 O   0  0  0  0  0  0  0  0  0  0  0  0
  189.3250  172.8330  141.8470 P   0  0  0  0  0  0  0  0  0  0  0  0
  190.2870  173.5930  140.9690 O   0  0  0  0  0  0  0  0  0  0  0  0
  187.8830  172.9150  141.4070 O   0  0  0  0  0  1  0  0  0  0  0  0
  189.7910  171.4480  142.2250 O   0  0  0  0  0  1  0  0  0  0  0  0
  1  3  1  0  0  0  0
  1 18  1  6  0  0  0
  2  1  1  0  0  0  0
  3  4  1  1  0  0  0
  5  6  1  1  0  0  0
  5  3  1  0  0  0  0
  7 17  1  6  0  0  0
  7  2  1  0  0  0  0
  7  5  1  0  0  0  0
  8  9  1  0  0  0  0
  9 10  2  0  0  0  0
 10 11  1  0  0  0  0
 11 17  1  0  0  0  0
 12 15  1  0  0  0  0
 12 11  2  0  0  0  0
 13  8  2  0  0  0  0
 13 12  1  0  0  0  0
 14 13  1  0  0  0  0
 15 16  2  0  0  0  0
 16 17  1  0  0  0  0
 19 18  1  0  0  0  0
 20 21  2  6  0  0  0
 20 23  1  0  0  0  0
 20 19  1  0  0  0  0
 20 22  1  0  0  0  0
 24 25  2  6  0  0  0
 24 26  1  0  0  0  0
 24 23  1  0  0  0  0
 27 24  1  0  0  0  0
 28 31  1  0  0  0  0
 28 27  1  0  0  0  0
 29 28  2  0  0  0  0
 30 28  1  0  0  0  0
M  END
>  <MODEL>
2

>  <REMARK>
 VINA RESULT:      -6.3      1.857      2.844
  Name = 7li3
  8 active torsions:
  status: ('A' for Active; 'I' for Inactive)
    1  A    between atoms: P_1  and  O_5
    2  A    between atoms: P_1  and  O_22
    3  A    between atoms: P_2  and  O_22
    4  A    between atoms: P_2  and  O_23
    5  A    between atoms: P_3  and  O_23
    6  A    between atoms: C_4  and  O_5
    7  A    between atoms: C_4  and  C_6
    8  A    between atoms: C_12  and  N_31
                            x       y       z     vdW  Elec       q    Type
                         _______ _______ _______ _____ _____    ______ ____

>  <TORSDO>
F 8

$$$$
7li3
 OpenBabel11072415313D

 31 33  0  0  1  0  0  0  0  0999 V2000
  188.0610  175.2850  141.8790 C   0  0  1  0  0  3  0  0  0  0  0  0
  189.2100  176.0610  142.1990 O   0  0  0  0  0  0  0  0  0  0  0  0
  188.3810  173.8420  142.2120 C   0  0  1  0  0  3  0  0  0  0  0  0
  188.3110  173.0810  141.0080 O   0  0  0  0  0  1  0  0  0  0  0  0
  189.8090  173.8310  142.7050 C   0  0  1  0  0  3  0  0  0  0  0  0
  190.5650  172.8770  141.9600 O   0  0  0  0  0  1  0  0  0  0  0  0
  190.3350  175.2250  142.4320 C   0  0  2  0  0  3  0  0  0  0  0  0
  194.9990  176.4480  144.4070 N   0  0  0  0  0  0  0  0  0  0  0  0
  194.6650  175.9710  143.1950 C   0  0  0  0  0  3  0  0  0  0  0  0
  193.4060  175.6980  142.8230 N   0  0  0  0  0  0  0  0  0  0  0  0
  192.3820  175.8970  143.6780 C   0  0  0  0  0  0  0  0  0  0  0  0
  192.6590  176.4180  145.0180 C   0  0  0  0  0  0  0  0  0  0  0  0
  194.0710  176.6920  145.3550 C   0  0  0  0  0  0  0  0  0  0  0  0
  194.4110  177.1720  146.5730 N   0  0  0  0  0  1  0  0  0  0  0  0
  191.4770  176.5200  145.6460 N   0  0  0  0  0  0  0  0  0  0  0  0
  190.5230  176.1000  144.7800 C   0  0  0  0  0  3  0  0  0  0  0  0
  191.0680  175.7320  143.6090 N   0  0  0  0  0  0  0  0  0  0  0  0
  186.8590  175.8070  142.6490 C   0  0  0  0  0  2  0  0  0  0  0  0
  186.0940  176.6320  141.7810 O   0  0  0  0  0  0  0  0  0  0  0  0
  185.6840  178.1020  142.2690 P   0  0  1  0  0  0  0  0  0  0  0  0
  186.9320  178.9380  142.4110 O   0  0  0  0  0  1  0  0  0  0  0  0
  184.5220  178.5750  141.4340 O   0  0  0  0  0  0  0  0  0  0  0  0
  185.1020  177.7580  143.7250 O   0  0  0  0  0  0  0  0  0  0  0  0
  185.0100  178.9000  144.8510 P   0  0  1  0  0  0  0  0  0  0  0  0
  185.0190  180.2380  144.1540 O   0  0  0  0  0  0  0  0  0  0  0  0
  183.8940  178.5500  145.8030 O   0  0  0  0  0  1  0  0  0  0  0  0
  186.4210  178.7230  145.6010 O   0  0  0  0  0  0  0  0  0  0  0  0
  186.5840  177.6520  146.7870 P   0  0  0  0  0  0  0  0  0  0  0  0
  185.9230  178.3160  147.9700 O   0  0  0  0  0  1  0  0  0  0  0  0
  188.0800  177.4910  146.9190 O   0  0  0  0  0  1  0  0  0  0  0  0
  185.8600  176.4290  146.2780 O   0  0  0  0  0  0  0  0  0  0  0  0
  1  2  1  0  0  0  0
  1  3  1  0  0  0  0
  1 18  1  1  0  0  0
  2  7  1  0  0  0  0
  3  4  1  6  0  0  0
  3  5  1  0  0  0  0
  5  6  1  6  0  0  0
  7  5  1  0  0  0  0
  7 17  1  1  0  0  0
  8 13  1  0  0  0  0
  9  8  2  0  0  0  0
 10  9  1  0  0  0  0
 10 11  2  0  0  0  0
 11 12  1  0  0  0  0
 12 13  2  0  0  0  0
 12 15  1  0  0  0  0
 13 14  1  0  0  0  0
 16 15  2  0  0  0  0
 17 11  1  0  0  0  0
 17 16  1  0  0  0  0
 19 20  1  0  0  0  0
 19 18  1  0  0  0  0
 20 22  2  6  0  0  0
 20 21  1  0  0  0  0
 20 23  1  0  0  0  0
 23 24  1  0  0  0  0
 24 25  2  6  0  0  0
 24 27  1  0  0  0  0
 24 26  1  0  0  0  0
 27 28  1  0  0  0  0
 28 30  1  0  0  0  0
 28 29  1  0  0  0  0
 31 28  2  0  0  0  0
M  END
>  <MODEL>
3

>  <REMARK>
 VINA RESULT:      -6.3      4.156      7.479
  Name = 7li3
  8 active torsions:
  status: ('A' for Active; 'I' for Inactive)
    1  A    between atoms: P_1  and  O_5
    2  A    between atoms: P_1  and  O_22
    3  A    between atoms: P_2  and  O_22
    4  A    between atoms: P_2  and  O_23
    5  A    between atoms: P_3  and  O_23
    6  A    between atoms: C_4  and  O_5
    7  A    between atoms: C_4  and  C_6
    8  A    between atoms: C_12  and  N_31
                            x       y       z     vdW  Elec       q    Type
                         _______ _______ _______ _____ _____    ______ ____

>  <TORSDO>
F 8

$$$$
7li3
 OpenBabel11072415313D

 31 33  0  0  1  0  0  0  0  0999 V2000
  187.2790  176.1310  141.4680 C   0  0  1  0  0  3  0  0  0  0  0  0
  186.5430  176.3560  142.6640 O   0  0  0  0  0  0  0  0  0  0  0  0
  187.0230  177.3100  140.5500 C   0  0  1  0  0  3  0  0  0  0  0  0
  186.3880  176.8250  139.3690 O   0  0  0  0  0  1  0  0  0  0  0  0
  186.0550  178.2090  141.2810 C   0  0  1  0  0  3  0  0  0  0  0  0
  184.9290  178.4790  140.4470 O   0  0  0  0  0  1  0  0  0  0  0  0
  185.6130  177.4180  142.4940 C   0  0  2  0  0  3  0  0  0  0  0  0
  186.1750  177.5450  147.6730 N   0  0  0  0  0  0  0  0  0  0  0  0
  186.2070  176.5070  146.8190 C   0  0  0  0  0  3  0  0  0  0  0  0
  186.0430  176.6260  145.4930 N   0  0  0  0  0  0  0  0  0  0  0  0
  185.8320  177.8370  144.9370 C   0  0  0  0  0  0  0  0  0  0  0  0
  185.7850  179.0210  145.7970 C   0  0  0  0  0  0  0  0  0  0  0  0
  185.9720  178.8090  147.2470 C   0  0  0  0  0  0  0  0  0  0  0  0
  185.9400  179.8510  148.1090 N   0  0  0  0  0  1  0  0  0  0  0  0
  185.5680  180.0750  144.9930 N   0  0  0  0  0  0  0  0  0  0  0  0
  185.4820  179.6040  143.7260 C   0  0  0  0  0  3  0  0  0  0  0  0
  185.6420  178.2710  143.6980 N   0  0  0  0  0  0  0  0  0  0  0  0
  188.7520  175.9580  141.7970 C   0  0  0  0  0  2  0  0  0  0  0  0
  189.3190  177.2420  142.0090 O   0  0  0  0  0  0  0  0  0  0  0  0
  190.2460  177.4790  143.2940 P   0  0  1  0  0  0  0  0  0  0  0  0
  191.6420  177.8200  142.8370 O   0  0  0  0  0  0  0  0  0  0  0  0
  189.5050  178.3670  144.2600 O   0  0  0  0  0  1  0  0  0  0  0  0
  190.2340  176.0000  143.9200 O   0  0  0  0  0  0  0  0  0  0  0  0
  191.4510  175.5010  144.8410 P   0  0  1  0  0  0  0  0  0  0  0  0
  192.3130  174.5820  144.0110 O   0  0  0  0  0  0  0  0  0  0  0  0
  192.0610  176.6980  145.5260 O   0  0  0  0  0  1  0  0  0  0  0  0
  190.6800  174.6040  145.9300 O   0  0  0  0  0  0  0  0  0  0  0  0
  190.0670  175.2790  147.2540 P   0  0  0  0  0  0  0  0  0  0  0  0
  191.2230  175.2910  148.2230 O   0  0  0  0  0  1  0  0  0  0  0  0
  188.9410  174.3500  147.6390 O   0  0  0  0  0  1  0  0  0  0  0  0
  189.6260  176.6480  146.7950 O   0  0  0  0  0  0  0  0  0  0  0  0
  1 18  1  1  0  0  0
  1  2  1  0  0  0  0
  3  4  1  6  0  0  0
  3  5  1  0  0  0  0
  3  1  1  0  0  0  0
  5  6  1  6  0  0  0
  5  7  1  0  0  0  0
  7  2  1  0  0  0  0
  7 17  1  1  0  0  0
  9  8  2  0  0  0  0
 10  9  1  0  0  0  0
 11 10  2  0  0  0  0
 11 12  1  0  0  0  0
 12 13  2  0  0  0  0
 13  8  1  0  0  0  0
 13 14  1  0  0  0  0
 15 12  1  0  0  0  0
 16 15  2  0  0  0  0
 17 16  1  0  0  0  0
 17 11  1  0  0  0  0
 18 19  1  0  0  0  0
 19 20  1  0  0  0  0
 20 21  2  6  0  0  0
 20 23  1  0  0  0  0
 20 22  1  0  0  0  0
 23 24  1  0  0  0  0
 24 25  2  6  0  0  0
 24 26  1  0  0  0  0
 24 27  1  0  0  0  0
 27 28  1  0  0  0  0
 28 30  1  0  0  0  0
 28 29  1  0  0  0  0
 31 28  2  0  0  0  0
M  END
>  <MODEL>
4

>  <REMARK>
 VINA RESULT:      -6.3      3.091      5.753
  Name = 7li3
  8 active torsions:
  status: ('A' for Active; 'I' for Inactive)
    1  A    between atoms: P_1  and  O_5
    2  A    between atoms: P_1  and  O_22
    3  A    between atoms: P_2  and  O_22
    4  A    between atoms: P_2  and  O_23
    5  A    between atoms: P_3  and  O_23
    6  A    between atoms: C_4  and  O_5
    7  A    between atoms: C_4  and  C_6
    8  A    between atoms: C_12  and  N_31
                            x       y       z     vdW  Elec       q    Type
                         _______ _______ _______ _____ _____    ______ ____

>  <TORSDO>
F 8

$$$$
7li3
 OpenBabel11072415313D

 31 33  0  0  1  0  0  0  0  0999 V2000
  190.0590  174.2200  145.1100 C   0  0  1  0  0  3  0  0  0  0  0  0
  191.4650  174.1270  144.9210 O   0  0  0  0  0  0  0  0  0  0  0  0
  189.8210  175.1250  146.3020 C   0  0  1  0  0  3  0  0  0  0  0  0
  189.1560  174.3680  147.3110 O   0  0  0  0  0  1  0  0  0  0  0  0
  191.1880  175.5130  146.8140 C   0  0  1  0  0  3  0  0  0  0  0  0
  191.2780  175.2170  148.2080 O   0  0  0  0  0  1  0  0  0  0  0  0
  192.1630  174.6470  146.0450 C   0  0  2  0  0  3  0  0  0  0  0  0
  196.2300  174.8740  142.7950 N   0  0  0  0  0  0  0  0  0  0  0  0
  195.3250  173.8980  142.9910 C   0  0  0  0  0  3  0  0  0  0  0  0
  194.3200  173.9800  143.8750 N   0  0  0  0  0  0  0  0  0  0  0  0
  194.1650  175.0850  144.6330 C   0  0  0  0  0  0  0  0  0  0  0  0
  195.1050  176.1970  144.4800 C   0  0  0  0  0  0  0  0  0  0  0  0
  196.1870  176.0320  143.4880 C   0  0  0  0  0  0  0  0  0  0  0  0
  197.0980  177.0110  143.2870 N   0  0  0  0  0  1  0  0  0  0  0  0
  194.7190  177.1520  145.3410 N   0  0  0  0  0  0  0  0  0  0  0  0
  193.6240  176.6900  145.9910 C   0  0  0  0  0  3  0  0  0  0  0  0
  193.2970  175.4600  145.5640 N   0  0  0  0  0  0  0  0  0  0  0  0
  189.4040  174.7430  143.8420 C   0  0  0  0  0  2  0  0  0  0  0  0
  189.6690  176.1340  143.7400 O   0  0  0  0  0  0  0  0  0  0  0  0
  188.6490  177.0610  142.9230 P   0  0  1  0  0  0  0  0  0  0  0  0
  189.4250  178.1520  142.2300 O   0  0  0  0  0  1  0  0  0  0  0  0
  187.7050  176.1710  142.1570 O   0  0  0  0  0  0  0  0  0  0  0  0
  187.8110  177.6890  144.1400 O   0  0  0  0  0  0  0  0  0  0  0  0
  186.3010  178.1880  143.9110 P   0  0  1  0  0  0  0  0  0  0  0  0
  186.2890  179.0800  142.6950 O   0  0  0  0  0  0  0  0  0  0  0  0
  185.3820  176.9950  143.9850 O   0  0  0  0  0  1  0  0  0  0  0  0
  186.0720  179.1130  145.2050 O   0  0  0  0  0  0  0  0  0  0  0  0
  185.5280  178.4760  146.5770 P   0  0  0  0  0  0  0  0  0  0  0  0
  185.8680  179.5140  147.6180 O   0  0  0  0  0  1  0  0  0  0  0  0
  186.3040  177.1880  146.7050 O   0  0  0  0  0  1  0  0  0  0  0  0
  184.0480  178.3000  146.3360 O   0  0  0  0  0  0  0  0  0  0  0  0
  1 18  1  6  0  0  0
  1  3  1  0  0  0  0
  2  1  1  0  0  0  0
  2  7  1  0  0  0  0
  3  5  1  0  0  0  0
  3  4  1  1  0  0  0
  5  6  1  1  0  0  0
  7 17  1  6  0  0  0
  7  5  1  0  0  0  0
  8  9  2  0  0  0  0
  8 13  1  0  0  0  0
  9 10  1  0  0  0  0
 10 11  2  0  0  0  0
 11 17  1  0  0  0  0
 12 11  1  0  0  0  0
 12 15  1  0  0  0  0
 13 12  2  0  0  0  0
 14 13  1  0  0  0  0
 15 16  2  0  0  0  0
 17 16  1  0  0  0  0
 19 18  1  0  0  0  0
 20 22  2  6  0  0  0
 20 19  1  0  0  0  0
 20 23  1  0  0  0  0
 21 20  1  0  0  0  0
 24 25  2  6  0  0  0
 24 26  1  0  0  0  0
 24 23  1  0  0  0  0
 24 27  1  0  0  0  0
 27 28  1  0  0  0  0
 28 30  1  0  0  0  0
 28 29  1  0  0  0  0
 31 28  2  0  0  0  0
M  END
>  <MODEL>
5

>  <REMARK>
 VINA RESULT:      -6.2      4.657      7.348
  Name = 7li3
  8 active torsions:
  status: ('A' for Active; 'I' for Inactive)
    1  A    between atoms: P_1  and  O_5
    2  A    between atoms: P_1  and  O_22
    3  A    between atoms: P_2  and  O_22
    4  A    between atoms: P_2  and  O_23
    5  A    between atoms: P_3  and  O_23
    6  A    between atoms: C_4  and  O_5
    7  A    between atoms: C_4  and  C_6
    8  A    between atoms: C_12  and  N_31
                            x       y       z     vdW  Elec       q    Type
                         _______ _______ _______ _____ _____    ______ ____

>  <TORSDO>
F 8

$$$$
7li3
 OpenBabel11072415313D

 31 33  0  0  1  0  0  0  0  0999 V2000
  188.1530  177.1570  146.7460 C   0  0  1  0  0  3  0  0  0  0  0  0
  188.2950  177.7960  145.4840 O   0  0  0  0  0  0  0  0  0  0  0  0
  186.7630  176.5550  146.7960 C   0  0  1  0  0  3  0  0  0  0  0  0
  186.0490  177.1730  147.8650 O   0  0  0  0  0  1  0  0  0  0  0  0
  186.0970  176.9290  145.4930 C   0  0  1  0  0  3  0  0  0  0  0  0
  184.8460  177.5630  145.7610 O   0  0  0  0  0  1  0  0  0  0  0  0
  187.0370  177.9160  144.8330 C   0  0  2  0  0  3  0  0  0  0  0  0
  184.8500  177.9650  140.1040 N   0  0  0  0  0  0  0  0  0  0  0  0
  184.3720  178.3870  141.2880 C   0  0  0  0  0  3  0  0  0  0  0  0
  185.0570  178.3090  142.4380 N   0  0  0  0  0  0  0  0  0  0  0  0
  186.3000  177.7850  142.4590 C   0  0  0  0  0  0  0  0  0  0  0  0
  186.8960  177.3050  141.2110 C   0  0  0  0  0  0  0  0  0  0  0  0
  186.0800  177.4230  139.9860 C   0  0  0  0  0  0  0  0  0  0  0  0
  186.5570  177.0010  138.7930 N   0  0  0  0  0  1  0  0  0  0  0  0
  188.1200  176.8460  141.5180 N   0  0  0  0  0  0  0  0  0  0  0  0
  188.2930  177.0180  142.8510 C   0  0  0  0  0  3  0  0  0  0  0  0
  187.2070  177.5790  143.4060 N   0  0  0  0  0  0  0  0  0  0  0  0
  189.2450  176.1140  146.9190 C   0  0  0  0  0  2  0  0  0  0  0  0
  190.2750  176.3830  145.9780 O   0  0  0  0  0  0  0  0  0  0  0  0
  191.5300  175.3890  145.8960 P   0  0  1  0  0  0  0  0  0  0  0  0
  192.2520  175.4000  147.2200 O   0  0  0  0  0  1  0  0  0  0  0  0
  191.0750  174.0970  145.2690 O   0  0  0  0  0  0  0  0  0  0  0  0
  192.4160  176.1540  144.7970 O   0  0  0  0  0  0  0  0  0  0  0  0
  194.0130  175.9830  144.7820 P   0  0  1  0  0  0  0  0  0  0  0  0
  194.6010  177.0590  145.6610 O   0  0  0  0  0  1  0  0  0  0  0  0
  194.3460  174.5340  145.0340 O   0  0  0  0  0  0  0  0  0  0  0  0
  194.3590  176.3480  143.2560 O   0  0  0  0  0  0  0  0  0  0  0  0
  195.8060  176.0080  142.6440 P   0  0  0  0  0  0  0  0  0  0  0  0
  195.7300  174.5340  142.3320 O   0  0  0  0  0  1  0  0  0  0  0  0
  196.7580  176.3600  143.7620 O   0  0  0  0  0  1  0  0  0  0  0  0
  195.9050  176.8950  141.4270 O   0  0  0  0  0  0  0  0  0  0  0  0
  1  3  1  0  0  0  0
  1 18  1  6  0  0  0
  2  1  1  0  0  0  0
  3  4  1  1  0  0  0
  5  6  1  1  0  0  0
  5  3  1  0  0  0  0
  7 17  1  6  0  0  0
  7  2  1  0  0  0  0
  7  5  1  0  0  0  0
  8  9  1  0  0  0  0
  9 10  2  0  0  0  0
 10 11  1  0  0  0  0
 11 17  1  0  0  0  0
 12 15  1  0  0  0  0
 12 11  2  0  0  0  0
 13  8  2  0  0  0  0
 13 12  1  0  0  0  0
 14 13  1  0  0  0  0
 15 16  2  0  0  0  0
 16 17  1  0  0  0  0
 19 18  1  0  0  0  0
 20 22  2  6  0  0  0
 20 19  1  0  0  0  0
 20 21  1  0  0  0  0
 23 20  1  0  0  0  0
 24 23  1  0  0  0  0
 24 26  2  1  0  0  0
 24 25  1  0  0  0  0
 27 24  1  0  0  0  0
 28 27  1  0  0  0  0
 28 30  1  0  0  0  0
 29 28  1  0  0  0  0
 31 28  2  0  0  0  0
M  END
>  <MODEL>
6

>  <REMARK>
 VINA RESULT:      -6.2      3.632      4.786
  Name = 7li3
  8 active torsions:
  status: ('A' for Active; 'I' for Inactive)
    1  A    between atoms: P_1  and  O_5
    2  A    between atoms: P_1  and  O_22
    3  A    between atoms: P_2  and  O_22
    4  A    between atoms: P_2  and  O_23
    5  A    between atoms: P_3  and  O_23
    6  A    between atoms: C_4  and  O_5
    7  A    between atoms: C_4  and  C_6
    8  A    between atoms: C_12  and  N_31
                            x       y       z     vdW  Elec       q    Type
                         _______ _______ _______ _____ _____    ______ ____

>  <TORSDO>
F 8

$$$$
7li3
 OpenBabel11072415313D

 31 33  0  0  1  0  0  0  0  0999 V2000
  185.6180  178.6450  142.5790 C   0  0  1  0  0  3  0  0  0  0  0  0
  187.0160  178.4040  142.6760 O   0  0  0  0  0  0  0  0  0  0  0  0
  185.1080  177.8740  141.3780 C   0  0  1  0  0  3  0  0  0  0  0  0
  184.5790  178.8100  140.4400 O   0  0  0  0  0  1  0  0  0  0  0  0
  186.3150  177.2070  140.7630 C   0  0  1  0  0  3  0  0  0  0  0  0
  186.3900  177.5390  139.3760 O   0  0  0  0  0  1  0  0  0  0  0  0
  187.5070  177.7910  141.4910 C   0  0  2  0  0  3  0  0  0  0  0  0
  192.1730  176.6690  143.5230 N   0  0  0  0  0  0  0  0  0  0  0  0
  191.5800  177.8570  143.3060 C   0  0  0  0  0  3  0  0  0  0  0  0
  190.3600  177.9930  142.7670 N   0  0  0  0  0  0  0  0  0  0  0  0
  189.6470  176.9070  142.4060 C   0  0  0  0  0  0  0  0  0  0  0  0
  190.2180  175.5750  142.6120 C   0  0  0  0  0  0  0  0  0  0  0  0
  191.5670  175.5050  143.2080 C   0  0  0  0  0  0  0  0  0  0  0  0
  192.1660  174.3120  143.4280 N   0  0  0  0  0  1  0  0  0  0  0  0
  189.3070  174.6910  142.1730 N   0  0  0  0  0  0  0  0  0  0  0  0
  188.2420  175.3990  141.7250 C   0  0  0  0  0  3  0  0  0  0  0  0
  188.4490  176.7170  141.8680 N   0  0  0  0  0  0  0  0  0  0  0  0
  184.9350  178.2280  143.8710 C   0  0  0  0  0  2  0  0  0  0  0  0
  185.6360  178.8140  144.9590 O   0  0  0  0  0  0  0  0  0  0  0  0
  185.4550  178.1920  146.4240 P   0  0  1  0  0  0  0  0  0  0  0  0
  185.9620  179.1810  147.4430 O   0  0  0  0  0  1  0  0  0  0  0  0
  184.0690  177.6100  146.5270 O   0  0  0  0  0  0  0  0  0  0  0  0
  186.4730  176.9540  146.3260 O   0  0  0  0  0  0  0  0  0  0  0  0
  188.0540  177.2130  146.2150 P   0  0  1  0  0  0  0  0  0  0  0  0
  188.2740  178.2910  145.1830 O   0  0  0  0  0  0  0  0  0  0  0  0
  188.6170  177.3690  147.6050 O   0  0  0  0  0  1  0  0  0  0  0  0
  188.5620  175.8210  145.5920 O   0  0  0  0  0  0  0  0  0  0  0  0
  189.4970  174.8360  146.4510 P   0  0  0  0  0  0  0  0  0  0  0  0
  189.6920  173.6420  145.5500 O   0  0  0  0  0  0  0  0  0  0  0  0
  188.6780  174.5560  147.6880 O   0  0  0  0  0  1  0  0  0  0  0  0
  190.7500  175.6420  146.6930 O   0  0  0  0  0  1  0  0  0  0  0  0
  1  2  1  0  0  0  0
  1 18  1  1  0  0  0
  3  4  1  6  0  0  0
  3  1  1  0  0  0  0
  5  6  1  6  0  0  0
  5  3  1  0  0  0  0
  5  7  1  0  0  0  0
  7 17  1  1  0  0  0
  7  2  1  0  0  0  0
  9  8  1  0  0  0  0
 10  9  2  0  0  0  0
 11 12  2  0  0  0  0
 11 10  1  0  0  0  0
 12 13  1  0  0  0  0
 13 14  1  0  0  0  0
 13  8  2  0  0  0  0
 15 12  1  0  0  0  0
 16 17  1  0  0  0  0
 16 15  2  0  0  0  0
 17 11  1  0  0  0  0
 18 19  1  0  0  0  0
 19 20  1  0  0  0  0
 20 22  2  1  0  0  0
 20 21  1  0  0  0  0
 23 20  1  0  0  0  0
 24 25  2  6  0  0  0
 24 23  1  0  0  0  0
 24 26  1  0  0  0  0
 27 24  1  0  0  0  0
 27 28  1  0  0  0  0
 28 31  1  0  0  0  0
 28 30  1  0  0  0  0
 29 28  2  0  0  0  0
M  END
>  <MODEL>
7

>  <REMARK>
 VINA RESULT:      -6.2      3.555      6.835
  Name = 7li3
  8 active torsions:
  status: ('A' for Active; 'I' for Inactive)
    1  A    between atoms: P_1  and  O_5
    2  A    between atoms: P_1  and  O_22
    3  A    between atoms: P_2  and  O_22
    4  A    between atoms: P_2  and  O_23
    5  A    between atoms: P_3  and  O_23
    6  A    between atoms: C_4  and  O_5
    7  A    between atoms: C_4  and  C_6
    8  A    between atoms: C_12  and  N_31
                            x       y       z     vdW  Elec       q    Type
                         _______ _______ _______ _____ _____    ______ ____

>  <TORSDO>
F 8

$$$$
7li3
 OpenBabel11072415313D

 31 33  0  0  1  0  0  0  0  0999 V2000
  186.0390  178.7090  144.9400 C   0  0  1  0  0  3  0  0  0  0  0  0
  186.7140  178.7610  143.6900 O   0  0  0  0  0  0  0  0  0  0  0  0
  184.6550  178.1480  144.6850 C   0  0  1  0  0  3  0  0  0  0  0  0
  183.6970  179.1380  145.0530 O   0  0  0  0  0  1  0  0  0  0  0  0
  184.5620  177.9200  143.1940 C   0  0  1  0  0  3  0  0  0  0  0  0
  183.4010  178.5740  142.6820 O   0  0  0  0  0  1  0  0  0  0  0  0
  185.8050  178.5620  142.6150 C   0  0  2  0  0  3  0  0  0  0  0  0
  188.6850  174.2780  141.9050 N   0  0  0  0  0  0  0  0  0  0  0  0
  188.2660  174.8670  143.0390 C   0  0  0  0  0  3  0  0  0  0  0  0
  187.5220  175.9820  143.0680 N   0  0  0  0  0  0  0  0  0  0  0  0
  187.1460  176.5840  141.9210 C   0  0  0  0  0  0  0  0  0  0  0  0
  187.5580  176.0040  140.6410 C   0  0  0  0  0  0  0  0  0  0  0  0
  188.3780  174.7770  140.6900 C   0  0  0  0  0  0  0  0  0  0  0  0
  188.8010  174.1810  139.5520 N   0  0  0  0  0  1  0  0  0  0  0  0
  187.0510  176.7910  139.6780 N   0  0  0  0  0  0  0  0  0  0  0  0
  186.3710  177.7910  140.2920 C   0  0  0  0  0  3  0  0  0  0  0  0
  186.4300  177.6610  141.6260 N   0  0  0  0  0  0  0  0  0  0  0  0
  186.8380  177.8650  145.9190 C   0  0  0  0  0  2  0  0  0  0  0  0
  188.1810  177.7970  145.4630 O   0  0  0  0  0  0  0  0  0  0  0  0
  189.2650  177.0190  146.3510 P   0  0  1  0  0  0  0  0  0  0  0  0
  189.6910  177.9060  147.4930 O   0  0  0  0  0  1  0  0  0  0  0  0
  188.7630  175.6200  146.5980 O   0  0  0  0  0  0  0  0  0  0  0  0
  190.4620  176.9030  145.2860 O   0  0  0  0  0  0  0  0  0  0  0  0
  191.6860  175.8990  145.5520 P   0  0  1  0  0  0  0  0  0  0  0  0
  191.8180  175.7140  147.0440 O   0  0  0  0  0  1  0  0  0  0  0  0
  191.5310  174.6990  144.6520 O   0  0  0  0  0  0  0  0  0  0  0  0
  192.9350  176.7790  145.0510 O   0  0  0  0  0  0  0  0  0  0  0  0
  194.3490  176.0820  144.7370 P   0  0  0  0  0  0  0  0  0  0  0  0
  195.3570  177.1700  145.0100 O   0  0  0  0  0  1  0  0  0  0  0  0
  194.2370  175.6880  143.2840 O   0  0  0  0  0  0  0  0  0  0  0  0
  194.4080  174.9240  145.7020 O   0  0  0  0  0  1  0  0  0  0  0  0
  1 18  1  1  0  0  0
  2  1  1  0  0  0  0
  3  1  1  0  0  0  0
  3  4  1  6  0  0  0
  5  6  1  6  0  0  0
  5  3  1  0  0  0  0
  7 17  1  6  0  0  0
  7  5  1  0  0  0  0
  7  2  1  0  0  0  0
  8  9  1  0  0  0  0
  9 10  2  0  0  0  0
 11 10  1  0  0  0  0
 12 13  1  0  0  0  0
 12 11  2  0  0  0  0
 13  8  2  0  0  0  0
 14 13  1  0  0  0  0
 15 16  2  0  0  0  0
 15 12  1  0  0  0  0
 16 17  1  0  0  0  0
 17 11  1  0  0  0  0
 19 18  1  0  0  0  0
 19 20  1  0  0  0  0
 20 22  2  1  0  0  0
 20 21  1  0  0  0  0
 23 24  1  0  0  0  0
 23 20  1  0  0  0  0
 24 26  2  6  0  0  0
 24 25  1  0  0  0  0
 27 24  1  0  0  0  0
 28 29  1  0  0  0  0
 28 27  1  0  0  0  0
 28 31  1  0  0  0  0
 30 28  2  0  0  0  0
M  END
>  <MODEL>
8

>  <REMARK>
 VINA RESULT:      -6.2      3.702      5.725
  Name = 7li3
  8 active torsions:
  status: ('A' for Active; 'I' for Inactive)
    1  A    between atoms: P_1  and  O_5
    2  A    between atoms: P_1  and  O_22
    3  A    between atoms: P_2  and  O_22
    4  A    between atoms: P_2  and  O_23
    5  A    between atoms: P_3  and  O_23
    6  A    between atoms: C_4  and  O_5
    7  A    between atoms: C_4  and  C_6
    8  A    between atoms: C_12  and  N_31
                            x       y       z     vdW  Elec       q    Type
                         _______ _______ _______ _____ _____    ______ ____

>  <TORSDO>
F 8

$$$$
7li3
 OpenBabel11072415313D

 31 33  0  0  1  0  0  0  0  0999 V2000
  190.8690  176.6120  145.4160 C   0  0  1  0  0  3  0  0  0  0  0  0
  190.1410  177.6130  144.7150 O   0  0  0  0  0  0  0  0  0  0  0  0
  189.8680  175.5830  145.9040 C   0  0  1  0  0  3  0  0  0  0  0  0
  189.9120  175.5600  147.3300 O   0  0  0  0  0  1  0  0  0  0  0  0
  188.5090  176.0810  145.4730 C   0  0  1  0  0  3  0  0  0  0  0  0
  187.6380  176.1310  146.6030 O   0  0  0  0  0  1  0  0  0  0  0  0
  188.7450  177.4820  144.9500 C   0  0  2  0  0  3  0  0  0  0  0  0
  184.1370  178.3770  142.6880 N   0  0  0  0  0  0  0  0  0  0  0  0
  184.4590  178.2470  143.9870 C   0  0  0  0  0  3  0  0  0  0  0  0
  185.7040  178.0140  144.4270 N   0  0  0  0  0  0  0  0  0  0  0  0
  186.7260  177.8960  143.5550 C   0  0  0  0  0  0  0  0  0  0  0  0
  186.4620  178.0280  142.1210 C   0  0  0  0  0  0  0  0  0  0  0  0
  185.0660  178.2820  141.7130 C   0  0  0  0  0  0  0  0  0  0  0  0
  184.7390  178.4140  140.4080 N   0  0  0  0  0  1  0  0  0  0  0  0
  187.6400  177.8730  141.4950 N   0  0  0  0  0  0  0  0  0  0  0  0
  188.5790  177.6600  142.4490 C   0  0  0  0  0  3  0  0  0  0  0  0
  188.0290  177.6760  143.6730 N   0  0  0  0  0  0  0  0  0  0  0  0
  191.9250  176.0110  144.5040 C   0  0  0  0  0  2  0  0  0  0  0  0
  193.0640  176.8590  144.5160 O   0  0  0  0  0  0  0  0  0  0  0  0
  194.4150  176.3360  145.2010 P   0  0  1  0  0  0  0  0  0  0  0  0
  195.5850  176.7060  144.3250 O   0  0  0  0  0  0  0  0  0  0  0  0
  194.3850  176.7110  146.6600 O   0  0  0  0  0  1  0  0  0  0  0  0
  194.1680  174.7510  145.1240 O   0  0  0  0  0  0  0  0  0  0  0  0
  195.4110  173.7350  145.1550 P   0  0  1  0  0  0  0  0  0  0  0  0
  195.8790  173.5330  143.7340 O   0  0  0  0  0  0  0  0  0  0  0  0
  196.3830  174.1940  146.2130 O   0  0  0  0  0  1  0  0  0  0  0  0
  194.7020  172.3770  145.6400 O   0  0  0  0  0  0  0  0  0  0  0  0
  195.4390  170.9610  145.4530 P   0  0  0  0  0  0  0  0  0  0  0  0
  196.8740  171.2480  145.8190 O   0  0  0  0  0  1  0  0  0  0  0  0
  195.2220  170.6350  143.9950 O   0  0  0  0  0  0  0  0  0  0  0  0
  194.7240  170.0470  146.4170 O   0  0  0  0  0  1  0  0  0  0  0  0
  1 18  1  6  0  0  0
  1  3  1  0  0  0  0
  2  7  1  0  0  0  0
  2  1  1  0  0  0  0
  3  4  1  1  0  0  0
  5  3  1  0  0  0  0
  5  6  1  1  0  0  0
  7 17  1  6  0  0  0
  7  5  1  0  0  0  0
  8  9  1  0  0  0  0
  9 10  2  0  0  0  0
 11 17  1  0  0  0  0
 11 10  1  0  0  0  0
 12 11  2  0  0  0  0
 13 12  1  0  0  0  0
 13  8  2  0  0  0  0
 14 13  1  0  0  0  0
 15 12  1  0  0  0  0
 15 16  2  0  0  0  0
 16 17  1  0  0  0  0
 18 19  1  0  0  0  0
 19 20  1  0  0  0  0
 20 21  2  6  0  0  0
 20 22  1  0  0  0  0
 23 24  1  0  0  0  0
 23 20  1  0  0  0  0
 24 25  2  6  0  0  0
 24 27  1  0  0  0  0
 24 26  1  0  0  0  0
 28 27  1  0  0  0  0
 28 29  1  0  0  0  0
 28 31  1  0  0  0  0
 30 28  2  0  0  0  0
M  END
>  <MODEL>
9

>  <REMARK>
 VINA RESULT:      -6.1      3.871      4.969
  Name = 7li3
  8 active torsions:
  status: ('A' for Active; 'I' for Inactive)
    1  A    between atoms: P_1  and  O_5
    2  A    between atoms: P_1  and  O_22
    3  A    between atoms: P_2  and  O_22
    4  A    between atoms: P_2  and  O_23
    5  A    between atoms: P_3  and  O_23
    6  A    between atoms: C_4  and  O_5
    7  A    between atoms: C_4  and  C_6
    8  A    between atoms: C_12  and  N_31
                            x       y       z     vdW  Elec       q    Type
                         _______ _______ _______ _____ _____    ______ ____

>  <TORSDO>
F 8

$$$$
