8smc
 OpenBabel11072415313D

 24 25  0  0  0  0  0  0  0  0999 V2000
  186.9920  177.4470  142.3630 C   0  0  0  0  0  1  0  0  0  0  0  0
  187.2400  178.2140  143.5670 N   0  0  0  0  0  2  0  0  0  0  0  0
  187.1480  177.5810  144.8650 C   0  0  0  0  0  0  0  0  0  0  0  0
  188.1200  176.8110  145.3140 N   0  0  0  0  0  4  0  0  0  0  0  0
  188.0520  176.2390  146.4950 C   0  0  0  0  0  0  0  0  0  0  0  0
  189.1050  175.3730  147.0040 N   0  0  0  0  0  2  0  0  0  0  0  0
  186.9900  176.4150  147.2590 N   0  0  0  0  0  0  0  0  0  0  0  0
  185.9800  177.1700  146.8870 C   0  0  0  0  0  3  0  0  0  0  0  0
  186.0330  177.7890  145.6510 C   0  0  0  0  0  0  0  0  0  0  0  0
  190.5450  175.5420  146.8890 C   0  0  0  0  0  0  0  0  0  0  0  0
  192.5470  175.2330  146.1250 N   0  0  0  0  0  0  0  0  0  0  0  0
  191.3130  174.8350  145.9960 C   0  0  0  0  0  3  0  0  0  0  0  0
  192.6280  176.2110  147.0700 N   0  0  0  0  0  0  0  0  0  0  0  0
  191.4020  176.4280  147.5450 C   0  0  0  0  0  0  0  0  0  0  0  0
  191.0810  177.4540  148.6300 C   0  0  0  0  0  1  0  0  0  0  0  0
  193.6760  174.7240  145.3730 C   0  0  0  0  0  0  0  0  0  0  0  0
  193.6490  173.1960  145.3770 C   0  0  0  0  0  1  0  0  0  0  0  0
  194.9680  175.2080  146.0260 C   0  0  0  0  0  1  0  0  0  0  0  0
  193.5700  175.6290  142.8700 N   0  0  0  0  0  0  0  0  0  0  0  0
  193.6170  175.2430  143.9370 C   0  0  0  0  0  0  0  0  0  0  0  0
  184.9010  178.6690  145.1500 C   0  0  0  0  0  0  0  0  0  0  0  0
  184.2720  178.0370  144.1210 F   0  0  0  0  0  0  0  0  0  0  0  0
  184.0150  178.8690  146.1660 F   0  0  0  0  0  0  0  0  0  0  0  0
  185.3900  179.8680  144.7280 F   0  0  0  0  0  0  0  0  0  0  0  0
  1  2  1  0  0  0  0
  2  3  1  0  0  0  0
  3  4  2  0  0  0  0
  3  9  1  0  0  0  0
  4  5  2  0  0  0  0
  5  6  1  0  0  0  0
  5  7  2  0  0  0  0
  8  7  1  0  0  0  0
  9  8  2  0  0  0  0
 10  6  1  0  0  0  0
 10 14  1  0  0  0  0
 11 13  1  0  0  0  0
 12 11  1  0  0  0  0
 12 10  2  0  0  0  0
 13 14  2  0  0  0  0
 14 15  1  0  0  0  0
 16 17  1  0  0  0  0
 16 18  1  0  0  0  0
 16 11  1  0  0  0  0
 19 20  3  0  0  0  0
 20 16  1  0  0  0  0
 21  9  1  0  0  0  0
 21 23  1  0  0  0  0
 22 21  1  0  0  0  0
 24 21  1  0  0  0  0
M  END
>  <MODEL>
1

>  <REMARK>
 VINA RESULT:      -6.8      0.000      0.000
  Name = 8smc
  4 active torsions:
  status: ('A' for Active; 'I' for Inactive)
    1  A    between atoms: N_6  and  C_7
    2  A    between atoms: N_8  and  C_15
    3  A    between atoms: C_15  and  C_18
    4  A    between atoms: C_20  and  C_21
                            x       y       z     vdW  Elec       q    Type
                         _______ _______ _______ _____ _____    ______ ____

>  <TORSDO>
F 4

$$$$
8smc
 OpenBabel11072415313D

 24 25  0  0  0  0  0  0  0  0999 V2000
  186.1730  177.6410  142.4020 C   0  0  0  0  0  1  0  0  0  0  0  0
  186.8820  178.2740  143.4960 N   0  0  0  0  0  2  0  0  0  0  0  0
  187.2690  177.5010  144.6570 C   0  0  0  0  0  0  0  0  0  0  0  0
  188.3150  176.6990  144.6190 N   0  0  0  0  0  4  0  0  0  0  0  0
  188.6820  176.0000  145.6700 C   0  0  0  0  0  0  0  0  0  0  0  0
  189.8220  175.0960  145.6450 N   0  0  0  0  0  2  0  0  0  0  0  0
  187.9940  176.0790  146.7930 N   0  0  0  0  0  0  0  0  0  0  0  0
  186.9420  176.8570  146.9150 C   0  0  0  0  0  3  0  0  0  0  0  0
  186.5410  177.6090  145.8250 C   0  0  0  0  0  0  0  0  0  0  0  0
  191.1160  175.2950  145.0110 C   0  0  0  0  0  0  0  0  0  0  0  0
  193.2360  175.7080  144.8640 N   0  0  0  0  0  0  0  0  0  0  0  0
  192.2490  175.6280  145.7110 C   0  0  0  0  0  3  0  0  0  0  0  0
  192.8010  175.4120  143.6070 N   0  0  0  0  0  0  0  0  0  0  0  0
  191.4970  175.1400  143.6770 C   0  0  0  0  0  0  0  0  0  0  0  0
  190.6430  174.7660  142.4670 C   0  0  0  0  0  1  0  0  0  0  0  0
  194.6040  176.0510  145.1980 C   0  0  0  0  0  0  0  0  0  0  0  0
  195.2360  174.9150  146.0020 C   0  0  0  0  0  1  0  0  0  0  0  0
  194.6070  177.3260  146.0370 C   0  0  0  0  0  1  0  0  0  0  0  0
  196.0000  176.4670  142.9680 N   0  0  0  0  0  0  0  0  0  0  0  0
  195.4040  176.2910  143.9190 C   0  0  0  0  0  0  0  0  0  0  0  0
  185.3320  178.5240  145.8870 C   0  0  0  0  0  0  0  0  0  0  0  0
  185.6790  179.7510  145.4110 F   0  0  0  0  0  0  0  0  0  0  0  0
  184.3420  178.0020  145.1090 F   0  0  0  0  0  0  0  0  0  0  0  0
  184.8920  178.6330  147.1720 F   0  0  0  0  0  0  0  0  0  0  0  0
  1  2  1  0  0  0  0
  2  3  1  0  0  0  0
  3  9  1  0  0  0  0
  4  3  2  0  0  0  0
  4  5  2  0  0  0  0
  5  7  2  0  0  0  0
  6  5  1  0  0  0  0
  7  8  1  0  0  0  0
  9 21  1  0  0  0  0
  9  8  2  0  0  0  0
 10  6  1  0  0  0  0
 10 12  2  0  0  0  0
 11 16  1  0  0  0  0
 11 12  1  0  0  0  0
 13 14  2  0  0  0  0
 13 11  1  0  0  0  0
 14 10  1  0  0  0  0
 15 14  1  0  0  0  0
 16 17  1  0  0  0  0
 16 18  1  0  0  0  0
 19 20  3  0  0  0  0
 20 16  1  0  0  0  0
 21 24  1  0  0  0  0
 22 21  1  0  0  0  0
 23 21  1  0  0  0  0
M  END
>  <MODEL>
2

>  <REMARK>
 VINA RESULT:      -6.6      1.515      2.339
  Name = 8smc
  4 active torsions:
  status: ('A' for Active; 'I' for Inactive)
    1  A    between atoms: N_6  and  C_7
    2  A    between atoms: N_8  and  C_15
    3  A    between atoms: C_15  and  C_18
    4  A    between atoms: C_20  and  C_21
                            x       y       z     vdW  Elec       q    Type
                         _______ _______ _______ _____ _____    ______ ____

>  <TORSDO>
F 4

$$$$
8smc
 OpenBabel11072415313D

 24 25  0  0  0  0  0  0  0  0999 V2000
  186.9770  177.3790  142.1790 C   0  0  0  0  0  1  0  0  0  0  0  0
  187.2900  178.1780  143.3460 N   0  0  0  0  0  2  0  0  0  0  0  0
  187.1880  177.6040  144.6710 C   0  0  0  0  0  0  0  0  0  0  0  0
  188.1240  176.7990  145.1350 N   0  0  0  0  0  4  0  0  0  0  0  0
  188.0470  176.2800  146.3390 C   0  0  0  0  0  0  0  0  0  0  0  0
  189.0610  175.3780  146.8650 N   0  0  0  0  0  2  0  0  0  0  0  0
  187.0120  176.5460  147.1130 N   0  0  0  0  0  0  0  0  0  0  0  0
  186.0370  177.3400  146.7270 C   0  0  0  0  0  3  0  0  0  0  0  0
  186.1010  177.9050  145.4660 C   0  0  0  0  0  0  0  0  0  0  0  0
  190.5050  175.4620  146.7200 C   0  0  0  0  0  0  0  0  0  0  0  0
  192.4660  175.0580  145.8950 N   0  0  0  0  0  0  0  0  0  0  0  0
  191.2070  174.7420  145.7840 C   0  0  0  0  0  3  0  0  0  0  0  0
  192.6300  175.9950  146.8700 N   0  0  0  0  0  0  0  0  0  0  0  0
  191.4310  176.2700  147.3830 C   0  0  0  0  0  0  0  0  0  0  0  0
  191.2010  177.2740  148.5100 C   0  0  0  0  0  1  0  0  0  0  0  0
  193.5430  174.5080  145.0970 C   0  0  0  0  0  0  0  0  0  0  0  0
  194.8840  174.8190  145.7610 C   0  0  0  0  0  1  0  0  0  0  0  0
  193.5080  175.1420  143.7090 C   0  0  0  0  0  1  0  0  0  0  0  0
  193.2330  171.8730  144.8620 N   0  0  0  0  0  0  0  0  0  0  0  0
  193.3670  172.9970  144.9610 C   0  0  0  0  0  0  0  0  0  0  0  0
  185.0100  178.8250  144.9480 C   0  0  0  0  0  0  0  0  0  0  0  0
  184.1730  179.1420  145.9750 F   0  0  0  0  0  0  0  0  0  0  0  0
  185.5840  179.9630  144.4660 F   0  0  0  0  0  0  0  0  0  0  0  0
  184.3110  178.2110  143.9530 F   0  0  0  0  0  0  0  0  0  0  0  0
  1  2  1  0  0  0  0
  2  3  1  0  0  0  0
  3  4  2  0  0  0  0
  3  9  1  0  0  0  0
  4  5  2  0  0  0  0
  5  6  1  0  0  0  0
  5  7  2  0  0  0  0
  8  7  1  0  0  0  0
  9  8  2  0  0  0  0
 10  6  1  0  0  0  0
 10 14  1  0  0  0  0
 11 13  1  0  0  0  0
 12 11  1  0  0  0  0
 12 10  2  0  0  0  0
 13 14  2  0  0  0  0
 14 15  1  0  0  0  0
 16 17  1  0  0  0  0
 16 11  1  0  0  0  0
 18 16  1  0  0  0  0
 19 20  3  0  0  0  0
 20 16  1  0  0  0  0
 21  9  1  0  0  0  0
 21 22  1  0  0  0  0
 23 21  1  0  0  0  0
 24 21  1  0  0  0  0
M  END
>  <MODEL>
3

>  <REMARK>
 VINA RESULT:      -6.6      0.797      1.484
  Name = 8smc
  4 active torsions:
  status: ('A' for Active; 'I' for Inactive)
    1  A    between atoms: N_6  and  C_7
    2  A    between atoms: N_8  and  C_15
    3  A    between atoms: C_15  and  C_18
    4  A    between atoms: C_20  and  C_21
                            x       y       z     vdW  Elec       q    Type
                         _______ _______ _______ _____ _____    ______ ____

>  <TORSDO>
F 4

$$$$
8smc
 OpenBabel11072415313D

 24 25  0  0  0  0  0  0  0  0999 V2000
  187.0740  178.6980  148.1530 C   0  0  0  0  0  1  0  0  0  0  0  0
  186.7330  177.6210  147.2470 N   0  0  0  0  0  2  0  0  0  0  0  0
  187.0270  177.7360  145.8350 C   0  0  0  0  0  0  0  0  0  0  0  0
  188.2510  177.5530  145.3800 N   0  0  0  0  0  4  0  0  0  0  0  0
  188.5280  177.6450  144.0990 C   0  0  0  0  0  0  0  0  0  0  0  0
  189.8740  177.4630  143.5770 N   0  0  0  0  0  2  0  0  0  0  0  0
  187.5770  177.9400  143.2330 N   0  0  0  0  0  0  0  0  0  0  0  0
  186.3310  178.1350  143.6040 C   0  0  0  0  0  3  0  0  0  0  0  0
  186.0130  178.0350  144.9470 C   0  0  0  0  0  0  0  0  0  0  0  0
  190.8720  176.4840  143.9800 C   0  0  0  0  0  0  0  0  0  0  0  0
  192.7440  175.7350  144.7690 N   0  0  0  0  0  0  0  0  0  0  0  0
  192.1010  176.8330  144.4850 C   0  0  0  0  0  3  0  0  0  0  0  0
  191.9680  174.6510  144.4890 N   0  0  0  0  0  0  0  0  0  0  0  0
  190.8020  175.0900  144.0140 C   0  0  0  0  0  0  0  0  0  0  0  0
  189.6630  174.1710  143.5790 C   0  0  0  0  0  1  0  0  0  0  0  0
  194.0850  175.6650  145.3130 C   0  0  0  0  0  0  0  0  0  0  0  0
  194.3810  174.2360  145.7660 C   0  0  0  0  0  1  0  0  0  0  0  0
  194.1870  176.6060  146.5100 C   0  0  0  0  0  1  0  0  0  0  0  0
  195.8460  176.4140  143.4600 N   0  0  0  0  0  0  0  0  0  0  0  0
  195.0970  176.0940  144.2520 C   0  0  0  0  0  0  0  0  0  0  0  0
  184.5980  178.2540  145.4510 C   0  0  0  0  0  0  0  0  0  0  0  0
  184.5550  179.4170  146.1570 F   0  0  0  0  0  0  0  0  0  0  0  0
  183.7580  178.3440  144.3820 F   0  0  0  0  0  0  0  0  0  0  0  0
  184.2170  177.2150  146.2440 F   0  0  0  0  0  0  0  0  0  0  0  0
  2  1  1  0  0  0  0
  3  2  1  0  0  0  0
  4  3  2  0  0  0  0
  5  4  2  0  0  0  0
  6 10  1  0  0  0  0
  6  5  1  0  0  0  0
  7  8  1  0  0  0  0
  7  5  2  0  0  0  0
  8  9  2  0  0  0  0
  9 21  1  0  0  0  0
  9  3  1  0  0  0  0
 10 14  1  0  0  0  0
 10 12  2  0  0  0  0
 11 16  1  0  0  0  0
 12 11  1  0  0  0  0
 13 11  1  0  0  0  0
 14 13  2  0  0  0  0
 15 14  1  0  0  0  0
 16 17  1  0  0  0  0
 16 18  1  0  0  0  0
 19 20  3  0  0  0  0
 20 16  1  0  0  0  0
 21 22  1  0  0  0  0
 21 24  1  0  0  0  0
 23 21  1  0  0  0  0
M  END
>  <MODEL>
4

>  <REMARK>
 VINA RESULT:      -6.5      1.824      3.049
  Name = 8smc
  4 active torsions:
  status: ('A' for Active; 'I' for Inactive)
    1  A    between atoms: N_6  and  C_7
    2  A    between atoms: N_8  and  C_15
    3  A    between atoms: C_15  and  C_18
    4  A    between atoms: C_20  and  C_21
                            x       y       z     vdW  Elec       q    Type
                         _______ _______ _______ _____ _____    ______ ____

>  <TORSDO>
F 4

$$$$
8smc
 OpenBabel11072415313D

 24 25  0  0  0  0  0  0  0  0999 V2000
  185.9330  178.0570  141.4910 C   0  0  0  0  0  1  0  0  0  0  0  0
  186.6610  178.6620  142.5870 N   0  0  0  0  0  2  0  0  0  0  0  0
  186.8940  177.9170  143.8060 C   0  0  0  0  0  0  0  0  0  0  0  0
  187.8330  176.9930  143.8670 N   0  0  0  0  0  4  0  0  0  0  0  0
  188.0600  176.3170  144.9710 C   0  0  0  0  0  0  0  0  0  0  0  0
  189.0790  175.2820  145.0550 N   0  0  0  0  0  2  0  0  0  0  0  0
  187.3350  176.5440  146.0490 N   0  0  0  0  0  0  0  0  0  0  0  0
  186.3820  177.4500  146.0730 C   0  0  0  0  0  3  0  0  0  0  0  0
  186.1300  178.1790  144.9250 C   0  0  0  0  0  0  0  0  0  0  0  0
  190.4160  175.2850  144.4830 C   0  0  0  0  0  0  0  0  0  0  0  0
  192.5800  175.3640  144.4390 N   0  0  0  0  0  0  0  0  0  0  0  0
  191.5540  175.4280  145.2400 C   0  0  0  0  0  3  0  0  0  0  0  0
  192.1630  175.1570  143.1580 N   0  0  0  0  0  0  0  0  0  0  0  0
  190.8310  175.0900  143.1640 C   0  0  0  0  0  0  0  0  0  0  0  0
  189.9870  174.8710  141.9110 C   0  0  0  0  0  1  0  0  0  0  0  0
  193.9670  175.4850  144.8400 C   0  0  0  0  0  0  0  0  0  0  0  0
  194.7990  175.9940  143.6630 C   0  0  0  0  0  1  0  0  0  0  0  0
  194.4820  174.1130  145.2670 C   0  0  0  0  0  1  0  0  0  0  0  0
  194.1680  177.1690  146.8940 N   0  0  0  0  0  0  0  0  0  0  0  0
  194.0830  176.4520  146.0160 C   0  0  0  0  0  0  0  0  0  0  0  0
  185.0420  179.2370  144.8740 C   0  0  0  0  0  0  0  0  0  0  0  0
  185.5800  180.4050  144.4290 F   0  0  0  0  0  0  0  0  0  0  0  0
  184.0710  178.8290  144.0090 F   0  0  0  0  0  0  0  0  0  0  0  0
  184.5030  179.4160  146.1120 F   0  0  0  0  0  0  0  0  0  0  0  0
  1  2  1  0  0  0  0
  2  3  1  0  0  0  0
  3  4  2  0  0  0  0
  3  9  1  0  0  0  0
  4  5  2  0  0  0  0
  5  6  1  0  0  0  0
  5  7  2  0  0  0  0
  7  8  1  0  0  0  0
  9  8  2  0  0  0  0
 10  6  1  0  0  0  0
 10 12  2  0  0  0  0
 11 16  1  0  0  0  0
 11 12  1  0  0  0  0
 13 14  2  0  0  0  0
 13 11  1  0  0  0  0
 14 10  1  0  0  0  0
 15 14  1  0  0  0  0
 16 18  1  0  0  0  0
 16 20  1  0  0  0  0
 17 16  1  0  0  0  0
 20 19  3  0  0  0  0
 21  9  1  0  0  0  0
 21 24  1  0  0  0  0
 22 21  1  0  0  0  0
 23 21  1  0  0  0  0
M  END
>  <MODEL>
5

>  <REMARK>
 VINA RESULT:      -6.4      1.584      2.682
  Name = 8smc
  4 active torsions:
  status: ('A' for Active; 'I' for Inactive)
    1  A    between atoms: N_6  and  C_7
    2  A    between atoms: N_8  and  C_15
    3  A    between atoms: C_15  and  C_18
    4  A    between atoms: C_20  and  C_21
                            x       y       z     vdW  Elec       q    Type
                         _______ _______ _______ _____ _____    ______ ____

>  <TORSDO>
F 4

$$$$
8smc
 OpenBabel11072415313D

 24 25  0  0  0  0  0  0  0  0999 V2000
  191.5210  175.1330  148.2420 C   0  0  0  0  0  1  0  0  0  0  0  0
  191.7070  176.4070  147.5780 N   0  0  0  0  0  2  0  0  0  0  0  0
  191.6760  176.4870  146.1330 C   0  0  0  0  0  0  0  0  0  0  0  0
  190.5310  176.4620  145.4770 N   0  0  0  0  0  4  0  0  0  0  0  0
  190.4900  176.5440  144.1670 C   0  0  0  0  0  0  0  0  0  0  0  0
  189.2400  176.5020  143.4220 N   0  0  0  0  0  2  0  0  0  0  0  0
  191.6070  176.6400  143.4710 N   0  0  0  0  0  0  0  0  0  0  0  0
  192.7880  176.6740  144.0480 C   0  0  0  0  0  3  0  0  0  0  0  0
  192.8560  176.5980  145.4280 C   0  0  0  0  0  0  0  0  0  0  0  0
  187.9720  177.1340  143.7530 C   0  0  0  0  0  0  0  0  0  0  0  0
  186.3210  177.7910  144.9900 N   0  0  0  0  0  0  0  0  0  0  0  0
  187.4410  177.1260  145.0200 C   0  0  0  0  0  3  0  0  0  0  0  0
  186.0930  178.2690  143.7340 N   0  0  0  0  0  0  0  0  0  0  0  0
  187.1080  177.8870  142.9580 C   0  0  0  0  0  0  0  0  0  0  0  0
  187.2130  178.2270  141.4730 C   0  0  0  0  0  1  0  0  0  0  0  0
  185.4410  178.0070  146.1210 C   0  0  0  0  0  0  0  0  0  0  0  0
  184.8230  176.6770  146.5510 C   0  0  0  0  0  1  0  0  0  0  0  0
  184.3300  178.9700  145.7100 C   0  0  0  0  0  1  0  0  0  0  0  0
  186.8110  179.0700  148.1420 N   0  0  0  0  0  0  0  0  0  0  0  0
  186.2280  178.6150  147.2800 C   0  0  0  0  0  0  0  0  0  0  0  0
  194.1840  176.6240  146.1640 C   0  0  0  0  0  0  0  0  0  0  0  0
  194.0990  177.5030  147.1990 F   0  0  0  0  0  0  0  0  0  0  0  0
  194.4440  175.3770  146.6500 F   0  0  0  0  0  0  0  0  0  0  0  0
  195.1830  176.9990  145.3170 F   0  0  0  0  0  0  0  0  0  0  0  0
  2  1  1  0  0  0  0
  3  2  1  0  0  0  0
  4  3  2  0  0  0  0
  5  4  2  0  0  0  0
  6 10  1  0  0  0  0
  6  5  1  0  0  0  0
  7  8  1  0  0  0  0
  7  5  2  0  0  0  0
  8  9  2  0  0  0  0
  9  3  1  0  0  0  0
  9 21  1  0  0  0  0
 10 12  2  0  0  0  0
 11 12  1  0  0  0  0
 11 16  1  0  0  0  0
 13 11  1  0  0  0  0
 14 13  2  0  0  0  0
 14 10  1  0  0  0  0
 15 14  1  0  0  0  0
 16 17  1  0  0  0  0
 16 20  1  0  0  0  0
 18 16  1  0  0  0  0
 20 19  3  0  0  0  0
 21 23  1  0  0  0  0
 21 22  1  0  0  0  0
 24 21  1  0  0  0  0
M  END
>  <MODEL>
6

>  <REMARK>
 VINA RESULT:      -6.2      3.927      7.719
  Name = 8smc
  4 active torsions:
  status: ('A' for Active; 'I' for Inactive)
    1  A    between atoms: N_6  and  C_7
    2  A    between atoms: N_8  and  C_15
    3  A    between atoms: C_15  and  C_18
    4  A    between atoms: C_20  and  C_21
                            x       y       z     vdW  Elec       q    Type
                         _______ _______ _______ _____ _____    ______ ____

>  <TORSDO>
F 4

$$$$
8smc
 OpenBabel11072415313D

 24 25  0  0  0  0  0  0  0  0999 V2000
  188.0510  177.5580  146.8730 C   0  0  0  0  0  1  0  0  0  0  0  0
  187.0140  176.7380  146.2810 N   0  0  0  0  0  2  0  0  0  0  0  0
  186.6300  176.9320  144.8990 C   0  0  0  0  0  0  0  0  0  0  0  0
  187.3760  176.4650  143.9170 N   0  0  0  0  0  4  0  0  0  0  0  0
  187.0330  176.6270  142.6590 C   0  0  0  0  0  0  0  0  0  0  0  0
  187.8490  176.1340  141.5590 N   0  0  0  0  0  2  0  0  0  0  0  0
  185.9290  177.2800  142.3500 N   0  0  0  0  0  0  0  0  0  0  0  0
  185.1290  177.7740  143.2690 C   0  0  0  0  0  3  0  0  0  0  0  0
  185.4650  177.6090  144.6010 C   0  0  0  0  0  0  0  0  0  0  0  0
  188.5660  174.8730  141.4630 C   0  0  0  0  0  0  0  0  0  0  0  0
  189.6950  173.1510  142.1330 N   0  0  0  0  0  0  0  0  0  0  0  0
  189.1630  174.2680  142.5420 C   0  0  0  0  0  3  0  0  0  0  0  0
  189.4500  172.9740  140.8040 N   0  0  0  0  0  0  0  0  0  0  0  0
  188.7420  174.0180  140.3740 C   0  0  0  0  0  0  0  0  0  0  0  0
  188.2750  174.1890  138.9300 C   0  0  0  0  0  1  0  0  0  0  0  0
  190.4340  172.2190  142.9620 C   0  0  0  0  0  0  0  0  0  0  0  0
  189.7290  172.0600  144.3080 C   0  0  0  0  0  1  0  0  0  0  0  0
  191.8410  172.7650  143.1900 C   0  0  0  0  0  1  0  0  0  0  0  0
  190.5990  169.8580  141.7400 N   0  0  0  0  0  0  0  0  0  0  0  0
  190.5290  170.8660  142.2590 C   0  0  0  0  0  0  0  0  0  0  0  0
  184.5950  178.1580  145.7170 C   0  0  0  0  0  0  0  0  0  0  0  0
  185.2850  179.1270  146.3800 F   0  0  0  0  0  0  0  0  0  0  0  0
  183.4680  178.6980  145.1740 F   0  0  0  0  0  0  0  0  0  0  0  0
  184.2530  177.1600  146.5790 F   0  0  0  0  0  0  0  0  0  0  0  0
  2  1  1  0  0  0  0
  3  2  1  0  0  0  0
  4  3  2  0  0  0  0
  5  4  2  0  0  0  0
  6  5  1  0  0  0  0
  7  5  2  0  0  0  0
  7  8  1  0  0  0  0
  8  9  2  0  0  0  0
  9  3  1  0  0  0  0
  9 21  1  0  0  0  0
 10  6  1  0  0  0  0
 10 12  2  0  0  0  0
 11 12  1  0  0  0  0
 11 16  1  0  0  0  0
 13 11  1  0  0  0  0
 14 13  2  0  0  0  0
 14 10  1  0  0  0  0
 15 14  1  0  0  0  0
 16 18  1  0  0  0  0
 16 17  1  0  0  0  0
 19 20  3  0  0  0  0
 20 16  1  0  0  0  0
 21 22  1  0  0  0  0
 21 24  1  0  0  0  0
 23 21  1  0  0  0  0
M  END
>  <MODEL>
7

>  <REMARK>
 VINA RESULT:      -6.1      3.269      5.000
  Name = 8smc
  4 active torsions:
  status: ('A' for Active; 'I' for Inactive)
    1  A    between atoms: N_6  and  C_7
    2  A    between atoms: N_8  and  C_15
    3  A    between atoms: C_15  and  C_18
    4  A    between atoms: C_20  and  C_21
                            x       y       z     vdW  Elec       q    Type
                         _______ _______ _______ _____ _____    ______ ____

>  <TORSDO>
F 4

$$$$
8smc
 OpenBabel11072415313D

 24 25  0  0  0  0  0  0  0  0999 V2000
  187.7910  177.5710  143.1300 C   0  0  0  0  0  1  0  0  0  0  0  0
  188.3870  177.8430  144.4220 N   0  0  0  0  0  2  0  0  0  0  0  0
  188.9280  176.7610  145.2170 C   0  0  0  0  0  0  0  0  0  0  0  0
  190.1030  176.2330  144.9340 N   0  0  0  0  0  4  0  0  0  0  0  0
  190.6080  175.2570  145.6540 C   0  0  0  0  0  0  0  0  0  0  0  0
  191.8950  174.6490  145.3500 N   0  0  0  0  0  2  0  0  0  0  0  0
  189.9350  174.7720  146.6800 N   0  0  0  0  0  0  0  0  0  0  0  0
  188.7600  175.2440  147.0320 C   0  0  0  0  0  3  0  0  0  0  0  0
  188.2110  176.2770  146.2920 C   0  0  0  0  0  0  0  0  0  0  0  0
  193.1200  175.3020  144.9160 C   0  0  0  0  0  0  0  0  0  0  0  0
  194.7580  175.8240  143.5990 N   0  0  0  0  0  0  0  0  0  0  0  0
  193.6950  175.0750  143.6890 C   0  0  0  0  0  3  0  0  0  0  0  0
  194.9030  176.5700  144.7300 N   0  0  0  0  0  0  0  0  0  0  0  0
  193.8940  176.2750  145.5510 C   0  0  0  0  0  0  0  0  0  0  0  0
  193.7100  176.9060  146.9290 C   0  0  0  0  0  1  0  0  0  0  0  0
  195.6580  175.8720  142.4650 C   0  0  0  0  0  0  0  0  0  0  0  0
  196.8360  176.7910  142.7830 C   0  0  0  0  0  1  0  0  0  0  0  0
  194.9040  176.4180  141.2550 C   0  0  0  0  0  1  0  0  0  0  0  0
  196.5400  173.4200  141.9130 N   0  0  0  0  0  0  0  0  0  0  0  0
  196.1640  174.4660  142.1460 C   0  0  0  0  0  0  0  0  0  0  0  0
  186.8550  176.8680  146.6320 C   0  0  0  0  0  0  0  0  0  0  0  0
  186.9570  178.2260  146.6550 F   0  0  0  0  0  0  0  0  0  0  0  0
  185.9590  176.5000  145.6740 F   0  0  0  0  0  0  0  0  0  0  0  0
  186.4360  176.4140  147.8460 F   0  0  0  0  0  0  0  0  0  0  0  0
  1  2  1  0  0  0  0
  2  3  1  0  0  0  0
  3  9  1  0  0  0  0
  4  3  2  0  0  0  0
  4  5  2  0  0  0  0
  5  7  2  0  0  0  0
  6  5  1  0  0  0  0
  7  8  1  0  0  0  0
  9 21  1  0  0  0  0
  9  8  2  0  0  0  0
 10  6  1  0  0  0  0
 10 14  1  0  0  0  0
 11 12  1  0  0  0  0
 11 13  1  0  0  0  0
 12 10  2  0  0  0  0
 13 14  2  0  0  0  0
 14 15  1  0  0  0  0
 16 17  1  0  0  0  0
 16 11  1  0  0  0  0
 18 16  1  0  0  0  0
 19 20  3  0  0  0  0
 20 16  1  0  0  0  0
 21 22  1  0  0  0  0
 21 24  1  0  0  0  0
 23 21  1  0  0  0  0
M  END
>  <MODEL>
8

>  <REMARK>
 VINA RESULT:      -6.1      2.239      3.379
  Name = 8smc
  4 active torsions:
  status: ('A' for Active; 'I' for Inactive)
    1  A    between atoms: N_6  and  C_7
    2  A    between atoms: N_8  and  C_15
    3  A    between atoms: C_15  and  C_18
    4  A    between atoms: C_20  and  C_21
                            x       y       z     vdW  Elec       q    Type
                         _______ _______ _______ _____ _____    ______ ____

>  <TORSDO>
F 4

$$$$
8smc
 OpenBabel11072415313D

 24 25  0  0  0  0  0  0  0  0999 V2000
  189.3510  174.4780  147.4070 C   0  0  0  0  0  1  0  0  0  0  0  0
  189.7490  175.8170  147.0230 N   0  0  0  0  0  2  0  0  0  0  0  0
  190.2000  176.0840  145.6740 C   0  0  0  0  0  0  0  0  0  0  0  0
  189.3390  176.1990  144.6820 N   0  0  0  0  0  4  0  0  0  0  0  0
  189.7360  176.4510  143.4550 C   0  0  0  0  0  0  0  0  0  0  0  0
  188.8040  176.5650  142.3430 N   0  0  0  0  0  2  0  0  0  0  0  0
  191.0200  176.5830  143.1860 N   0  0  0  0  0  0  0  0  0  0  0  0
  191.9430  176.4870  144.1180 C   0  0  0  0  0  3  0  0  0  0  0  0
  191.5480  176.2290  145.4190 C   0  0  0  0  0  0  0  0  0  0  0  0
  187.4990  177.2080  142.3220 C   0  0  0  0  0  0  0  0  0  0  0  0
  185.7540  178.2300  143.0940 N   0  0  0  0  0  0  0  0  0  0  0  0
  186.8890  177.6990  143.4500 C   0  0  0  0  0  3  0  0  0  0  0  0
  185.5920  178.1300  141.7450 N   0  0  0  0  0  0  0  0  0  0  0  0
  186.6650  177.5150  141.2460 C   0  0  0  0  0  0  0  0  0  0  0  0
  186.8540  177.2110  139.7610 C   0  0  0  0  0  1  0  0  0  0  0  0
  184.7970  178.8480  143.9900 C   0  0  0  0  0  0  0  0  0  0  0  0
  183.4240  178.8980  143.3210 C   0  0  0  0  0  1  0  0  0  0  0  0
  185.2580  180.2690  144.3060 C   0  0  0  0  0  1  0  0  0  0  0  0
  184.6560  177.4520  146.2550 N   0  0  0  0  0  0  0  0  0  0  0  0
  184.7150  178.0490  145.2900 C   0  0  0  0  0  0  0  0  0  0  0  0
  192.5560  176.0970  146.5470 C   0  0  0  0  0  0  0  0  0  0  0  0
  192.6310  174.7900  146.9220 F   0  0  0  0  0  0  0  0  0  0  0  0
  193.7760  176.5080  146.1000 F   0  0  0  0  0  0  0  0  0  0  0  0
  192.1770  176.8630  147.6070 F   0  0  0  0  0  0  0  0  0  0  0  0
  2  1  1  0  0  0  0
  3  2  1  0  0  0  0
  4  3  2  0  0  0  0
  5  4  2  0  0  0  0
  6  5  1  0  0  0  0
  7  5  2  0  0  0  0
  7  8  1  0  0  0  0
  8  9  2  0  0  0  0
  9  3  1  0  0  0  0
  9 21  1  0  0  0  0
 10  6  1  0  0  0  0
 10 12  2  0  0  0  0
 11 12  1  0  0  0  0
 11 16  1  0  0  0  0
 13 11  1  0  0  0  0
 14 13  2  0  0  0  0
 14 10  1  0  0  0  0
 15 14  1  0  0  0  0
 16 18  1  0  0  0  0
 16 20  1  0  0  0  0
 17 16  1  0  0  0  0
 20 19  3  0  0  0  0
 21 22  1  0  0  0  0
 21 24  1  0  0  0  0
 23 21  1  0  0  0  0
M  END
>  <MODEL>
9

>  <REMARK>
 VINA RESULT:      -6.1      3.577      7.802
  Name = 8smc
  4 active torsions:
  status: ('A' for Active; 'I' for Inactive)
    1  A    between atoms: N_6  and  C_7
    2  A    between atoms: N_8  and  C_15
    3  A    between atoms: C_15  and  C_18
    4  A    between atoms: C_20  and  C_21
                            x       y       z     vdW  Elec       q    Type
                         _______ _______ _______ _____ _____    ______ ____

>  <TORSDO>
F 4

$$$$
