=
 OpenBabel11052417363D

 25 28  0  0  1  0  0  0  0  0999 V2000
  188.9990  176.0460  143.8500 N   0  0  0  0  0  0  0  0  0  0  0  0
  188.3850  177.1550  143.1140 C   0  0  0  0  0  0  0  0  0  0  0  0
  189.1480  174.6730  141.8940 C   0  0  0  0  0  3  0  0  0  0  0  0
  189.6660  176.1470  145.1020 C   0  0  0  0  0  0  0  0  0  0  0  0
  191.1320  176.1140  147.4700 C   0  0  0  0  0  3  0  0  0  0  0  0
  188.2560  175.5810  141.2280 N   0  0  0  0  0  0  0  0  0  0  0  0
  190.5210  175.0900  145.3760 C   0  0  0  0  0  0  0  0  0  0  0  0
  191.2660  175.0600  146.5570 C   0  0  0  0  0  3  0  0  0  0  0  0
  186.8300  177.5340  141.1280 C   0  0  1  0  0  3  0  0  0  0  0  0
  186.5480  177.4180  139.6710 C   0  0  0  0  0  1  0  0  0  0  0  0
  187.3060  177.8440  143.9040 C   0  0  0  0  0  3  0  0  0  0  0  0
  190.2680  177.1860  147.1940 C   0  0  0  0  0  3  0  0  0  0  0  0
  189.4770  174.8890  143.1660 C   0  0  0  0  0  0  0  0  0  0  0  0
  190.6070  173.8420  144.0900 S   0  0  0  0  0  0  0  0  0  0  0  0
  186.1220  178.3480  141.8550 N   0  0  0  0  0  0  0  0  0  0  0  0
  189.5310  177.2090  146.0020 C   0  0  0  0  0  3  0  0  0  0  0  0
  186.2920  178.4620  143.2820 C   0  0  0  0  0  0  0  0  0  0  0  0
  187.8520  176.6930  141.7740 C   0  0  0  0  0  0  0  0  0  0  0  0
  185.2710  179.1850  144.0860 C   0  0  0  0  0  2  0  0  0  0  0  0
  185.8790  179.6560  145.4020 C   0  0  0  0  0  2  0  0  0  0  0  0
  184.0170  178.1630  146.2390 C   0  0  0  0  0  1  0  0  0  0  0  0
  185.2120  179.0210  146.6220 C   0  0  1  0  0  3  0  0  0  0  0  0
  186.1830  178.2660  147.4730 C   0  0  0  0  0  0  0  0  0  0  0  0
  187.0560  178.9380  148.3210 O   0  0  0  0  0  1  0  0  0  0  0  0
  186.2000  176.9430  147.4300 C   0  0  0  0  0  2  0  0  0  0  0  0
  1  4  1  0  0  0  0
  2  1  1  0  0  0  0
  2 11  2  0  0  0  0
  3 13  2  0  0  0  0
  4  7  2  0  0  0  0
  4 16  1  0  0  0  0
  6 18  2  0  0  0  0
  6  3  1  0  0  0  0
  7  8  1  0  0  0  0
  8  5  2  0  0  0  0
  9 10  1  1  0  0  0
  9 18  1  0  0  0  0
  9 15  1  0  0  0  0
 12  5  1  0  0  0  0
 13  1  1  0  0  0  0
 13 14  1  0  0  0  0
 14  7  1  0  0  0  0
 15 17  2  0  0  0  0
 16 12  2  0  0  0  0
 17 11  1  0  0  0  0
 17 19  1  0  0  0  0
 18  2  1  0  0  0  0
 19 20  1  0  0  0  0
 20 22  1  0  0  0  0
 22 21  1  6  0  0  0
 22 23  1  0  0  0  0
 23 24  1  0  0  0  0
 25 23  2  0  0  0  0
M  END
>  <MODEL>
1

>  <REMARK>
 VINA RESULT:      -7.6      0.000      0.000
  Name = 
  4 active torsions:
  status: ('A' for Active; 'I' for Inactive)
    1  A    between atoms: C_2  and  C_25
    2  A    between atoms: C_6  and  C_15
    3  A    between atoms: C_6  and  C_23
    4  A    between atoms: C_15  and  C_25
                            x       y       z     vdW  Elec       q    Type
                         _______ _______ _______ _____ _____    ______ ____

>  <TORSDO>
F 4

$$$$
=
 OpenBabel11052417363D

 25 28  0  0  1  0  0  0  0  0999 V2000
  186.8790  176.7620  143.3620 N   0  0  0  0  0  0  0  0  0  0  0  0
  187.6320  175.5130  143.2040 C   0  0  0  0  0  0  0  0  0  0  0  0
  186.6990  177.0920  140.9980 C   0  0  0  0  0  3  0  0  0  0  0  0
  186.1630  177.1600  144.5250 C   0  0  0  0  0  0  0  0  0  0  0  0
  184.5850  178.0890  146.6230 C   0  0  0  0  0  3  0  0  0  0  0  0
  187.7050  176.0830  140.8120 N   0  0  0  0  0  0  0  0  0  0  0  0
  185.2000  178.1300  144.2930 C   0  0  0  0  0  0  0  0  0  0  0  0
  184.3980  178.6040  145.3330 C   0  0  0  0  0  3  0  0  0  0  0  0
  189.3120  174.4560  141.6030 C   0  0  1  0  0  3  0  0  0  0  0  0
  189.6540  173.9390  140.2490 C   0  0  0  0  0  1  0  0  0  0  0  0
  188.7300  175.3690  144.2220 C   0  0  0  0  0  3  0  0  0  0  0  0
  185.5590  177.1060  146.8600 C   0  0  0  0  0  3  0  0  0  0  0  0
  186.3290  177.4330  142.2310 C   0  0  0  0  0  0  0  0  0  0  0  0
  185.0610  178.6550  142.5830 S   0  0  0  0  0  0  0  0  0  0  0  0
  190.0570  174.1330  142.6200 N   0  0  0  0  0  0  0  0  0  0  0  0
  186.3540  176.6310  145.8060 C   0  0  0  0  0  3  0  0  0  0  0  0
  189.8270  174.6500  143.9460 C   0  0  0  0  0  0  0  0  0  0  0  0
  188.1850  175.3820  141.8010 C   0  0  0  0  0  0  0  0  0  0  0  0
  190.8710  174.4760  144.9910 C   0  0  0  0  0  2  0  0  0  0  0  0
  190.2860  174.7680  146.3680 C   0  0  0  0  0  2  0  0  0  0  0  0
  192.6950  175.4510  146.7210 C   0  0  0  0  0  1  0  0  0  0  0  0
  191.2950  175.4230  147.3110 C   0  0  1  0  0  3  0  0  0  0  0  0
  190.8570  176.7820  147.7580 C   0  0  0  0  0  0  0  0  0  0  0  0
  191.4990  177.4240  148.8110 O   0  0  0  0  0  1  0  0  0  0  0  0
  189.8580  177.3860  147.1330 C   0  0  0  0  0  2  0  0  0  0  0  0
  1  4  1  0  0  0  0
  2  1  1  0  0  0  0
  2 11  2  0  0  0  0
  3 13  2  0  0  0  0
  4 16  1  0  0  0  0
  5 12  1  0  0  0  0
  6  3  1  0  0  0  0
  6 18  2  0  0  0  0
  7  4  2  0  0  0  0
  7  8  1  0  0  0  0
  8  5  2  0  0  0  0
  9 10  1  6  0  0  0
  9 18  1  0  0  0  0
  9 15  1  0  0  0  0
 13 14  1  0  0  0  0
 13  1  1  0  0  0  0
 14  7  1  0  0  0  0
 15 17  2  0  0  0  0
 16 12  2  0  0  0  0
 17 11  1  0  0  0  0
 17 19  1  0  0  0  0
 18  2  1  0  0  0  0
 19 20  1  0  0  0  0
 20 22  1  0  0  0  0
 22 21  1  6  0  0  0
 22 23  1  0  0  0  0
 23 24  1  0  0  0  0
 25 23  2  0  0  0  0
M  END
>  <MODEL>
2

>  <REMARK>
 VINA RESULT:      -7.2      2.166      5.255
  Name = 
  4 active torsions:
  status: ('A' for Active; 'I' for Inactive)
    1  A    between atoms: C_2  and  C_25
    2  A    between atoms: C_6  and  C_15
    3  A    between atoms: C_6  and  C_23
    4  A    between atoms: C_15  and  C_25
                            x       y       z     vdW  Elec       q    Type
                         _______ _______ _______ _____ _____    ______ ____

>  <TORSDO>
F 4

$$$$
=
 OpenBabel11052417363D

 25 28  0  0  1  0  0  0  0  0999 V2000
  187.1410  177.0570  143.7650 N   0  0  0  0  0  0  0  0  0  0  0  0
  187.7870  175.7680  143.5020 C   0  0  0  0  0  0  0  0  0  0  0  0
  186.6020  177.3940  141.4570 C   0  0  0  0  0  3  0  0  0  0  0  0
  186.6450  177.4970  145.0230 C   0  0  0  0  0  0  0  0  0  0  0  0
  185.4780  178.5180  147.3370 C   0  0  0  0  0  3  0  0  0  0  0  0
  187.5070  176.3290  141.1230 N   0  0  0  0  0  0  0  0  0  0  0  0
  185.7130  178.5210  144.9390 C   0  0  0  0  0  0  0  0  0  0  0  0
  185.1160  179.0420  146.0890 C   0  0  0  0  0  3  0  0  0  0  0  0
  189.1270  174.6140  141.6640 C   0  0  1  0  0  3  0  0  0  0  0  0
  189.2170  174.0760  140.2780 C   0  0  0  0  0  1  0  0  0  0  0  0
  189.0250  175.5620  144.3320 C   0  0  0  0  0  3  0  0  0  0  0  0
  186.4220  177.4820  147.4250 C   0  0  0  0  0  3  0  0  0  0  0  0
  186.4550  177.7570  142.7290 C   0  0  0  0  0  0  0  0  0  0  0  0
  185.3300  179.0500  143.2680 S   0  0  0  0  0  0  0  0  0  0  0  0
  190.0060  174.2500  142.5520 N   0  0  0  0  0  0  0  0  0  0  0  0
  187.0080  176.9610  146.2630 C   0  0  0  0  0  3  0  0  0  0  0  0
  190.0210  174.7820  143.8910 C   0  0  0  0  0  0  0  0  0  0  0  0
  188.0990  175.6030  142.0290 C   0  0  0  0  0  0  0  0  0  0  0  0
  191.2080  174.5500  144.7570 C   0  0  0  0  0  2  0  0  0  0  0  0
  192.1060  175.7820  144.7550 C   0  0  0  0  0  2  0  0  0  0  0  0
  191.8900  175.3410  147.2360 C   0  0  0  0  0  1  0  0  0  0  0  0
  192.5050  176.2240  146.1620 C   0  0  1  0  0  3  0  0  0  0  0  0
  193.9880  176.3360  146.3240 C   0  0  0  0  0  0  0  0  0  0  0  0
  194.5730  177.5390  146.7040 O   0  0  0  0  0  1  0  0  0  0  0  0
  194.7510  175.2730  146.1180 C   0  0  0  0  0  2  0  0  0  0  0  0
  1  4  1  0  0  0  0
  2  1  1  0  0  0  0
  2 11  2  0  0  0  0
  3 13  2  0  0  0  0
  4 16  1  0  0  0  0
  5 12  1  0  0  0  0
  6  3  1  0  0  0  0
  6 18  2  0  0  0  0
  7  4  2  0  0  0  0
  7  8  1  0  0  0  0
  8  5  2  0  0  0  0
  9 10  1  6  0  0  0
  9 18  1  0  0  0  0
  9 15  1  0  0  0  0
 13 14  1  0  0  0  0
 13  1  1  0  0  0  0
 14  7  1  0  0  0  0
 15 17  2  0  0  0  0
 16 12  2  0  0  0  0
 17 11  1  0  0  0  0
 17 19  1  0  0  0  0
 18  2  1  0  0  0  0
 20 19  1  0  0  0  0
 20 22  1  0  0  0  0
 22 23  1  0  0  0  0
 22 21  1  1  0  0  0
 23 24  1  0  0  0  0
 25 23  2  0  0  0  0
M  END
>  <MODEL>
3

>  <REMARK>
 VINA RESULT:      -6.9      2.643      5.675
  Name = 
  4 active torsions:
  status: ('A' for Active; 'I' for Inactive)
    1  A    between atoms: C_2  and  C_25
    2  A    between atoms: C_6  and  C_15
    3  A    between atoms: C_6  and  C_23
    4  A    between atoms: C_15  and  C_25
                            x       y       z     vdW  Elec       q    Type
                         _______ _______ _______ _____ _____    ______ ____

>  <TORSDO>
F 4

$$$$
=
 OpenBabel11052417363D

 25 28  0  0  1  0  0  0  0  0999 V2000
  187.0370  176.8980  143.7550 N   0  0  0  0  0  0  0  0  0  0  0  0
  187.8300  175.6900  144.0040 C   0  0  0  0  0  0  0  0  0  0  0  0
  187.3670  176.7730  141.3880 C   0  0  0  0  0  3  0  0  0  0  0  0
  186.0780  177.4610  144.6430 C   0  0  0  0  0  0  0  0  0  0  0  0
  184.0640  178.6650  146.1440 C   0  0  0  0  0  3  0  0  0  0  0  0
  188.4080  175.8110  141.6150 N   0  0  0  0  0  0  0  0  0  0  0  0
  185.1690  178.3110  144.0320 C   0  0  0  0  0  0  0  0  0  0  0  0
  184.1520  178.9200  144.7680 C   0  0  0  0  0  3  0  0  0  0  0  0
  189.8370  174.4590  143.0250 C   0  0  1  0  0  3  0  0  0  0  0  0
  190.4750  173.7210  141.9000 C   0  0  0  0  0  1  0  0  0  0  0  0
  188.6840  175.8040  145.2370 C   0  0  0  0  0  3  0  0  0  0  0  0
  184.9840  177.8040  146.7650 C   0  0  0  0  0  3  0  0  0  0  0  0
  186.7320  177.3140  142.4260 C   0  0  0  0  0  0  0  0  0  0  0  0
  185.3940  178.5000  142.2620 S   0  0  0  0  0  0  0  0  0  0  0  0
  190.3500  174.3750  144.2190 N   0  0  0  0  0  0  0  0  0  0  0  0
  185.9960  177.1920  146.0130 C   0  0  0  0  0  3  0  0  0  0  0  0
  189.8290  175.1150  145.3410 C   0  0  0  0  0  0  0  0  0  0  0  0
  188.6760  175.3350  142.7990 C   0  0  0  0  0  0  0  0  0  0  0  0
  190.6240  175.2010  146.5940 C   0  0  0  0  0  2  0  0  0  0  0  0
  192.1100  175.0700  146.2790 C   0  0  0  0  0  2  0  0  0  0  0  0
  194.1910  176.4880  146.5130 C   0  0  0  0  0  1  0  0  0  0  0  0
  192.7700  176.4150  145.9780 C   0  0  1  0  0  3  0  0  0  0  0  0
  192.7100  176.7660  144.5250 C   0  0  0  0  0  0  0  0  0  0  0  0
  191.8500  177.7590  144.0690 O   0  0  0  0  0  1  0  0  0  0  0  0
  193.4950  176.1340  143.6660 C   0  0  0  0  0  2  0  0  0  0  0  0
  1  2  1  0  0  0  0
  1  4  1  0  0  0  0
  2 11  2  0  0  0  0
  3  6  1  0  0  0  0
  3 13  2  0  0  0  0
  4 16  1  0  0  0  0
  5 12  1  0  0  0  0
  6 18  2  0  0  0  0
  7  4  2  0  0  0  0
  7  8  1  0  0  0  0
  8  5  2  0  0  0  0
  9 10  1  6  0  0  0
  9 15  1  0  0  0  0
 11 17  1  0  0  0  0
 13  1  1  0  0  0  0
 14 13  1  0  0  0  0
 14  7  1  0  0  0  0
 15 17  2  0  0  0  0
 16 12  2  0  0  0  0
 17 19  1  0  0  0  0
 18  9  1  0  0  0  0
 18  2  1  0  0  0  0
 20 19  1  0  0  0  0
 22 20  1  0  0  0  0
 22 21  1  6  0  0  0
 23 22  1  0  0  0  0
 24 23  1  0  0  0  0
 25 23  2  0  0  0  0
M  END
>  <MODEL>
4

>  <REMARK>
 VINA RESULT:      -6.8      2.537      5.955
  Name = 
  4 active torsions:
  status: ('A' for Active; 'I' for Inactive)
    1  A    between atoms: C_2  and  C_25
    2  A    between atoms: C_6  and  C_15
    3  A    between atoms: C_6  and  C_23
    4  A    between atoms: C_15  and  C_25
                            x       y       z     vdW  Elec       q    Type
                         _______ _______ _______ _____ _____    ______ ____

>  <TORSDO>
F 4

$$$$
=
 OpenBabel11052417363D

 25 28  0  0  1  0  0  0  0  0999 V2000
  187.0740  177.0610  143.9600 N   0  0  0  0  0  0  0  0  0  0  0  0
  188.1050  176.0260  144.0740 C   0  0  0  0  0  0  0  0  0  0  0  0
  186.8890  176.7860  141.5900 C   0  0  0  0  0  3  0  0  0  0  0  0
  186.2500  177.5350  145.0190 C   0  0  0  0  0  0  0  0  0  0  0  0
  184.4360  178.5190  146.8890 C   0  0  0  0  0  3  0  0  0  0  0  0
  188.1100  176.0310  141.6130 N   0  0  0  0  0  0  0  0  0  0  0  0
  185.0910  178.1680  144.5960 C   0  0  0  0  0  0  0  0  0  0  0  0
  184.1690  178.6640  145.5200 C   0  0  0  0  0  3  0  0  0  0  0  0
  190.0340  175.0590  142.7140 C   0  0  1  0  0  3  0  0  0  0  0  0
  190.5290  174.3410  141.5070 C   0  0  0  0  0  1  0  0  0  0  0  0
  189.1770  176.3850  145.0670 C   0  0  0  0  0  3  0  0  0  0  0  0
  185.6090  177.8780  147.3190 C   0  0  0  0  0  3  0  0  0  0  0  0
  186.4130  177.3040  142.7200 C   0  0  0  0  0  0  0  0  0  0  0  0
  184.8810  178.2360  142.8160 S   0  0  0  0  0  0  0  0  0  0  0  0
  190.8050  175.1660  143.7580 N   0  0  0  0  0  0  0  0  0  0  0  0
  186.5230  177.3770  146.3820 C   0  0  0  0  0  3  0  0  0  0  0  0
  190.4200  175.9040  144.9340 C   0  0  0  0  0  0  0  0  0  0  0  0
  188.7140  175.7100  142.7240 C   0  0  0  0  0  0  0  0  0  0  0  0
  191.4450  176.2280  145.9620 C   0  0  0  0  0  2  0  0  0  0  0  0
  192.7760  175.5810  145.5950 C   0  0  0  0  0  2  0  0  0  0  0  0
  194.5590  177.1660  146.4370 C   0  0  0  0  0  1  0  0  0  0  0  0
  193.8460  176.6050  145.2170 C   0  0  1  0  0  3  0  0  0  0  0  0
  194.8140  176.0710  144.2100 C   0  0  0  0  0  0  0  0  0  0  0  0
  195.9710  176.7740  143.8940 O   0  0  0  0  0  1  0  0  0  0  0  0
  194.5740  174.9070  143.6240 C   0  0  0  0  0  2  0  0  0  0  0  0
  1  2  1  0  0  0  0
  1  4  1  0  0  0  0
  2 11  2  0  0  0  0
  3  6  1  0  0  0  0
  3 13  2  0  0  0  0
  4 16  1  0  0  0  0
  5 12  1  0  0  0  0
  6 18  2  0  0  0  0
  7  4  2  0  0  0  0
  7  8  1  0  0  0  0
  8  5  2  0  0  0  0
  9 10  1  6  0  0  0
  9 18  1  0  0  0  0
  9 15  1  0  0  0  0
 13 14  1  0  0  0  0
 13  1  1  0  0  0  0
 14  7  1  0  0  0  0
 15 17  2  0  0  0  0
 16 12  2  0  0  0  0
 17 11  1  0  0  0  0
 17 19  1  0  0  0  0
 18  2  1  0  0  0  0
 20 19  1  0  0  0  0
 22 20  1  0  0  0  0
 22 21  1  1  0  0  0
 23 22  1  0  0  0  0
 24 23  1  0  0  0  0
 25 23  2  0  0  0  0
M  END
>  <MODEL>
5

>  <REMARK>
 VINA RESULT:      -6.7      3.177      6.315
  Name = 
  4 active torsions:
  status: ('A' for Active; 'I' for Inactive)
    1  A    between atoms: C_2  and  C_25
    2  A    between atoms: C_6  and  C_15
    3  A    between atoms: C_6  and  C_23
    4  A    between atoms: C_15  and  C_25
                            x       y       z     vdW  Elec       q    Type
                         _______ _______ _______ _____ _____    ______ ____

>  <TORSDO>
F 4

$$$$
=
 OpenBabel11052417363D

 25 28  0  0  1  0  0  0  0  0999 V2000
  191.4350  175.3000  143.8760 N   0  0  0  0  0  0  0  0  0  0  0  0
  190.3530  176.2500  143.6030 C   0  0  0  0  0  0  0  0  0  0  0  0
  191.1530  174.1900  141.7740 C   0  0  0  0  0  3  0  0  0  0  0  0
  192.4800  175.4790  144.8250 C   0  0  0  0  0  0  0  0  0  0  0  0
  194.6910  175.6620  146.5090 C   0  0  0  0  0  3  0  0  0  0  0  0
  189.8930  174.8640  141.6230 N   0  0  0  0  0  0  0  0  0  0  0  0
  193.5930  174.6840  144.5990 C   0  0  0  0  0  0  0  0  0  0  0  0
  194.7110  174.7660  145.4320 C   0  0  0  0  0  3  0  0  0  0  0  0
  188.1260  176.3430  142.3640 C   0  0  1  0  0  3  0  0  0  0  0  0
  187.3530  176.2730  141.0930 C   0  0  0  0  0  1  0  0  0  0  0  0
  189.5210  176.5430  144.8220 C   0  0  0  0  0  3  0  0  0  0  0  0
  193.5640  176.4690  146.7390 C   0  0  0  0  0  3  0  0  0  0  0  0
  191.8740  174.3830  142.8760 C   0  0  0  0  0  0  0  0  0  0  0  0
  193.4760  173.6210  143.1590 S   0  0  0  0  0  0  0  0  0  0  0  0
  187.5740  176.8640  143.4210 N   0  0  0  0  0  0  0  0  0  0  0  0
  192.4510  176.3840  145.8920 C   0  0  0  0  0  3  0  0  0  0  0  0
  188.2350  176.9020  144.7020 C   0  0  0  0  0  0  0  0  0  0  0  0
  189.4790  175.7710  142.4640 C   0  0  0  0  0  0  0  0  0  0  0  0
  187.4520  177.2420  145.9200 C   0  0  0  0  0  2  0  0  0  0  0  0
  185.9880  176.8710  145.7190 C   0  0  0  0  0  2  0  0  0  0  0  0
  185.4790  179.0380  146.9200 C   0  0  0  0  0  1  0  0  0  0  0  0
  185.0530  178.0760  145.8220 C   0  0  1  0  0  3  0  0  0  0  0  0
  184.8800  178.7760  144.5120 C   0  0  0  0  0  0  0  0  0  0  0  0
  183.9960  178.2870  143.5570 O   0  0  0  0  0  1  0  0  0  0  0  0
  185.5660  179.8820  144.2650 C   0  0  0  0  0  2  0  0  0  0  0  0
  1  4  1  0  0  0  0
  2  1  1  0  0  0  0
  2 11  2  0  0  0  0
  3 13  2  0  0  0  0
  4 16  1  0  0  0  0
  5 12  1  0  0  0  0
  6  3  1  0  0  0  0
  6 18  2  0  0  0  0
  7  4  2  0  0  0  0
  7  8  1  0  0  0  0
  8  5  2  0  0  0  0
  9 10  1  1  0  0  0
  9 18  1  0  0  0  0
  9 15  1  0  0  0  0
 13 14  1  0  0  0  0
 13  1  1  0  0  0  0
 14  7  1  0  0  0  0
 15 17  2  0  0  0  0
 16 12  2  0  0  0  0
 17 11  1  0  0  0  0
 17 19  1  0  0  0  0
 18  2  1  0  0  0  0
 20 22  1  0  0  0  0
 20 19  1  0  0  0  0
 22 21  1  1  0  0  0
 23 22  1  0  0  0  0
 24 23  1  0  0  0  0
 25 23  2  0  0  0  0
M  END
>  <MODEL>
6

>  <REMARK>
 VINA RESULT:      -6.5      2.293      2.985
  Name = 
  4 active torsions:
  status: ('A' for Active; 'I' for Inactive)
    1  A    between atoms: C_2  and  C_25
    2  A    between atoms: C_6  and  C_15
    3  A    between atoms: C_6  and  C_23
    4  A    between atoms: C_15  and  C_25
                            x       y       z     vdW  Elec       q    Type
                         _______ _______ _______ _____ _____    ______ ____

>  <TORSDO>
F 4

$$$$
=
 OpenBabel11052417363D

 25 28  0  0  1  0  0  0  0  0999 V2000
  190.4750  175.4690  143.8600 N   0  0  0  0  0  0  0  0  0  0  0  0
  189.9920  175.6390  145.2340 C   0  0  2  0  0  3  0  0  0  0  0  0
  192.7640  175.7480  144.5020 C   0  0  0  0  0  3  0  0  0  0  0  0
  189.7610  174.8460  142.7990 C   0  0  0  0  0  0  0  0  0  0  0  0
  188.6240  173.5530  140.6100 C   0  0  0  0  0  3  0  0  0  0  0  0
  192.3140  176.2490  145.7710 N   0  0  0  0  0  0  0  0  0  0  0  0
  190.5620  174.4200  141.7510 C   0  0  0  0  0  0  0  0  0  0  0  0
  190.0090  173.7670  140.6470 C   0  0  0  0  0  3  0  0  0  0  0  0
  190.6100  176.9050  147.3600 C   0  0  0  0  0  0  0  0  0  0  0  0
  191.5620  177.1670  148.4750 C   0  0  0  0  0  1  0  0  0  0  0  0
  188.7170  176.4340  145.3050 C   0  0  0  0  0  3  0  0  0  0  0  0
  187.8110  173.9840  141.6710 C   0  0  0  0  0  3  0  0  0  0  0  0
  191.8710  175.4030  143.5780 C   0  0  0  0  0  0  0  0  0  0  0  0
  192.3150  174.7340  141.9710 S   0  0  0  0  0  0  0  0  0  0  0  0
  189.3770  177.3080  147.4620 N   0  0  0  0  0  0  0  0  0  0  0  0
  188.3790  174.6310  142.7770 C   0  0  0  0  0  3  0  0  0  0  0  0
  188.4190  177.1510  146.3960 C   0  0  0  0  0  0  0  0  0  0  0  0
  191.0570  176.2580  146.1150 C   0  0  0  0  0  0  0  0  0  0  0  0
  187.1250  177.8820  146.4620 C   0  0  0  0  0  2  0  0  0  0  0  0
  185.9830  176.9590  146.0520 C   0  0  0  0  0  2  0  0  0  0  0  0
  184.1190  178.6680  146.1040 C   0  0  0  0  0  1  0  0  0  0  0  0
  184.8990  177.6810  145.2510 C   0  0  1  0  0  3  0  0  0  0  0  0
  185.4410  178.3270  144.0160 C   0  0  0  0  0  0  0  0  0  0  0  0
  185.5490  179.7100  143.9270 O   0  0  0  0  0  1  0  0  0  0  0  0
  185.8370  177.5730  143.0020 C   0  0  0  0  0  2  0  0  0  0  0  0
  1  2  1  0  0  0  0
  2 11  1  6  0  0  0
  2 18  1  0  0  0  0
  3  6  1  0  0  0  0
  4  1  1  0  0  0  0
  5  8  2  0  0  0  0
  5 12  1  0  0  0  0
  6 18  2  0  0  0  0
  7 14  1  0  0  0  0
  7  4  2  0  0  0  0
  8  7  1  0  0  0  0
  9 15  2  0  0  0  0
  9 10  1  0  0  0  0
 11 17  2  0  0  0  0
 12 16  2  0  0  0  0
 13  1  1  0  0  0  0
 13  3  2  0  0  0  0
 14 13  1  0  0  0  0
 16  4  1  0  0  0  0
 17 19  1  0  0  0  0
 17 15  1  0  0  0  0
 18  9  1  0  0  0  0
 20 19  1  0  0  0  0
 22 20  1  0  0  0  0
 22 21  1  1  0  0  0
 23 22  1  0  0  0  0
 24 23  1  0  0  0  0
 25 23  2  0  0  0  0
M  END
>  <MODEL>
7

>  <REMARK>
 VINA RESULT:      -6.4      2.230      4.885
  Name = 
  4 active torsions:
  status: ('A' for Active; 'I' for Inactive)
    1  A    between atoms: C_2  and  C_25
    2  A    between atoms: C_6  and  C_15
    3  A    between atoms: C_6  and  C_23
    4  A    between atoms: C_15  and  C_25
                            x       y       z     vdW  Elec       q    Type
                         _______ _______ _______ _____ _____    ______ ____

>  <TORSDO>
F 4

$$$$
=
 OpenBabel11052417363D

 25 28  0  0  1  0  0  0  0  0999 V2000
  187.6810  176.5180  145.0130 N   0  0  0  0  0  0  0  0  0  0  0  0
  188.8020  176.0510  144.1920 C   0  0  0  0  0  0  0  0  0  0  0  0
  188.4950  175.4070  146.9710 C   0  0  0  0  0  3  0  0  0  0  0  0
  186.8430  177.6300  144.7210 C   0  0  0  0  0  0  0  0  0  0  0  0
  185.1670  179.8360  144.4390 C   0  0  0  0  0  3  0  0  0  0  0  0
  189.3990  174.6660  146.1360 N   0  0  0  0  0  0  0  0  0  0  0  0
  186.1630  178.1310  145.8210 C   0  0  0  0  0  0  0  0  0  0  0  0
  185.3220  179.2390  145.6970 C   0  0  0  0  0  3  0  0  0  0  0  0
  190.3550  174.0360  144.0030 C   0  0  1  0  0  3  0  0  0  0  0  0
  191.4130  173.1650  144.5840 C   0  0  0  0  0  1  0  0  0  0  0  0
  188.3800  175.6730  142.7980 C   0  0  0  0  0  3  0  0  0  0  0  0
  185.8550  179.3310  143.3240 C   0  0  0  0  0  3  0  0  0  0  0  0
  187.6510  176.2750  146.4180 C   0  0  0  0  0  0  0  0  0  0  0  0
  186.5000  177.2790  147.3630 S   0  0  0  0  0  0  0  0  0  0  0  0
  190.1160  173.9890  142.7250 N   0  0  0  0  0  0  0  0  0  0  0  0
  186.7040  178.2230  143.4620 C   0  0  0  0  0  3  0  0  0  0  0  0
  189.0620  174.7520  142.1040 C   0  0  0  0  0  0  0  0  0  0  0  0
  189.5270  174.9010  144.8600 C   0  0  0  0  0  0  0  0  0  0  0  0
  188.6580  174.4390  140.7070 C   0  0  0  0  0  2  0  0  0  0  0  0
  188.5400  172.9310  140.5230 C   0  0  0  0  0  2  0  0  0  0  0  0
  188.3020  173.7120  138.1300 C   0  0  0  0  0  1  0  0  0  0  0  0
  188.4830  172.5180  139.0530 C   0  0  1  0  0  3  0  0  0  0  0  0
  189.6560  171.6820  138.6500 C   0  0  0  0  0  0  0  0  0  0  0  0
  189.5020  170.3300  138.3690 O   0  0  0  0  0  1  0  0  0  0  0  0
  190.8520  172.2410  138.5450 C   0  0  0  0  0  2  0  0  0  0  0  0
  1 13  1  0  0  0  0
  2 18  1  0  0  0  0
  2  1  1  0  0  0  0
  4  1  1  0  0  0  0
  4  7  1  0  0  0  0
  5  8  1  0  0  0  0
  6  3  1  0  0  0  0
  7 14  1  0  0  0  0
  8  7  2  0  0  0  0
  9 10  1  1  0  0  0
  9 18  1  0  0  0  0
 11  2  2  0  0  0  0
 12 16  1  0  0  0  0
 12  5  2  0  0  0  0
 13  3  2  0  0  0  0
 13 14  1  0  0  0  0
 15  9  1  0  0  0  0
 16  4  2  0  0  0  0
 17 15  2  0  0  0  0
 17 11  1  0  0  0  0
 18  6  2  0  0  0  0
 19 17  1  0  0  0  0
 20 19  1  0  0  0  0
 22 21  1  6  0  0  0
 22 20  1  0  0  0  0
 23 22  1  0  0  0  0
 24 23  1  0  0  0  0
 25 23  2  0  0  0  0
M  END
>  <MODEL>
8

>  <REMARK>
 VINA RESULT:      -6.3      3.678      7.128
  Name = 
  4 active torsions:
  status: ('A' for Active; 'I' for Inactive)
    1  A    between atoms: C_2  and  C_25
    2  A    between atoms: C_6  and  C_15
    3  A    between atoms: C_6  and  C_23
    4  A    between atoms: C_15  and  C_25
                            x       y       z     vdW  Elec       q    Type
                         _______ _______ _______ _____ _____    ______ ____

>  <TORSDO>
F 4

$$$$
=
 OpenBabel11052417363D

 25 28  0  0  1  0  0  0  0  0999 V2000
  187.2960  177.3320  144.1910 N   0  0  0  0  0  0  0  0  0  0  0  0
  188.7310  177.2210  144.4680 C   0  0  2  0  0  3  0  0  0  0  0  0
  186.7820  177.9160  146.4540 C   0  0  0  0  0  3  0  0  0  0  0  0
  186.7090  177.5230  142.9090 C   0  0  0  0  0  0  0  0  0  0  0  0
  185.3400  178.0320  140.5370 C   0  0  0  0  0  3  0  0  0  0  0  0
  188.1010  177.4900  146.8310 N   0  0  0  0  0  0  0  0  0  0  0  0
  185.4170  178.0270  142.9460 C   0  0  0  0  0  0  0  0  0  0  0  0
  184.7180  178.2910  141.7670 C   0  0  0  0  0  3  0  0  0  0  0  0
  190.2870  176.5560  146.3770 C   0  0  0  0  0  0  0  0  0  0  0  0
  190.8180  176.7890  147.7480 C   0  0  0  0  0  1  0  0  0  0  0  0
  189.3720  176.0710  143.7380 C   0  0  0  0  0  3  0  0  0  0  0  0
  186.6480  177.5220  140.4980 C   0  0  0  0  0  3  0  0  0  0  0  0
  186.3930  177.8090  145.1860 C   0  0  0  0  0  0  0  0  0  0  0  0
  184.7820  178.3390  144.5940 S   0  0  0  0  0  0  0  0  0  0  0  0
  190.9460  175.7920  145.5550 N   0  0  0  0  0  0  0  0  0  0  0  0
  187.3430  177.2680  141.6890 C   0  0  0  0  0  3  0  0  0  0  0  0
  190.4590  175.4670  144.2380 C   0  0  0  0  0  0  0  0  0  0  0  0
  188.9940  177.1210  145.9560 C   0  0  0  0  0  0  0  0  0  0  0  0
  191.1070  174.3720  143.4670 C   0  0  0  0  0  2  0  0  0  0  0  0
  190.9370  174.6140  141.9720 C   0  0  0  0  0  2  0  0  0  0  0  0
  190.3880  172.1460  142.0460 C   0  0  0  0  0  1  0  0  0  0  0  0
  190.2690  173.4400  141.2560 C   0  0  1  0  0  3  0  0  0  0  0  0
  188.8490  173.7310  140.8860 C   0  0  0  0  0  0  0  0  0  0  0  0
  187.8260  173.5690  141.8130 O   0  0  0  0  0  1  0  0  0  0  0  0
  188.5660  174.1650  139.6670 C   0  0  0  0  0  2  0  0  0  0  0  0
  1  2  1  0  0  0  0
  1 13  1  0  0  0  0
  2 11  1  6  0  0  0
  2 18  1  0  0  0  0
  3  6  1  0  0  0  0
  4  7  1  0  0  0  0
  4  1  1  0  0  0  0
  5  8  1  0  0  0  0
  7 14  1  0  0  0  0
  8  7  2  0  0  0  0
  9 10  1  0  0  0  0
 11 17  2  0  0  0  0
 12  5  2  0  0  0  0
 12 16  1  0  0  0  0
 13  3  2  0  0  0  0
 14 13  1  0  0  0  0
 15  9  2  0  0  0  0
 16  4  2  0  0  0  0
 17 15  1  0  0  0  0
 18  9  1  0  0  0  0
 18  6  2  0  0  0  0
 19 17  1  0  0  0  0
 20 19  1  0  0  0  0
 22 20  1  0  0  0  0
 22 21  1  1  0  0  0
 23 22  1  0  0  0  0
 23 24  1  0  0  0  0
 25 23  2  0  0  0  0
M  END
>  <MODEL>
9

>  <REMARK>
 VINA RESULT:      -6.2      2.801      6.906
  Name = 
  4 active torsions:
  status: ('A' for Active; 'I' for Inactive)
    1  A    between atoms: C_2  and  C_25
    2  A    between atoms: C_6  and  C_15
    3  A    between atoms: C_6  and  C_23
    4  A    between atoms: C_15  and  C_25
                            x       y       z     vdW  Elec       q    Type
                         _______ _______ _______ _____ _____    ______ ____

>  <TORSDO>
F 4

$$$$
