=
 OpenBabel11052420143D

 34 38  0  0  1  0  0  0  0  0999 V2000
  190.2900  177.1310  144.7080 C   0  0  0  0  0  0  0  0  0  0  0  0
  187.0120  176.5760  146.3470 C   0  0  0  0  0  3  0  0  0  0  0  0
  189.1460  176.3870  147.1540 N   0  0  0  0  0  2  0  0  0  0  0  0
  193.4130  176.5690  144.8970 C   0  0  0  0  0  0  0  0  0  0  0  0
  190.8410  177.5360  143.6480 O   0  0  0  0  0  0  0  0  0  0  0  0
  192.3880  176.4550  145.8900 N   0  0  0  0  0  0  0  0  0  0  0  0
  192.6430  176.0800  147.1390 N   0  0  0  0  0  0  0  0  0  0  0  0
  194.5090  177.1150  145.1920 O   0  0  0  0  0  0  0  0  0  0  0  0
  190.4810  176.3340  146.9530 C   0  0  0  0  0  0  0  0  0  0  0  0
  191.0550  176.6190  145.7590 C   0  0  0  0  0  0  0  0  0  0  0  0
  191.4800  175.9890  147.8330 C   0  0  0  0  0  3  0  0  0  0  0  0
  185.9450  176.6240  145.3100 C   0  0  0  0  0  2  0  0  0  0  0  0
  185.8140  177.9630  144.6800 C   0  0  0  0  0  0  0  0  0  0  0  0
  186.8340  178.5030  144.0180 C   0  0  0  0  0  3  0  0  0  0  0  0
  188.3170  176.7780  146.1400 C   0  0  0  0  0  0  0  0  0  0  0  0
  188.2200  178.0020  143.9910 C   0  0  0  0  0  3  0  0  0  0  0  0
  188.8860  177.2630  144.9040 C   0  0  0  0  0  0  0  0  0  0  0  0
  184.4920  178.6110  144.6480 C   0  0  0  0  0  0  0  0  0  0  0  0
  183.7330  178.5880  143.4820 O   0  0  0  0  0  0  0  0  0  0  0  0
  184.0310  179.1870  145.6700 O   0  0  0  0  0  1  0  0  0  0  0  0
  193.2280  175.8090  143.2820 S   0  0  0  0  0  0  0  0  0  0  0  0
  192.7820  171.9770  144.6260 C   0  0  0  0  0  3  0  0  0  0  0  0
  194.9040  173.8100  144.2080 C   0  0  0  0  0  3  0  0  0  0  0  0
  194.4810  170.4210  145.4090 N   0  0  0  0  0  0  0  0  0  0  0  0
  194.1010  171.6270  144.9180 C   0  0  0  0  0  0  0  0  0  0  0  0
  196.5850  171.8210  145.1430 S   0  0  0  0  0  0  0  0  0  0  0  0
  195.1300  172.5310  144.7080 C   0  0  0  0  0  0  0  0  0  0  0  0
  195.8240  170.3790  145.5960 C   0  0  0  0  0  0  0  0  0  0  0  0
  193.5800  174.1760  143.9160 C   0  0  0  0  0  0  0  0  0  0  0  0
  192.5260  173.2630  144.1220 C   0  0  0  0  0  3  0  0  0  0  0  0
  196.5530  169.1710  146.0880 C   0  0  1  0  0  3  0  0  0  0  0  0
  197.9310  169.3380  145.9410 O   0  0  0  0  0  1  0  0  0  0  0  0
  196.2030  168.8630  147.5390 C   0  0  0  0  0  2  0  0  0  0  0  0
  197.3260  168.4080  148.2330 O   0  0  0  0  0  1  0  0  0  0  0  0
  1 17  1  0  0  0  0
  1 10  1  0  0  0  0
  4  8  2  0  0  0  0
  4  6  1  0  0  0  0
  5  1  2  0  0  0  0
  6  7  1  0  0  0  0
  7 11  2  0  0  0  0
  9  3  1  0  0  0  0
  9 11  1  0  0  0  0
 10  6  1  0  0  0  0
 10  9  2  0  0  0  0
 12  2  1  0  0  0  0
 13 12  1  0  0  0  0
 14 13  2  0  0  0  0
 15  2  2  0  0  0  0
 15  3  1  0  0  0  0
 16 14  1  0  0  0  0
 16 17  2  0  0  0  0
 17 15  1  0  0  0  0
 18 13  1  0  0  0  0
 18 20  1  0  0  0  0
 19 18  2  0  0  0  0
 21 29  1  0  0  0  0
 21  4  1  0  0  0  0
 22 25  1  0  0  0  0
 23 27  1  0  0  0  0
 24 28  2  0  0  0  0
 25 24  1  0  0  0  0
 26 28  1  0  0  0  0
 27 25  2  0  0  0  0
 27 26  1  0  0  0  0
 28 31  1  0  0  0  0
 29 30  1  0  0  0  0
 29 23  2  0  0  0  0
 30 22  2  0  0  0  0
 31 32  1  1  0  0  0
 31 33  1  0  0  0  0
 33 34  1  0  0  0  0
M  END
>  <MODEL>
1

>  <REMARK>
 VINA RESULT:      -8.0      0.000      0.000
  Name = 
  5 active torsions:
  status: ('A' for Active; 'I' for Inactive)
    1  A    between atoms: C_3  and  C_25
    2  A    between atoms: C_7  and  C_11
    3  A    between atoms: C_7  and  C_29
    4  A    between atoms: C_8  and  S_18
    5  A    between atoms: S_18  and  C_30
                            x       y       z     vdW  Elec       q    Type
                         _______ _______ _______ _____ _____    ______ ____

>  <TORSDO>
F 5

$$$$
=
 OpenBabel11052420143D

 34 38  0  0  1  0  0  0  0  0999 V2000
  190.9900  176.9460  144.1700 C   0  0  0  0  0  0  0  0  0  0  0  0
  187.4500  175.8940  143.8540 C   0  0  0  0  0  3  0  0  0  0  0  0
  188.9430  175.6430  145.5700 N   0  0  0  0  0  2  0  0  0  0  0  0
  193.6910  176.5100  145.7900 C   0  0  0  0  0  0  0  0  0  0  0  0
  191.9130  177.5930  143.6040 O   0  0  0  0  0  0  0  0  0  0  0  0
  192.3460  176.1370  146.1100 N   0  0  0  0  0  0  0  0  0  0  0  0
  192.0270  175.5180  147.2430 N   0  0  0  0  0  0  0  0  0  0  0  0
  194.4190  177.0340  146.6730 O   0  0  0  0  0  0  0  0  0  0  0  0
  190.2040  175.6990  146.0520 C   0  0  0  0  0  0  0  0  0  0  0  0
  191.2280  176.2600  145.3640 C   0  0  0  0  0  0  0  0  0  0  0  0
  190.7020  175.2250  147.2430 C   0  0  0  0  0  3  0  0  0  0  0  0
  187.0110  176.1100  142.4470 C   0  0  0  0  0  2  0  0  0  0  0  0
  187.0010  177.5440  142.0600 C   0  0  0  0  0  0  0  0  0  0  0  0
  188.1210  178.2620  142.0880 C   0  0  0  0  0  3  0  0  0  0  0  0
  188.6500  176.2000  144.3570 C   0  0  0  0  0  0  0  0  0  0  0  0
  189.4090  177.8470  142.6720 C   0  0  0  0  0  3  0  0  0  0  0  0
  189.6600  176.9640  143.6620 C   0  0  0  0  0  0  0  0  0  0  0  0
  185.7740  178.1190  141.4810 C   0  0  0  0  0  0  0  0  0  0  0  0
  185.6110  178.1650  140.1000 O   0  0  0  0  0  0  0  0  0  0  0  0
  184.8600  178.5680  142.2240 O   0  0  0  0  0  1  0  0  0  0  0  0
  194.4110  176.1030  144.1980 S   0  0  0  0  0  0  0  0  0  0  0  0
  196.9810  173.4340  145.9200 C   0  0  0  0  0  3  0  0  0  0  0  0
  194.4310  173.3780  144.6830 C   0  0  0  0  0  3  0  0  0  0  0  0
  196.7310  171.0300  146.2000 N   0  0  0  0  0  0  0  0  0  0  0  0
  196.2800  172.2370  145.7760 C   0  0  0  0  0  0  0  0  0  0  0  0
  194.4470  170.6510  145.1530 S   0  0  0  0  0  0  0  0  0  0  0  0
  195.0330  172.2220  145.1710 C   0  0  0  0  0  0  0  0  0  0  0  0
  195.8340  170.0530  145.9180 C   0  0  0  0  0  0  0  0  0  0  0  0
  195.1300  174.5880  144.8160 C   0  0  0  0  0  0  0  0  0  0  0  0
  196.3970  174.6150  145.4340 C   0  0  0  0  0  3  0  0  0  0  0  0
  196.0230  168.6200  146.2960 C   0  0  1  0  0  3  0  0  0  0  0  0
  197.3450  168.2260  146.0770 O   0  0  0  0  0  1  0  0  0  0  0  0
  195.6250  168.3710  147.7450 C   0  0  0  0  0  2  0  0  0  0  0  0
  194.2410  168.4710  147.9040 O   0  0  0  0  0  1  0  0  0  0  0  0
  1 10  1  0  0  0  0
  2 15  2  0  0  0  0
  3  9  1  0  0  0  0
  4  6  1  0  0  0  0
  4  8  2  0  0  0  0
  5  1  2  0  0  0  0
  6  7  1  0  0  0  0
  7 11  2  0  0  0  0
  9 11  1  0  0  0  0
 10  9  2  0  0  0  0
 10  6  1  0  0  0  0
 12  2  1  0  0  0  0
 13 14  2  0  0  0  0
 13 12  1  0  0  0  0
 14 16  1  0  0  0  0
 15  3  1  0  0  0  0
 16 17  2  0  0  0  0
 17  1  1  0  0  0  0
 17 15  1  0  0  0  0
 18 13  1  0  0  0  0
 18 20  1  0  0  0  0
 19 18  2  0  0  0  0
 21 29  1  0  0  0  0
 21  4  1  0  0  0  0
 23 29  2  0  0  0  0
 23 27  1  0  0  0  0
 25 22  1  0  0  0  0
 25 24  1  0  0  0  0
 26 27  1  0  0  0  0
 26 28  1  0  0  0  0
 27 25  2  0  0  0  0
 28 24  2  0  0  0  0
 28 31  1  0  0  0  0
 29 30  1  0  0  0  0
 30 22  2  0  0  0  0
 31 32  1  1  0  0  0
 31 33  1  0  0  0  0
 33 34  1  0  0  0  0
M  END
>  <MODEL>
2

>  <REMARK>
 VINA RESULT:      -7.8      1.776      2.228
  Name = 
  5 active torsions:
  status: ('A' for Active; 'I' for Inactive)
    1  A    between atoms: C_3  and  C_25
    2  A    between atoms: C_7  and  C_11
    3  A    between atoms: C_7  and  C_29
    4  A    between atoms: C_8  and  S_18
    5  A    between atoms: S_18  and  C_30
                            x       y       z     vdW  Elec       q    Type
                         _______ _______ _______ _____ _____    ______ ____

>  <TORSDO>
F 5

$$$$
=
 OpenBabel11052420143D

 34 38  0  0  1  0  0  0  0  0999 V2000
  190.7880  176.4380  143.7760 C   0  0  0  0  0  0  0  0  0  0  0  0
  193.8090  176.5690  145.9210 C   0  0  0  0  0  3  0  0  0  0  0  0
  191.6230  176.1190  146.4310 N   0  0  0  0  0  2  0  0  0  0  0  0
  187.6100  176.4810  143.7670 C   0  0  0  0  0  0  0  0  0  0  0  0
  190.3850  176.4960  142.5820 O   0  0  0  0  0  0  0  0  0  0  0  0
  188.5310  176.2520  144.8390 N   0  0  0  0  0  0  0  0  0  0  0  0
  188.1330  175.9860  146.0790 N   0  0  0  0  0  0  0  0  0  0  0  0
  186.6020  175.7370  143.6410 O   0  0  0  0  0  0  0  0  0  0  0  0
  190.3150  176.1010  146.0950 C   0  0  0  0  0  0  0  0  0  0  0  0
  189.8790  176.3230  144.8310 C   0  0  0  0  0  0  0  0  0  0  0  0
  189.2140  175.8890  146.8920 C   0  0  0  0  0  3  0  0  0  0  0  0
  194.9380  177.1230  145.1230 C   0  0  0  0  0  2  0  0  0  0  0  0
  195.3310  176.2410  143.9940 C   0  0  0  0  0  0  0  0  0  0  0  0
  194.4630  175.9450  143.0310 C   0  0  0  0  0  3  0  0  0  0  0  0
  192.5720  176.3310  145.4710 C   0  0  0  0  0  0  0  0  0  0  0  0
  193.0180  176.2370  143.0380 C   0  0  0  0  0  3  0  0  0  0  0  0
  192.1780  176.3970  144.0830 C   0  0  0  0  0  0  0  0  0  0  0  0
  196.7420  175.8390  143.8610 C   0  0  0  0  0  0  0  0  0  0  0  0
  197.6320  176.6430  143.1560 O   0  0  0  0  0  0  0  0  0  0  0  0
  197.1600  174.7710  144.3830 O   0  0  0  0  0  1  0  0  0  0  0  0
  187.7750  177.9070  142.6900 S   0  0  0  0  0  0  0  0  0  0  0  0
  184.0440  179.0150  143.9330 C   0  0  0  0  0  3  0  0  0  0  0  0
  185.2420  177.9880  141.5780 C   0  0  0  0  0  3  0  0  0  0  0  0
  181.9440  178.9620  142.7070 N   0  0  0  0  0  0  0  0  0  0  0  0
  183.2810  178.7550  142.7950 C   0  0  0  0  0  0  0  0  0  0  0  0
  182.7110  178.0550  140.4610 S   0  0  0  0  0  0  0  0  0  0  0  0
  183.8780  178.2540  141.6490 C   0  0  0  0  0  0  0  0  0  0  0  0
  181.4810  178.6120  141.4810 C   0  0  0  0  0  0  0  0  0  0  0  0
  186.0200  178.2400  142.7200 C   0  0  0  0  0  0  0  0  0  0  0  0
  185.4240  178.7530  143.8890 C   0  0  0  0  0  3  0  0  0  0  0  0
  180.0550  178.7620  141.0610 C   0  0  1  0  0  3  0  0  0  0  0  0
  179.7640  177.9030  139.9990 O   0  0  0  0  0  1  0  0  0  0  0  0
  179.1030  178.5150  142.2250 C   0  0  0  0  0  2  0  0  0  0  0  0
  178.6890  177.1810  142.2510 O   0  0  0  0  0  1  0  0  0  0  0  0
  1 17  1  0  0  0  0
  1 10  1  0  0  0  0
  4  6  1  0  0  0  0
  5  1  2  0  0  0  0
  6  7  1  0  0  0  0
  7 11  2  0  0  0  0
  8  4  2  0  0  0  0
  9  3  1  0  0  0  0
  9 11  1  0  0  0  0
 10  6  1  0  0  0  0
 10  9  2  0  0  0  0
 12  2  1  0  0  0  0
 13 12  1  0  0  0  0
 14 16  1  0  0  0  0
 14 13  2  0  0  0  0
 15  2  2  0  0  0  0
 15  3  1  0  0  0  0
 16 17  2  0  0  0  0
 17 15  1  0  0  0  0
 18 13  1  0  0  0  0
 18 20  1  0  0  0  0
 19 18  2  0  0  0  0
 21 29  1  0  0  0  0
 21  4  1  0  0  0  0
 23 27  2  0  0  0  0
 23 29  1  0  0  0  0
 24 25  1  0  0  0  0
 25 22  2  0  0  0  0
 26 28  1  0  0  0  0
 26 27  1  0  0  0  0
 27 25  1  0  0  0  0
 28 24  2  0  0  0  0
 29 30  2  0  0  0  0
 30 22  1  0  0  0  0
 31 32  1  6  0  0  0
 31 28  1  0  0  0  0
 31 33  1  0  0  0  0
 33 34  1  0  0  0  0
M  END
>  <MODEL>
3

>  <REMARK>
 VINA RESULT:      -7.6      4.190     11.262
  Name = 
  5 active torsions:
  status: ('A' for Active; 'I' for Inactive)
    1  A    between atoms: C_3  and  C_25
    2  A    between atoms: C_7  and  C_11
    3  A    between atoms: C_7  and  C_29
    4  A    between atoms: C_8  and  S_18
    5  A    between atoms: S_18  and  C_30
                            x       y       z     vdW  Elec       q    Type
                         _______ _______ _______ _____ _____    ______ ____

>  <TORSDO>
F 5

$$$$
=
 OpenBabel11052420143D

 34 38  0  0  1  0  0  0  0  0999 V2000
  190.2380  176.2230  145.0650 C   0  0  0  0  0  0  0  0  0  0  0  0
  186.8580  176.9550  143.7300 C   0  0  0  0  0  3  0  0  0  0  0  0
  188.4130  175.3950  143.1080 N   0  0  0  0  0  2  0  0  0  0  0  0
  193.0110  174.7910  144.4610 C   0  0  0  0  0  0  0  0  0  0  0  0
  191.0540  176.5140  145.9810 O   0  0  0  0  0  0  0  0  0  0  0  0
  191.7340  174.6460  143.8290 N   0  0  0  0  0  0  0  0  0  0  0  0
  191.5270  173.7990  142.8250 N   0  0  0  0  0  0  0  0  0  0  0  0
  193.6860  173.7660  144.7430 O   0  0  0  0  0  0  0  0  0  0  0  0
  189.6670  174.8950  143.1610 C   0  0  0  0  0  0  0  0  0  0  0  0
  190.5920  175.3290  144.0510 C   0  0  0  0  0  0  0  0  0  0  0  0
  190.2520  173.9270  142.3790 C   0  0  0  0  0  3  0  0  0  0  0  0
  186.3600  178.2130  144.3530 C   0  0  0  0  0  2  0  0  0  0  0  0
  186.1540  178.0880  145.8180 C   0  0  0  0  0  0  0  0  0  0  0  0
  187.1710  177.7930  146.6240 C   0  0  0  0  0  3  0  0  0  0  0  0
  188.0200  176.3520  144.0010 C   0  0  0  0  0  0  0  0  0  0  0  0
  188.5170  177.3590  146.2070 C   0  0  0  0  0  3  0  0  0  0  0  0
  188.9050  176.7220  145.0810 C   0  0  0  0  0  0  0  0  0  0  0  0
  184.8490  178.4630  146.3900 C   0  0  0  0  0  0  0  0  0  0  0  0
  183.7720  178.7290  145.5510 O   0  0  0  0  0  0  0  0  0  0  0  0
  184.6910  178.5430  147.6380 O   0  0  0  0  0  1  0  0  0  0  0  0
  193.7390  176.4100  144.7180 S   0  0  0  0  0  0  0  0  0  0  0  0
  197.2520  176.1960  142.6430 C   0  0  0  0  0  3  0  0  0  0  0  0
  194.4930  175.8030  142.1250 C   0  0  0  0  0  3  0  0  0  0  0  0
  197.6170  175.6330  140.3040 N   0  0  0  0  0  0  0  0  0  0  0  0
  196.8060  175.8310  141.3730 C   0  0  0  0  0  0  0  0  0  0  0  0
  195.2370  175.2050  139.5270 S   0  0  0  0  0  0  0  0  0  0  0  0
  195.4540  175.6400  141.1320 C   0  0  0  0  0  0  0  0  0  0  0  0
  196.8960  175.2930  139.2070 C   0  0  0  0  0  0  0  0  0  0  0  0
  194.9300  176.1760  143.4060 C   0  0  0  0  0  0  0  0  0  0  0  0
  196.3020  176.3680  143.6630 C   0  0  0  0  0  3  0  0  0  0  0  0
  197.5070  174.9710  137.8820 C   0  0  1  0  0  3  0  0  0  0  0  0
  197.8700  173.6240  137.8250 O   0  0  0  0  0  1  0  0  0  0  0  0
  196.5660  175.3200  136.7370 C   0  0  0  0  0  2  0  0  0  0  0  0
  197.0500  176.4120  136.0130 O   0  0  0  0  0  1  0  0  0  0  0  0
  1 17  1  0  0  0  0
  1  5  2  0  0  0  0
  2 15  2  0  0  0  0
  2 12  1  0  0  0  0
  3  9  1  0  0  0  0
  3 15  1  0  0  0  0
  4 21  1  0  0  0  0
  4  8  2  0  0  0  0
  6 10  1  0  0  0  0
  6  4  1  0  0  0  0
  7  6  1  0  0  0  0
  9 10  2  0  0  0  0
 10  1  1  0  0  0  0
 11  7  2  0  0  0  0
 11  9  1  0  0  0  0
 12 13  1  0  0  0  0
 13 18  1  0  0  0  0
 13 14  2  0  0  0  0
 15 17  1  0  0  0  0
 16 14  1  0  0  0  0
 17 16  2  0  0  0  0
 18 20  1  0  0  0  0
 19 18  2  0  0  0  0
 22 30  1  0  0  0  0
 23 29  1  0  0  0  0
 24 25  1  0  0  0  0
 25 22  2  0  0  0  0
 26 27  1  0  0  0  0
 27 25  1  0  0  0  0
 27 23  2  0  0  0  0
 28 26  1  0  0  0  0
 28 24  2  0  0  0  0
 29 30  2  0  0  0  0
 29 21  1  0  0  0  0
 31 32  1  1  0  0  0
 31 28  1  0  0  0  0
 33 31  1  0  0  0  0
 34 33  1  0  0  0  0
M  END
>  <MODEL>
4

>  <REMARK>
 VINA RESULT:      -7.5      4.034      5.554
  Name = 
  5 active torsions:
  status: ('A' for Active; 'I' for Inactive)
    1  A    between atoms: C_3  and  C_25
    2  A    between atoms: C_7  and  C_11
    3  A    between atoms: C_7  and  C_29
    4  A    between atoms: C_8  and  S_18
    5  A    between atoms: S_18  and  C_30
                            x       y       z     vdW  Elec       q    Type
                         _______ _______ _______ _____ _____    ______ ____

>  <TORSDO>
F 5

$$$$
=
 OpenBabel11052420143D

 34 38  0  0  1  0  0  0  0  0999 V2000
  191.9080  175.0930  145.6320 C   0  0  0  0  0  0  0  0  0  0  0  0
  194.1450  174.1340  142.8360 C   0  0  0  0  0  3  0  0  0  0  0  0
  193.0320  176.0870  143.2670 N   0  0  0  0  0  2  0  0  0  0  0  0
  189.6960  177.1650  146.5900 C   0  0  0  0  0  0  0  0  0  0  0  0
  191.4440  174.7090  146.7400 O   0  0  0  0  0  0  0  0  0  0  0  0
  190.6230  177.2340  145.5010 N   0  0  0  0  0  0  0  0  0  0  0  0
  190.6910  178.2840  144.6870 N   0  0  0  0  0  0  0  0  0  0  0  0
  189.5250  178.1710  147.3280 O   0  0  0  0  0  0  0  0  0  0  0  0
  192.1070  176.7880  143.9590 C   0  0  0  0  0  0  0  0  0  0  0  0
  191.4950  176.3020  145.0650 C   0  0  0  0  0  0  0  0  0  0  0  0
  191.6020  178.0430  143.7110 C   0  0  0  0  0  3  0  0  0  0  0  0
  194.4250  172.6740  142.9270 C   0  0  0  0  0  2  0  0  0  0  0  0
  195.1900  172.3090  144.1470 C   0  0  0  0  0  0  0  0  0  0  0  0
  194.6900  172.5470  145.3570 C   0  0  0  0  0  3  0  0  0  0  0  0
  193.4140  174.8480  143.6980 C   0  0  0  0  0  0  0  0  0  0  0  0
  193.4910  173.3460  145.6640 C   0  0  0  0  0  3  0  0  0  0  0  0
  192.9280  174.3550  144.9660 C   0  0  0  0  0  0  0  0  0  0  0  0
  196.4300  171.5270  144.0050 C   0  0  0  0  0  0  0  0  0  0  0  0
  197.1410  171.1370  145.1350 O   0  0  0  0  0  1  0  0  0  0  0  0
  196.8580  171.1980  142.8660 O   0  0  0  0  0  0  0  0  0  0  0  0
  188.6550  175.7230  146.8310 S   0  0  0  0  0  0  0  0  0  0  0  0
  185.1000  177.5230  145.9300 C   0  0  0  0  0  3  0  0  0  0  0  0
  187.3430  176.5080  144.5240 C   0  0  0  0  0  3  0  0  0  0  0  0
  184.1810  178.0910  143.7500 N   0  0  0  0  0  0  0  0  0  0  0  0
  185.1560  177.5720  144.5370 C   0  0  0  0  0  0  0  0  0  0  0  0
  186.0330  177.2790  142.2120 S   0  0  0  0  0  0  0  0  0  0  0  0
  186.2580  177.0730  143.8600 C   0  0  0  0  0  0  0  0  0  0  0  0
  184.5150  177.9930  142.4390 C   0  0  0  0  0  0  0  0  0  0  0  0
  187.2960  176.4480  145.9260 C   0  0  0  0  0  0  0  0  0  0  0  0
  186.1820  176.9560  146.6240 C   0  0  0  0  0  3  0  0  0  0  0  0
  183.6650  178.5130  141.3270 C   0  0  1  0  0  3  0  0  0  0  0  0
  184.0270  177.9220  140.1150 O   0  0  0  0  0  1  0  0  0  0  0  0
  182.1840  178.2910  141.6080 C   0  0  0  0  0  2  0  0  0  0  0  0
  181.4080  178.6810  140.5150 O   0  0  0  0  0  1  0  0  0  0  0  0
  1  5  2  0  0  0  0
  2 12  1  0  0  0  0
  2 15  2  0  0  0  0
  3 15  1  0  0  0  0
  3  9  1  0  0  0  0
  4 21  1  0  0  0  0
  4  8  2  0  0  0  0
  6  4  1  0  0  0  0
  7  6  1  0  0  0  0
  9 10  2  0  0  0  0
 10  6  1  0  0  0  0
 10  1  1  0  0  0  0
 11  9  1  0  0  0  0
 11  7  2  0  0  0  0
 12 13  1  0  0  0  0
 13 14  2  0  0  0  0
 14 16  1  0  0  0  0
 15 17  1  0  0  0  0
 17  1  1  0  0  0  0
 17 16  2  0  0  0  0
 18 13  1  0  0  0  0
 18 19  1  0  0  0  0
 20 18  2  0  0  0  0
 22 30  1  0  0  0  0
 23 29  1  0  0  0  0
 24 25  1  0  0  0  0
 25 22  2  0  0  0  0
 26 28  1  0  0  0  0
 26 27  1  0  0  0  0
 27 23  2  0  0  0  0
 27 25  1  0  0  0  0
 28 24  2  0  0  0  0
 29 30  2  0  0  0  0
 29 21  1  0  0  0  0
 31 32  1  6  0  0  0
 31 33  1  0  0  0  0
 31 28  1  0  0  0  0
 34 33  1  0  0  0  0
M  END
>  <MODEL>
5

>  <REMARK>
 VINA RESULT:      -7.5      3.168     10.376
  Name = 
  5 active torsions:
  status: ('A' for Active; 'I' for Inactive)
    1  A    between atoms: C_3  and  C_25
    2  A    between atoms: C_7  and  C_11
    3  A    between atoms: C_7  and  C_29
    4  A    between atoms: C_8  and  S_18
    5  A    between atoms: S_18  and  C_30
                            x       y       z     vdW  Elec       q    Type
                         _______ _______ _______ _____ _____    ______ ____

>  <TORSDO>
F 5

$$$$
=
 OpenBabel11052420143D

 34 38  0  0  1  0  0  0  0  0999 V2000
  189.9570  174.4950  144.8920 C   0  0  0  0  0  0  0  0  0  0  0  0
  190.5480  173.2340  141.4570 C   0  0  0  0  0  3  0  0  0  0  0  0
  190.4830  175.3680  142.2840 N   0  0  0  0  0  2  0  0  0  0  0  0
  189.1770  177.0460  146.6220 C   0  0  0  0  0  0  0  0  0  0  0  0
  189.7960  174.1400  146.0920 O   0  0  0  0  0  0  0  0  0  0  0  0
  189.6230  176.9450  145.2640 N   0  0  0  0  0  0  0  0  0  0  0  0
  189.8000  178.0110  144.4900 N   0  0  0  0  0  0  0  0  0  0  0  0
  189.6670  177.9280  147.3750 O   0  0  0  0  0  0  0  0  0  0  0  0
  190.1950  176.2390  143.2760 C   0  0  0  0  0  0  0  0  0  0  0  0
  189.8670  175.8410  144.5290 C   0  0  0  0  0  0  0  0  0  0  0  0
  190.1520  177.6130  143.2420 C   0  0  0  0  0  3  0  0  0  0  0  0
  190.2640  171.7720  141.4290 C   0  0  0  0  0  2  0  0  0  0  0  0
  191.2030  170.9870  142.2710 C   0  0  0  0  0  0  0  0  0  0  0  0
  191.2820  171.2040  143.5810 C   0  0  0  0  0  3  0  0  0  0  0  0
  190.4880  174.0240  142.5340 C   0  0  0  0  0  0  0  0  0  0  0  0
  190.6630  172.3200  144.3200 C   0  0  0  0  0  3  0  0  0  0  0  0
  190.3220  173.5530  143.8890 C   0  0  0  0  0  0  0  0  0  0  0  0
  191.9210  169.8500  141.6700 C   0  0  0  0  0  0  0  0  0  0  0  0
  191.4820  168.5500  141.8990 O   0  0  0  0  0  1  0  0  0  0  0  0
  192.9310  170.0380  140.9400 O   0  0  0  0  0  0  0  0  0  0  0  0
  187.8200  176.0410  147.2280 S   0  0  0  0  0  0  0  0  0  0  0  0
  184.7780  178.4570  145.9590 C   0  0  0  0  0  3  0  0  0  0  0  0
  186.5940  176.6060  144.8110 C   0  0  0  0  0  3  0  0  0  0  0  0
  183.8870  178.7440  143.7130 N   0  0  0  0  0  0  0  0  0  0  0  0
  184.7500  178.1780  144.5920 C   0  0  0  0  0  0  0  0  0  0  0  0
  185.3670  177.1560  142.3930 S   0  0  0  0  0  0  0  0  0  0  0  0
  185.6440  177.2720  144.0420 C   0  0  0  0  0  0  0  0  0  0  0  0
  184.0960  178.2720  142.4590 C   0  0  0  0  0  0  0  0  0  0  0  0
  186.6280  176.8750  146.1890 C   0  0  0  0  0  0  0  0  0  0  0  0
  185.7270  177.7970  146.7580 C   0  0  0  0  0  3  0  0  0  0  0  0
  183.3300  178.7350  141.2620 C   0  0  1  0  0  3  0  0  0  0  0  0
  183.9700  178.3350  140.0880 O   0  0  0  0  0  1  0  0  0  0  0  0
  181.8950  178.2250  141.2890 C   0  0  0  0  0  2  0  0  0  0  0  0
  181.0690  179.1070  141.9890 O   0  0  0  0  0  1  0  0  0  0  0  0
  1  5  2  0  0  0  0
  2 15  2  0  0  0  0
  3 15  1  0  0  0  0
  3  9  1  0  0  0  0
  4 21  1  0  0  0  0
  4  8  2  0  0  0  0
  6  4  1  0  0  0  0
  7  6  1  0  0  0  0
  9 10  2  0  0  0  0
 10  1  1  0  0  0  0
 10  6  1  0  0  0  0
 11  9  1  0  0  0  0
 11  7  2  0  0  0  0
 12  2  1  0  0  0  0
 12 13  1  0  0  0  0
 13 14  2  0  0  0  0
 14 16  1  0  0  0  0
 15 17  1  0  0  0  0
 17 16  2  0  0  0  0
 17  1  1  0  0  0  0
 18 19  1  0  0  0  0
 18 13  1  0  0  0  0
 20 18  2  0  0  0  0
 22 30  1  0  0  0  0
 23 29  1  0  0  0  0
 24 25  1  0  0  0  0
 25 22  2  0  0  0  0
 26 28  1  0  0  0  0
 26 27  1  0  0  0  0
 27 25  1  0  0  0  0
 27 23  2  0  0  0  0
 28 24  2  0  0  0  0
 29 30  2  0  0  0  0
 29 21  1  0  0  0  0
 31 32  1  6  0  0  0
 31 33  1  0  0  0  0
 31 28  1  0  0  0  0
 33 34  1  0  0  0  0
M  END
>  <MODEL>
6

>  <REMARK>
 VINA RESULT:      -7.2      4.337     10.169
  Name = 
  5 active torsions:
  status: ('A' for Active; 'I' for Inactive)
    1  A    between atoms: C_3  and  C_25
    2  A    between atoms: C_7  and  C_11
    3  A    between atoms: C_7  and  C_29
    4  A    between atoms: C_8  and  S_18
    5  A    between atoms: S_18  and  C_30
                            x       y       z     vdW  Elec       q    Type
                         _______ _______ _______ _____ _____    ______ ____

>  <TORSDO>
F 5

$$$$
=
 OpenBabel11052420143D

 34 38  0  0  1  0  0  0  0  0999 V2000
  189.1830  176.3770  144.8560 C   0  0  0  0  0  0  0  0  0  0  0  0
  187.2820  175.9180  141.7070 C   0  0  0  0  0  3  0  0  0  0  0  0
  188.6290  174.4790  142.8720 N   0  0  0  0  0  2  0  0  0  0  0  0
  191.5360  175.2260  146.6580 C   0  0  0  0  0  0  0  0  0  0  0  0
  189.3950  177.1770  145.8090 O   0  0  0  0  0  0  0  0  0  0  0  0
  190.8170  174.6250  145.5750 N   0  0  0  0  0  0  0  0  0  0  0  0
  191.0560  173.3850  145.1600 N   0  0  0  0  0  0  0  0  0  0  0  0
  191.7570  174.5620  147.7040 O   0  0  0  0  0  0  0  0  0  0  0  0
  189.5390  174.2430  143.8420 C   0  0  0  0  0  0  0  0  0  0  0  0
  189.8780  175.1680  144.7720 C   0  0  0  0  0  0  0  0  0  0  0  0
  190.2820  173.1100  144.0800 C   0  0  0  0  0  3  0  0  0  0  0  0
  186.7480  177.2390  141.2740 C   0  0  0  0  0  2  0  0  0  0  0  0
  185.7500  177.7960  142.2240 C   0  0  0  0  0  0  0  0  0  0  0  0
  186.0870  178.0600  143.4830 C   0  0  0  0  0  3  0  0  0  0  0  0
  187.9800  175.6810  142.8230 C   0  0  0  0  0  0  0  0  0  0  0  0
  187.3420  177.6690  144.1520 C   0  0  0  0  0  3  0  0  0  0  0  0
  188.1700  176.6360  143.8890 C   0  0  0  0  0  0  0  0  0  0  0  0
  184.4330  178.2130  141.7120 C   0  0  0  0  0  0  0  0  0  0  0  0
  184.2940  178.6000  140.3830 O   0  0  0  0  0  0  0  0  0  0  0  0
  183.4220  178.2210  142.4640 O   0  0  0  0  0  1  0  0  0  0  0  0
  192.2660  176.8570  146.4930 S   0  0  0  0  0  0  0  0  0  0  0  0
  195.7640  175.0360  145.4240 C   0  0  0  0  0  3  0  0  0  0  0  0
  193.6770  176.4670  144.1440 C   0  0  0  0  0  3  0  0  0  0  0  0
  196.7870  174.8600  143.2240 N   0  0  0  0  0  0  0  0  0  0  0  0
  195.7950  175.2750  144.0500 C   0  0  0  0  0  0  0  0  0  0  0  0
  195.0870  176.0920  141.7930 S   0  0  0  0  0  0  0  0  0  0  0  0
  194.7690  175.9750  143.4350 C   0  0  0  0  0  0  0  0  0  0  0  0
  196.5450  175.2450  141.9460 C   0  0  0  0  0  0  0  0  0  0  0  0
  193.6380  176.2390  145.5290 C   0  0  0  0  0  0  0  0  0  0  0  0
  194.6730  175.5240  146.1640 C   0  0  0  0  0  3  0  0  0  0  0  0
  197.4340  174.9030  140.7950 C   0  0  1  0  0  3  0  0  0  0  0  0
  197.5690  173.5180  140.6750 O   0  0  0  0  0  1  0  0  0  0  0  0
  196.9160  175.5040  139.4950 C   0  0  0  0  0  2  0  0  0  0  0  0
  197.9400  175.6020  138.5510 O   0  0  0  0  0  1  0  0  0  0  0  0
  1  5  2  0  0  0  0
  2 15  2  0  0  0  0
  3  9  1  0  0  0  0
  4  8  2  0  0  0  0
  6  4  1  0  0  0  0
  7  6  1  0  0  0  0
  9 11  1  0  0  0  0
  9 10  2  0  0  0  0
 10  1  1  0  0  0  0
 10  6  1  0  0  0  0
 11  7  2  0  0  0  0
 12  2  1  0  0  0  0
 12 13  1  0  0  0  0
 13 14  2  0  0  0  0
 14 16  1  0  0  0  0
 15  3  1  0  0  0  0
 15 17  1  0  0  0  0
 17 16  2  0  0  0  0
 17  1  1  0  0  0  0
 18 13  1  0  0  0  0
 18 20  1  0  0  0  0
 19 18  2  0  0  0  0
 21  4  1  0  0  0  0
 22 30  1  0  0  0  0
 23 29  1  0  0  0  0
 24 25  1  0  0  0  0
 25 22  2  0  0  0  0
 26 28  1  0  0  0  0
 26 27  1  0  0  0  0
 27 25  1  0  0  0  0
 27 23  2  0  0  0  0
 28 24  2  0  0  0  0
 29 30  2  0  0  0  0
 29 21  1  0  0  0  0
 31 32  1  6  0  0  0
 31 28  1  0  0  0  0
 33 31  1  0  0  0  0
 34 33  1  0  0  0  0
M  END
>  <MODEL>
7

>  <REMARK>
 VINA RESULT:      -7.1      3.467      4.749
  Name = 
  5 active torsions:
  status: ('A' for Active; 'I' for Inactive)
    1  A    between atoms: C_3  and  C_25
    2  A    between atoms: C_7  and  C_11
    3  A    between atoms: C_7  and  C_29
    4  A    between atoms: C_8  and  S_18
    5  A    between atoms: S_18  and  C_30
                            x       y       z     vdW  Elec       q    Type
                         _______ _______ _______ _____ _____    ______ ____

>  <TORSDO>
F 5

$$$$
=
 OpenBabel11052420143D

 34 38  0  0  1  0  0  0  0  0999 V2000
  189.2290  175.5550  143.4550 C   0  0  0  0  0  0  0  0  0  0  0  0
  188.1560  177.1840  146.6070 C   0  0  0  0  0  3  0  0  0  0  0  0
  190.2370  176.8950  145.6990 N   0  0  0  0  0  2  0  0  0  0  0  0
  191.6990  174.3090  141.8890 C   0  0  0  0  0  0  0  0  0  0  0  0
  188.8090  175.0170  142.3940 O   0  0  0  0  0  0  0  0  0  0  0  0
  191.6640  175.1600  143.0400 N   0  0  0  0  0  0  0  0  0  0  0  0
  192.7670  175.5900  143.6440 N   0  0  0  0  0  0  0  0  0  0  0  0
  192.5160  174.5490  140.9610 O   0  0  0  0  0  0  0  0  0  0  0  0
  191.0570  176.3210  144.7910 C   0  0  0  0  0  0  0  0  0  0  0  0
  190.5970  175.6060  143.7360 C   0  0  0  0  0  0  0  0  0  0  0  0
  192.4310  176.3140  144.7420 C   0  0  0  0  0  3  0  0  0  0  0  0
  186.7100  176.9000  146.8230 C   0  0  0  0  0  2  0  0  0  0  0  0
  185.8420  177.5110  145.7840 C   0  0  0  0  0  0  0  0  0  0  0  0
  185.9770  177.1740  144.5040 C   0  0  0  0  0  3  0  0  0  0  0  0
  188.8820  176.7990  145.5520 C   0  0  0  0  0  0  0  0  0  0  0  0
  187.0680  176.3710  143.9230 C   0  0  0  0  0  3  0  0  0  0  0  0
  188.3370  176.2040  144.3540 C   0  0  0  0  0  0  0  0  0  0  0  0
  184.7170  178.3640  146.2050 C   0  0  0  0  0  0  0  0  0  0  0  0
  184.5100  178.6270  147.5550 O   0  0  0  0  0  1  0  0  0  0  0  0
  183.9360  178.8670  145.3530 O   0  0  0  0  0  0  0  0  0  0  0  0
  190.7120  172.8130  141.8120 S   0  0  0  0  0  0  0  0  0  0  0  0
  193.7200  170.0500  141.9020 C   0  0  0  0  0  3  0  0  0  0  0  0
  192.5330  171.9040  143.6880 C   0  0  0  0  0  3  0  0  0  0  0  0
  195.1840  169.4400  143.7470 N   0  0  0  0  0  0  0  0  0  0  0  0
  194.1710  170.1690  143.2160 C   0  0  0  0  0  0  0  0  0  0  0  0
  194.3430  170.9940  145.5730 S   0  0  0  0  0  0  0  0  0  0  0  0
  193.5840  171.0810  144.0800 C   0  0  0  0  0  0  0  0  0  0  0  0
  195.3910  169.7740  145.0450 C   0  0  0  0  0  0  0  0  0  0  0  0
  192.0660  171.7880  142.3680 C   0  0  0  0  0  0  0  0  0  0  0  0
  192.6580  170.8680  141.4810 C   0  0  0  0  0  3  0  0  0  0  0  0
  196.4650  169.1750  145.8930 C   0  0  1  0  0  3  0  0  0  0  0  0
  197.5510  170.0470  145.9960 O   0  0  0  0  0  1  0  0  0  0  0  0
  195.9420  168.8070  147.2750 C   0  0  0  0  0  2  0  0  0  0  0  0
  196.9310  168.1670  148.0260 O   0  0  0  0  0  1  0  0  0  0  0  0
  1 10  1  0  0  0  0
  1 17  1  0  0  0  0
  2 12  1  0  0  0  0
  4  6  1  0  0  0  0
  5  1  2  0  0  0  0
  6  7  1  0  0  0  0
  6 10  1  0  0  0  0
  7 11  2  0  0  0  0
  8  4  2  0  0  0  0
  9  3  1  0  0  0  0
 10  9  2  0  0  0  0
 11  9  1  0  0  0  0
 13 18  1  0  0  0  0
 13 12  1  0  0  0  0
 14 13  2  0  0  0  0
 15  3  1  0  0  0  0
 15  2  2  0  0  0  0
 16 17  2  0  0  0  0
 16 14  1  0  0  0  0
 17 15  1  0  0  0  0
 18 19  1  0  0  0  0
 20 18  2  0  0  0  0
 21  4  1  0  0  0  0
 21 29  1  0  0  0  0
 22 25  1  0  0  0  0
 23 27  1  0  0  0  0
 24 28  2  0  0  0  0
 25 24  1  0  0  0  0
 25 27  2  0  0  0  0
 27 26  1  0  0  0  0
 28 26  1  0  0  0  0
 28 31  1  0  0  0  0
 29 23  2  0  0  0  0
 30 22  2  0  0  0  0
 30 29  1  0  0  0  0
 31 32  1  1  0  0  0
 31 33  1  0  0  0  0
 33 34  1  0  0  0  0
M  END
>  <MODEL>
8

>  <REMARK>
 VINA RESULT:      -6.8      2.088      2.597
  Name = 
  5 active torsions:
  status: ('A' for Active; 'I' for Inactive)
    1  A    between atoms: C_3  and  C_25
    2  A    between atoms: C_7  and  C_11
    3  A    between atoms: C_7  and  C_29
    4  A    between atoms: C_8  and  S_18
    5  A    between atoms: S_18  and  C_30
                            x       y       z     vdW  Elec       q    Type
                         _______ _______ _______ _____ _____    ______ ____

>  <TORSDO>
F 5

$$$$
=
 OpenBabel11052420143D

 34 38  0  0  1  0  0  0  0  0999 V2000
  191.9670  174.6370  145.7580 C   0  0  0  0  0  0  0  0  0  0  0  0
  188.6910  175.2640  144.1400 C   0  0  0  0  0  3  0  0  0  0  0  0
  190.3110  173.7080  143.6980 N   0  0  0  0  0  2  0  0  0  0  0  0
  194.7980  173.2300  145.4240 C   0  0  0  0  0  0  0  0  0  0  0  0
  192.7060  174.9750  146.7220 O   0  0  0  0  0  0  0  0  0  0  0  0
  193.5760  173.0410  144.7000 N   0  0  0  0  0  0  0  0  0  0  0  0
  193.4590  172.1550  143.7160 N   0  0  0  0  0  0  0  0  0  0  0  0
  195.4630  172.2280  145.7950 O   0  0  0  0  0  0  0  0  0  0  0  0
  191.5640  173.2320  143.8660 C   0  0  0  0  0  0  0  0  0  0  0  0
  192.4110  173.7130  144.8080 C   0  0  0  0  0  0  0  0  0  0  0  0
  192.2210  172.2460  143.1680 C   0  0  0  0  0  3  0  0  0  0  0  0
  188.1300  176.5360  144.6750 C   0  0  0  0  0  2  0  0  0  0  0  0
  187.8120  176.4610  146.1240 C   0  0  0  0  0  0  0  0  0  0  0  0
  188.7670  176.2120  147.0150 C   0  0  0  0  0  3  0  0  0  0  0  0
  189.8370  174.6910  144.5210 C   0  0  0  0  0  0  0  0  0  0  0  0
  190.1470  175.7840  146.7200 C   0  0  0  0  0  3  0  0  0  0  0  0
  190.6300  175.1140  145.6520 C   0  0  0  0  0  0  0  0  0  0  0  0
  186.4610  176.8340  146.5780 C   0  0  0  0  0  0  0  0  0  0  0  0
  186.2530  177.2210  147.8990 O   0  0  0  0  0  1  0  0  0  0  0  0
  185.4840  176.8140  145.7820 O   0  0  0  0  0  0  0  0  0  0  0  0
  195.4820  174.8690  145.6750 S   0  0  0  0  0  0  0  0  0  0  0  0
  195.1300  176.3480  141.8830 C   0  0  0  0  0  3  0  0  0  0  0  0
  196.6360  174.3490  143.2140 C   0  0  0  0  0  3  0  0  0  0  0  0
  196.2960  175.6660  139.8590 N   0  0  0  0  0  0  0  0  0  0  0  0
  196.0450  175.5580  141.1880 C   0  0  0  0  0  0  0  0  0  0  0  0
  197.7860  173.8140  140.7550 S   0  0  0  0  0  0  0  0  0  0  0  0
  196.7770  174.5840  141.8490 C   0  0  0  0  0  0  0  0  0  0  0  0
  197.2270  174.7620  139.4680 C   0  0  0  0  0  0  0  0  0  0  0  0
  195.7130  175.1340  143.9230 C   0  0  0  0  0  0  0  0  0  0  0  0
  194.9670  176.1300  143.2610 C   0  0  0  0  0  3  0  0  0  0  0  0
  197.7470  174.6590  138.0710 C   0  0  1  0  0  3  0  0  0  0  0  0
  197.9390  173.3230  137.7170 O   0  0  0  0  0  1  0  0  0  0  0  0
  196.8150  175.3460  137.0810 C   0  0  0  0  0  2  0  0  0  0  0  0
  197.5410  175.9260  136.0380 O   0  0  0  0  0  1  0  0  0  0  0  0
  1  5  2  0  0  0  0
  2 15  2  0  0  0  0
  2 12  1  0  0  0  0
  3  9  1  0  0  0  0
  3 15  1  0  0  0  0
  4 21  1  0  0  0  0
  4  8  2  0  0  0  0
  6 10  1  0  0  0  0
  6  4  1  0  0  0  0
  7  6  1  0  0  0  0
  9 10  2  0  0  0  0
 10  1  1  0  0  0  0
 11  7  2  0  0  0  0
 11  9  1  0  0  0  0
 12 13  1  0  0  0  0
 13 18  1  0  0  0  0
 13 14  2  0  0  0  0
 15 17  1  0  0  0  0
 16 14  1  0  0  0  0
 17  1  1  0  0  0  0
 17 16  2  0  0  0  0
 18 19  1  0  0  0  0
 20 18  2  0  0  0  0
 22 30  1  0  0  0  0
 23 29  1  0  0  0  0
 24 25  1  0  0  0  0
 25 27  1  0  0  0  0
 25 22  2  0  0  0  0
 26 27  1  0  0  0  0
 27 23  2  0  0  0  0
 28 24  2  0  0  0  0
 28 26  1  0  0  0  0
 29 21  1  0  0  0  0
 30 29  2  0  0  0  0
 31 32  1  6  0  0  0
 31 28  1  0  0  0  0
 33 31  1  0  0  0  0
 34 33  1  0  0  0  0
M  END
>  <MODEL>
9

>  <REMARK>
 VINA RESULT:      -6.7      4.011      5.733
  Name = 
  5 active torsions:
  status: ('A' for Active; 'I' for Inactive)
    1  A    between atoms: C_3  and  C_25
    2  A    between atoms: C_7  and  C_11
    3  A    between atoms: C_7  and  C_29
    4  A    between atoms: C_8  and  S_18
    5  A    between atoms: S_18  and  C_30
                            x       y       z     vdW  Elec       q    Type
                         _______ _______ _______ _____ _____    ______ ____

>  <TORSDO>
F 5

$$$$
