=
 OpenBabel11052418063D

 28 32  0  0  1  0  0  0  0  0999 V2000
  186.9250  177.7720  143.3930 C   0  0  0  0  0  0  0  0  0  0  0  0
  187.5340  178.1680  142.0720 C   0  0  1  0  0  3  0  0  0  0  0  0
  189.7130  177.1830  142.8640 C   0  0  1  0  0  3  0  0  0  0  0  0
  192.0890  175.8390  146.2410 C   0  0  0  0  0  2  0  0  0  0  0  0
  185.1020  176.7320  147.0320 O   0  0  0  0  0  1  0  0  0  0  0  0
  189.0510  178.3650  142.1640 C   0  0  0  0  0  2  0  0  0  0  0  0
  193.3510  176.3510  143.6850 C   0  0  0  0  0  2  0  0  0  0  0  0
  189.8400  176.3240  145.2450 C   0  0  0  0  0  0  0  0  0  0  0  0
  194.1790  174.8710  145.4490 N   0  0  0  0  0  0  0  0  0  0  0  0
  191.2560  176.1010  145.0630 N   0  0  0  0  0  0  0  0  0  0  0  0
  191.2120  177.4190  142.9890 C   0  0  0  0  0  2  0  0  0  0  0  0
  193.9890  175.0070  144.0110 C   0  0  0  0  0  2  0  0  0  0  0  0
  187.0890  176.8180  145.6370 C   0  0  0  0  0  0  0  0  0  0  0  0
  189.0760  176.9110  144.2110 C   0  0  0  0  0  0  0  0  0  0  0  0
  191.8300  176.2300  143.7080 C   0  0  1  0  0  3  0  0  0  0  0  0
  184.9660  177.6590  144.8180 C   0  0  0  0  0  3  0  0  0  0  0  0
  187.8570  176.2400  146.6520 C   0  0  0  0  0  3  0  0  0  0  0  0
  185.7210  177.0670  145.8340 C   0  0  0  0  0  0  0  0  0  0  0  0
  195.0220  173.7060  145.6460 C   0  0  0  0  0  1  0  0  0  0  0  0
  192.8940  174.5600  146.0620 C   0  0  0  0  0  2  0  0  0  0  0  0
  189.2170  176.0010  146.4590 C   0  0  0  0  0  3  0  0  0  0  0  0
  185.5650  178.0090  143.6070 C   0  0  0  0  0  3  0  0  0  0  0  0
  187.6990  177.1600  144.4050 C   0  0  0  0  0  0  0  0  0  0  0  0
  186.1460  177.6030  140.0630 C   0  0  0  0  0  0  0  0  0  0  0  0
  187.8550  175.9540  140.8730 C   0  0  0  0  0  1  0  0  0  0  0  0
  187.1690  177.2360  141.0020 N   0  0  0  0  0  0  0  0  0  0  0  0
  185.7550  176.6890  138.9520 C   0  0  0  0  0  1  0  0  0  0  0  0
  185.5580  178.7140  140.1680 O   0  0  0  0  0  0  0  0  0  0  0  0
  1 22  2  0  0  0  0
  1 23  1  0  0  0  0
  2 26  1  6  0  0  0
  2  6  1  0  0  0  0
  2  1  1  0  0  0  0
  3  6  1  1  0  0  0
  3 11  1  0  0  0  0
  3 14  1  0  0  0  0
  7 15  1  0  0  0  0
  7 12  1  0  0  0  0
  8 21  1  0  0  0  0
  9 19  1  0  0  0  0
  9 20  1  0  0  0  0
 10  8  1  0  0  0  0
 10  4  1  0  0  0  0
 12  9  1  0  0  0  0
 13 18  1  0  0  0  0
 13 17  1  0  0  0  0
 14 23  1  0  0  0  0
 14  8  2  0  0  0  0
 15 11  1  1  0  0  0
 15 10  1  0  0  0  0
 16 18  2  0  0  0  0
 18  5  1  0  0  0  0
 20  4  1  0  0  0  0
 21 17  2  0  0  0  0
 22 16  1  0  0  0  0
 23 13  2  0  0  0  0
 24 28  2  0  0  0  0
 24 26  1  0  0  0  0
 25 26  1  0  0  0  0
 27 24  1  0  0  0  0
M  END
>  <MODEL>
1

>  <REMARK>
 VINA RESULT:      -7.9      0.000      0.000
  Name = 
  1 active torsions:
  status: ('A' for Active; 'I' for Inactive)
    1  A    between atoms: C_2  and  N_11
                            x       y       z     vdW  Elec       q    Type
                         _______ _______ _______ _____ _____    ______ ____

>  <TORSDO>
F 1

$$$$
=
 OpenBabel11052418063D

 28 32  0  0  1  0  0  0  0  0999 V2000
  186.1950  178.7160  144.2630 C   0  0  0  0  0  0  0  0  0  0  0  0
  186.0580  178.9440  142.7790 C   0  0  1  0  0  3  0  0  0  0  0  0
  187.4030  176.8470  142.4050 C   0  0  1  0  0  3  0  0  0  0  0  0
  190.1330  173.9220  144.0920 C   0  0  0  0  0  2  0  0  0  0  0  0
  186.5070  178.2050  148.4210 O   0  0  0  0  0  1  0  0  0  0  0  0
  187.1950  178.2970  141.9810 C   0  0  0  0  0  2  0  0  0  0  0  0
  189.7890  174.1070  141.2220 C   0  0  0  0  0  2  0  0  0  0  0  0
  188.3700  175.6710  144.4310 C   0  0  0  0  0  0  0  0  0  0  0  0
  190.5440  172.1460  142.4760 N   0  0  0  0  0  0  0  0  0  0  0  0
  189.0710  174.7720  143.5440 N   0  0  0  0  0  0  0  0  0  0  0  0
  188.5660  176.2370  141.6360 C   0  0  0  0  0  2  0  0  0  0  0  0
  189.6890  172.5960  141.3860 C   0  0  0  0  0  2  0  0  0  0  0  0
  187.0610  177.4640  146.1740 C   0  0  0  0  0  0  0  0  0  0  0  0
  187.6010  176.7330  143.9020 C   0  0  0  0  0  0  0  0  0  0  0  0
  188.7530  174.8010  142.1020 C   0  0  1  0  0  3  0  0  0  0  0  0
  185.6630  179.4150  146.5220 C   0  0  0  0  0  3  0  0  0  0  0  0
  187.8260  176.4110  146.6840 C   0  0  0  0  0  3  0  0  0  0  0  0
  186.4130  178.3580  147.0430 C   0  0  0  0  0  0  0  0  0  0  0  0
  190.5970  170.6990  142.3880 C   0  0  0  0  0  1  0  0  0  0  0  0
  189.8920  172.4600  143.7400 C   0  0  0  0  0  2  0  0  0  0  0  0
  188.4760  175.5290  145.8220 C   0  0  0  0  0  3  0  0  0  0  0  0
  185.5560  179.5930  145.1420 C   0  0  0  0  0  3  0  0  0  0  0  0
  186.9450  177.6320  144.7730 C   0  0  0  0  0  0  0  0  0  0  0  0
  184.5440  178.3470  140.8740 C   0  0  0  0  0  0  0  0  0  0  0  0
  183.6450  178.2910  143.2160 C   0  0  0  0  0  1  0  0  0  0  0  0
  184.7420  178.5340  142.2840 N   0  0  0  0  0  0  0  0  0  0  0  0
  183.2240  177.9160  140.3310 C   0  0  0  0  0  1  0  0  0  0  0  0
  185.4930  178.5480  140.0680 O   0  0  0  0  0  0  0  0  0  0  0  0
  1 23  2  0  0  0  0
  1 22  1  0  0  0  0
  2 26  1  6  0  0  0
  2  1  1  0  0  0  0
  3 11  1  6  0  0  0
  3 14  1  0  0  0  0
  6  3  1  0  0  0  0
  6  2  1  0  0  0  0
  7 12  1  0  0  0  0
  8 21  1  0  0  0  0
  9 20  1  0  0  0  0
 10  4  1  0  0  0  0
 10  8  1  0  0  0  0
 11 15  1  0  0  0  0
 12  9  1  0  0  0  0
 13 17  1  0  0  0  0
 13 18  2  0  0  0  0
 14  8  2  0  0  0  0
 14 23  1  0  0  0  0
 15  7  1  6  0  0  0
 15 10  1  0  0  0  0
 16 18  1  0  0  0  0
 18  5  1  0  0  0  0
 19  9  1  0  0  0  0
 20  4  1  0  0  0  0
 21 17  2  0  0  0  0
 22 16  2  0  0  0  0
 23 13  1  0  0  0  0
 24 26  1  0  0  0  0
 26 25  1  0  0  0  0
 27 24  1  0  0  0  0
 28 24  2  0  0  0  0
M  END
>  <MODEL>
2

>  <REMARK>
 VINA RESULT:      -7.8      2.610      3.181
  Name = 
  1 active torsions:
  status: ('A' for Active; 'I' for Inactive)
    1  A    between atoms: C_2  and  N_11
                            x       y       z     vdW  Elec       q    Type
                         _______ _______ _______ _____ _____    ______ ____

>  <TORSDO>
F 1

$$$$
=
 OpenBabel11052418063D

 28 32  0  0  1  0  0  0  0  0999 V2000
  188.4330  176.4220  144.8170 C   0  0  0  0  0  0  0  0  0  0  0  0
  189.4010  175.4950  145.5080 C   0  0  1  0  0  3  0  0  0  0  0  0
  189.8360  174.4050  143.2790 C   0  0  1  0  0  3  0  0  0  0  0  0
  188.4700  173.7660  139.2080 C   0  0  0  0  0  2  0  0  0  0  0  0
  185.7040  179.0630  143.0200 O   0  0  0  0  0  1  0  0  0  0  0  0
  189.5720  174.1680  144.7620 C   0  0  0  0  0  2  0  0  0  0  0  0
  190.5050  172.0490  140.3460 C   0  0  0  0  0  2  0  0  0  0  0  0
  188.4610  175.1610  141.2900 C   0  0  0  0  0  0  0  0  0  0  0  0
  190.1320  172.4880  137.9680 N   0  0  0  0  0  0  0  0  0  0  0  0
  189.0620  174.1080  140.5040 N   0  0  0  0  0  0  0  0  0  0  0  0
  189.9560  173.0750  142.5480 C   0  0  0  0  0  2  0  0  0  0  0  0
  191.1520  172.3370  138.9980 C   0  0  0  0  0  2  0  0  0  0  0  0
  187.2280  177.1800  142.8310 C   0  0  0  0  0  0  0  0  0  0  0  0
  188.7720  175.2880  142.6630 C   0  0  0  0  0  0  0  0  0  0  0  0
  190.1990  173.3550  141.0730 C   0  0  1  0  0  3  0  0  0  0  0  0
  186.9080  178.3020  144.9570 C   0  0  0  0  0  3  0  0  0  0  0  0
  186.9280  177.0420  141.4720 C   0  0  0  0  0  3  0  0  0  0  0  0
  186.6120  178.1820  143.5970 C   0  0  0  0  0  0  0  0  0  0  0  0
  190.8280  172.4890  136.6950 C   0  0  0  0  0  1  0  0  0  0  0  0
  189.5200  173.8030  138.1060 C   0  0  0  0  0  2  0  0  0  0  0  0
  187.5340  176.0420  140.7130 C   0  0  0  0  0  3  0  0  0  0  0  0
  187.8120  177.4270  145.5620 C   0  0  0  0  0  3  0  0  0  0  0  0
  188.1560  176.2970  143.4360 C   0  0  0  0  0  0  0  0  0  0  0  0
  191.3590  175.9130  147.0150 C   0  0  0  0  0  0  0  0  0  0  0  0
  191.2980  177.0040  144.7560 C   0  0  0  0  0  1  0  0  0  0  0  0
  190.6880  176.1460  145.7660 N   0  0  0  0  0  0  0  0  0  0  0  0
  192.6770  176.5460  147.3110 C   0  0  0  0  0  1  0  0  0  0  0  0
  190.8370  175.1660  147.8860 O   0  0  0  0  0  0  0  0  0  0  0  0
  1  2  1  0  0  0  0
  1 22  1  0  0  0  0
  2 26  1  6  0  0  0
  3 11  1  6  0  0  0
  3  6  1  0  0  0  0
  4 10  1  0  0  0  0
  5 18  1  0  0  0  0
  6  2  1  0  0  0  0
  8 14  2  0  0  0  0
  9 20  1  0  0  0  0
  9 12  1  0  0  0  0
 10 15  1  0  0  0  0
 10  8  1  0  0  0  0
 12  7  1  0  0  0  0
 13 23  1  0  0  0  0
 13 18  2  0  0  0  0
 14  3  1  0  0  0  0
 14 23  1  0  0  0  0
 15  7  1  6  0  0  0
 15 11  1  0  0  0  0
 16 22  2  0  0  0  0
 17 13  1  0  0  0  0
 18 16  1  0  0  0  0
 19  9  1  0  0  0  0
 20  4  1  0  0  0  0
 21  8  1  0  0  0  0
 21 17  2  0  0  0  0
 23  1  2  0  0  0  0
 24 27  1  0  0  0  0
 24 28  2  0  0  0  0
 25 26  1  0  0  0  0
 26 24  1  0  0  0  0
M  END
>  <MODEL>
3

>  <REMARK>
 VINA RESULT:      -7.8      3.111      6.058
  Name = 
  1 active torsions:
  status: ('A' for Active; 'I' for Inactive)
    1  A    between atoms: C_2  and  N_11
                            x       y       z     vdW  Elec       q    Type
                         _______ _______ _______ _____ _____    ______ ____

>  <TORSDO>
F 1

$$$$
=
 OpenBabel11052418063D

 28 32  0  0  1  0  0  0  0  0999 V2000
  188.9370  177.2050  145.4150 C   0  0  0  0  0  0  0  0  0  0  0  0
  187.8630  177.9160  144.6310 C   0  0  1  0  0  3  0  0  0  0  0  0
  188.1800  176.2180  142.7980 C   0  0  1  0  0  3  0  0  0  0  0  0
  190.7360  173.1710  141.0550 C   0  0  0  0  0  2  0  0  0  0  0  0
  191.9180  175.3260  147.7030 O   0  0  0  0  0  1  0  0  0  0  0  0
  188.0010  177.6970  143.1210 C   0  0  0  0  0  2  0  0  0  0  0  0
  188.5580  174.2990  139.5150 C   0  0  0  0  0  2  0  0  0  0  0  0
  190.0390  174.5160  143.0520 C   0  0  0  0  0  0  0  0  0  0  0  0
  189.5990  172.1100  139.1810 N   0  0  0  0  0  0  0  0  0  0  0  0
  189.7640  174.0500  141.7130 N   0  0  0  0  0  0  0  0  0  0  0  0
  188.3620  176.0260  141.2990 C   0  0  0  0  0  2  0  0  0  0  0  0
  188.3280  172.8220  139.2220 C   0  0  0  0  0  2  0  0  0  0  0  0
  190.6340  175.4620  145.6440 C   0  0  0  0  0  0  0  0  0  0  0  0
  189.3250  175.6150  143.5820 C   0  0  0  0  0  0  0  0  0  0  0  0
  188.5560  174.5430  141.0210 C   0  0  1  0  0  3  0  0  0  0  0  0
  190.2370  177.0280  147.4540 C   0  0  0  0  0  3  0  0  0  0  0  0
  191.3350  174.3770  145.1070 C   0  0  0  0  0  3  0  0  0  0  0  0
  190.9330  175.9340  146.9330 C   0  0  0  0  0  0  0  0  0  0  0  0
  189.3160  170.7940  138.6390 C   0  0  0  0  0  1  0  0  0  0  0  0
  190.0630  171.9040  140.5460 C   0  0  0  0  0  2  0  0  0  0  0  0
  191.0430  173.9140  143.8250 C   0  0  0  0  0  3  0  0  0  0  0  0
  189.2470  177.6590  146.7000 C   0  0  0  0  0  3  0  0  0  0  0  0
  189.6210  176.0900  144.8790 C   0  0  0  0  0  0  0  0  0  0  0  0
  185.5290  178.6060  145.2250 C   0  0  0  0  0  0  0  0  0  0  0  0
  186.1870  176.1950  145.4490 C   0  0  0  0  0  1  0  0  0  0  0  0
  186.5220  177.5750  145.1120 N   0  0  0  0  0  0  0  0  0  0  0  0
  184.1480  178.2980  145.6960 C   0  0  0  0  0  1  0  0  0  0  0  0
  185.8140  179.7970  144.9260 O   0  0  0  0  0  0  0  0  0  0  0  0
  1 22  1  0  0  0  0
  2 26  1  1  0  0  0
  2  1  1  0  0  0  0
  3 11  1  6  0  0  0
  3  6  1  0  0  0  0
  3 14  1  0  0  0  0
  4 10  1  0  0  0  0
  6  2  1  0  0  0  0
  8 14  2  0  0  0  0
  8 21  1  0  0  0  0
  9 12  1  0  0  0  0
  9 20  1  0  0  0  0
 10  8  1  0  0  0  0
 12  7  1  0  0  0  0
 13 18  2  0  0  0  0
 14 23  1  0  0  0  0
 15  7  1  6  0  0  0
 15 11  1  0  0  0  0
 15 10  1  0  0  0  0
 17 13  1  0  0  0  0
 18 16  1  0  0  0  0
 18  5  1  0  0  0  0
 19  9  1  0  0  0  0
 20  4  1  0  0  0  0
 21 17  2  0  0  0  0
 22 16  2  0  0  0  0
 23  1  2  0  0  0  0
 23 13  1  0  0  0  0
 24 27  1  0  0  0  0
 26 24  1  0  0  0  0
 26 25  1  0  0  0  0
 28 24  2  0  0  0  0
M  END
>  <MODEL>
4

>  <REMARK>
 VINA RESULT:      -7.5      3.072      5.206
  Name = 
  1 active torsions:
  status: ('A' for Active; 'I' for Inactive)
    1  A    between atoms: C_2  and  N_11
                            x       y       z     vdW  Elec       q    Type
                         _______ _______ _______ _____ _____    ______ ____

>  <TORSDO>
F 1

$$$$
=
 OpenBabel11052418063D

 28 32  0  0  1  0  0  0  0  0999 V2000
  189.8540  176.0560  145.3640 C   0  0  0  0  0  0  0  0  0  0  0  0
  191.2430  175.4820  145.4810 C   0  0  1  0  0  3  0  0  0  0  0  0
  190.9320  174.4560  143.2010 C   0  0  1  0  0  3  0  0  0  0  0  0
  188.1450  173.2540  140.0970 C   0  0  0  0  0  2  0  0  0  0  0  0
  185.9960  177.7090  145.1740 O   0  0  0  0  0  1  0  0  0  0  0  0
  191.4300  174.2250  144.6240 C   0  0  0  0  0  2  0  0  0  0  0  0
  190.8620  172.2530  140.0800 C   0  0  0  0  0  2  0  0  0  0  0  0
  188.6690  174.6870  142.0850 C   0  0  0  0  0  0  0  0  0  0  0  0
  189.3700  172.4490  138.1510 N   0  0  0  0  0  0  0  0  0  0  0  0
  189.1280  173.8140  141.0290 N   0  0  0  0  0  0  0  0  0  0  0  0
  191.0820  173.1830  142.3800 C   0  0  0  0  0  2  0  0  0  0  0  0
  190.7360  172.6490  138.6150 C   0  0  0  0  0  2  0  0  0  0  0  0
  187.7370  176.3370  144.1770 C   0  0  0  0  0  0  0  0  0  0  0  0
  189.5070  174.9640  143.1900 C   0  0  0  0  0  0  0  0  0  0  0  0
  190.5580  173.4490  140.9770 C   0  0  1  0  0  3  0  0  0  0  0  0
  188.0920  177.4210  146.3170 C   0  0  0  0  0  3  0  0  0  0  0  0
  186.9180  176.0530  143.0790 C   0  0  0  0  0  3  0  0  0  0  0  0
  187.2710  177.1560  145.2190 C   0  0  0  0  0  0  0  0  0  0  0  0
  189.4000  172.5890  136.7070 C   0  0  0  0  0  1  0  0  0  0  0  0
  188.5420  173.5370  138.6550 C   0  0  0  0  0  2  0  0  0  0  0  0
  187.3780  175.2340  142.0500 C   0  0  0  0  0  3  0  0  0  0  0  0
  189.3740  176.8740  146.3890 C   0  0  0  0  0  3  0  0  0  0  0  0
  189.0420  175.7900  144.2380 C   0  0  0  0  0  0  0  0  0  0  0  0
  193.5120  176.4460  145.9320 C   0  0  0  0  0  0  0  0  0  0  0  0
  192.0560  177.5080  144.1860 C   0  0  0  0  0  1  0  0  0  0  0  0
  192.2730  176.4870  145.2060 N   0  0  0  0  0  0  0  0  0  0  0  0
  194.5900  177.4430  145.6720 C   0  0  0  0  0  1  0  0  0  0  0  0
  193.7050  175.5600  146.8080 O   0  0  0  0  0  0  0  0  0  0  0  0
  1  2  1  0  0  0  0
  1 22  1  0  0  0  0
  2 26  1  6  0  0  0
  3 11  1  6  0  0  0
  3  6  1  0  0  0  0
  4 10  1  0  0  0  0
  5 18  1  0  0  0  0
  6  2  1  0  0  0  0
  8 14  2  0  0  0  0
  9 12  1  0  0  0  0
  9 20  1  0  0  0  0
 10  8  1  0  0  0  0
 12  7  1  0  0  0  0
 13 23  1  0  0  0  0
 13 18  2  0  0  0  0
 14  3  1  0  0  0  0
 14 23  1  0  0  0  0
 15  7  1  6  0  0  0
 15 10  1  0  0  0  0
 15 11  1  0  0  0  0
 16 22  2  0  0  0  0
 17 13  1  0  0  0  0
 18 16  1  0  0  0  0
 19  9  1  0  0  0  0
 20  4  1  0  0  0  0
 21  8  1  0  0  0  0
 21 17  2  0  0  0  0
 23  1  2  0  0  0  0
 24 28  2  0  0  0  0
 25 26  1  0  0  0  0
 26 24  1  0  0  0  0
 27 24  1  0  0  0  0
M  END
>  <MODEL>
5

>  <REMARK>
 VINA RESULT:      -7.3      3.252      6.193
  Name = 
  1 active torsions:
  status: ('A' for Active; 'I' for Inactive)
    1  A    between atoms: C_2  and  N_11
                            x       y       z     vdW  Elec       q    Type
                         _______ _______ _______ _____ _____    ______ ____

>  <TORSDO>
F 1

$$$$
=
 OpenBabel11052418063D

 28 32  0  0  1  0  0  0  0  0999 V2000
  192.3740  175.2160  145.0690 C   0  0  0  0  0  0  0  0  0  0  0  0
  192.7540  174.4660  143.8170 C   0  0  1  0  0  3  0  0  0  0  0  0
  190.6400  175.3250  142.7490 C   0  0  1  0  0  3  0  0  0  0  0  0
  186.7120  177.0770  143.3410 C   0  0  0  0  0  2  0  0  0  0  0  0
  191.4340  177.2490  148.6230 O   0  0  0  0  0  1  0  0  0  0  0  0
  191.5360  174.1090  142.9580 C   0  0  0  0  0  2  0  0  0  0  0  0
  187.3970  175.8640  140.8020 C   0  0  0  0  0  2  0  0  0  0  0  0
  189.0370  176.6650  144.1820 C   0  0  0  0  0  0  0  0  0  0  0  0
  185.6980  177.5820  141.1840 N   0  0  0  0  0  0  0  0  0  0  0  0
  188.0960  176.6660  143.0860 N   0  0  0  0  0  0  0  0  0  0  0  0
  189.4130  174.9400  141.9350 C   0  0  0  0  0  2  0  0  0  0  0  0
  186.7720  177.1570  140.2960 C   0  0  0  0  0  2  0  0  0  0  0  0
  190.8370  176.6120  146.3550 C   0  0  0  0  0  0  0  0  0  0  0  0
  190.2580  175.9640  144.0670 C   0  0  0  0  0  0  0  0  0  0  0  0
  188.5390  176.1720  141.7660 C   0  0  1  0  0  3  0  0  0  0  0  0
  192.9330  175.8810  147.3330 C   0  0  0  0  0  3  0  0  0  0  0  0
  189.6240  177.3010  146.4560 C   0  0  0  0  0  3  0  0  0  0  0  0
  191.7300  176.5840  147.4390 C   0  0  0  0  0  0  0  0  0  0  0  0
  184.9920  178.6480  140.4980 C   0  0  0  0  0  1  0  0  0  0  0  0
  186.2860  178.1760  142.3770 C   0  0  0  0  0  2  0  0  0  0  0  0
  188.7340  177.3220  145.3830 C   0  0  0  0  0  3  0  0  0  0  0  0
  193.2510  175.2010  146.1560 C   0  0  0  0  0  3  0  0  0  0  0  0
  191.1610  175.9350  145.1540 C   0  0  0  0  0  0  0  0  0  0  0  0
  195.1120  174.6530  142.9900 C   0  0  0  0  0  0  0  0  0  0  0  0
  193.4370  176.3960  142.3160 C   0  0  0  0  0  1  0  0  0  0  0  0
  193.7760  175.1780  143.0450 N   0  0  0  0  0  0  0  0  0  0  0  0
  196.1780  175.3390  142.2040 C   0  0  0  0  0  1  0  0  0  0  0  0
  195.4050  173.5960  143.6110 O   0  0  0  0  0  0  0  0  0  0  0  0
  1 23  2  0  0  0  0
  1 22  1  0  0  0  0
  2 26  1  6  0  0  0
  2  1  1  0  0  0  0
  3 11  1  1  0  0  0
  3  6  1  0  0  0  0
  3 14  1  0  0  0  0
  6  2  1  0  0  0  0
  8 21  1  0  0  0  0
  9 20  1  0  0  0  0
 10  4  1  0  0  0  0
 10  8  1  0  0  0  0
 12  7  1  0  0  0  0
 12  9  1  0  0  0  0
 13 17  1  0  0  0  0
 13 18  2  0  0  0  0
 14  8  2  0  0  0  0
 14 23  1  0  0  0  0
 15  7  1  6  0  0  0
 15 11  1  0  0  0  0
 15 10  1  0  0  0  0
 16 18  1  0  0  0  0
 18  5  1  0  0  0  0
 19  9  1  0  0  0  0
 20  4  1  0  0  0  0
 21 17  2  0  0  0  0
 22 16  2  0  0  0  0
 23 13  1  0  0  0  0
 24 26  1  0  0  0  0
 24 28  2  0  0  0  0
 25 26  1  0  0  0  0
 27 24  1  0  0  0  0
M  END
>  <MODEL>
6

>  <REMARK>
 VINA RESULT:      -7.1      2.892      6.897
  Name = 
  1 active torsions:
  status: ('A' for Active; 'I' for Inactive)
    1  A    between atoms: C_2  and  N_11
                            x       y       z     vdW  Elec       q    Type
                         _______ _______ _______ _____ _____    ______ ____

>  <TORSDO>
F 1

$$$$
=
 OpenBabel11052418063D

 28 32  0  0  1  0  0  0  0  0999 V2000
  192.1780  174.9060  146.0610 C   0  0  0  0  0  0  0  0  0  0  0  0
  193.2290  173.8960  145.6750 C   0  0  1  0  0  3  0  0  0  0  0  0
  191.9980  173.5530  143.5030 C   0  0  1  0  0  3  0  0  0  0  0  0
  188.2870  174.0420  141.3040 C   0  0  0  0  0  2  0  0  0  0  0  0
  189.3140  177.7330  147.2670 O   0  0  0  0  0  1  0  0  0  0  0  0
  192.7080  172.8670  144.6660 C   0  0  0  0  0  2  0  0  0  0  0  0
  190.3290  172.2340  140.3300 C   0  0  0  0  0  2  0  0  0  0  0  0
  189.7900  174.7530  143.1800 C   0  0  0  0  0  0  0  0  0  0  0  0
  188.5930  173.3260  138.9960 N   0  0  0  0  0  0  0  0  0  0  0  0
  189.6070  174.0310  141.9410 N   0  0  0  0  0  0  0  0  0  0  0  0
  191.4470  172.5140  142.5380 C   0  0  0  0  0  2  0  0  0  0  0  0
  190.0030  172.9590  139.0310 C   0  0  0  0  0  2  0  0  0  0  0  0
  190.1010  176.1180  145.6300 C   0  0  0  0  0  0  0  0  0  0  0  0
  190.9160  174.4910  143.9930 C   0  0  0  0  0  0  0  0  0  0  0  0
  190.7320  173.2370  141.4070 C   0  0  1  0  0  3  0  0  0  0  0  0
  191.3590  176.5310  147.6630 C   0  0  0  0  0  3  0  0  0  0  0  0
  188.9910  176.3660  144.8160 C   0  0  0  0  0  3  0  0  0  0  0  0
  190.2530  176.7960  146.8510 C   0  0  0  0  0  0  0  0  0  0  0  0
  188.3140  173.7600  137.6390 C   0  0  0  0  0  1  0  0  0  0  0  0
  188.3910  174.4870  139.8510 C   0  0  0  0  0  2  0  0  0  0  0  0
  188.8360  175.6870  143.6090 C   0  0  0  0  0  3  0  0  0  0  0  0
  192.3130  175.5910  147.2710 C   0  0  0  0  0  3  0  0  0  0  0  0
  191.0740  175.1740  145.2200 C   0  0  0  0  0  0  0  0  0  0  0  0
  195.7120  173.8510  145.3390 C   0  0  0  0  0  0  0  0  0  0  0  0
  194.4130  175.8650  144.5950 C   0  0  0  0  0  1  0  0  0  0  0  0
  194.4590  174.5420  145.2100 N   0  0  0  0  0  0  0  0  0  0  0  0
  196.9850  174.4680  144.8660 C   0  0  0  0  0  1  0  0  0  0  0  0
  195.7540  172.7050  145.8620 O   0  0  0  0  0  0  0  0  0  0  0  0
  1 22  1  0  0  0  0
  2 26  1  6  0  0  0
  2  1  1  0  0  0  0
  3 11  1  6  0  0  0
  3 14  1  0  0  0  0
  3  6  1  0  0  0  0
  4 10  1  0  0  0  0
  6  2  1  0  0  0  0
  8 21  1  0  0  0  0
  8 14  2  0  0  0  0
  9 12  1  0  0  0  0
  9 20  1  0  0  0  0
 10  8  1  0  0  0  0
 12  7  1  0  0  0  0
 13 18  2  0  0  0  0
 14 23  1  0  0  0  0
 15  7  1  6  0  0  0
 15 10  1  0  0  0  0
 15 11  1  0  0  0  0
 17 13  1  0  0  0  0
 18  5  1  0  0  0  0
 18 16  1  0  0  0  0
 19  9  1  0  0  0  0
 20  4  1  0  0  0  0
 21 17  2  0  0  0  0
 22 16  2  0  0  0  0
 23 13  1  0  0  0  0
 23  1  2  0  0  0  0
 24 28  2  0  0  0  0
 25 26  1  0  0  0  0
 26 24  1  0  0  0  0
 27 24  1  0  0  0  0
M  END
>  <MODEL>
7

>  <REMARK>
 VINA RESULT:      -7.0      3.378      7.112
  Name = 
  1 active torsions:
  status: ('A' for Active; 'I' for Inactive)
    1  A    between atoms: C_2  and  N_11
                            x       y       z     vdW  Elec       q    Type
                         _______ _______ _______ _____ _____    ______ ____

>  <TORSDO>
F 1

$$$$
=
 OpenBabel11052418063D

 28 32  0  0  1  0  0  0  0  0999 V2000
  188.7880  176.9320  144.6990 C   0  0  0  0  0  0  0  0  0  0  0  0
  188.8140  177.8390  143.4950 C   0  0  1  0  0  3  0  0  0  0  0  0
  191.0500  176.8500  142.8880 C   0  0  1  0  0  3  0  0  0  0  0  0
  194.5210  174.6050  144.2160 C   0  0  0  0  0  2  0  0  0  0  0  0
  188.5900  174.4650  148.0950 O   0  0  0  0  0  1  0  0  0  0  0  0
  190.2400  178.1350  143.0170 C   0  0  0  0  0  2  0  0  0  0  0  0
  194.6280  176.1320  141.7580 C   0  0  0  0  0  2  0  0  0  0  0  0
  192.1020  175.1990  144.4970 C   0  0  0  0  0  0  0  0  0  0  0  0
  196.0130  174.1990  142.3340 N   0  0  0  0  0  0  0  0  0  0  0  0
  193.2920  175.1960  143.6780 N   0  0  0  0  0  0  0  0  0  0  0  0
  192.4750  177.1680  142.4590 C   0  0  0  0  0  2  0  0  0  0  0  0
  195.2490  174.8310  141.2670 C   0  0  0  0  0  2  0  0  0  0  0  0
  189.8110  175.2470  146.1440 C   0  0  0  0  0  0  0  0  0  0  0  0
  191.0190  176.0450  144.1700 C   0  0  0  0  0  0  0  0  0  0  0  0
  193.2530  175.8650  142.3610 C   0  0  1  0  0  3  0  0  0  0  0  0
  187.6050  176.1180  146.6520 C   0  0  0  0  0  3  0  0  0  0  0  0
  190.8910  174.4160  146.4560 C   0  0  0  0  0  3  0  0  0  0  0  0
  188.6720  175.2730  146.9660 C   0  0  0  0  0  0  0  0  0  0  0  0
  196.7770  173.1300  141.7170 C   0  0  0  0  0  1  0  0  0  0  0  0
  195.0860  173.5630  143.2600 C   0  0  0  0  0  2  0  0  0  0  0  0
  192.0240  174.3970  145.6450 C   0  0  0  0  0  3  0  0  0  0  0  0
  187.6640  176.9420  145.5280 C   0  0  0  0  0  3  0  0  0  0  0  0
  189.8700  176.0710  144.9940 C   0  0  0  0  0  0  0  0  0  0  0  0
  186.8020  178.0680  142.0200 C   0  0  0  0  0  0  0  0  0  0  0  0
  188.3250  176.0980  141.7150 C   0  0  0  0  0  1  0  0  0  0  0  0
  187.9700  177.3300  142.4110 N   0  0  0  0  0  0  0  0  0  0  0  0
  185.9240  177.5910  140.9120 C   0  0  0  0  0  1  0  0  0  0  0  0
  186.4980  179.1380  142.6140 O   0  0  0  0  0  0  0  0  0  0  0  0
  1 23  2  0  0  0  0
  1 22  1  0  0  0  0
  2 26  1  6  0  0  0
  2  1  1  0  0  0  0
  3 11  1  1  0  0  0
  3  6  1  0  0  0  0
  3 14  1  0  0  0  0
  6  2  1  0  0  0  0
  8 21  1  0  0  0  0
  9 20  1  0  0  0  0
 10  4  1  0  0  0  0
 10  8  1  0  0  0  0
 12  7  1  0  0  0  0
 12  9  1  0  0  0  0
 13 17  1  0  0  0  0
 13 18  2  0  0  0  0
 14  8  2  0  0  0  0
 14 23  1  0  0  0  0
 15  7  1  1  0  0  0
 15 11  1  0  0  0  0
 15 10  1  0  0  0  0
 16 18  1  0  0  0  0
 18  5  1  0  0  0  0
 19  9  1  0  0  0  0
 20  4  1  0  0  0  0
 21 17  2  0  0  0  0
 22 16  2  0  0  0  0
 23 13  1  0  0  0  0
 24 26  1  0  0  0  0
 24 28  2  0  0  0  0
 25 26  1  0  0  0  0
 27 24  1  0  0  0  0
M  END
>  <MODEL>
8

>  <REMARK>
 VINA RESULT:      -7.0      1.894      2.826
  Name = 
  1 active torsions:
  status: ('A' for Active; 'I' for Inactive)
    1  A    between atoms: C_2  and  N_11
                            x       y       z     vdW  Elec       q    Type
                         _______ _______ _______ _____ _____    ______ ____

>  <TORSDO>
F 1

$$$$
=
 OpenBabel11052418063D

 28 32  0  0  1  0  0  0  0  0999 V2000
  187.9290  176.4870  143.9530 C   0  0  0  0  0  0  0  0  0  0  0  0
  188.8580  175.3000  143.9970 C   0  0  1  0  0  3  0  0  0  0  0  0
  188.6260  175.1190  141.4950 C   0  0  1  0  0  3  0  0  0  0  0  0
  186.3390  176.1870  137.9620 C   0  0  0  0  0  2  0  0  0  0  0  0
  185.3450  179.8000  143.9780 O   0  0  0  0  0  1  0  0  0  0  0  0
  188.6490  174.3510  142.8120 C   0  0  0  0  0  2  0  0  0  0  0  0
  188.2640  174.0260  137.8510 C   0  0  0  0  0  2  0  0  0  0  0  0
  187.0000  176.6750  140.3300 C   0  0  0  0  0  0  0  0  0  0  0  0
  187.4700  175.3670  135.9660 N   0  0  0  0  0  0  0  0  0  0  0  0
  187.2410  175.9640  139.0950 N   0  0  0  0  0  0  0  0  0  0  0  0
  188.3700  174.1670  140.3360 C   0  0  0  0  0  2  0  0  0  0  0  0
  188.6470  174.7630  136.5740 C   0  0  0  0  0  2  0  0  0  0  0  0
  186.4670  178.0300  142.7480 C   0  0  0  0  0  0  0  0  0  0  0  0
  187.6130  176.2440  141.5280 C   0  0  0  0  0  0  0  0  0  0  0  0
  188.3350  174.9720  139.0460 C   0  0  1  0  0  3  0  0  0  0  0  0
  186.7940  178.2710  145.1390 C   0  0  0  0  0  3  0  0  0  0  0  0
  185.8660  178.4450  141.5550 C   0  0  0  0  0  3  0  0  0  0  0  0
  186.1990  178.7030  143.9510 C   0  0  0  0  0  0  0  0  0  0  0  0
  187.8700  175.8070  134.6420 C   0  0  0  0  0  1  0  0  0  0  0  0
  187.1220  176.5690  136.7130 C   0  0  0  0  0  2  0  0  0  0  0  0
  186.1270  177.7720  140.3620 C   0  0  0  0  0  3  0  0  0  0  0  0
  187.6510  177.1700  145.1400 C   0  0  0  0  0  3  0  0  0  0  0  0
  187.3470  176.9200  142.7400 C   0  0  0  0  0  0  0  0  0  0  0  0
  191.1630  174.9010  144.8960 C   0  0  0  0  0  0  0  0  0  0  0  0
  190.7400  176.9160  143.4620 C   0  0  0  0  0  1  0  0  0  0  0  0
  190.2580  175.7100  144.1270 N   0  0  0  0  0  0  0  0  0  0  0  0
  192.5990  175.2760  145.0410 C   0  0  0  0  0  1  0  0  0  0  0  0
  190.7500  173.8540  145.4640 O   0  0  0  0  0  0  0  0  0  0  0  0
  1  2  1  0  0  0  0
  1 22  1  0  0  0  0
  2 26  1  6  0  0  0
  3 11  1  6  0  0  0
  3 14  1  0  0  0  0
  3  6  1  0  0  0  0
  4 10  1  0  0  0  0
  6  2  1  0  0  0  0
  8 21  1  0  0  0  0
  8 14  2  0  0  0  0
  9 12  1  0  0  0  0
  9 20  1  0  0  0  0
 10  8  1  0  0  0  0
 12  7  1  0  0  0  0
 13 18  2  0  0  0  0
 14 23  1  0  0  0  0
 15  7  1  6  0  0  0
 15 10  1  0  0  0  0
 15 11  1  0  0  0  0
 16 22  2  0  0  0  0
 17 13  1  0  0  0  0
 18  5  1  0  0  0  0
 18 16  1  0  0  0  0
 19  9  1  0  0  0  0
 20  4  1  0  0  0  0
 21 17  2  0  0  0  0
 23 13  1  0  0  0  0
 23  1  2  0  0  0  0
 24 27  1  0  0  0  0
 24 28  2  0  0  0  0
 25 26  1  0  0  0  0
 26 24  1  0  0  0  0
M  END
>  <MODEL>
9

>  <REMARK>
 VINA RESULT:      -6.9      2.640      6.749
  Name = 
  1 active torsions:
  status: ('A' for Active; 'I' for Inactive)
    1  A    between atoms: C_2  and  N_11
                            x       y       z     vdW  Elec       q    Type
                         _______ _______ _______ _____ _____    ______ ____

>  <TORSDO>
F 1

$$$$
