=
 OpenBabel11052417513D

 31 35  0  0  1  0  0  0  0  0999 V2000
  186.7300  177.1340  141.3290 C   0  0  0  0  0  0  0  0  0  0  0  0
  188.5990  176.5320  144.4890 N   0  0  0  0  0  0  0  0  0  0  0  0
  187.7890  177.0870  145.5610 C   0  0  0  0  0  0  0  0  0  0  0  0
  185.6240  177.7240  146.4840 C   0  0  0  0  0  0  0  0  0  0  0  0
  187.9910  176.1310  143.1960 C   0  0  1  0  0  3  0  0  0  0  0  0
  187.3420  176.2130  140.4600 O   0  0  0  0  0  0  0  0  0  0  0  0
  186.3910  177.1810  145.4520 C   0  0  0  0  0  3  0  0  0  0  0  0
  190.8330  175.5940  143.7270 C   0  0  1  0  0  3  0  0  0  0  0  0
  185.7580  178.1200  140.7890 C   0  0  0  0  0  1  0  0  0  0  0  0
  189.8760  177.3570  146.9930 C   0  0  0  0  0  2  0  0  0  0  0  0
  184.1480  177.8220  146.3410 C   0  0  0  0  0  1  0  0  0  0  0  0
  190.0450  174.8320  142.6800 C   0  0  0  0  0  2  0  0  0  0  0  0
  189.9340  176.0320  144.8900 C   0  0  1  0  0  3  0  0  0  0  0  0
  187.0530  177.1650  142.6260 C   0  0  0  0  0  3  0  0  0  0  0  0
  186.2430  178.1750  147.6500 C   0  0  0  0  0  3  0  0  0  0  0  0
  189.0330  175.8000  142.1320 C   0  0  1  0  0  3  0  0  0  0  0  0
  188.3000  175.2480  140.9160 C   0  0  0  0  0  2  0  0  0  0  0  0
  190.6480  177.1020  145.7050 C   0  0  0  0  0  2  0  0  0  0  0  0
  188.4060  177.5400  146.7530 C   0  0  0  0  0  0  0  0  0  0  0  0
  187.6290  178.0750  147.7860 C   0  0  0  0  0  3  0  0  0  0  0  0
  193.6090  176.1250  143.3980 O   0  0  0  0  0  0  0  0  0  0  0  0
  193.2970  175.0740  144.0230 C   0  0  0  0  0  0  0  0  0  0  0  0
  191.9150  174.7610  144.2320 N   0  0  0  0  0  2  0  0  0  0  0  0
  196.3040  172.3710  145.4680 C   0  0  0  0  0  0  0  0  0  0  0  0
  194.4930  172.9000  143.9570 C   0  0  0  0  0  3  0  0  0  0  0  0
  195.0970  175.7640  146.2350 O   0  0  0  0  0  1  0  0  0  0  0  0
  197.2480  171.5070  145.9130 F   0  0  0  0  0  0  0  0  0  0  0  0
  195.4660  172.0080  144.4140 C   0  0  0  0  0  3  0  0  0  0  0  0
  195.1970  174.5250  145.6140 C   0  0  0  0  0  0  0  0  0  0  0  0
  194.3440  174.1660  144.5460 C   0  0  0  0  0  0  0  0  0  0  0  0
  196.1700  173.6260  146.0650 C   0  0  0  0  0  3  0  0  0  0  0  0
  1 14  2  0  0  0  0
  2 13  1  0  0  0  0
  2  3  1  0  0  0  0
  3 19  1  0  0  0  0
  4 15  2  0  0  0  0
  5 14  1  6  0  0  0
  5  2  1  0  0  0  0
  6 17  1  0  0  0  0
  6  1  1  0  0  0  0
  7  3  2  0  0  0  0
  7  4  1  0  0  0  0
  8 23  1  1  0  0  0
  8 13  1  0  0  0  0
  9  1  1  0  0  0  0
 11  4  1  0  0  0  0
 12  8  1  0  0  0  0
 13 18  1  6  0  0  0
 15 20  1  0  0  0  0
 16 17  1  6  0  0  0
 16 12  1  0  0  0  0
 16  5  1  0  0  0  0
 18 10  1  0  0  0  0
 19 10  1  0  0  0  0
 19 20  2  0  0  0  0
 21 22  2  0  0  0  0
 22 23  1  0  0  0  0
 22 30  1  0  0  0  0
 24 27  1  0  0  0  0
 24 31  1  0  0  0  0
 25 28  1  0  0  0  0
 25 30  2  0  0  0  0
 28 24  2  0  0  0  0
 29 31  2  0  0  0  0
 29 26  1  0  0  0  0
 30 29  1  0  0  0  0
M  END
>  <MODEL>
1

>  <REMARK>
 VINA RESULT:      -8.6      0.000      0.000
  Name = 
  2 active torsions:
  status: ('A' for Active; 'I' for Inactive)
    1  A    between atoms: C_9  and  C_22
    2  A    between atoms: C_15  and  N_23
                            x       y       z     vdW  Elec       q    Type
                         _______ _______ _______ _____ _____    ______ ____

>  <TORSDO>
F 2

$$$$
=
 OpenBabel11052417513D

 31 35  0  0  1  0  0  0  0  0999 V2000
  186.9430  176.9290  141.2970 C   0  0  0  0  0  0  0  0  0  0  0  0
  188.6620  176.3980  144.5530 N   0  0  0  0  0  0  0  0  0  0  0  0
  187.8410  177.0410  145.5650 C   0  0  0  0  0  0  0  0  0  0  0  0
  185.6760  177.8200  146.3710 C   0  0  0  0  0  0  0  0  0  0  0  0
  188.0850  175.9630  143.2580 C   0  0  1  0  0  3  0  0  0  0  0  0
  187.5420  175.9390  140.4980 O   0  0  0  0  0  0  0  0  0  0  0  0
  186.4530  177.1930  145.3970 C   0  0  0  0  0  3  0  0  0  0  0  0
  190.8760  175.3230  143.9250 C   0  0  1  0  0  3  0  0  0  0  0  0
  186.0390  177.9300  140.6740 C   0  0  0  0  0  1  0  0  0  0  0  0
  189.8840  177.2860  147.0640 C   0  0  0  0  0  2  0  0  0  0  0  0
  184.2120  177.9780  146.1650 C   0  0  0  0  0  1  0  0  0  0  0  0
  190.0930  174.5480  142.8840 C   0  0  0  0  0  2  0  0  0  0  0  0
  189.9570  175.8590  145.0290 C   0  0  1  0  0  3  0  0  0  0  0  0
  187.2180  177.0080  142.6030 C   0  0  0  0  0  3  0  0  0  0  0  0
  186.2720  178.2990  147.5380 C   0  0  0  0  0  3  0  0  0  0  0  0
  189.1480  175.5320  142.2520 C   0  0  1  0  0  3  0  0  0  0  0  0
  188.4360  174.9560  141.0360 C   0  0  0  0  0  2  0  0  0  0  0  0
  190.6890  176.9330  145.8200 C   0  0  0  0  0  2  0  0  0  0  0  0
  188.4330  177.5240  146.7570 C   0  0  0  0  0  0  0  0  0  0  0  0
  187.6450  178.1430  147.7330 C   0  0  0  0  0  3  0  0  0  0  0  0
  193.5810  175.1570  143.0550 O   0  0  0  0  0  0  0  0  0  0  0  0
  193.2430  174.4180  144.0190 C   0  0  0  0  0  0  0  0  0  0  0  0
  191.8990  174.4680  144.5110 N   0  0  0  0  0  2  0  0  0  0  0  0
  196.1440  171.8520  145.8720 C   0  0  0  0  0  0  0  0  0  0  0  0
  195.4020  174.0480  145.1860 C   0  0  0  0  0  3  0  0  0  0  0  0
  192.8690  171.5150  144.2250 O   0  0  0  0  0  1  0  0  0  0  0  0
  197.0690  171.0560  146.4600 F   0  0  0  0  0  0  0  0  0  0  0  0
  196.3570  173.2290  145.7930 C   0  0  0  0  0  3  0  0  0  0  0  0
  194.0160  172.1090  144.7360 C   0  0  0  0  0  0  0  0  0  0  0  0
  194.2230  173.5050  144.6510 C   0  0  0  0  0  0  0  0  0  0  0  0
  194.9780  171.2950  145.3460 C   0  0  0  0  0  3  0  0  0  0  0  0
  1 14  2  0  0  0  0
  2 13  1  0  0  0  0
  2  3  1  0  0  0  0
  3 19  1  0  0  0  0
  4 15  2  0  0  0  0
  5 14  1  6  0  0  0
  5  2  1  0  0  0  0
  6 17  1  0  0  0  0
  6  1  1  0  0  0  0
  7  3  2  0  0  0  0
  7  4  1  0  0  0  0
  8 23  1  1  0  0  0
  8 13  1  0  0  0  0
  9  1  1  0  0  0  0
 11  4  1  0  0  0  0
 12  8  1  0  0  0  0
 13 18  1  6  0  0  0
 15 20  1  0  0  0  0
 16 17  1  6  0  0  0
 16 12  1  0  0  0  0
 16  5  1  0  0  0  0
 18 10  1  0  0  0  0
 19 10  1  0  0  0  0
 19 20  2  0  0  0  0
 21 22  2  0  0  0  0
 22 23  1  0  0  0  0
 22 30  1  0  0  0  0
 24 27  1  0  0  0  0
 25 28  2  0  0  0  0
 26 29  1  0  0  0  0
 28 24  1  0  0  0  0
 29 31  1  0  0  0  0
 30 29  2  0  0  0  0
 30 25  1  0  0  0  0
 31 24  2  0  0  0  0
M  END
>  <MODEL>
2

>  <REMARK>
 VINA RESULT:      -8.4      0.992      1.326
  Name = 
  2 active torsions:
  status: ('A' for Active; 'I' for Inactive)
    1  A    between atoms: C_9  and  C_22
    2  A    between atoms: C_15  and  N_23
                            x       y       z     vdW  Elec       q    Type
                         _______ _______ _______ _____ _____    ______ ____

>  <TORSDO>
F 2

$$$$
=
 OpenBabel11052417513D

 31 35  0  0  1  0  0  0  0  0999 V2000
  194.7270  174.8420  145.7740 C   0  0  0  0  0  0  0  0  0  0  0  0
  191.4820  173.9230  144.2040 N   0  0  0  0  0  0  0  0  0  0  0  0
  191.6300  172.5630  143.7130 C   0  0  0  0  0  0  0  0  0  0  0  0
  192.6650  170.3590  143.8240 C   0  0  0  0  0  0  0  0  0  0  0  0
  192.3400  174.4420  145.2970 C   0  0  1  0  0  3  0  0  0  0  0  0
  194.3530  175.9370  146.5730 O   0  0  0  0  0  0  0  0  0  0  0  0
  192.5250  171.6590  144.3110 C   0  0  0  0  0  3  0  0  0  0  0  0
  190.1350  176.0760  144.2420 C   0  0  1  0  0  3  0  0  0  0  0  0
  196.1640  174.4950  145.6270 C   0  0  0  0  0  1  0  0  0  0  0  0
  189.7910  172.9850  142.0030 C   0  0  0  0  0  2  0  0  0  0  0  0
  193.6260  169.4250  144.4680 C   0  0  0  0  0  1  0  0  0  0  0  0
  190.7370  176.3140  145.6130 C   0  0  0  0  0  2  0  0  0  0  0  0
  190.2110  174.5950  143.8500 C   0  0  1  0  0  3  0  0  0  0  0  0
  193.8050  174.1390  145.1070 C   0  0  0  0  0  3  0  0  0  0  0  0
  191.9040  169.9350  142.7350 C   0  0  0  0  0  3  0  0  0  0  0  0
  192.1910  175.9470  145.5010 C   0  0  1  0  0  3  0  0  0  0  0  0
  192.9850  176.3320  146.7420 C   0  0  0  0  0  2  0  0  0  0  0  0
  189.9680  174.4560  142.3540 C   0  0  0  0  0  2  0  0  0  0  0  0
  190.8560  172.1190  142.6120 C   0  0  0  0  0  0  0  0  0  0  0  0
  190.9970  170.8110  142.1370 C   0  0  0  0  0  3  0  0  0  0  0  0
  189.0630  178.1000  142.5520 O   0  0  0  0  0  0  0  0  0  0  0  0
  188.2690  177.5510  143.3640 C   0  0  0  0  0  0  0  0  0  0  0  0
  188.7470  176.5160  144.2300 N   0  0  0  0  0  2  0  0  0  0  0  0
  184.1660  178.7870  143.6330 C   0  0  0  0  0  0  0  0  0  0  0  0
  186.3990  178.6700  144.5510 C   0  0  0  0  0  3  0  0  0  0  0  0
  186.3120  176.9720  141.2550 O   0  0  0  0  0  1  0  0  0  0  0  0
  182.8740  179.1840  143.7330 F   0  0  0  0  0  0  0  0  0  0  0  0
  185.0680  179.0810  144.6560 C   0  0  0  0  0  3  0  0  0  0  0  0
  185.9260  177.6690  142.3930 C   0  0  0  0  0  0  0  0  0  0  0  0
  186.8470  177.9620  143.4250 C   0  0  0  0  0  0  0  0  0  0  0  0
  184.5940  178.0840  142.5060 C   0  0  0  0  0  3  0  0  0  0  0  0
  1  6  1  0  0  0  0
  2  5  1  0  0  0  0
  3  2  1  0  0  0  0
  3  7  1  0  0  0  0
  4  7  2  0  0  0  0
  4 11  1  0  0  0  0
  5 14  1  6  0  0  0
  5 16  1  0  0  0  0
  6 17  1  0  0  0  0
  8 23  1  1  0  0  0
  8 12  1  0  0  0  0
  9  1  1  0  0  0  0
 10 18  1  0  0  0  0
 10 19  1  0  0  0  0
 13 18  1  6  0  0  0
 13  2  1  0  0  0  0
 13  8  1  0  0  0  0
 14  1  2  0  0  0  0
 15  4  1  0  0  0  0
 16 12  1  1  0  0  0
 16 17  1  0  0  0  0
 19  3  2  0  0  0  0
 20 19  1  0  0  0  0
 20 15  2  0  0  0  0
 21 22  2  0  0  0  0
 22 30  1  0  0  0  0
 22 23  1  0  0  0  0
 24 27  1  0  0  0  0
 24 28  1  0  0  0  0
 25 28  2  0  0  0  0
 26 29  1  0  0  0  0
 29 31  1  0  0  0  0
 29 30  2  0  0  0  0
 30 25  1  0  0  0  0
 31 24  2  0  0  0  0
M  END
>  <MODEL>
3

>  <REMARK>
 VINA RESULT:      -8.1      3.635      8.931
  Name = 
  2 active torsions:
  status: ('A' for Active; 'I' for Inactive)
    1  A    between atoms: C_9  and  C_22
    2  A    between atoms: C_15  and  N_23
                            x       y       z     vdW  Elec       q    Type
                         _______ _______ _______ _____ _____    ______ ____

>  <TORSDO>
F 2

$$$$
=
 OpenBabel11052417513D

 31 35  0  0  1  0  0  0  0  0999 V2000
  196.0470  175.6280  144.2240 C   0  0  0  0  0  0  0  0  0  0  0  0
  192.8180  173.8430  144.6970 N   0  0  0  0  0  0  0  0  0  0  0  0
  193.1230  172.4220  144.6760 C   0  0  0  0  0  0  0  0  0  0  0  0
  194.6670  170.5690  145.0340 C   0  0  0  0  0  0  0  0  0  0  0  0
  193.8550  174.8460  145.0410 C   0  0  1  0  0  3  0  0  0  0  0  0
  195.7280  176.9160  144.6890 O   0  0  0  0  0  0  0  0  0  0  0  0
  194.3820  171.9350  145.0680 C   0  0  0  0  0  3  0  0  0  0  0  0
  191.0680  175.6820  144.6200 C   0  0  1  0  0  3  0  0  0  0  0  0
  197.3580  175.3870  143.5680 C   0  0  0  0  0  1  0  0  0  0  0  0
  190.7340  171.9230  143.9510 C   0  0  0  0  0  2  0  0  0  0  0  0
  196.0090  170.0800  145.4440 C   0  0  0  0  0  1  0  0  0  0  0  0
  192.0580  176.5220  145.4030 C   0  0  0  0  0  2  0  0  0  0  0  0
  191.3780  174.1860  144.7540 C   0  0  1  0  0  3  0  0  0  0  0  0
  195.1640  174.6300  144.3220 C   0  0  0  0  0  3  0  0  0  0  0  0
  193.6920  169.6630  144.6180 C   0  0  0  0  0  3  0  0  0  0  0  0
  193.4020  176.2790  144.7760 C   0  0  1  0  0  3  0  0  0  0  0  0
  194.4740  177.2160  145.3160 C   0  0  0  0  0  2  0  0  0  0  0  0
  190.6340  173.4170  143.6720 C   0  0  0  0  0  2  0  0  0  0  0  0
  192.1380  171.4920  144.2630 C   0  0  0  0  0  0  0  0  0  0  0  0
  192.4290  170.1240  144.2410 C   0  0  0  0  0  3  0  0  0  0  0  0
  189.4700  177.9150  143.8710 O   0  0  0  0  0  0  0  0  0  0  0  0
  188.9650  177.0960  144.6870 C   0  0  0  0  0  0  0  0  0  0  0  0
  189.7160  175.9460  145.0910 N   0  0  0  0  0  2  0  0  0  0  0  0
  185.0560  177.7290  146.3480 C   0  0  0  0  0  0  0  0  0  0  0  0
  187.4500  177.5140  146.6090 C   0  0  0  0  0  3  0  0  0  0  0  0
  186.5410  177.1260  143.0340 O   0  0  0  0  0  1  0  0  0  0  0  0
  183.8290  177.9300  146.8880 F   0  0  0  0  0  0  0  0  0  0  0  0
  186.1860  177.7210  147.1670 C   0  0  0  0  0  3  0  0  0  0  0  0
  186.4510  177.3200  144.4070 C   0  0  0  0  0  0  0  0  0  0  0  0
  187.6020  177.3110  145.2280 C   0  0  0  0  0  0  0  0  0  0  0  0
  185.1890  177.5290  144.9730 C   0  0  0  0  0  3  0  0  0  0  0  0
  1 14  2  0  0  0  0
  1  6  1  0  0  0  0
  2 13  1  0  0  0  0
  2  5  1  0  0  0  0
  3  2  1  0  0  0  0
  3  7  1  0  0  0  0
  4  7  2  0  0  0  0
  4 11  1  0  0  0  0
  5 14  1  6  0  0  0
  6 17  1  0  0  0  0
  8 13  1  0  0  0  0
  8 23  1  1  0  0  0
  8 12  1  0  0  0  0
  9  1  1  0  0  0  0
 10 19  1  0  0  0  0
 13 18  1  6  0  0  0
 15  4  1  0  0  0  0
 16  5  1  0  0  0  0
 16 17  1  1  0  0  0
 16 12  1  0  0  0  0
 18 10  1  0  0  0  0
 19  3  2  0  0  0  0
 20 19  1  0  0  0  0
 20 15  2  0  0  0  0
 21 22  2  0  0  0  0
 22 23  1  0  0  0  0
 22 30  1  0  0  0  0
 24 27  1  0  0  0  0
 24 28  1  0  0  0  0
 25 28  2  0  0  0  0
 26 29  1  0  0  0  0
 29 31  1  0  0  0  0
 29 30  2  0  0  0  0
 30 25  1  0  0  0  0
 31 24  2  0  0  0  0
M  END
>  <MODEL>
4

>  <REMARK>
 VINA RESULT:      -7.9      3.363      8.817
  Name = 
  2 active torsions:
  status: ('A' for Active; 'I' for Inactive)
    1  A    between atoms: C_9  and  C_22
    2  A    between atoms: C_15  and  N_23
                            x       y       z     vdW  Elec       q    Type
                         _______ _______ _______ _____ _____    ______ ____

>  <TORSDO>
F 2

$$$$
=
 OpenBabel11052417513D

 31 35  0  0  1  0  0  0  0  0999 V2000
  193.5840  170.7550  143.9430 C   0  0  0  0  0  0  0  0  0  0  0  0
  192.9350  174.4110  144.1790 N   0  0  0  0  0  0  0  0  0  0  0  0
  194.2110  175.0730  143.9620 C   0  0  0  0  0  0  0  0  0  0  0  0
  196.4500  175.1190  142.9990 C   0  0  0  0  0  0  0  0  0  0  0  0
  192.6880  173.0370  143.6760 C   0  0  1  0  0  3  0  0  0  0  0  0
  192.2890  170.2530  143.7250 O   0  0  0  0  0  0  0  0  0  0  0  0
  195.2260  174.4780  143.1920 C   0  0  0  0  0  3  0  0  0  0  0  0
  190.5130  174.5710  144.9270 C   0  0  1  0  0  3  0  0  0  0  0  0
  194.7070  169.8130  144.1880 C   0  0  0  0  0  1  0  0  0  0  0  0
  193.3730  177.1020  145.2520 C   0  0  0  0  0  2  0  0  0  0  0  0
  197.5110  174.4650  142.1900 C   0  0  0  0  0  1  0  0  0  0  0  0
  190.2510  173.4010  143.9990 C   0  0  0  0  0  2  0  0  0  0  0  0
  191.8110  175.2990  144.5530 C   0  0  1  0  0  3  0  0  0  0  0  0
  193.8060  172.0730  143.9830 C   0  0  0  0  0  3  0  0  0  0  0  0
  196.6790  176.3730  143.5660 C   0  0  0  0  0  3  0  0  0  0  0  0
  191.3880  172.4390  144.2060 C   0  0  1  0  0  3  0  0  0  0  0  0
  191.1610  171.1100  143.4990 C   0  0  0  0  0  2  0  0  0  0  0  0
  192.2390  176.1930  145.7080 C   0  0  0  0  0  2  0  0  0  0  0  0
  194.4510  176.3500  144.5250 C   0  0  0  0  0  0  0  0  0  0  0  0
  195.6780  176.9890  144.3190 C   0  0  0  0  0  3  0  0  0  0  0  0
  188.8810  175.3130  147.1370 O   0  0  0  0  0  0  0  0  0  0  0  0
  188.6020  175.8270  146.0200 C   0  0  0  0  0  0  0  0  0  0  0  0
  189.3960  175.5030  144.8740 N   0  0  0  0  0  2  0  0  0  0  0  0
  185.2600  178.5050  145.7060 C   0  0  0  0  0  0  0  0  0  0  0  0
  186.3920  176.6610  146.7840 C   0  0  0  0  0  3  0  0  0  0  0  0
  188.4490  177.9160  143.9640 O   0  0  0  0  0  1  0  0  0  0  0  0
  184.1970  179.3420  145.6210 F   0  0  0  0  0  0  0  0  0  0  0  0
  185.2960  177.5230  146.6970 C   0  0  0  0  0  3  0  0  0  0  0  0
  187.4170  177.7640  144.8830 C   0  0  0  0  0  0  0  0  0  0  0  0
  187.4640  176.7670  145.8830 C   0  0  0  0  0  0  0  0  0  0  0  0
  186.3170  178.6240  144.8030 C   0  0  0  0  0  3  0  0  0  0  0  0
  1 14  2  0  0  0  0
  1  9  1  0  0  0  0
  2 13  1  0  0  0  0
  3  2  1  0  0  0  0
  3 19  1  0  0  0  0
  4  7  1  0  0  0  0
  4 15  2  0  0  0  0
  5 14  1  1  0  0  0
  5  2  1  0  0  0  0
  5 16  1  0  0  0  0
  6  1  1  0  0  0  0
  7  3  2  0  0  0  0
  8 23  1  6  0  0  0
 10 18  1  0  0  0  0
 11  4  1  0  0  0  0
 12 16  1  0  0  0  0
 12  8  1  0  0  0  0
 13  8  1  0  0  0  0
 13 18  1  1  0  0  0
 15 20  1  0  0  0  0
 16 17  1  6  0  0  0
 17  6  1  0  0  0  0
 19 10  1  0  0  0  0
 20 19  2  0  0  0  0
 22 21  2  0  0  0  0
 23 22  1  0  0  0  0
 24 28  1  0  0  0  0
 26 29  1  0  0  0  0
 27 24  1  0  0  0  0
 28 25  2  0  0  0  0
 29 30  2  0  0  0  0
 30 22  1  0  0  0  0
 30 25  1  0  0  0  0
 31 29  1  0  0  0  0
 31 24  2  0  0  0  0
M  END
>  <MODEL>
5

>  <REMARK>
 VINA RESULT:      -7.5      3.799      8.543
  Name = 
  2 active torsions:
  status: ('A' for Active; 'I' for Inactive)
    1  A    between atoms: C_9  and  C_22
    2  A    between atoms: C_15  and  N_23
                            x       y       z     vdW  Elec       q    Type
                         _______ _______ _______ _____ _____    ______ ____

>  <TORSDO>
F 2

$$$$
=
 OpenBabel11052417513D

 31 35  0  0  1  0  0  0  0  0999 V2000
  192.7650  171.8500  141.2200 C   0  0  0  0  0  0  0  0  0  0  0  0
  192.3840  174.5960  143.7020 N   0  0  0  0  0  0  0  0  0  0  0  0
  193.6460  175.3160  143.7190 C   0  0  0  0  0  0  0  0  0  0  0  0
  195.7010  176.0400  142.6250 C   0  0  0  0  0  0  0  0  0  0  0  0
  191.9770  173.7890  142.5250 C   0  0  1  0  0  3  0  0  0  0  0  0
  191.4240  171.5170  140.9610 O   0  0  0  0  0  0  0  0  0  0  0  0
  194.4860  175.3530  142.5930 C   0  0  0  0  0  3  0  0  0  0  0  0
  190.1270  174.1560  144.7820 C   0  0  1  0  0  3  0  0  0  0  0  0
  193.8540  171.0060  140.6630 C   0  0  0  0  0  1  0  0  0  0  0  0
  193.1500  176.1210  146.0830 C   0  0  0  0  0  2  0  0  0  0  0  0
  196.5770  176.0560  141.4240 C   0  0  0  0  0  1  0  0  0  0  0  0
  189.6500  173.7660  143.3960 C   0  0  0  0  0  2  0  0  0  0  0  0
  191.3890  175.0250  144.7120 C   0  0  1  0  0  3  0  0  0  0  0  0
  193.0690  172.8890  142.0040 C   0  0  0  0  0  3  0  0  0  0  0  0
  196.0920  176.7130  143.7820 C   0  0  0  0  0  3  0  0  0  0  0  0
  190.7450  172.9300  142.7960 C   0  0  1  0  0  3  0  0  0  0  0  0
  190.3290  172.2810  141.4820 C   0  0  0  0  0  2  0  0  0  0  0  0
  192.0500  175.0670  146.0820 C   0  0  0  0  0  2  0  0  0  0  0  0
  194.0500  176.0100  144.8870 C   0  0  0  0  0  0  0  0  0  0  0  0
  195.2640  176.7040  144.9060 C   0  0  0  0  0  3  0  0  0  0  0  0
  188.8760  176.5420  143.8650 O   0  0  0  0  0  0  0  0  0  0  0  0
  188.4920  176.0830  144.9750 C   0  0  0  0  0  0  0  0  0  0  0  0
  189.0740  174.8770  145.4820 N   0  0  0  0  0  2  0  0  0  0  0  0
  185.3720  178.0510  147.1730 C   0  0  0  0  0  0  0  0  0  0  0  0
  186.1020  176.6360  145.3540 C   0  0  0  0  0  3  0  0  0  0  0  0
  189.0380  177.7460  147.3300 O   0  0  0  0  0  1  0  0  0  0  0  0
  184.3760  178.6660  147.8560 F   0  0  0  0  0  0  0  0  0  0  0  0
  185.0730  177.2680  146.0580 C   0  0  0  0  0  3  0  0  0  0  0  0
  187.7330  177.5710  146.8870 C   0  0  0  0  0  0  0  0  0  0  0  0
  187.4400  176.7760  145.7550 C   0  0  0  0  0  0  0  0  0  0  0  0
  186.6970  178.2010  147.5860 C   0  0  0  0  0  3  0  0  0  0  0  0
  1 14  2  0  0  0  0
  2  3  1  0  0  0  0
  2 13  1  0  0  0  0
  3 19  1  0  0  0  0
  4 15  2  0  0  0  0
  5 14  1  1  0  0  0
  5 16  1  0  0  0  0
  5  2  1  0  0  0  0
  6  1  1  0  0  0  0
  6 17  1  0  0  0  0
  7  4  1  0  0  0  0
  7  3  2  0  0  0  0
  8 23  1  6  0  0  0
  9  1  1  0  0  0  0
 11  4  1  0  0  0  0
 12  8  1  0  0  0  0
 13  8  1  0  0  0  0
 13 18  1  1  0  0  0
 15 20  1  0  0  0  0
 16 17  1  6  0  0  0
 16 12  1  0  0  0  0
 18 10  1  0  0  0  0
 19 20  2  0  0  0  0
 19 10  1  0  0  0  0
 21 22  2  0  0  0  0
 22 23  1  0  0  0  0
 22 30  1  0  0  0  0
 24 31  1  0  0  0  0
 24 27  1  0  0  0  0
 25 30  2  0  0  0  0
 25 28  1  0  0  0  0
 28 24  2  0  0  0  0
 29 26  1  0  0  0  0
 29 31  2  0  0  0  0
 30 29  1  0  0  0  0
M  END
>  <MODEL>
6

>  <REMARK>
 VINA RESULT:      -7.4      3.800      7.914
  Name = 
  2 active torsions:
  status: ('A' for Active; 'I' for Inactive)
    1  A    between atoms: C_9  and  C_22
    2  A    between atoms: C_15  and  N_23
                            x       y       z     vdW  Elec       q    Type
                         _______ _______ _______ _____ _____    ______ ____

>  <TORSDO>
F 2

$$$$
=
 OpenBabel11052417513D

 31 35  0  0  1  0  0  0  0  0999 V2000
  193.0500  173.1280  140.5880 C   0  0  0  0  0  0  0  0  0  0  0  0
  191.8750  175.1880  143.4540 N   0  0  0  0  0  0  0  0  0  0  0  0
  193.0650  175.7110  144.1030 C   0  0  0  0  0  0  0  0  0  0  0  0
  195.3980  176.4160  144.0270 C   0  0  0  0  0  0  0  0  0  0  0  0
  191.8990  174.7620  142.0330 C   0  0  1  0  0  3  0  0  0  0  0  0
  191.8860  173.0480  139.8030 O   0  0  0  0  0  0  0  0  0  0  0  0
  194.2580  175.9210  143.3910 C   0  0  0  0  0  3  0  0  0  0  0  0
  189.3680  174.7860  143.5290 C   0  0  1  0  0  3  0  0  0  0  0  0
  194.2410  172.3180  140.2230 C   0  0  0  0  0  1  0  0  0  0  0  0
  191.7670  175.9530  146.2800 C   0  0  0  0  0  2  0  0  0  0  0  0
  196.6510  176.6190  143.2540 C   0  0  0  0  0  1  0  0  0  0  0  0
  189.4160  174.8220  142.0140 C   0  0  0  0  0  2  0  0  0  0  0  0
  190.5940  175.4740  144.1410 C   0  0  1  0  0  3  0  0  0  0  0  0
  193.0790  173.8890  141.6870 C   0  0  0  0  0  3  0  0  0  0  0  0
  195.3610  176.7190  145.3880 C   0  0  0  0  0  3  0  0  0  0  0  0
  190.6290  174.0290  141.6140 C   0  0  1  0  0  3  0  0  0  0  0  0
  190.6990  173.7910  140.1120 C   0  0  0  0  0  2  0  0  0  0  0  0
  190.7120  175.0850  145.6080 C   0  0  0  0  0  2  0  0  0  0  0  0
  193.0370  176.0310  145.4830 C   0  0  0  0  0  0  0  0  0  0  0  0
  194.1810  176.5350  146.1100 C   0  0  0  0  0  3  0  0  0  0  0  0
  188.9490  177.5980  143.6440 O   0  0  0  0  0  0  0  0  0  0  0  0
  188.0070  176.8610  144.0470 C   0  0  0  0  0  0  0  0  0  0  0  0
  188.1540  175.4380  144.0000 N   0  0  0  0  0  2  0  0  0  0  0  0
  184.3780  178.5250  145.6260 C   0  0  0  0  0  0  0  0  0  0  0  0
  186.2990  177.0730  145.8350 C   0  0  0  0  0  3  0  0  0  0  0  0
  186.3890  178.8030  142.5550 O   0  0  0  0  0  1  0  0  0  0  0  0
  183.2340  179.0410  146.1380 F   0  0  0  0  0  0  0  0  0  0  0  0
  185.1200  177.6040  146.3650 C   0  0  0  0  0  3  0  0  0  0  0  0
  185.9910  178.3880  143.8200 C   0  0  0  0  0  0  0  0  0  0  0  0
  186.7510  177.4540  144.5610 C   0  0  0  0  0  0  0  0  0  0  0  0
  184.8120  178.9150  144.3580 C   0  0  0  0  0  3  0  0  0  0  0  0
  1 14  2  0  0  0  0
  2  3  1  0  0  0  0
  2 13  1  0  0  0  0
  3 19  1  0  0  0  0
  4 15  2  0  0  0  0
  5 14  1  1  0  0  0
  5  2  1  0  0  0  0
  6 17  1  0  0  0  0
  6  1  1  0  0  0  0
  7  4  1  0  0  0  0
  7  3  2  0  0  0  0
  8 23  1  1  0  0  0
  8 13  1  0  0  0  0
  9  1  1  0  0  0  0
 11  4  1  0  0  0  0
 12  8  1  0  0  0  0
 13 18  1  1  0  0  0
 15 20  1  0  0  0  0
 16 17  1  6  0  0  0
 16 12  1  0  0  0  0
 16  5  1  0  0  0  0
 18 10  1  0  0  0  0
 19 20  2  0  0  0  0
 19 10  1  0  0  0  0
 21 22  2  0  0  0  0
 22 30  1  0  0  0  0
 23 22  1  0  0  0  0
 24 27  1  0  0  0  0
 24 28  1  0  0  0  0
 25 28  2  0  0  0  0
 26 29  1  0  0  0  0
 29 31  1  0  0  0  0
 29 30  2  0  0  0  0
 30 25  1  0  0  0  0
 31 24  2  0  0  0  0
M  END
>  <MODEL>
7

>  <REMARK>
 VINA RESULT:      -7.4      3.851      8.033
  Name = 
  2 active torsions:
  status: ('A' for Active; 'I' for Inactive)
    1  A    between atoms: C_9  and  C_22
    2  A    between atoms: C_15  and  N_23
                            x       y       z     vdW  Elec       q    Type
                         _______ _______ _______ _____ _____    ______ ____

>  <TORSDO>
F 2

$$$$
=
 OpenBabel11052417513D

 31 35  0  0  1  0  0  0  0  0999 V2000
  185.5440  177.8130  146.1620 C   0  0  0  0  0  0  0  0  0  0  0  0
  188.1090  176.4600  143.8320 N   0  0  0  0  0  0  0  0  0  0  0  0
  187.5570  176.5830  142.4930 C   0  0  0  0  0  0  0  0  0  0  0  0
  186.0870  177.6790  140.8870 C   0  0  0  0  0  0  0  0  0  0  0  0
  187.6290  177.3210  144.9410 C   0  0  1  0  0  3  0  0  0  0  0  0
  186.3120  178.0560  147.3150 O   0  0  0  0  0  0  0  0  0  0  0  0
  186.6170  177.5780  142.1740 C   0  0  0  0  0  3  0  0  0  0  0  0
  189.8930  175.4910  145.3570 C   0  0  1  0  0  3  0  0  0  0  0  0
  184.0660  177.9530  146.2200 C   0  0  0  0  0  1  0  0  0  0  0  0
  189.0620  174.6870  141.7030 C   0  0  0  0  0  2  0  0  0  0  0  0
  185.0860  178.7340  140.5770 C   0  0  0  0  0  1  0  0  0  0  0  0
  189.6490  176.6960  146.2460 C   0  0  0  0  0  2  0  0  0  0  0  0
  189.4030  175.7460  143.9270 C   0  0  1  0  0  3  0  0  0  0  0  0
  186.1260  177.4080  145.0290 C   0  0  0  0  0  3  0  0  0  0  0  0
  186.4960  176.7920  139.8910 C   0  0  0  0  0  3  0  0  0  0  0  0
  188.1580  176.8790  146.3020 C   0  0  1  0  0  3  0  0  0  0  0  0
  187.7390  177.9220  147.3290 C   0  0  0  0  0  2  0  0  0  0  0  0
  189.3020  174.4220  143.1840 C   0  0  0  0  0  2  0  0  0  0  0  0
  187.9710  175.6920  141.4720 C   0  0  0  0  0  0  0  0  0  0  0  0
  187.4420  175.8070  140.1820 C   0  0  0  0  0  3  0  0  0  0  0  0
  191.9680  177.2630  144.5480 O   0  0  0  0  0  0  0  0  0  0  0  0
  192.3120  176.1040  144.9070 C   0  0  0  0  0  0  0  0  0  0  0  0
  191.3140  175.1720  145.3380 N   0  0  0  0  0  2  0  0  0  0  0  0
  196.4370  174.9130  144.9650 C   0  0  0  0  0  0  0  0  0  0  0  0
  194.3370  175.3030  146.0980 C   0  0  0  0  0  3  0  0  0  0  0  0
  193.9740  176.0780  142.4890 O   0  0  0  0  0  1  0  0  0  0  0  0
  197.7380  174.5350  145.0000 F   0  0  0  0  0  0  0  0  0  0  0  0
  195.6780  174.9130  146.1360 C   0  0  0  0  0  3  0  0  0  0  0  0
  194.5140  175.6970  143.7110 C   0  0  0  0  0  0  0  0  0  0  0  0
  193.7370  175.6990  144.8920 C   0  0  0  0  0  0  0  0  0  0  0  0
  195.8560  175.3040  143.7570 C   0  0  0  0  0  3  0  0  0  0  0  0
  1  9  1  0  0  0  0
  1  6  1  0  0  0  0
  2 13  1  0  0  0  0
  2  5  1  0  0  0  0
  3  2  1  0  0  0  0
  4  7  2  0  0  0  0
  5 14  1  1  0  0  0
  5 16  1  0  0  0  0
  6 17  1  0  0  0  0
  7  3  1  0  0  0  0
  8 23  1  6  0  0  0
  8 12  1  0  0  0  0
 10 18  1  0  0  0  0
 11  4  1  0  0  0  0
 13 18  1  1  0  0  0
 13  8  1  0  0  0  0
 14  1  2  0  0  0  0
 15 20  2  0  0  0  0
 15  4  1  0  0  0  0
 16 12  1  6  0  0  0
 16 17  1  0  0  0  0
 19 10  1  0  0  0  0
 19  3  2  0  0  0  0
 20 19  1  0  0  0  0
 21 22  2  0  0  0  0
 22 23  1  0  0  0  0
 24 27  1  0  0  0  0
 24 28  1  0  0  0  0
 25 28  2  0  0  0  0
 26 29  1  0  0  0  0
 29 31  1  0  0  0  0
 29 30  2  0  0  0  0
 30 22  1  0  0  0  0
 30 25  1  0  0  0  0
 31 24  2  0  0  0  0
M  END
>  <MODEL>
8

>  <REMARK>
 VINA RESULT:      -7.3      1.915      4.347
  Name = 
  2 active torsions:
  status: ('A' for Active; 'I' for Inactive)
    1  A    between atoms: C_9  and  C_22
    2  A    between atoms: C_15  and  N_23
                            x       y       z     vdW  Elec       q    Type
                         _______ _______ _______ _____ _____    ______ ____

>  <TORSDO>
F 2

$$$$
=
 OpenBabel11052417513D

 31 35  0  0  1  0  0  0  0  0999 V2000
  187.4350  176.3000  140.5650 C   0  0  0  0  0  0  0  0  0  0  0  0
  189.3890  175.4780  143.6220 N   0  0  0  0  0  0  0  0  0  0  0  0
  188.7690  176.2040  144.7180 C   0  0  0  0  0  0  0  0  0  0  0  0
  186.8220  177.2490  145.7490 C   0  0  0  0  0  0  0  0  0  0  0  0
  188.6280  175.1500  142.3910 C   0  0  1  0  0  3  0  0  0  0  0  0
  187.8100  175.2560  139.7020 O   0  0  0  0  0  0  0  0  0  0  0  0
  187.4040  176.5430  144.6950 C   0  0  0  0  0  3  0  0  0  0  0  0
  191.3610  174.1290  142.7610 C   0  0  1  0  0  3  0  0  0  0  0  0
  186.6160  177.4260  140.0460 C   0  0  0  0  0  1  0  0  0  0  0  0
  190.9680  176.1420  145.9990 C   0  0  0  0  0  2  0  0  0  0  0  0
  185.3810  177.6060  145.6970 C   0  0  0  0  0  1  0  0  0  0  0  0
  190.3780  173.4860  141.8020 C   0  0  0  0  0  2  0  0  0  0  0  0
  190.6390  174.7590  143.9590 C   0  0  1  0  0  3  0  0  0  0  0  0
  187.8490  176.3150  141.8360 C   0  0  0  0  0  3  0  0  0  0  0  0
  187.5930  177.6200  146.8510 C   0  0  0  0  0  3  0  0  0  0  0  0
  189.5160  174.6010  141.2780 C   0  0  1  0  0  3  0  0  0  0  0  0
  188.6120  174.1510  140.1380 C   0  0  0  0  0  2  0  0  0  0  0  0
  191.5880  175.7090  144.6760 C   0  0  0  0  0  2  0  0  0  0  0  0
  189.5390  176.5780  145.8460 C   0  0  0  0  0  0  0  0  0  0  0  0
  188.9450  177.2770  146.9020 C   0  0  0  0  0  3  0  0  0  0  0  0
  190.7360  171.9230  144.4480 O   0  0  0  0  0  0  0  0  0  0  0  0
  191.9400  172.0500  144.0930 C   0  0  0  0  0  0  0  0  0  0  0  0
  192.3120  173.1320  143.2320 N   0  0  0  0  0  2  0  0  0  0  0  0
  194.8740  169.1870  145.3680 C   0  0  0  0  0  0  0  0  0  0  0  0
  192.8750  169.7510  144.1320 C   0  0  0  0  0  3  0  0  0  0  0  0
  194.1840  172.7720  145.8410 O   0  0  0  0  0  1  0  0  0  0  0  0
  195.7920  168.2710  145.7620 F   0  0  0  0  0  0  0  0  0  0  0  0
  193.8210  168.8060  144.5360 C   0  0  0  0  0  3  0  0  0  0  0  0
  194.0390  171.4640  145.3940 C   0  0  0  0  0  0  0  0  0  0  0  0
  192.9690  171.0880  144.5510 C   0  0  0  0  0  0  0  0  0  0  0  0
  194.9830  170.5110  145.7950 C   0  0  0  0  0  3  0  0  0  0  0  0
  1 14  2  0  0  0  0
  2 13  1  0  0  0  0
  2  3  1  0  0  0  0
  3 19  1  0  0  0  0
  4 15  2  0  0  0  0
  5 14  1  6  0  0  0
  5  2  1  0  0  0  0
  6 17  1  0  0  0  0
  6  1  1  0  0  0  0
  7  3  2  0  0  0  0
  7  4  1  0  0  0  0
  8 23  1  1  0  0  0
  8 13  1  0  0  0  0
  9  1  1  0  0  0  0
 11  4  1  0  0  0  0
 12  8  1  0  0  0  0
 13 18  1  6  0  0  0
 15 20  1  0  0  0  0
 16 17  1  6  0  0  0
 16 12  1  0  0  0  0
 16  5  1  0  0  0  0
 18 10  1  0  0  0  0
 19 10  1  0  0  0  0
 19 20  2  0  0  0  0
 22 21  2  0  0  0  0
 22 30  1  0  0  0  0
 23 22  1  0  0  0  0
 24 27  1  0  0  0  0
 24 31  1  0  0  0  0
 25 28  1  0  0  0  0
 25 30  2  0  0  0  0
 28 24  2  0  0  0  0
 29 31  2  0  0  0  0
 29 26  1  0  0  0  0
 30 29  1  0  0  0  0
M  END
>  <MODEL>
9

>  <REMARK>
 VINA RESULT:      -6.9      2.100      2.447
  Name = 
  2 active torsions:
  status: ('A' for Active; 'I' for Inactive)
    1  A    between atoms: C_9  and  C_22
    2  A    between atoms: C_15  and  N_23
                            x       y       z     vdW  Elec       q    Type
                         _______ _______ _______ _____ _____    ______ ____

>  <TORSDO>
F 2

$$$$
