=
 OpenBabel11052420453D

 43 50  0  0  1  0  0  0  0  0999 V2000
  190.8600  170.3660  139.4960 C   0  0  2  0  0  3  0  0  0  0  0  0
  188.9190  174.6480  141.4760 C   0  0  0  0  0  0  0  0  0  0  0  0
  189.2840  175.3140  145.0650 N   0  0  0  0  0  2  0  0  0  0  0  0
  189.2710  172.3240  139.8740 C   0  0  2  0  0  3  0  0  0  0  0  0
  191.5680  170.5660  140.8290 C   0  0  0  0  0  2  0  0  0  0  0  0
  191.8370  169.7870  138.4950 C   0  0  0  0  0  1  0  0  0  0  0  0
  189.7670  172.3920  141.3090 C   0  0  0  0  0  0  0  0  0  0  0  0
  190.3400  171.7020  138.9730 C   0  0  0  0  0  2  0  0  0  0  0  0
  190.3270  170.8890  142.1150 S   0  0  0  0  0  0  0  0  0  0  0  0
  189.8160  173.6860  143.3960 N   0  0  0  0  0  0  0  0  0  0  0  0
  189.6180  173.5190  142.0030 C   0  0  0  0  0  0  0  0  0  0  0  0
  188.4910  174.7070  140.2560 N   0  0  0  0  0  0  0  0  0  0  0  0
  188.6100  175.5750  142.5920 C   0  0  2  0  0  3  0  0  0  0  0  0
  189.2740  174.8230  143.7230 C   0  0  0  0  0  0  0  0  0  0  0  0
  188.9100  173.7060  139.2660 C   0  0  0  0  0  2  0  0  0  0  0  0
  189.8830  174.5750  146.1690 C   0  0  2  0  0  3  0  0  0  0  0  0
  188.9460  174.5490  147.3670 C   0  0  0  0  0  1  0  0  0  0  0  0
  191.2400  175.1670  146.5400 C   0  0  0  0  0  2  0  0  0  0  0  0
  191.9240  175.8630  145.3610 C   0  0  2  0  0  3  0  0  0  0  0  0
  193.1020  175.0890  144.7640 C   0  0  1  0  0  0  0  0  0  0  0  0
  193.3470  176.2240  145.7580 C   0  0  1  0  0  3  0  0  0  0  0  0
  193.7240  177.4030  145.1090 O   0  0  0  0  0  1  0  0  0  0  0  0
  192.7900  172.6060  144.3420 N   0  0  0  0  0  2  0  0  0  0  0  0
  194.6340  173.3160  145.7390 N   0  0  0  0  0  2  0  0  0  0  0  0
  193.2810  173.6340  145.2660 C   0  0  2  0  0  0  0  0  0  0  0  0
  194.2040  172.9930  144.3770 C   0  0  2  0  0  3  0  0  0  0  0  0
  193.2670  175.3950  143.2740 C   0  0  0  0  0  2  0  0  0  0  0  0
  194.5950  175.7380  143.0030 O   0  0  0  0  0  0  0  0  0  0  0  0
  194.6550  175.8860  141.6160 C   0  0  1  0  0  3  0  0  0  0  0  0
  196.7020  173.7800  139.6020 N   0  0  0  0  0  1  0  0  0  0  0  0
  196.9740  175.6980  140.9870 N   0  0  0  0  0  2  0  0  0  0  0  0
  196.3570  174.3810  140.8790 C   0  0  1  0  0  3  0  0  0  0  0  0
  195.9030  176.6540  141.2470 C   0  0  0  0  0  2  0  0  0  0  0  0
  194.8570  174.5390  140.9800 C   0  0  0  0  0  2  0  0  0  0  0  0
  187.1750  175.6170  142.8170 N   0  0  0  0  0  2  0  0  0  0  0  0
  186.7340  176.9540  142.4590 C   0  0  0  0  0  2  0  0  0  0  0  0
  185.9120  176.7880  144.8070 C   0  0  0  0  0  2  0  0  0  0  0  0
  186.0900  177.9380  145.7240 C   0  0  0  0  0  0  0  0  0  0  0  0
  185.8250  178.9350  143.6490 C   0  0  0  0  0  2  0  0  0  0  0  0
  185.6840  177.4310  143.4430 C   0  0  1  0  0  3  0  0  0  0  0  0
  186.0430  179.1050  145.1070 C   0  0  0  0  0  3  0  0  0  0  0  0
  186.6600  178.7710  147.9620 C   0  0  0  0  0  2  0  0  0  0  0  0
  186.2960  177.7680  147.1690 C   0  0  0  0  0  3  0  0  0  0  0  0
  1  6  1  6  0  0  0
  1  5  1  0  0  0  0
  2 11  1  0  0  0  0
  2 13  1  0  0  0  0
  3 16  1  0  0  0  0
  4  8  1  6  0  0  0
  4  7  1  0  0  0  0
  5  9  1  0  0  0  0
  7 11  2  0  0  0  0
  7  9  1  0  0  0  0
  8  1  1  0  0  0  0
 10 14  2  0  0  0  0
 11 10  1  0  0  0  0
 12  2  2  0  0  0  0
 13 35  1  1  0  0  0
 13 14  1  0  0  0  0
 14  3  1  0  0  0  0
 15  4  1  0  0  0  0
 15 12  1  0  0  0  0
 16 18  1  0  0  0  0
 16 17  1  1  0  0  0
 19 21  1  0  0  0  0
 19 18  1  1  0  0  0
 20 27  1  6  0  0  0
 20 25  1  0  0  0  0
 20 19  1  0  0  0  0
 20 21  1  0  0  0  0
 21 22  1  6  0  0  0
 25 23  1  1  0  0  0
 25 24  1  0  0  0  0
 26 23  1  1  0  0  0
 26 25  1  0  0  0  0
 26 24  1  0  0  0  0
 28 27  1  0  0  0  0
 29 28  1  1  0  0  0
 31 33  1  0  0  0  0
 32 30  1  6  0  0  0
 32 34  1  0  0  0  0
 32 31  1  0  0  0  0
 33 29  1  0  0  0  0
 34 29  1  0  0  0  0
 36 35  1  0  0  0  0
 37 38  1  0  0  0  0
 38 43  1  0  0  0  0
 39 41  1  0  0  0  0
 40 36  1  6  0  0  0
 40 39  1  0  0  0  0
 40 37  1  0  0  0  0
 41 38  2  0  0  0  0
 43 42  2  0  0  0  0
M  END
>  <MODEL>
1

>  <REMARK>
 VINA RESULT:      -7.4      0.000      0.000
  Name = 
  11 active torsions:
  status: ('A' for Active; 'I' for Inactive)
    1  A    between atoms: N_1  and  C_32
    2  A    between atoms: N_1  and  C_34
    3  A    between atoms: C_2  and  C_6
    4  A    between atoms: C_2  and  N_13
    5  A    between atoms: C_3  and  C_6
    6  A    between atoms: C_4  and  C_22
    7  A    between atoms: C_4  and  C_41
    8  A    between atoms: C_11  and  O_14
    9  A    between atoms: O_14  and  C_41
   10  A    between atoms: C_19  and  C_37
   11  A    between atoms: C_32  and  C_35
                            x       y       z     vdW  Elec       q    Type
                         _______ _______ _______ _____ _____    ______ ____

>  <TORSDO>
F 11

$$$$
=
 OpenBabel11052420453D

 43 50  0  0  1  0  0  0  0  0999 V2000
  196.1710  175.9550  143.6430 C   0  0  2  0  0  3  0  0  0  0  0  0
  191.3810  176.1040  145.3920 C   0  0  0  0  0  0  0  0  0  0  0  0
  188.5930  176.3470  143.0220 N   0  0  0  0  0  2  0  0  0  0  0  0
  194.1890  176.4950  145.1530 C   0  0  2  0  0  3  0  0  0  0  0  0
  195.2860  175.5780  142.4630 C   0  0  0  0  0  2  0  0  0  0  0  0
  197.4510  175.1480  143.5830 C   0  0  0  0  0  1  0  0  0  0  0  0
  193.2870  176.3850  143.9340 C   0  0  0  0  0  0  0  0  0  0  0  0
  195.4520  175.6550  144.9550 C   0  0  0  0  0  2  0  0  0  0  0  0
  193.9470  176.7970  142.3160 S   0  0  0  0  0  0  0  0  0  0  0  0
  190.9800  176.2460  143.1050 N   0  0  0  0  0  0  0  0  0  0  0  0
  191.9850  176.1570  144.0990 C   0  0  0  0  0  0  0  0  0  0  0  0
  192.0630  176.1490  146.4920 N   0  0  0  0  0  0  0  0  0  0  0  0
  189.9110  176.2070  145.2310 C   0  0  2  0  0  3  0  0  0  0  0  0
  189.8350  176.2600  143.7220 C   0  0  0  0  0  0  0  0  0  0  0  0
  193.5260  176.0180  146.4730 C   0  0  0  0  0  2  0  0  0  0  0  0
  188.5110  176.4430  141.5710 C   0  0  2  0  0  3  0  0  0  0  0  0
  187.5130  177.5140  141.1590 C   0  0  0  0  0  1  0  0  0  0  0  0
  188.1570  175.0900  140.9600 C   0  0  0  0  0  2  0  0  0  0  0  0
  188.2370  173.9440  141.9730 C   0  0  2  0  0  3  0  0  0  0  0  0
  188.9820  172.7050  141.4720 C   0  0  1  0  0  0  0  0  0  0  0  0
  187.4540  172.7550  141.4370 C   0  0  1  0  0  3  0  0  0  0  0  0
  186.8920  172.0510  142.5060 O   0  0  0  0  0  1  0  0  0  0  0  0
  191.1750  173.1520  140.2760 N   0  0  0  0  0  2  0  0  0  0  0  0
  189.5140  171.7860  139.1660 N   0  0  0  0  0  2  0  0  0  0  0  0
  189.7430  172.8680  140.1310 C   0  0  2  0  0  0  0  0  0  0  0  0
  190.6820  171.7900  140.0490 C   0  0  2  0  0  3  0  0  0  0  0  0
  189.6470  171.9540  142.6270 C   0  0  0  0  0  2  0  0  0  0  0  0
  190.4680  172.8240  143.3500 O   0  0  0  0  0  0  0  0  0  0  0  0
  191.2520  171.9950  144.1550 C   0  0  1  0  0  3  0  0  0  0  0  0
  194.8050  172.2350  144.1730 N   0  0  0  0  0  1  0  0  0  0  0  0
  193.1120  171.2620  142.8100 N   0  0  0  0  0  2  0  0  0  0  0  0
  193.5150  172.4560  143.5440 C   0  0  1  0  0  3  0  0  0  0  0  0
  191.8060  170.8630  143.3210 C   0  0  0  0  0  2  0  0  0  0  0  0
  192.4750  172.7480  144.6010 C   0  0  0  0  0  2  0  0  0  0  0  0
  189.4400  177.4670  145.7840 N   0  0  0  0  0  2  0  0  0  0  0  0
  188.6130  177.1370  146.9310 C   0  0  0  0  0  2  0  0  0  0  0  0
  186.9730  178.1870  145.3750 C   0  0  0  0  0  2  0  0  0  0  0  0
  185.6790  177.5130  145.1160 C   0  0  0  0  0  0  0  0  0  0  0  0
  186.1660  176.9300  147.3060 C   0  0  0  0  0  2  0  0  0  0  0  0
  187.2820  177.8560  146.8310 C   0  0  1  0  0  3  0  0  0  0  0  0
  185.2330  176.8310  146.1560 C   0  0  0  0  0  3  0  0  0  0  0  0
  184.1490  178.6020  143.5360 C   0  0  0  0  0  2  0  0  0  0  0  0
  184.9850  177.6100  143.8250 C   0  0  0  0  0  3  0  0  0  0  0  0
  1  6  1  1  0  0  0
  1  8  1  0  0  0  0
  2 12  2  0  0  0  0
  3 14  1  0  0  0  0
  4  8  1  6  0  0  0
  4 15  1  0  0  0  0
  5  1  1  0  0  0  0
  7 11  2  0  0  0  0
  7  4  1  0  0  0  0
  9  5  1  0  0  0  0
  9  7  1  0  0  0  0
 10 14  2  0  0  0  0
 10 11  1  0  0  0  0
 11  2  1  0  0  0  0
 13  2  1  0  0  0  0
 13 35  1  1  0  0  0
 14 13  1  0  0  0  0
 15 12  1  0  0  0  0
 16 17  1  1  0  0  0
 16  3  1  0  0  0  0
 18 16  1  0  0  0  0
 19 18  1  6  0  0  0
 20 19  1  0  0  0  0
 20 27  1  1  0  0  0
 21 20  1  0  0  0  0
 21 19  1  0  0  0  0
 21 22  1  1  0  0  0
 25 24  1  6  0  0  0
 25 23  1  0  0  0  0
 25 20  1  0  0  0  0
 26 24  1  6  0  0  0
 26 25  1  0  0  0  0
 26 23  1  0  0  0  0
 27 28  1  0  0  0  0
 29 28  1  6  0  0  0
 29 34  1  0  0  0  0
 31 33  1  0  0  0  0
 31 32  1  0  0  0  0
 32 30  1  1  0  0  0
 32 34  1  0  0  0  0
 33 29  1  0  0  0  0
 35 36  1  0  0  0  0
 37 40  1  0  0  0  0
 38 37  1  0  0  0  0
 38 41  2  0  0  0  0
 40 36  1  6  0  0  0
 40 39  1  0  0  0  0
 41 39  1  0  0  0  0
 42 43  2  0  0  0  0
 43 38  1  0  0  0  0
M  END
>  <MODEL>
2

>  <REMARK>
 VINA RESULT:      -7.1      2.568      5.885
  Name = 
  11 active torsions:
  status: ('A' for Active; 'I' for Inactive)
    1  A    between atoms: N_1  and  C_32
    2  A    between atoms: N_1  and  C_34
    3  A    between atoms: C_2  and  C_6
    4  A    between atoms: C_2  and  N_13
    5  A    between atoms: C_3  and  C_6
    6  A    between atoms: C_4  and  C_22
    7  A    between atoms: C_4  and  C_41
    8  A    between atoms: C_11  and  O_14
    9  A    between atoms: O_14  and  C_41
   10  A    between atoms: C_19  and  C_37
   11  A    between atoms: C_32  and  C_35
                            x       y       z     vdW  Elec       q    Type
                         _______ _______ _______ _____ _____    ______ ____

>  <TORSDO>
F 11

$$$$
=
 OpenBabel11052420453D

 43 50  0  0  1  0  0  0  0  0999 V2000
  195.1770  175.2820  145.3810 C   0  0  2  0  0  3  0  0  0  0  0  0
  190.1800  175.9850  146.1330 C   0  0  0  0  0  0  0  0  0  0  0  0
  187.9830  176.5920  143.2590 N   0  0  0  0  0  2  0  0  0  0  0  0
  193.0030  176.0380  146.4790 C   0  0  2  0  0  3  0  0  0  0  0  0
  194.5140  175.0290  144.0340 C   0  0  0  0  0  2  0  0  0  0  0  0
  196.3400  174.3270  145.5510 C   0  0  0  0  0  1  0  0  0  0  0  0
  192.3640  176.0530  145.1010 C   0  0  0  0  0  0  0  0  0  0  0  0
  194.1750  175.0530  146.5090 C   0  0  0  0  0  2  0  0  0  0  0  0
  193.3840  176.4020  143.6650 S   0  0  0  0  0  0  0  0  0  0  0  0
  190.2750  176.2030  143.8180 N   0  0  0  0  0  0  0  0  0  0  0  0
  191.0390  175.9820  144.9900 C   0  0  0  0  0  0  0  0  0  0  0  0
  190.6220  175.9330  147.3480 N   0  0  0  0  0  0  0  0  0  0  0  0
  188.7960  176.2670  145.6820 C   0  0  2  0  0  3  0  0  0  0  0  0
  189.0370  176.3480  144.1920 C   0  0  0  0  0  0  0  0  0  0  0  0
  192.0330  175.6270  147.6190 C   0  0  0  0  0  2  0  0  0  0  0  0
  188.2120  176.7160  141.8260 C   0  0  2  0  0  3  0  0  0  0  0  0
  187.2410  177.7120  141.2110 C   0  0  0  0  0  1  0  0  0  0  0  0
  188.1140  175.3540  141.1450 C   0  0  0  0  0  2  0  0  0  0  0  0
  189.2810  174.4290  141.5010 C   0  0  2  0  0  3  0  0  0  0  0  0
  189.5730  173.3470  140.4590 C   0  0  1  0  0  0  0  0  0  0  0  0
  188.7490  173.0180  141.7040 C   0  0  1  0  0  3  0  0  0  0  0  0
  189.5180  172.3680  142.6730 O   0  0  0  0  0  1  0  0  0  0  0  0
  189.6500  173.9830  138.0030 N   0  0  0  0  0  2  0  0  0  0  0  0
  188.0660  172.2940  138.7080 N   0  0  0  0  0  2  0  0  0  0  0  0
  188.8240  173.4850  139.1090 C   0  0  2  0  0  0  0  0  0  0  0  0
  189.4160  172.5490  138.2020 C   0  0  2  0  0  3  0  0  0  0  0  0
  191.0550  172.9630  140.4600 C   0  0  0  0  0  2  0  0  0  0  0  0
  191.8410  174.1010  140.6590 O   0  0  0  0  0  0  0  0  0  0  0  0
  193.1570  173.6650  140.4960 C   0  0  1  0  0  3  0  0  0  0  0  0
  195.2970  175.0820  138.0270 N   0  0  0  0  0  1  0  0  0  0  0  0
  193.5450  173.4720  138.1250 N   0  0  0  0  0  2  0  0  0  0  0  0
  193.9760  174.7970  138.5570 C   0  0  1  0  0  3  0  0  0  0  0  0
  193.2270  172.7100  139.3270 C   0  0  0  0  0  2  0  0  0  0  0  0
  194.0150  174.8240  140.0680 C   0  0  0  0  0  2  0  0  0  0  0  0
  188.3700  177.5660  146.1740 N   0  0  0  0  0  2  0  0  0  0  0  0
  187.1050  177.3620  146.8570 C   0  0  0  0  0  2  0  0  0  0  0  0
  186.0520  178.8930  145.1960 C   0  0  0  0  0  2  0  0  0  0  0  0
  184.5880  178.8340  144.9760 C   0  0  0  0  0  0  0  0  0  0  0  0
  184.8240  178.2770  147.2130 C   0  0  0  0  0  2  0  0  0  0  0  0
  186.2200  178.5790  146.6790 C   0  0  1  0  0  3  0  0  0  0  0  0
  183.9140  178.5030  146.0620 C   0  0  0  0  0  3  0  0  0  0  0  0
  183.8780  178.2060  142.7120 C   0  0  0  0  0  2  0  0  0  0  0  0
  183.9760  179.1210  143.6710 C   0  0  0  0  0  3  0  0  0  0  0  0
  1  6  1  1  0  0  0
  1  8  1  0  0  0  0
  2 12  2  0  0  0  0
  3 14  1  0  0  0  0
  4  8  1  6  0  0  0
  4 15  1  0  0  0  0
  5  1  1  0  0  0  0
  7  4  1  0  0  0  0
  9  5  1  0  0  0  0
  9  7  1  0  0  0  0
 10 14  2  0  0  0  0
 10 11  1  0  0  0  0
 11  7  2  0  0  0  0
 11  2  1  0  0  0  0
 12 15  1  0  0  0  0
 13  2  1  0  0  0  0
 13 35  1  1  0  0  0
 14 13  1  0  0  0  0
 16 17  1  6  0  0  0
 16  3  1  0  0  0  0
 18 16  1  0  0  0  0
 19 18  1  6  0  0  0
 19 21  1  0  0  0  0
 20 27  1  6  0  0  0
 20 19  1  0  0  0  0
 20 21  1  0  0  0  0
 21 22  1  1  0  0  0
 24 25  1  0  0  0  0
 25 23  1  6  0  0  0
 25 20  1  0  0  0  0
 26 23  1  6  0  0  0
 26 24  1  0  0  0  0
 26 25  1  0  0  0  0
 27 28  1  0  0  0  0
 29 28  1  6  0  0  0
 31 32  1  0  0  0  0
 31 33  1  0  0  0  0
 32 30  1  6  0  0  0
 32 34  1  0  0  0  0
 33 29  1  0  0  0  0
 34 29  1  0  0  0  0
 35 36  1  0  0  0  0
 37 40  1  0  0  0  0
 38 37  1  0  0  0  0
 38 41  2  0  0  0  0
 40 36  1  6  0  0  0
 40 39  1  0  0  0  0
 41 39  1  0  0  0  0
 42 43  2  0  0  0  0
 43 38  1  0  0  0  0
M  END
>  <MODEL>
3

>  <REMARK>
 VINA RESULT:      -7.0      2.511      5.757
  Name = 
  11 active torsions:
  status: ('A' for Active; 'I' for Inactive)
    1  A    between atoms: N_1  and  C_32
    2  A    between atoms: N_1  and  C_34
    3  A    between atoms: C_2  and  C_6
    4  A    between atoms: C_2  and  N_13
    5  A    between atoms: C_3  and  C_6
    6  A    between atoms: C_4  and  C_22
    7  A    between atoms: C_4  and  C_41
    8  A    between atoms: C_11  and  O_14
    9  A    between atoms: O_14  and  C_41
   10  A    between atoms: C_19  and  C_37
   11  A    between atoms: C_32  and  C_35
                            x       y       z     vdW  Elec       q    Type
                         _______ _______ _______ _____ _____    ______ ____

>  <TORSDO>
F 11

$$$$
=
 OpenBabel11052420453D

 43 50  0  0  1  0  0  0  0  0999 V2000
  193.5370  176.4480  145.5680 C   0  0  2  0  0  3  0  0  0  0  0  0
  188.6700  176.2290  144.0560 C   0  0  0  0  0  0  0  0  0  0  0  0
  187.8530  174.8000  140.7780 N   0  0  0  0  0  2  0  0  0  0  0  0
  191.0950  177.1100  145.2540 C   0  0  2  0  0  3  0  0  0  0  0  0
  193.4950  175.4150  144.4510 C   0  0  0  0  0  2  0  0  0  0  0  0
  194.5380  176.0070  146.6160 C   0  0  0  0  0  1  0  0  0  0  0  0
  191.0840  176.2910  143.9730 C   0  0  0  0  0  0  0  0  0  0  0  0
  192.1610  176.5780  146.2140 C   0  0  0  0  0  2  0  0  0  0  0  0
  192.6020  176.1150  143.0320 S   0  0  0  0  0  0  0  0  0  0  0  0
  189.7130  175.2910  142.2000 N   0  0  0  0  0  0  0  0  0  0  0  0
  189.9240  175.8640  143.4770 C   0  0  0  0  0  0  0  0  0  0  0  0
  188.5700  176.8910  145.1640 N   0  0  0  0  0  0  0  0  0  0  0  0
  187.5930  175.9160  143.0860 C   0  0  2  0  0  3  0  0  0  0  0  0
  188.4290  175.3040  141.9840 C   0  0  0  0  0  0  0  0  0  0  0  0
  189.7450  177.1010  146.0200 C   0  0  0  0  0  2  0  0  0  0  0  0
  188.6540  174.2490  139.6930 C   0  0  2  0  0  3  0  0  0  0  0  0
  187.9910  174.5140  138.3500 C   0  0  0  0  0  1  0  0  0  0  0  0
  188.8980  172.7580  139.9070 C   0  0  0  0  0  2  0  0  0  0  0  0
  190.3860  172.4030  139.9570 C   0  0  2  0  0  3  0  0  0  0  0  0
  190.8020  171.2760  139.0080 C   0  0  1  0  0  0  0  0  0  0  0  0
  190.5390  170.9850  140.4860 C   0  0  1  0  0  3  0  0  0  0  0  0
  191.7290  170.8870  141.2100 O   0  0  0  0  0  1  0  0  0  0  0  0
  189.7520  171.5760  136.7180 N   0  0  0  0  0  2  0  0  0  0  0  0
  189.6940  169.3810  137.7350 N   0  0  0  0  0  2  0  0  0  0  0  0
  189.7330  170.8280  137.9790 C   0  0  2  0  0  0  0  0  0  0  0  0
  190.4360  170.2860  136.8540 C   0  0  2  0  0  3  0  0  0  0  0  0
  192.2560  171.4390  138.5590 C   0  0  0  0  0  2  0  0  0  0  0  0
  192.5110  172.7780  138.2500 O   0  0  0  0  0  0  0  0  0  0  0  0
  193.8910  172.9270  138.4000 C   0  0  1  0  0  3  0  0  0  0  0  0
  195.2840  175.6280  140.2550 N   0  0  0  0  0  1  0  0  0  0  0  0
  194.3870  175.2630  138.0800 N   0  0  0  0  0  2  0  0  0  0  0  0
  194.1980  175.0220  139.5060 C   0  0  1  0  0  3  0  0  0  0  0  0
  194.3940  173.9620  137.4210 C   0  0  0  0  0  2  0  0  0  0  0  0
  194.1830  173.5300  139.7460 C   0  0  0  0  0  2  0  0  0  0  0  0
  186.9860  177.1460  142.6060 N   0  0  0  0  0  2  0  0  0  0  0  0
  185.5500  176.9280  142.5930 C   0  0  0  0  0  2  0  0  0  0  0  0
  184.8310  177.6670  144.8630 C   0  0  0  0  0  2  0  0  0  0  0  0
  185.5320  178.7960  145.5170 C   0  0  0  0  0  0  0  0  0  0  0  0
  185.6520  179.3170  143.2620 C   0  0  0  0  0  2  0  0  0  0  0  0
  184.8560  178.0220  143.3800 C   0  0  1  0  0  3  0  0  0  0  0  0
  185.9790  179.6960  144.6590 C   0  0  0  0  0  3  0  0  0  0  0  0
  186.1820  177.8770  147.6980 C   0  0  0  0  0  2  0  0  0  0  0  0
  185.6980  178.8810  146.9750 C   0  0  0  0  0  3  0  0  0  0  0  0
  1  8  1  0  0  0  0
  1  6  1  1  0  0  0
  2 12  2  0  0  0  0
  3 14  1  0  0  0  0
  4 15  1  1  0  0  0
  4  8  1  0  0  0  0
  5  1  1  0  0  0  0
  7  4  1  0  0  0  0
  9  7  1  0  0  0  0
  9  5  1  0  0  0  0
 10 11  1  0  0  0  0
 11  7  2  0  0  0  0
 11  2  1  0  0  0  0
 12 15  1  0  0  0  0
 13 35  1  6  0  0  0
 13  2  1  0  0  0  0
 14 10  2  0  0  0  0
 14 13  1  0  0  0  0
 16 17  1  6  0  0  0
 16 18  1  0  0  0  0
 16  3  1  0  0  0  0
 19 18  1  6  0  0  0
 19 21  1  0  0  0  0
 20 27  1  6  0  0  0
 20 19  1  0  0  0  0
 20 21  1  0  0  0  0
 21 22  1  1  0  0  0
 24 25  1  0  0  0  0
 25 23  1  6  0  0  0
 25 20  1  0  0  0  0
 26 23  1  6  0  0  0
 26 24  1  0  0  0  0
 26 25  1  0  0  0  0
 28 27  1  0  0  0  0
 29 28  1  6  0  0  0
 29 34  1  0  0  0  0
 31 32  1  0  0  0  0
 32 34  1  0  0  0  0
 32 30  1  1  0  0  0
 33 31  1  0  0  0  0
 33 29  1  0  0  0  0
 36 35  1  0  0  0  0
 37 38  1  0  0  0  0
 38 43  1  0  0  0  0
 39 40  1  0  0  0  0
 39 41  1  0  0  0  0
 40 36  1  6  0  0  0
 40 37  1  0  0  0  0
 41 38  2  0  0  0  0
 43 42  2  0  0  0  0
M  END
>  <MODEL>
4

>  <REMARK>
 VINA RESULT:      -6.9      2.579      5.800
  Name = 
  11 active torsions:
  status: ('A' for Active; 'I' for Inactive)
    1  A    between atoms: N_1  and  C_32
    2  A    between atoms: N_1  and  C_34
    3  A    between atoms: C_2  and  C_6
    4  A    between atoms: C_2  and  N_13
    5  A    between atoms: C_3  and  C_6
    6  A    between atoms: C_4  and  C_22
    7  A    between atoms: C_4  and  C_41
    8  A    between atoms: C_11  and  O_14
    9  A    between atoms: O_14  and  C_41
   10  A    between atoms: C_19  and  C_37
   11  A    between atoms: C_32  and  C_35
                            x       y       z     vdW  Elec       q    Type
                         _______ _______ _______ _____ _____    ______ ____

>  <TORSDO>
F 11

$$$$
=
 OpenBabel11052420453D

 43 50  0  0  1  0  0  0  0  0999 V2000
  189.6050  171.6500  136.9140 C   0  0  2  0  0  3  0  0  0  0  0  0
  189.1770  174.7810  140.9190 C   0  0  0  0  0  0  0  0  0  0  0  0
  191.3460  174.2980  143.8370 N   0  0  0  0  0  2  0  0  0  0  0  0
  188.5390  173.1620  138.6690 C   0  0  2  0  0  3  0  0  0  0  0  0
  190.9000  171.5000  137.6990 C   0  0  0  0  0  2  0  0  0  0  0  0
  189.9060  171.5550  135.4320 C   0  0  0  0  0  1  0  0  0  0  0  0
  189.6960  172.8270  139.5960 C   0  0  0  0  0  0  0  0  0  0  0  0
  188.9670  173.0050  137.2080 C   0  0  0  0  0  2  0  0  0  0  0  0
  190.5020  171.2300  139.4500 S   0  0  0  0  0  0  0  0  0  0  0  0
  190.8670  173.3760  141.6830 N   0  0  0  0  0  0  0  0  0  0  0  0
  189.9830  173.6420  140.6090 C   0  0  0  0  0  0  0  0  0  0  0  0
  188.1940  175.1740  140.1730 N   0  0  0  0  0  0  0  0  0  0  0  0
  189.5280  175.2520  142.2800 C   0  0  2  0  0  3  0  0  0  0  0  0
  190.6310  174.2680  142.6010 C   0  0  0  0  0  0  0  0  0  0  0  0
  187.9970  174.6070  138.8330 C   0  0  0  0  0  2  0  0  0  0  0  0
  192.3800  173.3270  144.1730 C   0  0  2  0  0  3  0  0  0  0  0  0
  191.7580  171.9900  144.5470 C   0  0  0  0  0  1  0  0  0  0  0  0
  193.2720  173.8560  145.2910 C   0  0  0  0  0  2  0  0  0  0  0  0
  194.0130  175.1380  144.9010 C   0  0  2  0  0  3  0  0  0  0  0  0
  195.5320  175.0720  145.0790 C   0  0  1  0  0  0  0  0  0  0  0  0
  194.6570  175.7350  146.1440 C   0  0  1  0  0  3  0  0  0  0  0  0
  194.6770  177.1270  146.0320 O   0  0  0  0  0  1  0  0  0  0  0  0
  196.7160  172.9930  144.2360 N   0  0  0  0  0  2  0  0  0  0  0  0
  197.0160  173.6320  146.5510 N   0  0  0  0  0  2  0  0  0  0  0  0
  196.1180  173.6720  145.3900 C   0  0  2  0  0  0  0  0  0  0  0  0
  197.5330  173.7540  145.1870 C   0  0  2  0  0  3  0  0  0  0  0  0
  196.2460  175.9790  144.0750 C   0  0  0  0  0  2  0  0  0  0  0  0
  195.6870  175.8160  142.8040 O   0  0  0  0  0  0  0  0  0  0  0  0
  196.6360  176.3370  141.9220 C   0  0  1  0  0  3  0  0  0  0  0  0
  197.3630  174.7490  138.8190 N   0  0  0  0  0  1  0  0  0  0  0  0
  197.9390  174.4780  141.1130 N   0  0  0  0  0  2  0  0  0  0  0  0
  196.8480  174.7200  140.1760 C   0  0  1  0  0  3  0  0  0  0  0  0
  197.9330  175.5760  142.0730 C   0  0  0  0  0  2  0  0  0  0  0  0
  196.2100  176.0490  140.5090 C   0  0  0  0  0  2  0  0  0  0  0  0
  188.4090  175.0350  143.1820 N   0  0  0  0  0  2  0  0  0  0  0  0
  187.6900  176.2930  143.2670 C   0  0  0  0  0  2  0  0  0  0  0  0
  188.1050  175.9540  145.7020 C   0  0  0  0  0  2  0  0  0  0  0  0
  189.4750  176.1300  146.2390 C   0  0  0  0  0  0  0  0  0  0  0  0
  189.3800  177.6440  144.4860 C   0  0  0  0  0  2  0  0  0  0  0  0
  188.0090  176.9820  144.5790 C   0  0  1  0  0  3  0  0  0  0  0  0
  190.1720  177.0440  145.5880 C   0  0  0  0  0  3  0  0  0  0  0  0
  191.2320  175.4490  147.8110 C   0  0  0  0  0  2  0  0  0  0  0  0
  189.9790  175.3530  147.3800 C   0  0  0  0  0  3  0  0  0  0  0  0
  1  6  1  6  0  0  0
  1  8  1  0  0  0  0
  1  5  1  0  0  0  0
  2 13  1  0  0  0  0
  3 16  1  0  0  0  0
  4  8  1  6  0  0  0
  4 15  1  0  0  0  0
  4  7  1  0  0  0  0
  5  9  1  0  0  0  0
  7 11  2  0  0  0  0
  9  7  1  0  0  0  0
 10 14  2  0  0  0  0
 11  2  1  0  0  0  0
 11 10  1  0  0  0  0
 12  2  2  0  0  0  0
 13 14  1  0  0  0  0
 13 35  1  1  0  0  0
 14  3  1  0  0  0  0
 15 12  1  0  0  0  0
 16 17  1  1  0  0  0
 16 18  1  0  0  0  0
 19 20  1  0  0  0  0
 19 18  1  1  0  0  0
 19 21  1  0  0  0  0
 20 27  1  6  0  0  0
 20 25  1  0  0  0  0
 20 21  1  0  0  0  0
 21 22  1  6  0  0  0
 25 23  1  6  0  0  0
 25 24  1  0  0  0  0
 26 23  1  6  0  0  0
 26 25  1  0  0  0  0
 26 24  1  0  0  0  0
 28 27  1  0  0  0  0
 29 33  1  0  0  0  0
 29 28  1  1  0  0  0
 31 33  1  0  0  0  0
 32 30  1  6  0  0  0
 32 34  1  0  0  0  0
 32 31  1  0  0  0  0
 34 29  1  0  0  0  0
 35 36  1  0  0  0  0
 37 38  1  0  0  0  0
 38 43  1  0  0  0  0
 39 40  1  0  0  0  0
 39 41  1  0  0  0  0
 40 36  1  6  0  0  0
 40 37  1  0  0  0  0
 41 38  2  0  0  0  0
 43 42  2  0  0  0  0
M  END
>  <MODEL>
5

>  <REMARK>
 VINA RESULT:      -6.7      1.895      2.758
  Name = 
  11 active torsions:
  status: ('A' for Active; 'I' for Inactive)
    1  A    between atoms: N_1  and  C_32
    2  A    between atoms: N_1  and  C_34
    3  A    between atoms: C_2  and  C_6
    4  A    between atoms: C_2  and  N_13
    5  A    between atoms: C_3  and  C_6
    6  A    between atoms: C_4  and  C_22
    7  A    between atoms: C_4  and  C_41
    8  A    between atoms: C_11  and  O_14
    9  A    between atoms: O_14  and  C_41
   10  A    between atoms: C_19  and  C_37
   11  A    between atoms: C_32  and  C_35
                            x       y       z     vdW  Elec       q    Type
                         _______ _______ _______ _____ _____    ______ ____

>  <TORSDO>
F 11

$$$$
=
 OpenBabel11052420453D

 43 50  0  0  1  0  0  0  0  0999 V2000
  190.1890  170.4090  138.7270 C   0  0  2  0  0  3  0  0  0  0  0  0
  188.5390  174.8850  140.5330 C   0  0  0  0  0  0  0  0  0  0  0  0
  189.4530  175.9160  143.9320 N   0  0  0  0  0  2  0  0  0  0  0  0
  188.6590  172.4060  139.1440 C   0  0  2  0  0  3  0  0  0  0  0  0
  191.0950  170.7410  139.9040 C   0  0  0  0  0  2  0  0  0  0  0  0
  191.0040  169.7230  137.6490 C   0  0  0  0  0  1  0  0  0  0  0  0
  189.3720  172.6180  140.4690 C   0  0  0  0  0  0  0  0  0  0  0  0
  189.5810  171.6860  138.1560 C   0  0  0  0  0  2  0  0  0  0  0  0
  190.0670  171.2030  141.3280 S   0  0  0  0  0  0  0  0  0  0  0  0
  189.7340  174.1210  142.3780 N   0  0  0  0  0  0  0  0  0  0  0  0
  189.3230  173.8120  141.0580 C   0  0  0  0  0  0  0  0  0  0  0  0
  187.9250  174.8200  139.3950 N   0  0  0  0  0  0  0  0  0  0  0  0
  188.3980  175.9240  141.5820 C   0  0  2  0  0  3  0  0  0  0  0  0
  189.2380  175.2890  142.6670 C   0  0  0  0  0  0  0  0  0  0  0  0
  188.1930  173.7190  138.4610 C   0  0  0  0  0  2  0  0  0  0  0  0
  190.2240  175.2920  145.0000 C   0  0  2  0  0  3  0  0  0  0  0  0
  189.6920  175.7110  146.3610 C   0  0  0  0  0  1  0  0  0  0  0  0
  191.7070  175.6250  144.8580 C   0  0  0  0  0  2  0  0  0  0  0  0
  192.4560  174.6240  143.9750 C   0  0  2  0  0  3  0  0  0  0  0  0
  193.9630  174.8720  143.8730 C   0  0  1  0  0  0  0  0  0  0  0  0
  193.0230  175.3560  142.7680 C   0  0  1  0  0  3  0  0  0  0  0  0
  193.0360  174.4940  141.6690 O   0  0  0  0  0  1  0  0  0  0  0  0
  194.9620  175.3950  146.1460 N   0  0  0  0  0  2  0  0  0  0  0  0
  195.5860  176.7840  144.2650 N   0  0  0  0  0  2  0  0  0  0  0  0
  194.5430  175.9300  144.8460 C   0  0  2  0  0  0  0  0  0  0  0  0
  195.9210  175.5970  145.0540 C   0  0  2  0  0  3  0  0  0  0  0  0
  194.7250  173.5650  143.6420 C   0  0  0  0  0  2  0  0  0  0  0  0
  194.1520  172.5400  144.4000 O   0  0  0  0  0  0  0  0  0  0  0  0
  194.6140  171.3580  143.8170 C   0  0  1  0  0  3  0  0  0  0  0  0
  192.4240  168.6340  143.1370 N   0  0  0  0  0  1  0  0  0  0  0  0
  193.5850  169.5350  145.0110 N   0  0  0  0  0  2  0  0  0  0  0  0
  192.7590  169.8530  143.8510 C   0  0  1  0  0  3  0  0  0  0  0  0
  194.8120  170.3140  144.8910 C   0  0  0  0  0  2  0  0  0  0  0  0
  193.5360  170.7800  142.9440 C   0  0  0  0  0  2  0  0  0  0  0  0
  187.0150  175.9980  142.0230 N   0  0  0  0  0  2  0  0  0  0  0  0
  186.6760  177.4080  142.1020 C   0  0  0  0  0  2  0  0  0  0  0  0
  185.9410  176.7970  144.4040 C   0  0  0  0  0  2  0  0  0  0  0  0
  186.0440  177.7980  145.4920 C   0  0  0  0  0  0  0  0  0  0  0  0
  185.6310  179.0840  143.6080 C   0  0  0  0  0  2  0  0  0  0  0  0
  185.6170  177.6240  143.1650 C   0  0  1  0  0  3  0  0  0  0  0  0
  185.8760  179.0390  145.0710 C   0  0  0  0  0  3  0  0  0  0  0  0
  186.6660  178.3050  147.8110 C   0  0  0  0  0  2  0  0  0  0  0  0
  186.3070  177.4200  146.8870 C   0  0  0  0  0  3  0  0  0  0  0  0
  1  6  1  6  0  0  0
  1  5  1  0  0  0  0
  2 11  1  0  0  0  0
  2 13  1  0  0  0  0
  3 16  1  0  0  0  0
  4  8  1  6  0  0  0
  4  7  1  0  0  0  0
  5  9  1  0  0  0  0
  7 11  2  0  0  0  0
  7  9  1  0  0  0  0
  8  1  1  0  0  0  0
 10 14  2  0  0  0  0
 11 10  1  0  0  0  0
 12  2  2  0  0  0  0
 13 35  1  1  0  0  0
 13 14  1  0  0  0  0
 14  3  1  0  0  0  0
 15  4  1  0  0  0  0
 15 12  1  0  0  0  0
 16 17  1  1  0  0  0
 18 16  1  0  0  0  0
 19 18  1  1  0  0  0
 20 27  1  6  0  0  0
 20 19  1  0  0  0  0
 20 25  1  0  0  0  0
 21 22  1  6  0  0  0
 21 20  1  0  0  0  0
 21 19  1  0  0  0  0
 25 24  1  6  0  0  0
 25 26  1  0  0  0  0
 25 23  1  0  0  0  0
 26 24  1  1  0  0  0
 26 23  1  0  0  0  0
 27 28  1  0  0  0  0
 29 28  1  1  0  0  0
 29 33  1  0  0  0  0
 32 30  1  6  0  0  0
 32 31  1  0  0  0  0
 33 31  1  0  0  0  0
 34 29  1  0  0  0  0
 34 32  1  0  0  0  0
 35 36  1  0  0  0  0
 37 38  1  0  0  0  0
 38 43  1  0  0  0  0
 39 41  1  0  0  0  0
 40 36  1  6  0  0  0
 40 39  1  0  0  0  0
 40 37  1  0  0  0  0
 41 38  2  0  0  0  0
 43 42  2  0  0  0  0
M  END
>  <MODEL>
6

>  <REMARK>
 VINA RESULT:      -6.6      1.901      3.028
  Name = 
  11 active torsions:
  status: ('A' for Active; 'I' for Inactive)
    1  A    between atoms: N_1  and  C_32
    2  A    between atoms: N_1  and  C_34
    3  A    between atoms: C_2  and  C_6
    4  A    between atoms: C_2  and  N_13
    5  A    between atoms: C_3  and  C_6
    6  A    between atoms: C_4  and  C_22
    7  A    between atoms: C_4  and  C_41
    8  A    between atoms: C_11  and  O_14
    9  A    between atoms: O_14  and  C_41
   10  A    between atoms: C_19  and  C_37
   11  A    between atoms: C_32  and  C_35
                            x       y       z     vdW  Elec       q    Type
                         _______ _______ _______ _____ _____    ______ ____

>  <TORSDO>
F 11

$$$$
=
 OpenBabel11052420453D

 43 50  0  0  1  0  0  0  0  0999 V2000
  191.6210  176.8250  148.4290 C   0  0  2  0  0  3  0  0  0  0  0  0
  192.7710  175.6960  143.5890 C   0  0  0  0  0  0  0  0  0  0  0  0
  190.1680  174.3710  141.3690 N   0  0  0  0  0  2  0  0  0  0  0  0
  192.9540  176.0220  146.4080 C   0  0  2  0  0  3  0  0  0  0  0  0
  190.2930  176.7710  147.6880 C   0  0  0  0  0  2  0  0  0  0  0  0
  191.5650  177.9200  149.4740 C   0  0  0  0  0  1  0  0  0  0  0  0
  191.6360  175.7040  145.7220 C   0  0  0  0  0  0  0  0  0  0  0  0
  192.7550  177.1240  147.4520 C   0  0  0  0  0  2  0  0  0  0  0  0
  190.2180  175.2370  146.7190 S   0  0  0  0  0  0  0  0  0  0  0  0
  190.5200  175.1050  143.6180 N   0  0  0  0  0  0  0  0  0  0  0  0
  191.5940  175.6050  144.3940 C   0  0  0  0  0  0  0  0  0  0  0  0
  193.9340  176.0000  144.0690 N   0  0  0  0  0  0  0  0  0  0  0  0
  192.4540  175.1880  142.2320 C   0  0  2  0  0  3  0  0  0  0  0  0
  190.9850  174.8860  142.4220 C   0  0  0  0  0  0  0  0  0  0  0  0
  194.0680  176.5050  145.4420 C   0  0  0  0  0  2  0  0  0  0  0  0
  188.7630  174.0350  141.5550 C   0  0  2  0  0  3  0  0  0  0  0  0
  188.3720  172.8570  140.6770 C   0  0  0  0  0  1  0  0  0  0  0  0
  187.8790  175.2490  141.2800 C   0  0  0  0  0  2  0  0  0  0  0  0
  187.9720  176.3100  142.3790 C   0  0  2  0  0  3  0  0  0  0  0  0
  186.9710  177.4600  142.2370 C   0  0  1  0  0  0  0  0  0  0  0  0
  188.4140  177.6270  141.7590 C   0  0  1  0  0  3  0  0  0  0  0  0
  189.1830  178.3390  142.6840 O   0  0  0  0  0  1  0  0  0  0  0  0
  184.5130  177.5900  141.6220 N   0  0  0  0  0  2  0  0  0  0  0  0
  186.1580  177.9140  139.8760 N   0  0  0  0  0  2  0  0  0  0  0  0
  185.8700  177.2710  141.1630 C   0  0  2  0  0  0  0  0  0  0  0  0
  185.3250  178.5670  140.8890 C   0  0  2  0  0  3  0  0  0  0  0  0
  186.5980  178.0410  143.6020 C   0  0  0  0  0  2  0  0  0  0  0  0
  186.0470  177.0420  144.4100 O   0  0  0  0  0  0  0  0  0  0  0  0
  185.2730  177.7240  145.3510 C   0  0  1  0  0  3  0  0  0  0  0  0
  186.7120  179.1030  148.3020 N   0  0  0  0  0  1  0  0  0  0  0  0
  185.9850  176.9720  147.5270 N   0  0  0  0  0  2  0  0  0  0  0  0
  186.7360  178.1750  147.1850 C   0  0  1  0  0  3  0  0  0  0  0  0
  184.9580  176.8020  146.5050 C   0  0  0  0  0  2  0  0  0  0  0  0
  186.0970  178.8170  145.9750 C   0  0  0  0  0  2  0  0  0  0  0  0
  193.1750  173.9490  141.9870 N   0  0  0  0  0  2  0  0  0  0  0  0
  192.3940  172.8850  142.5930 C   0  0  0  0  0  2  0  0  0  0  0  0
  194.7490  172.4390  143.2790 C   0  0  0  0  0  2  0  0  0  0  0  0
  195.1680  172.7210  144.6720 C   0  0  0  0  0  0  0  0  0  0  0  0
  192.9430  172.1100  144.8880 C   0  0  0  0  0  2  0  0  0  0  0  0
  193.3000  171.9840  143.4110 C   0  0  1  0  0  3  0  0  0  0  0  0
  194.1980  172.5450  145.5510 C   0  0  0  0  0  3  0  0  0  0  0  0
  196.8160  173.8000  146.1370 C   0  0  0  0  0  2  0  0  0  0  0  0
  196.5320  173.1520  145.0120 C   0  0  0  0  0  3  0  0  0  0  0  0
  1  6  1  1  0  0  0
  2 12  2  0  0  0  0
  2 11  1  0  0  0  0
  3 16  1  0  0  0  0
  3 14  1  0  0  0  0
  4 15  1  6  0  0  0
  4  8  1  0  0  0  0
  5  1  1  0  0  0  0
  7  4  1  0  0  0  0
  7  9  1  0  0  0  0
  8  1  1  0  0  0  0
  9  5  1  0  0  0  0
 10 11  1  0  0  0  0
 11  7  2  0  0  0  0
 12 15  1  0  0  0  0
 13 35  1  1  0  0  0
 13 14  1  0  0  0  0
 13  2  1  0  0  0  0
 14 10  2  0  0  0  0
 16 17  1  6  0  0  0
 18 16  1  0  0  0  0
 19 18  1  6  0  0  0
 20 19  1  0  0  0  0
 20 27  1  1  0  0  0
 21 20  1  0  0  0  0
 21 19  1  0  0  0  0
 21 22  1  1  0  0  0
 25 24  1  6  0  0  0
 25 23  1  0  0  0  0
 25 20  1  0  0  0  0
 26 24  1  6  0  0  0
 26 25  1  0  0  0  0
 26 23  1  0  0  0  0
 27 28  1  0  0  0  0
 29 28  1  6  0  0  0
 29 34  1  0  0  0  0
 29 33  1  0  0  0  0
 32 31  1  0  0  0  0
 32 30  1  1  0  0  0
 33 31  1  0  0  0  0
 34 32  1  0  0  0  0
 35 36  1  0  0  0  0
 37 40  1  0  0  0  0
 37 38  1  0  0  0  0
 38 43  1  0  0  0  0
 38 41  2  0  0  0  0
 39 41  1  0  0  0  0
 40 36  1  6  0  0  0
 40 39  1  0  0  0  0
 43 42  2  0  0  0  0
M  END
>  <MODEL>
7

>  <REMARK>
 VINA RESULT:      -6.5      2.762      8.892
  Name = 
  11 active torsions:
  status: ('A' for Active; 'I' for Inactive)
    1  A    between atoms: N_1  and  C_32
    2  A    between atoms: N_1  and  C_34
    3  A    between atoms: C_2  and  C_6
    4  A    between atoms: C_2  and  N_13
    5  A    between atoms: C_3  and  C_6
    6  A    between atoms: C_4  and  C_22
    7  A    between atoms: C_4  and  C_41
    8  A    between atoms: C_11  and  O_14
    9  A    between atoms: O_14  and  C_41
   10  A    between atoms: C_19  and  C_37
   11  A    between atoms: C_32  and  C_35
                            x       y       z     vdW  Elec       q    Type
                         _______ _______ _______ _____ _____    ______ ____

>  <TORSDO>
F 11

$$$$
=
 OpenBabel11052420453D

 43 50  0  0  1  0  0  0  0  0999 V2000
  190.5180  172.0860  136.8570 C   0  0  2  0  0  3  0  0  0  0  0  0
  194.1610  172.5960  140.3900 C   0  0  0  0  0  0  0  0  0  0  0  0
  193.2300  172.8680  143.9280 N   0  0  0  0  0  2  0  0  0  0  0  0
  192.6970  172.8150  137.9620 C   0  0  2  0  0  3  0  0  0  0  0  0
  189.8720  171.6970  138.1790 C   0  0  0  0  0  2  0  0  0  0  0  0
  189.9650  171.2070  135.7540 C   0  0  0  0  0  1  0  0  0  0  0  0
  192.0030  172.6920  139.3090 C   0  0  0  0  0  0  0  0  0  0  0  0
  192.0300  171.8960  136.9360 C   0  0  0  0  0  2  0  0  0  0  0  0
  190.2340  172.9790  139.4130 S   0  0  0  0  0  0  0  0  0  0  0  0
  192.2720  172.6380  141.7490 N   0  0  0  0  0  0  0  0  0  0  0  0
  192.7330  172.5460  140.4130 C   0  0  0  0  0  0  0  0  0  0  0  0
  194.8490  172.6600  139.2950 N   0  0  0  0  0  0  0  0  0  0  0  0
  194.6490  172.7720  141.7800 C   0  0  2  0  0  3  0  0  0  0  0  0
  193.3240  172.7490  142.5070 C   0  0  0  0  0  0  0  0  0  0  0  0
  194.2040  172.4470  137.9930 C   0  0  0  0  0  2  0  0  0  0  0  0
  191.9560  172.8910  144.6340 C   0  0  2  0  0  3  0  0  0  0  0  0
  191.1280  171.6630  144.2880 C   0  0  0  0  0  1  0  0  0  0  0  0
  191.1940  174.1780  144.3270 C   0  0  0  0  0  2  0  0  0  0  0  0
  190.0610  174.4460  145.3210 C   0  0  2  0  0  3  0  0  0  0  0  0
  189.5700  175.8950  145.3480 C   0  0  1  0  0  0  0  0  0  0  0  0
  190.5620  175.3950  146.3990 C   0  0  1  0  0  3  0  0  0  0  0  0
  189.9250  175.1000  147.6070 O   0  0  0  0  0  1  0  0  0  0  0  0
  189.3540  176.7450  142.9670 N   0  0  0  0  0  2  0  0  0  0  0  0
  190.3330  178.2070  144.6280 N   0  0  0  0  0  2  0  0  0  0  0  0
  190.1100  176.8140  144.2220 C   0  0  2  0  0  0  0  0  0  0  0  0
  189.0980  177.7930  143.9590 C   0  0  2  0  0  3  0  0  0  0  0  0
  188.0930  175.9730  145.7380 C   0  0  0  0  0  2  0  0  0  0  0  0
  187.9090  176.9580  146.7130 O   0  0  0  0  0  0  0  0  0  0  0  0
  186.5600  176.8740  147.0620 C   0  0  1  0  0  3  0  0  0  0  0  0
  184.0750  178.7860  145.3750 N   0  0  0  0  0  1  0  0  0  0  0  0
  185.6970  179.1240  147.0850 N   0  0  0  0  0  2  0  0  0  0  0  0
  185.4520  178.5480  145.7670 C   0  0  1  0  0  3  0  0  0  0  0  0
  186.1940  178.0510  147.9370 C   0  0  0  0  0  2  0  0  0  0  0  0
  185.7160  177.0610  145.8320 C   0  0  0  0  0  2  0  0  0  0  0  0
  195.2590  174.0830  141.9270 N   0  0  0  0  0  2  0  0  0  0  0  0
  196.5650  173.8730  142.5270 C   0  0  0  0  0  2  0  0  0  0  0  0
  195.6240  175.8560  143.7080 C   0  0  0  0  0  2  0  0  0  0  0  0
  195.0710  175.6970  145.0730 C   0  0  0  0  0  0  0  0  0  0  0  0
  196.7710  174.1240  144.9890 C   0  0  0  0  0  2  0  0  0  0  0  0
  196.7800  174.8620  143.6550 C   0  0  1  0  0  3  0  0  0  0  0  0
  195.6860  174.7620  145.7750 C   0  0  0  0  0  3  0  0  0  0  0  0
  193.8680  176.9160  146.8310 C   0  0  0  0  0  2  0  0  0  0  0  0
  193.9520  176.5090  145.5690 C   0  0  0  0  0  3  0  0  0  0  0  0
  1  6  1  6  0  0  0
  1  8  1  0  0  0  0
  1  5  1  0  0  0  0
  2 11  1  0  0  0  0
  2 13  1  0  0  0  0
  3 16  1  0  0  0  0
  4  8  1  6  0  0  0
  4 15  1  0  0  0  0
  4  7  1  0  0  0  0
  5  9  1  0  0  0  0
  7  9  1  0  0  0  0
  7 11  2  0  0  0  0
 10 14  2  0  0  0  0
 11 10  1  0  0  0  0
 12  2  2  0  0  0  0
 13 35  1  6  0  0  0
 13 14  1  0  0  0  0
 14  3  1  0  0  0  0
 15 12  1  0  0  0  0
 16 17  1  6  0  0  0
 18 16  1  0  0  0  0
 19 18  1  6  0  0  0
 19 20  1  0  0  0  0
 19 21  1  0  0  0  0
 20 27  1  1  0  0  0
 20 21  1  0  0  0  0
 21 22  1  1  0  0  0
 25 23  1  6  0  0  0
 25 24  1  0  0  0  0
 25 20  1  0  0  0  0
 26 23  1  6  0  0  0
 26 25  1  0  0  0  0
 26 24  1  0  0  0  0
 27 28  1  0  0  0  0
 29 28  1  6  0  0  0
 29 33  1  0  0  0  0
 31 33  1  0  0  0  0
 32 30  1  1  0  0  0
 32 34  1  0  0  0  0
 32 31  1  0  0  0  0
 34 29  1  0  0  0  0
 35 36  1  0  0  0  0
 37 38  1  0  0  0  0
 38 43  1  0  0  0  0
 38 41  2  0  0  0  0
 39 41  1  0  0  0  0
 40 36  1  6  0  0  0
 40 37  1  0  0  0  0
 40 39  1  0  0  0  0
 43 42  2  0  0  0  0
M  END
>  <MODEL>
8

>  <REMARK>
 VINA RESULT:      -6.5      2.690      7.468
  Name = 
  11 active torsions:
  status: ('A' for Active; 'I' for Inactive)
    1  A    between atoms: N_1  and  C_32
    2  A    between atoms: N_1  and  C_34
    3  A    between atoms: C_2  and  C_6
    4  A    between atoms: C_2  and  N_13
    5  A    between atoms: C_3  and  C_6
    6  A    between atoms: C_4  and  C_22
    7  A    between atoms: C_4  and  C_41
    8  A    between atoms: C_11  and  O_14
    9  A    between atoms: O_14  and  C_41
   10  A    between atoms: C_19  and  C_37
   11  A    between atoms: C_32  and  C_35
                            x       y       z     vdW  Elec       q    Type
                         _______ _______ _______ _____ _____    ______ ____

>  <TORSDO>
F 11

$$$$
=
 OpenBabel11052420453D

 43 50  0  0  1  0  0  0  0  0999 V2000
  189.6640  171.5270  136.1540 C   0  0  2  0  0  3  0  0  0  0  0  0
  190.0040  173.8740  140.6700 C   0  0  0  0  0  0  0  0  0  0  0  0
  192.6270  172.8830  143.0350 N   0  0  0  0  0  2  0  0  0  0  0  0
  188.9510  172.6870  138.3100 C   0  0  2  0  0  3  0  0  0  0  0  0
  191.0700  171.2450  136.6630 C   0  0  0  0  0  2  0  0  0  0  0  0
  189.7050  171.7050  134.6500 C   0  0  0  0  0  1  0  0  0  0  0  0
  190.2400  172.1970  138.9470 C   0  0  0  0  0  0  0  0  0  0  0  0
  189.1190  172.8010  136.7930 C   0  0  0  0  0  2  0  0  0  0  0  0
  190.9700  170.6580  138.3800 S   0  0  0  0  0  0  0  0  0  0  0  0
  191.7640  172.3650  140.8650 N   0  0  0  0  0  0  0  0  0  0  0  0
  190.7160  172.8150  140.0260 C   0  0  0  0  0  0  0  0  0  0  0  0
  188.9180  174.3900  140.1890 N   0  0  0  0  0  0  0  0  0  0  0  0
  190.5940  174.0920  142.0130 C   0  0  2  0  0  3  0  0  0  0  0  0
  191.7100  173.0730  141.9560 C   0  0  0  0  0  0  0  0  0  0  0  0
  188.4810  174.0740  138.8220 C   0  0  0  0  0  2  0  0  0  0  0  0
  193.6770  171.8740  143.0070 C   0  0  2  0  0  3  0  0  0  0  0  0
  193.7310  171.1190  144.3260 C   0  0  0  0  0  1  0  0  0  0  0  0
  195.0250  172.5090  142.6760 C   0  0  0  0  0  2  0  0  0  0  0  0
  195.4760  173.5230  143.7300 C   0  0  2  0  0  3  0  0  0  0  0  0
  195.7050  174.9380  143.1930 C   0  0  1  0  0  0  0  0  0  0  0  0
  196.8860  173.9880  143.3970 C   0  0  1  0  0  3  0  0  0  0  0  0
  197.5730  174.2690  144.5810 O   0  0  0  0  0  1  0  0  0  0  0  0
  194.0560  176.0750  141.6360 N   0  0  0  0  0  2  0  0  0  0  0  0
  196.2860  175.6150  140.8160 N   0  0  0  0  0  2  0  0  0  0  0  0
  195.2260  175.1970  141.7420 C   0  0  2  0  0  0  0  0  0  0  0  0
  195.4190  176.5920  141.4790 C   0  0  2  0  0  3  0  0  0  0  0  0
  195.4390  175.9900  144.2710 C   0  0  0  0  0  2  0  0  0  0  0  0
  194.1020  175.9280  144.6760 O   0  0  0  0  0  0  0  0  0  0  0  0
  194.1480  175.5640  146.0230 C   0  0  1  0  0  3  0  0  0  0  0  0
  191.1840  175.2510  147.9710 N   0  0  0  0  0  1  0  0  0  0  0  0
  192.6040  176.9970  147.1930 N   0  0  0  0  0  2  0  0  0  0  0  0
  191.9070  175.7700  146.8240 C   0  0  1  0  0  3  0  0  0  0  0  0
  194.0150  176.8000  146.8820 C   0  0  0  0  0  2  0  0  0  0  0  0
  192.9260  174.7550  146.3610 C   0  0  0  0  0  2  0  0  0  0  0  0
  189.6400  173.7070  143.0400 N   0  0  0  0  0  2  0  0  0  0  0  0
  189.6710  174.7490  144.0510 C   0  0  0  0  0  2  0  0  0  0  0  0
  187.5540  175.8670  143.3560 C   0  0  0  0  0  2  0  0  0  0  0  0
  186.9970  176.9570  144.1900 C   0  0  0  0  0  0  0  0  0  0  0  0
  189.2860  177.1640  144.4840 C   0  0  0  0  0  2  0  0  0  0  0  0
  189.0640  176.0230  143.4970 C   0  0  1  0  0  3  0  0  0  0  0  0
  187.9270  177.6660  144.8040 C   0  0  0  0  0  3  0  0  0  0  0  0
  184.9450  178.2030  143.6780 C   0  0  0  0  0  2  0  0  0  0  0  0
  185.5520  177.2010  144.3050 C   0  0  0  0  0  3  0  0  0  0  0  0
  1  6  1  6  0  0  0
  1  5  1  0  0  0  0
  1  8  1  0  0  0  0
  2 13  1  0  0  0  0
  4  8  1  6  0  0  0
  4 15  1  0  0  0  0
  4  7  1  0  0  0  0
  5  9  1  0  0  0  0
  7 11  2  0  0  0  0
  9  7  1  0  0  0  0
 10 14  2  0  0  0  0
 11  2  1  0  0  0  0
 11 10  1  0  0  0  0
 12  2  2  0  0  0  0
 13 35  1  1  0  0  0
 14 13  1  0  0  0  0
 14  3  1  0  0  0  0
 15 12  1  0  0  0  0
 16  3  1  0  0  0  0
 16 17  1  1  0  0  0
 18 16  1  0  0  0  0
 19 18  1  6  0  0  0
 20 21  1  0  0  0  0
 20 19  1  0  0  0  0
 20 27  1  1  0  0  0
 21 19  1  0  0  0  0
 21 22  1  1  0  0  0
 23 25  1  0  0  0  0
 25 24  1  6  0  0  0
 25 20  1  0  0  0  0
 26 24  1  6  0  0  0
 26 23  1  0  0  0  0
 26 25  1  0  0  0  0
 27 28  1  0  0  0  0
 29 28  1  6  0  0  0
 29 34  1  0  0  0  0
 29 33  1  0  0  0  0
 32 31  1  0  0  0  0
 32 30  1  1  0  0  0
 33 31  1  0  0  0  0
 34 32  1  0  0  0  0
 35 36  1  0  0  0  0
 37 40  1  0  0  0  0
 37 38  1  0  0  0  0
 38 43  1  0  0  0  0
 38 41  2  0  0  0  0
 39 41  1  0  0  0  0
 40 36  1  1  0  0  0
 40 39  1  0  0  0  0
 42 43  2  0  0  0  0
M  END
>  <MODEL>
9

>  <REMARK>
 VINA RESULT:      -6.4      2.122      4.440
  Name = 
  11 active torsions:
  status: ('A' for Active; 'I' for Inactive)
    1  A    between atoms: N_1  and  C_32
    2  A    between atoms: N_1  and  C_34
    3  A    between atoms: C_2  and  C_6
    4  A    between atoms: C_2  and  N_13
    5  A    between atoms: C_3  and  C_6
    6  A    between atoms: C_4  and  C_22
    7  A    between atoms: C_4  and  C_41
    8  A    between atoms: C_11  and  O_14
    9  A    between atoms: O_14  and  C_41
   10  A    between atoms: C_19  and  C_37
   11  A    between atoms: C_32  and  C_35
                            x       y       z     vdW  Elec       q    Type
                         _______ _______ _______ _____ _____    ______ ____

>  <TORSDO>
F 11

$$$$
