=
 OpenBabel11052421373D

 32 36  0  0  1  0  0  0  0  0999 V2000
  193.5680  173.9320  142.8180 C   0  0  0  0  0  0  0  0  0  0  0  0
  190.2970  175.8900  144.4990 C   0  0  0  0  0  0  0  0  0  0  0  0
  192.6860  175.3970  144.5120 C   0  0  0  0  0  0  0  0  0  0  0  0
  191.2320  174.4280  142.8090 C   0  0  0  0  0  3  0  0  0  0  0  0
  195.0390  174.8990  144.4750 N   0  0  0  0  0  0  0  0  0  0  0  0
  193.4310  173.0530  141.6160 C   0  0  0  0  0  1  0  0  0  0  0  0
  190.1230  175.0770  143.3630 C   0  0  0  0  0  0  0  0  0  0  0  0
  188.8350  174.9400  142.8170 C   0  0  0  0  0  0  0  0  0  0  0  0
  187.9320  176.3880  144.4880 C   0  0  0  0  0  0  0  0  0  0  0  0
  194.0970  176.4130  146.2910 C   0  0  0  0  0  1  0  0  0  0  0  0
  192.5140  174.5730  143.3650 C   0  0  0  0  0  0  0  0  0  0  0  0
  193.9050  175.5600  145.0690 C   0  0  0  0  0  0  0  0  0  0  0  0
  194.8370  174.0810  143.3800 O   0  0  0  0  0  0  0  0  0  0  0  0
  187.7880  175.6000  143.3850 N   0  0  0  0  0  0  0  0  0  0  0  0
  191.5630  176.0440  145.0620 C   0  0  0  0  0  3  0  0  0  0  0  0
  189.2030  176.5450  145.0600 C   0  0  0  0  0  3  0  0  0  0  0  0
  185.5310  180.5010  144.0220 O   0  0  0  0  0  1  0  0  0  0  0  0
  186.4570  178.3450  144.2640 C   0  0  0  0  0  3  0  0  0  0  0  0
  187.0080  177.4810  146.5500 C   0  0  1  0  0  3  0  0  0  0  0  0
  186.0060  178.4810  147.0640 C   0  0  0  0  0  3  0  0  0  0  0  0
  185.4950  179.4030  146.2420 C   0  0  0  0  0  3  0  0  0  0  0  0
  185.6090  176.2760  145.0100 O   0  0  0  0  0  1  0  0  0  0  0  0
  185.8400  179.4000  144.8090 C   0  0  0  0  0  0  0  0  0  0  0  0
  187.0240  176.3070  147.4080 N   0  0  0  0  0  1  0  0  0  0  0  0
  186.7390  177.1020  145.0740 C   0  0  2  0  0  0  0  0  0  0  0  0
  196.3710  174.9890  145.0690 C   0  0  0  0  0  3  0  0  0  0  0  0
  197.2380  173.8570  144.5500 C   0  0  0  0  0  2  0  0  0  0  0  0
  196.6480  173.7750  145.9390 C   0  0  0  0  0  2  0  0  0  0  0  0
  188.5870  174.1160  141.5960 C   0  0  0  0  0  2  0  0  0  0  0  0
  188.2700  174.9840  140.4750 N   0  0  0  0  0  2  0  0  0  0  0  0
  188.5050  174.2110  139.2700 C   0  0  0  0  0  2  0  0  0  0  0  0
  189.8120  173.4580  139.4020 C   0  0  0  0  0  1  0  0  0  0  0  0
  1 11  2  0  0  0  0
  1 13  1  0  0  0  0
  2 16  1  0  0  0  0
  2 15  2  0  0  0  0
  3 15  1  0  0  0  0
  3 12  2  0  0  0  0
  4  7  2  0  0  0  0
  4 11  1  0  0  0  0
  5 12  1  0  0  0  0
  5 26  1  0  0  0  0
  6  1  1  0  0  0  0
  7  2  1  0  0  0  0
  8  7  1  0  0  0  0
  8 14  2  0  0  0  0
  9 16  2  0  0  0  0
  9 25  1  0  0  0  0
 11  3  1  0  0  0  0
 12 10  1  0  0  0  0
 13  5  1  0  0  0  0
 14  9  1  0  0  0  0
 17 23  1  0  0  0  0
 18 23  2  0  0  0  0
 18 25  1  0  0  0  0
 19 20  1  0  0  0  0
 19 24  1  1  0  0  0
 21 20  2  0  0  0  0
 23 21  1  0  0  0  0
 25 22  1  6  0  0  0
 25 19  1  0  0  0  0
 26 28  1  0  0  0  0
 27 26  1  0  0  0  0
 27 28  1  0  0  0  0
 29  8  1  0  0  0  0
 30 29  1  0  0  0  0
 31 32  1  0  0  0  0
 31 30  1  0  0  0  0
M  END
>  <MODEL>
1

>  <REMARK>
 VINA RESULT:      -7.3      0.000      0.000
  Name = 
  5 active torsions:
  status: ('A' for Active; 'I' for Inactive)
    1  A    between atoms: C_1  and  N_10
    2  A    between atoms: N_4  and  C_5
    3  A    between atoms: N_4  and  C_13
    4  A    between atoms: C_13  and  C_15
    5  A    between atoms: C_16  and  C_32
                            x       y       z     vdW  Elec       q    Type
                         _______ _______ _______ _____ _____    ______ ____

>  <TORSDO>
F 5

$$$$
=
 OpenBabel11052421373D

 32 36  0  0  1  0  0  0  0  0999 V2000
  188.7480  177.1640  145.9720 C   0  0  0  0  0  0  0  0  0  0  0  0
  189.2200  174.9940  142.4470 C   0  0  0  0  0  0  0  0  0  0  0  0
  187.8510  176.4360  143.8600 C   0  0  0  0  0  0  0  0  0  0  0  0
  190.0830  175.7580  144.5770 C   0  0  0  0  0  3  0  0  0  0  0  0
  186.5440  177.8740  145.2770 N   0  0  0  0  0  0  0  0  0  0  0  0
  189.8170  177.2180  147.0160 C   0  0  0  0  0  1  0  0  0  0  0  0
  190.2560  175.0240  143.3990 C   0  0  0  0  0  0  0  0  0  0  0  0
  191.4400  174.3100  143.1380 C   0  0  0  0  0  0  0  0  0  0  0  0
  190.5730  173.5710  141.0390 C   0  0  0  0  0  0  0  0  0  0  0  0
  185.5810  177.0680  143.0630 C   0  0  0  0  0  1  0  0  0  0  0  0
  188.8950  176.4670  144.8260 C   0  0  0  0  0  0  0  0  0  0  0  0
  186.6980  177.1080  144.0670 C   0  0  0  0  0  0  0  0  0  0  0  0
  187.5630  177.8620  146.2110 O   0  0  0  0  0  0  0  0  0  0  0  0
  191.5660  173.6180  141.9730 N   0  0  0  0  0  0  0  0  0  0  0  0
  188.0360  175.6920  142.6800 C   0  0  0  0  0  3  0  0  0  0  0  0
  189.3790  174.2690  141.2680 C   0  0  0  0  0  3  0  0  0  0  0  0
  189.2800  173.7060  136.4330 O   0  0  0  0  0  1  0  0  0  0  0  0
  190.1810  173.5740  138.6090 C   0  0  0  0  0  3  0  0  0  0  0  0
  190.0840  171.4080  139.8620 C   0  0  1  0  0  3  0  0  0  0  0  0
  189.9540  170.7460  138.5160 C   0  0  0  0  0  3  0  0  0  0  0  0
  189.7570  171.4850  137.4200 C   0  0  0  0  0  3  0  0  0  0  0  0
  192.1350  172.6140  139.5130 O   0  0  0  0  0  1  0  0  0  0  0  0
  189.7480  172.9570  137.5040 C   0  0  0  0  0  0  0  0  0  0  0  0
  190.7930  170.5300  140.7810 N   0  0  0  0  0  1  0  0  0  0  0  0
  190.7680  172.7920  139.7600 C   0  0  2  0  0  0  0  0  0  0  0  0
  185.2970  178.5720  145.5830 C   0  0  0  0  0  3  0  0  0  0  0  0
  185.2440  178.8950  147.0660 C   0  0  0  0  0  2  0  0  0  0  0  0
  184.4390  177.7380  146.5210 C   0  0  0  0  0  2  0  0  0  0  0  0
  192.5880  174.3230  144.0930 C   0  0  0  0  0  2  0  0  0  0  0  0
  193.5770  175.2930  143.6560 N   0  0  0  0  0  2  0  0  0  0  0  0
  193.8010  176.1920  144.7720 C   0  0  0  0  0  2  0  0  0  0  0  0
  193.5190  175.4640  146.0700 C   0  0  0  0  0  1  0  0  0  0  0  0
  1 13  1  0  0  0  0
  1  6  1  0  0  0  0
  2 15  2  0  0  0  0
  2  7  1  0  0  0  0
  3 12  2  0  0  0  0
  3 11  1  0  0  0  0
  4 11  1  0  0  0  0
  5 26  1  0  0  0  0
  5 13  1  0  0  0  0
  7  4  2  0  0  0  0
  8  7  1  0  0  0  0
  8 29  1  0  0  0  0
  9 16  2  0  0  0  0
  9 14  1  0  0  0  0
 10 12  1  0  0  0  0
 11  1  2  0  0  0  0
 12  5  1  0  0  0  0
 14  8  2  0  0  0  0
 15  3  1  0  0  0  0
 16  2  1  0  0  0  0
 17 23  1  0  0  0  0
 18 25  1  0  0  0  0
 19 24  1  1  0  0  0
 20 19  1  0  0  0  0
 21 23  1  0  0  0  0
 21 20  2  0  0  0  0
 23 18  2  0  0  0  0
 25 22  1  6  0  0  0
 25 19  1  0  0  0  0
 25  9  1  0  0  0  0
 26 28  1  0  0  0  0
 26 27  1  0  0  0  0
 28 27  1  0  0  0  0
 30 29  1  0  0  0  0
 30 31  1  0  0  0  0
 31 32  1  0  0  0  0
M  END
>  <MODEL>
2

>  <REMARK>
 VINA RESULT:      -7.2      2.588      8.186
  Name = 
  5 active torsions:
  status: ('A' for Active; 'I' for Inactive)
    1  A    between atoms: C_1  and  N_10
    2  A    between atoms: N_4  and  C_5
    3  A    between atoms: N_4  and  C_13
    4  A    between atoms: C_13  and  C_15
    5  A    between atoms: C_16  and  C_32
                            x       y       z     vdW  Elec       q    Type
                         _______ _______ _______ _____ _____    ______ ____

>  <TORSDO>
F 5

$$$$
=
 OpenBabel11052421373D

 32 36  0  0  1  0  0  0  0  0999 V2000
  187.3310  176.3730  143.7980 C   0  0  0  0  0  0  0  0  0  0  0  0
  191.3190  175.9010  144.9070 C   0  0  0  0  0  0  0  0  0  0  0  0
  189.0810  176.7290  145.4120 C   0  0  0  0  0  0  0  0  0  0  0  0
  189.5240  175.5580  143.3170 C   0  0  0  0  0  3  0  0  0  0  0  0
  186.8550  177.5120  145.8760 N   0  0  0  0  0  0  0  0  0  0  0  0
  186.8060  175.8580  142.4950 C   0  0  0  0  0  1  0  0  0  0  0  0
  190.8670  175.3930  143.6740 C   0  0  0  0  0  0  0  0  0  0  0  0
  191.7810  174.7340  142.8340 C   0  0  0  0  0  0  0  0  0  0  0  0
  193.5370  175.0770  144.4160 C   0  0  0  0  0  0  0  0  0  0  0  0
  188.7160  177.9260  147.5620 C   0  0  0  0  0  1  0  0  0  0  0  0
  188.6200  176.2190  144.1660 C   0  0  0  0  0  0  0  0  0  0  0  0
  188.2380  177.3670  146.2520 C   0  0  0  0  0  0  0  0  0  0  0  0
  186.4420  177.0340  144.6470 O   0  0  0  0  0  0  0  0  0  0  0  0
  193.0760  174.5890  143.2300 N   0  0  0  0  0  0  0  0  0  0  0  0
  190.4340  176.5590  145.7590 C   0  0  0  0  0  3  0  0  0  0  0  0
  192.6520  175.7420  145.2780 C   0  0  0  0  0  3  0  0  0  0  0  0
  197.9240  176.3450  142.9840 O   0  0  0  0  0  1  0  0  0  0  0  0
  195.8510  175.7780  143.9570 C   0  0  0  0  0  3  0  0  0  0  0  0
  195.3990  173.4050  144.6190 C   0  0  1  0  0  3  0  0  0  0  0  0
  196.8940  173.2350  144.6630 C   0  0  0  0  0  3  0  0  0  0  0  0
  197.6950  174.1970  144.1960 C   0  0  0  0  0  3  0  0  0  0  0  0
  195.1650  175.2460  146.1490 O   0  0  0  0  0  1  0  0  0  0  0  0
  197.1290  175.4680  143.7090 C   0  0  0  0  0  0  0  0  0  0  0  0
  194.7700  172.5430  145.6080 N   0  0  0  0  0  1  0  0  0  0  0  0
  194.9820  174.8830  144.8090 C   0  0  2  0  0  0  0  0  0  0  0  0
  185.9100  178.2450  146.7150 C   0  0  0  0  0  3  0  0  0  0  0  0
  184.5090  178.1070  146.1470 C   0  0  0  0  0  2  0  0  0  0  0  0
  185.2810  179.3880  145.9350 C   0  0  0  0  0  2  0  0  0  0  0  0
  191.3600  174.1470  141.5270 C   0  0  0  0  0  2  0  0  0  0  0  0
  191.3020  172.7000  141.6350 N   0  0  0  0  0  2  0  0  0  0  0  0
  189.9060  172.3280  141.5030 C   0  0  0  0  0  2  0  0  0  0  0  0
  189.3810  171.8610  142.8440 C   0  0  0  0  0  1  0  0  0  0  0  0
  1 11  2  0  0  0  0
  1 13  1  0  0  0  0
  2 16  1  0  0  0  0
  2 15  2  0  0  0  0
  3 15  1  0  0  0  0
  3 12  2  0  0  0  0
  4  7  2  0  0  0  0
  4 11  1  0  0  0  0
  5 12  1  0  0  0  0
  5 26  1  0  0  0  0
  6  1  1  0  0  0  0
  7  2  1  0  0  0  0
  8 14  2  0  0  0  0
  8  7  1  0  0  0  0
  9 25  1  0  0  0  0
  9 16  2  0  0  0  0
 11  3  1  0  0  0  0
 12 10  1  0  0  0  0
 13  5  1  0  0  0  0
 14  9  1  0  0  0  0
 17 23  1  0  0  0  0
 18 25  1  0  0  0  0
 19 20  1  0  0  0  0
 19 25  1  0  0  0  0
 19 24  1  1  0  0  0
 21 20  2  0  0  0  0
 23 18  2  0  0  0  0
 23 21  1  0  0  0  0
 25 22  1  1  0  0  0
 27 26  1  0  0  0  0
 28 27  1  0  0  0  0
 28 26  1  0  0  0  0
 29 30  1  0  0  0  0
 29  8  1  0  0  0  0
 31 30  1  0  0  0  0
 31 32  1  0  0  0  0
M  END
>  <MODEL>
3

>  <REMARK>
 VINA RESULT:      -7.1      1.900      7.990
  Name = 
  5 active torsions:
  status: ('A' for Active; 'I' for Inactive)
    1  A    between atoms: C_1  and  N_10
    2  A    between atoms: N_4  and  C_5
    3  A    between atoms: N_4  and  C_13
    4  A    between atoms: C_13  and  C_15
    5  A    between atoms: C_16  and  C_32
                            x       y       z     vdW  Elec       q    Type
                         _______ _______ _______ _____ _____    ______ ____

>  <TORSDO>
F 5

$$$$
=
 OpenBabel11052421373D

 32 36  0  0  1  0  0  0  0  0999 V2000
  188.8130  177.0950  145.0860 C   0  0  0  0  0  0  0  0  0  0  0  0
  188.6560  175.0040  141.4860 C   0  0  0  0  0  0  0  0  0  0  0  0
  187.5960  176.4980  143.0970 C   0  0  0  0  0  0  0  0  0  0  0  0
  189.8450  175.6400  143.4980 C   0  0  0  0  0  3  0  0  0  0  0  0
  186.5970  177.9830  144.7040 N   0  0  0  0  0  0  0  0  0  0  0  0
  190.0110  177.0410  145.9800 C   0  0  0  0  0  1  0  0  0  0  0  0
  189.8070  174.9310  142.2920 C   0  0  0  0  0  0  0  0  0  0  0  0
  190.8890  174.1430  141.8620 C   0  0  0  0  0  0  0  0  0  0  0  0
  189.7020  173.5310  139.8810 C   0  0  0  0  0  0  0  0  0  0  0  0
  185.2950  177.3160  142.6210 C   0  0  0  0  0  1  0  0  0  0  0  0
  188.7570  176.4250  143.9160 C   0  0  0  0  0  0  0  0  0  0  0  0
  186.5340  177.2450  143.4690 C   0  0  0  0  0  0  0  0  0  0  0  0
  187.7250  177.8690  145.4940 O   0  0  0  0  0  0  0  0  0  0  0  0
  190.8090  173.4790  140.6760 N   0  0  0  0  0  0  0  0  0  0  0  0
  187.5680  175.7790  141.8880 C   0  0  0  0  0  3  0  0  0  0  0  0
  188.6040  174.3070  140.2810 C   0  0  0  0  0  3  0  0  0  0  0  0
  189.7760  169.0380  138.2350 O   0  0  0  0  0  1  0  0  0  0  0  0
  189.5320  171.3010  138.8530 C   0  0  0  0  0  3  0  0  0  0  0  0
  190.9610  173.0470  137.7640 C   0  0  1  0  0  3  0  0  0  0  0  0
  191.1280  172.0660  136.6340 C   0  0  0  0  0  3  0  0  0  0  0  0
  190.6970  170.8080  136.7660 C   0  0  0  0  0  3  0  0  0  0  0  0
  188.5610  173.1840  137.8180 O   0  0  0  0  0  1  0  0  0  0  0  0
  189.9810  170.3880  137.9840 C   0  0  0  0  0  0  0  0  0  0  0  0
  190.9960  174.4080  137.2520 N   0  0  0  0  0  1  0  0  0  0  0  0
  189.6690  172.7790  138.5730 C   0  0  2  0  0  0  0  0  0  0  0  0
  185.4570  178.7590  145.1870 C   0  0  0  0  0  3  0  0  0  0  0  0
  185.6080  179.0140  146.6760 C   0  0  0  0  0  2  0  0  0  0  0  0
  184.6520  177.9500  146.1910 C   0  0  0  0  0  2  0  0  0  0  0  0
  192.1500  174.0440  142.6570 C   0  0  0  0  0  2  0  0  0  0  0  0
  192.1360  172.8260  143.4470 N   0  0  0  0  0  2  0  0  0  0  0  0
  193.1170  173.0030  144.5020 C   0  0  0  0  0  2  0  0  0  0  0  0
  192.7090  174.1680  145.3780 C   0  0  0  0  0  1  0  0  0  0  0  0
  1 13  1  0  0  0  0
  1  6  1  0  0  0  0
  2 15  2  0  0  0  0
  2  7  1  0  0  0  0
  3 12  2  0  0  0  0
  3 11  1  0  0  0  0
  4 11  1  0  0  0  0
  5 26  1  0  0  0  0
  5 13  1  0  0  0  0
  7  4  2  0  0  0  0
  8  7  1  0  0  0  0
  8 29  1  0  0  0  0
  9 16  2  0  0  0  0
  9 14  1  0  0  0  0
 10 12  1  0  0  0  0
 11  1  2  0  0  0  0
 12  5  1  0  0  0  0
 14  8  2  0  0  0  0
 15  3  1  0  0  0  0
 16  2  1  0  0  0  0
 19 24  1  6  0  0  0
 19 25  1  0  0  0  0
 20 21  2  0  0  0  0
 20 19  1  0  0  0  0
 21 23  1  0  0  0  0
 23 17  1  0  0  0  0
 23 18  2  0  0  0  0
 25 22  1  6  0  0  0
 25 18  1  0  0  0  0
 25  9  1  0  0  0  0
 26 28  1  0  0  0  0
 26 27  1  0  0  0  0
 28 27  1  0  0  0  0
 29 30  1  0  0  0  0
 30 31  1  0  0  0  0
 31 32  1  0  0  0  0
M  END
>  <MODEL>
4

>  <REMARK>
 VINA RESULT:      -6.9      2.976      8.515
  Name = 
  5 active torsions:
  status: ('A' for Active; 'I' for Inactive)
    1  A    between atoms: C_1  and  N_10
    2  A    between atoms: N_4  and  C_5
    3  A    between atoms: N_4  and  C_13
    4  A    between atoms: C_13  and  C_15
    5  A    between atoms: C_16  and  C_32
                            x       y       z     vdW  Elec       q    Type
                         _______ _______ _______ _____ _____    ______ ____

>  <TORSDO>
F 5

$$$$
=
 OpenBabel11052421373D

 32 36  0  0  1  0  0  0  0  0999 V2000
  192.2770  173.5780  140.5440 C   0  0  0  0  0  0  0  0  0  0  0  0
  188.9440  175.2060  142.4430 C   0  0  0  0  0  0  0  0  0  0  0  0
  189.8830  173.7720  140.7070 C   0  0  0  0  0  0  0  0  0  0  0  0
  191.3480  174.9730  142.2460 C   0  0  0  0  0  3  0  0  0  0  0  0
  190.8520  172.3550  139.0220 N   0  0  0  0  0  0  0  0  0  0  0  0
  193.6710  173.8990  140.9810 C   0  0  0  0  0  1  0  0  0  0  0  0
  190.2380  175.5290  142.8930 C   0  0  0  0  0  0  0  0  0  0  0  0
  190.3790  176.4060  143.9830 C   0  0  0  0  0  0  0  0  0  0  0  0
  188.0070  176.6190  144.1650 C   0  0  0  0  0  0  0  0  0  0  0  0
  188.3220  172.5950  139.1680 C   0  0  0  0  0  1  0  0  0  0  0  0
  191.1930  174.0970  141.1570 C   0  0  0  0  0  0  0  0  0  0  0  0
  189.6990  172.9320  139.6650 C   0  0  0  0  0  0  0  0  0  0  0  0
  192.1120  172.7130  139.4610 O   0  0  0  0  0  0  0  0  0  0  0  0
  189.2700  176.9140  144.5870 N   0  0  0  0  0  0  0  0  0  0  0  0
  188.7750  174.3390  141.3640 C   0  0  0  0  0  3  0  0  0  0  0  0
  187.8310  175.7490  143.0790 C   0  0  0  0  0  3  0  0  0  0  0  0
  185.3440  180.5950  144.1810 O   0  0  0  0  0  1  0  0  0  0  0  0
  186.4090  178.4900  144.1890 C   0  0  0  0  0  3  0  0  0  0  0  0
  187.1470  177.4810  146.3600 C   0  0  1  0  0  3  0  0  0  0  0  0
  186.1210  178.3710  147.0100 C   0  0  0  0  0  3  0  0  0  0  0  0
  185.5080  179.3210  146.2990 C   0  0  0  0  0  3  0  0  0  0  0  0
  185.7310  176.3170  144.8030 O   0  0  0  0  0  1  0  0  0  0  0  0
  185.7650  179.4560  144.8540 C   0  0  0  0  0  0  0  0  0  0  0  0
  187.2830  176.2450  147.1130 N   0  0  0  0  0  1  0  0  0  0  0  0
  186.8110  177.2050  144.8740 C   0  0  2  0  0  0  0  0  0  0  0  0
  190.7180  171.4880  137.8530 C   0  0  0  0  0  3  0  0  0  0  0  0
  192.0620  171.3560  137.1600 C   0  0  0  0  0  2  0  0  0  0  0  0
  191.0050  172.2660  136.5800 C   0  0  0  0  0  2  0  0  0  0  0  0
  191.7220  176.7670  144.5280 C   0  0  0  0  0  2  0  0  0  0  0  0
  191.9030  176.1540  145.8320 N   0  0  0  0  0  2  0  0  0  0  0  0
  193.2390  175.5880  145.8450 C   0  0  0  0  0  2  0  0  0  0  0  0
  194.2010  176.5850  146.4570 C   0  0  0  0  0  1  0  0  0  0  0  0
  1  6  1  0  0  0  0
  1 11  2  0  0  0  0
  2  7  1  0  0  0  0
  2 16  1  0  0  0  0
  3 11  1  0  0  0  0
  3 15  1  0  0  0  0
  4  7  2  0  0  0  0
  5 13  1  0  0  0  0
  5 12  1  0  0  0  0
  7  8  1  0  0  0  0
  8 29  1  0  0  0  0
  8 14  2  0  0  0  0
  9 14  1  0  0  0  0
  9 25  1  0  0  0  0
 10 12  1  0  0  0  0
 11  4  1  0  0  0  0
 12  3  2  0  0  0  0
 13  1  1  0  0  0  0
 15  2  2  0  0  0  0
 16  9  2  0  0  0  0
 17 23  1  0  0  0  0
 18 23  2  0  0  0  0
 18 25  1  0  0  0  0
 19 20  1  0  0  0  0
 19 24  1  1  0  0  0
 21 20  2  0  0  0  0
 23 21  1  0  0  0  0
 25 22  1  6  0  0  0
 25 19  1  0  0  0  0
 26  5  1  0  0  0  0
 27 26  1  0  0  0  0
 28 27  1  0  0  0  0
 28 26  1  0  0  0  0
 29 30  1  0  0  0  0
 30 31  1  0  0  0  0
 31 32  1  0  0  0  0
M  END
>  <MODEL>
5

>  <REMARK>
 VINA RESULT:      -6.9      1.951      5.129
  Name = 
  5 active torsions:
  status: ('A' for Active; 'I' for Inactive)
    1  A    between atoms: C_1  and  N_10
    2  A    between atoms: N_4  and  C_5
    3  A    between atoms: N_4  and  C_13
    4  A    between atoms: C_13  and  C_15
    5  A    between atoms: C_16  and  C_32
                            x       y       z     vdW  Elec       q    Type
                         _______ _______ _______ _____ _____    ______ ____

>  <TORSDO>
F 5

$$$$
=
 OpenBabel11052421373D

 32 36  0  0  1  0  0  0  0  0999 V2000
  190.5350  171.6360  141.3550 C   0  0  0  0  0  0  0  0  0  0  0  0
  188.2200  174.9990  142.1900 C   0  0  0  0  0  0  0  0  0  0  0  0
  189.0010  173.3290  140.5930 C   0  0  0  0  0  0  0  0  0  0  0  0
  189.7570  173.2710  142.9130 C   0  0  0  0  0  3  0  0  0  0  0  0
  189.7830  171.6500  139.0580 N   0  0  0  0  0  0  0  0  0  0  0  0
  191.3710  170.9730  142.4030 C   0  0  0  0  0  1  0  0  0  0  0  0
  188.9860  174.4010  143.2080 C   0  0  0  0  0  0  0  0  0  0  0  0
  188.9550  174.9610  144.4980 C   0  0  0  0  0  0  0  0  0  0  0  0
  187.4360  176.6530  143.7680 C   0  0  0  0  0  0  0  0  0  0  0  0
  188.1960  173.4650  138.2430 C   0  0  0  0  0  1  0  0  0  0  0  0
  189.7790  172.7230  141.6190 C   0  0  0  0  0  0  0  0  0  0  0  0
  188.9980  172.8240  139.3400 C   0  0  0  0  0  0  0  0  0  0  0  0
  190.5520  171.1010  140.0660 O   0  0  0  0  0  0  0  0  0  0  0  0
  188.1820  176.0550  144.7400 N   0  0  0  0  0  0  0  0  0  0  0  0
  188.2320  174.4650  140.9010 C   0  0  0  0  0  3  0  0  0  0  0  0
  187.4450  176.1220  142.4690 C   0  0  0  0  0  3  0  0  0  0  0  0
  185.9240  179.1560  147.5560 O   0  0  0  0  0  1  0  0  0  0  0  0
  186.7210  178.1760  145.5630 C   0  0  0  0  0  3  0  0  0  0  0  0
  185.1090  177.5940  143.7360 C   0  0  1  0  0  3  0  0  0  0  0  0
  184.1920  178.6180  144.3510 C   0  0  0  0  0  3  0  0  0  0  0  0
  184.4850  179.1550  145.5390 C   0  0  0  0  0  3  0  0  0  0  0  0
  187.0470  178.9700  143.3680 O   0  0  0  0  0  1  0  0  0  0  0  0
  185.7470  178.8160  146.2210 C   0  0  0  0  0  0  0  0  0  0  0  0
  184.9070  177.5470  142.2960 N   0  0  0  0  0  1  0  0  0  0  0  0
  186.5910  177.8610  144.0920 C   0  0  2  0  0  0  0  0  0  0  0  0
  189.8660  171.0960  137.7090 C   0  0  0  0  0  3  0  0  0  0  0  0
  191.0150  170.1060  137.6340 C   0  0  0  0  0  2  0  0  0  0  0  0
  191.1790  171.4910  137.0520 C   0  0  0  0  0  2  0  0  0  0  0  0
  189.7220  174.3590  145.6300 C   0  0  0  0  0  2  0  0  0  0  0  0
  189.2650  174.9250  146.8870 N   0  0  0  0  0  2  0  0  0  0  0  0
  190.4520  175.3140  147.6250 C   0  0  0  0  0  2  0  0  0  0  0  0
  190.8270  176.7350  147.2650 C   0  0  0  0  0  1  0  0  0  0  0  0
  1 11  2  0  0  0  0
  1  6  1  0  0  0  0
  2 16  1  0  0  0  0
  2  7  1  0  0  0  0
  3 15  1  0  0  0  0
  3 11  1  0  0  0  0
  4  7  2  0  0  0  0
  5 12  1  0  0  0  0
  5 13  1  0  0  0  0
  7  8  1  0  0  0  0
  8 14  2  0  0  0  0
  8 29  1  0  0  0  0
  9 25  1  0  0  0  0
  9 14  1  0  0  0  0
 10 12  1  0  0  0  0
 11  4  1  0  0  0  0
 12  3  2  0  0  0  0
 13  1  1  0  0  0  0
 15  2  2  0  0  0  0
 16  9  2  0  0  0  0
 18 23  2  0  0  0  0
 19 24  1  6  0  0  0
 19 25  1  0  0  0  0
 19 20  1  0  0  0  0
 20 21  2  0  0  0  0
 21 23  1  0  0  0  0
 23 17  1  0  0  0  0
 25 22  1  6  0  0  0
 25 18  1  0  0  0  0
 26  5  1  0  0  0  0
 27 26  1  0  0  0  0
 28 27  1  0  0  0  0
 28 26  1  0  0  0  0
 29 30  1  0  0  0  0
 30 31  1  0  0  0  0
 32 31  1  0  0  0  0
M  END
>  <MODEL>
6

>  <REMARK>
 VINA RESULT:      -6.8      3.299      5.691
  Name = 
  5 active torsions:
  status: ('A' for Active; 'I' for Inactive)
    1  A    between atoms: C_1  and  N_10
    2  A    between atoms: N_4  and  C_5
    3  A    between atoms: N_4  and  C_13
    4  A    between atoms: C_13  and  C_15
    5  A    between atoms: C_16  and  C_32
                            x       y       z     vdW  Elec       q    Type
                         _______ _______ _______ _____ _____    ______ ____

>  <TORSDO>
F 5

$$$$
=
 OpenBabel11052421373D

 32 36  0  0  1  0  0  0  0  0999 V2000
  193.4750  172.8620  143.4920 C   0  0  0  0  0  0  0  0  0  0  0  0
  190.4970  175.7740  143.6140 C   0  0  0  0  0  0  0  0  0  0  0  0
  192.8060  175.1110  144.0340 C   0  0  0  0  0  0  0  0  0  0  0  0
  191.2180  173.5240  143.0760 C   0  0  0  0  0  3  0  0  0  0  0  0
  195.0780  174.4180  144.4150 N   0  0  0  0  0  0  0  0  0  0  0  0
  193.2110  171.4840  142.9760 C   0  0  0  0  0  1  0  0  0  0  0  0
  190.2070  174.4910  143.1120 C   0  0  0  0  0  0  0  0  0  0  0  0
  188.9030  174.2170  142.6610 C   0  0  0  0  0  0  0  0  0  0  0  0
  188.2130  176.4410  143.1930 C   0  0  0  0  0  0  0  0  0  0  0  0
  194.3590  176.7820  145.0270 C   0  0  0  0  0  1  0  0  0  0  0  0
  192.5170  173.8120  143.5300 C   0  0  0  0  0  0  0  0  0  0  0  0
  194.0450  175.4200  144.4760 C   0  0  0  0  0  0  0  0  0  0  0  0
  194.7600  173.1560  143.9490 O   0  0  0  0  0  0  0  0  0  0  0  0
  187.9560  175.1930  142.7070 N   0  0  0  0  0  0  0  0  0  0  0  0
  191.7810  176.0740  144.0670 C   0  0  0  0  0  3  0  0  0  0  0  0
  189.5020  176.7480  143.6530 C   0  0  0  0  0  3  0  0  0  0  0  0
  184.6020  177.9150  145.9670 O   0  0  0  0  0  1  0  0  0  0  0  0
  186.4440  177.4670  144.5630 C   0  0  0  0  0  3  0  0  0  0  0  0
  186.0920  177.2160  142.0950 C   0  0  1  0  0  3  0  0  0  0  0  0
  184.8300  178.0130  142.2930 C   0  0  0  0  0  3  0  0  0  0  0  0
  184.3910  178.2830  143.5260 C   0  0  0  0  0  3  0  0  0  0  0  0
  187.6840  178.7590  143.0290 O   0  0  0  0  0  1  0  0  0  0  0  0
  185.1790  177.8780  144.7040 C   0  0  0  0  0  0  0  0  0  0  0  0
  186.6500  177.4850  140.7790 N   0  0  0  0  0  1  0  0  0  0  0  0
  187.1260  177.4880  143.2150 C   0  0  2  0  0  0  0  0  0  0  0  0
  196.4200  174.6750  144.9330 C   0  0  0  0  0  3  0  0  0  0  0  0
  197.2710  173.4270  144.7870 C   0  0  0  0  0  2  0  0  0  0  0  0
  196.7020  173.7930  146.1380 C   0  0  0  0  0  2  0  0  0  0  0  0
  188.5370  172.8860  142.0920 C   0  0  0  0  0  2  0  0  0  0  0  0
  188.2930  173.0140  140.6660 N   0  0  0  0  0  2  0  0  0  0  0  0
  189.4040  172.3680  139.9930 C   0  0  0  0  0  2  0  0  0  0  0  0
  190.2630  173.4170  139.3180 C   0  0  0  0  0  1  0  0  0  0  0  0
  1 11  2  0  0  0  0
  1 13  1  0  0  0  0
  2 16  1  0  0  0  0
  2 15  2  0  0  0  0
  3 15  1  0  0  0  0
  3 12  2  0  0  0  0
  4  7  2  0  0  0  0
  4 11  1  0  0  0  0
  5 12  1  0  0  0  0
  5 26  1  0  0  0  0
  6  1  1  0  0  0  0
  7  2  1  0  0  0  0
  8 14  2  0  0  0  0
  8  7  1  0  0  0  0
  9 25  1  0  0  0  0
  9 16  2  0  0  0  0
 11  3  1  0  0  0  0
 12 10  1  0  0  0  0
 13  5  1  0  0  0  0
 14  9  1  0  0  0  0
 18 23  2  0  0  0  0
 19 24  1  6  0  0  0
 19 20  1  0  0  0  0
 19 25  1  0  0  0  0
 20 21  2  0  0  0  0
 21 23  1  0  0  0  0
 23 17  1  0  0  0  0
 25 22  1  6  0  0  0
 25 18  1  0  0  0  0
 26 28  1  0  0  0  0
 27 26  1  0  0  0  0
 27 28  1  0  0  0  0
 29  8  1  0  0  0  0
 30 29  1  0  0  0  0
 31 30  1  0  0  0  0
 32 31  1  0  0  0  0
M  END
>  <MODEL>
7

>  <REMARK>
 VINA RESULT:      -6.8      1.627      2.259
  Name = 
  5 active torsions:
  status: ('A' for Active; 'I' for Inactive)
    1  A    between atoms: C_1  and  N_10
    2  A    between atoms: N_4  and  C_5
    3  A    between atoms: N_4  and  C_13
    4  A    between atoms: C_13  and  C_15
    5  A    between atoms: C_16  and  C_32
                            x       y       z     vdW  Elec       q    Type
                         _______ _______ _______ _____ _____    ______ ____

>  <TORSDO>
F 5

$$$$
=
 OpenBabel11052421373D

 32 36  0  0  1  0  0  0  0  0999 V2000
  187.1970  176.4590  144.2730 C   0  0  0  0  0  0  0  0  0  0  0  0
  191.3050  175.7670  144.2710 C   0  0  0  0  0  0  0  0  0  0  0  0
  189.3230  176.6490  145.3860 C   0  0  0  0  0  0  0  0  0  0  0  0
  189.1420  175.5910  143.1930 C   0  0  0  0  0  3  0  0  0  0  0  0
  187.3390  177.4880  146.4550 N   0  0  0  0  0  0  0  0  0  0  0  0
  186.3250  176.0450  143.1300 C   0  0  0  0  0  1  0  0  0  0  0  0
  190.5210  175.3530  143.1780 C   0  0  0  0  0  0  0  0  0  0  0  0
  191.1500  174.7110  142.0960 C   0  0  0  0  0  0  0  0  0  0  0  0
  193.2720  174.8890  143.1760 C   0  0  0  0  0  0  0  0  0  0  0  0
  189.5940  177.7260  147.6120 C   0  0  0  0  0  1  0  0  0  0  0  0
  188.5270  176.2340  144.2810 C   0  0  0  0  0  0  0  0  0  0  0  0
  188.7620  177.2670  146.4470 C   0  0  0  0  0  0  0  0  0  0  0  0
  186.5960  177.1010  145.3560 O   0  0  0  0  0  0  0  0  0  0  0  0
  192.4930  174.4920  142.1300 N   0  0  0  0  0  0  0  0  0  0  0  0
  190.7090  176.4060  145.3570 C   0  0  0  0  0  3  0  0  0  0  0  0
  192.6780  175.5340  144.2710 C   0  0  0  0  0  3  0  0  0  0  0  0
  196.7460  173.4050  146.1150 O   0  0  0  0  0  1  0  0  0  0  0  0
  195.1510  173.9620  144.4690 C   0  0  0  0  0  3  0  0  0  0  0  0
  195.5460  175.9330  142.9740 C   0  0  1  0  0  3  0  0  0  0  0  0
  197.0070  175.7630  143.2990 C   0  0  0  0  0  3  0  0  0  0  0  0
  197.3880  174.9150  144.2580 C   0  0  0  0  0  3  0  0  0  0  0  0
  195.0720  173.7330  142.1240 O   0  0  0  0  0  1  0  0  0  0  0  0
  196.3930  174.0760  144.9510 C   0  0  0  0  0  0  0  0  0  0  0  0
  195.3940  176.4540  141.6240 N   0  0  0  0  0  1  0  0  0  0  0  0
  194.7570  174.6160  143.1650 C   0  0  2  0  0  0  0  0  0  0  0  0
  186.6850  178.2040  147.5480 C   0  0  0  0  0  3  0  0  0  0  0  0
  185.1790  178.1520  147.3640 C   0  0  0  0  0  2  0  0  0  0  0  0
  185.9350  179.4140  147.0160 C   0  0  0  0  0  2  0  0  0  0  0  0
  190.3720  174.2220  140.9180 C   0  0  0  0  0  2  0  0  0  0  0  0
  189.7790  172.9320  141.2240 N   0  0  0  0  0  2  0  0  0  0  0  0
  188.7950  172.6690  140.1900 C   0  0  0  0  0  2  0  0  0  0  0  0
  188.5510  173.9340  139.3950 C   0  0  0  0  0  1  0  0  0  0  0  0
  1 11  2  0  0  0  0
  1 13  1  0  0  0  0
  2 16  1  0  0  0  0
  2 15  2  0  0  0  0
  3 12  2  0  0  0  0
  4 11  1  0  0  0  0
  5 26  1  0  0  0  0
  6  1  1  0  0  0  0
  7  4  2  0  0  0  0
  7  2  1  0  0  0  0
  8 14  2  0  0  0  0
  8  7  1  0  0  0  0
  9 16  2  0  0  0  0
 11  3  1  0  0  0  0
 12  5  1  0  0  0  0
 12 10  1  0  0  0  0
 13  5  1  0  0  0  0
 14  9  1  0  0  0  0
 15  3  1  0  0  0  0
 18 23  2  0  0  0  0
 19 24  1  6  0  0  0
 19 25  1  0  0  0  0
 19 20  1  0  0  0  0
 20 21  2  0  0  0  0
 21 23  1  0  0  0  0
 23 17  1  0  0  0  0
 25 22  1  6  0  0  0
 25  9  1  0  0  0  0
 25 18  1  0  0  0  0
 27 26  1  0  0  0  0
 28 27  1  0  0  0  0
 28 26  1  0  0  0  0
 29 30  1  0  0  0  0
 29  8  1  0  0  0  0
 31 30  1  0  0  0  0
 32 31  1  0  0  0  0
M  END
>  <MODEL>
8

>  <REMARK>
 VINA RESULT:      -6.8      1.713      7.854
  Name = 
  5 active torsions:
  status: ('A' for Active; 'I' for Inactive)
    1  A    between atoms: C_1  and  N_10
    2  A    between atoms: N_4  and  C_5
    3  A    between atoms: N_4  and  C_13
    4  A    between atoms: C_13  and  C_15
    5  A    between atoms: C_16  and  C_32
                            x       y       z     vdW  Elec       q    Type
                         _______ _______ _______ _____ _____    ______ ____

>  <TORSDO>
F 5

$$$$
=
 OpenBabel11052421373D

 32 36  0  0  1  0  0  0  0  0999 V2000
  187.3750  176.3320  143.5580 C   0  0  0  0  0  0  0  0  0  0  0  0
  191.2940  175.2220  144.4350 C   0  0  0  0  0  0  0  0  0  0  0  0
  189.2230  176.3240  145.1010 C   0  0  0  0  0  0  0  0  0  0  0  0
  189.4050  175.2480  142.9180 C   0  0  0  0  0  3  0  0  0  0  0  0
  187.1550  177.3840  145.7230 N   0  0  0  0  0  0  0  0  0  0  0  0
  186.7300  175.9870  142.2530 C   0  0  0  0  0  1  0  0  0  0  0  0
  190.7230  174.8690  143.1980 C   0  0  0  0  0  0  0  0  0  0  0  0
  191.4980  174.1450  142.2740 C   0  0  0  0  0  0  0  0  0  0  0  0
  193.3470  174.1250  143.7850 C   0  0  0  0  0  0  0  0  0  0  0  0
  189.1230  177.4110  147.3360 C   0  0  0  0  0  1  0  0  0  0  0  0
  188.6430  175.9720  143.8510 C   0  0  0  0  0  0  0  0  0  0  0  0
  188.5160  177.0170  146.0200 C   0  0  0  0  0  0  0  0  0  0  0  0
  186.6270  177.0540  144.4890 O   0  0  0  0  0  0  0  0  0  0  0  0
  192.7720  173.7900  142.5950 N   0  0  0  0  0  0  0  0  0  0  0  0
  190.5500  175.9400  145.3700 C   0  0  0  0  0  3  0  0  0  0  0  0
  192.6040  174.8490  144.7290 C   0  0  0  0  0  3  0  0  0  0  0  0
  195.7170  170.6560  146.0770 O   0  0  0  0  0  1  0  0  0  0  0  0
  194.7430  172.3350  144.7370 C   0  0  0  0  0  3  0  0  0  0  0  0
  195.4390  174.7230  145.0370 C   0  0  1  0  0  3  0  0  0  0  0  0
  196.7070  174.1760  145.6390 C   0  0  0  0  0  3  0  0  0  0  0  0
  196.8120  172.8730  145.9140 C   0  0  0  0  0  3  0  0  0  0  0  0
  195.5020  173.6110  142.9050 O   0  0  0  0  0  1  0  0  0  0  0  0
  195.7250  171.9430  145.5560 C   0  0  0  0  0  0  0  0  0  0  0  0
  195.7130  175.9780  144.3560 N   0  0  0  0  0  1  0  0  0  0  0  0
  194.7630  173.7010  144.0920 C   0  0  2  0  0  0  0  0  0  0  0  0
  186.3620  178.1840  146.6520 C   0  0  0  0  0  3  0  0  0  0  0  0
  184.8840  177.9490  146.3960 C   0  0  0  0  0  2  0  0  0  0  0  0
  185.5400  179.2160  145.8970 C   0  0  0  0  0  2  0  0  0  0  0  0
  190.9430  173.7150  140.9550 C   0  0  0  0  0  2  0  0  0  0  0  0
  190.4790  172.3420  141.0440 N   0  0  0  0  0  2  0  0  0  0  0  0
  189.5820  172.1320  139.9220 C   0  0  0  0  0  2  0  0  0  0  0  0
  188.5140  173.2050  139.9240 C   0  0  0  0  0  1  0  0  0  0  0  0
  1 11  2  0  0  0  0
  1 13  1  0  0  0  0
  2 16  1  0  0  0  0
  2 15  2  0  0  0  0
  3 15  1  0  0  0  0
  3 12  2  0  0  0  0
  4  7  2  0  0  0  0
  4 11  1  0  0  0  0
  5 12  1  0  0  0  0
  5 26  1  0  0  0  0
  6  1  1  0  0  0  0
  7  2  1  0  0  0  0
  8 14  2  0  0  0  0
  8  7  1  0  0  0  0
  9 25  1  0  0  0  0
  9 16  2  0  0  0  0
 11  3  1  0  0  0  0
 12 10  1  0  0  0  0
 13  5  1  0  0  0  0
 14  9  1  0  0  0  0
 18 23  2  0  0  0  0
 19 24  1  6  0  0  0
 19 20  1  0  0  0  0
 20 21  2  0  0  0  0
 23 21  1  0  0  0  0
 23 17  1  0  0  0  0
 25 22  1  6  0  0  0
 25 18  1  0  0  0  0
 25 19  1  0  0  0  0
 27 26  1  0  0  0  0
 28 27  1  0  0  0  0
 28 26  1  0  0  0  0
 29 30  1  0  0  0  0
 29  8  1  0  0  0  0
 31 32  1  0  0  0  0
 31 30  1  0  0  0  0
M  END
>  <MODEL>
9

>  <REMARK>
 VINA RESULT:      -6.8      1.734      7.936
  Name = 
  5 active torsions:
  status: ('A' for Active; 'I' for Inactive)
    1  A    between atoms: C_1  and  N_10
    2  A    between atoms: N_4  and  C_5
    3  A    between atoms: N_4  and  C_13
    4  A    between atoms: C_13  and  C_15
    5  A    between atoms: C_16  and  C_32
                            x       y       z     vdW  Elec       q    Type
                         _______ _______ _______ _____ _____    ______ ____

>  <TORSDO>
F 5

$$$$
