=
 OpenBabel11052418273D

 27 31  0  0  1  0  0  0  0  0999 V2000
  188.7690  177.3800  145.8410 N   0  0  0  0  0  2  0  0  0  0  0  0
  188.2740  176.5660  143.5890 C   0  0  0  0  0  0  0  0  0  0  0  0
  190.7040  177.1530  143.5050 C   0  0  0  0  0  2  0  0  0  0  0  0
  188.7800  173.2600  140.9040 C   0  0  0  0  0  2  0  0  0  0  0  0
  190.4430  172.1070  139.6410 O   0  0  0  0  0  0  0  0  0  0  0  0
  187.2080  175.7310  143.2240 C   0  0  0  0  0  3  0  0  0  0  0  0
  191.0430  174.9370  141.6680 N   0  0  0  0  0  0  0  0  0  0  0  0
  192.8150  176.2670  146.5030 C   0  0  0  0  0  0  0  0  0  0  0  0
  191.2710  173.9500  140.8560 C   0  0  0  0  0  3  0  0  0  0  0  0
  194.1300  175.8950  146.7470 O   0  0  0  0  0  1  0  0  0  0  0  0
  189.7390  175.2230  142.1960 C   0  0  0  0  0  0  0  0  0  0  0  0
  188.1130  177.6970  144.5760 C   0  0  1  0  0  3  0  0  0  0  0  0
  190.1870  173.0570  140.4250 C   0  0  0  0  0  0  0  0  0  0  0  0
  188.6340  174.4230  141.8450 C   0  0  0  0  0  0  0  0  0  0  0  0
  190.1520  177.0240  146.0130 C   0  0  0  0  0  0  0  0  0  0  0  0
  189.5490  176.3000  143.0740 C   0  0  0  0  0  0  0  0  0  0  0  0
  192.3900  176.5130  145.1970 C   0  0  0  0  0  3  0  0  0  0  0  0
  187.4090  174.6970  142.3660 N   0  0  0  0  0  0  0  0  0  0  0  0
  191.9180  176.3970  147.5630 C   0  0  0  0  0  3  0  0  0  0  0  0
  190.5960  176.7710  147.3170 C   0  0  0  0  0  3  0  0  0  0  0  0
  191.0680  176.8870  144.9340 C   0  0  0  0  0  0  0  0  0  0  0  0
  184.0620  178.9650  145.2750 C   0  0  0  0  0  3  0  0  0  0  0  0
  186.6950  178.1360  144.7960 C   0  0  0  0  0  0  0  0  0  0  0  0
  185.9980  177.6550  145.9100 C   0  0  0  0  0  3  0  0  0  0  0  0
  184.6830  178.0670  146.1480 C   0  0  0  0  0  3  0  0  0  0  0  0
  184.7570  179.4540  144.1650 C   0  0  0  0  0  3  0  0  0  0  0  0
  186.0710  179.0440  143.9260 C   0  0  0  0  0  3  0  0  0  0  0  0
  1 15  1  0  0  0  0
  2 12  1  0  0  0  0
  3 21  1  0  0  0  0
  4 14  1  0  0  0  0
  5 13  2  0  0  0  0
  6  2  1  0  0  0  0
  7 11  1  0  0  0  0
  8 10  1  0  0  0  0
  8 19  1  0  0  0  0
  9  7  2  0  0  0  0
 11 16  1  0  0  0  0
 12 23  1  1  0  0  0
 12  1  1  0  0  0  0
 13  9  1  0  0  0  0
 13  4  1  0  0  0  0
 14 11  2  0  0  0  0
 14 18  1  0  0  0  0
 15 20  1  0  0  0  0
 16  3  1  0  0  0  0
 16  2  2  0  0  0  0
 17  8  2  0  0  0  0
 18  6  2  0  0  0  0
 20 19  2  0  0  0  0
 21 17  1  0  0  0  0
 21 15  2  0  0  0  0
 22 25  1  0  0  0  0
 23 24  1  0  0  0  0
 24 25  2  0  0  0  0
 26 22  2  0  0  0  0
 27 26  1  0  0  0  0
 27 23  2  0  0  0  0
M  END
>  <MODEL>
1

>  <REMARK>
 VINA RESULT:      -8.7      0.000      0.000
  Name = 
  1 active torsions:
  status: ('A' for Active; 'I' for Inactive)
    1  A    between atoms: C_9  and  C_15
                            x       y       z     vdW  Elec       q    Type
                         _______ _______ _______ _____ _____    ______ ____

>  <TORSDO>
F 1

$$$$
=
 OpenBabel11052418273D

 27 31  0  0  1  0  0  0  0  0999 V2000
  187.8870  175.8890  143.4420 N   0  0  0  0  0  2  0  0  0  0  0  0
  189.5000  175.9860  145.2780 C   0  0  0  0  0  0  0  0  0  0  0  0
  189.6910  173.6430  144.4200 C   0  0  0  0  0  2  0  0  0  0  0  0
  193.6790  176.1900  146.2200 C   0  0  0  0  0  2  0  0  0  0  0  0
  195.6850  174.9020  146.1370 O   0  0  0  0  0  0  0  0  0  0  0  0
  190.0900  177.1430  145.8040 C   0  0  0  0  0  3  0  0  0  0  0  0
  192.5100  173.7690  145.0830 N   0  0  0  0  0  0  0  0  0  0  0  0
  189.5880  173.1430  140.6830 C   0  0  0  0  0  0  0  0  0  0  0  0
  193.7830  173.7620  145.3370 C   0  0  0  0  0  3  0  0  0  0  0  0
  190.1360  172.2640  139.7590 O   0  0  0  0  0  1  0  0  0  0  0  0
  191.6750  174.9090  145.3340 C   0  0  0  0  0  0  0  0  0  0  0  0
  188.0410  175.9250  144.8930 C   0  0  1  0  0  3  0  0  0  0  0  0
  194.4490  174.9400  145.9070 C   0  0  0  0  0  0  0  0  0  0  0  0
  192.2190  176.0900  145.8770 C   0  0  0  0  0  0  0  0  0  0  0  0
  188.4740  174.9230  142.5510 C   0  0  0  0  0  0  0  0  0  0  0  0
  190.3040  174.8650  145.0350 C   0  0  0  0  0  0  0  0  0  0  0  0
  189.8820  173.0020  142.0400 C   0  0  0  0  0  3  0  0  0  0  0  0
  191.4170  177.1660  146.0930 N   0  0  0  0  0  0  0  0  0  0  0  0
  188.7420  174.1660  140.2570 C   0  0  0  0  0  3  0  0  0  0  0  0
  188.1910  175.0500  141.1860 C   0  0  0  0  0  3  0  0  0  0  0  0
  189.3400  173.8810  142.9830 C   0  0  0  0  0  0  0  0  0  0  0  0
  185.5630  179.0120  146.5790 C   0  0  0  0  0  3  0  0  0  0  0  0
  187.1910  177.0030  145.5000 C   0  0  0  0  0  0  0  0  0  0  0  0
  186.7520  178.0600  144.6960 C   0  0  0  0  0  3  0  0  0  0  0  0
  185.9410  179.0640  145.2340 C   0  0  0  0  0  3  0  0  0  0  0  0
  185.9920  177.9540  147.3860 C   0  0  0  0  0  3  0  0  0  0  0  0
  186.8020  176.9500  146.8480 C   0  0  0  0  0  3  0  0  0  0  0  0
  1 12  1  0  0  0  0
  2  6  1  0  0  0  0
  3 16  1  0  0  0  0
  6 18  2  0  0  0  0
  7 11  1  0  0  0  0
  7  9  2  0  0  0  0
  8 17  1  0  0  0  0
  9 13  1  0  0  0  0
 10  8  1  0  0  0  0
 11 14  2  0  0  0  0
 12  2  1  0  0  0  0
 12 23  1  6  0  0  0
 13  5  2  0  0  0  0
 13  4  1  0  0  0  0
 14 18  1  0  0  0  0
 14  4  1  0  0  0  0
 15 21  1  0  0  0  0
 15  1  1  0  0  0  0
 16  2  2  0  0  0  0
 16 11  1  0  0  0  0
 17 21  2  0  0  0  0
 19  8  2  0  0  0  0
 19 20  1  0  0  0  0
 20 15  2  0  0  0  0
 21  3  1  0  0  0  0
 22 26  1  0  0  0  0
 23 27  1  0  0  0  0
 24 25  1  0  0  0  0
 24 23  2  0  0  0  0
 25 22  2  0  0  0  0
 27 26  2  0  0  0  0
M  END
>  <MODEL>
2

>  <REMARK>
 VINA RESULT:      -8.1      1.735      5.154
  Name = 
  1 active torsions:
  status: ('A' for Active; 'I' for Inactive)
    1  A    between atoms: C_9  and  C_15
                            x       y       z     vdW  Elec       q    Type
                         _______ _______ _______ _____ _____    ______ ____

>  <TORSDO>
F 1

$$$$
=
 OpenBabel11052418273D

 27 31  0  0  1  0  0  0  0  0999 V2000
  187.9520  175.7370  142.3930 N   0  0  0  0  0  2  0  0  0  0  0  0
  189.3310  176.1880  144.3610 C   0  0  0  0  0  0  0  0  0  0  0  0
  189.4960  173.7100  144.0550 C   0  0  0  0  0  2  0  0  0  0  0  0
  193.3690  176.4770  145.7770 C   0  0  0  0  0  2  0  0  0  0  0  0
  195.2960  175.1480  146.2350 O   0  0  0  0  0  0  0  0  0  0  0  0
  189.9160  177.4150  144.7020 C   0  0  0  0  0  3  0  0  0  0  0  0
  192.2160  173.9000  145.0390 N   0  0  0  0  0  0  0  0  0  0  0  0
  189.8220  172.4100  140.5290 C   0  0  0  0  0  0  0  0  0  0  0  0
  193.4460  173.9130  145.4530 C   0  0  0  0  0  3  0  0  0  0  0  0
  190.4290  171.3360  139.8930 O   0  0  0  0  0  1  0  0  0  0  0  0
  191.4200  175.0900  144.9290 C   0  0  0  0  0  0  0  0  0  0  0  0
  187.9290  176.0850  143.8110 C   0  0  1  0  0  3  0  0  0  0  0  0
  194.1010  175.1690  145.8410 C   0  0  0  0  0  0  0  0  0  0  0  0
  191.9590  176.3450  145.2750 C   0  0  0  0  0  0  0  0  0  0  0  0
  188.5880  174.5850  141.8130 C   0  0  0  0  0  0  0  0  0  0  0  0
  190.0960  175.0190  144.4700 C   0  0  0  0  0  0  0  0  0  0  0  0
  189.9410  172.5600  141.9110 C   0  0  0  0  0  3  0  0  0  0  0  0
  191.1970  177.4640  145.1510 N   0  0  0  0  0  0  0  0  0  0  0  0
  189.0920  173.3380  139.7870 C   0  0  0  0  0  3  0  0  0  0  0  0
  188.4820  174.4180  140.4270 C   0  0  0  0  0  3  0  0  0  0  0  0
  189.3360  173.6390  142.5660 C   0  0  0  0  0  0  0  0  0  0  0  0
  185.5110  179.5610  144.5740 C   0  0  0  0  0  3  0  0  0  0  0  0
  187.0720  177.2920  144.0580 C   0  0  0  0  0  0  0  0  0  0  0  0
  186.6310  177.5610  145.3580 C   0  0  0  0  0  3  0  0  0  0  0  0
  185.8500  178.6920  145.6160 C   0  0  0  0  0  3  0  0  0  0  0  0
  185.9560  179.3010  143.2740 C   0  0  0  0  0  3  0  0  0  0  0  0
  186.7370  178.1710  143.0160 C   0  0  0  0  0  3  0  0  0  0  0  0
  1 12  1  0  0  0  0
  2 16  2  0  0  0  0
  2  6  1  0  0  0  0
  3 16  1  0  0  0  0
  4 13  1  0  0  0  0
  6 18  2  0  0  0  0
  7  9  2  0  0  0  0
  8 17  1  0  0  0  0
  9 13  1  0  0  0  0
 10  8  1  0  0  0  0
 11  7  1  0  0  0  0
 11 14  2  0  0  0  0
 12 23  1  6  0  0  0
 12  2  1  0  0  0  0
 13  5  2  0  0  0  0
 14  4  1  0  0  0  0
 15  1  1  0  0  0  0
 15 21  1  0  0  0  0
 16 11  1  0  0  0  0
 17 21  2  0  0  0  0
 18 14  1  0  0  0  0
 19 20  1  0  0  0  0
 19  8  2  0  0  0  0
 20 15  2  0  0  0  0
 21  3  1  0  0  0  0
 22 25  1  0  0  0  0
 23 24  1  0  0  0  0
 24 25  2  0  0  0  0
 26 22  2  0  0  0  0
 27 26  1  0  0  0  0
 27 23  2  0  0  0  0
M  END
>  <MODEL>
3

>  <REMARK>
 VINA RESULT:      -8.0      1.571      5.100
  Name = 
  1 active torsions:
  status: ('A' for Active; 'I' for Inactive)
    1  A    between atoms: C_9  and  C_15
                            x       y       z     vdW  Elec       q    Type
                         _______ _______ _______ _____ _____    ______ ____

>  <TORSDO>
F 1

$$$$
=
 OpenBabel11052418273D

 27 31  0  0  1  0  0  0  0  0999 V2000
  189.5380  176.7850  145.4650 N   0  0  0  0  0  2  0  0  0  0  0  0
  189.0380  175.9540  143.2200 C   0  0  0  0  0  0  0  0  0  0  0  0
  191.4390  176.6470  143.0950 C   0  0  0  0  0  2  0  0  0  0  0  0
  189.6410  172.6780  140.5180 C   0  0  0  0  0  2  0  0  0  0  0  0
  191.3300  171.6010  139.2230 O   0  0  0  0  0  0  0  0  0  0  0  0
  188.0040  175.0750  142.8710 C   0  0  0  0  0  3  0  0  0  0  0  0
  191.8420  174.4500  141.2460 N   0  0  0  0  0  0  0  0  0  0  0  0
  193.6380  175.8480  146.0540 C   0  0  0  0  0  0  0  0  0  0  0  0
  192.0980  173.4760  140.4290 C   0  0  0  0  0  3  0  0  0  0  0  0
  194.9720  175.5330  146.2740 O   0  0  0  0  0  1  0  0  0  0  0  0
  190.5360  174.6790  141.7980 C   0  0  0  0  0  0  0  0  0  0  0  0
  188.8460  177.0760  144.2120 C   0  0  1  0  0  3  0  0  0  0  0  0
  191.0470  172.5380  140.0150 C   0  0  0  0  0  0  0  0  0  0  0  0
  189.4610  173.8320  141.4640 C   0  0  0  0  0  0  0  0  0  0  0  0
  190.9370  176.4890  145.6120 C   0  0  0  0  0  0  0  0  0  0  0  0
  190.3150  175.7450  142.6820 C   0  0  0  0  0  0  0  0  0  0  0  0
  193.1810  176.0780  144.7550 C   0  0  0  0  0  3  0  0  0  0  0  0
  188.2340  174.0520  142.0080 N   0  0  0  0  0  0  0  0  0  0  0  0
  192.7550  175.9370  147.1290 C   0  0  0  0  0  3  0  0  0  0  0  0
  191.4140  176.2540  146.9070 C   0  0  0  0  0  3  0  0  0  0  0  0
  191.8390  176.3940  144.5170 C   0  0  0  0  0  0  0  0  0  0  0  0
  184.7560  178.1630  144.9850 C   0  0  0  0  0  3  0  0  0  0  0  0
  187.4150  177.4520  144.4580 C   0  0  0  0  0  0  0  0  0  0  0  0
  186.7430  176.8980  145.5530 C   0  0  0  0  0  3  0  0  0  0  0  0
  185.4150  177.2510  145.8150 C   0  0  0  0  0  3  0  0  0  0  0  0
  185.4260  178.7250  143.8940 C   0  0  0  0  0  3  0  0  0  0  0  0
  186.7520  178.3740  143.6310 C   0  0  0  0  0  3  0  0  0  0  0  0
  1 15  1  0  0  0  0
  2 12  1  0  0  0  0
  3 21  1  0  0  0  0
  4 14  1  0  0  0  0
  5 13  2  0  0  0  0
  6  2  1  0  0  0  0
  7 11  1  0  0  0  0
  8 10  1  0  0  0  0
  8 19  1  0  0  0  0
  9  7  2  0  0  0  0
 11 16  1  0  0  0  0
 12 23  1  1  0  0  0
 12  1  1  0  0  0  0
 13  9  1  0  0  0  0
 13  4  1  0  0  0  0
 14 11  2  0  0  0  0
 14 18  1  0  0  0  0
 15 20  1  0  0  0  0
 16  3  1  0  0  0  0
 16  2  2  0  0  0  0
 17  8  2  0  0  0  0
 18  6  2  0  0  0  0
 20 19  2  0  0  0  0
 21 17  1  0  0  0  0
 21 15  2  0  0  0  0
 22 25  1  0  0  0  0
 23 24  1  0  0  0  0
 24 25  2  0  0  0  0
 26 22  2  0  0  0  0
 27 26  1  0  0  0  0
 27 23  2  0  0  0  0
M  END
>  <MODEL>
4

>  <REMARK>
 VINA RESULT:      -7.8      0.960      1.055
  Name = 
  1 active torsions:
  status: ('A' for Active; 'I' for Inactive)
    1  A    between atoms: C_9  and  C_15
                            x       y       z     vdW  Elec       q    Type
                         _______ _______ _______ _____ _____    ______ ____

>  <TORSDO>
F 1

$$$$
=
 OpenBabel11052418273D

 27 31  0  0  1  0  0  0  0  0999 V2000
  189.9780  175.0690  142.6680 N   0  0  0  0  0  2  0  0  0  0  0  0
  189.4630  176.0880  144.8300 C   0  0  0  0  0  0  0  0  0  0  0  0
  188.8050  177.8320  143.1610 C   0  0  0  0  0  2  0  0  0  0  0  0
  186.2750  177.1560  147.4940 C   0  0  0  0  0  2  0  0  0  0  0  0
  184.4410  178.6650  147.7140 O   0  0  0  0  0  0  0  0  0  0  0  0
  189.2390  175.4090  146.0360 C   0  0  0  0  0  3  0  0  0  0  0  0
  186.6680  178.5740  144.9740 N   0  0  0  0  0  0  0  0  0  0  0  0
  187.0650  176.6700  140.0220 C   0  0  0  0  0  0  0  0  0  0  0  0
  185.6790  178.9470  145.7270 C   0  0  0  0  0  3  0  0  0  0  0  0
  186.1100  177.1670  139.1460 O   0  0  0  0  0  1  0  0  0  0  0  0
  187.5560  177.5040  145.3300 C   0  0  0  0  0  0  0  0  0  0  0  0
  190.5500  175.6830  143.8630 C   0  0  1  0  0  3  0  0  0  0  0  0
  185.4110  178.2820  147.0090 C   0  0  0  0  0  0  0  0  0  0  0  0
  187.3810  176.8020  146.5390 C   0  0  0  0  0  0  0  0  0  0  0  0
  189.0020  175.6640  141.7930 C   0  0  0  0  0  0  0  0  0  0  0  0
  188.6070  177.1390  144.4750 C   0  0  0  0  0  0  0  0  0  0  0  0
  187.4620  177.4290  141.1250 C   0  0  0  0  0  3  0  0  0  0  0  0
  188.2220  175.7810  146.8540 N   0  0  0  0  0  0  0  0  0  0  0  0
  187.6300  175.4150  139.8020 C   0  0  0  0  0  3  0  0  0  0  0  0
  188.5910  174.9160  140.6840 C   0  0  0  0  0  3  0  0  0  0  0  0
  188.4220  176.9420  142.0180 C   0  0  0  0  0  0  0  0  0  0  0  0
  193.6300  173.1670  145.5040 C   0  0  0  0  0  3  0  0  0  0  0  0
  191.6210  174.8160  144.4570 C   0  0  0  0  0  0  0  0  0  0  0  0
  191.6290  173.4470  144.1680 C   0  0  0  0  0  3  0  0  0  0  0  0
  192.6300  172.6230  144.6920 C   0  0  0  0  0  3  0  0  0  0  0  0
  193.6310  174.5360  145.7900 C   0  0  0  0  0  3  0  0  0  0  0  0
  192.6310  175.3600  145.2660 C   0  0  0  0  0  3  0  0  0  0  0  0
  1 12  1  0  0  0  0
  2  6  1  0  0  0  0
  3 16  1  0  0  0  0
  6 18  2  0  0  0  0
  7 11  1  0  0  0  0
  7  9  2  0  0  0  0
  8 17  1  0  0  0  0
  9 13  1  0  0  0  0
 10  8  1  0  0  0  0
 11 14  2  0  0  0  0
 12 23  1  1  0  0  0
 12  2  1  0  0  0  0
 13  4  1  0  0  0  0
 13  5  2  0  0  0  0
 14 18  1  0  0  0  0
 14  4  1  0  0  0  0
 15 21  1  0  0  0  0
 15  1  1  0  0  0  0
 16  2  2  0  0  0  0
 16 11  1  0  0  0  0
 17 21  2  0  0  0  0
 19  8  2  0  0  0  0
 19 20  1  0  0  0  0
 20 15  2  0  0  0  0
 21  3  1  0  0  0  0
 22 26  1  0  0  0  0
 23 27  1  0  0  0  0
 24 23  2  0  0  0  0
 24 25  1  0  0  0  0
 25 22  2  0  0  0  0
 27 26  2  0  0  0  0
M  END
>  <MODEL>
5

>  <REMARK>
 VINA RESULT:      -7.7      3.084      7.271
  Name = 
  1 active torsions:
  status: ('A' for Active; 'I' for Inactive)
    1  A    between atoms: C_9  and  C_15
                            x       y       z     vdW  Elec       q    Type
                         _______ _______ _______ _____ _____    ______ ____

>  <TORSDO>
F 1

$$$$
=
 OpenBabel11052418273D

 27 31  0  0  1  0  0  0  0  0999 V2000
  191.2560  174.9560  144.2420 N   0  0  0  0  0  2  0  0  0  0  0  0
  189.0370  175.5470  143.4010 C   0  0  0  0  0  0  0  0  0  0  0  0
  188.7460  175.4630  145.8850 C   0  0  0  0  0  2  0  0  0  0  0  0
  186.2240  178.7590  142.9860 C   0  0  0  0  0  2  0  0  0  0  0  0
  184.7820  180.1660  144.2630 O   0  0  0  0  0  0  0  0  0  0  0  0
  188.7470  176.1290  142.1590 C   0  0  0  0  0  3  0  0  0  0  0  0
  186.8240  177.6140  145.6020 N   0  0  0  0  0  0  0  0  0  0  0  0
  191.5120  176.8980  148.0110 C   0  0  0  0  0  0  0  0  0  0  0  0
  185.9670  178.5880  145.5530 C   0  0  0  0  0  3  0  0  0  0  0  0
  191.6230  177.5400  149.2360 O   0  0  0  0  0  1  0  0  0  0  0  0
  187.4770  177.0940  144.4350 C   0  0  0  0  0  0  0  0  0  0  0  0
  190.0650  174.4540  143.5620 C   0  0  1  0  0  3  0  0  0  0  0  0
  185.6130  179.2210  144.2760 C   0  0  0  0  0  0  0  0  0  0  0  0
  187.2070  177.6350  143.1630 C   0  0  0  0  0  0  0  0  0  0  0  0
  191.2900  175.5940  145.5310 C   0  0  0  0  0  0  0  0  0  0  0  0
  188.4000  176.0420  144.5470 C   0  0  0  0  0  0  0  0  0  0  0  0
  190.2570  176.5100  147.5380 C   0  0  0  0  0  3  0  0  0  0  0  0
  187.8460  177.1420  142.0690 N   0  0  0  0  0  0  0  0  0  0  0  0
  192.6520  176.6380  147.2530 C   0  0  0  0  0  3  0  0  0  0  0  0
  192.5400  175.9910  146.0200 C   0  0  0  0  0  3  0  0  0  0  0  0
  190.1280  175.8630  146.3050 C   0  0  0  0  0  0  0  0  0  0  0  0
  191.1690  172.4240  139.9320 C   0  0  0  0  0  3  0  0  0  0  0  0
  190.4280  173.7460  142.2880 C   0  0  0  0  0  0  0  0  0  0  0  0
  191.5630  174.1550  141.5810 C   0  0  0  0  0  3  0  0  0  0  0  0
  191.9330  173.4970  140.4030 C   0  0  0  0  0  3  0  0  0  0  0  0
  190.0380  172.0070  140.6400 C   0  0  0  0  0  3  0  0  0  0  0  0
  189.6680  172.6640  141.8160 C   0  0  0  0  0  3  0  0  0  0  0  0
  1 15  1  0  0  0  0
  2 12  1  0  0  0  0
  2 16  1  0  0  0  0
  3 21  1  0  0  0  0
  4 14  1  0  0  0  0
  4 13  1  0  0  0  0
  5 13  2  0  0  0  0
  6  2  2  0  0  0  0
  8 10  1  0  0  0  0
  9  7  2  0  0  0  0
 11 16  2  0  0  0  0
 11  7  1  0  0  0  0
 12 23  1  6  0  0  0
 12  1  1  0  0  0  0
 13  9  1  0  0  0  0
 14 11  1  0  0  0  0
 15 20  2  0  0  0  0
 15 21  1  0  0  0  0
 16  3  1  0  0  0  0
 17  8  1  0  0  0  0
 18  6  1  0  0  0  0
 18 14  2  0  0  0  0
 19  8  2  0  0  0  0
 20 19  1  0  0  0  0
 21 17  2  0  0  0  0
 22 25  2  0  0  0  0
 22 26  1  0  0  0  0
 24 23  2  0  0  0  0
 25 24  1  0  0  0  0
 26 27  2  0  0  0  0
 27 23  1  0  0  0  0
M  END
>  <MODEL>
6

>  <REMARK>
 VINA RESULT:      -7.5      2.621      5.956
  Name = 
  1 active torsions:
  status: ('A' for Active; 'I' for Inactive)
    1  A    between atoms: C_9  and  C_15
                            x       y       z     vdW  Elec       q    Type
                         _______ _______ _______ _____ _____    ______ ____

>  <TORSDO>
F 1

$$$$
=
 OpenBabel11052418273D

 27 31  0  0  1  0  0  0  0  0999 V2000
  192.3470  174.9900  146.1120 N   0  0  0  0  0  2  0  0  0  0  0  0
  192.0350  173.5760  144.1420 C   0  0  0  0  0  0  0  0  0  0  0  0
  189.7960  173.5700  145.2580 C   0  0  0  0  0  2  0  0  0  0  0  0
  190.2990  173.4150  140.2230 C   0  0  0  0  0  2  0  0  0  0  0  0
  188.1920  173.3430  139.1070 O   0  0  0  0  0  0  0  0  0  0  0  0
  192.8170  173.5890  142.9780 C   0  0  0  0  0  3  0  0  0  0  0  0
  188.6220  173.4320  142.6110 N   0  0  0  0  0  0  0  0  0  0  0  0
  188.5630  176.8280  146.7050 C   0  0  0  0  0  0  0  0  0  0  0  0
  188.0280  173.3890  141.4580 C   0  0  0  0  0  3  0  0  0  0  0  0
  187.3400  177.4540  146.9050 O   0  0  0  0  0  1  0  0  0  0  0  0
  190.0500  173.4760  142.7480 C   0  0  0  0  0  0  0  0  0  0  0  0
  192.6370  173.6870  145.5220 C   0  0  1  0  0  3  0  0  0  0  0  0
  188.7990  173.3810  140.2090 C   0  0  0  0  0  0  0  0  0  0  0  0
  190.8790  173.4740  141.6090 C   0  0  0  0  0  0  0  0  0  0  0  0
  191.0410  175.5610  146.3060 C   0  0  0  0  0  0  0  0  0  0  0  0
  190.6410  173.5270  144.0200 C   0  0  0  0  0  0  0  0  0  0  0  0
  188.6130  175.5700  146.1020 C   0  0  0  0  0  3  0  0  0  0  0  0
  192.2290  173.5320  141.7550 N   0  0  0  0  0  0  0  0  0  0  0  0
  189.7420  177.4530  147.1090 C   0  0  0  0  0  3  0  0  0  0  0  0
  190.9710  176.8230  146.9080 C   0  0  0  0  0  3  0  0  0  0  0  0
  189.8370  174.9270  145.8920 C   0  0  0  0  0  0  0  0  0  0  0  0
  196.8490  172.8450  145.7650 C   0  0  0  0  0  3  0  0  0  0  0  0
  194.1040  173.3770  145.5890 C   0  0  0  0  0  0  0  0  0  0  0  0
  195.0200  174.4310  145.6780 C   0  0  0  0  0  3  0  0  0  0  0  0
  196.3910  174.1660  145.7630 C   0  0  0  0  0  3  0  0  0  0  0  0
  195.9380  171.7880  145.6840 C   0  0  0  0  0  3  0  0  0  0  0  0
  194.5680  172.0520  145.5990 C   0  0  0  0  0  3  0  0  0  0  0  0
  1 15  1  0  0  0  0
  2 12  1  0  0  0  0
  3 21  1  0  0  0  0
  4 14  1  0  0  0  0
  5 13  2  0  0  0  0
  6  2  2  0  0  0  0
  7 11  1  0  0  0  0
  8 10  1  0  0  0  0
  8 19  1  0  0  0  0
  9  7  2  0  0  0  0
 11 16  2  0  0  0  0
 12 23  1  6  0  0  0
 12  1  1  0  0  0  0
 13  4  1  0  0  0  0
 13  9  1  0  0  0  0
 14 18  2  0  0  0  0
 14 11  1  0  0  0  0
 15 20  1  0  0  0  0
 16  2  1  0  0  0  0
 16  3  1  0  0  0  0
 17  8  2  0  0  0  0
 18  6  1  0  0  0  0
 20 19  2  0  0  0  0
 21 17  1  0  0  0  0
 21 15  2  0  0  0  0
 23 27  2  0  0  0  0
 23 24  1  0  0  0  0
 24 25  2  0  0  0  0
 25 22  1  0  0  0  0
 26 22  2  0  0  0  0
 27 26  1  0  0  0  0
M  END
>  <MODEL>
7

>  <REMARK>
 VINA RESULT:      -7.4      3.131      6.500
  Name = 
  1 active torsions:
  status: ('A' for Active; 'I' for Inactive)
    1  A    between atoms: C_9  and  C_15
                            x       y       z     vdW  Elec       q    Type
                         _______ _______ _______ _____ _____    ______ ____

>  <TORSDO>
F 1

$$$$
=
 OpenBabel11052418273D

 27 31  0  0  1  0  0  0  0  0999 V2000
  188.3330  175.0770  143.1610 N   0  0  0  0  0  2  0  0  0  0  0  0
  190.1790  175.7000  144.6380 C   0  0  0  0  0  0  0  0  0  0  0  0
  190.5100  173.2510  144.2470 C   0  0  0  0  0  2  0  0  0  0  0  0
  194.4000  176.4430  144.7950 C   0  0  0  0  0  2  0  0  0  0  0  0
  196.5070  175.3370  144.6310 O   0  0  0  0  0  0  0  0  0  0  0  0
  190.7040  176.9880  144.8140 C   0  0  0  0  0  3  0  0  0  0  0  0
  193.3630  173.7480  144.3810 N   0  0  0  0  0  0  0  0  0  0  0  0
  189.9080  171.9480  140.7590 C   0  0  0  0  0  0  0  0  0  0  0  0
  194.6510  173.8990  144.4110 C   0  0  0  0  0  3  0  0  0  0  0  0
  190.4110  170.9380  139.9500 O   0  0  0  0  0  1  0  0  0  0  0  0
  192.4480  174.8420  144.5380 C   0  0  0  0  0  0  0  0  0  0  0  0
  188.6960  175.4390  144.5280 C   0  0  1  0  0  3  0  0  0  0  0  0
  195.2540  175.2230  144.6120 C   0  0  0  0  0  0  0  0  0  0  0  0
  192.9270  176.1530  144.7330 C   0  0  0  0  0  0  0  0  0  0  0  0
  188.8880  173.9930  142.3950 C   0  0  0  0  0  0  0  0  0  0  0  0
  191.0630  174.6230  144.4920 C   0  0  0  0  0  0  0  0  0  0  0  0
  190.4170  172.1280  142.0460 C   0  0  0  0  0  3  0  0  0  0  0  0
  192.0470  177.1810  144.8630 N   0  0  0  0  0  0  0  0  0  0  0  0
  188.8960  172.7820  140.2870 C   0  0  0  0  0  3  0  0  0  0  0  0
  188.3920  173.7980  141.1010 C   0  0  0  0  0  3  0  0  0  0  0  0
  189.9230  173.1430  142.8720 C   0  0  0  0  0  0  0  0  0  0  0  0
  186.1600  178.6080  145.9550 C   0  0  0  0  0  3  0  0  0  0  0  0
  187.8270  176.5490  145.0430 C   0  0  0  0  0  0  0  0  0  0  0  0
  187.2490  177.4400  144.1330 C   0  0  0  0  0  3  0  0  0  0  0  0
  186.4180  178.4690  144.5880 C   0  0  0  0  0  3  0  0  0  0  0  0
  186.7300  177.7150  146.8680 C   0  0  0  0  0  3  0  0  0  0  0  0
  187.5600  176.6860  146.4140 C   0  0  0  0  0  3  0  0  0  0  0  0
  1 12  1  0  0  0  0
  2  6  1  0  0  0  0
  3 16  1  0  0  0  0
  6 18  2  0  0  0  0
  7  9  2  0  0  0  0
  7 11  1  0  0  0  0
  8 17  1  0  0  0  0
  9 13  1  0  0  0  0
 10  8  1  0  0  0  0
 11 14  2  0  0  0  0
 12  2  1  0  0  0  0
 12 23  1  6  0  0  0
 13  5  2  0  0  0  0
 13  4  1  0  0  0  0
 14  4  1  0  0  0  0
 14 18  1  0  0  0  0
 15 21  1  0  0  0  0
 15  1  1  0  0  0  0
 16 11  1  0  0  0  0
 16  2  2  0  0  0  0
 17 21  2  0  0  0  0
 19  8  2  0  0  0  0
 19 20  1  0  0  0  0
 20 15  2  0  0  0  0
 21  3  1  0  0  0  0
 22 26  1  0  0  0  0
 23 27  1  0  0  0  0
 24 25  1  0  0  0  0
 24 23  2  0  0  0  0
 25 22  2  0  0  0  0
 27 26  2  0  0  0  0
M  END
>  <MODEL>
8

>  <REMARK>
 VINA RESULT:      -7.4      2.008      5.273
  Name = 
  1 active torsions:
  status: ('A' for Active; 'I' for Inactive)
    1  A    between atoms: C_9  and  C_15
                            x       y       z     vdW  Elec       q    Type
                         _______ _______ _______ _____ _____    ______ ____

>  <TORSDO>
F 1

$$$$
=
 OpenBabel11052418273D

 27 31  0  0  1  0  0  0  0  0999 V2000
  191.5630  174.2610  143.1680 N   0  0  0  0  0  2  0  0  0  0  0  0
  190.4110  175.9010  144.5690 C   0  0  0  0  0  0  0  0  0  0  0  0
  189.3790  176.1960  142.3100 C   0  0  0  0  0  2  0  0  0  0  0  0
  186.7230  176.7680  146.5810 C   0  0  0  0  0  2  0  0  0  0  0  0
  184.4440  177.3310  146.1590 O   0  0  0  0  0  0  0  0  0  0  0  0
  190.2970  175.8660  145.9660 C   0  0  0  0  0  3  0  0  0  0  0  0
  186.8930  176.8100  143.6680 N   0  0  0  0  0  0  0  0  0  0  0  0
  188.6540  173.0840  140.3060 C   0  0  0  0  0  0  0  0  0  0  0  0
  185.7440  177.0760  144.2080 C   0  0  0  0  0  3  0  0  0  0  0  0
  187.7120  172.6710  139.3740 O   0  0  0  0  0  1  0  0  0  0  0  0
  188.0610  176.4970  144.4410 C   0  0  0  0  0  0  0  0  0  0  0  0
  191.6910  175.5440  143.8530 C   0  0  1  0  0  3  0  0  0  0  0  0
  185.5730  177.0730  145.6670 C   0  0  0  0  0  0  0  0  0  0  0  0
  188.0000  176.4650  145.8480 C   0  0  0  0  0  0  0  0  0  0  0  0
  190.5650  173.9180  142.1910 C   0  0  0  0  0  0  0  0  0  0  0  0
  189.2790  176.2120  143.8050 C   0  0  0  0  0  0  0  0  0  0  0  0
  188.5800  174.3660  140.8510 C   0  0  0  0  0  3  0  0  0  0  0  0
  189.1120  176.1510  146.5650 N   0  0  0  0  0  0  0  0  0  0  0  0
  189.6750  172.2190  140.6970 C   0  0  0  0  0  3  0  0  0  0  0  0
  190.6220  172.6350  141.6350 C   0  0  0  0  0  3  0  0  0  0  0  0
  189.5200  174.7970  141.7930 C   0  0  0  0  0  0  0  0  0  0  0  0
  195.2410  175.5960  146.2830 C   0  0  0  0  0  3  0  0  0  0  0  0
  192.9180  175.5760  144.7170 C   0  0  0  0  0  0  0  0  0  0  0  0
  193.6030  174.3840  144.9730 C   0  0  0  0  0  3  0  0  0  0  0  0
  194.7620  174.3930  145.7570 C   0  0  0  0  0  3  0  0  0  0  0  0
  194.5640  176.7920  146.0240 C   0  0  0  0  0  3  0  0  0  0  0  0
  193.4070  176.7840  145.2400 C   0  0  0  0  0  3  0  0  0  0  0  0
  1 12  1  0  0  0  0
  2  6  1  0  0  0  0
  3 16  1  0  0  0  0
  6 18  2  0  0  0  0
  7  9  2  0  0  0  0
  7 11  1  0  0  0  0
  8 19  2  0  0  0  0
  8 17  1  0  0  0  0
  9 13  1  0  0  0  0
 10  8  1  0  0  0  0
 11 14  2  0  0  0  0
 12  2  1  0  0  0  0
 12 23  1  1  0  0  0
 13  5  2  0  0  0  0
 13  4  1  0  0  0  0
 14 18  1  0  0  0  0
 14  4  1  0  0  0  0
 15  1  1  0  0  0  0
 16 11  1  0  0  0  0
 16  2  2  0  0  0  0
 17 21  2  0  0  0  0
 19 20  1  0  0  0  0
 20 15  2  0  0  0  0
 21 15  1  0  0  0  0
 21  3  1  0  0  0  0
 23 24  2  0  0  0  0
 23 27  1  0  0  0  0
 24 25  1  0  0  0  0
 25 22  2  0  0  0  0
 26 22  1  0  0  0  0
 27 26  2  0  0  0  0
M  END
>  <MODEL>
9

>  <REMARK>
 VINA RESULT:      -7.3      2.474      7.001
  Name = 
  1 active torsions:
  status: ('A' for Active; 'I' for Inactive)
    1  A    between atoms: C_9  and  C_15
                            x       y       z     vdW  Elec       q    Type
                         _______ _______ _______ _____ _____    ______ ____

>  <TORSDO>
F 1

$$$$
