=
 OpenBabel11052417223D

 30 33  0  0  1  0  0  0  0  0999 V2000
  188.0280  174.8960  140.8510 C   0  0  0  0  0  0  0  0  0  0  0  0
  186.8540  177.0120  140.9640 C   0  0  0  0  0  3  0  0  0  0  0  0
  187.2950  177.2400  145.1670 O   0  0  0  0  0  0  0  0  0  0  0  0
  190.3540  175.9110  143.0910 C   0  0  0  0  0  2  0  0  0  0  0  0
  188.2620  173.6570  141.5280 N   0  0  0  0  0  0  0  0  0  0  0  0
  191.7280  173.4050  140.9800 C   0  0  1  0  0  3  0  0  0  0  0  0
  190.3740  173.4360  140.5560 O   0  0  0  0  0  0  0  0  0  0  0  0
  189.5060  171.6900  142.1320 C   0  0  0  0  0  1  0  0  0  0  0  0
  190.0570  174.7610  145.9200 C   0  0  2  0  0  3  0  0  0  0  0  0
  188.2050  176.4620  145.8690 C   0  0  0  0  0  0  0  0  0  0  0  0
  189.3430  172.9610  141.3710 C   0  0  0  0  0  0  0  0  0  0  0  0
  191.2780  174.7820  142.9720 N   0  0  0  0  0  0  0  0  0  0  0  0
  186.3960  178.2480  141.6730 C   0  0  0  0  0  2  0  0  0  0  0  0
  190.5770  173.5600  145.1240 C   0  0  0  0  0  2  0  0  0  0  0  0
  192.6280  173.3110  139.7660 C   0  0  0  0  0  1  0  0  0  0  0  0
  188.2060  174.9710  139.6030 O   0  0  0  0  0  0  0  0  0  0  0  0
  187.1240  177.1190  143.7860 C   0  0  0  0  0  0  0  0  0  0  0  0
  186.0270  177.9200  143.1170 C   0  0  1  0  0  3  0  0  0  0  0  0
  192.0540  174.6870  141.7400 C   0  0  0  0  0  2  0  0  0  0  0  0
  187.5720  176.0800  141.6040 C   0  0  0  0  0  0  0  0  0  0  0  0
  189.0200  175.4850  143.6960 C   0  0  1  0  0  3  0  0  0  0  0  0
  188.2270  176.5290  147.1260 O   0  0  0  0  0  0  0  0  0  0  0  0
  189.0920  175.5820  145.1630 N   0  0  0  0  0  0  0  0  0  0  0  0
  192.7350  173.3900  144.1540 O   0  0  0  0  0  0  0  0  0  0  0  0
  185.7520  179.2130  143.8630 C   0  0  0  0  0  1  0  0  0  0  0  0
  187.8660  176.2490  143.0640 C   0  0  0  0  0  0  0  0  0  0  0  0
  191.5950  173.9200  144.0810 C   0  0  0  0  0  0  0  0  0  0  0  0
  191.2050  175.5690  146.5460 C   0  0  2  0  0  3  0  0  0  0  0  0
  191.1680  175.4810  148.0580 C   0  0  0  0  0  1  0  0  0  0  0  0
  191.1870  176.9060  146.1430 O   0  0  0  0  0  1  0  0  0  0  0  0
  1  5  1  0  0  0  0
  1 20  1  0  0  0  0
  2 20  2  0  0  0  0
  2 13  1  0  0  0  0
  3 10  1  0  0  0  0
  6 15  1  6  0  0  0
  6 19  1  0  0  0  0
  7  6  1  0  0  0  0
  7 11  1  0  0  0  0
  9 28  1  6  0  0  0
 10 22  2  0  0  0  0
 11  5  2  0  0  0  0
 11  8  1  0  0  0  0
 12  4  1  0  0  0  0
 12 27  1  0  0  0  0
 13 18  1  0  0  0  0
 14  9  1  0  0  0  0
 16  1  2  0  0  0  0
 17  3  1  0  0  0  0
 18 17  1  0  0  0  0
 18 25  1  1  0  0  0
 19 12  1  0  0  0  0
 20 26  1  0  0  0  0
 21  4  1  6  0  0  0
 21 23  1  0  0  0  0
 23 10  1  0  0  0  0
 23  9  1  0  0  0  0
 26 21  1  0  0  0  0
 26 17  2  0  0  0  0
 27 24  2  0  0  0  0
 27 14  1  0  0  0  0
 28 29  1  1  0  0  0
 30 28  1  0  0  0  0
M  END
>  <MODEL>
1

>  <REMARK>
 VINA RESULT:      -7.8      0.000      0.000
  Name = 
  1 active torsions:
  status: ('A' for Active; 'I' for Inactive)
    1  A    between atoms: C_7  and  C_10
                            x       y       z     vdW  Elec       q    Type
                         _______ _______ _______ _____ _____    ______ ____

>  <TORSDO>
F 1

$$$$
=
 OpenBabel11052417223D

 30 33  0  0  1  0  0  0  0  0999 V2000
  191.3720  176.5040  145.9030 C   0  0  0  0  0  0  0  0  0  0  0  0
  189.2600  177.1660  146.8880 C   0  0  0  0  0  3  0  0  0  0  0  0
  187.1830  176.6290  143.2400 O   0  0  0  0  0  0  0  0  0  0  0  0
  189.9300  173.9790  144.1700 C   0  0  0  0  0  2  0  0  0  0  0  0
  192.1660  176.5490  144.7130 N   0  0  0  0  0  0  0  0  0  0  0  0
  193.3560  173.2390  144.7510 C   0  0  1  0  0  3  0  0  0  0  0  0
  193.2480  174.5560  145.2690 O   0  0  0  0  0  0  0  0  0  0  0  0
  193.8290  175.7770  143.1580 C   0  0  0  0  0  1  0  0  0  0  0  0
  189.5280  174.4930  141.1720 C   0  0  2  0  0  3  0  0  0  0  0  0
  187.7090  175.9110  142.1750 C   0  0  0  0  0  0  0  0  0  0  0  0
  193.0620  175.6560  144.4290 C   0  0  0  0  0  0  0  0  0  0  0  0
  191.1460  173.3380  143.6680 N   0  0  0  0  0  0  0  0  0  0  0  0
  187.7710  177.3210  146.8730 C   0  0  0  0  0  2  0  0  0  0  0  0
  191.0400  174.2700  141.2730 C   0  0  0  0  0  2  0  0  0  0  0  0
  194.1910  172.3990  145.6940 C   0  0  0  0  0  1  0  0  0  0  0  0
  191.9300  176.3300  147.0220 O   0  0  0  0  0  0  0  0  0  0  0  0
  187.8990  176.8420  144.4190 C   0  0  0  0  0  0  0  0  0  0  0  0
  187.2990  177.7370  145.4820 C   0  0  1  0  0  3  0  0  0  0  0  0
  191.9660  172.6190  144.6380 C   0  0  0  0  0  2  0  0  0  0  0  0
  189.9080  176.6690  145.8260 C   0  0  0  0  0  0  0  0  0  0  0  0
  189.7360  175.3680  143.5670 C   0  0  1  0  0  3  0  0  0  0  0  0
  187.0660  175.8580  141.0940 O   0  0  0  0  0  0  0  0  0  0  0  0
  188.9790  175.2560  142.3090 N   0  0  0  0  0  0  0  0  0  0  0  0
  192.0870  172.2200  141.8450 O   0  0  0  0  0  0  0  0  0  0  0  0
  185.7820  177.7010  145.4450 C   0  0  0  0  0  1  0  0  0  0  0  0
  189.1380  176.3260  144.5860 C   0  0  0  0  0  0  0  0  0  0  0  0
  191.4310  173.2100  142.2620 C   0  0  0  0  0  0  0  0  0  0  0  0
  188.7780  173.1840  140.8810 C   0  0  2  0  0  3  0  0  0  0  0  0
  188.1920  173.1940  139.4840 C   0  0  0  0  0  1  0  0  0  0  0  0
  187.7750  172.9330  141.8200 O   0  0  0  0  0  1  0  0  0  0  0  0
  1 16  2  0  0  0  0
  3 17  1  0  0  0  0
  5  1  1  0  0  0  0
  6  7  1  0  0  0  0
  6 15  1  1  0  0  0
  8 11  1  0  0  0  0
  9 28  1  1  0  0  0
  9 14  1  0  0  0  0
  9 23  1  0  0  0  0
 10 23  1  0  0  0  0
 10  3  1  0  0  0  0
 11  5  2  0  0  0  0
 11  7  1  0  0  0  0
 12  4  1  0  0  0  0
 12 19  1  0  0  0  0
 13  2  1  0  0  0  0
 14 27  1  0  0  0  0
 17 26  2  0  0  0  0
 17 18  1  0  0  0  0
 18 25  1  1  0  0  0
 18 13  1  0  0  0  0
 19  6  1  0  0  0  0
 20  1  1  0  0  0  0
 20  2  2  0  0  0  0
 21  4  1  1  0  0  0
 21 26  1  0  0  0  0
 22 10  2  0  0  0  0
 23 21  1  0  0  0  0
 24 27  2  0  0  0  0
 26 20  1  0  0  0  0
 27 12  1  0  0  0  0
 28 29  1  6  0  0  0
 28 30  1  0  0  0  0
M  END
>  <MODEL>
2

>  <REMARK>
 VINA RESULT:      -7.5      1.866      4.904
  Name = 
  1 active torsions:
  status: ('A' for Active; 'I' for Inactive)
    1  A    between atoms: C_7  and  C_10
                            x       y       z     vdW  Elec       q    Type
                         _______ _______ _______ _____ _____    ______ ____

>  <TORSDO>
F 1

$$$$
=
 OpenBabel11052417223D

 30 33  0  0  1  0  0  0  0  0999 V2000
  188.8330  175.2710  141.9120 C   0  0  0  0  0  0  0  0  0  0  0  0
  187.4790  176.5900  140.3960 C   0  0  0  0  0  3  0  0  0  0  0  0
  184.7960  177.7060  143.4730 O   0  0  0  0  0  0  0  0  0  0  0  0
  188.6240  177.6090  144.3510 C   0  0  0  0  0  2  0  0  0  0  0  0
  188.7970  174.4150  143.0590 N   0  0  0  0  0  0  0  0  0  0  0  0
  191.5940  175.7030  144.7600 C   0  0  1  0  0  3  0  0  0  0  0  0
  190.9620  175.0330  143.6810 O   0  0  0  0  0  0  0  0  0  0  0  0
  189.6650  173.3800  145.0480 C   0  0  0  0  0  1  0  0  0  0  0  0
  186.7070  176.9510  146.6540 C   0  0  2  0  0  3  0  0  0  0  0  0
  185.1000  177.5680  144.8210 C   0  0  0  0  0  0  0  0  0  0  0  0
  189.8000  174.2820  143.8700 C   0  0  0  0  0  0  0  0  0  0  0  0
  189.5890  177.0330  145.2880 N   0  0  0  0  0  0  0  0  0  0  0  0
  186.3940  177.5750  140.0890 C   0  0  0  0  0  2  0  0  0  0  0  0
  187.8860  176.0100  146.9210 C   0  0  0  0  0  2  0  0  0  0  0  0
  193.0750  175.8320  144.4680 C   0  0  0  0  0  1  0  0  0  0  0  0
  189.8070  175.2070  141.1120 O   0  0  0  0  0  0  0  0  0  0  0  0
  185.6690  177.2870  142.4680 C   0  0  0  0  0  0  0  0  0  0  0  0
  185.2100  177.3640  141.0280 C   0  0  1  0  0  3  0  0  0  0  0  0
  190.9980  177.1000  144.9140 C   0  0  0  0  0  2  0  0  0  0  0  0
  187.7310  176.2190  141.6590 C   0  0  0  0  0  0  0  0  0  0  0  0
  187.3900  176.7240  144.1990 C   0  0  1  0  0  3  0  0  0  0  0  0
  184.2230  177.8500  145.6790 O   0  0  0  0  0  0  0  0  0  0  0  0
  186.3940  177.0910  145.2190 N   0  0  0  0  0  0  0  0  0  0  0  0
  190.0690  176.6940  147.5500 O   0  0  0  0  0  0  0  0  0  0  0  0
  184.2120  178.4890  140.8240 C   0  0  0  0  0  1  0  0  0  0  0  0
  186.8740  176.7500  142.7690 C   0  0  0  0  0  0  0  0  0  0  0  0
  189.2250  176.6170  146.6180 C   0  0  0  0  0  0  0  0  0  0  0  0
  186.8700  178.2910  147.3900 C   0  0  2  0  0  3  0  0  0  0  0  0
  185.9420  178.3690  148.5850 C   0  0  0  0  0  1  0  0  0  0  0  0
  186.6560  179.3830  146.5460 O   0  0  0  0  0  1  0  0  0  0  0  0
  1  5  1  0  0  0  0
  2 20  2  0  0  0  0
  3 10  1  0  0  0  0
  4 12  1  0  0  0  0
  5 11  2  0  0  0  0
  6 15  1  6  0  0  0
  6 19  1  0  0  0  0
  7 11  1  0  0  0  0
  7  6  1  0  0  0  0
  9 14  1  0  0  0  0
  9 28  1  6  0  0  0
 10 23  1  0  0  0  0
 10 22  2  0  0  0  0
 11  8  1  0  0  0  0
 12 27  1  0  0  0  0
 13  2  1  0  0  0  0
 13 18  1  0  0  0  0
 16  1  2  0  0  0  0
 17 26  2  0  0  0  0
 17  3  1  0  0  0  0
 18 25  1  1  0  0  0
 18 17  1  0  0  0  0
 19 12  1  0  0  0  0
 20  1  1  0  0  0  0
 20 26  1  0  0  0  0
 21  4  1  6  0  0  0
 21 23  1  0  0  0  0
 23  9  1  0  0  0  0
 26 21  1  0  0  0  0
 27 14  1  0  0  0  0
 27 24  2  0  0  0  0
 28 29  1  1  0  0  0
 30 28  1  0  0  0  0
M  END
>  <MODEL>
3

>  <REMARK>
 VINA RESULT:      -7.3      2.143      3.567
  Name = 
  1 active torsions:
  status: ('A' for Active; 'I' for Inactive)
    1  A    between atoms: C_7  and  C_10
                            x       y       z     vdW  Elec       q    Type
                         _______ _______ _______ _____ _____    ______ ____

>  <TORSDO>
F 1

$$$$
=
 OpenBabel11052417223D

 30 33  0  0  1  0  0  0  0  0999 V2000
  188.3870  173.6490  142.0150 C   0  0  0  0  0  0  0  0  0  0  0  0
  186.9460  175.5660  142.3580 C   0  0  0  0  0  3  0  0  0  0  0  0
  189.1790  176.8760  145.7060 O   0  0  0  0  0  0  0  0  0  0  0  0
  191.1770  175.4650  142.6320 C   0  0  0  0  0  2  0  0  0  0  0  0
  189.1770  172.6550  142.6750 N   0  0  0  0  0  0  0  0  0  0  0  0
  191.9740  172.7050  140.5410 C   0  0  1  0  0  3  0  0  0  0  0  0
  190.6080  172.4630  140.8380 O   0  0  0  0  0  0  0  0  0  0  0  0
  190.9700  171.0660  142.8880 C   0  0  0  0  0  1  0  0  0  0  0  0
  192.4640  175.0200  145.3820 C   0  0  2  0  0  3  0  0  0  0  0  0
  190.4580  176.4140  145.9820 C   0  0  0  0  0  0  0  0  0  0  0  0
  190.1960  172.0800  142.1170 C   0  0  0  0  0  0  0  0  0  0  0  0
  192.1760  174.4650  142.2530 N   0  0  0  0  0  0  0  0  0  0  0  0
  186.5920  176.8730  142.9980 C   0  0  0  0  0  2  0  0  0  0  0  0
  192.8240  173.7340  144.6320 C   0  0  0  0  0  2  0  0  0  0  0  0
  192.2200  172.4280  139.0730 C   0  0  0  0  0  1  0  0  0  0  0  0
  187.9590  173.4360  140.8470 O   0  0  0  0  0  0  0  0  0  0  0  0
  188.4330  176.3980  144.6260 C   0  0  0  0  0  0  0  0  0  0  0  0
  187.0030  176.8670  144.4670 C   0  0  1  0  0  3  0  0  0  0  0  0
  192.3090  174.1660  140.8310 C   0  0  0  0  0  2  0  0  0  0  0  0
  188.0670  174.9170  142.6990 C   0  0  0  0  0  0  0  0  0  0  0  0
  190.3980  175.0390  143.8730 C   0  0  1  0  0  3  0  0  0  0  0  0
  191.0310  176.7910  147.0380 O   0  0  0  0  0  0  0  0  0  0  0  0
  191.1030  175.5030  145.0790 N   0  0  0  0  0  0  0  0  0  0  0  0
  194.2840  173.5980  142.7670 O   0  0  0  0  0  0  0  0  0  0  0  0
  186.8100  178.2600  145.0390 C   0  0  0  0  0  1  0  0  0  0  0  0
  188.9440  175.4760  143.7790 C   0  0  0  0  0  0  0  0  0  0  0  0
  193.1480  173.9490  143.1820 C   0  0  0  0  0  0  0  0  0  0  0  0
  193.5540  176.0930  145.2270 C   0  0  2  0  0  3  0  0  0  0  0  0
  194.1910  176.4140  146.5630 C   0  0  0  0  0  1  0  0  0  0  0  0
  193.0620  177.2600  144.6380 O   0  0  0  0  0  1  0  0  0  0  0  0
  1  5  1  0  0  0  0
  1 20  1  0  0  0  0
  2 20  2  0  0  0  0
  2 13  1  0  0  0  0
  3 10  1  0  0  0  0
  6 15  1  6  0  0  0
  6 19  1  0  0  0  0
  6  7  1  0  0  0  0
  7 11  1  0  0  0  0
  9 28  1  6  0  0  0
 10 22  2  0  0  0  0
 11  5  2  0  0  0  0
 11  8  1  0  0  0  0
 12  4  1  0  0  0  0
 12 27  1  0  0  0  0
 13 18  1  0  0  0  0
 14  9  1  0  0  0  0
 16  1  2  0  0  0  0
 17  3  1  0  0  0  0
 18 17  1  0  0  0  0
 18 25  1  6  0  0  0
 19 12  1  0  0  0  0
 20 26  1  0  0  0  0
 21  4  1  6  0  0  0
 21 23  1  0  0  0  0
 23  9  1  0  0  0  0
 23 10  1  0  0  0  0
 24 27  2  0  0  0  0
 26 21  1  0  0  0  0
 26 17  2  0  0  0  0
 27 14  1  0  0  0  0
 28 29  1  1  0  0  0
 30 28  1  0  0  0  0
M  END
>  <MODEL>
4

>  <REMARK>
 VINA RESULT:      -7.2      1.584      1.943
  Name = 
  1 active torsions:
  status: ('A' for Active; 'I' for Inactive)
    1  A    between atoms: C_7  and  C_10
                            x       y       z     vdW  Elec       q    Type
                         _______ _______ _______ _____ _____    ______ ____

>  <TORSDO>
F 1

$$$$
=
 OpenBabel11052417223D

 30 33  0  0  1  0  0  0  0  0999 V2000
  192.9480  175.5220  146.4720 C   0  0  0  0  0  0  0  0  0  0  0  0
  195.3170  175.1120  146.1660 C   0  0  0  0  0  3  0  0  0  0  0  0
  194.6290  171.2520  144.5730 O   0  0  0  0  0  0  0  0  0  0  0  0
  192.1810  174.1260  143.4850 C   0  0  0  0  0  2  0  0  0  0  0  0
  191.6970  174.9150  146.8080 N   0  0  0  0  0  0  0  0  0  0  0  0
  189.6850  176.4880  144.3870 C   0  0  1  0  0  3  0  0  0  0  0  0
  190.5120  176.4790  145.5410 O   0  0  0  0  0  0  0  0  0  0  0  0
  189.3050  174.6680  146.7840 C   0  0  0  0  0  1  0  0  0  0  0  0
  190.9670  171.3120  143.6120 C   0  0  2  0  0  3  0  0  0  0  0  0
  193.3860  170.8400  144.1140 C   0  0  0  0  0  0  0  0  0  0  0  0
  190.5570  175.3770  146.3970 C   0  0  0  0  0  0  0  0  0  0  0  0
  190.7660  174.4910  143.4310 N   0  0  0  0  0  0  0  0  0  0  0  0
  196.4790  174.3300  145.6370 C   0  0  0  0  0  2  0  0  0  0  0  0
  189.8130  172.1960  144.0950 C   0  0  0  0  0  2  0  0  0  0  0  0
  189.3020  177.9160  144.0600 C   0  0  0  0  0  1  0  0  0  0  0  0
  193.1020  176.7660  146.6220 O   0  0  0  0  0  0  0  0  0  0  0  0
  194.8310  172.5110  145.1430 C   0  0  0  0  0  0  0  0  0  0  0  0
  196.1900  172.8340  145.7260 C   0  0  1  0  0  3  0  0  0  0  0  0
  190.4510  175.8980  143.2060 C   0  0  0  0  0  2  0  0  0  0  0  0
  194.0600  174.6970  145.9590 C   0  0  0  0  0  0  0  0  0  0  0  0
  192.4650  173.1320  144.6070 C   0  0  1  0  0  3  0  0  0  0  0  0
  193.2390  169.6520  143.7240 O   0  0  0  0  0  0  0  0  0  0  0  0
  192.2830  171.7600  144.1050 N   0  0  0  0  0  0  0  0  0  0  0  0
  188.6450  173.7730  142.7630 O   0  0  0  0  0  0  0  0  0  0  0  0
  197.2940  172.0750  145.0130 C   0  0  0  0  0  1  0  0  0  0  0  0
  193.8180  173.4020  145.2450 C   0  0  0  0  0  0  0  0  0  0  0  0
  189.7140  173.5090  143.3740 C   0  0  0  0  0  0  0  0  0  0  0  0
  190.9140  171.0880  142.0920 C   0  0  2  0  0  3  0  0  0  0  0  0
  190.8160  169.6120  141.7650 C   0  0  0  0  0  1  0  0  0  0  0  0
  192.0130  171.6520  141.4400 O   0  0  0  0  0  1  0  0  0  0  0  0
  1 16  2  0  0  0  0
  1  5  1  0  0  0  0
  3 17  1  0  0  0  0
  6 15  1  6  0  0  0
  6  7  1  0  0  0  0
  7 11  1  0  0  0  0
  9 28  1  6  0  0  0
  9 14  1  0  0  0  0
  9 23  1  0  0  0  0
 10  3  1  0  0  0  0
 11  8  1  0  0  0  0
 11  5  2  0  0  0  0
 12  4  1  0  0  0  0
 13 18  1  0  0  0  0
 13  2  1  0  0  0  0
 17 26  2  0  0  0  0
 17 18  1  0  0  0  0
 18 25  1  6  0  0  0
 19 12  1  0  0  0  0
 19  6  1  0  0  0  0
 20  2  2  0  0  0  0
 20  1  1  0  0  0  0
 21  4  1  6  0  0  0
 21 26  1  0  0  0  0
 22 10  2  0  0  0  0
 23 10  1  0  0  0  0
 23 21  1  0  0  0  0
 24 27  2  0  0  0  0
 26 20  1  0  0  0  0
 27 12  1  0  0  0  0
 27 14  1  0  0  0  0
 28 29  1  1  0  0  0
 30 28  1  0  0  0  0
M  END
>  <MODEL>
5

>  <REMARK>
 VINA RESULT:      -7.2      2.868      7.302
  Name = 
  1 active torsions:
  status: ('A' for Active; 'I' for Inactive)
    1  A    between atoms: C_7  and  C_10
                            x       y       z     vdW  Elec       q    Type
                         _______ _______ _______ _____ _____    ______ ____

>  <TORSDO>
F 1

$$$$
=
 OpenBabel11052417223D

 30 33  0  0  1  0  0  0  0  0999 V2000
  188.6150  174.0950  142.0010 C   0  0  0  0  0  0  0  0  0  0  0  0
  189.4990  171.8430  141.8860 C   0  0  0  0  0  3  0  0  0  0  0  0
  193.3050  173.0700  143.2710 O   0  0  0  0  0  0  0  0  0  0  0  0
  190.1500  174.6940  144.9580 C   0  0  0  0  0  2  0  0  0  0  0  0
  188.9320  175.4800  141.8280 N   0  0  0  0  0  0  0  0  0  0  0  0
  187.2720  176.7560  144.6550 C   0  0  1  0  0  3  0  0  0  0  0  0
  187.3160  176.1240  143.3850 O   0  0  0  0  0  0  0  0  0  0  0  0
  188.7200  177.8430  142.2210 C   0  0  0  0  0  1  0  0  0  0  0  0
  192.6510  176.4650  144.8160 C   0  0  2  0  0  3  0  0  0  0  0  0
  193.5190  174.2920  143.8940 C   0  0  0  0  0  0  0  0  0  0  0  0
  188.3080  176.4300  142.4520 C   0  0  0  0  0  0  0  0  0  0  0  0
  189.5290  175.9810  145.2680 N   0  0  0  0  0  0  0  0  0  0  0  0
  190.5400  170.8020  142.1580 C   0  0  0  0  0  2  0  0  0  0  0  0
  191.5160  177.4700  144.5950 C   0  0  0  0  0  2  0  0  0  0  0  0
  185.8410  176.7870  145.1480 C   0  0  0  0  0  1  0  0  0  0  0  0
  187.4140  173.7130  141.9220 O   0  0  0  0  0  0  0  0  0  0  0  0
  192.0540  172.6980  142.7730 C   0  0  0  0  0  0  0  0  0  0  0  0
  191.9360  171.4010  142.0030 C   0  0  1  0  0  3  0  0  0  0  0  0
  188.1200  175.9650  145.6480 C   0  0  0  0  0  2  0  0  0  0  0  0
  189.6860  173.1150  142.2620 C   0  0  0  0  0  0  0  0  0  0  0  0
  191.0540  174.7850  143.7320 C   0  0  1  0  0  3  0  0  0  0  0  0
  194.6920  174.6220  144.2110 O   0  0  0  0  0  0  0  0  0  0  0  0
  192.4120  175.1700  144.1520 N   0  0  0  0  0  0  0  0  0  0  0  0
  189.8960  178.0860  146.2160 O   0  0  0  0  0  0  0  0  0  0  0  0
  192.9630  170.3850  142.4680 C   0  0  0  0  0  1  0  0  0  0  0  0
  190.9810  173.5110  142.9050 C   0  0  0  0  0  0  0  0  0  0  0  0
  190.2930  177.1930  145.4210 C   0  0  0  0  0  0  0  0  0  0  0  0
  193.0210  176.3430  146.3030 C   0  0  2  0  0  3  0  0  0  0  0  0
  194.4100  176.8900  146.5610 C   0  0  0  0  0  1  0  0  0  0  0  0
  192.9320  175.0260  146.7600 O   0  0  0  0  0  1  0  0  0  0  0  0
  1 20  1  0  0  0  0
  2 13  1  0  0  0  0
  2 20  2  0  0  0  0
  3 10  1  0  0  0  0
  4 12  1  0  0  0  0
  5  1  1  0  0  0  0
  5 11  2  0  0  0  0
  6 15  1  1  0  0  0
  6 19  1  0  0  0  0
  7  6  1  0  0  0  0
  8 11  1  0  0  0  0
  9 28  1  1  0  0  0
 10 23  1  0  0  0  0
 10 22  2  0  0  0  0
 11  7  1  0  0  0  0
 12 27  1  0  0  0  0
 12 19  1  0  0  0  0
 14  9  1  0  0  0  0
 14 27  1  0  0  0  0
 16  1  2  0  0  0  0
 17 26  2  0  0  0  0
 17  3  1  0  0  0  0
 18 13  1  0  0  0  0
 18 25  1  1  0  0  0
 18 17  1  0  0  0  0
 20 26  1  0  0  0  0
 21 23  1  0  0  0  0
 21  4  1  1  0  0  0
 23  9  1  0  0  0  0
 26 21  1  0  0  0  0
 27 24  2  0  0  0  0
 28 29  1  6  0  0  0
 28 30  1  0  0  0  0
M  END
>  <MODEL>
6

>  <REMARK>
 VINA RESULT:      -7.1      1.933      5.568
  Name = 
  1 active torsions:
  status: ('A' for Active; 'I' for Inactive)
    1  A    between atoms: C_7  and  C_10
                            x       y       z     vdW  Elec       q    Type
                         _______ _______ _______ _____ _____    ______ ____

>  <TORSDO>
F 1

$$$$
=
 OpenBabel11052417223D

 30 33  0  0  1  0  0  0  0  0999 V2000
  193.1170  176.6050  146.1210 C   0  0  0  0  0  0  0  0  0  0  0  0
  190.8810  176.7920  147.0370 C   0  0  0  0  0  3  0  0  0  0  0  0
  189.0890  175.6540  143.3760 O   0  0  0  0  0  0  0  0  0  0  0  0
  192.3490  173.7520  144.4680 C   0  0  0  0  0  2  0  0  0  0  0  0
  193.9110  176.7910  144.9450 N   0  0  0  0  0  0  0  0  0  0  0  0
  195.8360  173.8520  145.1440 C   0  0  1  0  0  3  0  0  0  0  0  0
  195.4110  175.1260  145.6040 O   0  0  0  0  0  0  0  0  0  0  0  0
  195.7520  176.3710  143.4550 C   0  0  0  0  0  1  0  0  0  0  0  0
  191.9230  174.0490  141.4440 C   0  0  2  0  0  3  0  0  0  0  0  0
  189.7980  175.0400  142.3530 C   0  0  0  0  0  0  0  0  0  0  0  0
  194.9970  176.1210  144.7160 C   0  0  0  0  0  0  0  0  0  0  0  0
  193.6940  173.3940  144.0170 N   0  0  0  0  0  0  0  0  0  0  0  0
  189.3980  176.5960  146.9880 C   0  0  0  0  0  2  0  0  0  0  0  0
  193.4420  174.1880  141.5840 C   0  0  0  0  0  2  0  0  0  0  0  0
  196.8160  173.2650  146.1380 C   0  0  0  0  0  1  0  0  0  0  0  0
  193.6680  176.6060  147.2570 O   0  0  0  0  0  0  0  0  0  0  0  0
  189.7030  176.0700  144.5590 C   0  0  0  0  0  0  0  0  0  0  0  0
  188.8820  176.8380  145.5720 C   0  0  1  0  0  3  0  0  0  0  0  0
  194.6310  172.9220  145.0310 C   0  0  0  0  0  2  0  0  0  0  0  0
  191.6570  176.4220  146.0090 C   0  0  0  0  0  0  0  0  0  0  0  0
  191.8560  175.0350  143.8040 C   0  0  1  0  0  3  0  0  0  0  0  0
  189.2150  174.7990  141.2630 O   0  0  0  0  0  0  0  0  0  0  0  0
  191.1810  174.7040  142.5380 N   0  0  0  0  0  0  0  0  0  0  0  0
  194.9200  172.4600  142.2610 O   0  0  0  0  0  0  0  0  0  0  0  0
  187.4160  176.4490  145.5070 C   0  0  0  0  0  1  0  0  0  0  0  0
  191.0230  175.8630  144.7710 C   0  0  0  0  0  0  0  0  0  0  0  0
  194.0410  173.2850  142.6230 C   0  0  0  0  0  0  0  0  0  0  0  0
  191.5060  172.5910  141.1940 C   0  0  2  0  0  3  0  0  0  0  0  0
  190.9300  172.4230  139.8030 C   0  0  0  0  0  1  0  0  0  0  0  0
  190.5940  172.1350  142.1490 O   0  0  0  0  0  1  0  0  0  0  0  0
  1 16  2  0  0  0  0
  3 17  1  0  0  0  0
  5  1  1  0  0  0  0
  6  7  1  0  0  0  0
  6 15  1  1  0  0  0
  8 11  1  0  0  0  0
  9 28  1  1  0  0  0
  9 14  1  0  0  0  0
  9 23  1  0  0  0  0
 10 23  1  0  0  0  0
 10  3  1  0  0  0  0
 11  5  2  0  0  0  0
 11  7  1  0  0  0  0
 12  4  1  0  0  0  0
 12 19  1  0  0  0  0
 13  2  1  0  0  0  0
 14 27  1  0  0  0  0
 17 26  2  0  0  0  0
 17 18  1  0  0  0  0
 18 25  1  1  0  0  0
 18 13  1  0  0  0  0
 19  6  1  0  0  0  0
 20  1  1  0  0  0  0
 20  2  2  0  0  0  0
 21  4  1  1  0  0  0
 21 26  1  0  0  0  0
 22 10  2  0  0  0  0
 23 21  1  0  0  0  0
 24 27  2  0  0  0  0
 26 20  1  0  0  0  0
 27 12  1  0  0  0  0
 28 29  1  6  0  0  0
 28 30  1  0  0  0  0
M  END
>  <MODEL>
7

>  <REMARK>
 VINA RESULT:      -7.0      2.595      5.727
  Name = 
  1 active torsions:
  status: ('A' for Active; 'I' for Inactive)
    1  A    between atoms: C_7  and  C_10
                            x       y       z     vdW  Elec       q    Type
                         _______ _______ _______ _____ _____    ______ ____

>  <TORSDO>
F 1

$$$$
=
 OpenBabel11052417223D

 30 33  0  0  1  0  0  0  0  0999 V2000
  188.5840  177.1850  146.9180 C   0  0  0  0  0  0  0  0  0  0  0  0
  190.9460  176.9220  147.3910 C   0  0  0  0  0  3  0  0  0  0  0  0
  191.3580  173.8170  144.5450 O   0  0  0  0  0  0  0  0  0  0  0  0
  189.0780  176.8690  143.5830 C   0  0  0  0  0  2  0  0  0  0  0  0
  187.3840  176.4900  146.5650 N   0  0  0  0  0  0  0  0  0  0  0  0
  186.1370  178.7680  144.1920 C   0  0  1  0  0  3  0  0  0  0  0  0
  186.5110  178.3780  145.5040 O   0  0  0  0  0  0  0  0  0  0  0  0
  185.1990  176.2440  145.5900 C   0  0  0  0  0  1  0  0  0  0  0  0
  188.2720  174.1650  142.3780 C   0  0  2  0  0  3  0  0  0  0  0  0
  190.4120  173.5730  143.5590 C   0  0  0  0  0  0  0  0  0  0  0  0
  186.4040  177.0530  145.9300 C   0  0  0  0  0  0  0  0  0  0  0  0
  187.7310  177.2180  143.1310 N   0  0  0  0  0  0  0  0  0  0  0  0
  192.3100  176.3740  147.1110 C   0  0  0  0  0  2  0  0  0  0  0  0
  186.9180  174.8250  142.6520 C   0  0  0  0  0  2  0  0  0  0  0  0
  185.7060  180.2190  144.2060 C   0  0  0  0  0  1  0  0  0  0  0  0
  188.5130  178.3070  147.4910 O   0  0  0  0  0  0  0  0  0  0  0  0
  191.1860  174.8130  145.5090 C   0  0  0  0  0  0  0  0  0  0  0  0
  192.2070  174.9330  146.6200 C   0  0  1  0  0  3  0  0  0  0  0  0
  187.3310  178.6160  143.2530 C   0  0  0  0  0  2  0  0  0  0  0  0
  189.9020  176.5900  146.6200 C   0  0  0  0  0  0  0  0  0  0  0  0
  189.0860  175.5570  144.3640 C   0  0  1  0  0  3  0  0  0  0  0  0
  190.5650  172.5840  142.7950 O   0  0  0  0  0  0  0  0  0  0  0  0
  189.2700  174.4320  143.4310 N   0  0  0  0  0  0  0  0  0  0  0  0
  186.0810  176.7490  141.5440 O   0  0  0  0  0  0  0  0  0  0  0  0
  193.5780  174.4670  146.1640 C   0  0  0  0  0  1  0  0  0  0  0  0
  190.0920  175.6080  145.5040 C   0  0  0  0  0  0  0  0  0  0  0  0
  186.9000  176.3040  142.3900 C   0  0  0  0  0  0  0  0  0  0  0  0
  188.7730  174.4650  140.9560 C   0  0  2  0  0  3  0  0  0  0  0  0
  188.5590  173.2740  140.0430 C   0  0  0  0  0  1  0  0  0  0  0  0
  190.1180  174.8440  140.9420 O   0  0  0  0  0  1  0  0  0  0  0  0
  1 16  2  0  0  0  0
  3 17  1  0  0  0  0
  5  1  1  0  0  0  0
  6 15  1  1  0  0  0
  6  7  1  0  0  0  0
  7 11  1  0  0  0  0
  8 11  1  0  0  0  0
  9 28  1  6  0  0  0
  9 14  1  0  0  0  0
  9 23  1  0  0  0  0
 10  3  1  0  0  0  0
 11  5  2  0  0  0  0
 12 19  1  0  0  0  0
 12  4  1  0  0  0  0
 13  2  1  0  0  0  0
 17 18  1  0  0  0  0
 18 25  1  6  0  0  0
 18 13  1  0  0  0  0
 19  6  1  0  0  0  0
 20  1  1  0  0  0  0
 20  2  2  0  0  0  0
 21  4  1  6  0  0  0
 21 26  1  0  0  0  0
 22 10  2  0  0  0  0
 23 10  1  0  0  0  0
 23 21  1  0  0  0  0
 24 27  2  0  0  0  0
 26 17  2  0  0  0  0
 26 20  1  0  0  0  0
 27 14  1  0  0  0  0
 27 12  1  0  0  0  0
 28 29  1  6  0  0  0
 30 28  1  0  0  0  0
M  END
>  <MODEL>
8

>  <REMARK>
 VINA RESULT:      -6.8      1.909      6.502
  Name = 
  1 active torsions:
  status: ('A' for Active; 'I' for Inactive)
    1  A    between atoms: C_7  and  C_10
                            x       y       z     vdW  Elec       q    Type
                         _______ _______ _______ _____ _____    ______ ____

>  <TORSDO>
F 1

$$$$
=
 OpenBabel11052417223D

 30 33  0  0  1  0  0  0  0  0999 V2000
  188.6870  175.1410  142.2720 C   0  0  0  0  0  0  0  0  0  0  0  0
  188.9270  173.1030  140.9830 C   0  0  0  0  0  3  0  0  0  0  0  0
  193.1030  172.9580  141.6500 O   0  0  0  0  0  0  0  0  0  0  0  0
  190.8230  174.0450  144.6580 C   0  0  0  0  0  2  0  0  0  0  0  0
  189.3140  176.3800  142.6160 N   0  0  0  0  0  0  0  0  0  0  0  0
  188.5670  176.4090  146.0540 C   0  0  1  0  0  3  0  0  0  0  0  0
  188.2200  176.4480  144.6790 O   0  0  0  0  0  0  0  0  0  0  0  0
  189.7900  178.2840  144.0070 C   0  0  0  0  0  1  0  0  0  0  0  0
  193.6290  175.2840  144.5910 C   0  0  2  0  0  3  0  0  0  0  0  0
  193.7310  173.6970  142.6420 C   0  0  0  0  0  0  0  0  0  0  0  0
  189.0760  177.0060  143.7260 C   0  0  0  0  0  0  0  0  0  0  0  0
  190.6200  175.1130  145.6380 N   0  0  0  0  0  0  0  0  0  0  0  0
  189.6960  171.9160  140.4950 C   0  0  0  0  0  2  0  0  0  0  0  0
  192.7710  176.4300  145.1350 C   0  0  0  0  0  2  0  0  0  0  0  0
  187.3020  176.4160  146.8870 C   0  0  0  0  0  1  0  0  0  0  0  0
  187.4340  175.0230  142.3740 O   0  0  0  0  0  0  0  0  0  0  0  0
  191.7320  173.0530  141.4070 C   0  0  0  0  0  0  0  0  0  0  0  0
  191.1480  172.3030  140.2290 C   0  0  1  0  0  3  0  0  0  0  0  0
  189.3450  175.1290  146.3480 C   0  0  0  0  0  2  0  0  0  0  0  0
  189.4990  174.0060  141.7910 C   0  0  0  0  0  0  0  0  0  0  0  0
  191.4880  174.5670  143.3880 C   0  0  1  0  0  3  0  0  0  0  0  0
  194.9870  173.6620  142.7320 O   0  0  0  0  0  0  0  0  0  0  0  0
  192.9520  174.5040  143.5380 N   0  0  0  0  0  0  0  0  0  0  0  0
  191.6780  176.4450  147.2410 O   0  0  0  0  0  0  0  0  0  0  0  0
  191.9460  171.0480  139.9210 C   0  0  0  0  0  1  0  0  0  0  0  0
  190.9440  173.8580  142.1570 C   0  0  0  0  0  0  0  0  0  0  0  0
  191.6840  175.9830  146.0690 C   0  0  0  0  0  0  0  0  0  0  0  0
  194.2140  174.4250  145.7240 C   0  0  2  0  0  3  0  0  0  0  0  0
  195.7240  174.5340  145.7630 C   0  0  0  0  0  1  0  0  0  0  0  0
  193.8330  173.0850  145.6170 O   0  0  0  0  0  1  0  0  0  0  0  0
  1 16  2  0  0  0  0
  1  5  1  0  0  0  0
  2 20  2  0  0  0  0
  3 10  1  0  0  0  0
  4 12  1  0  0  0  0
  5 11  2  0  0  0  0
  6 19  1  0  0  0  0
  6 15  1  1  0  0  0
  7  6  1  0  0  0  0
  9 14  1  0  0  0  0
  9 28  1  1  0  0  0
 10 22  2  0  0  0  0
 10 23  1  0  0  0  0
 11  8  1  0  0  0  0
 11  7  1  0  0  0  0
 12 27  1  0  0  0  0
 12 19  1  0  0  0  0
 13  2  1  0  0  0  0
 14 27  1  0  0  0  0
 17  3  1  0  0  0  0
 17 26  2  0  0  0  0
 18 25  1  1  0  0  0
 18 13  1  0  0  0  0
 18 17  1  0  0  0  0
 20 26  1  0  0  0  0
 20  1  1  0  0  0  0
 21 23  1  0  0  0  0
 21  4  1  1  0  0  0
 23  9  1  0  0  0  0
 26 21  1  0  0  0  0
 27 24  2  0  0  0  0
 28 29  1  6  0  0  0
 30 28  1  0  0  0  0
M  END
>  <MODEL>
9

>  <REMARK>
 VINA RESULT:      -6.8      2.057      5.628
  Name = 
  1 active torsions:
  status: ('A' for Active; 'I' for Inactive)
    1  A    between atoms: C_7  and  C_10
                            x       y       z     vdW  Elec       q    Type
                         _______ _______ _______ _____ _____    ______ ____

>  <TORSDO>
F 1

$$$$
