=
 OpenBabel11052418033D

 28 29  0  0  1  0  0  0  0  0999 V2000
  187.7200  177.5300  143.3780 C   0  0  2  0  0  3  0  0  0  0  0  0
  191.5610  174.8180  141.7850 O   0  0  0  0  0  1  0  0  0  0  0  0
  191.5160  178.0170  143.9400 C   0  0  0  0  0  2  0  0  0  0  0  0
  189.7630  176.1930  142.4860 C   0  0  0  0  0  0  0  0  0  0  0  0
  190.0760  177.8130  144.3820 C   0  0  0  0  0  2  0  0  0  0  0  0
  187.3440  175.5290  142.0180 C   0  0  0  0  0  2  0  0  0  0  0  0
  191.0830  175.9290  142.4760 C   0  0  0  0  0  0  0  0  0  0  0  0
  188.8200  175.1700  141.8950 C   0  0  0  0  0  2  0  0  0  0  0  0
  192.0840  176.7750  143.2410 C   0  0  2  0  0  3  0  0  0  0  0  0
  187.0620  176.1610  143.3660 C   0  0  0  0  0  2  0  0  0  0  0  0
  189.2480  177.4620  143.1530 C   0  0  2  0  0  3  0  0  0  0  0  0
  187.3820  178.2230  144.5560 O   0  0  0  0  0  0  0  0  0  0  0  0
  186.0080  178.0340  144.8450 C   0  0  1  0  0  3  0  0  0  0  0  0
  184.6480  178.4250  146.9680 C   0  0  0  0  0  1  0  0  0  0  0  0
  185.7010  177.5690  146.2840 C   0  0  2  0  0  3  0  0  0  0  0  0
  187.5890  176.1280  147.0480 C   0  0  0  0  0  1  0  0  0  0  0  0
  186.9560  177.5020  147.1400 C   0  0  0  0  0  2  0  0  0  0  0  0
  185.0920  179.1410  144.3130 C   0  0  0  0  0  2  0  0  0  0  0  0
  184.1200  178.5800  143.2940 C   0  0  0  0  0  1  0  0  0  0  0  0
  192.9990  175.9650  144.1700 C   0  0  0  0  0  2  0  0  0  0  0  0
  192.4310  174.6180  144.6290 C   0  0  0  0  0  2  0  0  0  0  0  0
  191.9220  175.4540  146.8350 C   0  0  0  0  0  3  0  0  0  0  0  0
  191.4920  174.7410  145.7830 C   0  0  0  0  0  0  0  0  0  0  0  0
  189.8390  173.1710  144.7700 C   0  0  0  0  0  2  0  0  0  0  0  0
  190.1590  174.1040  145.6590 C   0  0  0  0  0  3  0  0  0  0  0  0
  191.1440  175.7500  148.0770 C   0  0  0  0  0  2  0  0  0  0  0  0
  191.4090  177.1720  148.5280 C   0  0  0  0  0  2  0  0  0  0  0  0
  190.3540  177.9900  148.1280 O   0  0  0  0  0  1  0  0  0  0  0  0
  1 12  1  1  0  0  0
  2  7  1  0  0  0  0
  3  5  1  0  0  0  0
  4 11  1  0  0  0  0
  6 10  1  0  0  0  0
  7  4  2  0  0  0  0
  7  9  1  0  0  0  0
  8  6  1  0  0  0  0
  8  4  1  0  0  0  0
  9  3  1  0  0  0  0
  9 20  1  1  0  0  0
 10  1  1  0  0  0  0
 11  1  1  0  0  0  0
 11  5  1  1  0  0  0
 12 13  1  0  0  0  0
 13 18  1  1  0  0  0
 13 15  1  0  0  0  0
 15 14  1  1  0  0  0
 15 17  1  0  0  0  0
 16 17  1  0  0  0  0
 19 18  1  0  0  0  0
 20 21  1  0  0  0  0
 21 23  1  0  0  0  0
 22 26  1  0  0  0  0
 23 22  2  0  0  0  0
 24 25  2  0  0  0  0
 25 23  1  0  0  0  0
 26 27  1  0  0  0  0
 28 27  1  0  0  0  0
M  END
>  <MODEL>
1

>  <REMARK>
 VINA RESULT:      -6.2      0.000      0.000
  Name = 
  11 active torsions:
  status: ('A' for Active; 'I' for Inactive)
    1  A    between atoms: C_1  and  O_2
    2  A    between atoms: O_2  and  C_3
    3  A    between atoms: C_3  and  C_7
    4  A    between atoms: C_3  and  C_11
    5  A    between atoms: C_4  and  C_24
    6  A    between atoms: C_11  and  C_22
    7  A    between atoms: C_12  and  C_24
    8  A    between atoms: C_13  and  C_15
    9  A    between atoms: C_13  and  C_18
   10  A    between atoms: C_14  and  C_18
   11  A    between atoms: C_14  and  C_25
                            x       y       z     vdW  Elec       q    Type
                         _______ _______ _______ _____ _____    ______ ____

>  <TORSDO>
F 11

$$$$
=
 OpenBabel11052418033D

 28 29  0  0  1  0  0  0  0  0999 V2000
  188.0580  176.9100  142.5210 C   0  0  2  0  0  3  0  0  0  0  0  0
  192.3480  174.4220  142.7460 O   0  0  0  0  0  1  0  0  0  0  0  0
  191.4730  177.9610  144.0060 C   0  0  0  0  0  2  0  0  0  0  0  0
  190.3480  175.6800  142.5740 C   0  0  0  0  0  0  0  0  0  0  0  0
  189.9800  177.6760  144.0570 C   0  0  0  0  0  2  0  0  0  0  0  0
  188.2260  174.6440  141.6070 C   0  0  0  0  0  2  0  0  0  0  0  0
  191.6220  175.5830  142.9990 C   0  0  0  0  0  0  0  0  0  0  0  0
  189.6880  174.4510  141.9920 C   0  0  0  0  0  2  0  0  0  0  0  0
  192.2950  176.6820  143.8000 C   0  0  2  0  0  3  0  0  0  0  0  0
  187.5140  175.4970  142.6370 C   0  0  0  0  0  2  0  0  0  0  0  0
  189.5850  176.9850  142.7590 C   0  0  2  0  0  3  0  0  0  0  0  0
  187.3410  177.7810  143.3630 O   0  0  0  0  0  0  0  0  0  0  0  0
  186.0080  177.9020  142.9010 C   0  0  1  0  0  3  0  0  0  0  0  0
  185.4250  180.0250  144.1910 C   0  0  0  0  0  1  0  0  0  0  0  0
  185.0360  178.5890  143.8840 C   0  0  2  0  0  3  0  0  0  0  0  0
  184.7300  178.7410  146.3560 C   0  0  0  0  0  1  0  0  0  0  0  0
  184.8840  177.8020  145.1760 C   0  0  0  0  0  2  0  0  0  0  0  0
  185.8820  178.3580  141.4440 C   0  0  0  0  0  2  0  0  0  0  0  0
  184.4460  178.2400  140.9740 C   0  0  0  0  0  1  0  0  0  0  0  0
  192.9290  176.1950  145.1100 C   0  0  0  0  0  2  0  0  0  0  0  0
  192.2920  174.9390  145.7150 C   0  0  0  0  0  2  0  0  0  0  0  0
  189.9510  174.8950  146.2980 C   0  0  0  0  0  3  0  0  0  0  0  0
  191.1900  175.2460  146.6740 C   0  0  0  0  0  0  0  0  0  0  0  0
  191.3780  177.1510  148.2730 C   0  0  0  0  0  2  0  0  0  0  0  0
  191.5550  175.8710  147.9670 C   0  0  0  0  0  3  0  0  0  0  0  0
  188.7050  175.0600  147.1070 C   0  0  0  0  0  2  0  0  0  0  0  0
  187.8140  176.1150  146.4820 C   0  0  0  0  0  2  0  0  0  0  0  0
  188.0520  177.3450  147.0930 O   0  0  0  0  0  1  0  0  0  0  0  0
  1 10  1  0  0  0  0
  1 11  1  0  0  0  0
  1 12  1  1  0  0  0
  2  7  1  0  0  0  0
  3  5  1  0  0  0  0
  4 11  1  0  0  0  0
  4  7  2  0  0  0  0
  6  8  1  0  0  0  0
  6 10  1  0  0  0  0
  7  9  1  0  0  0  0
  8  4  1  0  0  0  0
  9  3  1  0  0  0  0
  9 20  1  1  0  0  0
 11  5  1  1  0  0  0
 13 18  1  6  0  0  0
 13 12  1  0  0  0  0
 13 15  1  0  0  0  0
 15 14  1  1  0  0  0
 15 17  1  0  0  0  0
 17 16  1  0  0  0  0
 19 18  1  0  0  0  0
 20 21  1  0  0  0  0
 21 23  1  0  0  0  0
 22 23  2  0  0  0  0
 22 26  1  0  0  0  0
 23 25  1  0  0  0  0
 25 24  2  0  0  0  0
 27 28  1  0  0  0  0
 27 26  1  0  0  0  0
M  END
>  <MODEL>
2

>  <REMARK>
 VINA RESULT:      -6.0      1.212      2.337
  Name = 
  11 active torsions:
  status: ('A' for Active; 'I' for Inactive)
    1  A    between atoms: C_1  and  O_2
    2  A    between atoms: O_2  and  C_3
    3  A    between atoms: C_3  and  C_7
    4  A    between atoms: C_3  and  C_11
    5  A    between atoms: C_4  and  C_24
    6  A    between atoms: C_11  and  C_22
    7  A    between atoms: C_12  and  C_24
    8  A    between atoms: C_13  and  C_15
    9  A    between atoms: C_13  and  C_18
   10  A    between atoms: C_14  and  C_18
   11  A    between atoms: C_14  and  C_25
                            x       y       z     vdW  Elec       q    Type
                         _______ _______ _______ _____ _____    ______ ____

>  <TORSDO>
F 11

$$$$
=
 OpenBabel11052418033D

 28 29  0  0  1  0  0  0  0  0999 V2000
  186.8350  177.6570  143.3160 C   0  0  2  0  0  3  0  0  0  0  0  0
  191.6370  177.5150  144.5690 O   0  0  0  0  0  1  0  0  0  0  0  0
  188.4940  177.0900  146.7650 C   0  0  0  0  0  2  0  0  0  0  0  0
  189.3340  177.6700  144.0310 C   0  0  0  0  0  0  0  0  0  0  0  0
  187.6070  176.7180  145.5890 C   0  0  0  0  0  2  0  0  0  0  0  0
  188.5690  177.9650  141.6150 C   0  0  0  0  0  2  0  0  0  0  0  0
  190.2980  177.4540  144.9470 C   0  0  0  0  0  0  0  0  0  0  0  0
  189.7370  177.7930  142.5790 C   0  0  0  0  0  2  0  0  0  0  0  0
  189.9810  177.0910  146.3850 C   0  0  2  0  0  3  0  0  0  0  0  0
  187.4050  177.0880  142.0290 C   0  0  0  0  0  2  0  0  0  0  0  0
  187.8740  177.7060  144.4610 C   0  0  2  0  0  3  0  0  0  0  0  0
  185.6670  176.9620  143.6820 O   0  0  0  0  0  0  0  0  0  0  0  0
  184.5370  177.7940  143.4930 C   0  0  1  0  0  3  0  0  0  0  0  0
  185.1300  180.0310  144.5690 C   0  0  0  0  0  1  0  0  0  0  0  0
  184.2580  178.7890  144.6400 C   0  0  2  0  0  3  0  0  0  0  0  0
  185.1760  179.0280  146.9490 C   0  0  0  0  0  1  0  0  0  0  0  0
  184.3940  178.1340  146.0060 C   0  0  0  0  0  2  0  0  0  0  0  0
  184.4120  178.3820  142.0840 C   0  0  0  0  0  2  0  0  0  0  0  0
  183.0130  178.1670  141.5420 C   0  0  0  0  0  1  0  0  0  0  0  0
  190.6960  175.8260  146.8780 C   0  0  0  0  0  2  0  0  0  0  0  0
  190.0100  174.5060  146.5080 C   0  0  0  0  0  2  0  0  0  0  0  0
  189.4680  174.0110  144.2080 C   0  0  0  0  0  3  0  0  0  0  0  0
  190.4110  173.9950  145.1640 C   0  0  0  0  0  0  0  0  0  0  0  0
  192.7710  174.2650  144.4020 C   0  0  0  0  0  2  0  0  0  0  0  0
  191.8140  173.5510  144.9830 C   0  0  0  0  0  3  0  0  0  0  0  0
  189.6490  173.5950  142.7850 C   0  0  0  0  0  2  0  0  0  0  0  0
  189.0070  172.2420  142.5540 C   0  0  0  0  0  2  0  0  0  0  0  0
  189.9850  171.2500  142.6000 O   0  0  0  0  0  1  0  0  0  0  0  0
  1 12  1  1  0  0  0
  1 11  1  0  0  0  0
  2  7  1  0  0  0  0
  4 11  1  0  0  0  0
  4  7  2  0  0  0  0
  5  3  1  0  0  0  0
  6 10  1  0  0  0  0
  6  8  1  0  0  0  0
  7  9  1  0  0  0  0
  8  4  1  0  0  0  0
  9  3  1  0  0  0  0
  9 20  1  6  0  0  0
 10  1  1  0  0  0  0
 11  5  1  1  0  0  0
 13 18  1  6  0  0  0
 13 12  1  0  0  0  0
 13 15  1  0  0  0  0
 15 14  1  1  0  0  0
 15 17  1  0  0  0  0
 17 16  1  0  0  0  0
 19 18  1  0  0  0  0
 21 20  1  0  0  0  0
 22 23  2  0  0  0  0
 23 21  1  0  0  0  0
 24 25  2  0  0  0  0
 25 23  1  0  0  0  0
 26 22  1  0  0  0  0
 27 28  1  0  0  0  0
 27 26  1  0  0  0  0
M  END
>  <MODEL>
3

>  <REMARK>
 VINA RESULT:      -6.0      1.794      3.682
  Name = 
  11 active torsions:
  status: ('A' for Active; 'I' for Inactive)
    1  A    between atoms: C_1  and  O_2
    2  A    between atoms: O_2  and  C_3
    3  A    between atoms: C_3  and  C_7
    4  A    between atoms: C_3  and  C_11
    5  A    between atoms: C_4  and  C_24
    6  A    between atoms: C_11  and  C_22
    7  A    between atoms: C_12  and  C_24
    8  A    between atoms: C_13  and  C_15
    9  A    between atoms: C_13  and  C_18
   10  A    between atoms: C_14  and  C_18
   11  A    between atoms: C_14  and  C_25
                            x       y       z     vdW  Elec       q    Type
                         _______ _______ _______ _____ _____    ______ ____

>  <TORSDO>
F 11

$$$$
=
 OpenBabel11052418033D

 28 29  0  0  1  0  0  0  0  0999 V2000
  186.9230  177.7040  143.3220 C   0  0  2  0  0  3  0  0  0  0  0  0
  191.6620  177.3910  144.7680 O   0  0  0  0  0  1  0  0  0  0  0  0
  188.4210  176.7950  146.7720 C   0  0  0  0  0  2  0  0  0  0  0  0
  189.3880  177.6220  144.1450 C   0  0  0  0  0  0  0  0  0  0  0  0
  187.5850  176.5450  145.5270 C   0  0  0  0  0  2  0  0  0  0  0  0
  188.7350  178.1520  141.7360 C   0  0  0  0  0  2  0  0  0  0  0  0
  190.3070  177.3100  145.0790 C   0  0  0  0  0  0  0  0  0  0  0  0
  189.8570  177.8770  142.7320 C   0  0  0  0  0  2  0  0  0  0  0  0
  189.9230  176.8160  146.4610 C   0  0  2  0  0  3  0  0  0  0  0  0
  187.5470  177.2520  142.0130 C   0  0  0  0  0  2  0  0  0  0  0  0
  187.9090  177.6330  144.5120 C   0  0  2  0  0  3  0  0  0  0  0  0
  185.7350  176.9910  143.5680 O   0  0  0  0  0  0  0  0  0  0  0  0
  184.6170  177.8240  143.3220 C   0  0  1  0  0  3  0  0  0  0  0  0
  185.2170  180.0700  144.3740 C   0  0  0  0  0  1  0  0  0  0  0  0
  184.3110  178.8520  144.4320 C   0  0  2  0  0  3  0  0  0  0  0  0
  185.2790  179.0260  146.7260 C   0  0  0  0  0  1  0  0  0  0  0  0
  184.3660  178.2260  145.8170 C   0  0  0  0  0  2  0  0  0  0  0  0
  184.5400  178.3740  141.8940 C   0  0  0  0  0  2  0  0  0  0  0  0
  183.1440  178.1910  141.3310 C   0  0  0  0  0  1  0  0  0  0  0  0
  190.6060  175.5020  146.8620 C   0  0  0  0  0  2  0  0  0  0  0  0
  190.1870  174.2740  146.0440 C   0  0  0  0  0  2  0  0  0  0  0  0
  192.3970  173.7990  145.1970 C   0  0  0  0  0  3  0  0  0  0  0  0
  191.1030  173.9940  144.9000 C   0  0  0  0  0  0  0  0  0  0  0  0
  189.2180  174.0630  143.2670 C   0  0  0  0  0  2  0  0  0  0  0  0
  190.5080  173.9150  143.5440 C   0  0  0  0  0  3  0  0  0  0  0  0
  193.4830  173.4610  144.2290 C   0  0  0  0  0  2  0  0  0  0  0  0
  194.3560  174.6750  143.9830 C   0  0  0  0  0  2  0  0  0  0  0  0
  194.4050  175.4540  145.1380 O   0  0  0  0  0  1  0  0  0  0  0  0
  1 12  1  1  0  0  0
  1 11  1  0  0  0  0
  2  7  1  0  0  0  0
  4 11  1  0  0  0  0
  4  7  2  0  0  0  0
  5  3  1  0  0  0  0
  6 10  1  0  0  0  0
  6  8  1  0  0  0  0
  7  9  1  0  0  0  0
  8  4  1  0  0  0  0
  9  3  1  0  0  0  0
  9 20  1  6  0  0  0
 10  1  1  0  0  0  0
 11  5  1  6  0  0  0
 13 18  1  6  0  0  0
 13 12  1  0  0  0  0
 13 15  1  0  0  0  0
 15 14  1  1  0  0  0
 15 17  1  0  0  0  0
 17 16  1  0  0  0  0
 19 18  1  0  0  0  0
 21 20  1  0  0  0  0
 23 22  2  0  0  0  0
 23 21  1  0  0  0  0
 24 25  2  0  0  0  0
 25 23  1  0  0  0  0
 26 22  1  0  0  0  0
 27 26  1  0  0  0  0
 27 28  1  0  0  0  0
M  END
>  <MODEL>
4

>  <REMARK>
 VINA RESULT:      -5.9      1.822      3.206
  Name = 
  11 active torsions:
  status: ('A' for Active; 'I' for Inactive)
    1  A    between atoms: C_1  and  O_2
    2  A    between atoms: O_2  and  C_3
    3  A    between atoms: C_3  and  C_7
    4  A    between atoms: C_3  and  C_11
    5  A    between atoms: C_4  and  C_24
    6  A    between atoms: C_11  and  C_22
    7  A    between atoms: C_12  and  C_24
    8  A    between atoms: C_13  and  C_15
    9  A    between atoms: C_13  and  C_18
   10  A    between atoms: C_14  and  C_18
   11  A    between atoms: C_14  and  C_25
                            x       y       z     vdW  Elec       q    Type
                         _______ _______ _______ _____ _____    ______ ____

>  <TORSDO>
F 11

$$$$
=
 OpenBabel11052418033D

 28 29  0  0  1  0  0  0  0  0999 V2000
  188.1160  177.3340  144.3080 C   0  0  2  0  0  3  0  0  0  0  0  0
  193.0640  177.1480  144.6590 O   0  0  0  0  0  1  0  0  0  0  0  0
  190.3640  176.2560  147.2650 C   0  0  0  0  0  2  0  0  0  0  0  0
  190.7020  177.3130  144.5660 C   0  0  0  0  0  0  0  0  0  0  0  0
  189.2830  176.0550  146.2160 C   0  0  0  0  0  2  0  0  0  0  0  0
  189.5180  177.9800  142.4070 C   0  0  0  0  0  2  0  0  0  0  0  0
  191.8140  176.9800  145.2490 C   0  0  0  0  0  0  0  0  0  0  0  0
  190.8400  177.6900  143.1090 C   0  0  0  0  0  2  0  0  0  0  0  0
  191.7590  176.3710  146.6380 C   0  0  2  0  0  3  0  0  0  0  0  0
  188.4500  177.0070  142.8620 C   0  0  0  0  0  2  0  0  0  0  0  0
  189.3410  177.2270  145.2450 C   0  0  2  0  0  3  0  0  0  0  0  0
  187.0340  176.5490  144.7480 O   0  0  0  0  0  0  0  0  0  0  0  0
  185.8840  177.3610  144.9010 C   0  0  1  0  0  3  0  0  0  0  0  0
  184.1610  178.3220  146.5190 C   0  0  0  0  0  1  0  0  0  0  0  0
  185.1390  177.1930  146.2410 C   0  0  2  0  0  3  0  0  0  0  0  0
  186.5070  178.3920  147.9500 C   0  0  0  0  0  1  0  0  0  0  0  0
  186.0990  177.0350  147.4100 C   0  0  0  0  0  2  0  0  0  0  0  0
  186.0690  178.8110  144.4410 C   0  0  0  0  0  2  0  0  0  0  0  0
  185.2870  179.0670  143.1680 C   0  0  0  0  0  1  0  0  0  0  0  0
  192.5550  175.0660  146.7750 C   0  0  0  0  0  2  0  0  0  0  0  0
  192.2180  173.9870  145.7400 C   0  0  0  0  0  2  0  0  0  0  0  0
  194.5620  173.5110  145.4150 C   0  0  0  0  0  3  0  0  0  0  0  0
  193.3620  173.6650  144.8360 C   0  0  0  0  0  0  0  0  0  0  0  0
  192.1660  174.1970  142.7120 C   0  0  0  0  0  2  0  0  0  0  0  0
  193.0740  173.5060  143.3900 C   0  0  0  0  0  3  0  0  0  0  0  0
  195.8340  173.1440  144.7230 C   0  0  0  0  0  2  0  0  0  0  0  0
  196.8090  172.5380  145.7130 C   0  0  0  0  0  2  0  0  0  0  0  0
  197.1540  173.4930  146.6680 O   0  0  0  0  0  1  0  0  0  0  0  0
  1 12  1  1  0  0  0
  1 11  1  0  0  0  0
  2  7  1  0  0  0  0
  4 11  1  0  0  0  0
  4  7  2  0  0  0  0
  5  3  1  0  0  0  0
  6 10  1  0  0  0  0
  6  8  1  0  0  0  0
  7  9  1  0  0  0  0
  8  4  1  0  0  0  0
  9 20  1  6  0  0  0
  9  3  1  0  0  0  0
 10  1  1  0  0  0  0
 11  5  1  6  0  0  0
 12 13  1  0  0  0  0
 13 18  1  1  0  0  0
 13 15  1  0  0  0  0
 15 14  1  1  0  0  0
 15 17  1  0  0  0  0
 17 16  1  0  0  0  0
 19 18  1  0  0  0  0
 21 20  1  0  0  0  0
 23 22  2  0  0  0  0
 23 21  1  0  0  0  0
 24 25  2  0  0  0  0
 25 23  1  0  0  0  0
 26 22  1  0  0  0  0
 26 27  1  0  0  0  0
 27 28  1  0  0  0  0
M  END
>  <MODEL>
5

>  <REMARK>
 VINA RESULT:      -5.9      2.335      3.444
  Name = 
  11 active torsions:
  status: ('A' for Active; 'I' for Inactive)
    1  A    between atoms: C_1  and  O_2
    2  A    between atoms: O_2  and  C_3
    3  A    between atoms: C_3  and  C_7
    4  A    between atoms: C_3  and  C_11
    5  A    between atoms: C_4  and  C_24
    6  A    between atoms: C_11  and  C_22
    7  A    between atoms: C_12  and  C_24
    8  A    between atoms: C_13  and  C_15
    9  A    between atoms: C_13  and  C_18
   10  A    between atoms: C_14  and  C_18
   11  A    between atoms: C_14  and  C_25
                            x       y       z     vdW  Elec       q    Type
                         _______ _______ _______ _____ _____    ______ ____

>  <TORSDO>
F 11

$$$$
=
 OpenBabel11052418033D

 28 29  0  0  1  0  0  0  0  0999 V2000
  187.0600  178.0470  143.3970 C   0  0  2  0  0  3  0  0  0  0  0  0
  191.6570  177.1480  145.0410 O   0  0  0  0  0  1  0  0  0  0  0  0
  188.2800  176.9220  146.8920 C   0  0  0  0  0  2  0  0  0  0  0  0
  189.4570  177.6590  144.3250 C   0  0  0  0  0  0  0  0  0  0  0  0
  187.4770  176.7900  145.6080 C   0  0  0  0  0  2  0  0  0  0  0  0
  188.9810  178.2930  141.8990 C   0  0  0  0  0  2  0  0  0  0  0  0
  190.2890  177.2270  145.2910 C   0  0  0  0  0  0  0  0  0  0  0  0
  190.0160  177.8730  142.9370 C   0  0  0  0  0  2  0  0  0  0  0  0
  189.7860  176.7660  146.6470 C   0  0  2  0  0  3  0  0  0  0  0  0
  187.6830  177.5400  142.1090 C   0  0  0  0  0  2  0  0  0  0  0  0
  187.9750  177.8430  144.6270 C   0  0  2  0  0  3  0  0  0  0  0  0
  185.7850  177.4790  143.5790 O   0  0  0  0  0  0  0  0  0  0  0  0
  184.7880  178.4070  143.1920 C   0  0  1  0  0  3  0  0  0  0  0  0
  184.4960  178.2940  140.6600 C   0  0  0  0  0  1  0  0  0  0  0  0
  183.8970  177.9580  142.0150 C   0  0  2  0  0  3  0  0  0  0  0  0
  181.7260  178.2890  140.8290 C   0  0  0  0  0  1  0  0  0  0  0  0
  182.4900  178.5240  142.1180 C   0  0  0  0  0  2  0  0  0  0  0  0
  184.0360  179.0520  144.3610 C   0  0  0  0  0  2  0  0  0  0  0  0
  184.3370  178.3190  145.6530 C   0  0  0  0  0  1  0  0  0  0  0  0
  190.2890  175.3740  147.0540 C   0  0  0  0  0  2  0  0  0  0  0  0
  189.5420  174.1990  146.4120 C   0  0  0  0  0  2  0  0  0  0  0  0
  189.3110  174.1220  144.0110 C   0  0  0  0  0  3  0  0  0  0  0  0
  190.0800  173.8270  145.0700 C   0  0  0  0  0  0  0  0  0  0  0  0
  192.5590  173.8550  144.7970 C   0  0  0  0  0  2  0  0  0  0  0  0
  191.4230  173.2030  145.0140 C   0  0  0  0  0  3  0  0  0  0  0  0
  189.6580  173.8880  142.5770 C   0  0  0  0  0  2  0  0  0  0  0  0
  188.9390  172.6570  142.0630 C   0  0  0  0  0  2  0  0  0  0  0  0
  189.7270  171.5290  142.2900 O   0  0  0  0  0  1  0  0  0  0  0  0
  1 12  1  1  0  0  0
  1 11  1  0  0  0  0
  2  7  1  0  0  0  0
  4 11  1  0  0  0  0
  4  7  2  0  0  0  0
  5  3  1  0  0  0  0
  6 10  1  0  0  0  0
  6  8  1  0  0  0  0
  7  9  1  0  0  0  0
  8  4  1  0  0  0  0
  9  3  1  0  0  0  0
  9 20  1  6  0  0  0
 10  1  1  0  0  0  0
 11  5  1  6  0  0  0
 13 12  1  0  0  0  0
 13 18  1  1  0  0  0
 15 14  1  6  0  0  0
 15 17  1  0  0  0  0
 15 13  1  0  0  0  0
 16 17  1  0  0  0  0
 18 19  1  0  0  0  0
 21 20  1  0  0  0  0
 22 23  2  0  0  0  0
 23 21  1  0  0  0  0
 24 25  2  0  0  0  0
 25 23  1  0  0  0  0
 26 22  1  0  0  0  0
 27 28  1  0  0  0  0
 27 26  1  0  0  0  0
M  END
>  <MODEL>
6

>  <REMARK>
 VINA RESULT:      -5.8      1.831      4.418
  Name = 
  11 active torsions:
  status: ('A' for Active; 'I' for Inactive)
    1  A    between atoms: C_1  and  O_2
    2  A    between atoms: O_2  and  C_3
    3  A    between atoms: C_3  and  C_7
    4  A    between atoms: C_3  and  C_11
    5  A    between atoms: C_4  and  C_24
    6  A    between atoms: C_11  and  C_22
    7  A    between atoms: C_12  and  C_24
    8  A    between atoms: C_13  and  C_15
    9  A    between atoms: C_13  and  C_18
   10  A    between atoms: C_14  and  C_18
   11  A    between atoms: C_14  and  C_25
                            x       y       z     vdW  Elec       q    Type
                         _______ _______ _______ _____ _____    ______ ____

>  <TORSDO>
F 11

$$$$
=
 OpenBabel11052418033D

 28 29  0  0  1  0  0  0  0  0999 V2000
  187.6770  177.3810  143.1900 C   0  0  2  0  0  3  0  0  0  0  0  0
  191.8510  175.0020  141.9380 O   0  0  0  0  0  1  0  0  0  0  0  0
  191.3660  178.2400  143.9790 C   0  0  0  0  0  2  0  0  0  0  0  0
  189.8900  176.2200  142.4750 C   0  0  0  0  0  0  0  0  0  0  0  0
  189.9250  177.9120  144.3330 C   0  0  0  0  0  2  0  0  0  0  0  0
  187.5800  175.3170  141.8750 C   0  0  0  0  0  2  0  0  0  0  0  0
  191.2270  176.0810  142.5590 C   0  0  0  0  0  0  0  0  0  0  0  0
  189.0890  175.0960  141.8590 C   0  0  0  0  0  2  0  0  0  0  0  0
  192.0920  177.0390  143.3590 C   0  0  2  0  0  3  0  0  0  0  0  0
  187.1510  175.9560  143.1800 C   0  0  0  0  0  2  0  0  0  0  0  0
  189.2170  177.4520  143.0660 C   0  0  2  0  0  3  0  0  0  0  0  0
  187.1990  178.0700  144.3200 O   0  0  0  0  0  0  0  0  0  0  0  0
  185.8850  177.6360  144.6240 C   0  0  1  0  0  3  0  0  0  0  0  0
  184.4620  177.6440  146.7420 C   0  0  0  0  0  1  0  0  0  0  0  0
  185.6940  177.0840  146.0520 C   0  0  2  0  0  3  0  0  0  0  0  0
  187.8150  176.0810  146.9040 C   0  0  0  0  0  1  0  0  0  0  0  0
  186.9240  177.3080  146.9180 C   0  0  0  0  0  2  0  0  0  0  0  0
  184.7790  178.5810  144.1430 C   0  0  0  0  0  2  0  0  0  0  0  0
  185.2900  180.0070  144.0820 C   0  0  0  0  0  1  0  0  0  0  0  0
  193.0130  176.3450  144.3710 C   0  0  0  0  0  2  0  0  0  0  0  0
  192.2940  175.5570  145.4720 C   0  0  0  0  0  2  0  0  0  0  0  0
  193.6380  173.5550  145.5630 C   0  0  0  0  0  3  0  0  0  0  0  0
  192.4280  174.0790  145.3170 C   0  0  0  0  0  0  0  0  0  0  0  0
  189.9680  173.6850  145.2000 C   0  0  0  0  0  2  0  0  0  0  0  0
  191.2160  173.3110  144.9430 C   0  0  0  0  0  3  0  0  0  0  0  0
  193.9980  172.1050  145.5180 C   0  0  0  0  0  2  0  0  0  0  0  0
  195.5040  171.9420  145.5460 C   0  0  0  0  0  2  0  0  0  0  0  0
  196.0980  173.1660  145.8540 O   0  0  0  0  0  1  0  0  0  0  0  0
  1 12  1  1  0  0  0
  2  7  1  0  0  0  0
  3  5  1  0  0  0  0
  4  7  2  0  0  0  0
  4 11  1  0  0  0  0
  6 10  1  0  0  0  0
  7  9  1  0  0  0  0
  8  6  1  0  0  0  0
  8  4  1  0  0  0  0
  9  3  1  0  0  0  0
  9 20  1  1  0  0  0
 10  1  1  0  0  0  0
 11  1  1  0  0  0  0
 11  5  1  1  0  0  0
 12 13  1  0  0  0  0
 13 18  1  1  0  0  0
 13 15  1  0  0  0  0
 15 14  1  1  0  0  0
 15 17  1  0  0  0  0
 16 17  1  0  0  0  0
 19 18  1  0  0  0  0
 20 21  1  0  0  0  0
 23 21  1  0  0  0  0
 23 22  2  0  0  0  0
 25 24  2  0  0  0  0
 25 23  1  0  0  0  0
 26 27  1  0  0  0  0
 26 22  1  0  0  0  0
 27 28  1  0  0  0  0
M  END
>  <MODEL>
7

>  <REMARK>
 VINA RESULT:      -5.7      1.675      2.415
  Name = 
  11 active torsions:
  status: ('A' for Active; 'I' for Inactive)
    1  A    between atoms: C_1  and  O_2
    2  A    between atoms: O_2  and  C_3
    3  A    between atoms: C_3  and  C_7
    4  A    between atoms: C_3  and  C_11
    5  A    between atoms: C_4  and  C_24
    6  A    between atoms: C_11  and  C_22
    7  A    between atoms: C_12  and  C_24
    8  A    between atoms: C_13  and  C_15
    9  A    between atoms: C_13  and  C_18
   10  A    between atoms: C_14  and  C_18
   11  A    between atoms: C_14  and  C_25
                            x       y       z     vdW  Elec       q    Type
                         _______ _______ _______ _____ _____    ______ ____

>  <TORSDO>
F 11

$$$$
=
 OpenBabel11052418033D

 28 29  0  0  1  0  0  0  0  0999 V2000
  188.1710  176.4170  145.7800 C   0  0  2  0  0  3  0  0  0  0  0  0
  191.4810  173.0630  144.2170 O   0  0  0  0  0  1  0  0  0  0  0  0
  189.9350  176.0670  142.3550 C   0  0  0  0  0  2  0  0  0  0  0  0
  189.8330  174.6270  144.8910 C   0  0  0  0  0  0  0  0  0  0  0  0
  189.5540  176.7880  143.6370 C   0  0  0  0  0  2  0  0  0  0  0  0
  188.9320  174.6360  147.2780 C   0  0  0  0  0  2  0  0  0  0  0  0
  190.6890  174.1780  143.9530 C   0  0  0  0  0  0  0  0  0  0  0  0
  189.8910  174.0120  146.2700 C   0  0  0  0  0  2  0  0  0  0  0  0
  190.8670  174.8780  142.6180 C   0  0  2  0  0  3  0  0  0  0  0  0
  188.8760  176.1390  147.0970 C   0  0  0  0  0  2  0  0  0  0  0  0
  188.8920  175.7810  144.5690 C   0  0  2  0  0  3  0  0  0  0  0  0
  187.9700  177.8010  145.6170 O   0  0  0  0  0  0  0  0  0  0  0  0
  186.6070  178.0550  145.3290 C   0  0  1  0  0  3  0  0  0  0  0  0
  185.4430  179.8080  143.8850 C   0  0  0  0  0  1  0  0  0  0  0  0
  186.3270  178.5720  143.9020 C   0  0  2  0  0  3  0  0  0  0  0  0
  184.3770  177.9260  142.4840 C   0  0  0  0  0  1  0  0  0  0  0  0
  185.7300  177.4920  143.0130 C   0  0  0  0  0  2  0  0  0  0  0  0
  185.6430  176.9730  145.8250 C   0  0  0  0  0  2  0  0  0  0  0  0
  184.6280  177.5660  146.7820 C   0  0  0  0  0  1  0  0  0  0  0  0
  192.3270  175.2130  142.2840 C   0  0  0  0  0  2  0  0  0  0  0  0
  192.9080  176.4150  143.0370 C   0  0  0  0  0  2  0  0  0  0  0  0
  194.5720  175.0330  144.1070 C   0  0  0  0  0  3  0  0  0  0  0  0
  193.6820  176.0270  144.2530 C   0  0  0  0  0  0  0  0  0  0  0  0
  192.6280  176.4030  146.4820 C   0  0  0  0  0  2  0  0  0  0  0  0
  193.4350  176.7880  145.5010 C   0  0  0  0  0  3  0  0  0  0  0  0
  195.4870  174.5070  145.1650 C   0  0  0  0  0  2  0  0  0  0  0  0
  196.9200  174.5320  144.6700 C   0  0  0  0  0  2  0  0  0  0  0  0
  197.0700  175.5510  143.7310 O   0  0  0  0  0  1  0  0  0  0  0  0
  1 12  1  6  0  0  0
  1 10  1  0  0  0  0
  3  9  1  0  0  0  0
  3  5  1  0  0  0  0
  4  8  1  0  0  0  0
  7  2  1  0  0  0  0
  7  4  2  0  0  0  0
  8  6  1  0  0  0  0
  9 20  1  1  0  0  0
  9  7  1  0  0  0  0
 10  6  1  0  0  0  0
 11  5  1  1  0  0  0
 11  4  1  0  0  0  0
 11  1  1  0  0  0  0
 13 12  1  0  0  0  0
 13 18  1  6  0  0  0
 15 14  1  1  0  0  0
 15 13  1  0  0  0  0
 16 17  1  0  0  0  0
 17 15  1  0  0  0  0
 18 19  1  0  0  0  0
 20 21  1  0  0  0  0
 21 23  1  0  0  0  0
 22 23  2  0  0  0  0
 22 26  1  0  0  0  0
 23 25  1  0  0  0  0
 25 24  2  0  0  0  0
 27 26  1  0  0  0  0
 28 27  1  0  0  0  0
M  END
>  <MODEL>
8

>  <REMARK>
 VINA RESULT:      -5.7      1.987      3.966
  Name = 
  11 active torsions:
  status: ('A' for Active; 'I' for Inactive)
    1  A    between atoms: C_1  and  O_2
    2  A    between atoms: O_2  and  C_3
    3  A    between atoms: C_3  and  C_7
    4  A    between atoms: C_3  and  C_11
    5  A    between atoms: C_4  and  C_24
    6  A    between atoms: C_11  and  C_22
    7  A    between atoms: C_12  and  C_24
    8  A    between atoms: C_13  and  C_15
    9  A    between atoms: C_13  and  C_18
   10  A    between atoms: C_14  and  C_18
   11  A    between atoms: C_14  and  C_25
                            x       y       z     vdW  Elec       q    Type
                         _______ _______ _______ _____ _____    ______ ____

>  <TORSDO>
F 11

$$$$
=
 OpenBabel11052418033D

 28 29  0  0  1  0  0  0  0  0999 V2000
  187.9310  177.3610  144.3140 C   0  0  2  0  0  3  0  0  0  0  0  0
  192.8850  177.1500  144.5570 O   0  0  0  0  0  1  0  0  0  0  0  0
  190.2370  176.2330  147.2080 C   0  0  0  0  0  2  0  0  0  0  0  0
  190.5220  177.3250  144.5170 C   0  0  0  0  0  0  0  0  0  0  0  0
  189.1330  176.0510  146.1790 C   0  0  0  0  0  2  0  0  0  0  0  0
  189.2950  178.0270  142.3920 C   0  0  0  0  0  2  0  0  0  0  0  0
  191.6470  176.9780  145.1710 C   0  0  0  0  0  0  0  0  0  0  0  0
  190.6300  177.7220  143.0620 C   0  0  0  0  0  2  0  0  0  0  0  0
  191.6190  176.3510  146.5520 C   0  0  2  0  0  3  0  0  0  0  0  0
  188.2330  177.0520  142.8570 C   0  0  0  0  0  2  0  0  0  0  0  0
  189.1760  177.2360  145.2230 C   0  0  2  0  0  3  0  0  0  0  0  0
  186.8550  176.5740  144.7670 O   0  0  0  0  0  0  0  0  0  0  0  0
  185.7140  177.3900  144.9600 C   0  0  1  0  0  3  0  0  0  0  0  0
  184.0740  178.3870  146.6410 C   0  0  0  0  0  1  0  0  0  0  0  0
  185.0390  177.2540  146.3410 C   0  0  2  0  0  3  0  0  0  0  0  0
  186.5530  178.4960  147.8890 C   0  0  0  0  0  1  0  0  0  0  0  0
  186.0590  177.1270  147.4620 C   0  0  0  0  0  2  0  0  0  0  0  0
  185.8720  178.8290  144.4570 C   0  0  0  0  0  2  0  0  0  0  0  0
  185.1230  179.0190  143.1540 C   0  0  0  0  0  1  0  0  0  0  0  0
  192.4120  175.0410  146.6540 C   0  0  0  0  0  2  0  0  0  0  0  0
  192.8140  174.4170  145.3130 C   0  0  0  0  0  2  0  0  0  0  0  0
  190.7020  173.2940  144.9960 C   0  0  0  0  0  3  0  0  0  0  0  0
  192.0390  173.1850  144.9850 C   0  0  0  0  0  0  0  0  0  0  0  0
  193.7550  171.8920  143.7170 C   0  0  0  0  0  2  0  0  0  0  0  0
  192.8020  171.9610  144.6390 C   0  0  0  0  0  3  0  0  0  0  0  0
  189.7260  172.2150  144.6570 C   0  0  0  0  0  2  0  0  0  0  0  0
  189.3320  172.3090  143.1970 C   0  0  0  0  0  2  0  0  0  0  0  0
  190.0130  171.3350  142.4680 O   0  0  0  0  0  1  0  0  0  0  0  0
  1 12  1  1  0  0  0
  1 11  1  0  0  0  0
  2  7  1  0  0  0  0
  4  7  2  0  0  0  0
  4 11  1  0  0  0  0
  5  3  1  0  0  0  0
  6 10  1  0  0  0  0
  6  8  1  0  0  0  0
  7  9  1  0  0  0  0
  8  4  1  0  0  0  0
  9 20  1  6  0  0  0
  9  3  1  0  0  0  0
 10  1  1  0  0  0  0
 11  5  1  6  0  0  0
 12 13  1  0  0  0  0
 13 18  1  1  0  0  0
 13 15  1  0  0  0  0
 15 14  1  1  0  0  0
 15 17  1  0  0  0  0
 17 16  1  0  0  0  0
 19 18  1  0  0  0  0
 21 20  1  0  0  0  0
 23 22  2  0  0  0  0
 23 21  1  0  0  0  0
 24 25  2  0  0  0  0
 25 23  1  0  0  0  0
 26 22  1  0  0  0  0
 27 26  1  0  0  0  0
 28 27  1  0  0  0  0
M  END
>  <MODEL>
9

>  <REMARK>
 VINA RESULT:      -5.6      1.740      3.371
  Name = 
  11 active torsions:
  status: ('A' for Active; 'I' for Inactive)
    1  A    between atoms: C_1  and  O_2
    2  A    between atoms: O_2  and  C_3
    3  A    between atoms: C_3  and  C_7
    4  A    between atoms: C_3  and  C_11
    5  A    between atoms: C_4  and  C_24
    6  A    between atoms: C_11  and  C_22
    7  A    between atoms: C_12  and  C_24
    8  A    between atoms: C_13  and  C_15
    9  A    between atoms: C_13  and  C_18
   10  A    between atoms: C_14  and  C_18
   11  A    between atoms: C_14  and  C_25
                            x       y       z     vdW  Elec       q    Type
                         _______ _______ _______ _____ _____    ______ ____

>  <TORSDO>
F 11

$$$$
