=
 OpenBabel11052418193D

 27 31  0  0  1  0  0  0  0  0999 V2000
  188.0340  176.1400  143.5210 N   0  0  2  0  0  0  0  0  0  0  0  0
  188.5270  175.9390  145.6980 C   0  0  1  0  0  3  0  0  0  0  0  0
  189.3610  175.5370  143.5760 C   0  0  1  0  0  3  0  0  0  0  0  0
  192.5610  176.6250  147.6590 C   0  0  0  0  0  3  0  0  0  0  0  0
  194.4770  175.7620  146.3190 C   0  0  0  0  0  1  0  0  0  0  0  0
  188.8810  176.5410  146.9460 N   0  0  0  0  0  2  0  0  0  0  0  0
  192.0810  175.4940  145.5420 C   0  0  0  0  0  0  0  0  0  0  0  0
  192.5310  174.7760  144.3140 C   0  0  0  0  0  1  0  0  0  0  0  0
  190.7210  175.7170  145.7890 C   0  0  0  0  0  0  0  0  0  0  0  0
  187.6160  176.4070  144.8600 C   0  0  1  0  0  3  0  0  0  0  0  0
  193.0100  175.9600  146.5010 C   0  0  0  0  0  0  0  0  0  0  0  0
  191.1910  176.8380  147.8810 C   0  0  0  0  0  3  0  0  0  0  0  0
  187.1510  175.4850  142.5740 C   0  0  0  0  0  2  0  0  0  0  0  0
  189.6000  175.3280  145.0010 N   0  0  0  0  0  0  0  0  0  0  0  0
  190.2940  176.3640  146.9300 C   0  0  0  0  0  0  0  0  0  0  0  0
  187.9830  174.3990  141.9140 C   0  0  2  0  0  3  0  0  0  0  0  0
  189.1940  174.2130  142.8510 C   0  0  1  0  0  3  0  0  0  0  0  0
  184.3390  179.0010  145.8150 C   0  0  0  0  0  3  0  0  0  0  0  0
  186.4850  177.2990  145.2030 C   0  0  0  0  0  0  0  0  0  0  0  0
  185.4860  176.8900  146.0990 C   0  0  0  0  0  3  0  0  0  0  0  0
  184.4180  177.7380  146.4050 C   0  0  0  0  0  3  0  0  0  0  0  0
  185.3270  179.4160  144.9180 C   0  0  0  0  0  3  0  0  0  0  0  0
  186.3950  178.5680  144.6130 C   0  0  0  0  0  3  0  0  0  0  0  0
  190.5260  172.3700  142.1200 O   0  0  0  0  0  1  0  0  0  0  0  0
  190.4800  173.7630  142.1700 C   0  0  0  0  0  2  0  0  0  0  0  0
  187.6030  176.0120  140.1850 O   0  0  0  0  0  1  0  0  0  0  0  0
  188.3610  174.8890  140.5180 C   0  0  0  0  0  2  0  0  0  0  0  0
  1 13  1  1  0  0  0
  1  3  1  0  0  0  0
  1 10  1  0  0  0  0
  2  6  1  6  0  0  0
  3 14  1  1  0  0  0
  4 12  1  0  0  0  0
  5 11  1  0  0  0  0
  7  9  2  0  0  0  0
  7 11  1  0  0  0  0
  8  7  1  0  0  0  0
  9 15  1  0  0  0  0
 10 19  1  6  0  0  0
 10  2  1  0  0  0  0
 11  4  2  0  0  0  0
 14  2  1  0  0  0  0
 14  9  1  0  0  0  0
 15  6  1  0  0  0  0
 15 12  2  0  0  0  0
 16 27  1  6  0  0  0
 16 13  1  0  0  0  0
 16 17  1  0  0  0  0
 17 25  1  6  0  0  0
 17  3  1  0  0  0  0
 18 21  1  0  0  0  0
 19 20  1  0  0  0  0
 20 21  2  0  0  0  0
 22 18  2  0  0  0  0
 23 22  1  0  0  0  0
 23 19  2  0  0  0  0
 24 25  1  0  0  0  0
 26 27  1  0  0  0  0
M  END
>  <MODEL>
1

>  <REMARK>
 VINA RESULT:      -8.2      0.000      0.000
  Name = 
  3 active torsions:
  status: ('A' for Active; 'I' for Inactive)
    1  A    between atoms: C_9  and  C_15
    2  A    between atoms: C_20  and  C_26
    3  A    between atoms: C_22  and  C_24
                            x       y       z     vdW  Elec       q    Type
                         _______ _______ _______ _____ _____    ______ ____

>  <TORSDO>
F 3

$$$$
=
 OpenBabel11052418193D

 27 31  0  0  1  0  0  0  0  0999 V2000
  188.8750  176.4980  146.0950 N   0  0  2  0  0  0  0  0  0  0  0  0
  188.3540  176.2420  143.9300 C   0  0  1  0  0  3  0  0  0  0  0  0
  189.8480  175.5540  145.5590 C   0  0  1  0  0  3  0  0  0  0  0  0
  188.4830  172.3950  141.5270 C   0  0  0  0  0  3  0  0  0  0  0  0
  190.4510  170.9590  142.0540 C   0  0  0  0  0  1  0  0  0  0  0  0
  187.4800  175.7270  142.9210 N   0  0  0  0  0  2  0  0  0  0  0  0
  190.1020  173.2040  143.1750 C   0  0  0  0  0  0  0  0  0  0  0  0
  191.3620  173.0410  143.9570 C   0  0  0  0  0  1  0  0  0  0  0  0
  189.3140  174.3530  143.3110 C   0  0  0  0  0  0  0  0  0  0  0  0
  187.9610  176.8280  145.0490 C   0  0  1  0  0  3  0  0  0  0  0  0
  189.6710  172.2130  142.2640 C   0  0  0  0  0  0  0  0  0  0  0  0
  187.7100  173.5560  141.6850 C   0  0  0  0  0  3  0  0  0  0  0  0
  189.4780  177.5280  146.9200 C   0  0  0  0  0  2  0  0  0  0  0  0
  189.5410  175.4940  144.1330 N   0  0  0  0  0  0  0  0  0  0  0  0
  188.1570  174.5220  142.5800 C   0  0  0  0  0  0  0  0  0  0  0  0
  190.9600  177.2000  146.9760 C   0  0  2  0  0  3  0  0  0  0  0  0
  191.1870  176.2280  145.8010 C   0  0  1  0  0  3  0  0  0  0  0  0
  184.1910  178.7440  145.7560 C   0  0  0  0  0  3  0  0  0  0  0  0
  186.6580  177.4930  145.2800 C   0  0  0  0  0  0  0  0  0  0  0  0
  186.3140  178.6700  144.5980 C   0  0  0  0  0  3  0  0  0  0  0  0
  185.0850  179.2930  144.8340 C   0  0  0  0  0  3  0  0  0  0  0  0
  184.5260  177.5750  146.4420 C   0  0  0  0  0  3  0  0  0  0  0  0
  185.7540  176.9520  146.2060 C   0  0  0  0  0  3  0  0  0  0  0  0
  193.4670  175.6690  145.3570 O   0  0  0  0  0  1  0  0  0  0  0  0
  192.3130  175.2210  145.9990 C   0  0  0  0  0  2  0  0  0  0  0  0
  191.6310  177.5780  149.2430 O   0  0  0  0  0  1  0  0  0  0  0  0
  191.2470  176.5840  148.3430 C   0  0  0  0  0  2  0  0  0  0  0  0
  1 13  1  6  0  0  0
  2  6  1  1  0  0  0
  2 14  1  0  0  0  0
  2 10  1  0  0  0  0
  3 14  1  6  0  0  0
  3 17  1  0  0  0  0
  3  1  1  0  0  0  0
  4 12  2  0  0  0  0
  4 11  1  0  0  0  0
  5 11  1  0  0  0  0
  7  9  1  0  0  0  0
  7  8  1  0  0  0  0
  9 14  1  0  0  0  0
 10 19  1  1  0  0  0
 10  1  1  0  0  0  0
 11  7  2  0  0  0  0
 12 15  1  0  0  0  0
 13 16  1  0  0  0  0
 15  6  1  0  0  0  0
 15  9  2  0  0  0  0
 16 27  1  1  0  0  0
 17 25  1  1  0  0  0
 17 16  1  0  0  0  0
 18 22  1  0  0  0  0
 19 23  1  0  0  0  0
 20 21  1  0  0  0  0
 20 19  2  0  0  0  0
 21 18  2  0  0  0  0
 23 22  2  0  0  0  0
 24 25  1  0  0  0  0
 27 26  1  0  0  0  0
M  END
>  <MODEL>
2

>  <REMARK>
 VINA RESULT:      -7.6      2.289      4.942
  Name = 
  3 active torsions:
  status: ('A' for Active; 'I' for Inactive)
    1  A    between atoms: C_9  and  C_15
    2  A    between atoms: C_20  and  C_26
    3  A    between atoms: C_22  and  C_24
                            x       y       z     vdW  Elec       q    Type
                         _______ _______ _______ _____ _____    ______ ____

>  <TORSDO>
F 3

$$$$
=
 OpenBabel11052418193D

 27 31  0  0  1  0  0  0  0  0999 V2000
  188.8980  176.6640  145.6480 N   0  0  2  0  0  0  0  0  0  0  0  0
  188.4300  177.0340  143.4880 C   0  0  1  0  0  3  0  0  0  0  0  0
  189.9400  175.9800  144.8900 C   0  0  1  0  0  3  0  0  0  0  0  0
  188.8490  174.0930  140.0590 C   0  0  0  0  0  3  0  0  0  0  0  0
  190.8980  172.6810  140.2040 C   0  0  0  0  0  1  0  0  0  0  0  0
  187.6080  176.7940  142.3420 N   0  0  0  0  0  2  0  0  0  0  0  0
  190.3850  174.4660  141.9280 C   0  0  0  0  0  0  0  0  0  0  0  0
  191.6410  174.1510  142.6690 C   0  0  0  0  0  1  0  0  0  0  0  0
  189.5210  175.4750  142.3700 C   0  0  0  0  0  0  0  0  0  0  0  0
  187.9810  177.2380  144.7150 C   0  0  1  0  0  3  0  0  0  0  0  0
  190.0340  173.7680  140.7490 C   0  0  0  0  0  0  0  0  0  0  0  0
  187.9990  175.1070  140.5260 C   0  0  0  0  0  3  0  0  0  0  0  0
  189.4190  177.4350  146.7620 C   0  0  0  0  0  2  0  0  0  0  0  0
  189.6600  176.3300  143.5000 N   0  0  0  0  0  0  0  0  0  0  0  0
  188.3670  175.7870  141.6820 C   0  0  0  0  0  0  0  0  0  0  0  0
  190.9190  177.1920  146.7690 C   0  0  2  0  0  3  0  0  0  0  0  0
  191.2280  176.6280  145.3670 C   0  0  1  0  0  3  0  0  0  0  0  0
  184.0860  178.6420  145.8300 C   0  0  0  0  0  3  0  0  0  0  0  0
  186.6340  177.7270  145.0870 C   0  0  0  0  0  0  0  0  0  0  0  0
  186.1270  178.9250  144.5610 C   0  0  0  0  0  3  0  0  0  0  0  0
  184.8580  179.3810  144.9290 C   0  0  0  0  0  3  0  0  0  0  0  0
  184.5840  177.4500  146.3620 C   0  0  0  0  0  3  0  0  0  0  0  0
  185.8520  176.9950  145.9930 C   0  0  0  0  0  3  0  0  0  0  0  0
  193.5540  176.3670  144.8910 O   0  0  0  0  0  1  0  0  0  0  0  0
  192.4140  175.6740  145.2970 C   0  0  0  0  0  2  0  0  0  0  0  0
  191.5890  176.9140  149.0510 O   0  0  0  0  0  1  0  0  0  0  0  0
  191.2240  176.2140  147.9010 C   0  0  0  0  0  2  0  0  0  0  0  0
  1 13  1  6  0  0  0
  2  6  1  6  0  0  0
  2 14  1  0  0  0  0
  2 10  1  0  0  0  0
  3 14  1  6  0  0  0
  3 17  1  0  0  0  0
  3  1  1  0  0  0  0
  4 12  2  0  0  0  0
  4 11  1  0  0  0  0
  5 11  1  0  0  0  0
  7  9  1  0  0  0  0
  7  8  1  0  0  0  0
  9 14  1  0  0  0  0
 10 19  1  6  0  0  0
 10  1  1  0  0  0  0
 11  7  2  0  0  0  0
 12 15  1  0  0  0  0
 13 16  1  0  0  0  0
 15  6  1  0  0  0  0
 15  9  2  0  0  0  0
 16 27  1  1  0  0  0
 17 25  1  1  0  0  0
 17 16  1  0  0  0  0
 18 22  1  0  0  0  0
 19 23  1  0  0  0  0
 20 21  1  0  0  0  0
 20 19  2  0  0  0  0
 21 18  2  0  0  0  0
 23 22  2  0  0  0  0
 24 25  1  0  0  0  0
 27 26  1  0  0  0  0
M  END
>  <MODEL>
3

>  <REMARK>
 VINA RESULT:      -7.3      2.235      4.997
  Name = 
  3 active torsions:
  status: ('A' for Active; 'I' for Inactive)
    1  A    between atoms: C_9  and  C_15
    2  A    between atoms: C_20  and  C_26
    3  A    between atoms: C_22  and  C_24
                            x       y       z     vdW  Elec       q    Type
                         _______ _______ _______ _____ _____    ______ ____

>  <TORSDO>
F 3

$$$$
=
 OpenBabel11052418193D

 27 31  0  0  1  0  0  0  0  0999 V2000
  188.0190  177.4860  145.8500 N   0  0  2  0  0  0  0  0  0  0  0  0
  188.0160  176.2600  143.9740 C   0  0  1  0  0  3  0  0  0  0  0  0
  186.7170  177.7070  145.2290 C   0  0  1  0  0  3  0  0  0  0  0  0
  186.2480  177.4150  139.9580 C   0  0  0  0  0  3  0  0  0  0  0  0
  184.0670  178.6090  140.1380 C   0  0  0  0  0  1  0  0  0  0  0  0
  188.4810  176.0430  142.6380 N   0  0  0  0  0  2  0  0  0  0  0  0
  185.3010  177.7730  142.1870 C   0  0  0  0  0  0  0  0  0  0  0  0
  184.2240  178.2880  143.0810 C   0  0  0  0  0  1  0  0  0  0  0  0
  186.4180  177.1120  142.7120 C   0  0  0  0  0  0  0  0  0  0  0  0
  188.7760  176.6330  144.9900 C   0  0  1  0  0  3  0  0  0  0  0  0
  185.2230  177.9220  140.7830 C   0  0  0  0  0  0  0  0  0  0  0  0
  187.3590  176.7600  140.5110 C   0  0  0  0  0  3  0  0  0  0  0  0
  187.9330  177.2330  147.2760 C   0  0  0  0  0  2  0  0  0  0  0  0
  186.7160  176.8160  144.0730 N   0  0  0  0  0  0  0  0  0  0  0  0
  187.4120  176.6160  141.8930 C   0  0  0  0  0  0  0  0  0  0  0  0
  186.4610  177.3520  147.6300 C   0  0  2  0  0  3  0  0  0  0  0  0
  185.7250  177.2390  146.2790 C   0  0  1  0  0  3  0  0  0  0  0  0
  193.0100  176.0470  145.3250 C   0  0  0  0  0  3  0  0  0  0  0  0
  190.2400  176.4440  145.1080 C   0  0  0  0  0  0  0  0  0  0  0  0
  191.1370  177.3550  144.5290 C   0  0  0  0  0  3  0  0  0  0  0  0
  192.5160  177.1590  144.6380 C   0  0  0  0  0  3  0  0  0  0  0  0
  192.1250  175.1320  145.9000 C   0  0  0  0  0  3  0  0  0  0  0  0
  190.7460  175.3290  145.7910 C   0  0  0  0  0  3  0  0  0  0  0  0
  184.6340  179.3300  145.9050 O   0  0  0  0  0  1  0  0  0  0  0  0
  184.4000  177.9870  146.1950 C   0  0  0  0  0  2  0  0  0  0  0  0
  187.4850  179.1950  148.7660 O   0  0  0  0  0  1  0  0  0  0  0  0
  186.2590  178.6970  148.3240 C   0  0  0  0  0  2  0  0  0  0  0  0
  1 13  1  1  0  0  0
  2  6  1  6  0  0  0
  2 14  1  0  0  0  0
  2 10  1  0  0  0  0
  3 14  1  6  0  0  0
  3  1  1  0  0  0  0
  3 17  1  0  0  0  0
  4 12  2  0  0  0  0
  4 11  1  0  0  0  0
  5 11  1  0  0  0  0
  7  9  1  0  0  0  0
  7  8  1  0  0  0  0
  9 14  1  0  0  0  0
 10 19  1  6  0  0  0
 10  1  1  0  0  0  0
 11  7  2  0  0  0  0
 12 15  1  0  0  0  0
 13 16  1  0  0  0  0
 15  6  1  0  0  0  0
 15  9  2  0  0  0  0
 16 27  1  6  0  0  0
 17 25  1  1  0  0  0
 17 16  1  0  0  0  0
 18 22  1  0  0  0  0
 19 23  1  0  0  0  0
 20 21  1  0  0  0  0
 20 19  2  0  0  0  0
 21 18  2  0  0  0  0
 23 22  2  0  0  0  0
 24 25  1  0  0  0  0
 27 26  1  0  0  0  0
M  END
>  <MODEL>
4

>  <REMARK>
 VINA RESULT:      -7.1      3.009      7.252
  Name = 
  3 active torsions:
  status: ('A' for Active; 'I' for Inactive)
    1  A    between atoms: C_9  and  C_15
    2  A    between atoms: C_20  and  C_26
    3  A    between atoms: C_22  and  C_24
                            x       y       z     vdW  Elec       q    Type
                         _______ _______ _______ _____ _____    ______ ____

>  <TORSDO>
F 3

$$$$
=
 OpenBabel11052418193D

 27 31  0  0  1  0  0  0  0  0999 V2000
  189.2340  174.8340  143.0190 N   0  0  2  0  0  0  0  0  0  0  0  0
  189.9110  175.2370  145.1170 C   0  0  1  0  0  3  0  0  0  0  0  0
  190.5070  174.1380  143.1700 C   0  0  1  0  0  3  0  0  0  0  0  0
  194.1520  176.0410  146.5130 C   0  0  0  0  0  3  0  0  0  0  0  0
  195.8580  174.6200  145.3790 C   0  0  0  0  0  1  0  0  0  0  0  0
  190.4280  176.1420  146.0970 N   0  0  0  0  0  2  0  0  0  0  0  0
  193.3860  174.3900  144.8760 C   0  0  0  0  0  0  0  0  0  0  0  0
  193.6580  173.2960  143.8990 C   0  0  0  0  0  1  0  0  0  0  0  0
  192.0780  174.8200  145.1300 C   0  0  0  0  0  0  0  0  0  0  0  0
  188.9670  175.5300  144.2380 C   0  0  1  0  0  3  0  0  0  0  0  0
  194.4360  175.0180  145.5860 C   0  0  0  0  0  0  0  0  0  0  0  0
  192.8320  176.4550  146.7470 C   0  0  0  0  0  3  0  0  0  0  0  0
  188.2160  174.0260  142.3760 C   0  0  0  0  0  2  0  0  0  0  0  0
  190.8600  174.3370  144.5720 N   0  0  0  0  0  0  0  0  0  0  0  0
  191.8140  175.8180  146.0450 C   0  0  0  0  0  0  0  0  0  0  0  0
  188.8910  172.7100  142.0250 C   0  0  2  0  0  3  0  0  0  0  0  0
  190.1650  172.6840  142.8950 C   0  0  1  0  0  3  0  0  0  0  0  0
  186.0310  178.6280  144.6430 C   0  0  0  0  0  3  0  0  0  0  0  0
  187.9500  176.5980  144.3640 C   0  0  0  0  0  0  0  0  0  0  0  0
  187.7570  177.5400  143.3420 C   0  0  0  0  0  3  0  0  0  0  0  0
  186.8010  178.5500  143.4800 C   0  0  0  0  0  3  0  0  0  0  0  0
  186.2190  177.6980  145.6680 C   0  0  0  0  0  3  0  0  0  0  0  0
  187.1750  176.6880  145.5300 C   0  0  0  0  0  3  0  0  0  0  0  0
  191.3290  170.6020  142.7660 O   0  0  0  0  0  1  0  0  0  0  0  0
  191.3410  171.9170  142.3020 C   0  0  0  0  0  2  0  0  0  0  0  0
  188.0100  173.0190  139.8210 O   0  0  0  0  0  1  0  0  0  0  0  0
  189.1760  172.7210  140.5250 C   0  0  0  0  0  2  0  0  0  0  0  0
  1 13  1  1  0  0  0
  1  3  1  0  0  0  0
  1 10  1  0  0  0  0
  2  6  1  6  0  0  0
  3 14  1  1  0  0  0
  4 12  1  0  0  0  0
  5 11  1  0  0  0  0
  7  9  2  0  0  0  0
  7 11  1  0  0  0  0
  8  7  1  0  0  0  0
  9 15  1  0  0  0  0
 10 19  1  6  0  0  0
 10  2  1  0  0  0  0
 11  4  2  0  0  0  0
 14  2  1  0  0  0  0
 14  9  1  0  0  0  0
 15  6  1  0  0  0  0
 15 12  2  0  0  0  0
 16 27  1  6  0  0  0
 16 13  1  0  0  0  0
 16 17  1  0  0  0  0
 17 25  1  6  0  0  0
 17  3  1  0  0  0  0
 18 22  1  0  0  0  0
 19 23  1  0  0  0  0
 20 21  1  0  0  0  0
 20 19  2  0  0  0  0
 21 18  2  0  0  0  0
 23 22  2  0  0  0  0
 25 24  1  0  0  0  0
 26 27  1  0  0  0  0
M  END
>  <MODEL>
5

>  <REMARK>
 VINA RESULT:      -6.8      1.481      2.165
  Name = 
  3 active torsions:
  status: ('A' for Active; 'I' for Inactive)
    1  A    between atoms: C_9  and  C_15
    2  A    between atoms: C_20  and  C_26
    3  A    between atoms: C_22  and  C_24
                            x       y       z     vdW  Elec       q    Type
                         _______ _______ _______ _____ _____    ______ ____

>  <TORSDO>
F 3

$$$$
=
 OpenBabel11052418193D

 27 31  0  0  1  0  0  0  0  0999 V2000
  190.0200  176.1890  144.7760 N   0  0  2  0  0  0  0  0  0  0  0  0
  189.0800  176.1590  142.7420 C   0  0  1  0  0  3  0  0  0  0  0  0
  190.9100  175.3960  143.9360 C   0  0  1  0  0  3  0  0  0  0  0  0
  188.9120  172.6570  139.8630 C   0  0  0  0  0  3  0  0  0  0  0  0
  191.0180  171.3250  139.7920 C   0  0  0  0  0  1  0  0  0  0  0  0
  188.0450  175.7050  141.8650 N   0  0  0  0  0  2  0  0  0  0  0  0
  190.7910  173.3820  141.2540 C   0  0  0  0  0  0  0  0  0  0  0  0
  192.1910  173.2230  141.7430 C   0  0  0  0  0  1  0  0  0  0  0  0
  189.9890  174.4410  141.6960 C   0  0  0  0  0  0  0  0  0  0  0  0
  188.8940  176.5720  143.9850 C   0  0  1  0  0  3  0  0  0  0  0  0
  190.2340  172.4790  140.3190 C   0  0  0  0  0  0  0  0  0  0  0  0
  188.1280  173.7250  140.3250 C   0  0  0  0  0  3  0  0  0  0  0  0
  190.7250  177.1540  145.5990 C   0  0  0  0  0  2  0  0  0  0  0  0
  190.3200  175.4870  142.6040 N   0  0  0  0  0  0  0  0  0  0  0  0
  188.6990  174.6070  141.2370 C   0  0  0  0  0  0  0  0  0  0  0  0
  192.2020  176.9390  145.3170 C   0  0  2  0  0  3  0  0  0  0  0  0
  192.2330  176.1380  143.9990 C   0  0  1  0  0  3  0  0  0  0  0  0
  185.2560  178.0890  145.6730 C   0  0  0  0  0  3  0  0  0  0  0  0
  187.6340  177.0990  144.5550 C   0  0  0  0  0  0  0  0  0  0  0  0
  187.0640  178.2890  144.0770 C   0  0  0  0  0  3  0  0  0  0  0  0
  185.8790  178.7810  144.6320 C   0  0  0  0  0  3  0  0  0  0  0  0
  185.8190  176.9060  146.1600 C   0  0  0  0  0  3  0  0  0  0  0  0
  187.0030  176.4140  145.6040 C   0  0  0  0  0  3  0  0  0  0  0  0
  194.5480  175.9370  143.4460 O   0  0  0  0  0  1  0  0  0  0  0  0
  193.4260  175.2050  143.8330 C   0  0  0  0  0  2  0  0  0  0  0  0
  193.9990  176.7740  146.8910 O   0  0  0  0  0  1  0  0  0  0  0  0
  192.7950  176.1850  146.5040 C   0  0  0  0  0  2  0  0  0  0  0  0
  1 13  1  6  0  0  0
  2  6  1  1  0  0  0
  2 10  1  0  0  0  0
  3 14  1  6  0  0  0
  3 17  1  0  0  0  0
  3  1  1  0  0  0  0
  4 11  2  0  0  0  0
  4 12  1  0  0  0  0
  5 11  1  0  0  0  0
  7  9  2  0  0  0  0
  7  8  1  0  0  0  0
  9 14  1  0  0  0  0
 10 19  1  1  0  0  0
 10  1  1  0  0  0  0
 11  7  1  0  0  0  0
 12 15  2  0  0  0  0
 14  2  1  0  0  0  0
 15  9  1  0  0  0  0
 15  6  1  0  0  0  0
 16 13  1  0  0  0  0
 16 27  1  1  0  0  0
 17 25  1  1  0  0  0
 17 16  1  0  0  0  0
 18 22  1  0  0  0  0
 19 23  1  0  0  0  0
 20 19  2  0  0  0  0
 20 21  1  0  0  0  0
 21 18  2  0  0  0  0
 23 22  2  0  0  0  0
 24 25  1  0  0  0  0
 27 26  1  0  0  0  0
M  END
>  <MODEL>
6

>  <REMARK>
 VINA RESULT:      -6.7      2.295      5.225
  Name = 
  3 active torsions:
  status: ('A' for Active; 'I' for Inactive)
    1  A    between atoms: C_9  and  C_15
    2  A    between atoms: C_20  and  C_26
    3  A    between atoms: C_22  and  C_24
                            x       y       z     vdW  Elec       q    Type
                         _______ _______ _______ _____ _____    ______ ____

>  <TORSDO>
F 3

$$$$
=
 OpenBabel11052418193D

 27 31  0  0  1  0  0  0  0  0999 V2000
  190.2830  175.1900  143.5690 N   0  0  2  0  0  0  0  0  0  0  0  0
  190.1360  176.9800  144.9090 C   0  0  1  0  0  3  0  0  0  0  0  0
  188.8990  175.6400  143.4850 C   0  0  1  0  0  3  0  0  0  0  0  0
  186.6800  178.0740  147.6370 C   0  0  0  0  0  3  0  0  0  0  0  0
  184.4420  177.6410  146.6290 C   0  0  0  0  0  1  0  0  0  0  0  0
  190.1110  177.5410  146.2250 N   0  0  0  0  0  2  0  0  0  0  0  0
  186.5860  177.1940  145.3550 C   0  0  0  0  0  0  0  0  0  0  0  0
  185.8140  176.7350  144.1640 C   0  0  0  0  0  1  0  0  0  0  0  0
  187.9850  177.2210  145.3410 C   0  0  0  0  0  0  0  0  0  0  0  0
  190.9620  176.0290  144.5050 C   0  0  1  0  0  3  0  0  0  0  0  0
  185.9300  177.6320  146.5290 C   0  0  0  0  0  0  0  0  0  0  0  0
  188.0830  178.0870  147.5980 C   0  0  0  0  0  3  0  0  0  0  0  0
  190.8630  174.8850  142.2740 C   0  0  0  0  0  2  0  0  0  0  0  0
  188.8700  176.8610  144.2840 N   0  0  0  0  0  0  0  0  0  0  0  0
  188.7080  177.6610  146.4300 C   0  0  0  0  0  0  0  0  0  0  0  0
  189.7500  175.1000  141.2620 C   0  0  2  0  0  3  0  0  0  0  0  0
  188.7010  175.9480  142.0110 C   0  0  1  0  0  3  0  0  0  0  0  0
  194.7670  175.0990  146.2500 C   0  0  0  0  0  3  0  0  0  0  0  0
  192.2750  175.6950  145.1010 C   0  0  0  0  0  0  0  0  0  0  0  0
  192.5510  174.4020  145.5690 C   0  0  0  0  0  3  0  0  0  0  0  0
  193.7920  174.1030  146.1400 C   0  0  0  0  0  3  0  0  0  0  0  0
  194.5000  176.3910  145.7900 C   0  0  0  0  0  3  0  0  0  0  0  0
  193.2590  176.6880  145.2190 C   0  0  0  0  0  3  0  0  0  0  0  0
  186.8570  176.7990  140.7540 O   0  0  0  0  0  1  0  0  0  0  0  0
  187.2590  175.7390  141.5660 C   0  0  0  0  0  2  0  0  0  0  0  0
  189.1830  173.6420  139.4490 O   0  0  0  0  0  1  0  0  0  0  0  0
  189.2360  173.7260  140.8400 C   0  0  0  0  0  2  0  0  0  0  0  0
  1 13  1  6  0  0  0
  1 10  1  0  0  0  0
  2  6  1  1  0  0  0
  3  1  1  0  0  0  0
  3 14  1  1  0  0  0
  6 15  1  0  0  0  0
  7 11  1  0  0  0  0
  8  7  1  0  0  0  0
  9  7  2  0  0  0  0
  9 15  1  0  0  0  0
 10  2  1  0  0  0  0
 10 19  1  1  0  0  0
 11  5  1  0  0  0  0
 11  4  2  0  0  0  0
 12  4  1  0  0  0  0
 14  2  1  0  0  0  0
 14  9  1  0  0  0  0
 15 12  2  0  0  0  0
 16 27  1  1  0  0  0
 16 17  1  0  0  0  0
 16 13  1  0  0  0  0
 17 25  1  6  0  0  0
 17  3  1  0  0  0  0
 19 23  2  0  0  0  0
 19 20  1  0  0  0  0
 20 21  2  0  0  0  0
 21 18  1  0  0  0  0
 22 18  2  0  0  0  0
 23 22  1  0  0  0  0
 24 25  1  0  0  0  0
 26 27  1  0  0  0  0
M  END
>  <MODEL>
7

>  <REMARK>
 VINA RESULT:      -6.5      1.620      5.695
  Name = 
  3 active torsions:
  status: ('A' for Active; 'I' for Inactive)
    1  A    between atoms: C_9  and  C_15
    2  A    between atoms: C_20  and  C_26
    3  A    between atoms: C_22  and  C_24
                            x       y       z     vdW  Elec       q    Type
                         _______ _______ _______ _____ _____    ______ ____

>  <TORSDO>
F 3

$$$$
=
 OpenBabel11052418193D

 27 31  0  0  1  0  0  0  0  0999 V2000
  186.3900  177.2840  144.5950 N   0  0  2  0  0  0  0  0  0  0  0  0
  187.6470  176.7750  142.8110 C   0  0  1  0  0  3  0  0  0  0  0  0
  187.5240  176.5240  145.1080 C   0  0  1  0  0  3  0  0  0  0  0  0
  189.8380  172.8780  142.0350 C   0  0  0  0  0  3  0  0  0  0  0  0
  190.9090  171.9170  144.0710 C   0  0  0  0  0  1  0  0  0  0  0  0
  187.8420  176.0220  141.6100 N   0  0  0  0  0  2  0  0  0  0  0  0
  189.6510  174.1160  144.1390 C   0  0  0  0  0  0  0  0  0  0  0  0
  189.9440  174.2700  145.5930 C   0  0  0  0  0  1  0  0  0  0  0  0
  188.9180  175.0850  143.4450 C   0  0  0  0  0  0  0  0  0  0  0  0
  186.5090  177.3450  143.1730 C   0  0  1  0  0  3  0  0  0  0  0  0
  190.1170  172.9950  143.4120 C   0  0  0  0  0  0  0  0  0  0  0  0
  189.0970  173.8630  141.3640 C   0  0  0  0  0  3  0  0  0  0  0  0
  186.1000  178.4710  145.3770 C   0  0  0  0  0  2  0  0  0  0  0  0
  188.3670  176.3030  143.9370 N   0  0  0  0  0  0  0  0  0  0  0  0
  188.6560  174.9610  142.0960 C   0  0  0  0  0  0  0  0  0  0  0  0
  187.0890  178.4590  146.5300 C   0  0  2  0  0  3  0  0  0  0  0  0
  188.1910  177.4740  146.0880 C   0  0  1  0  0  3  0  0  0  0  0  0
  183.3160  178.4710  140.5430 C   0  0  0  0  0  3  0  0  0  0  0  0
  185.4020  177.7420  142.2750 C   0  0  0  0  0  0  0  0  0  0  0  0
  184.1000  177.9220  142.7660 C   0  0  0  0  0  3  0  0  0  0  0  0
  183.0610  178.2870  141.9050 C   0  0  0  0  0  3  0  0  0  0  0  0
  184.6080  178.2890  140.0440 C   0  0  0  0  0  3  0  0  0  0  0  0
  185.6460  177.9260  140.9060 C   0  0  0  0  0  3  0  0  0  0  0  0
  190.0210  177.4540  147.6220 O   0  0  0  0  0  1  0  0  0  0  0  0
  188.8960  176.7360  147.2190 C   0  0  0  0  0  2  0  0  0  0  0  0
  184.9790  178.2970  147.6490 O   0  0  0  0  0  1  0  0  0  0  0  0
  186.3370  178.0130  147.7820 C   0  0  0  0  0  2  0  0  0  0  0  0
  1  3  1  0  0  0  0
  1 13  1  1  0  0  0
  2  6  1  6  0  0  0
  2 10  1  0  0  0  0
  2 14  1  0  0  0  0
  3 14  1  6  0  0  0
  3 17  1  0  0  0  0
  4 11  1  0  0  0  0
  6 15  1  0  0  0  0
  7  8  1  0  0  0  0
  9 14  1  0  0  0  0
  9  7  1  0  0  0  0
 10 19  1  6  0  0  0
 10  1  1  0  0  0  0
 11  5  1  0  0  0  0
 11  7  2  0  0  0  0
 12  4  2  0  0  0  0
 12 15  1  0  0  0  0
 13 16  1  0  0  0  0
 15  9  2  0  0  0  0
 16 27  1  1  0  0  0
 17 16  1  0  0  0  0
 17 25  1  1  0  0  0
 18 21  1  0  0  0  0
 19 20  1  0  0  0  0
 21 20  2  0  0  0  0
 22 18  2  0  0  0  0
 22 23  1  0  0  0  0
 23 19  2  0  0  0  0
 25 24  1  0  0  0  0
 26 27  1  0  0  0  0
M  END
>  <MODEL>
8

>  <REMARK>
 VINA RESULT:      -6.5      3.091      5.112
  Name = 
  3 active torsions:
  status: ('A' for Active; 'I' for Inactive)
    1  A    between atoms: C_9  and  C_15
    2  A    between atoms: C_20  and  C_26
    3  A    between atoms: C_22  and  C_24
                            x       y       z     vdW  Elec       q    Type
                         _______ _______ _______ _____ _____    ______ ____

>  <TORSDO>
F 3

$$$$
=
 OpenBabel11052418193D

 27 31  0  0  1  0  0  0  0  0999 V2000
  189.2320  176.0030  142.4760 N   0  0  2  0  0  0  0  0  0  0  0  0
  187.0360  175.9720  142.9230 C   0  0  1  0  0  3  0  0  0  0  0  0
  189.1070  176.3230  143.8940 C   0  0  1  0  0  3  0  0  0  0  0  0
  184.7630  178.8030  145.6440 C   0  0  0  0  0  3  0  0  0  0  0  0
  185.9970  179.3820  147.7310 C   0  0  0  0  0  1  0  0  0  0  0  0
  185.7400  176.5670  142.7990 N   0  0  0  0  0  2  0  0  0  0  0  0
  186.9550  177.7820  146.0170 C   0  0  0  0  0  0  0  0  0  0  0  0
  188.1770  177.5790  146.8480 C   0  0  0  0  0  1  0  0  0  0  0  0
  186.7970  177.1160  144.7950 C   0  0  0  0  0  0  0  0  0  0  0  0
  187.9150  175.8580  141.9410 C   0  0  1  0  0  3  0  0  0  0  0  0
  185.9130  178.6380  146.4410 C   0  0  0  0  0  0  0  0  0  0  0  0
  184.6310  178.1270  144.4220 C   0  0  0  0  0  3  0  0  0  0  0  0
  190.2660  175.0230  142.2040 C   0  0  0  0  0  2  0  0  0  0  0  0
  187.6790  176.1920  144.1670 N   0  0  0  0  0  0  0  0  0  0  0  0
  185.6630  177.2830  144.0270 C   0  0  0  0  0  0  0  0  0  0  0  0
  190.9110  174.7170  143.5450 C   0  0  2  0  0  3  0  0  0  0  0  0
  189.8980  175.2300  144.5890 C   0  0  1  0  0  3  0  0  0  0  0  0
  187.0560  175.8860  137.7410 C   0  0  0  0  0  3  0  0  0  0  0  0
  187.6170  175.8540  140.4910 C   0  0  0  0  0  0  0  0  0  0  0  0
  188.0750  174.8210  139.6600 C   0  0  0  0  0  3  0  0  0  0  0  0
  187.7950  174.8350  138.2910 C   0  0  0  0  0  3  0  0  0  0  0  0
  186.5990  176.9210  138.5600 C   0  0  0  0  0  3  0  0  0  0  0  0
  186.8790  176.9060  139.9290 C   0  0  0  0  0  3  0  0  0  0  0  0
  190.3070  174.7370  146.8910 O   0  0  0  0  0  1  0  0  0  0  0  0
  190.5040  175.7030  145.9050 C   0  0  0  0  0  2  0  0  0  0  0  0
  192.6780  175.7410  142.2950 O   0  0  0  0  0  1  0  0  0  0  0  0
  192.2540  175.4420  143.5890 C   0  0  0  0  0  2  0  0  0  0  0  0
  1 13  1  1  0  0  0
  1  3  1  0  0  0  0
  2  6  1  6  0  0  0
  2 14  1  0  0  0  0
  3 14  1  1  0  0  0
  3 17  1  0  0  0  0
  4 11  1  0  0  0  0
  6 15  1  0  0  0  0
  7 11  2  0  0  0  0
  7  8  1  0  0  0  0
  9  7  1  0  0  0  0
 10 19  1  6  0  0  0
 10  1  1  0  0  0  0
 10  2  1  0  0  0  0
 11  5  1  0  0  0  0
 12  4  2  0  0  0  0
 13 16  1  0  0  0  0
 14  9  1  0  0  0  0
 15 12  1  0  0  0  0
 15  9  2  0  0  0  0
 16 27  1  6  0  0  0
 16 17  1  0  0  0  0
 17 25  1  1  0  0  0
 18 21  2  0  0  0  0
 18 22  1  0  0  0  0
 20 19  2  0  0  0  0
 21 20  1  0  0  0  0
 22 23  2  0  0  0  0
 23 19  1  0  0  0  0
 25 24  1  0  0  0  0
 26 27  1  0  0  0  0
M  END
>  <MODEL>
9

>  <REMARK>
 VINA RESULT:      -6.4      2.119      5.727
  Name = 
  3 active torsions:
  status: ('A' for Active; 'I' for Inactive)
    1  A    between atoms: C_9  and  C_15
    2  A    between atoms: C_20  and  C_26
    3  A    between atoms: C_22  and  C_24
                            x       y       z     vdW  Elec       q    Type
                         _______ _______ _______ _____ _____    ______ ____

>  <TORSDO>
F 3

$$$$
