=
 OpenBabel11052420303D

 34 39  0  0  1  0  0  0  0  0999 V2000
  186.6570  177.8920  143.8530 C   0  0  0  0  0  0  0  0  0  0  0  0
  183.2420  178.4730  142.5060 C   0  0  0  0  0  3  0  0  0  0  0  0
  184.0870  178.5650  144.7670 C   0  0  0  0  0  3  0  0  0  0  0  0
  188.7580  177.1690  145.7990 C   0  0  0  0  0  2  0  0  0  0  0  0
  188.0360  177.5060  143.4080 C   0  0  0  0  0  2  0  0  0  0  0  0
  187.6110  178.1220  146.1810 C   0  0  2  0  0  3  0  0  0  0  0  0
  186.0870  178.8950  147.9780 C   0  0  0  0  0  2  0  0  0  0  0  0
  187.1860  177.9020  147.6270 C   0  0  0  0  0  2  0  0  0  0  0  0
  188.6210  176.5100  144.4120 C   0  0  1  0  0  3  0  0  0  0  0  0
  185.1420  178.4680  145.6780 C   0  0  0  0  0  0  0  0  0  0  0  0
  186.4330  178.1260  145.2240 C   0  0  0  0  0  0  0  0  0  0  0  0
  184.8390  178.6110  147.1450 C   0  0  0  0  0  2  0  0  0  0  0  0
  183.4460  178.2630  141.1400 C   0  0  0  0  0  0  0  0  0  0  0  0
  184.7230  177.9270  140.6710 C   0  0  0  0  0  3  0  0  0  0  0  0
  184.3040  178.3540  143.4050 C   0  0  0  0  0  0  0  0  0  0  0  0
  185.7910  177.8020  141.5630 C   0  0  0  0  0  3  0  0  0  0  0  0
  185.5960  178.0150  142.9370 C   0  0  0  0  0  0  0  0  0  0  0  0
  191.5640  174.7780  145.5750 C   0  0  0  0  0  3  0  0  0  0  0  0
  191.0490  177.0420  143.9190 C   0  0  0  0  0  2  0  0  0  0  0  0
  195.0590  175.5950  144.8730 C   0  0  2  0  0  3  0  0  0  0  0  0
  193.9970  175.1410  145.8630 C   0  0  0  0  0  2  0  0  0  0  0  0
  192.7610  175.0630  145.0520 C   0  0  0  0  0  0  0  0  0  0  0  0
  192.9740  175.3400  143.6040 C   0  0  1  0  0  3  0  0  0  0  0  0
  192.3100  176.6460  143.1400 C   0  0  0  0  0  2  0  0  0  0  0  0
  194.4820  175.4510  143.4650 C   0  0  0  0  0  2  0  0  0  0  0  0
  189.9610  175.9550  143.9140 C   0  0  1  0  0  3  0  0  0  0  0  0
  190.3360  174.6770  144.7050 C   0  0  0  0  0  2  0  0  0  0  0  0
  196.3030  174.7840  145.0170 C   0  0  0  0  0  0  0  0  0  0  0  0
  197.2150  174.8790  144.1560 O   0  0  0  0  0  0  0  0  0  0  0  0
  196.4610  173.9240  146.0980 O   0  0  0  0  0  1  0  0  0  0  0  0
  182.3720  178.3940  140.2610 O   0  0  0  0  0  0  0  0  0  0  0  0
  181.2920  179.1150  140.5900 O   0  0  0  0  0  0  0  0  0  0  0  0
  179.5840  177.8910  141.6920 C   0  0  0  0  0  1  0  0  0  0  0  0
  180.2150  178.2580  140.3670 C   0  0  0  0  0  2  0  0  0  0  0  0
  1 11  1  0  0  0  0
  2 15  1  0  0  0  0
  3 10  1  0  0  0  0
  5  1  1  0  0  0  0
  6  4  1  6  0  0  0
  6  8  1  0  0  0  0
  8  7  1  0  0  0  0
  9  5  1  6  0  0  0
  9  4  1  0  0  0  0
 10 12  1  0  0  0  0
 11 10  2  0  0  0  0
 11  6  1  0  0  0  0
 12  7  1  0  0  0  0
 13  2  2  0  0  0  0
 14 13  1  0  0  0  0
 14 16  2  0  0  0  0
 15  3  2  0  0  0  0
 16 17  1  0  0  0  0
 17 15  1  0  0  0  0
 17  1  2  0  0  0  0
 20 28  1  6  0  0  0
 20 21  1  0  0  0  0
 22 18  2  0  0  0  0
 22 21  1  0  0  0  0
 23 24  1  1  0  0  0
 23 22  1  0  0  0  0
 24 19  1  0  0  0  0
 25 23  1  0  0  0  0
 25 20  1  0  0  0  0
 26 19  1  1  0  0  0
 26  9  1  0  0  0  0
 26 27  1  0  0  0  0
 27 18  1  0  0  0  0
 28 30  1  0  0  0  0
 29 28  2  0  0  0  0
 31 32  1  0  0  0  0
 31 13  1  0  0  0  0
 34 32  1  0  0  0  0
 34 33  1  0  0  0  0
M  END
>  <MODEL>
1

>  <REMARK>
 VINA RESULT:      -9.1      0.000      0.000
  Name = 
  5 active torsions:
  status: ('A' for Active; 'I' for Inactive)
    1  A    between atoms: O_3  and  C_24
    2  A    between atoms: O_3  and  O_25
    3  A    between atoms: C_7  and  C_11
    4  A    between atoms: C_18  and  C_30
    5  A    between atoms: C_23  and  O_25
                            x       y       z     vdW  Elec       q    Type
                         _______ _______ _______ _____ _____    ______ ____

>  <TORSDO>
F 5

$$$$
=
 OpenBabel11052420303D

 34 39  0  0  1  0  0  0  0  0999 V2000
  188.0150  176.8900  144.0990 C   0  0  0  0  0  0  0  0  0  0  0  0
  185.7480  177.6560  141.2540 C   0  0  0  0  0  3  0  0  0  0  0  0
  185.5450  178.1380  143.6120 C   0  0  0  0  0  3  0  0  0  0  0  0
  188.8460  176.3240  146.8760 C   0  0  0  0  0  2  0  0  0  0  0  0
  189.3140  176.2060  144.4030 C   0  0  0  0  0  2  0  0  0  0  0  0
  187.9110  177.5030  146.5470 C   0  0  2  0  0  3  0  0  0  0  0  0
  186.0020  178.8930  147.3060 C   0  0  0  0  0  2  0  0  0  0  0  0
  186.8720  177.6910  147.6450 C   0  0  0  0  0  2  0  0  0  0  0  0
  189.1580  175.3910  145.6890 C   0  0  1  0  0  3  0  0  0  0  0  0
  186.0550  178.0950  144.9120 C   0  0  0  0  0  0  0  0  0  0  0  0
  187.2920  177.4650  145.1620 C   0  0  0  0  0  0  0  0  0  0  0  0
  185.2000  178.6170  146.0350 C   0  0  0  0  0  2  0  0  0  0  0  0
  186.4580  177.1080  140.1820 C   0  0  0  0  0  0  0  0  0  0  0  0
  187.6910  176.4820  140.4110 C   0  0  0  0  0  3  0  0  0  0  0  0
  186.2640  177.5880  142.5500 C   0  0  0  0  0  0  0  0  0  0  0  0
  188.2130  176.4050  141.7050 C   0  0  0  0  0  3  0  0  0  0  0  0
  187.5090  176.9570  142.7870 C   0  0  0  0  0  0  0  0  0  0  0  0
  192.6210  175.6820  146.6560 C   0  0  0  0  0  3  0  0  0  0  0  0
  191.1750  174.2630  144.6480 C   0  0  0  0  0  2  0  0  0  0  0  0
  195.5150  174.0660  145.1080 C   0  0  2  0  0  3  0  0  0  0  0  0
  194.8910  175.3020  145.7410 C   0  0  0  0  0  2  0  0  0  0  0  0
  193.5350  174.8570  146.1340 C   0  0  0  0  0  0  0  0  0  0  0  0
  193.2820  173.4100  145.8870 C   0  0  1  0  0  3  0  0  0  0  0  0
  192.2360  173.1640  144.7880 C   0  0  0  0  0  2  0  0  0  0  0  0
  194.6300  172.8670  145.4460 C   0  0  0  0  0  2  0  0  0  0  0  0
  190.4050  174.5390  145.9520 C   0  0  1  0  0  3  0  0  0  0  0  0
  191.2620  175.1780  147.0720 C   0  0  0  0  0  2  0  0  0  0  0  0
  196.9030  173.8540  145.6100 C   0  0  0  0  0  0  0  0  0  0  0  0
  197.1370  173.9110  146.8450 O   0  0  0  0  0  1  0  0  0  0  0  0
  197.9410  173.5950  144.7220 O   0  0  0  0  0  0  0  0  0  0  0  0
  185.9270  177.1940  138.8960 O   0  0  0  0  0  0  0  0  0  0  0  0
  186.7230  177.2260  137.8190 O   0  0  0  0  0  0  0  0  0  0  0  0
  187.2020  176.0260  135.8290 C   0  0  0  0  0  1  0  0  0  0  0  0
  186.3030  176.1500  137.0390 C   0  0  0  0  0  2  0  0  0  0  0  0
  1  5  1  0  0  0  0
  1 11  1  0  0  0  0
  2 15  1  0  0  0  0
  3 10  1  0  0  0  0
  6  4  1  1  0  0  0
  6  8  1  0  0  0  0
  7  8  1  0  0  0  0
  9  5  1  6  0  0  0
  9 26  1  0  0  0  0
  9  4  1  0  0  0  0
 10 11  2  0  0  0  0
 10 12  1  0  0  0  0
 11  6  1  0  0  0  0
 12  7  1  0  0  0  0
 13 14  1  0  0  0  0
 13  2  2  0  0  0  0
 14 16  2  0  0  0  0
 15 17  1  0  0  0  0
 15  3  2  0  0  0  0
 16 17  1  0  0  0  0
 17  1  2  0  0  0  0
 18 27  1  0  0  0  0
 19 24  1  0  0  0  0
 20 25  1  0  0  0  0
 20 28  1  1  0  0  0
 20 21  1  0  0  0  0
 21 22  1  0  0  0  0
 22 18  2  0  0  0  0
 23 24  1  6  0  0  0
 23 22  1  0  0  0  0
 25 23  1  0  0  0  0
 26 19  1  6  0  0  0
 26 27  1  0  0  0  0
 28 29  1  0  0  0  0
 30 28  2  0  0  0  0
 31 13  1  0  0  0  0
 32 31  1  0  0  0  0
 33 34  1  0  0  0  0
 34 32  1  0  0  0  0
M  END
>  <MODEL>
2

>  <REMARK>
 VINA RESULT:      -8.6      2.266      3.223
  Name = 
  5 active torsions:
  status: ('A' for Active; 'I' for Inactive)
    1  A    between atoms: O_3  and  C_24
    2  A    between atoms: O_3  and  O_25
    3  A    between atoms: C_7  and  C_11
    4  A    between atoms: C_18  and  C_30
    5  A    between atoms: C_23  and  O_25
                            x       y       z     vdW  Elec       q    Type
                         _______ _______ _______ _____ _____    ______ ____

>  <TORSDO>
F 5

$$$$
=
 OpenBabel11052420303D

 34 39  0  0  1  0  0  0  0  0999 V2000
  186.6850  177.8030  143.8940 C   0  0  0  0  0  0  0  0  0  0  0  0
  183.2830  178.5670  142.6070 C   0  0  0  0  0  3  0  0  0  0  0  0
  184.1810  178.6470  144.8480 C   0  0  0  0  0  3  0  0  0  0  0  0
  188.7800  176.9860  145.8080 C   0  0  0  0  0  2  0  0  0  0  0  0
  188.0280  177.3250  143.4270 C   0  0  0  0  0  2  0  0  0  0  0  0
  187.7020  178.0140  146.1960 C   0  0  2  0  0  3  0  0  0  0  0  0
  186.2670  178.9100  148.0100 C   0  0  0  0  0  2  0  0  0  0  0  0
  187.2960  177.8460  147.6550 C   0  0  0  0  0  2  0  0  0  0  0  0
  188.5730  176.3130  144.4370 C   0  0  1  0  0  3  0  0  0  0  0  0
  185.2480  178.5010  145.7380 C   0  0  0  0  0  0  0  0  0  0  0  0
  186.5060  178.0730  145.2640 C   0  0  0  0  0  0  0  0  0  0  0  0
  184.9860  178.6880  147.2080 C   0  0  0  0  0  2  0  0  0  0  0  0
  183.4430  178.3220  141.2410 C   0  0  0  0  0  0  0  0  0  0  0  0
  184.6880  177.9000  140.7520 C   0  0  0  0  0  3  0  0  0  0  0  0
  184.3550  178.3990  143.4860 C   0  0  0  0  0  0  0  0  0  0  0  0
  185.7650  177.7250  141.6240 C   0  0  0  0  0  3  0  0  0  0  0  0
  185.6130  177.9740  142.9970 C   0  0  0  0  0  0  0  0  0  0  0  0
  189.9180  173.1320  143.3930 C   0  0  0  0  0  3  0  0  0  0  0  0
  190.7850  175.2590  145.0860 C   0  0  0  0  0  2  0  0  0  0  0  0
  193.1010  171.6230  144.3780 C   0  0  2  0  0  3  0  0  0  0  0  0
  191.6160  171.4660  144.0810 C   0  0  0  0  0  2  0  0  0  0  0  0
  191.1900  172.8200  143.6640 C   0  0  0  0  0  0  0  0  0  0  0  0
  192.3070  173.8030  143.5800 C   0  0  1  0  0  3  0  0  0  0  0  0
  192.2110  174.9100  144.6420 C   0  0  0  0  0  2  0  0  0  0  0  0
  193.5540  172.9690  143.8150 C   0  0  0  0  0  2  0  0  0  0  0  0
  189.8660  175.6690  143.9220 C   0  0  1  0  0  3  0  0  0  0  0  0
  189.5340  174.5180  142.9390 C   0  0  0  0  0  2  0  0  0  0  0  0
  193.8850  170.5080  143.7730 C   0  0  0  0  0  0  0  0  0  0  0  0
  194.5730  170.7160  142.7400 O   0  0  0  0  0  0  0  0  0  0  0  0
  193.8610  169.2400  144.3420 O   0  0  0  0  0  1  0  0  0  0  0  0
  182.3610  178.5020  140.3820 O   0  0  0  0  0  0  0  0  0  0  0  0
  181.1190  178.1580  140.7510 O   0  0  0  0  0  0  0  0  0  0  0  0
  179.1730  179.2490  141.5570 C   0  0  0  0  0  1  0  0  0  0  0  0
  180.3830  179.3370  140.6540 C   0  0  0  0  0  2  0  0  0  0  0  0
  1 11  1  0  0  0  0
  2 15  1  0  0  0  0
  3 10  1  0  0  0  0
  5  1  1  0  0  0  0
  6  4  1  6  0  0  0
  6  8  1  0  0  0  0
  8  7  1  0  0  0  0
  9  5  1  6  0  0  0
  9  4  1  0  0  0  0
 10 12  1  0  0  0  0
 11 10  2  0  0  0  0
 11  6  1  0  0  0  0
 12  7  1  0  0  0  0
 13  2  2  0  0  0  0
 14 13  1  0  0  0  0
 14 16  2  0  0  0  0
 15  3  2  0  0  0  0
 16 17  1  0  0  0  0
 17 15  1  0  0  0  0
 17  1  2  0  0  0  0
 18 22  2  0  0  0  0
 20 28  1  6  0  0  0
 21 20  1  0  0  0  0
 22 21  1  0  0  0  0
 23 22  1  0  0  0  0
 23 25  1  1  0  0  0
 23 24  1  0  0  0  0
 24 19  1  0  0  0  0
 25 20  1  0  0  0  0
 26 27  1  1  0  0  0
 26  9  1  0  0  0  0
 26 19  1  0  0  0  0
 27 18  1  0  0  0  0
 28 30  1  0  0  0  0
 29 28  2  0  0  0  0
 31 32  1  0  0  0  0
 31 13  1  0  0  0  0
 34 32  1  0  0  0  0
 34 33  1  0  0  0  0
M  END
>  <MODEL>
3

>  <REMARK>
 VINA RESULT:      -8.0      1.976      2.262
  Name = 
  5 active torsions:
  status: ('A' for Active; 'I' for Inactive)
    1  A    between atoms: O_3  and  C_24
    2  A    between atoms: O_3  and  O_25
    3  A    between atoms: C_7  and  C_11
    4  A    between atoms: C_18  and  C_30
    5  A    between atoms: C_23  and  O_25
                            x       y       z     vdW  Elec       q    Type
                         _______ _______ _______ _____ _____    ______ ____

>  <TORSDO>
F 5

$$$$
=
 OpenBabel11052420303D

 34 39  0  0  1  0  0  0  0  0999 V2000
  192.2560  173.2190  144.2440 C   0  0  0  0  0  0  0  0  0  0  0  0
  192.9520  169.9690  142.5810 C   0  0  0  0  0  3  0  0  0  0  0  0
  194.3990  171.4530  143.8200 C   0  0  0  0  0  3  0  0  0  0  0  0
  192.7740  175.9110  145.3430 C   0  0  0  0  0  2  0  0  0  0  0  0
  191.1440  174.2010  144.4670 C   0  0  0  0  0  2  0  0  0  0  0  0
  193.6980  174.7240  145.6710 C   0  0  2  0  0  3  0  0  0  0  0  0
  196.0210  173.9890  146.1360 C   0  0  0  0  0  2  0  0  0  0  0  0
  195.1490  175.1790  145.7640 C   0  0  0  0  0  2  0  0  0  0  0  0
  191.6900  175.6180  144.2860 C   0  0  1  0  0  3  0  0  0  0  0  0
  194.5990  172.6180  144.5640 C   0  0  0  0  0  0  0  0  0  0  0  0
  193.5270  173.5100  144.7760 C   0  0  0  0  0  0  0  0  0  0  0  0
  195.9960  172.9500  145.0150 C   0  0  0  0  0  2  0  0  0  0  0  0
  191.6950  169.6510  142.0600 C   0  0  0  0  0  0  0  0  0  0  0  0
  190.6170  170.5240  142.2640 C   0  0  0  0  0  3  0  0  0  0  0  0
  193.1390  171.1470  143.3070 C   0  0  0  0  0  0  0  0  0  0  0  0
  190.7950  171.7070  142.9860 C   0  0  0  0  0  3  0  0  0  0  0  0
  192.0540  172.0320  143.5160 C   0  0  0  0  0  0  0  0  0  0  0  0
  189.0560  176.8150  146.4400 C   0  0  0  0  0  3  0  0  0  0  0  0
  189.2760  176.1020  143.6870 C   0  0  0  0  0  2  0  0  0  0  0  0
  185.5690  177.4690  145.5510 C   0  0  2  0  0  3  0  0  0  0  0  0
  186.5830  176.9230  146.5450 C   0  0  0  0  0  2  0  0  0  0  0  0
  187.8920  177.2160  145.9180 C   0  0  0  0  0  0  0  0  0  0  0  0
  187.7900  177.9920  144.6500 C   0  0  1  0  0  3  0  0  0  0  0  0
  188.2200  177.1810  143.4160 C   0  0  0  0  0  2  0  0  0  0  0  0
  186.3180  178.3450  144.5470 C   0  0  0  0  0  2  0  0  0  0  0  0
  190.5580  176.6510  144.3360 C   0  0  1  0  0  3  0  0  0  0  0  0
  190.3680  177.1660  145.7840 C   0  0  0  0  0  2  0  0  0  0  0  0
  184.5100  178.2550  146.2490 C   0  0  0  0  0  0  0  0  0  0  0  0
  183.6580  178.8900  145.5770 O   0  0  0  0  0  0  0  0  0  0  0  0
  184.4610  178.2910  147.6380 O   0  0  0  0  0  1  0  0  0  0  0  0
  191.5310  168.4670  141.3440 O   0  0  0  0  0  0  0  0  0  0  0  0
  190.4430  168.2580  140.5910 O   0  0  0  0  0  0  0  0  0  0  0  0
  190.1790  169.3980  138.5270 C   0  0  0  0  0  1  0  0  0  0  0  0
  190.9090  168.3070  139.2780 C   0  0  0  0  0  2  0  0  0  0  0  0
  1  5  1  0  0  0  0
  1 11  1  0  0  0  0
  2 15  1  0  0  0  0
  3 10  1  0  0  0  0
  6  4  1  6  0  0  0
  6  8  1  0  0  0  0
  8  7  1  0  0  0  0
  9 26  1  0  0  0  0
  9  5  1  1  0  0  0
  9  4  1  0  0  0  0
 10 11  2  0  0  0  0
 10 12  1  0  0  0  0
 11  6  1  0  0  0  0
 12  7  1  0  0  0  0
 13 14  1  0  0  0  0
 13  2  2  0  0  0  0
 14 16  2  0  0  0  0
 15 17  1  0  0  0  0
 15  3  2  0  0  0  0
 16 17  1  0  0  0  0
 17  1  2  0  0  0  0
 20 28  1  1  0  0  0
 20 21  1  0  0  0  0
 22 18  2  0  0  0  0
 22 21  1  0  0  0  0
 23 24  1  6  0  0  0
 23 22  1  0  0  0  0
 24 19  1  0  0  0  0
 25 23  1  0  0  0  0
 25 20  1  0  0  0  0
 26 19  1  1  0  0  0
 26 27  1  0  0  0  0
 27 18  1  0  0  0  0
 28 30  1  0  0  0  0
 29 28  2  0  0  0  0
 31 13  1  0  0  0  0
 32 31  1  0  0  0  0
 33 34  1  0  0  0  0
 34 32  1  0  0  0  0
M  END
>  <MODEL>
4

>  <REMARK>
 VINA RESULT:      -7.8      4.140      9.686
  Name = 
  5 active torsions:
  status: ('A' for Active; 'I' for Inactive)
    1  A    between atoms: O_3  and  C_24
    2  A    between atoms: O_3  and  O_25
    3  A    between atoms: C_7  and  C_11
    4  A    between atoms: C_18  and  C_30
    5  A    between atoms: C_23  and  O_25
                            x       y       z     vdW  Elec       q    Type
                         _______ _______ _______ _____ _____    ______ ____

>  <TORSDO>
F 5

$$$$
=
 OpenBabel11052420303D

 34 39  0  0  1  0  0  0  0  0999 V2000
  194.4970  175.1080  142.0540 C   0  0  0  0  0  0  0  0  0  0  0  0
  197.5240  174.7450  139.9280 C   0  0  0  0  0  3  0  0  0  0  0  0
  197.2480  174.6100  142.3240 C   0  0  0  0  0  3  0  0  0  0  0  0
  192.8750  175.7030  144.4500 C   0  0  0  0  0  2  0  0  0  0  0  0
  193.0290  175.4010  141.9530 C   0  0  0  0  0  2  0  0  0  0  0  0
  194.1390  174.8290  144.5390 C   0  0  2  0  0  3  0  0  0  0  0  0
  196.0940  174.1660  145.9150 C   0  0  0  0  0  2  0  0  0  0  0  0
  194.8810  175.0830  145.8450 C   0  0  0  0  0  2  0  0  0  0  0  0
  192.6360  176.3620  143.0770 C   0  0  1  0  0  3  0  0  0  0  0  0
  196.4360  174.6420  143.4600 C   0  0  0  0  0  0  0  0  0  0  0  0
  195.0540  174.8970  143.3290 C   0  0  0  0  0  0  0  0  0  0  0  0
  197.0870  174.5270  144.8110 C   0  0  0  0  0  2  0  0  0  0  0  0
  196.9880  174.9340  138.6510 C   0  0  0  0  0  0  0  0  0  0  0  0
  195.6170  175.1840  138.5030 C   0  0  0  0  0  3  0  0  0  0  0  0
  196.7000  174.7990  141.0550 C   0  0  0  0  0  0  0  0  0  0  0  0
  194.7850  175.2430  139.6240 C   0  0  0  0  0  3  0  0  0  0  0  0
  195.3150  175.0510  140.9100 C   0  0  0  0  0  0  0  0  0  0  0  0
  189.9270  177.8430  144.9420 C   0  0  0  0  0  3  0  0  0  0  0  0
  190.2010  175.6600  143.1270 C   0  0  0  0  0  2  0  0  0  0  0  0
  186.4270  176.7820  145.0200 C   0  0  2  0  0  3  0  0  0  0  0  0
  187.6550  177.2930  145.7600 C   0  0  0  0  0  2  0  0  0  0  0  0
  188.6640  177.4800  144.6940 C   0  0  0  0  0  0  0  0  0  0  0  0
  188.1440  177.2200  143.3220 C   0  0  1  0  0  3  0  0  0  0  0  0
  188.7720  175.9780  142.6700 C   0  0  0  0  0  2  0  0  0  0  0  0
  186.6560  176.9990  143.5240 C   0  0  0  0  0  2  0  0  0  0  0  0
  191.1830  176.8260  142.9170 C   0  0  1  0  0  3  0  0  0  0  0  0
  190.9130  178.0540  143.8210 C   0  0  0  0  0  2  0  0  0  0  0  0
  185.1980  177.4940  145.4730 C   0  0  0  0  0  0  0  0  0  0  0  0
  184.7980  177.3590  146.6580 O   0  0  0  0  0  1  0  0  0  0  0  0
  184.4900  178.3060  144.5940 O   0  0  0  0  0  0  0  0  0  0  0  0
  197.8280  174.8690  137.5420 O   0  0  0  0  0  0  0  0  0  0  0  0
  197.3520  174.5540  136.3290 O   0  0  0  0  0  0  0  0  0  0  0  0
  196.8250  176.6380  135.3260 C   0  0  0  0  0  1  0  0  0  0  0  0
  197.8550  175.5420  135.4850 C   0  0  0  0  0  2  0  0  0  0  0  0
  1 11  1  0  0  0  0
  2 15  1  0  0  0  0
  3 10  1  0  0  0  0
  5  1  1  0  0  0  0
  6  4  1  6  0  0  0
  6  8  1  0  0  0  0
  8  7  1  0  0  0  0
  9  5  1  6  0  0  0
  9  4  1  0  0  0  0
 10 12  1  0  0  0  0
 11 10  2  0  0  0  0
 11  6  1  0  0  0  0
 12  7  1  0  0  0  0
 13  2  2  0  0  0  0
 14 13  1  0  0  0  0
 14 16  2  0  0  0  0
 15  3  2  0  0  0  0
 16 17  1  0  0  0  0
 17 15  1  0  0  0  0
 17  1  2  0  0  0  0
 20 28  1  1  0  0  0
 20 21  1  0  0  0  0
 22 18  2  0  0  0  0
 22 21  1  0  0  0  0
 23 24  1  1  0  0  0
 23 25  1  0  0  0  0
 23 22  1  0  0  0  0
 24 19  1  0  0  0  0
 25 20  1  0  0  0  0
 26  9  1  0  0  0  0
 26 19  1  1  0  0  0
 26 27  1  0  0  0  0
 27 18  1  0  0  0  0
 28 29  1  0  0  0  0
 30 28  2  0  0  0  0
 31 13  1  0  0  0  0
 32 31  1  0  0  0  0
 33 34  1  0  0  0  0
 34 32  1  0  0  0  0
M  END
>  <MODEL>
5

>  <REMARK>
 VINA RESULT:      -7.7      3.725     10.715
  Name = 
  5 active torsions:
  status: ('A' for Active; 'I' for Inactive)
    1  A    between atoms: O_3  and  C_24
    2  A    between atoms: O_3  and  O_25
    3  A    between atoms: C_7  and  C_11
    4  A    between atoms: C_18  and  C_30
    5  A    between atoms: C_23  and  O_25
                            x       y       z     vdW  Elec       q    Type
                         _______ _______ _______ _____ _____    ______ ____

>  <TORSDO>
F 5

$$$$
=
 OpenBabel11052420303D

 34 39  0  0  1  0  0  0  0  0999 V2000
  186.5460  177.1970  143.2840 C   0  0  0  0  0  0  0  0  0  0  0  0
  183.2160  178.7030  142.6090 C   0  0  0  0  0  3  0  0  0  0  0  0
  184.4120  178.3740  144.6810 C   0  0  0  0  0  3  0  0  0  0  0  0
  188.6830  175.8090  144.7770 C   0  0  0  0  0  2  0  0  0  0  0  0
  187.6920  176.5360  142.5770 C   0  0  0  0  0  2  0  0  0  0  0  0
  187.8920  176.9680  145.4090 C   0  0  2  0  0  3  0  0  0  0  0  0
  186.9240  177.9080  147.4910 C   0  0  0  0  0  2  0  0  0  0  0  0
  187.6660  176.7200  146.8950 C   0  0  0  0  0  2  0  0  0  0  0  0
  188.1620  175.3380  143.4050 C   0  0  1  0  0  3  0  0  0  0  0  0
  185.5410  177.9410  145.3800 C   0  0  0  0  0  0  0  0  0  0  0  0
  186.6140  177.3450  144.6830 C   0  0  0  0  0  0  0  0  0  0  0  0
  185.5260  178.0120  146.8830 C   0  0  0  0  0  2  0  0  0  0  0  0
  183.1360  178.5820  141.2190 C   0  0  0  0  0  0  0  0  0  0  0  0
  184.1940  177.9960  140.5100 C   0  0  0  0  0  3  0  0  0  0  0  0
  184.3450  178.2480  143.2930 C   0  0  0  0  0  0  0  0  0  0  0  0
  185.3260  177.5350  141.1860 C   0  0  0  0  0  3  0  0  0  0  0  0
  185.4160  177.6560  142.5820 C   0  0  0  0  0  0  0  0  0  0  0  0
  188.9560  174.1400  140.0960 C   0  0  0  0  0  3  0  0  0  0  0  0
  188.9240  173.0200  142.7200 C   0  0  0  0  0  2  0  0  0  0  0  0
  190.0210  170.7740  139.1370 C   0  0  2  0  0  3  0  0  0  0  0  0
  189.1870  172.0140  138.8460 C   0  0  0  0  0  2  0  0  0  0  0  0
  189.5430  172.9480  139.9370 C   0  0  0  0  0  0  0  0  0  0  0  0
  190.6100  172.4370  140.8430 C   0  0  1  0  0  3  0  0  0  0  0  0
  190.1000  172.1460  142.2640 C   0  0  0  0  0  2  0  0  0  0  0  0
  191.0670  171.1470  140.1860 C   0  0  0  0  0  2  0  0  0  0  0  0
  189.2190  174.5280  142.6450 C   0  0  1  0  0  3  0  0  0  0  0  0
  189.3750  175.0740  141.2040 C   0  0  0  0  0  2  0  0  0  0  0  0
  190.6760  170.2710  137.8950 C   0  0  0  0  0  0  0  0  0  0  0  0
  191.1540  171.0870  137.0650 O   0  0  0  0  0  0  0  0  0  0  0  0
  190.7610  168.9050  137.6480 O   0  0  0  0  0  1  0  0  0  0  0  0
  182.0020  179.0490  140.5570 O   0  0  0  0  0  0  0  0  0  0  0  0
  180.8300  178.4060  140.6520 O   0  0  0  0  0  0  0  0  0  0  0  0
  179.7350  180.4460  140.1370 C   0  0  0  0  0  1  0  0  0  0  0  0
  179.9470  179.3550  141.1630 C   0  0  0  0  0  2  0  0  0  0  0  0
  1 11  1  0  0  0  0
  2 15  1  0  0  0  0
  3 10  1  0  0  0  0
  5  1  1  0  0  0  0
  6  4  1  6  0  0  0
  6  8  1  0  0  0  0
  8  7  1  0  0  0  0
  9  5  1  6  0  0  0
  9  4  1  0  0  0  0
 10 12  1  0  0  0  0
 11 10  2  0  0  0  0
 11  6  1  0  0  0  0
 12  7  1  0  0  0  0
 13  2  2  0  0  0  0
 14 16  2  0  0  0  0
 14 13  1  0  0  0  0
 15  3  2  0  0  0  0
 16 17  1  0  0  0  0
 17  1  2  0  0  0  0
 17 15  1  0  0  0  0
 18 27  1  0  0  0  0
 20 28  1  6  0  0  0
 20 25  1  0  0  0  0
 21 20  1  0  0  0  0
 21 22  1  0  0  0  0
 22 18  2  0  0  0  0
 22 23  1  0  0  0  0
 23 25  1  6  0  0  0
 23 24  1  0  0  0  0
 24 19  1  0  0  0  0
 26 27  1  6  0  0  0
 26 19  1  0  0  0  0
 26  9  1  0  0  0  0
 29 28  2  0  0  0  0
 30 28  1  0  0  0  0
 31 32  1  0  0  0  0
 31 13  1  0  0  0  0
 32 34  1  0  0  0  0
 33 34  1  0  0  0  0
M  END
>  <MODEL>
6

>  <REMARK>
 VINA RESULT:      -7.5      3.927      4.645
  Name = 
  5 active torsions:
  status: ('A' for Active; 'I' for Inactive)
    1  A    between atoms: O_3  and  C_24
    2  A    between atoms: O_3  and  O_25
    3  A    between atoms: C_7  and  C_11
    4  A    between atoms: C_18  and  C_30
    5  A    between atoms: C_23  and  O_25
                            x       y       z     vdW  Elec       q    Type
                         _______ _______ _______ _____ _____    ______ ____

>  <TORSDO>
F 5

$$$$
=
 OpenBabel11052420303D

 34 39  0  0  1  0  0  0  0  0999 V2000
  189.9990  174.3270  143.1860 C   0  0  0  0  0  0  0  0  0  0  0  0
  187.1630  176.4970  144.2150 C   0  0  0  0  0  3  0  0  0  0  0  0
  187.6930  175.4930  142.0840 C   0  0  0  0  0  3  0  0  0  0  0  0
  191.9980  173.0750  141.4080 C   0  0  0  0  0  2  0  0  0  0  0  0
  191.2550  173.7120  143.7300 C   0  0  0  0  0  2  0  0  0  0  0  0
  190.5110  173.1400  141.0150 C   0  0  2  0  0  3  0  0  0  0  0  0
  188.8770  173.3720  139.1640 C   0  0  0  0  0  2  0  0  0  0  0  0
  190.3580  173.3630  139.5160 C   0  0  0  0  0  2  0  0  0  0  0  0
  192.3670  173.8500  142.6880 C   0  0  1  0  0  3  0  0  0  0  0  0
  188.5100  174.6870  141.2860 C   0  0  0  0  0  0  0  0  0  0  0  0
  189.6720  174.1040  141.8350 C   0  0  0  0  0  0  0  0  0  0  0  0
  188.1890  174.5680  139.8210 C   0  0  0  0  0  2  0  0  0  0  0  0
  187.4600  176.7160  145.5630 C   0  0  0  0  0  0  0  0  0  0  0  0
  188.6080  176.1410  146.1250 C   0  0  0  0  0  3  0  0  0  0  0  0
  188.0000  175.7030  143.4280 C   0  0  0  0  0  0  0  0  0  0  0  0
  189.4540  175.3490  145.3440 C   0  0  0  0  0  3  0  0  0  0  0  0
  189.1610  175.1200  143.9910 C   0  0  0  0  0  0  0  0  0  0  0  0
  194.2320  170.8590  143.4530 C   0  0  0  0  0  3  0  0  0  0  0  0
  193.6660  173.3100  144.7960 C   0  0  0  0  0  2  0  0  0  0  0  0
  196.0670  170.0950  146.5230 C   0  0  2  0  0  3  0  0  0  0  0  0
  195.1510  169.6340  145.4000 C   0  0  0  0  0  2  0  0  0  0  0  0
  195.0310  170.8220  144.5250 C   0  0  0  0  0  0  0  0  0  0  0  0
  195.8760  171.9710  144.9530 C   0  0  1  0  0  3  0  0  0  0  0  0
  195.0500  173.1720  145.4420 C   0  0  0  0  0  2  0  0  0  0  0  0
  196.7060  171.4170  146.0960 C   0  0  0  0  0  2  0  0  0  0  0  0
  193.7130  173.3900  143.2610 C   0  0  1  0  0  3  0  0  0  0  0  0
  194.1660  172.0800  142.5700 C   0  0  0  0  0  2  0  0  0  0  0  0
  197.1140  169.0720  146.8100 C   0  0  0  0  0  0  0  0  0  0  0  0
  197.9260  168.7390  145.9090 O   0  0  0  0  0  0  0  0  0  0  0  0
  197.1980  168.4840  148.0670 O   0  0  0  0  0  1  0  0  0  0  0  0
  186.6060  177.5060  146.3310 O   0  0  0  0  0  0  0  0  0  0  0  0
  185.3580  177.1070  146.6110 O   0  0  0  0  0  0  0  0  0  0  0  0
  184.0660  178.8300  145.6150 C   0  0  0  0  0  1  0  0  0  0  0  0
  184.6660  178.2840  146.8920 C   0  0  0  0  0  2  0  0  0  0  0  0
  1  5  1  0  0  0  0
  1 17  1  0  0  0  0
  2 13  1  0  0  0  0
  3 15  1  0  0  0  0
  6  8  1  6  0  0  0
  6  4  1  0  0  0  0
  6 11  1  0  0  0  0
  7  8  1  0  0  0  0
  7 12  1  0  0  0  0
  9  4  1  6  0  0  0
  9 26  1  0  0  0  0
  9  5  1  0  0  0  0
 10 11  1  0  0  0  0
 10  3  2  0  0  0  0
 11  1  2  0  0  0  0
 12 10  1  0  0  0  0
 13 14  2  0  0  0  0
 13 31  1  0  0  0  0
 15 17  1  0  0  0  0
 15  2  2  0  0  0  0
 16 14  1  0  0  0  0
 17 16  2  0  0  0  0
 18 22  2  0  0  0  0
 19 24  1  0  0  0  0
 20 28  1  6  0  0  0
 21 20  1  0  0  0  0
 22 23  1  0  0  0  0
 22 21  1  0  0  0  0
 23 24  1  1  0  0  0
 23 25  1  0  0  0  0
 25 20  1  0  0  0  0
 26 27  1  6  0  0  0
 26 19  1  0  0  0  0
 27 18  1  0  0  0  0
 28 30  1  0  0  0  0
 29 28  2  0  0  0  0
 31 32  1  0  0  0  0
 32 34  1  0  0  0  0
 33 34  1  0  0  0  0
M  END
>  <MODEL>
7

>  <REMARK>
 VINA RESULT:      -7.5      3.796      6.309
  Name = 
  5 active torsions:
  status: ('A' for Active; 'I' for Inactive)
    1  A    between atoms: O_3  and  C_24
    2  A    between atoms: O_3  and  O_25
    3  A    between atoms: C_7  and  C_11
    4  A    between atoms: C_18  and  C_30
    5  A    between atoms: C_23  and  O_25
                            x       y       z     vdW  Elec       q    Type
                         _______ _______ _______ _____ _____    ______ ____

>  <TORSDO>
F 5

$$$$
=
 OpenBabel11052420303D

 34 39  0  0  1  0  0  0  0  0999 V2000
  193.1590  174.2950  143.1020 C   0  0  0  0  0  0  0  0  0  0  0  0
  194.8320  174.1040  139.7890 C   0  0  0  0  0  3  0  0  0  0  0  0
  195.7500  174.2600  142.0170 C   0  0  0  0  0  3  0  0  0  0  0  0
  192.7770  174.9630  145.9540 C   0  0  0  0  0  2  0  0  0  0  0  0
  191.7920  174.3470  143.7180 C   0  0  0  0  0  2  0  0  0  0  0  0
  194.0790  174.3110  145.4550 C   0  0  2  0  0  3  0  0  0  0  0  0
  196.5390  174.1470  145.7300 C   0  0  0  0  0  2  0  0  0  0  0  0
  195.2810  174.8510  146.2190 C   0  0  0  0  0  2  0  0  0  0  0  0
  191.7930  175.3830  144.8430 C   0  0  1  0  0  3  0  0  0  0  0  0
  195.5810  174.3260  143.4020 C   0  0  0  0  0  0  0  0  0  0  0  0
  194.2810  174.3480  143.9510 C   0  0  0  0  0  0  0  0  0  0  0  0
  196.8010  174.4980  144.2660 C   0  0  0  0  0  2  0  0  0  0  0  0
  193.7320  174.0320  138.9290 C   0  0  0  0  0  0  0  0  0  0  0  0
  192.4340  174.0490  139.4580 C   0  0  0  0  0  3  0  0  0  0  0  0
  194.6440  174.1880  141.1700 C   0  0  0  0  0  0  0  0  0  0  0  0
  192.2360  174.1360  140.8390 C   0  0  0  0  0  3  0  0  0  0  0  0
  193.3350  174.2050  141.7090 C   0  0  0  0  0  0  0  0  0  0  0  0
  188.4130  176.0210  143.7570 C   0  0  0  0  0  3  0  0  0  0  0  0
  190.1430  177.0690  145.7680 C   0  0  0  0  0  2  0  0  0  0  0  0
  186.0670  178.4900  145.0920 C   0  0  2  0  0  3  0  0  0  0  0  0
  186.6700  177.7760  143.8910 C   0  0  0  0  0  2  0  0  0  0  0  0
  187.6090  176.8000  144.4890 C   0  0  0  0  0  0  0  0  0  0  0  0
  187.5790  176.7720  145.9780 C   0  0  1  0  0  3  0  0  0  0  0  0
  188.8810  177.2890  146.6120 C   0  0  0  0  0  2  0  0  0  0  0  0
  186.4270  177.6910  146.3440 C   0  0  0  0  0  2  0  0  0  0  0  0
  190.3780  175.5960  145.3920 C   0  0  1  0  0  3  0  0  0  0  0  0
  189.3310  175.0170  144.4080 C   0  0  0  0  0  2  0  0  0  0  0  0
  184.5880  178.6110  144.9520 C   0  0  0  0  0  0  0  0  0  0  0  0
  183.8820  178.8600  145.9630 O   0  0  0  0  0  1  0  0  0  0  0  0
  183.9830  178.4510  143.7100 O   0  0  0  0  0  0  0  0  0  0  0  0
  193.9440  173.9420  137.5550 O   0  0  0  0  0  0  0  0  0  0  0  0
  194.8670  174.6990  136.9460 O   0  0  0  0  0  0  0  0  0  0  0  0
  193.2840  176.2400  136.0830 C   0  0  0  0  0  1  0  0  0  0  0  0
  194.2540  175.1230  135.7690 C   0  0  0  0  0  2  0  0  0  0  0  0
  1  5  1  0  0  0  0
  1 11  1  0  0  0  0
  2 15  1  0  0  0  0
  3 10  1  0  0  0  0
  6  4  1  6  0  0  0
  6  8  1  0  0  0  0
  7  8  1  0  0  0  0
  9  5  1  6  0  0  0
  9 26  1  0  0  0  0
  9  4  1  0  0  0  0
 10 11  2  0  0  0  0
 10 12  1  0  0  0  0
 11  6  1  0  0  0  0
 12  7  1  0  0  0  0
 13 14  1  0  0  0  0
 13  2  2  0  0  0  0
 14 16  2  0  0  0  0
 15 17  1  0  0  0  0
 15  3  2  0  0  0  0
 16 17  1  0  0  0  0
 17  1  2  0  0  0  0
 18 27  1  0  0  0  0
 18 22  2  0  0  0  0
 19 24  1  0  0  0  0
 20 28  1  6  0  0  0
 20 25  1  0  0  0  0
 21 22  1  0  0  0  0
 21 20  1  0  0  0  0
 22 23  1  0  0  0  0
 23 25  1  1  0  0  0
 23 24  1  0  0  0  0
 26 27  1  6  0  0  0
 26 19  1  0  0  0  0
 28 29  1  0  0  0  0
 30 28  2  0  0  0  0
 31 13  1  0  0  0  0
 32 31  1  0  0  0  0
 34 33  1  0  0  0  0
 34 32  1  0  0  0  0
M  END
>  <MODEL>
8

>  <REMARK>
 VINA RESULT:      -7.3      3.350      9.781
  Name = 
  5 active torsions:
  status: ('A' for Active; 'I' for Inactive)
    1  A    between atoms: O_3  and  C_24
    2  A    between atoms: O_3  and  O_25
    3  A    between atoms: C_7  and  C_11
    4  A    between atoms: C_18  and  C_30
    5  A    between atoms: C_23  and  O_25
                            x       y       z     vdW  Elec       q    Type
                         _______ _______ _______ _____ _____    ______ ____

>  <TORSDO>
F 5

$$$$
=
 OpenBabel11052420303D

 34 39  0  0  1  0  0  0  0  0999 V2000
  190.3000  175.6960  144.4800 C   0  0  0  0  0  0  0  0  0  0  0  0
  188.0800  177.4520  146.8880 C   0  0  0  0  0  3  0  0  0  0  0  0
  190.4350  176.9270  147.0010 C   0  0  0  0  0  3  0  0  0  0  0  0
  192.5820  174.0880  143.5130 C   0  0  0  0  0  2  0  0  0  0  0  0
  190.2620  175.0040  143.1500 C   0  0  0  0  0  2  0  0  0  0  0  0
  192.7880  175.2580  144.4930 C   0  0  2  0  0  3  0  0  0  0  0  0
  194.1010  176.1370  146.4040 C   0  0  0  0  0  2  0  0  0  0  0  0
  193.8970  174.9390  145.4880 C   0  0  0  0  0  2  0  0  0  0  0  0
  191.1090  173.7320  143.2270 C   0  0  1  0  0  3  0  0  0  0  0  0
  191.5900  176.3820  146.4340 C   0  0  0  0  0  0  0  0  0  0  0  0
  191.5260  175.7590  145.1700 C   0  0  0  0  0  0  0  0  0  0  0  0
  192.8520  176.3670  147.2530 C   0  0  0  0  0  2  0  0  0  0  0  0
  186.8580  177.4180  146.2110 C   0  0  0  0  0  0  0  0  0  0  0  0
  186.7770  176.8060  144.9530 C   0  0  0  0  0  3  0  0  0  0  0  0
  189.2210  176.8860  146.3150 C   0  0  0  0  0  0  0  0  0  0  0  0
  187.9120  176.2330  144.3730 C   0  0  0  0  0  3  0  0  0  0  0  0
  189.1450  176.2680  145.0440 C   0  0  0  0  0  0  0  0  0  0  0  0
  192.2440  173.6040  139.8060 C   0  0  0  0  0  3  0  0  0  0  0  0
  189.7350  173.3370  141.1350 C   0  0  0  0  0  2  0  0  0  0  0  0
  190.2260  173.0670  136.8030 C   0  0  2  0  0  3  0  0  0  0  0  0
  191.3620  173.8010  137.4990 C   0  0  0  0  0  2  0  0  0  0  0  0
  191.4210  173.1790  138.8410 C   0  0  0  0  0  0  0  0  0  0  0  0
  190.4740  172.0420  139.0180 C   0  0  1  0  0  3  0  0  0  0  0  0
  189.3540  172.3480  140.0260 C   0  0  0  0  0  2  0  0  0  0  0  0
  189.8810  171.8330  137.6370 C   0  0  0  0  0  2  0  0  0  0  0  0
  190.9660  172.9000  141.9470 C   0  0  1  0  0  3  0  0  0  0  0  0
  192.2930  172.9180  141.1480 C   0  0  0  0  0  2  0  0  0  0  0  0
  190.6150  172.6740  135.4170 C   0  0  0  0  0  0  0  0  0  0  0  0
  190.0810  171.6710  134.8780 O   0  0  0  0  0  1  0  0  0  0  0  0
  191.5660  173.4100  134.7190 O   0  0  0  0  0  0  0  0  0  0  0  0
  185.7350  177.9950  146.8000 O   0  0  0  0  0  0  0  0  0  0  0  0
  184.5040  177.7520  146.3290 O   0  0  0  0  0  0  0  0  0  0  0  0
  184.1080  179.0110  144.3580 C   0  0  0  0  0  1  0  0  0  0  0  0
  184.0520  178.9870  145.8690 C   0  0  0  0  0  2  0  0  0  0  0  0
  1 17  2  0  0  0  0
  1 11  1  0  0  0  0
  5  1  1  0  0  0  0
  6  4  1  1  0  0  0
  6 11  1  0  0  0  0
  6  8  1  0  0  0  0
  7 12  1  0  0  0  0
  8  7  1  0  0  0  0
  9  5  1  6  0  0  0
  9  4  1  0  0  0  0
 10  3  1  0  0  0  0
 10 12  1  0  0  0  0
 11 10  2  0  0  0  0
 13 31  1  0  0  0  0
 13  2  2  0  0  0  0
 14 13  1  0  0  0  0
 15  2  1  0  0  0  0
 15  3  2  0  0  0  0
 16 14  2  0  0  0  0
 16 17  1  0  0  0  0
 17 15  1  0  0  0  0
 18 27  1  0  0  0  0
 20 28  1  6  0  0  0
 20 21  1  0  0  0  0
 20 25  1  0  0  0  0
 21 22  1  0  0  0  0
 22 23  1  0  0  0  0
 22 18  2  0  0  0  0
 23 25  1  6  0  0  0
 23 24  1  0  0  0  0
 24 19  1  0  0  0  0
 26 19  1  6  0  0  0
 26  9  1  0  0  0  0
 27 26  1  0  0  0  0
 29 28  1  0  0  0  0
 30 28  2  0  0  0  0
 32 31  1  0  0  0  0
 33 34  1  0  0  0  0
 34 32  1  0  0  0  0
M  END
>  <MODEL>
9

>  <REMARK>
 VINA RESULT:      -7.3      4.754      7.013
  Name = 
  5 active torsions:
  status: ('A' for Active; 'I' for Inactive)
    1  A    between atoms: O_3  and  C_24
    2  A    between atoms: O_3  and  O_25
    3  A    between atoms: C_7  and  C_11
    4  A    between atoms: C_18  and  C_30
    5  A    between atoms: C_23  and  O_25
                            x       y       z     vdW  Elec       q    Type
                         _______ _______ _______ _____ _____    ______ ____

>  <TORSDO>
F 5

$$$$
