=
 OpenBabel11052420583D

 43 49  0  0  1  0  0  0  0  0999 V2000
  190.0820  170.5080  138.5600 C   0  0  0  0  0  0  0  0  0  0  0  0
  188.7050  174.5290  141.3120 C   0  0  0  0  0  0  0  0  0  0  0  0
  189.8500  174.1310  143.8240 C   0  0  0  0  0  0  0  0  0  0  0  0
  189.1150  172.6040  139.3090 C   0  0  0  0  0  0  0  0  0  0  0  0
  190.6670  170.3250  139.8140 C   0  0  0  0  0  3  0  0  0  0  0  0
  190.2790  169.4890  137.4920 C   0  0  0  0  0  1  0  0  0  0  0  0
  189.7030  172.4240  140.5820 C   0  0  0  0  0  0  0  0  0  0  0  0
  189.3090  171.6450  138.3080 C   0  0  0  0  0  3  0  0  0  0  0  0
  190.4790  171.2780  140.8220 C   0  0  0  0  0  3  0  0  0  0  0  0
  190.0480  173.2290  142.8240 N   0  0  0  0  0  0  0  0  0  0  0  0
  189.4940  173.3870  141.5870 C   0  0  0  0  0  0  0  0  0  0  0  0
  188.1350  174.6930  140.0410 C   0  0  0  0  0  3  0  0  0  0  0  0
  188.5210  175.4860  142.3270 C   0  0  0  0  0  0  0  0  0  0  0  0
  189.0940  175.2780  143.5840 C   0  0  0  0  0  3  0  0  0  0  0  0
  188.3370  173.7340  139.0480 C   0  0  0  0  0  3  0  0  0  0  0  0
  190.5180  173.9600  145.1540 C   0  0  1  0  0  3  0  0  0  0  0  0
  192.0160  173.7170  145.0090 C   0  0  0  0  0  2  0  0  0  0  0  0
  190.3920  175.2320  145.9570 C   0  0  0  0  0  2  0  0  0  0  0  0
  192.7100  174.8820  145.5400 N   0  0  0  0  0  0  0  0  0  0  0  0
  191.7810  175.4730  146.4940 C   0  0  0  0  0  2  0  0  0  0  0  0
  193.8730  174.4000  146.2720 C   0  0  0  0  0  2  0  0  0  0  0  0
  195.1530  175.0450  145.7290 C   0  0  2  0  0  3  0  0  0  0  0  0
  197.0350  174.7300  144.3490 O   0  0  0  0  0  0  0  0  0  0  0  0
  194.9120  175.8330  144.4850 C   0  0  0  0  0  2  0  0  0  0  0  0
  196.2540  174.0810  145.3250 C   0  0  1  0  0  0  0  0  0  0  0  0
  197.1150  173.7940  146.5450 C   0  0  0  0  0  1  0  0  0  0  0  0
  196.2320  175.7310  143.7600 C   0  0  0  0  0  2  0  0  0  0  0  0
  195.6980  172.7660  144.7450 C   0  0  0  0  0  2  0  0  0  0  0  0
  196.0180  171.5550  145.6160 C   0  0  0  0  0  3  0  0  0  0  0  0
  195.0980  169.4970  146.7030 C   0  0  0  0  0  2  0  0  0  0  0  0
  197.4420  169.5100  145.8170 C   0  0  0  0  0  2  0  0  0  0  0  0
  196.1960  168.6590  146.0500 C   0  0  0  0  0  2  0  0  0  0  0  0
  197.0970  170.7140  144.9390 C   0  0  0  0  0  2  0  0  0  0  0  0
  194.7650  170.7090  145.8310 C   0  0  0  0  0  2  0  0  0  0  0  0
  187.7330  176.7350  142.0970 C   0  0  0  0  0  2  0  0  0  0  0  0
  186.4040  178.2830  144.6140 C   0  0  0  0  0  2  0  0  0  0  0  0
  185.0200  178.8130  144.2070 C   0  0  1  0  0  3  0  0  0  0  0  0
  185.5630  177.6320  142.0720 C   0  0  0  0  0  2  0  0  0  0  0  0
  186.6050  176.8270  144.1680 C   0  0  0  0  0  2  0  0  0  0  0  0
  186.4230  176.6260  142.7160 N   0  0  0  0  0  0  0  0  0  0  0  0
  184.4320  178.0910  142.9910 C   0  0  0  0  0  2  0  0  0  0  0  0
  184.7290  178.6390  146.7230 C   0  0  0  0  0  1  0  0  0  0  0  0
  184.0370  178.8430  145.3780 C   0  0  0  0  0  2  0  0  0  0  0  0
  1  5  1  0  0  0  0
  2 11  1  0  0  0  0
  2 13  1  0  0  0  0
  4  7  1  0  0  0  0
  5  9  2  0  0  0  0
  6  1  1  0  0  0  0
  7  9  1  0  0  0  0
  7 11  2  0  0  0  0
  8  1  2  0  0  0  0
  8  4  1  0  0  0  0
 10  3  2  0  0  0  0
 11 10  1  0  0  0  0
 12  2  2  0  0  0  0
 13 14  2  0  0  0  0
 14  3  1  0  0  0  0
 15  4  2  0  0  0  0
 15 12  1  0  0  0  0
 16  3  1  6  0  0  0
 16 18  1  0  0  0  0
 17 16  1  0  0  0  0
 17 19  1  0  0  0  0
 18 20  1  0  0  0  0
 19 21  1  0  0  0  0
 19 20  1  0  0  0  0
 22 21  1  6  0  0  0
 23 25  1  0  0  0  0
 24 22  1  0  0  0  0
 25 22  1  0  0  0  0
 25 26  1  1  0  0  0
 27 23  1  0  0  0  0
 27 24  1  0  0  0  0
 28 25  1  0  0  0  0
 28 29  1  0  0  0  0
 29 34  1  0  0  0  0
 31 32  1  0  0  0  0
 32 30  1  0  0  0  0
 33 29  1  0  0  0  0
 33 31  1  0  0  0  0
 34 30  1  0  0  0  0
 35 13  1  0  0  0  0
 35 40  1  0  0  0  0
 37 36  1  0  0  0  0
 37 43  1  1  0  0  0
 38 40  1  0  0  0  0
 38 41  1  0  0  0  0
 39 36  1  0  0  0  0
 40 39  1  0  0  0  0
 41 37  1  0  0  0  0
 43 42  1  0  0  0  0
M  END
>  <MODEL>
1

>  <REMARK>
 VINA RESULT:      -8.8      0.000      0.000
  Name = 
  8 active torsions:
  status: ('A' for Active; 'I' for Inactive)
    1  A    between atoms: C_1  and  C_34
    2  A    between atoms: C_1  and  N_35
    3  A    between atoms: C_2  and  C_13
    4  A    between atoms: C_3  and  C_4
    5  A    between atoms: C_3  and  N_12
    6  A    between atoms: C_11  and  C_14
    7  A    between atoms: C_14  and  C_22
    8  A    between atoms: C_19  and  C_37
                            x       y       z     vdW  Elec       q    Type
                         _______ _______ _______ _____ _____    ______ ____

>  <TORSDO>
F 8

$$$$
=
 OpenBabel11052420583D

 43 49  0  0  1  0  0  0  0  0999 V2000
  185.5460  177.7370  146.1960 C   0  0  0  0  0  0  0  0  0  0  0  0
  189.1830  175.4590  143.5090 C   0  0  0  0  0  0  0  0  0  0  0  0
  191.4410  175.4910  145.1470 C   0  0  0  0  0  0  0  0  0  0  0  0
  186.7970  176.5980  144.4570 C   0  0  0  0  0  0  0  0  0  0  0  0
  186.6750  177.7330  147.0160 C   0  0  0  0  0  3  0  0  0  0  0  0
  184.2780  178.3500  146.6800 C   0  0  0  0  0  1  0  0  0  0  0  0
  187.9450  176.5920  145.2820 C   0  0  0  0  0  0  0  0  0  0  0  0
  185.6070  177.1700  144.9200 C   0  0  0  0  0  3  0  0  0  0  0  0
  187.8710  177.1630  146.5630 C   0  0  0  0  0  3  0  0  0  0  0  0
  190.2620  176.0140  145.5840 N   0  0  0  0  0  0  0  0  0  0  0  0
  189.1420  176.0240  144.8050 C   0  0  0  0  0  0  0  0  0  0  0  0
  188.0320  175.4690  142.7070 C   0  0  0  0  0  3  0  0  0  0  0  0
  190.3850  174.8840  143.0580 C   0  0  0  0  0  0  0  0  0  0  0  0
  191.5130  174.9080  143.8820 C   0  0  0  0  0  3  0  0  0  0  0  0
  186.8480  176.0380  143.1780 C   0  0  0  0  0  3  0  0  0  0  0  0
  192.6380  175.4420  146.0460 C   0  0  1  0  0  3  0  0  0  0  0  0
  193.5910  174.3180  145.6600 C   0  0  0  0  0  2  0  0  0  0  0  0
  193.4370  176.7150  145.9040 C   0  0  0  0  0  2  0  0  0  0  0  0
  194.8120  174.9240  145.1480 N   0  0  0  0  0  0  0  0  0  0  0  0
  194.8630  176.2450  145.7600 C   0  0  0  0  0  2  0  0  0  0  0  0
  195.9320  174.1420  145.6530 C   0  0  0  0  0  2  0  0  0  0  0  0
  195.7670  172.6660  145.2750 C   0  0  2  0  0  3  0  0  0  0  0  0
  196.5060  170.9480  143.8430 O   0  0  0  0  0  0  0  0  0  0  0  0
  196.6330  171.7660  146.0920 C   0  0  0  0  0  2  0  0  0  0  0  0
  196.1390  172.3070  143.8470 C   0  0  1  0  0  0  0  0  0  0  0  0
  194.9130  172.4970  142.9670 C   0  0  0  0  0  1  0  0  0  0  0  0
  196.8950  170.6100  145.1580 C   0  0  0  0  0  2  0  0  0  0  0  0
  197.3110  173.1550  143.3170 C   0  0  0  0  0  2  0  0  0  0  0  0
  196.9810  173.8630  142.0060 C   0  0  0  0  0  3  0  0  0  0  0  0
  196.7680  176.0750  140.8540 C   0  0  0  0  0  2  0  0  0  0  0  0
  197.6030  174.0760  139.5930 C   0  0  0  0  0  2  0  0  0  0  0  0
  197.7060  175.5910  139.7490 C   0  0  0  0  0  2  0  0  0  0  0  0
  197.9410  173.3900  140.9180 C   0  0  0  0  0  2  0  0  0  0  0  0
  197.0990  175.3770  142.1730 C   0  0  0  0  0  2  0  0  0  0  0  0
  190.4920  174.2340  141.7160 C   0  0  0  0  0  2  0  0  0  0  0  0
  191.3860  171.6700  139.9490 C   0  0  0  0  0  2  0  0  0  0  0  0
  192.6770  172.0080  139.1860 C   0  0  1  0  0  3  0  0  0  0  0  0
  192.4700  174.1530  140.4530 C   0  0  0  0  0  2  0  0  0  0  0  0
  191.4690  172.1060  141.4190 C   0  0  0  0  0  2  0  0  0  0  0  0
  191.7650  173.5430  141.5910 N   0  0  0  0  0  0  0  0  0  0  0  0
  193.4500  173.1800  139.7980 C   0  0  0  0  0  2  0  0  0  0  0  0
  194.9580  170.9700  139.5870 C   0  0  0  0  0  1  0  0  0  0  0  0
  193.5710  170.7850  138.9780 C   0  0  0  0  0  2  0  0  0  0  0  0
  1  6  1  0  0  0  0
  1  5  1  0  0  0  0
  2 11  1  0  0  0  0
  3 10  1  0  0  0  0
  4  8  1  0  0  0  0
  4  7  2  0  0  0  0
  7  9  1  0  0  0  0
  8  1  2  0  0  0  0
  9  5  2  0  0  0  0
 11  7  1  0  0  0  0
 11 10  2  0  0  0  0
 12 15  2  0  0  0  0
 12  2  1  0  0  0  0
 13  2  2  0  0  0  0
 13 14  1  0  0  0  0
 14  3  2  0  0  0  0
 15  4  1  0  0  0  0
 16  3  1  6  0  0  0
 17 16  1  0  0  0  0
 18 16  1  0  0  0  0
 19 21  1  0  0  0  0
 19 17  1  0  0  0  0
 19 20  1  0  0  0  0
 20 18  1  0  0  0  0
 22 21  1  1  0  0  0
 22 24  1  0  0  0  0
 23 25  1  0  0  0  0
 23 27  1  0  0  0  0
 25 26  1  6  0  0  0
 25 22  1  0  0  0  0
 27 24  1  0  0  0  0
 28 25  1  0  0  0  0
 29 34  1  0  0  0  0
 29 28  1  0  0  0  0
 30 34  1  0  0  0  0
 31 32  1  0  0  0  0
 31 33  1  0  0  0  0
 32 30  1  0  0  0  0
 33 29  1  0  0  0  0
 35 13  1  0  0  0  0
 36 39  1  0  0  0  0
 37 43  1  1  0  0  0
 37 41  1  0  0  0  0
 37 36  1  0  0  0  0
 38 40  1  0  0  0  0
 39 40  1  0  0  0  0
 40 35  1  0  0  0  0
 41 38  1  0  0  0  0
 43 42  1  0  0  0  0
M  END
>  <MODEL>
2

>  <REMARK>
 VINA RESULT:      -8.7      2.264      7.099
  Name = 
  8 active torsions:
  status: ('A' for Active; 'I' for Inactive)
    1  A    between atoms: C_1  and  C_34
    2  A    between atoms: C_1  and  N_35
    3  A    between atoms: C_2  and  C_13
    4  A    between atoms: C_3  and  C_4
    5  A    between atoms: C_3  and  N_12
    6  A    between atoms: C_11  and  C_14
    7  A    between atoms: C_14  and  C_22
    8  A    between atoms: C_19  and  C_37
                            x       y       z     vdW  Elec       q    Type
                         _______ _______ _______ _____ _____    ______ ____

>  <TORSDO>
F 8

$$$$
=
 OpenBabel11052420583D

 43 49  0  0  1  0  0  0  0  0999 V2000
  185.1080  178.0150  145.7410 C   0  0  0  0  0  0  0  0  0  0  0  0
  188.6900  175.5180  143.1740 C   0  0  0  0  0  0  0  0  0  0  0  0
  190.7720  175.1400  144.9920 C   0  0  0  0  0  0  0  0  0  0  0  0
  186.3760  176.8680  144.0170 C   0  0  0  0  0  0  0  0  0  0  0  0
  186.1480  177.8050  146.6490 C   0  0  0  0  0  3  0  0  0  0  0  0
  183.8820  178.7410  146.1690 C   0  0  0  0  0  1  0  0  0  0  0  0
  187.4320  176.6550  144.9320 C   0  0  0  0  0  0  0  0  0  0  0  0
  185.2220  177.5460  144.4280 C   0  0  0  0  0  3  0  0  0  0  0  0
  187.3060  177.1280  146.2480 C   0  0  0  0  0  3  0  0  0  0  0  0
  189.6270  175.7700  145.3740 N   0  0  0  0  0  0  0  0  0  0  0  0
  188.5930  175.9810  144.5080 C   0  0  0  0  0  0  0  0  0  0  0  0
  187.6280  175.7340  142.2830 C   0  0  0  0  0  3  0  0  0  0  0  0
  189.8540  174.8350  142.7760 C   0  0  0  0  0  0  0  0  0  0  0  0
  190.8940  174.6530  143.6900 C   0  0  0  0  0  3  0  0  0  0  0  0
  186.4800  176.4080  142.7020 C   0  0  0  0  0  3  0  0  0  0  0  0
  191.8650  174.8710  145.9800 C   0  0  1  0  0  3  0  0  0  0  0  0
  193.1010  174.2800  145.3120 C   0  0  0  0  0  2  0  0  0  0  0  0
  192.3240  176.1690  146.6010 C   0  0  0  0  0  2  0  0  0  0  0  0
  194.1650  175.2710  145.3870 N   0  0  0  0  0  0  0  0  0  0  0  0
  193.8300  176.1000  146.5370 C   0  0  0  0  0  2  0  0  0  0  0  0
  195.4020  174.5600  145.6810 C   0  0  0  0  0  2  0  0  0  0  0  0
  196.5100  174.9930  144.7150 C   0  0  2  0  0  3  0  0  0  0  0  0
  197.3970  174.7190  142.5500 O   0  0  0  0  0  0  0  0  0  0  0  0
  196.1500  176.2180  143.9430 C   0  0  0  0  0  2  0  0  0  0  0  0
  196.8670  173.9890  143.6320 C   0  0  1  0  0  0  0  0  0  0  0  0
  197.9350  173.0530  144.1750 C   0  0  0  0  0  1  0  0  0  0  0  0
  196.9140  176.0420  142.6540 C   0  0  0  0  0  2  0  0  0  0  0  0
  195.6440  173.1820  143.1560 C   0  0  0  0  0  2  0  0  0  0  0  0
  195.3020  173.4380  141.6920 C   0  0  0  0  0  3  0  0  0  0  0  0
  194.9800  172.3990  139.4370 C   0  0  0  0  0  2  0  0  0  0  0  0
  193.5730  174.3520  140.1340 C   0  0  0  0  0  2  0  0  0  0  0  0
  193.6050  173.0550  139.3290 C   0  0  0  0  0  2  0  0  0  0  0  0
  193.9160  174.0690  141.5970 C   0  0  0  0  0  2  0  0  0  0  0  0
  195.3260  172.1300  140.9030 C   0  0  0  0  0  2  0  0  0  0  0  0
  190.0090  174.2840  141.3960 C   0  0  0  0  0  2  0  0  0  0  0  0
  189.9590  172.1140  138.9900 C   0  0  0  0  0  2  0  0  0  0  0  0
  190.6730  170.8340  139.4510 C   0  0  1  0  0  3  0  0  0  0  0  0
  190.8460  172.0990  141.5990 C   0  0  0  0  0  2  0  0  0  0  0  0
  188.9830  172.6320  140.0580 C   0  0  0  0  0  2  0  0  0  0  0  0
  189.6220  172.8830  141.3660 N   0  0  0  0  0  0  0  0  0  0  0  0
  190.7620  170.7070  140.9750 C   0  0  0  0  0  2  0  0  0  0  0  0
  189.9320  169.7100  137.2990 C   0  0  0  0  0  1  0  0  0  0  0  0
  190.0870  169.5740  138.8100 C   0  0  0  0  0  2  0  0  0  0  0  0
  1  6  1  0  0  0  0
  1  5  1  0  0  0  0
  2 11  1  0  0  0  0
  3 10  1  0  0  0  0
  4  8  1  0  0  0  0
  4  7  2  0  0  0  0
  7  9  1  0  0  0  0
  8  1  2  0  0  0  0
  9  5  2  0  0  0  0
 11  7  1  0  0  0  0
 11 10  2  0  0  0  0
 12 15  2  0  0  0  0
 12  2  1  0  0  0  0
 13  2  2  0  0  0  0
 13 14  1  0  0  0  0
 14  3  2  0  0  0  0
 15  4  1  0  0  0  0
 16  3  1  6  0  0  0
 16 18  1  0  0  0  0
 17 19  1  0  0  0  0
 17 16  1  0  0  0  0
 19 21  1  0  0  0  0
 19 20  1  0  0  0  0
 20 18  1  0  0  0  0
 22 21  1  6  0  0  0
 23 27  1  0  0  0  0
 23 25  1  0  0  0  0
 24 22  1  0  0  0  0
 25 26  1  1  0  0  0
 25 22  1  0  0  0  0
 27 24  1  0  0  0  0
 28 25  1  0  0  0  0
 29 28  1  0  0  0  0
 30 34  1  0  0  0  0
 31 33  1  0  0  0  0
 32 30  1  0  0  0  0
 32 31  1  0  0  0  0
 33 29  1  0  0  0  0
 34 29  1  0  0  0  0
 35 13  1  0  0  0  0
 36 37  1  0  0  0  0
 36 39  1  0  0  0  0
 37 43  1  1  0  0  0
 37 41  1  0  0  0  0
 39 40  1  0  0  0  0
 40 35  1  0  0  0  0
 40 38  1  0  0  0  0
 41 38  1  0  0  0  0
 42 43  1  0  0  0  0
M  END
>  <MODEL>
3

>  <REMARK>
 VINA RESULT:      -8.7      1.985      6.655
  Name = 
  8 active torsions:
  status: ('A' for Active; 'I' for Inactive)
    1  A    between atoms: C_1  and  C_34
    2  A    between atoms: C_1  and  N_35
    3  A    between atoms: C_2  and  C_13
    4  A    between atoms: C_3  and  C_4
    5  A    between atoms: C_3  and  N_12
    6  A    between atoms: C_11  and  C_14
    7  A    between atoms: C_14  and  C_22
    8  A    between atoms: C_19  and  C_37
                            x       y       z     vdW  Elec       q    Type
                         _______ _______ _______ _____ _____    ______ ____

>  <TORSDO>
F 8

$$$$
=
 OpenBabel11052420583D

 43 49  0  0  1  0  0  0  0  0999 V2000
  185.1450  177.9670  145.9560 C   0  0  0  0  0  0  0  0  0  0  0  0
  188.8040  175.6370  143.3420 C   0  0  0  0  0  0  0  0  0  0  0  0
  190.9040  175.3060  145.1490 C   0  0  0  0  0  0  0  0  0  0  0  0
  186.4460  176.8920  144.2120 C   0  0  0  0  0  0  0  0  0  0  0  0
  186.1940  177.7810  146.8580 C   0  0  0  0  0  3  0  0  0  0  0  0
  183.8950  178.6430  146.3990 C   0  0  0  0  0  1  0  0  0  0  0  0
  187.5130  176.7020  145.1210 C   0  0  0  0  0  0  0  0  0  0  0  0
  185.2710  177.5220  144.6360 C   0  0  0  0  0  3  0  0  0  0  0  0
  187.3740  177.1510  146.4440 C   0  0  0  0  0  3  0  0  0  0  0  0
  189.7380  175.8890  145.5430 N   0  0  0  0  0  0  0  0  0  0  0  0
  188.6960  176.0760  144.6830 C   0  0  0  0  0  0  0  0  0  0  0  0
  187.7330  175.8290  142.4570 C   0  0  0  0  0  3  0  0  0  0  0  0
  189.9900  175.0020  142.9310 C   0  0  0  0  0  0  0  0  0  0  0  0
  191.0390  174.8430  143.8390 C   0  0  0  0  0  3  0  0  0  0  0  0
  186.5630  176.4550  142.8900 C   0  0  0  0  0  3  0  0  0  0  0  0
  192.0090  175.0610  146.1300 C   0  0  1  0  0  3  0  0  0  0  0  0
  193.1830  174.3280  145.4910 C   0  0  0  0  0  2  0  0  0  0  0  0
  192.5690  176.3790  146.6090 C   0  0  0  0  0  2  0  0  0  0  0  0
  194.3100  175.2490  145.4410 N   0  0  0  0  0  0  0  0  0  0  0  0
  194.0640  176.2050  146.5130 C   0  0  0  0  0  2  0  0  0  0  0  0
  195.5080  174.4890  145.7700 C   0  0  0  0  0  2  0  0  0  0  0  0
  196.4730  174.4700  144.5800 C   0  0  2  0  0  3  0  0  0  0  0  0
  197.1080  173.3110  142.6310 O   0  0  0  0  0  0  0  0  0  0  0  0
  195.9700  175.2660  143.4230 C   0  0  0  0  0  2  0  0  0  0  0  0
  196.7430  173.1030  143.9750 C   0  0  1  0  0  0  0  0  0  0  0  0
  197.9090  172.4690  144.7170 C   0  0  0  0  0  1  0  0  0  0  0  0
  196.5830  174.5610  142.2370 C   0  0  0  0  0  2  0  0  0  0  0  0
  195.5100  172.1830  144.0350 C   0  0  0  0  0  2  0  0  0  0  0  0
  195.7730  170.8930  144.8060 C   0  0  0  0  0  3  0  0  0  0  0  0
  194.9250  169.3400  146.5760 C   0  0  0  0  0  2  0  0  0  0  0  0
  196.1520  168.4310  144.5880 C   0  0  0  0  0  2  0  0  0  0  0  0
  195.0450  168.1660  145.6050 C   0  0  0  0  0  2  0  0  0  0  0  0
  195.8640  169.7260  143.8260 C   0  0  0  0  0  2  0  0  0  0  0  0
  194.6520  170.6350  145.8100 C   0  0  0  0  0  2  0  0  0  0  0  0
  190.1600  174.4770  141.5420 C   0  0  0  0  0  2  0  0  0  0  0  0
  189.6750  172.4560  139.0570 C   0  0  0  0  0  2  0  0  0  0  0  0
  190.5410  171.2000  139.2520 C   0  0  1  0  0  3  0  0  0  0  0  0
  191.1330  172.3450  141.3930 C   0  0  0  0  0  2  0  0  0  0  0  0
  188.9430  172.8430  140.3510 C   0  0  0  0  0  2  0  0  0  0  0  0
  189.8500  173.0580  141.4970 N   0  0  0  0  0  0  0  0  0  0  0  0
  190.9810  170.9900  140.7040 C   0  0  0  0  0  2  0  0  0  0  0  0
  189.9720  169.9020  137.1460 C   0  0  0  0  0  1  0  0  0  0  0  0
  189.8900  169.9450  138.6690 C   0  0  0  0  0  2  0  0  0  0  0  0
  1  6  1  0  0  0  0
  1  5  1  0  0  0  0
  2 11  1  0  0  0  0
  3 10  1  0  0  0  0
  4  8  1  0  0  0  0
  4  7  2  0  0  0  0
  7  9  1  0  0  0  0
  8  1  2  0  0  0  0
  9  5  2  0  0  0  0
 11  7  1  0  0  0  0
 11 10  2  0  0  0  0
 12 15  2  0  0  0  0
 12  2  1  0  0  0  0
 13  2  2  0  0  0  0
 13 14  1  0  0  0  0
 14  3  2  0  0  0  0
 15  4  1  0  0  0  0
 16  3  1  6  0  0  0
 16 18  1  0  0  0  0
 17 16  1  0  0  0  0
 19 17  1  0  0  0  0
 19 21  1  0  0  0  0
 19 20  1  0  0  0  0
 20 18  1  0  0  0  0
 22 21  1  1  0  0  0
 23 25  1  0  0  0  0
 24 22  1  0  0  0  0
 25 28  1  0  0  0  0
 25 22  1  0  0  0  0
 25 26  1  1  0  0  0
 27 23  1  0  0  0  0
 27 24  1  0  0  0  0
 28 29  1  0  0  0  0
 29 34  1  0  0  0  0
 31 32  1  0  0  0  0
 32 30  1  0  0  0  0
 33 31  1  0  0  0  0
 33 29  1  0  0  0  0
 34 30  1  0  0  0  0
 35 13  1  0  0  0  0
 36 37  1  0  0  0  0
 36 39  1  0  0  0  0
 37 43  1  1  0  0  0
 37 41  1  0  0  0  0
 38 40  1  0  0  0  0
 39 40  1  0  0  0  0
 40 35  1  0  0  0  0
 41 38  1  0  0  0  0
 42 43  1  0  0  0  0
M  END
>  <MODEL>
4

>  <REMARK>
 VINA RESULT:      -8.6      1.405      6.172
  Name = 
  8 active torsions:
  status: ('A' for Active; 'I' for Inactive)
    1  A    between atoms: C_1  and  C_34
    2  A    between atoms: C_1  and  N_35
    3  A    between atoms: C_2  and  C_13
    4  A    between atoms: C_3  and  C_4
    5  A    between atoms: C_3  and  N_12
    6  A    between atoms: C_11  and  C_14
    7  A    between atoms: C_14  and  C_22
    8  A    between atoms: C_19  and  C_37
                            x       y       z     vdW  Elec       q    Type
                         _______ _______ _______ _____ _____    ______ ____

>  <TORSDO>
F 8

$$$$
=
 OpenBabel11052420583D

 43 49  0  0  1  0  0  0  0  0999 V2000
  190.0930  170.6680  138.3710 C   0  0  0  0  0  0  0  0  0  0  0  0
  188.6730  174.5850  141.2500 C   0  0  0  0  0  0  0  0  0  0  0  0
  189.7480  174.0750  143.7720 C   0  0  0  0  0  0  0  0  0  0  0  0
  189.1210  172.7400  139.1800 C   0  0  0  0  0  0  0  0  0  0  0  0
  190.6430  170.4300  139.6320 C   0  0  0  0  0  3  0  0  0  0  0  0
  190.3110  169.6920  137.2680 C   0  0  0  0  0  1  0  0  0  0  0  0
  189.6740  172.5030  140.4600 C   0  0  0  0  0  0  0  0  0  0  0  0
  189.3350  171.8210  138.1460 C   0  0  0  0  0  3  0  0  0  0  0  0
  190.4360  171.3420  140.6730 C   0  0  0  0  0  3  0  0  0  0  0  0
  189.9660  173.2130  142.7410 N   0  0  0  0  0  0  0  0  0  0  0  0
  189.4460  173.4270  141.4980 C   0  0  0  0  0  0  0  0  0  0  0  0
  188.1380  174.8060  139.9720 C   0  0  0  0  0  3  0  0  0  0  0  0
  188.4690  175.5010  142.2980 C   0  0  0  0  0  0  0  0  0  0  0  0
  189.0070  175.2370  143.5600 C   0  0  0  0  0  3  0  0  0  0  0  0
  188.3590  173.8870  138.9460 C   0  0  0  0  0  3  0  0  0  0  0  0
  190.3800  173.8440  145.1110 C   0  0  1  0  0  3  0  0  0  0  0  0
  191.9000  173.7860  145.0180 C   0  0  0  0  0  2  0  0  0  0  0  0
  190.0760  175.0050  146.0270 C   0  0  0  0  0  2  0  0  0  0  0  0
  192.4340  174.9610  145.6940 N   0  0  0  0  0  0  0  0  0  0  0  0
  191.4060  175.3430  146.6540 C   0  0  0  0  0  2  0  0  0  0  0  0
  193.6150  174.5390  146.4330 C   0  0  0  0  0  2  0  0  0  0  0  0
  194.8600  175.2660  145.9130 C   0  0  2  0  0  3  0  0  0  0  0  0
  196.5500  175.2630  144.2730 O   0  0  0  0  0  0  0  0  0  0  0  0
  194.5250  176.3530  144.9470 C   0  0  0  0  0  2  0  0  0  0  0  0
  195.8500  174.4070  145.1450 C   0  0  1  0  0  0  0  0  0  0  0  0
  196.8270  173.7940  146.1360 C   0  0  0  0  0  1  0  0  0  0  0  0
  195.7450  176.4030  144.0590 C   0  0  0  0  0  2  0  0  0  0  0  0
  195.1550  173.3010  144.3290 C   0  0  0  0  0  2  0  0  0  0  0  0
  195.4690  173.3820  142.8380 C   0  0  0  0  0  3  0  0  0  0  0  0
  196.4340  172.1800  140.8660 C   0  0  0  0  0  2  0  0  0  0  0  0
  194.4850  173.7260  140.5650 C   0  0  0  0  0  2  0  0  0  0  0  0
  195.1540  172.4440  140.0760 C   0  0  0  0  0  2  0  0  0  0  0  0
  194.1780  173.6200  142.0590 C   0  0  0  0  0  2  0  0  0  0  0  0
  196.1260  172.0880  142.3610 C   0  0  0  0  0  2  0  0  0  0  0  0
  187.6970  176.7650  142.0990 C   0  0  0  0  0  2  0  0  0  0  0  0
  186.4110  178.2510  144.6740 C   0  0  0  0  0  2  0  0  0  0  0  0
  185.0350  178.8210  144.2930 C   0  0  1  0  0  3  0  0  0  0  0  0
  185.5440  177.7030  142.1170 C   0  0  0  0  0  2  0  0  0  0  0  0
  186.5820  176.8080  144.1780 C   0  0  0  0  0  2  0  0  0  0  0  0
  186.3880  176.6600  142.7220 N   0  0  0  0  0  0  0  0  0  0  0  0
  184.4270  178.1520  143.0570 C   0  0  0  0  0  2  0  0  0  0  0  0
  184.7590  178.5980  146.8070 C   0  0  0  0  0  1  0  0  0  0  0  0
  184.0590  178.8300  145.4710 C   0  0  0  0  0  2  0  0  0  0  0  0
  1  5  1  0  0  0  0
  2 11  1  0  0  0  0
  2 13  1  0  0  0  0
  4  7  1  0  0  0  0
  5  9  2  0  0  0  0
  6  1  1  0  0  0  0
  7  9  1  0  0  0  0
  7 11  2  0  0  0  0
  8  1  2  0  0  0  0
  8  4  1  0  0  0  0
 10  3  2  0  0  0  0
 11 10  1  0  0  0  0
 12  2  2  0  0  0  0
 13 14  2  0  0  0  0
 14  3  1  0  0  0  0
 15  4  2  0  0  0  0
 15 12  1  0  0  0  0
 16  3  1  6  0  0  0
 16 18  1  0  0  0  0
 17 16  1  0  0  0  0
 17 19  1  0  0  0  0
 18 20  1  0  0  0  0
 19 21  1  0  0  0  0
 19 20  1  0  0  0  0
 22 21  1  6  0  0  0
 23 25  1  0  0  0  0
 24 22  1  0  0  0  0
 25 22  1  0  0  0  0
 25 26  1  1  0  0  0
 27 23  1  0  0  0  0
 27 24  1  0  0  0  0
 28 25  1  0  0  0  0
 29 28  1  0  0  0  0
 30 34  1  0  0  0  0
 31 33  1  0  0  0  0
 32 31  1  0  0  0  0
 32 30  1  0  0  0  0
 33 29  1  0  0  0  0
 34 29  1  0  0  0  0
 35 13  1  0  0  0  0
 35 40  1  0  0  0  0
 37 36  1  0  0  0  0
 37 43  1  1  0  0  0
 38 40  1  0  0  0  0
 38 41  1  0  0  0  0
 39 36  1  0  0  0  0
 40 39  1  0  0  0  0
 41 37  1  0  0  0  0
 43 42  1  0  0  0  0
M  END
>  <MODEL>
5

>  <REMARK>
 VINA RESULT:      -8.4      1.470      2.184
  Name = 
  8 active torsions:
  status: ('A' for Active; 'I' for Inactive)
    1  A    between atoms: C_1  and  C_34
    2  A    between atoms: C_1  and  N_35
    3  A    between atoms: C_2  and  C_13
    4  A    between atoms: C_3  and  C_4
    5  A    between atoms: C_3  and  N_12
    6  A    between atoms: C_11  and  C_14
    7  A    between atoms: C_14  and  C_22
    8  A    between atoms: C_19  and  C_37
                            x       y       z     vdW  Elec       q    Type
                         _______ _______ _______ _____ _____    ______ ____

>  <TORSDO>
F 8

$$$$
=
 OpenBabel11052420583D

 43 49  0  0  1  0  0  0  0  0999 V2000
  185.1820  177.9790  145.5700 C   0  0  0  0  0  0  0  0  0  0  0  0
  189.5780  175.5130  145.0810 C   0  0  0  0  0  0  0  0  0  0  0  0
  189.5980  174.5540  142.4620 C   0  0  0  0  0  0  0  0  0  0  0  0
  187.3610  176.9890  145.9730 C   0  0  0  0  0  0  0  0  0  0  0  0
  185.2080  177.5110  144.2550 C   0  0  0  0  0  3  0  0  0  0  0  0
  184.0070  178.7510  146.0610 C   0  0  0  0  0  1  0  0  0  0  0  0
  187.3930  176.5110  144.6420 C   0  0  0  0  0  0  0  0  0  0  0  0
  186.2560  177.7200  146.4260 C   0  0  0  0  0  3  0  0  0  0  0  0
  186.3080  176.7800  143.7910 C   0  0  0  0  0  3  0  0  0  0  0  0
  188.5500  175.2930  142.9190 N   0  0  0  0  0  0  0  0  0  0  0  0
  188.5030  175.7680  144.1970 C   0  0  0  0  0  0  0  0  0  0  0  0
  189.5300  176.0010  146.3960 C   0  0  0  0  0  3  0  0  0  0  0  0
  190.6830  174.7810  144.6110 C   0  0  0  0  0  0  0  0  0  0  0  0
  190.6850  174.2990  143.2990 C   0  0  0  0  0  3  0  0  0  0  0  0
  188.4270  176.7320  146.8380 C   0  0  0  0  0  3  0  0  0  0  0  0
  189.6490  174.0950  141.0370 C   0  0  1  0  0  3  0  0  0  0  0  0
  191.0520  173.6610  140.6300 C   0  0  0  0  0  2  0  0  0  0  0  0
  188.7810  172.8710  140.8620 C   0  0  0  0  0  2  0  0  0  0  0  0
  191.0280  172.2210  140.4110 N   0  0  0  0  0  0  0  0  0  0  0  0
  189.6430  171.9130  140.0780 C   0  0  0  0  0  2  0  0  0  0  0  0
  191.8520  171.9440  139.2440 C   0  0  0  0  0  2  0  0  0  0  0  0
  193.1240  171.1940  139.6520 C   0  0  2  0  0  3  0  0  0  0  0  0
  195.4280  171.4020  140.0960 O   0  0  0  0  0  0  0  0  0  0  0  0
  193.2870  171.1090  141.1330 C   0  0  0  0  0  2  0  0  0  0  0  0
  194.4310  171.8150  139.1910 C   0  0  1  0  0  0  0  0  0  0  0  0
  194.7580  171.2780  137.8070 C   0  0  0  0  0  1  0  0  0  0  0  0
  194.7860  171.0560  141.3050 C   0  0  0  0  0  2  0  0  0  0  0  0
  194.3700  173.3540  139.1630 C   0  0  0  0  0  2  0  0  0  0  0  0
  195.4790  174.0040  139.9840 C   0  0  0  0  0  3  0  0  0  0  0  0
  197.3880  175.6230  139.9530 C   0  0  0  0  0  2  0  0  0  0  0  0
  195.9740  175.3850  142.0090 C   0  0  0  0  0  2  0  0  0  0  0  0
  196.7900  176.3520  141.1560 C   0  0  0  0  0  2  0  0  0  0  0  0
  194.8670  174.7500  141.1660 C   0  0  0  0  0  2  0  0  0  0  0  0
  196.2790  174.9770  139.1200 C   0  0  0  0  0  2  0  0  0  0  0  0
  191.8710  174.5070  145.4750 C   0  0  0  0  0  2  0  0  0  0  0  0
  195.0030  175.1120  146.0420 C   0  0  0  0  0  2  0  0  0  0  0  0
  195.8290  173.8630  145.6960 C   0  0  1  0  0  3  0  0  0  0  0  0
  193.5960  172.9870  144.9960 C   0  0  0  0  0  2  0  0  0  0  0  0
  193.9770  175.4320  144.9450 C   0  0  0  0  0  2  0  0  0  0  0  0
  193.0560  174.3130  144.6560 N   0  0  0  0  0  0  0  0  0  0  0  0
  195.1010  172.9010  144.7520 C   0  0  0  0  0  2  0  0  0  0  0  0
  197.8590  173.0650  144.3970 C   0  0  0  0  0  1  0  0  0  0  0  0
  197.2280  174.2100  145.1850 C   0  0  0  0  0  2  0  0  0  0  0  0
  1  6  1  0  0  0  0
  1  8  1  0  0  0  0
  2 12  1  0  0  0  0
  3 10  2  0  0  0  0
  3 14  1  0  0  0  0
  4  8  2  0  0  0  0
  4 15  1  0  0  0  0
  5  1  2  0  0  0  0
  7  4  1  0  0  0  0
  9  5  1  0  0  0  0
  9  7  2  0  0  0  0
 10 11  1  0  0  0  0
 11  7  1  0  0  0  0
 11  2  2  0  0  0  0
 12 15  2  0  0  0  0
 13  2  1  0  0  0  0
 13 35  1  0  0  0  0
 14 13  2  0  0  0  0
 16  3  1  1  0  0  0
 17 16  1  0  0  0  0
 18 16  1  0  0  0  0
 19 17  1  0  0  0  0
 20 19  1  0  0  0  0
 20 18  1  0  0  0  0
 21 19  1  0  0  0  0
 22 21  1  1  0  0  0
 22 24  1  0  0  0  0
 23 27  1  0  0  0  0
 24 27  1  0  0  0  0
 25 26  1  6  0  0  0
 25 22  1  0  0  0  0
 25 23  1  0  0  0  0
 28 25  1  0  0  0  0
 28 29  1  0  0  0  0
 29 33  1  0  0  0  0
 30 32  1  0  0  0  0
 32 31  1  0  0  0  0
 33 31  1  0  0  0  0
 34 30  1  0  0  0  0
 34 29  1  0  0  0  0
 37 43  1  6  0  0  0
 37 36  1  0  0  0  0
 39 36  1  0  0  0  0
 40 39  1  0  0  0  0
 40 38  1  0  0  0  0
 40 35  1  0  0  0  0
 41 38  1  0  0  0  0
 41 37  1  0  0  0  0
 42 43  1  0  0  0  0
M  END
>  <MODEL>
6

>  <REMARK>
 VINA RESULT:      -8.3      2.474      8.060
  Name = 
  8 active torsions:
  status: ('A' for Active; 'I' for Inactive)
    1  A    between atoms: C_1  and  C_34
    2  A    between atoms: C_1  and  N_35
    3  A    between atoms: C_2  and  C_13
    4  A    between atoms: C_3  and  C_4
    5  A    between atoms: C_3  and  N_12
    6  A    between atoms: C_11  and  C_14
    7  A    between atoms: C_14  and  C_22
    8  A    between atoms: C_19  and  C_37
                            x       y       z     vdW  Elec       q    Type
                         _______ _______ _______ _____ _____    ______ ____

>  <TORSDO>
F 8

$$$$
=
 OpenBabel11052420583D

 43 49  0  0  1  0  0  0  0  0999 V2000
  193.8700  176.3330  144.9060 C   0  0  0  0  0  0  0  0  0  0  0  0
  190.7240  173.9160  141.7590 C   0  0  0  0  0  0  0  0  0  0  0  0
  188.4760  175.5560  141.5600 C   0  0  0  0  0  0  0  0  0  0  0  0
  192.8600  174.7280  143.3920 C   0  0  0  0  0  0  0  0  0  0  0  0
  192.7490  177.1570  144.7860 C   0  0  0  0  0  3  0  0  0  0  0  0
  195.0040  176.7440  145.7790 C   0  0  0  0  0  1  0  0  0  0  0  0
  191.7210  175.5570  143.2680 C   0  0  0  0  0  0  0  0  0  0  0  0
  193.9250  175.1220  144.2100 C   0  0  0  0  0  3  0  0  0  0  0  0
  191.6780  176.7720  143.9710 C   0  0  0  0  0  3  0  0  0  0  0  0
  189.5390  175.9310  142.3240 N   0  0  0  0  0  0  0  0  0  0  0  0
  190.6490  175.1470  142.4520 C   0  0  0  0  0  0  0  0  0  0  0  0
  191.8650  173.1100  141.8900 C   0  0  0  0  0  3  0  0  0  0  0  0
  189.6470  173.5340  140.9380 C   0  0  0  0  0  0  0  0  0  0  0  0
  188.5230  174.3580  140.8460 C   0  0  0  0  0  3  0  0  0  0  0  0
  192.9240  173.5130  142.7040 C   0  0  0  0  0  3  0  0  0  0  0  0
  187.2960  176.4630  141.3910 C   0  0  1  0  0  3  0  0  0  0  0  0
  186.3220  176.3490  142.5580 C   0  0  0  0  0  2  0  0  0  0  0  0
  187.7530  177.9020  141.3870 C   0  0  0  0  0  2  0  0  0  0  0  0
  186.3590  177.6050  143.2950 N   0  0  0  0  0  0  0  0  0  0  0  0
  186.7980  178.5990  142.3240 C   0  0  0  0  0  2  0  0  0  0  0  0
  184.9920  177.9210  143.6860 C   0  0  0  0  0  2  0  0  0  0  0  0
  184.9450  178.3690  145.1510 C   0  0  2  0  0  3  0  0  0  0  0  0
  186.1500  178.4840  147.1710 O   0  0  0  0  0  0  0  0  0  0  0  0
  185.3570  179.7920  145.3260 C   0  0  0  0  0  2  0  0  0  0  0  0
  185.8660  177.6180  146.0970 C   0  0  1  0  0  0  0  0  0  0  0  0
  185.1280  176.3970  146.6210 C   0  0  0  0  0  1  0  0  0  0  0  0
  185.9420  179.8050  146.7180 C   0  0  0  0  0  2  0  0  0  0  0  0
  187.1830  177.1940  145.4200 C   0  0  0  0  0  2  0  0  0  0  0  0
  188.1540  176.5230  146.3850 C   0  0  0  0  0  3  0  0  0  0  0  0
  189.6310  174.5410  146.7800 C   0  0  0  0  0  2  0  0  0  0  0  0
  190.3040  176.8000  147.6330 C   0  0  0  0  0  2  0  0  0  0  0  0
  190.8070  175.4730  147.0700 C   0  0  0  0  0  2  0  0  0  0  0  0
  189.3350  177.4540  146.6460 C   0  0  0  0  0  2  0  0  0  0  0  0
  188.6580  175.2040  145.8040 C   0  0  0  0  0  2  0  0  0  0  0  0
  189.6730  172.2670  140.1460 C   0  0  0  0  0  2  0  0  0  0  0  0
  190.4690  170.2340  137.7530 C   0  0  0  0  0  2  0  0  0  0  0  0
  189.9220  170.7800  136.4240 C   0  0  1  0  0  3  0  0  0  0  0  0
  189.2030  172.6780  137.8820 C   0  0  0  0  0  2  0  0  0  0  0  0
  191.1620  171.3320  138.5720 C   0  0  0  0  0  2  0  0  0  0  0  0
  190.2940  172.4940  138.8520 N   0  0  0  0  0  0  0  0  0  0  0  0
  189.6210  172.2810  136.4670 C   0  0  0  0  0  2  0  0  0  0  0  0
  191.6340  169.1560  135.4870 C   0  0  0  0  0  1  0  0  0  0  0  0
  190.8080  170.4140  135.2320 C   0  0  0  0  0  2  0  0  0  0  0  0
  1  6  1  0  0  0  0
  2 12  1  0  0  0  0
  2 11  1  0  0  0  0
  3 10  1  0  0  0  0
  4  8  1  0  0  0  0
  5  1  1  0  0  0  0
  7  4  2  0  0  0  0
  7  9  1  0  0  0  0
  8  1  2  0  0  0  0
  9  5  2  0  0  0  0
 10 11  2  0  0  0  0
 11  7  1  0  0  0  0
 12 15  2  0  0  0  0
 13  2  2  0  0  0  0
 14 13  1  0  0  0  0
 14  3  2  0  0  0  0
 15  4  1  0  0  0  0
 16  3  1  1  0  0  0
 16 17  1  0  0  0  0
 17 19  1  0  0  0  0
 18 16  1  0  0  0  0
 18 20  1  0  0  0  0
 19 21  1  0  0  0  0
 20 19  1  0  0  0  0
 22 21  1  6  0  0  0
 22 24  1  0  0  0  0
 22 25  1  0  0  0  0
 24 27  1  0  0  0  0
 25 26  1  1  0  0  0
 25 23  1  0  0  0  0
 27 23  1  0  0  0  0
 28 25  1  0  0  0  0
 28 29  1  0  0  0  0
 29 33  1  0  0  0  0
 30 32  1  0  0  0  0
 32 31  1  0  0  0  0
 33 31  1  0  0  0  0
 34 29  1  0  0  0  0
 34 30  1  0  0  0  0
 35 13  1  0  0  0  0
 36 39  1  0  0  0  0
 37 43  1  6  0  0  0
 37 41  1  0  0  0  0
 37 36  1  0  0  0  0
 38 40  1  0  0  0  0
 39 40  1  0  0  0  0
 40 35  1  0  0  0  0
 41 38  1  0  0  0  0
 43 42  1  0  0  0  0
M  END
>  <MODEL>
7

>  <REMARK>
 VINA RESULT:      -8.3      3.275      8.777
  Name = 
  8 active torsions:
  status: ('A' for Active; 'I' for Inactive)
    1  A    between atoms: C_1  and  C_34
    2  A    between atoms: C_1  and  N_35
    3  A    between atoms: C_2  and  C_13
    4  A    between atoms: C_3  and  C_4
    5  A    between atoms: C_3  and  N_12
    6  A    between atoms: C_11  and  C_14
    7  A    between atoms: C_14  and  C_22
    8  A    between atoms: C_19  and  C_37
                            x       y       z     vdW  Elec       q    Type
                         _______ _______ _______ _____ _____    ______ ____

>  <TORSDO>
F 8

$$$$
=
 OpenBabel11052420583D

 43 49  0  0  1  0  0  0  0  0999 V2000
  185.2600  177.9240  145.6060 C   0  0  0  0  0  0  0  0  0  0  0  0
  189.6740  175.4890  145.1270 C   0  0  0  0  0  0  0  0  0  0  0  0
  189.7760  174.6640  142.4640 C   0  0  0  0  0  0  0  0  0  0  0  0
  187.4280  176.9160  146.0240 C   0  0  0  0  0  0  0  0  0  0  0  0
  185.3270  177.5230  144.2700 C   0  0  0  0  0  3  0  0  0  0  0  0
  184.0690  178.6690  146.0990 C   0  0  0  0  0  1  0  0  0  0  0  0
  187.5010  176.5060  144.6730 C   0  0  0  0  0  0  0  0  0  0  0  0
  186.3080  177.6210  146.4800 C   0  0  0  0  0  3  0  0  0  0  0  0
  186.4430  176.8170  143.8040 C   0  0  0  0  0  3  0  0  0  0  0  0
  188.7130  175.3780  142.9260 N   0  0  0  0  0  0  0  0  0  0  0  0
  188.6260  175.7880  144.2250 C   0  0  0  0  0  0  0  0  0  0  0  0
  189.5860  175.9090  146.4620 C   0  0  0  0  0  3  0  0  0  0  0  0
  190.7950  174.7820  144.6530 C   0  0  0  0  0  0  0  0  0  0  0  0
  190.8380  174.3680  143.3200 C   0  0  0  0  0  3  0  0  0  0  0  0
  188.4680  176.6160  146.9070 C   0  0  0  0  0  3  0  0  0  0  0  0
  189.8720  174.2790  141.0190 C   0  0  1  0  0  3  0  0  0  0  0  0
  190.6770  173.0000  140.8250 C   0  0  0  0  0  2  0  0  0  0  0  0
  188.4950  173.9740  140.4790 C   0  0  0  0  0  2  0  0  0  0  0  0
  189.7640  171.9610  140.3700 N   0  0  0  0  0  0  0  0  0  0  0  0
  188.6680  172.6770  139.7280 C   0  0  0  0  0  2  0  0  0  0  0  0
  190.4590  171.1840  139.3540 C   0  0  0  0  0  2  0  0  0  0  0  0
  190.1480  171.7300  137.9560 C   0  0  2  0  0  3  0  0  0  0  0  0
  191.0540  172.2640  135.8490 O   0  0  0  0  0  0  0  0  0  0  0  0
  189.7020  170.6630  137.0120 C   0  0  0  0  0  2  0  0  0  0  0  0
  191.3130  172.3770  137.2280 C   0  0  1  0  0  0  0  0  0  0  0  0
  191.3630  173.8480  137.6100 C   0  0  0  0  0  1  0  0  0  0  0  0
  190.1590  171.1870  135.6720 C   0  0  0  0  0  2  0  0  0  0  0  0
  192.6570  171.6970  137.5540 C   0  0  0  0  0  2  0  0  0  0  0  0
  193.6590  172.6500  138.1980 C   0  0  0  0  0  3  0  0  0  0  0  0
  195.0510  173.1180  140.2240 C   0  0  0  0  0  2  0  0  0  0  0  0
  195.9080  173.7150  137.9460 C   0  0  0  0  0  2  0  0  0  0  0  0
  196.2940  173.2400  139.3450 C   0  0  0  0  0  2  0  0  0  0  0  0
  194.9060  172.7420  137.3220 C   0  0  0  0  0  2  0  0  0  0  0  0
  194.0450  172.1560  139.5910 C   0  0  0  0  0  2  0  0  0  0  0  0
  191.9570  174.4660  145.5380 C   0  0  0  0  0  2  0  0  0  0  0  0
  195.1010  175.1730  145.8710 C   0  0  0  0  0  2  0  0  0  0  0  0
  195.9240  173.8790  145.7600 C   0  0  1  0  0  3  0  0  0  0  0  0
  193.6750  172.8800  145.3240 C   0  0  0  0  0  2  0  0  0  0  0  0
  194.0390  175.2640  144.7650 C   0  0  0  0  0  2  0  0  0  0  0  0
  193.1170  174.1100  144.7390 N   0  0  0  0  0  0  0  0  0  0  0  0
  195.1730  172.7460  145.0550 C   0  0  0  0  0  2  0  0  0  0  0  0
  197.3210  173.8600  143.6410 C   0  0  0  0  0  1  0  0  0  0  0  0
  197.3040  174.1150  145.1450 C   0  0  0  0  0  2  0  0  0  0  0  0
  1  6  1  0  0  0  0
  1  8  1  0  0  0  0
  2 12  1  0  0  0  0
  3 10  2  0  0  0  0
  3 14  1  0  0  0  0
  4  8  2  0  0  0  0
  4 15  1  0  0  0  0
  5  1  2  0  0  0  0
  7  4  1  0  0  0  0
  9  5  1  0  0  0  0
  9  7  2  0  0  0  0
 10 11  1  0  0  0  0
 11  7  1  0  0  0  0
 11  2  2  0  0  0  0
 12 15  2  0  0  0  0
 13  2  1  0  0  0  0
 13 35  1  0  0  0  0
 14 13  2  0  0  0  0
 16  3  1  1  0  0  0
 17 16  1  0  0  0  0
 18 16  1  0  0  0  0
 19 17  1  0  0  0  0
 20 19  1  0  0  0  0
 20 18  1  0  0  0  0
 21 19  1  0  0  0  0
 22 21  1  1  0  0  0
 23 25  1  0  0  0  0
 24 22  1  0  0  0  0
 25 28  1  0  0  0  0
 25 26  1  1  0  0  0
 25 22  1  0  0  0  0
 27 23  1  0  0  0  0
 27 24  1  0  0  0  0
 28 29  1  0  0  0  0
 29 34  1  0  0  0  0
 31 32  1  0  0  0  0
 32 30  1  0  0  0  0
 33 31  1  0  0  0  0
 33 29  1  0  0  0  0
 34 30  1  0  0  0  0
 37 43  1  6  0  0  0
 37 36  1  0  0  0  0
 39 36  1  0  0  0  0
 40 39  1  0  0  0  0
 40 38  1  0  0  0  0
 40 35  1  0  0  0  0
 41 38  1  0  0  0  0
 41 37  1  0  0  0  0
 42 43  1  0  0  0  0
M  END
>  <MODEL>
8

>  <REMARK>
 VINA RESULT:      -8.3      2.864      8.649
  Name = 
  8 active torsions:
  status: ('A' for Active; 'I' for Inactive)
    1  A    between atoms: C_1  and  C_34
    2  A    between atoms: C_1  and  N_35
    3  A    between atoms: C_2  and  C_13
    4  A    between atoms: C_3  and  C_4
    5  A    between atoms: C_3  and  N_12
    6  A    between atoms: C_11  and  C_14
    7  A    between atoms: C_14  and  C_22
    8  A    between atoms: C_19  and  C_37
                            x       y       z     vdW  Elec       q    Type
                         _______ _______ _______ _____ _____    ______ ____

>  <TORSDO>
F 8

$$$$
=
 OpenBabel11052420583D

 43 49  0  0  1  0  0  0  0  0999 V2000
  196.6160  169.0750  146.5410 C   0  0  0  0  0  0  0  0  0  0  0  0
  192.9880  170.6020  143.3540 C   0  0  0  0  0  0  0  0  0  0  0  0
  193.0650  173.3890  143.4310 C   0  0  0  0  0  0  0  0  0  0  0  0
  194.7940  169.1470  144.9400 C   0  0  0  0  0  0  0  0  0  0  0  0
  196.6600  170.4700  146.5590 C   0  0  0  0  0  3  0  0  0  0  0  0
  197.5570  168.2910  147.3870 C   0  0  0  0  0  1  0  0  0  0  0  0
  194.8320  170.5600  144.9550 C   0  0  0  0  0  0  0  0  0  0  0  0
  195.6860  168.4150  145.7330 C   0  0  0  0  0  3  0  0  0  0  0  0
  195.7720  171.2120  145.7700 C   0  0  0  0  0  3  0  0  0  0  0  0
  193.9420  172.6530  144.1680 N   0  0  0  0  0  0  0  0  0  0  0  0
  193.9240  171.2890  144.1630 C   0  0  0  0  0  0  0  0  0  0  0  0
  192.9700  169.1990  143.3480 C   0  0  0  0  0  3  0  0  0  0  0  0
  192.1000  171.3500  142.5600 C   0  0  0  0  0  0  0  0  0  0  0  0
  192.1410  172.7460  142.6070 C   0  0  0  0  0  3  0  0  0  0  0  0
  193.8650  168.4780  144.1390 C   0  0  0  0  0  3  0  0  0  0  0  0
  193.1460  174.8850  143.4110 C   0  0  1  0  0  3  0  0  0  0  0  0
  191.7970  175.5220  143.1020 C   0  0  0  0  0  2  0  0  0  0  0  0
  193.5280  175.3940  144.7810 C   0  0  0  0  0  2  0  0  0  0  0  0
  191.3420  176.2110  144.3020 N   0  0  0  0  0  0  0  0  0  0  0  0
  192.5590  176.5200  145.0430 C   0  0  0  0  0  2  0  0  0  0  0  0
  190.7330  177.4640  143.8800 C   0  0  0  0  0  2  0  0  0  0  0  0
  189.6270  177.2020  142.8520 C   0  0  2  0  0  3  0  0  0  0  0  0
  187.3010  177.2130  142.4770 O   0  0  0  0  0  0  0  0  0  0  0  0
  189.3310  178.3990  142.0120 C   0  0  0  0  0  2  0  0  0  0  0  0
  188.2700  176.8340  143.4270 C   0  0  1  0  0  0  0  0  0  0  0  0
  188.2200  175.3260  143.6180 C   0  0  0  0  0  1  0  0  0  0  0  0
  187.8740  178.2170  141.6660 C   0  0  0  0  0  2  0  0  0  0  0  0
  187.9860  177.5490  144.7620 C   0  0  0  0  0  2  0  0  0  0  0  0
  186.5040  177.5520  145.1260 C   0  0  0  0  0  3  0  0  0  0  0  0
  184.7950  176.8560  146.8170 C   0  0  0  0  0  2  0  0  0  0  0  0
  184.5160  179.0060  145.5590 C   0  0  0  0  0  2  0  0  0  0  0  0
  184.2780  178.2920  146.8870 C   0  0  0  0  0  2  0  0  0  0  0  0
  186.0070  178.9920  145.2180 C   0  0  0  0  0  2  0  0  0  0  0  0
  186.2830  176.8450  146.4620 C   0  0  0  0  0  2  0  0  0  0  0  0
  191.1120  170.6930  141.6530 C   0  0  0  0  0  2  0  0  0  0  0  0
  190.7110  169.4600  138.6830 C   0  0  0  0  0  2  0  0  0  0  0  0
  189.6920  170.3170  137.9150 C   0  0  1  0  0  3  0  0  0  0  0  0
  189.7620  171.6840  140.0060 C   0  0  0  0  0  2  0  0  0  0  0  0
  191.7480  170.3310  139.4080 C   0  0  0  0  0  2  0  0  0  0  0  0
  191.1470  171.3100  140.3370 N   0  0  0  0  0  0  0  0  0  0  0  0
  189.5250  171.7240  138.4970 C   0  0  0  0  0  2  0  0  0  0  0  0
  190.6020  171.6740  135.9720 C   0  0  0  0  0  1  0  0  0  0  0  0
  189.9740  170.3550  136.4120 C   0  0  0  0  0  2  0  0  0  0  0  0
  1  5  1  0  0  0  0
  1  6  1  0  0  0  0
  2 11  1  0  0  0  0
  3 10  1  0  0  0  0
  4  7  2  0  0  0  0
  4  8  1  0  0  0  0
  7  9  1  0  0  0  0
  8  1  2  0  0  0  0
  9  5  2  0  0  0  0
 11 10  2  0  0  0  0
 11  7  1  0  0  0  0
 12  2  1  0  0  0  0
 12 15  2  0  0  0  0
 13 14  1  0  0  0  0
 13  2  2  0  0  0  0
 14  3  2  0  0  0  0
 15  4  1  0  0  0  0
 16  3  1  1  0  0  0
 16 18  1  0  0  0  0
 17 16  1  0  0  0  0
 17 19  1  0  0  0  0
 18 20  1  0  0  0  0
 19 20  1  0  0  0  0
 21 19  1  0  0  0  0
 22 25  1  0  0  0  0
 22 21  1  1  0  0  0
 23 25  1  0  0  0  0
 24 22  1  0  0  0  0
 25 26  1  1  0  0  0
 25 28  1  0  0  0  0
 27 24  1  0  0  0  0
 27 23  1  0  0  0  0
 28 29  1  0  0  0  0
 29 33  1  0  0  0  0
 29 34  1  0  0  0  0
 30 32  1  0  0  0  0
 31 32  1  0  0  0  0
 33 31  1  0  0  0  0
 34 30  1  0  0  0  0
 35 13  1  0  0  0  0
 36 39  1  0  0  0  0
 37 43  1  6  0  0  0
 37 41  1  0  0  0  0
 37 36  1  0  0  0  0
 38 40  1  0  0  0  0
 39 40  1  0  0  0  0
 40 35  1  0  0  0  0
 41 38  1  0  0  0  0
 42 43  1  0  0  0  0
M  END
>  <MODEL>
9

>  <REMARK>
 VINA RESULT:      -8.1      2.554      9.115
  Name = 
  8 active torsions:
  status: ('A' for Active; 'I' for Inactive)
    1  A    between atoms: C_1  and  C_34
    2  A    between atoms: C_1  and  N_35
    3  A    between atoms: C_2  and  C_13
    4  A    between atoms: C_3  and  C_4
    5  A    between atoms: C_3  and  N_12
    6  A    between atoms: C_11  and  C_14
    7  A    between atoms: C_14  and  C_22
    8  A    between atoms: C_19  and  C_37
                            x       y       z     vdW  Elec       q    Type
                         _______ _______ _______ _____ _____    ______ ____

>  <TORSDO>
F 8

$$$$
