=
 OpenBabel11052420313D

 34 39  0  0  0  0  0  0  0  0999 V2000
  188.1980  177.1290  143.4850 C   0  0  0  0  0  3  0  0  0  0  0  0
  184.5970  178.2860  143.6310 C   0  0  0  0  0  0  0  0  0  0  0  0
  184.4990  178.5820  145.0730 C   0  0  0  0  0  0  0  0  0  0  0  0
  189.1710  177.2230  145.6630 N   0  0  0  0  0  0  0  0  0  0  0  0
  186.9820  177.6040  143.9930 C   0  0  0  0  0  0  0  0  0  0  0  0
  188.0090  177.6850  146.1960 C   0  0  0  0  0  0  0  0  0  0  0  0
  186.7410  178.4370  148.1170 C   0  0  0  0  0  3  0  0  0  0  0  0
  187.9320  177.9610  147.5630 C   0  0  0  0  0  3  0  0  0  0  0  0
  189.2970  176.9400  144.3370 C   0  0  0  0  0  0  0  0  0  0  0  0
  185.6800  178.3690  145.9320 C   0  0  0  0  0  0  0  0  0  0  0  0
  186.8820  177.8880  145.3700 C   0  0  0  0  0  0  0  0  0  0  0  0
  185.6220  178.6390  147.3070 C   0  0  0  0  0  3  0  0  0  0  0  0
  183.4940  178.4780  142.7880 C   0  0  0  0  0  3  0  0  0  0  0  0
  183.5900  178.1920  141.4230 C   0  0  0  0  0  0  0  0  0  0  0  0
  184.7960  177.7260  140.8910 C   0  0  0  0  0  3  0  0  0  0  0  0
  183.4190  179.0120  145.5650 O   0  0  0  0  0  0  0  0  0  0  0  0
  185.9000  177.5320  141.7250 C   0  0  0  0  0  3  0  0  0  0  0  0
  185.8120  177.8070  143.0980 C   0  0  0  0  0  0  0  0  0  0  0  0
  191.9220  175.1800  142.0890 C   0  0  0  0  0  2  0  0  0  0  0  0
  191.8330  176.7110  144.5770 C   0  0  0  0  0  3  0  0  0  0  0  0
  195.1440  175.9130  143.6350 C   0  0  0  0  0  0  0  0  0  0  0  0
  194.4530  175.4630  142.5790 C   0  0  0  0  0  3  0  0  0  0  0  0
  193.0730  175.7720  142.7600 N   0  0  0  0  0  0  0  0  0  0  0  0
  194.2790  176.4990  144.6180 N   0  0  0  0  0  0  0  0  0  0  0  0
  192.9980  176.3800  144.0290 C   0  0  0  0  0  0  0  0  0  0  0  0
  194.6470  177.3550  145.7360 C   0  0  0  0  0  1  0  0  0  0  0  0
  190.5880  176.4380  143.8150 C   0  0  0  0  0  0  0  0  0  0  0  0
  190.6390  175.7560  142.6480 C   0  0  0  0  0  3  0  0  0  0  0  0
  196.6030  175.7800  143.7800 C   0  0  0  0  0  0  0  0  0  0  0  0
  197.4580  176.6720  143.1470 O   0  0  0  0  0  0  0  0  0  0  0  0
  197.0890  174.8560  144.4850 O   0  0  0  0  0  1  0  0  0  0  0  0
  182.4220  178.4220  140.5300 C   0  0  0  0  0  2  0  0  0  0  0  0
  181.2400  178.1860  141.2310 O   0  0  0  0  0  0  0  0  0  0  0  0
  180.3730  179.1890  140.8010 C   0  0  0  0  0  1  0  0  0  0  0  0
  1  5  2  0  0  0  0
  1  9  1  0  0  0  0
  2  3  1  0  0  0  0
  3 16  2  0  0  0  0
  3 10  1  0  0  0  0
  4  6  1  0  0  0  0
  5 11  1  0  0  0  0
  6  8  1  0  0  0  0
  8  7  2  0  0  0  0
  9  4  2  0  0  0  0
 10 12  2  0  0  0  0
 11 10  1  0  0  0  0
 11  6  2  0  0  0  0
 12  7  1  0  0  0  0
 13  2  2  0  0  0  0
 14 13  1  0  0  0  0
 15 14  2  0  0  0  0
 15 17  1  0  0  0  0
 17 18  2  0  0  0  0
 18  2  1  0  0  0  0
 18  5  1  0  0  0  0
 19 28  1  0  0  0  0
 19 23  1  0  0  0  0
 21 29  1  0  0  0  0
 21 24  1  0  0  0  0
 22 23  1  0  0  0  0
 22 21  2  0  0  0  0
 23 25  1  0  0  0  0
 24 26  1  0  0  0  0
 25 20  2  0  0  0  0
 25 24  1  0  0  0  0
 27  9  1  0  0  0  0
 27 20  1  0  0  0  0
 28 27  2  0  0  0  0
 29 31  1  0  0  0  0
 30 29  2  0  0  0  0
 32 33  1  0  0  0  0
 32 14  1  0  0  0  0
 34 33  1  0  0  0  0
M  END
>  <MODEL>
1

>  <REMARK>
 VINA RESULT:      -9.1      0.000      0.000
  Name = 
  4 active torsions:
  status: ('A' for Active; 'I' for Inactive)
    1  A    between atoms: C_3  and  O_13
    2  A    between atoms: C_3  and  C_25
    3  A    between atoms: C_7  and  C_11
    4  A    between atoms: C_18  and  C_30
                            x       y       z     vdW  Elec       q    Type
                         _______ _______ _______ _____ _____    ______ ____

>  <TORSDO>
F 4

$$$$
=
 OpenBabel11052420313D

 34 39  0  0  0  0  0  0  0  0999 V2000
  191.8830  176.6430  143.1990 C   0  0  0  0  0  3  0  0  0  0  0  0
  188.3360  177.2030  144.3940 C   0  0  0  0  0  0  0  0  0  0  0  0
  188.4720  176.7260  145.7840 C   0  0  0  0  0  0  0  0  0  0  0  0
  193.2020  175.7320  144.9680 N   0  0  0  0  0  0  0  0  0  0  0  0
  190.7600  176.6750  144.0350 C   0  0  0  0  0  0  0  0  0  0  0  0
  192.1360  175.7460  145.8110 C   0  0  0  0  0  0  0  0  0  0  0  0
  191.1910  175.3030  147.9960 C   0  0  0  0  0  3  0  0  0  0  0  0
  192.2820  175.2900  147.1240 C   0  0  0  0  0  3  0  0  0  0  0  0
  193.1120  176.1650  143.6800 C   0  0  0  0  0  0  0  0  0  0  0  0
  189.7840  176.2310  146.2470 C   0  0  0  0  0  0  0  0  0  0  0  0
  190.8840  176.2200  145.3630 C   0  0  0  0  0  0  0  0  0  0  0  0
  189.9490  175.7700  147.5610 C   0  0  0  0  0  3  0  0  0  0  0  0
  187.1050  177.6790  143.9220 C   0  0  0  0  0  3  0  0  0  0  0  0
  186.9780  178.1270  142.6050 C   0  0  0  0  0  0  0  0  0  0  0  0
  188.0870  178.1140  141.7540 C   0  0  0  0  0  3  0  0  0  0  0  0
  187.4810  176.7410  146.5650 O   0  0  0  0  0  0  0  0  0  0  0  0
  189.3180  177.6410  142.2160 C   0  0  0  0  0  3  0  0  0  0  0  0
  189.4540  177.1810  143.5350 C   0  0  0  0  0  0  0  0  0  0  0  0
  196.7810  176.4310  142.4540 C   0  0  0  0  0  2  0  0  0  0  0  0
  194.1510  175.7420  141.3820 C   0  0  0  0  0  3  0  0  0  0  0  0
  196.7110  175.3010  138.9870 C   0  0  0  0  0  0  0  0  0  0  0  0
  197.4220  175.6110  140.0790 C   0  0  0  0  0  3  0  0  0  0  0  0
  196.5360  175.7570  141.1850 N   0  0  0  0  0  0  0  0  0  0  0  0
  195.3040  175.2750  139.2650 N   0  0  0  0  0  0  0  0  0  0  0  0
  195.2460  175.5730  140.6470 C   0  0  0  0  0  0  0  0  0  0  0  0
  194.2430  174.6990  138.4530 C   0  0  0  0  0  1  0  0  0  0  0  0
  194.3070  176.1240  142.8090 C   0  0  0  0  0  0  0  0  0  0  0  0
  195.5310  176.4110  143.3060 C   0  0  0  0  0  3  0  0  0  0  0  0
  197.3040  175.0610  137.6600 C   0  0  0  0  0  0  0  0  0  0  0  0
  197.2440  176.0380  136.6760 O   0  0  0  0  0  0  0  0  0  0  0  0
  197.8760  173.9670  137.4090 O   0  0  0  0  0  1  0  0  0  0  0  0
  185.6740  178.6540  142.1190 C   0  0  0  0  0  2  0  0  0  0  0  0
  185.5400  178.3940  140.7560 O   0  0  0  0  0  0  0  0  0  0  0  0
  184.1640  178.2910  140.5540 C   0  0  0  0  0  1  0  0  0  0  0  0
  1  9  2  0  0  0  0
  1  5  1  0  0  0  0
  2  3  1  0  0  0  0
  3 10  1  0  0  0  0
  3 16  2  0  0  0  0
  4  6  2  0  0  0  0
  5 11  2  0  0  0  0
  6  8  1  0  0  0  0
  8  7  2  0  0  0  0
  9  4  1  0  0  0  0
 10 12  2  0  0  0  0
 11  6  1  0  0  0  0
 11 10  1  0  0  0  0
 12  7  1  0  0  0  0
 13  2  1  0  0  0  0
 14 13  2  0  0  0  0
 15 17  2  0  0  0  0
 15 14  1  0  0  0  0
 17 18  1  0  0  0  0
 18  5  1  0  0  0  0
 18  2  2  0  0  0  0
 19 28  1  0  0  0  0
 20 27  1  0  0  0  0
 21 24  1  0  0  0  0
 21 22  2  0  0  0  0
 22 23  1  0  0  0  0
 23 19  1  0  0  0  0
 24 25  1  0  0  0  0
 25 23  1  0  0  0  0
 25 20  2  0  0  0  0
 26 24  1  0  0  0  0
 27 28  2  0  0  0  0
 27  9  1  0  0  0  0
 29 21  1  0  0  0  0
 30 29  2  0  0  0  0
 31 29  1  0  0  0  0
 32 14  1  0  0  0  0
 33 32  1  0  0  0  0
 34 33  1  0  0  0  0
M  END
>  <MODEL>
2

>  <REMARK>
 VINA RESULT:      -8.3      3.001      4.712
  Name = 
  4 active torsions:
  status: ('A' for Active; 'I' for Inactive)
    1  A    between atoms: C_3  and  O_13
    2  A    between atoms: C_3  and  C_25
    3  A    between atoms: C_7  and  C_11
    4  A    between atoms: C_18  and  C_30
                            x       y       z     vdW  Elec       q    Type
                         _______ _______ _______ _____ _____    ______ ____

>  <TORSDO>
F 4

$$$$
=
 OpenBabel11052420313D

 34 39  0  0  0  0  0  0  0  0999 V2000
  188.9420  177.0830  144.3820 C   0  0  0  0  0  3  0  0  0  0  0  0
  185.7390  177.7060  142.4630 C   0  0  0  0  0  0  0  0  0  0  0  0
  184.8630  178.1050  143.5810 C   0  0  0  0  0  0  0  0  0  0  0  0
  188.5910  177.5020  146.7050 N   0  0  0  0  0  0  0  0  0  0  0  0
  187.6090  177.4150  144.1070 C   0  0  0  0  0  0  0  0  0  0  0  0
  187.2920  177.8320  146.4820 C   0  0  0  0  0  0  0  0  0  0  0  0
  185.1390  178.5480  147.3280 C   0  0  0  0  0  3  0  0  0  0  0  0
  186.4750  178.2070  147.5510 C   0  0  0  0  0  3  0  0  0  0  0  0
  189.4280  177.1300  145.6970 C   0  0  0  0  0  0  0  0  0  0  0  0
  185.4170  178.1410  144.9490 C   0  0  0  0  0  0  0  0  0  0  0  0
  186.7670  177.7960  145.1710 C   0  0  0  0  0  0  0  0  0  0  0  0
  184.6130  178.5150  146.0350 C   0  0  0  0  0  3  0  0  0  0  0  0
  185.2450  177.6610  141.1520 C   0  0  0  0  0  3  0  0  0  0  0  0
  186.0770  177.2790  140.0960 C   0  0  0  0  0  0  0  0  0  0  0  0
  187.4130  176.9530  140.3440 C   0  0  0  0  0  3  0  0  0  0  0  0
  183.6570  178.4110  143.3700 O   0  0  0  0  0  0  0  0  0  0  0  0
  187.9130  176.9940  141.6470 C   0  0  0  0  0  3  0  0  0  0  0  0
  187.0850  177.3680  142.7160 C   0  0  0  0  0  0  0  0  0  0  0  0
  192.6880  176.3750  147.6570 C   0  0  0  0  0  2  0  0  0  0  0  0
  191.7740  176.5170  144.8850 C   0  0  0  0  0  3  0  0  0  0  0  0
  195.1350  175.4520  145.1140 C   0  0  0  0  0  0  0  0  0  0  0  0
  194.7840  175.5000  146.4070 C   0  0  0  0  0  3  0  0  0  0  0  0
  193.4070  175.8520  146.5020 N   0  0  0  0  0  0  0  0  0  0  0  0
  194.0440  175.8220  144.2590 N   0  0  0  0  0  0  0  0  0  0  0  0
  192.9920  176.0690  145.1730 C   0  0  0  0  0  0  0  0  0  0  0  0
  193.9210  175.6080  142.8260 C   0  0  0  0  0  1  0  0  0  0  0  0
  190.8330  176.7810  146.0030 C   0  0  0  0  0  0  0  0  0  0  0  0
  191.2540  176.6830  147.2840 C   0  0  0  0  0  3  0  0  0  0  0  0
  196.4850  175.1040  144.6420 C   0  0  0  0  0  0  0  0  0  0  0  0
  197.1400  173.9860  145.1410 O   0  0  0  0  0  1  0  0  0  0  0  0
  197.0580  175.8180  143.7760 O   0  0  0  0  0  0  0  0  0  0  0  0
  185.5510  177.2590  138.7040 C   0  0  0  0  0  2  0  0  0  0  0  0
  186.4380  176.5710  137.8760 O   0  0  0  0  0  0  0  0  0  0  0  0
  185.6340  176.0330  136.8720 C   0  0  0  0  0  1  0  0  0  0  0  0
  1  9  1  0  0  0  0
  2 18  1  0  0  0  0
  2  3  1  0  0  0  0
  3 10  1  0  0  0  0
  5  1  2  0  0  0  0
  5 11  1  0  0  0  0
  6  4  1  0  0  0  0
  6  8  1  0  0  0  0
  7  8  2  0  0  0  0
  9 27  1  0  0  0  0
  9  4  2  0  0  0  0
 10 11  1  0  0  0  0
 10 12  2  0  0  0  0
 11  6  2  0  0  0  0
 12  7  1  0  0  0  0
 13  2  2  0  0  0  0
 14 15  2  0  0  0  0
 14 13  1  0  0  0  0
 15 17  1  0  0  0  0
 16  3  2  0  0  0  0
 17 18  2  0  0  0  0
 18  5  1  0  0  0  0
 20 25  2  0  0  0  0
 20 27  1  0  0  0  0
 21 22  2  0  0  0  0
 22 23  1  0  0  0  0
 23 19  1  0  0  0  0
 24 21  1  0  0  0  0
 24 25  1  0  0  0  0
 25 23  1  0  0  0  0
 26 24  1  0  0  0  0
 27 28  2  0  0  0  0
 28 19  1  0  0  0  0
 29 21  1  0  0  0  0
 29 30  1  0  0  0  0
 31 29  2  0  0  0  0
 32 14  1  0  0  0  0
 33 32  1  0  0  0  0
 34 33  1  0  0  0  0
M  END
>  <MODEL>
3

>  <REMARK>
 VINA RESULT:      -8.2      1.942      2.888
  Name = 
  4 active torsions:
  status: ('A' for Active; 'I' for Inactive)
    1  A    between atoms: C_3  and  O_13
    2  A    between atoms: C_3  and  C_25
    3  A    between atoms: C_7  and  C_11
    4  A    between atoms: C_18  and  C_30
                            x       y       z     vdW  Elec       q    Type
                         _______ _______ _______ _____ _____    ______ ____

>  <TORSDO>
F 4

$$$$
=
 OpenBabel11052420313D

 34 39  0  0  0  0  0  0  0  0999 V2000
  188.0610  177.1700  143.3450 C   0  0  0  0  0  3  0  0  0  0  0  0
  184.4690  178.3430  143.5780 C   0  0  0  0  0  0  0  0  0  0  0  0
  184.3980  178.6110  145.0280 C   0  0  0  0  0  0  0  0  0  0  0  0
  189.0720  177.2160  145.5070 N   0  0  0  0  0  0  0  0  0  0  0  0
  186.8560  177.6410  143.8840 C   0  0  0  0  0  0  0  0  0  0  0  0
  187.9230  177.6740  146.0690 C   0  0  0  0  0  0  0  0  0  0  0  0
  186.6930  178.3940  148.0270 C   0  0  0  0  0  3  0  0  0  0  0  0
  187.8720  177.9230  147.4430 C   0  0  0  0  0  3  0  0  0  0  0  0
  189.1730  176.9580  144.1730 C   0  0  0  0  0  0  0  0  0  0  0  0
  185.5940  178.3750  145.8610 C   0  0  0  0  0  0  0  0  0  0  0  0
  186.7820  177.8990  145.2680 C   0  0  0  0  0  0  0  0  0  0  0  0
  185.5610  178.6190  147.2410 C   0  0  0  0  0  3  0  0  0  0  0  0
  183.3530  178.5570  142.7590 C   0  0  0  0  0  3  0  0  0  0  0  0
  183.4230  178.2980  141.3880 C   0  0  0  0  0  0  0  0  0  0  0  0
  184.6160  177.8360  140.8250 C   0  0  0  0  0  3  0  0  0  0  0  0
  183.3300  179.0370  145.5470 O   0  0  0  0  0  0  0  0  0  0  0  0
  185.7330  177.6200  141.6350 C   0  0  0  0  0  3  0  0  0  0  0  0
  185.6720  177.8680  143.0140 C   0  0  0  0  0  0  0  0  0  0  0  0
  192.9700  176.4330  143.5790 C   0  0  0  0  0  2  0  0  0  0  0  0
  190.4250  175.4810  142.5020 C   0  0  0  0  0  3  0  0  0  0  0  0
  193.1830  173.8580  141.0040 C   0  0  0  0  0  0  0  0  0  0  0  0
  193.7880  174.5900  141.9490 C   0  0  0  0  0  3  0  0  0  0  0  0
  192.7980  175.2720  142.7150 N   0  0  0  0  0  0  0  0  0  0  0  0
  191.7600  174.0400  141.0290 N   0  0  0  0  0  0  0  0  0  0  0  0
  191.5710  174.9360  142.1080 C   0  0  0  0  0  0  0  0  0  0  0  0
  190.7430  173.2190  140.3910 C   0  0  0  0  0  1  0  0  0  0  0  0
  190.4510  176.4600  143.6190 C   0  0  0  0  0  0  0  0  0  0  0  0
  191.6320  176.8720  144.1340 C   0  0  0  0  0  3  0  0  0  0  0  0
  193.8990  173.0100  140.0360 C   0  0  0  0  0  0  0  0  0  0  0  0
  193.9630  171.6350  140.2170 O   0  0  0  0  0  1  0  0  0  0  0  0
  194.4570  173.5270  139.0320 O   0  0  0  0  0  0  0  0  0  0  0  0
  182.2400  178.5520  140.5200 C   0  0  0  0  0  2  0  0  0  0  0  0
  181.1070  178.7360  141.3110 O   0  0  0  0  0  0  0  0  0  0  0  0
  180.3610  179.7000  140.6330 C   0  0  0  0  0  1  0  0  0  0  0  0
  1  5  2  0  0  0  0
  1  9  1  0  0  0  0
  2  3  1  0  0  0  0
  3 16  2  0  0  0  0
  3 10  1  0  0  0  0
  4  6  1  0  0  0  0
  5 11  1  0  0  0  0
  6  8  1  0  0  0  0
  8  7  2  0  0  0  0
  9  4  2  0  0  0  0
 10 12  2  0  0  0  0
 11 10  1  0  0  0  0
 11  6  2  0  0  0  0
 12  7  1  0  0  0  0
 13  2  2  0  0  0  0
 14 13  1  0  0  0  0
 15 14  2  0  0  0  0
 15 17  1  0  0  0  0
 17 18  2  0  0  0  0
 18  2  1  0  0  0  0
 18  5  1  0  0  0  0
 19 28  1  0  0  0  0
 20 27  1  0  0  0  0
 21 24  1  0  0  0  0
 21 22  2  0  0  0  0
 22 23  1  0  0  0  0
 23 19  1  0  0  0  0
 24 25  1  0  0  0  0
 25 20  2  0  0  0  0
 25 23  1  0  0  0  0
 26 24  1  0  0  0  0
 27 28  2  0  0  0  0
 27  9  1  0  0  0  0
 29 30  1  0  0  0  0
 29 21  1  0  0  0  0
 31 29  2  0  0  0  0
 32 33  1  0  0  0  0
 32 14  1  0  0  0  0
 34 33  1  0  0  0  0
M  END
>  <MODEL>
4

>  <REMARK>
 VINA RESULT:      -7.9      1.810      2.672
  Name = 
  4 active torsions:
  status: ('A' for Active; 'I' for Inactive)
    1  A    between atoms: C_3  and  O_13
    2  A    between atoms: C_3  and  C_25
    3  A    between atoms: C_7  and  C_11
    4  A    between atoms: C_18  and  C_30
                            x       y       z     vdW  Elec       q    Type
                         _______ _______ _______ _____ _____    ______ ____

>  <TORSDO>
F 4

$$$$
=
 OpenBabel11052420313D

 34 39  0  0  0  0  0  0  0  0999 V2000
  188.8880  176.1470  142.3730 C   0  0  0  0  0  3  0  0  0  0  0  0
  185.4980  177.6090  143.2080 C   0  0  0  0  0  0  0  0  0  0  0  0
  185.5380  177.4830  144.6780 C   0  0  0  0  0  0  0  0  0  0  0  0
  190.0080  175.4960  144.3780 N   0  0  0  0  0  0  0  0  0  0  0  0
  187.7860  176.5880  143.1170 C   0  0  0  0  0  0  0  0  0  0  0  0
  188.9590  175.9110  145.1360 C   0  0  0  0  0  0  0  0  0  0  0  0
  187.9380  176.2100  147.3110 C   0  0  0  0  0  3  0  0  0  0  0  0
  189.0130  175.7840  146.5260 C   0  0  0  0  0  3  0  0  0  0  0  0
  190.0060  175.5970  143.0200 C   0  0  0  0  0  0  0  0  0  0  0  0
  186.7340  176.8980  145.3160 C   0  0  0  0  0  0  0  0  0  0  0  0
  187.8180  176.4700  144.5200 C   0  0  0  0  0  0  0  0  0  0  0  0
  186.8060  176.7630  146.7100 C   0  0  0  0  0  3  0  0  0  0  0  0
  184.3780  178.1600  142.5710 C   0  0  0  0  0  3  0  0  0  0  0  0
  184.3420  178.2740  141.1790 C   0  0  0  0  0  0  0  0  0  0  0  0
  185.4340  177.8500  140.4160 C   0  0  0  0  0  3  0  0  0  0  0  0
  184.5630  177.8700  145.3800 O   0  0  0  0  0  0  0  0  0  0  0  0
  186.5540  177.3000  141.0430 C   0  0  0  0  0  3  0  0  0  0  0  0
  186.5980  177.1720  142.4400 C   0  0  0  0  0  0  0  0  0  0  0  0
  192.1730  173.8010  140.3520 C   0  0  0  0  0  2  0  0  0  0  0  0
  192.5390  175.5370  142.6750 C   0  0  0  0  0  3  0  0  0  0  0  0
  195.5970  174.8510  141.0440 C   0  0  0  0  0  0  0  0  0  0  0  0
  194.7200  174.2700  140.2150 C   0  0  0  0  0  3  0  0  0  0  0  0
  193.3990  174.5140  140.6900 N   0  0  0  0  0  0  0  0  0  0  0  0
  194.9380  175.4710  142.1580 N   0  0  0  0  0  0  0  0  0  0  0  0
  193.5690  175.2260  141.8950 C   0  0  0  0  0  0  0  0  0  0  0  0
  195.4850  176.4410  143.0930 C   0  0  0  0  0  1  0  0  0  0  0  0
  191.1770  175.1270  142.2480 C   0  0  0  0  0  0  0  0  0  0  0  0
  191.0120  174.3490  141.1540 C   0  0  0  0  0  3  0  0  0  0  0  0
  197.0570  174.8160  140.8530 C   0  0  0  0  0  0  0  0  0  0  0  0
  197.6510  175.5450  139.8320 O   0  0  0  0  0  0  0  0  0  0  0  0
  197.7800  174.1240  141.6180 O   0  0  0  0  0  1  0  0  0  0  0  0
  183.1600  178.8830  140.5120 C   0  0  0  0  0  2  0  0  0  0  0  0
  182.2380  177.8880  140.1880 O   0  0  0  0  0  0  0  0  0  0  0  0
  181.0100  178.3980  140.6100 C   0  0  0  0  0  1  0  0  0  0  0  0
  1  9  2  0  0  0  0
  1  5  1  0  0  0  0
  2  3  1  0  0  0  0
  3 10  1  0  0  0  0
  3 16  2  0  0  0  0
  4  6  2  0  0  0  0
  5 11  2  0  0  0  0
  6  8  1  0  0  0  0
  8  7  2  0  0  0  0
  9  4  1  0  0  0  0
 10 12  2  0  0  0  0
 11  6  1  0  0  0  0
 11 10  1  0  0  0  0
 12  7  1  0  0  0  0
 13  2  1  0  0  0  0
 14 13  2  0  0  0  0
 15 17  2  0  0  0  0
 15 14  1  0  0  0  0
 17 18  1  0  0  0  0
 18  5  1  0  0  0  0
 18  2  2  0  0  0  0
 19 23  1  0  0  0  0
 19 28  1  0  0  0  0
 21 24  1  0  0  0  0
 22 23  1  0  0  0  0
 22 21  2  0  0  0  0
 23 25  1  0  0  0  0
 24 26  1  0  0  0  0
 25 24  1  0  0  0  0
 25 20  2  0  0  0  0
 27 20  1  0  0  0  0
 27  9  1  0  0  0  0
 28 27  2  0  0  0  0
 29 21  1  0  0  0  0
 29 31  1  0  0  0  0
 30 29  2  0  0  0  0
 32 14  1  0  0  0  0
 33 32  1  0  0  0  0
 33 34  1  0  0  0  0
M  END
>  <MODEL>
5

>  <REMARK>
 VINA RESULT:      -7.8      1.717      2.138
  Name = 
  4 active torsions:
  status: ('A' for Active; 'I' for Inactive)
    1  A    between atoms: C_3  and  O_13
    2  A    between atoms: C_3  and  C_25
    3  A    between atoms: C_7  and  C_11
    4  A    between atoms: C_18  and  C_30
                            x       y       z     vdW  Elec       q    Type
                         _______ _______ _______ _____ _____    ______ ____

>  <TORSDO>
F 4

$$$$
=
 OpenBabel11052420313D

 34 39  0  0  0  0  0  0  0  0999 V2000
  189.5240  174.4120  142.8260 C   0  0  0  0  0  3  0  0  0  0  0  0
  188.4960  177.1330  145.2490 C   0  0  0  0  0  0  0  0  0  0  0  0
  189.5990  177.0170  146.2220 C   0  0  0  0  0  0  0  0  0  0  0  0
  191.5450  173.3840  143.5700 N   0  0  0  0  0  0  0  0  0  0  0  0
  189.5380  175.2700  143.9340 C   0  0  0  0  0  0  0  0  0  0  0  0
  191.5960  174.1970  144.6580 C   0  0  0  0  0  0  0  0  0  0  0  0
  192.7050  174.9080  146.6900 C   0  0  0  0  0  3  0  0  0  0  0  0
  192.6470  174.0740  145.5700 C   0  0  0  0  0  3  0  0  0  0  0  0
  190.5430  173.4630  142.6520 C   0  0  0  0  0  0  0  0  0  0  0  0
  190.6500  176.0040  145.9990 C   0  0  0  0  0  0  0  0  0  0  0  0
  190.5880  175.1640  144.8670 C   0  0  0  0  0  0  0  0  0  0  0  0
  191.7120  175.8670  146.9030 C   0  0  0  0  0  3  0  0  0  0  0  0
  187.4830  178.0840  145.4310 C   0  0  0  0  0  3  0  0  0  0  0  0
  186.4380  178.1880  144.5090 C   0  0  0  0  0  0  0  0  0  0  0  0
  186.4070  177.3500  143.3920 C   0  0  0  0  0  3  0  0  0  0  0  0
  189.6440  177.7740  147.2310 O   0  0  0  0  0  0  0  0  0  0  0  0
  187.4130  176.3990  143.2030 C   0  0  0  0  0  3  0  0  0  0  0  0
  188.4630  176.2800  144.1260 C   0  0  0  0  0  0  0  0  0  0  0  0
  190.6750  170.2320  140.5110 C   0  0  0  0  0  2  0  0  0  0  0  0
  190.4240  173.1170  140.1210 C   0  0  0  0  0  3  0  0  0  0  0  0
  190.1630  171.3450  137.0760 C   0  0  0  0  0  0  0  0  0  0  0  0
  190.2150  170.3410  137.9620 C   0  0  0  0  0  3  0  0  0  0  0  0
  190.2520  170.8850  139.2790 N   0  0  0  0  0  0  0  0  0  0  0  0
  190.2200  172.6230  137.7250 N   0  0  0  0  0  0  0  0  0  0  0  0
  190.2820  172.2820  139.0970 C   0  0  0  0  0  0  0  0  0  0  0  0
  189.8900  173.9250  137.1660 C   0  0  0  0  0  1  0  0  0  0  0  0
  190.5410  172.5500  141.4890 C   0  0  0  0  0  0  0  0  0  0  0  0
  190.6250  171.2110  141.6640 C   0  0  0  0  0  3  0  0  0  0  0  0
  190.0990  171.1520  135.6180 C   0  0  0  0  0  0  0  0  0  0  0  0
  191.1520  170.5510  134.9410 O   0  0  0  0  0  0  0  0  0  0  0  0
  189.0850  171.5260  134.9720 O   0  0  0  0  0  1  0  0  0  0  0  0
  185.3790  179.2170  144.6960 C   0  0  0  0  0  2  0  0  0  0  0  0
  184.1440  178.5950  144.8710 O   0  0  0  0  0  0  0  0  0  0  0  0
  184.0220  178.4410  146.2520 C   0  0  0  0  0  1  0  0  0  0  0  0
  1  5  1  0  0  0  0
  2 13  1  0  0  0  0
  2  3  1  0  0  0  0
  3 16  2  0  0  0  0
  4  6  2  0  0  0  0
  5 18  1  0  0  0  0
  5 11  2  0  0  0  0
  6 11  1  0  0  0  0
  6  8  1  0  0  0  0
  7 12  1  0  0  0  0
  8  7  2  0  0  0  0
  9  1  2  0  0  0  0
  9  4  1  0  0  0  0
 10  3  1  0  0  0  0
 10 12  2  0  0  0  0
 11 10  1  0  0  0  0
 14 32  1  0  0  0  0
 14 13  2  0  0  0  0
 15 14  1  0  0  0  0
 17 15  2  0  0  0  0
 17 18  1  0  0  0  0
 18  2  2  0  0  0  0
 19 28  1  0  0  0  0
 20 27  1  0  0  0  0
 21 24  1  0  0  0  0
 21 22  2  0  0  0  0
 22 23  1  0  0  0  0
 23 19  1  0  0  0  0
 24 25  1  0  0  0  0
 25 23  1  0  0  0  0
 25 20  2  0  0  0  0
 26 24  1  0  0  0  0
 27 28  2  0  0  0  0
 27  9  1  0  0  0  0
 29 21  1  0  0  0  0
 30 29  2  0  0  0  0
 31 29  1  0  0  0  0
 32 33  1  0  0  0  0
 33 34  1  0  0  0  0
M  END
>  <MODEL>
6

>  <REMARK>
 VINA RESULT:      -7.5      4.701      6.659
  Name = 
  4 active torsions:
  status: ('A' for Active; 'I' for Inactive)
    1  A    between atoms: C_3  and  O_13
    2  A    between atoms: C_3  and  C_25
    3  A    between atoms: C_7  and  C_11
    4  A    between atoms: C_18  and  C_30
                            x       y       z     vdW  Elec       q    Type
                         _______ _______ _______ _____ _____    ______ ____

>  <TORSDO>
F 4

$$$$
=
 OpenBabel11052420313D

 34 39  0  0  0  0  0  0  0  0999 V2000
  190.4910  176.8360  143.1880 C   0  0  0  0  0  3  0  0  0  0  0  0
  194.0680  176.1190  144.1970 C   0  0  0  0  0  0  0  0  0  0  0  0
  193.9210  176.1790  145.6640 C   0  0  0  0  0  0  0  0  0  0  0  0
  189.1460  177.1520  145.1340 N   0  0  0  0  0  0  0  0  0  0  0  0
  191.6210  176.6200  143.9880 C   0  0  0  0  0  0  0  0  0  0  0  0
  190.2170  176.9480  145.9460 C   0  0  0  0  0  0  0  0  0  0  0  0
  191.1570  176.7990  148.1720 C   0  0  0  0  0  3  0  0  0  0  0  0
  190.0600  177.0080  147.3320 C   0  0  0  0  0  3  0  0  0  0  0  0
  189.2460  177.1050  143.7770 C   0  0  0  0  0  0  0  0  0  0  0  0
  192.5920  176.4640  146.2400 C   0  0  0  0  0  0  0  0  0  0  0  0
  191.4860  176.6750  145.3890 C   0  0  0  0  0  0  0  0  0  0  0  0
  192.4150  176.5290  147.6300 C   0  0  0  0  0  3  0  0  0  0  0  0
  195.3160  175.8510  143.6170 C   0  0  0  0  0  3  0  0  0  0  0  0
  195.4530  175.7990  142.2280 C   0  0  0  0  0  0  0  0  0  0  0  0
  194.3390  176.0020  141.4090 C   0  0  0  0  0  3  0  0  0  0  0  0
  194.9160  175.9880  146.4150 O   0  0  0  0  0  0  0  0  0  0  0  0
  193.0920  176.2710  141.9780 C   0  0  0  0  0  3  0  0  0  0  0  0
  192.9440  176.3340  143.3720 C   0  0  0  0  0  0  0  0  0  0  0  0
  186.8720  177.3000  140.7160 C   0  0  0  0  0  2  0  0  0  0  0  0
  186.8160  177.8750  143.5810 C   0  0  0  0  0  3  0  0  0  0  0  0
  183.6640  178.3890  142.0680 C   0  0  0  0  0  0  0  0  0  0  0  0
  184.3660  177.8740  141.0490 C   0  0  0  0  0  3  0  0  0  0  0  0
  185.6710  177.5340  141.5080 N   0  0  0  0  0  0  0  0  0  0  0  0
  184.4590  178.4850  143.2590 N   0  0  0  0  0  0  0  0  0  0  0  0
  185.7040  177.9460  142.8560 C   0  0  0  0  0  0  0  0  0  0  0  0
  184.0020  178.6950  144.6230 C   0  0  0  0  0  1  0  0  0  0  0  0
  188.0450  177.3360  142.9450 C   0  0  0  0  0  0  0  0  0  0  0  0
  188.0550  177.0420  141.6250 C   0  0  0  0  0  3  0  0  0  0  0  0
  182.2660  178.8390  141.9600 C   0  0  0  0  0  0  0  0  0  0  0  0
  181.6210  178.8400  140.7300 O   0  0  0  0  0  0  0  0  0  0  0  0
  181.6420  179.2230  142.9840 O   0  0  0  0  0  1  0  0  0  0  0  0
  196.7760  175.4890  141.6210 C   0  0  0  0  0  2  0  0  0  0  0  0
  196.7030  175.6310  140.2350 O   0  0  0  0  0  0  0  0  0  0  0  0
  197.9410  175.1870  139.7730 C   0  0  0  0  0  1  0  0  0  0  0  0
  1  9  2  0  0  0  0
  1  5  1  0  0  0  0
  2  3  1  0  0  0  0
  3 10  1  0  0  0  0
  3 16  2  0  0  0  0
  4  6  2  0  0  0  0
  5 11  2  0  0  0  0
  6  8  1  0  0  0  0
  8  7  2  0  0  0  0
  9  4  1  0  0  0  0
 10 12  2  0  0  0  0
 11  6  1  0  0  0  0
 11 10  1  0  0  0  0
 12  7  1  0  0  0  0
 13  2  1  0  0  0  0
 14 13  2  0  0  0  0
 15 17  2  0  0  0  0
 15 14  1  0  0  0  0
 17 18  1  0  0  0  0
 18  5  1  0  0  0  0
 18  2  2  0  0  0  0
 19 23  1  0  0  0  0
 19 28  1  0  0  0  0
 21 24  1  0  0  0  0
 22 23  1  0  0  0  0
 22 21  2  0  0  0  0
 23 25  1  0  0  0  0
 24 26  1  0  0  0  0
 25 24  1  0  0  0  0
 25 20  2  0  0  0  0
 27 20  1  0  0  0  0
 27  9  1  0  0  0  0
 28 27  2  0  0  0  0
 29 21  1  0  0  0  0
 29 31  1  0  0  0  0
 30 29  2  0  0  0  0
 32 14  1  0  0  0  0
 33 32  1  0  0  0  0
 34 33  1  0  0  0  0
M  END
>  <MODEL>
7

>  <REMARK>
 VINA RESULT:      -7.5      2.182      9.706
  Name = 
  4 active torsions:
  status: ('A' for Active; 'I' for Inactive)
    1  A    between atoms: C_3  and  O_13
    2  A    between atoms: C_3  and  C_25
    3  A    between atoms: C_7  and  C_11
    4  A    between atoms: C_18  and  C_30
                            x       y       z     vdW  Elec       q    Type
                         _______ _______ _______ _____ _____    ______ ____

>  <TORSDO>
F 4

$$$$
=
 OpenBabel11052420313D

 34 39  0  0  0  0  0  0  0  0999 V2000
  187.9030  176.3730  142.5610 C   0  0  0  0  0  3  0  0  0  0  0  0
  188.2460  177.3570  146.2000 C   0  0  0  0  0  0  0  0  0  0  0  0
  186.9670  178.0730  146.3770 C   0  0  0  0  0  0  0  0  0  0  0  0
  185.8250  177.1700  141.6960 N   0  0  0  0  0  0  0  0  0  0  0  0
  187.6080  176.9260  143.8140 C   0  0  0  0  0  0  0  0  0  0  0  0
  185.5010  177.7200  142.8960 C   0  0  0  0  0  0  0  0  0  0  0  0
  183.9470  178.9610  144.2780 C   0  0  0  0  0  3  0  0  0  0  0  0
  184.2870  178.3940  143.0470 C   0  0  0  0  0  3  0  0  0  0  0  0
  186.9960  176.5030  141.4980 C   0  0  0  0  0  0  0  0  0  0  0  0
  186.0430  178.1840  145.2310 C   0  0  0  0  0  0  0  0  0  0  0  0
  186.3890  177.6100  143.9890 C   0  0  0  0  0  0  0  0  0  0  0  0
  184.8200  178.8570  145.3630 C   0  0  0  0  0  3  0  0  0  0  0  0
  189.1460  177.2330  147.2670 C   0  0  0  0  0  3  0  0  0  0  0  0
  190.3570  176.5590  147.0950 C   0  0  0  0  0  0  0  0  0  0  0  0
  190.6700  175.9920  145.8560 C   0  0  0  0  0  3  0  0  0  0  0  0
  186.6690  178.5820  147.4920 O   0  0  0  0  0  0  0  0  0  0  0  0
  189.7790  176.1110  144.7870 C   0  0  0  0  0  3  0  0  0  0  0  0
  188.5630  176.7930  144.9460 C   0  0  0  0  0  0  0  0  0  0  0  0
  187.0320  175.9230  137.6630 C   0  0  0  0  0  2  0  0  0  0  0  0
  188.1630  174.7250  140.0770 C   0  0  0  0  0  3  0  0  0  0  0  0
  189.3210  173.1310  137.1440 C   0  0  0  0  0  0  0  0  0  0  0  0
  188.6150  174.1480  136.6310 C   0  0  0  0  0  3  0  0  0  0  0  0
  188.1220  174.9560  137.6960 N   0  0  0  0  0  0  0  0  0  0  0  0
  189.3040  173.1500  138.5780 N   0  0  0  0  0  0  0  0  0  0  0  0
  188.5370  174.3020  138.8740 C   0  0  0  0  0  0  0  0  0  0  0  0
  190.1740  172.4260  139.4920 C   0  0  0  0  0  1  0  0  0  0  0  0
  187.2940  175.9260  140.1690 C   0  0  0  0  0  0  0  0  0  0  0  0
  186.7990  176.4940  139.0460 C   0  0  0  0  0  3  0  0  0  0  0  0
  189.9910  172.1030  136.3310 C   0  0  0  0  0  0  0  0  0  0  0  0
  191.3690  172.1240  136.1640 O   0  0  0  0  0  1  0  0  0  0  0  0
  189.3180  171.1910  135.7810 O   0  0  0  0  0  0  0  0  0  0  0  0
  191.2960  176.4100  148.2400 C   0  0  0  0  0  2  0  0  0  0  0  0
  191.9490  177.6200  148.4740 O   0  0  0  0  0  0  0  0  0  0  0  0
  191.5140  178.0120  149.7390 C   0  0  0  0  0  1  0  0  0  0  0  0
  1  5  1  0  0  0  0
  2  3  1  0  0  0  0
  2 13  1  0  0  0  0
  3 16  2  0  0  0  0
  4  6  2  0  0  0  0
  5 11  2  0  0  0  0
  5 18  1  0  0  0  0
  6  8  1  0  0  0  0
  6 11  1  0  0  0  0
  7 12  1  0  0  0  0
  8  7  2  0  0  0  0
  9  4  1  0  0  0  0
  9  1  2  0  0  0  0
 10 12  2  0  0  0  0
 10  3  1  0  0  0  0
 11 10  1  0  0  0  0
 14 13  2  0  0  0  0
 14 32  1  0  0  0  0
 15 14  1  0  0  0  0
 17 18  1  0  0  0  0
 17 15  2  0  0  0  0
 18  2  2  0  0  0  0
 19 23  1  0  0  0  0
 19 28  1  0  0  0  0
 20 27  1  0  0  0  0
 21 24  1  0  0  0  0
 22 21  2  0  0  0  0
 22 23  1  0  0  0  0
 23 25  1  0  0  0  0
 24 25  1  0  0  0  0
 24 26  1  0  0  0  0
 25 20  2  0  0  0  0
 27  9  1  0  0  0  0
 28 27  2  0  0  0  0
 29 21  1  0  0  0  0
 30 29  1  0  0  0  0
 31 29  2  0  0  0  0
 32 33  1  0  0  0  0
 33 34  1  0  0  0  0
M  END
>  <MODEL>
8

>  <REMARK>
 VINA RESULT:      -7.4      4.525      7.342
  Name = 
  4 active torsions:
  status: ('A' for Active; 'I' for Inactive)
    1  A    between atoms: C_3  and  O_13
    2  A    between atoms: C_3  and  C_25
    3  A    between atoms: C_7  and  C_11
    4  A    between atoms: C_18  and  C_30
                            x       y       z     vdW  Elec       q    Type
                         _______ _______ _______ _____ _____    ______ ____

>  <TORSDO>
F 4

$$$$
=
 OpenBabel11052420313D

 34 39  0  0  0  0  0  0  0  0999 V2000
  190.8770  175.3450  143.0420 C   0  0  0  0  0  3  0  0  0  0  0  0
  189.5270  176.7260  146.2970 C   0  0  0  0  0  0  0  0  0  0  0  0
  190.7850  176.8090  147.0640 C   0  0  0  0  0  0  0  0  0  0  0  0
  193.2390  175.0390  143.2070 N   0  0  0  0  0  0  0  0  0  0  0  0
  190.8340  175.8250  144.3570 C   0  0  0  0  0  0  0  0  0  0  0  0
  193.2400  175.5000  144.4860 C   0  0  0  0  0  0  0  0  0  0  0  0
  194.4490  176.0440  146.5120 C   0  0  0  0  0  3  0  0  0  0  0  0
  194.4400  175.5710  145.1970 C   0  0  0  0  0  3  0  0  0  0  0  0
  192.0960  174.9500  142.4710 C   0  0  0  0  0  0  0  0  0  0  0  0
  192.0450  176.3830  146.4220 C   0  0  0  0  0  0  0  0  0  0  0  0
  192.0330  175.9060  145.0940 C   0  0  0  0  0  0  0  0  0  0  0  0
  193.2590  176.4470  147.1210 C   0  0  0  0  0  3  0  0  0  0  0  0
  188.3130  177.1220  146.8760 C   0  0  0  0  0  3  0  0  0  0  0  0
  187.1230  177.0390  146.1490 C   0  0  0  0  0  0  0  0  0  0  0  0
  187.1420  176.5720  144.8320 C   0  0  0  0  0  3  0  0  0  0  0  0
  190.7840  177.2370  148.2500 O   0  0  0  0  0  0  0  0  0  0  0  0
  188.3470  176.1740  144.2480 C   0  0  0  0  0  3  0  0  0  0  0  0
  189.5470  176.2460  144.9710 C   0  0  0  0  0  0  0  0  0  0  0  0
  193.4240  174.0260  138.9460 C   0  0  0  0  0  2  0  0  0  0  0  0
  190.9380  173.8500  140.4740 C   0  0  0  0  0  3  0  0  0  0  0  0
  190.6500  172.3200  137.3010 C   0  0  0  0  0  0  0  0  0  0  0  0
  191.9520  172.6360  137.3250 C   0  0  0  0  0  3  0  0  0  0  0  0
  192.2680  173.2120  138.5900 N   0  0  0  0  0  0  0  0  0  0  0  0
  189.9920  172.7110  138.5150 N   0  0  0  0  0  0  0  0  0  0  0  0
  191.0420  173.2690  139.2830 C   0  0  0  0  0  0  0  0  0  0  0  0
  188.6890  172.2860  139.0010 C   0  0  0  0  0  1  0  0  0  0  0  0
  192.1570  174.4400  141.0840 C   0  0  0  0  0  0  0  0  0  0  0  0
  193.3130  174.4900  140.3820 C   0  0  0  0  0  3  0  0  0  0  0  0
  189.9780  171.6910  136.1520 C   0  0  0  0  0  0  0  0  0  0  0  0
  189.3150  172.4690  135.2120 O   0  0  0  0  0  0  0  0  0  0  0  0
  190.0020  170.4400  136.0110 O   0  0  0  0  0  1  0  0  0  0  0  0
  185.8430  177.4850  146.7630 C   0  0  0  0  0  2  0  0  0  0  0  0
  184.8490  177.5460  145.7860 O   0  0  0  0  0  0  0  0  0  0  0  0
  184.0900  178.6640  146.1290 C   0  0  0  0  0  1  0  0  0  0  0  0
  1  5  1  0  0  0  0
  2 13  1  0  0  0  0
  2  3  1  0  0  0  0
  3 16  2  0  0  0  0
  4  6  2  0  0  0  0
  5 18  1  0  0  0  0
  5 11  2  0  0  0  0
  6 11  1  0  0  0  0
  6  8  1  0  0  0  0
  7 12  1  0  0  0  0
  8  7  2  0  0  0  0
  9  1  2  0  0  0  0
  9  4  1  0  0  0  0
 10  3  1  0  0  0  0
 10 12  2  0  0  0  0
 11 10  1  0  0  0  0
 14 32  1  0  0  0  0
 14 13  2  0  0  0  0
 15 14  1  0  0  0  0
 17 15  2  0  0  0  0
 17 18  1  0  0  0  0
 18  2  2  0  0  0  0
 19 28  1  0  0  0  0
 20 27  1  0  0  0  0
 21 22  2  0  0  0  0
 21 24  1  0  0  0  0
 22 23  1  0  0  0  0
 23 19  1  0  0  0  0
 23 25  1  0  0  0  0
 24 26  1  0  0  0  0
 24 25  1  0  0  0  0
 25 20  2  0  0  0  0
 27  9  1  0  0  0  0
 28 27  2  0  0  0  0
 29 21  1  0  0  0  0
 30 29  2  0  0  0  0
 31 29  1  0  0  0  0
 33 34  1  0  0  0  0
 33 32  1  0  0  0  0
M  END
>  <MODEL>
9

>  <REMARK>
 VINA RESULT:      -7.4      4.263      6.860
  Name = 
  4 active torsions:
  status: ('A' for Active; 'I' for Inactive)
    1  A    between atoms: C_3  and  O_13
    2  A    between atoms: C_3  and  C_25
    3  A    between atoms: C_7  and  C_11
    4  A    between atoms: C_18  and  C_30
                            x       y       z     vdW  Elec       q    Type
                         _______ _______ _______ _____ _____    ______ ____

>  <TORSDO>
F 4

$$$$
