=
 OpenBabel11052420123D

 37 39  0  0  1  0  0  0  0  0999 V2000
  189.3600  176.7890  145.7700 C   0  0  0  0  0  2  0  0  0  0  0  0
  189.7680  175.6080  146.6440 C   0  0  1  0  0  3  0  0  0  0  0  0
  193.4320  175.1480  143.4450 C   0  0  1  0  0  3  0  0  0  0  0  0
  193.0730  173.9460  142.5710 C   0  0  0  0  0  2  0  0  0  0  0  0
  189.5800  174.9140  141.5420 C   0  0  2  0  0  3  0  0  0  0  0  0
  192.6100  174.6280  145.7560 C   0  0  0  0  0  2  0  0  0  0  0  0
  191.3620  174.9470  148.3220 O   0  0  0  0  0  1  0  0  0  0  0  0
  190.3270  176.9330  142.7830 C   0  0  0  0  0  1  0  0  0  0  0  0
  190.6440  173.9910  142.1370 C   0  0  0  0  0  2  0  0  0  0  0  0
  191.0940  175.9040  147.3400 C   0  0  1  0  0  3  0  0  0  0  0  0
  189.1110  176.0400  142.4940 C   0  0  2  0  0  0  0  0  0  0  0  0
  188.7730  175.3740  147.5960 O   0  0  0  0  0  1  0  0  0  0  0  0
  192.2570  175.9840  146.3510 C   0  0  0  0  0  2  0  0  0  0  0  0
  188.5980  175.4190  143.8040 C   0  0  0  0  0  2  0  0  0  0  0  0
  192.0040  174.3340  141.5680 C   0  0  0  0  0  2  0  0  0  0  0  0
  193.8400  174.7750  144.8750 C   0  0  1  0  0  3  0  0  0  0  0  0
  188.1860  176.4320  144.8700 C   0  0  0  0  0  2  0  0  0  0  0  0
  188.3660  178.0390  141.2970 O   0  0  0  0  0  0  0  0  0  0  0  0
  187.5680  178.0780  142.4580 C   0  0  2  0  0  3  0  0  0  0  0  0
  187.9450  176.7970  141.8090 C   0  0  2  0  0  3  0  0  0  0  0  0
  186.1500  178.4400  142.0730 C   0  0  0  0  0  2  0  0  0  0  0  0
  185.4830  180.3230  144.0920 O   0  0  0  0  0  0  0  0  0  0  0  0
  184.9670  179.1770  144.1690 C   0  0  0  0  0  0  0  0  0  0  0  0
  184.0900  178.8710  145.2450 N   0  0  0  0  0  1  0  0  0  0  0  0
  185.2640  178.1780  143.1940 N   0  0  0  0  0  2  0  0  0  0  0  0
  194.3080  176.4140  141.6470 O   0  0  0  0  0  0  0  0  0  0  0  0
  194.4690  176.0120  142.7890 C   0  0  0  0  0  0  0  0  0  0  0  0
  196.7760  175.6760  143.1150 O   0  0  0  0  0  0  0  0  0  0  0  0
  195.6920  176.4090  143.5500 C   0  0  0  0  0  3  0  0  0  0  0  0
  196.6260  176.9390  142.6880 O   0  0  0  0  0  0  0  0  0  0  0  0
  188.5040  174.1840  140.9390 O   0  0  0  0  0  0  0  0  0  0  0  0
  188.4430  173.7990  139.5920 C   0  0  0  0  0  0  0  0  0  0  0  0
  188.0690  174.6000  138.6950 O   0  0  0  0  0  0  0  0  0  0  0  0
  188.8050  172.4080  139.2200 C   0  0  0  0  0  1  0  0  0  0  0  0
  194.7270  173.5360  144.9440 C   0  0  0  0  0  2  0  0  0  0  0  0
  194.0300  172.4340  145.6680 C   0  0  0  0  0  3  0  0  0  0  0  0
  193.8390  171.3650  145.1130 O   0  0  0  0  0  0  0  0  0  0  0  0
  1  2  1  0  0  0  0
  2 10  1  0  0  0  0
  2 12  1  1  0  0  0
  3 27  1  6  0  0  0
  3 16  1  0  0  0  0
  4  3  1  0  0  0  0
  5 31  1  1  0  0  0
  5  9  1  0  0  0  0
  5 11  1  0  0  0  0
  6 13  1  0  0  0  0
 10  7  1  1  0  0  0
 11  8  1  1  0  0  0
 11 14  1  0  0  0  0
 13 10  1  0  0  0  0
 14 17  1  0  0  0  0
 15  9  1  0  0  0  0
 15  4  1  0  0  0  0
 16 35  1  6  0  0  0
 16  6  1  0  0  0  0
 17  1  1  0  0  0  0
 18 19  1  0  0  0  0
 19 21  1  6  0  0  0
 20 18  1  6  0  0  0
 20 19  1  0  0  0  0
 20 11  1  0  0  0  0
 21 25  1  0  0  0  0
 22 23  2  0  0  0  0
 23 24  1  0  0  0  0
 25 23  1  0  0  0  0
 26 27  2  0  0  0  0
 27 29  1  0  0  0  0
 28 29  1  0  0  0  0
 30 28  1  0  0  0  0
 30 29  1  0  0  0  0
 32 31  1  0  0  0  0
 33 32  2  0  0  0  0
 34 32  1  0  0  0  0
 35 36  1  0  0  0  0
 37 36  2  0  0  0  0
M  END
>  <MODEL>
1

>  <REMARK>
 VINA RESULT:      -7.2      0.000      0.000
  Name = 
  9 active torsions:
  status: ('A' for Active; 'I' for Inactive)
    1  A    between atoms: C_4  and  O_22
    2  A    between atoms: C_6  and  C_19
    3  A    between atoms: C_7  and  C_33
    4  A    between atoms: C_10  and  O_22
    5  A    between atoms: C_16  and  C_30
    6  A    between atoms: C_18  and  C_19
    7  A    between atoms: C_20  and  C_24
    8  A    between atoms: C_30  and  N_32
    9  A    between atoms: C_33  and  C_34
                            x       y       z     vdW  Elec       q    Type
                         _______ _______ _______ _____ _____    ______ ____

>  <TORSDO>
F 9

$$$$
=
 OpenBabel11052420123D

 37 39  0  0  1  0  0  0  0  0999 V2000
  188.3130  175.9890  142.2040 C   0  0  0  0  0  2  0  0  0  0  0  0
  187.8640  176.1580  143.6510 C   0  0  1  0  0  3  0  0  0  0  0  0
  192.5770  175.3790  144.6780 C   0  0  1  0  0  3  0  0  0  0  0  0
  192.6540  173.9520  145.2210 C   0  0  0  0  0  2  0  0  0  0  0  0
  190.8380  172.1180  142.4760 C   0  0  2  0  0  3  0  0  0  0  0  0
  190.4030  176.3370  145.4820 C   0  0  0  0  0  2  0  0  0  0  0  0
  187.8890  177.7250  145.4780 O   0  0  0  0  0  1  0  0  0  0  0  0
  190.9600  174.4240  141.5580 C   0  0  0  0  0  1  0  0  0  0  0  0
  191.1060  172.5360  143.9220 C   0  0  0  0  0  2  0  0  0  0  0  0
  188.4740  177.4250  144.2450 C   0  0  1  0  0  3  0  0  0  0  0  0
  190.0740  173.1720  141.6400 C   0  0  2  0  0  0  0  0  0  0  0  0
  186.4710  176.2350  143.6960 O   0  0  0  0  0  1  0  0  0  0  0  0
  189.9920  177.3180  144.3930 C   0  0  0  0  0  2  0  0  0  0  0  0
  188.7500  173.5170  142.3430 C   0  0  0  0  0  2  0  0  0  0  0  0
  192.5510  172.9580  144.0810 C   0  0  0  0  0  2  0  0  0  0  0  0
  191.9150  176.3730  145.6400 C   0  0  1  0  0  3  0  0  0  0  0  0
  187.9360  174.6170  141.6640 C   0  0  0  0  0  2  0  0  0  0  0  0
  190.9250  172.3870  139.4860 O   0  0  0  0  0  0  0  0  0  0  0  0
  190.0620  173.4310  139.0970 C   0  0  2  0  0  3  0  0  0  0  0  0
  189.7580  172.5530  140.2540 C   0  0  2  0  0  3  0  0  0  0  0  0
  189.2530  172.9850  137.8990 C   0  0  0  0  0  2  0  0  0  0  0  0
  190.0260  174.0000  135.3620 O   0  0  0  0  0  0  0  0  0  0  0  0
  189.0990  174.5960  135.9710 C   0  0  0  0  0  0  0  0  0  0  0  0
  188.4890  175.7370  135.3820 N   0  0  0  0  0  1  0  0  0  0  0  0
  188.6650  174.1470  137.2550 N   0  0  0  0  0  2  0  0  0  0  0  0
  194.0470  176.4500  143.1630 O   0  0  0  0  0  0  0  0  0  0  0  0
  193.9230  175.8690  144.2300 C   0  0  0  0  0  0  0  0  0  0  0  0
  195.8800  174.6280  144.6420 O   0  0  0  0  0  0  0  0  0  0  0  0
  195.1140  175.6740  145.1110 C   0  0  0  0  0  3  0  0  0  0  0  0
  196.2680  175.8870  144.3890 O   0  0  0  0  0  0  0  0  0  0  0  0
  190.2840  170.7990  142.3860 O   0  0  0  0  0  0  0  0  0  0  0  0
  190.9850  169.6540  141.9830 C   0  0  0  0  0  0  0  0  0  0  0  0
  190.5760  168.9310  141.0360 O   0  0  0  0  0  0  0  0  0  0  0  0
  192.2240  169.2710  142.7070 C   0  0  0  0  0  1  0  0  0  0  0  0
  192.3280  176.1690  147.0940 C   0  0  0  0  0  2  0  0  0  0  0  0
  191.2640  176.6630  148.0150 C   0  0  0  0  0  3  0  0  0  0  0  0
  191.5460  177.4380  148.9130 O   0  0  0  0  0  0  0  0  0  0  0  0
  1  2  1  0  0  0  0
  2 12  1  6  0  0  0
  2 10  1  0  0  0  0
  3 27  1  1  0  0  0
  3  4  1  0  0  0  0
  3 16  1  0  0  0  0
  5 31  1  1  0  0  0
  5  9  1  0  0  0  0
  6 16  1  0  0  0  0
  9 15  1  0  0  0  0
 10 13  1  0  0  0  0
 10  7  1  1  0  0  0
 11  8  1  6  0  0  0
 11 14  1  0  0  0  0
 11  5  1  0  0  0  0
 13  6  1  0  0  0  0
 15  4  1  0  0  0  0
 16 35  1  1  0  0  0
 17  1  1  0  0  0  0
 17 14  1  0  0  0  0
 19 21  1  6  0  0  0
 19 18  1  0  0  0  0
 19 20  1  0  0  0  0
 20 18  1  6  0  0  0
 20 11  1  0  0  0  0
 22 23  2  0  0  0  0
 23 25  1  0  0  0  0
 24 23  1  0  0  0  0
 25 21  1  0  0  0  0
 26 27  2  0  0  0  0
 27 29  1  0  0  0  0
 28 29  1  0  0  0  0
 30 28  1  0  0  0  0
 30 29  1  0  0  0  0
 32 31  1  0  0  0  0
 32 34  1  0  0  0  0
 33 32  2  0  0  0  0
 35 36  1  0  0  0  0
 36 37  2  0  0  0  0
M  END
>  <MODEL>
2

>  <REMARK>
 VINA RESULT:      -6.7      3.088      5.276
  Name = 
  9 active torsions:
  status: ('A' for Active; 'I' for Inactive)
    1  A    between atoms: C_4  and  O_22
    2  A    between atoms: C_6  and  C_19
    3  A    between atoms: C_7  and  C_33
    4  A    between atoms: C_10  and  O_22
    5  A    between atoms: C_16  and  C_30
    6  A    between atoms: C_18  and  C_19
    7  A    between atoms: C_20  and  C_24
    8  A    between atoms: C_30  and  N_32
    9  A    between atoms: C_33  and  C_34
                            x       y       z     vdW  Elec       q    Type
                         _______ _______ _______ _____ _____    ______ ____

>  <TORSDO>
F 9

$$$$
=
 OpenBabel11052420123D

 37 39  0  0  1  0  0  0  0  0999 V2000
  191.8660  175.2820  147.1610 C   0  0  0  0  0  2  0  0  0  0  0  0
  190.9280  176.4790  147.0450 C   0  0  1  0  0  3  0  0  0  0  0  0
  189.6260  174.4120  142.8140 C   0  0  1  0  0  3  0  0  0  0  0  0
  190.2880  175.2500  141.7200 C   0  0  0  0  0  2  0  0  0  0  0  0
  193.8410  175.2600  142.9740 C   0  0  2  0  0  3  0  0  0  0  0  0
  188.9740  176.0000  144.6410 C   0  0  0  0  0  2  0  0  0  0  0  0
  188.6160  177.1090  147.2660 O   0  0  0  0  0  1  0  0  0  0  0  0
  192.7350  173.7180  144.5780 C   0  0  0  0  0  1  0  0  0  0  0  0
  192.5410  175.9010  142.4880 C   0  0  0  0  0  2  0  0  0  0  0  0
  189.4760  176.0160  147.1280 C   0  0  1  0  0  3  0  0  0  0  0  0
  193.8120  174.8050  144.4530 C   0  0  2  0  0  0  0  0  0  0  0  0
  191.2000  177.3790  148.0770 O   0  0  0  0  0  1  0  0  0  0  0  0
  189.0700  175.1750  145.9180 C   0  0  0  0  0  2  0  0  0  0  0  0
  193.4500  176.0030  145.3470 C   0  0  0  0  0  2  0  0  0  0  0  0
  191.7650  174.9200  141.6360 C   0  0  0  0  0  2  0  0  0  0  0  0
  188.4590  175.1170  143.5150 C   0  0  1  0  0  3  0  0  0  0  0  0
  193.3000  175.6690  146.8290 C   0  0  0  0  0  2  0  0  0  0  0  0
  195.7080  173.3580  143.9110 O   0  0  0  0  0  0  0  0  0  0  0  0
  195.3160  172.8670  145.1730 C   0  0  2  0  0  3  0  0  0  0  0  0
  195.2310  174.3090  144.8330 C   0  0  2  0  0  3  0  0  0  0  0  0
  196.5490  172.6180  146.0140 C   0  0  0  0  0  2  0  0  0  0  0  0
  196.3020  169.8630  146.6550 O   0  0  0  0  0  0  0  0  0  0  0  0
  197.1490  170.1850  145.7810 C   0  0  0  0  0  0  0  0  0  0  0  0
  197.9410  169.1790  145.1620 N   0  0  0  0  0  1  0  0  0  0  0  0
  197.3340  171.5530  145.4160 N   0  0  0  0  0  2  0  0  0  0  0  0
  188.9950  172.8960  141.1080 O   0  0  0  0  0  0  0  0  0  0  0  0
  189.2170  173.0630  142.2980 C   0  0  0  0  0  0  0  0  0  0  0  0
  190.3460  171.3040  143.3810 O   0  0  0  0  0  0  0  0  0  0  0  0
  189.1150  171.9090  143.2410 C   0  0  0  0  0  3  0  0  0  0  0  0
  189.9120  172.1340  144.3410 O   0  0  0  0  0  0  0  0  0  0  0  0
  194.9930  176.0420  142.6330 O   0  0  0  0  0  0  0  0  0  0  0  0
  195.7760  175.8700  141.4830 C   0  0  0  0  0  0  0  0  0  0  0  0
  196.6810  176.6900  141.1750 O   0  0  0  0  0  0  0  0  0  0  0  0
  195.5140  174.7080  140.5950 C   0  0  0  0  0  1  0  0  0  0  0  0
  187.5660  175.8990  142.5570 C   0  0  0  0  0  2  0  0  0  0  0  0
  186.3490  176.3940  143.2630 C   0  0  0  0  0  3  0  0  0  0  0  0
  185.5440  177.0940  142.6720 O   0  0  0  0  0  0  0  0  0  0  0  0
  2 10  1  0  0  0  0
  2  1  1  0  0  0  0
  2 12  1  1  0  0  0
  3 27  1  6  0  0  0
  3 16  1  0  0  0  0
  4  3  1  0  0  0  0
  5 31  1  1  0  0  0
  5 11  1  0  0  0  0
  6 13  1  0  0  0  0
  9  5  1  0  0  0  0
 10  7  1  6  0  0  0
 11  8  1  1  0  0  0
 11 20  1  0  0  0  0
 11 14  1  0  0  0  0
 13 10  1  0  0  0  0
 14 17  1  0  0  0  0
 15  4  1  0  0  0  0
 15  9  1  0  0  0  0
 16 35  1  6  0  0  0
 16  6  1  0  0  0  0
 17  1  1  0  0  0  0
 18 19  1  0  0  0  0
 19 21  1  1  0  0  0
 20 18  1  6  0  0  0
 20 19  1  0  0  0  0
 23 22  2  0  0  0  0
 24 23  1  0  0  0  0
 25 23  1  0  0  0  0
 25 21  1  0  0  0  0
 26 27  2  0  0  0  0
 27 29  1  0  0  0  0
 28 30  1  0  0  0  0
 29 28  1  0  0  0  0
 29 30  1  0  0  0  0
 32 31  1  0  0  0  0
 33 32  2  0  0  0  0
 34 32  1  0  0  0  0
 35 36  1  0  0  0  0
 37 36  2  0  0  0  0
M  END
>  <MODEL>
3

>  <REMARK>
 VINA RESULT:      -6.6      3.962      8.008
  Name = 
  9 active torsions:
  status: ('A' for Active; 'I' for Inactive)
    1  A    between atoms: C_4  and  O_22
    2  A    between atoms: C_6  and  C_19
    3  A    between atoms: C_7  and  C_33
    4  A    between atoms: C_10  and  O_22
    5  A    between atoms: C_16  and  C_30
    6  A    between atoms: C_18  and  C_19
    7  A    between atoms: C_20  and  C_24
    8  A    between atoms: C_30  and  N_32
    9  A    between atoms: C_33  and  C_34
                            x       y       z     vdW  Elec       q    Type
                         _______ _______ _______ _____ _____    ______ ____

>  <TORSDO>
F 9

$$$$
=
 OpenBabel11052420123D

 37 39  0  0  1  0  0  0  0  0999 V2000
  193.3800  176.1770  142.3570 C   0  0  0  0  0  2  0  0  0  0  0  0
  194.5060  175.5680  143.1860 C   0  0  1  0  0  3  0  0  0  0  0  0
  191.9130  171.4480  142.7620 C   0  0  1  0  0  3  0  0  0  0  0  0
  191.2480  171.2340  144.1220 C   0  0  0  0  0  2  0  0  0  0  0  0
  189.6440  174.6100  144.5970 C   0  0  2  0  0  3  0  0  0  0  0  0
  194.1660  172.4510  143.2150 C   0  0  0  0  0  2  0  0  0  0  0  0
  196.4570  174.1700  143.0060 O   0  0  0  0  0  1  0  0  0  0  0  0
  190.5590  174.7960  142.2940 C   0  0  0  0  0  1  0  0  0  0  0  0
  190.5260  173.4260  144.9940 C   0  0  0  0  0  2  0  0  0  0  0  0
  195.2860  174.5570  142.3490 C   0  0  1  0  0  3  0  0  0  0  0  0
  190.3020  175.5820  143.5880 C   0  0  2  0  0  0  0  0  0  0  0  0
  195.3590  176.5830  143.6220 O   0  0  0  0  0  1  0  0  0  0  0  0
  194.4460  173.3280  142.0020 C   0  0  0  0  0  2  0  0  0  0  0  0
  191.6350  176.0880  144.1640 C   0  0  0  0  0  2  0  0  0  0  0  0
  190.0690  172.1740  144.2770 C   0  0  0  0  0  2  0  0  0  0  0  0
  193.4260  171.2010  142.7660 C   0  0  1  0  0  3  0  0  0  0  0  0
  192.4320  176.9910  143.2250 C   0  0  0  0  0  2  0  0  0  0  0  0
  188.0090  176.3780  143.2820 O   0  0  0  0  0  0  0  0  0  0  0  0
  188.6310  176.8130  142.0940 C   0  0  2  0  0  3  0  0  0  0  0  0
  189.3500  176.7910  143.3930 C   0  0  2  0  0  3  0  0  0  0  0  0
  188.1850  178.2260  141.7890 C   0  0  0  0  0  2  0  0  0  0  0  0
  186.6370  177.6220  139.4860 O   0  0  0  0  0  0  0  0  0  0  0  0
  186.0210  177.9450  140.5350 C   0  0  0  0  0  0  0  0  0  0  0  0
  184.6000  178.0000  140.5280 N   0  0  0  0  0  1  0  0  0  0  0  0
  186.7340  178.2710  141.7280 N   0  0  0  0  0  2  0  0  0  0  0  0
  190.5080  169.7120  141.9780 O   0  0  0  0  0  0  0  0  0  0  0  0
  191.2330  170.6510  141.6870 C   0  0  0  0  0  0  0  0  0  0  0  0
  190.3510  171.7880  139.8260 O   0  0  0  0  0  0  0  0  0  0  0  0
  191.4190  171.0300  140.2540 C   0  0  0  0  0  3  0  0  0  0  0  0
  191.5010  172.4000  140.1410 O   0  0  0  0  0  0  0  0  0  0  0  0
  189.0660  175.2630  145.7340 O   0  0  0  0  0  0  0  0  0  0  0  0
  189.4400  175.0460  147.0670 C   0  0  0  0  0  0  0  0  0  0  0  0
  188.7610  174.3090  147.8300 O   0  0  0  0  0  0  0  0  0  0  0  0
  190.6520  175.7210  147.5990 C   0  0  0  0  0  1  0  0  0  0  0  0
  193.8350  169.9850  143.5930 C   0  0  0  0  0  2  0  0  0  0  0  0
  194.8190  170.3730  144.6440 C   0  0  0  0  0  3  0  0  0  0  0  0
  194.6720  169.9830  145.7900 O   0  0  0  0  0  0  0  0  0  0  0  0
  1  2  1  0  0  0  0
  1 17  1  0  0  0  0
  2 12  1  6  0  0  0
  3 27  1  6  0  0  0
  3 16  1  0  0  0  0
  3  4  1  0  0  0  0
  4 15  1  0  0  0  0
  5  9  1  0  0  0  0
  5 31  1  1  0  0  0
 10  7  1  1  0  0  0
 10  2  1  0  0  0  0
 11  8  1  6  0  0  0
 11 14  1  0  0  0  0
 11  5  1  0  0  0  0
 13 10  1  0  0  0  0
 13  6  1  0  0  0  0
 15  9  1  0  0  0  0
 16  6  1  0  0  0  0
 16 35  1  1  0  0  0
 17 14  1  0  0  0  0
 19 21  1  1  0  0  0
 19 18  1  0  0  0  0
 19 20  1  0  0  0  0
 20 18  1  1  0  0  0
 20 11  1  0  0  0  0
 22 23  2  0  0  0  0
 23 25  1  0  0  0  0
 24 23  1  0  0  0  0
 25 21  1  0  0  0  0
 27 26  2  0  0  0  0
 28 30  1  0  0  0  0
 28 29  1  0  0  0  0
 29 27  1  0  0  0  0
 30 29  1  0  0  0  0
 31 32  1  0  0  0  0
 32 34  1  0  0  0  0
 32 33  2  0  0  0  0
 35 36  1  0  0  0  0
 36 37  2  0  0  0  0
M  END
>  <MODEL>
4

>  <REMARK>
 VINA RESULT:      -6.5      2.300      5.281
  Name = 
  9 active torsions:
  status: ('A' for Active; 'I' for Inactive)
    1  A    between atoms: C_4  and  O_22
    2  A    between atoms: C_6  and  C_19
    3  A    between atoms: C_7  and  C_33
    4  A    between atoms: C_10  and  O_22
    5  A    between atoms: C_16  and  C_30
    6  A    between atoms: C_18  and  C_19
    7  A    between atoms: C_20  and  C_24
    8  A    between atoms: C_30  and  N_32
    9  A    between atoms: C_33  and  C_34
                            x       y       z     vdW  Elec       q    Type
                         _______ _______ _______ _____ _____    ______ ____

>  <TORSDO>
F 9

$$$$
=
 OpenBabel11052420123D

 37 39  0  0  1  0  0  0  0  0999 V2000
  188.4280  174.5130  142.0810 C   0  0  0  0  0  2  0  0  0  0  0  0
  188.5650  174.7950  140.5890 C   0  0  1  0  0  3  0  0  0  0  0  0
  192.3150  171.6750  140.8540 C   0  0  1  0  0  3  0  0  0  0  0  0
  193.5770  172.5350  140.7910 C   0  0  0  0  0  2  0  0  0  0  0  0
  192.8010  175.0230  143.5130 C   0  0  2  0  0  3  0  0  0  0  0  0
  190.6220  172.7720  139.3640 C   0  0  0  0  0  2  0  0  0  0  0  0
  188.1260  173.8350  138.4260 O   0  0  0  0  0  1  0  0  0  0  0  0
  190.8950  173.4400  143.7050 C   0  0  0  0  0  1  0  0  0  0  0  0
  193.1890  174.5920  142.0980 C   0  0  0  0  0  2  0  0  0  0  0  0
  188.2410  173.5370  139.7860 C   0  0  1  0  0  3  0  0  0  0  0  0
  191.2870  174.9210  143.8160 C   0  0  2  0  0  0  0  0  0  0  0  0
  187.6920  175.8240  140.2320 O   0  0  0  0  0  1  0  0  0  0  0  0
  189.2800  172.4360  139.9990 C   0  0  0  0  0  2  0  0  0  0  0  0
  190.5040  175.7460  142.7810 C   0  0  0  0  0  2  0  0  0  0  0  0
  193.8110  173.2130  142.1270 C   0  0  0  0  0  2  0  0  0  0  0  0
  191.5590  171.5840  139.5240 C   0  0  1  0  0  3  0  0  0  0  0  0
  188.9850  175.6590  142.9140 C   0  0  0  0  0  2  0  0  0  0  0  0
  191.5710  174.6970  146.2350 O   0  0  0  0  0  0  0  0  0  0  0  0
  190.1670  174.6950  146.1030 C   0  0  2  0  0  3  0  0  0  0  0  0
  191.0360  175.5180  145.2250 C   0  0  2  0  0  3  0  0  0  0  0  0
  189.5670  175.5700  147.1810 C   0  0  0  0  0  2  0  0  0  0  0  0
  188.1490  177.6000  145.7900 O   0  0  0  0  0  0  0  0  0  0  0  0
  187.4780  176.6630  146.2980 C   0  0  0  0  0  0  0  0  0  0  0  0
  186.0630  176.6570  146.1640 N   0  0  0  0  0  1  0  0  0  0  0  0
  188.1240  175.6140  147.0190 N   0  0  0  0  0  2  0  0  0  0  0  0
  193.6530  169.7410  141.1300 O   0  0  0  0  0  0  0  0  0  0  0  0
  192.6090  170.3110  141.4090 C   0  0  0  0  0  0  0  0  0  0  0  0
  190.8060  168.8140  141.6270 O   0  0  0  0  0  0  0  0  0  0  0  0
  191.6320  169.6610  142.3340 C   0  0  0  0  0  3  0  0  0  0  0  0
  191.8240  168.2970  142.3310 O   0  0  0  0  0  0  0  0  0  0  0  0
  193.3780  176.2840  143.8740 O   0  0  0  0  0  0  0  0  0  0  0  0
  194.5790  176.4520  144.5770 C   0  0  0  0  0  0  0  0  0  0  0  0
  195.6890  176.4950  143.9840 O   0  0  0  0  0  0  0  0  0  0  0  0
  194.5420  176.5580  146.0580 C   0  0  0  0  0  1  0  0  0  0  0  0
  192.4810  171.4360  138.3170 C   0  0  0  0  0  2  0  0  0  0  0  0
  191.6890  171.4080  137.0540 C   0  0  0  0  0  3  0  0  0  0  0  0
  191.0650  170.4060  136.7480 O   0  0  0  0  0  0  0  0  0  0  0  0
  1 17  1  0  0  0  0
  2 12  1  6  0  0  0
  2  1  1  0  0  0  0
  3 27  1  6  0  0  0
  4  3  1  0  0  0  0
  4 15  1  0  0  0  0
  5 11  1  0  0  0  0
  5 31  1  6  0  0  0
  6 16  1  0  0  0  0
  6 13  1  0  0  0  0
  9 15  1  0  0  0  0
  9  5  1  0  0  0  0
 10  7  1  6  0  0  0
 10 13  1  0  0  0  0
 10  2  1  0  0  0  0
 11  8  1  6  0  0  0
 11 20  1  0  0  0  0
 14 17  1  0  0  0  0
 14 11  1  0  0  0  0
 16 35  1  6  0  0  0
 16  3  1  0  0  0  0
 19 18  1  0  0  0  0
 19 21  1  1  0  0  0
 20 19  1  0  0  0  0
 20 18  1  1  0  0  0
 22 23  2  0  0  0  0
 23 25  1  0  0  0  0
 24 23  1  0  0  0  0
 25 21  1  0  0  0  0
 26 27  2  0  0  0  0
 27 29  1  0  0  0  0
 28 30  1  0  0  0  0
 28 29  1  0  0  0  0
 30 29  1  0  0  0  0
 31 32  1  0  0  0  0
 32 34  1  0  0  0  0
 33 32  2  0  0  0  0
 36 35  1  0  0  0  0
 37 36  2  0  0  0  0
M  END
>  <MODEL>
5

>  <REMARK>
 VINA RESULT:      -6.2      2.761      6.546
  Name = 
  9 active torsions:
  status: ('A' for Active; 'I' for Inactive)
    1  A    between atoms: C_4  and  O_22
    2  A    between atoms: C_6  and  C_19
    3  A    between atoms: C_7  and  C_33
    4  A    between atoms: C_10  and  O_22
    5  A    between atoms: C_16  and  C_30
    6  A    between atoms: C_18  and  C_19
    7  A    between atoms: C_20  and  C_24
    8  A    between atoms: C_30  and  N_32
    9  A    between atoms: C_33  and  C_34
                            x       y       z     vdW  Elec       q    Type
                         _______ _______ _______ _____ _____    ______ ____

>  <TORSDO>
F 9

$$$$
=
 OpenBabel11052420123D

 37 39  0  0  1  0  0  0  0  0999 V2000
  192.1320  172.7070  141.5140 C   0  0  0  0  0  2  0  0  0  0  0  0
  191.3600  171.8250  142.4890 C   0  0  1  0  0  3  0  0  0  0  0  0
  191.2260  175.8550  145.2480 C   0  0  1  0  0  3  0  0  0  0  0  0
  192.2410  175.6260  146.3680 C   0  0  0  0  0  2  0  0  0  0  0  0
  195.2540  174.6580  144.3220 C   0  0  2  0  0  3  0  0  0  0  0  0
  190.1770  173.6300  144.7630 C   0  0  0  0  0  2  0  0  0  0  0  0
  189.1370  171.3870  143.3030 O   0  0  0  0  0  1  0  0  0  0  0  0
  193.6130  175.2730  142.5610 C   0  0  0  0  0  1  0  0  0  0  0  0
  194.2050  174.4720  145.4200 C   0  0  0  0  0  2  0  0  0  0  0  0
  189.9180  172.3150  142.6090 C   0  0  1  0  0  3  0  0  0  0  0  0
  194.7550  174.3040  142.9010 C   0  0  2  0  0  0  0  0  0  0  0  0
  191.3770  170.5070  142.0310 O   0  0  0  0  0  1  0  0  0  0  0  0
  189.8310  173.6850  143.2810 C   0  0  0  0  0  2  0  0  0  0  0  0
  194.2300  172.8580  142.8910 C   0  0  0  0  0  2  0  0  0  0  0  0
  193.6490  175.8160  145.8390 C   0  0  0  0  0  2  0  0  0  0  0  0
  189.9570  175.0040  145.3770 C   0  0  1  0  0  3  0  0  0  0  0  0
  193.6240  172.4100  141.5620 C   0  0  0  0  0  2  0  0  0  0  0  0
  196.3660  175.7420  141.7550 O   0  0  0  0  0  0  0  0  0  0  0  0
  195.6810  175.1510  140.6740 C   0  0  2  0  0  3  0  0  0  0  0  0
  195.9570  174.4070  141.9280 C   0  0  2  0  0  3  0  0  0  0  0  0
  196.6820  174.7430  139.6150 C   0  0  0  0  0  2  0  0  0  0  0  0
  196.6010  173.2740  137.1860 O   0  0  0  0  0  0  0  0  0  0  0  0
  196.2470  174.4810  137.1490 C   0  0  0  0  0  0  0  0  0  0  0  0
  195.8320  175.0560  135.9170 N   0  0  0  0  0  1  0  0  0  0  0  0
  196.2700  175.2830  138.3300 N   0  0  0  0  0  2  0  0  0  0  0  0
  190.4160  177.9360  146.0350 O   0  0  0  0  0  0  0  0  0  0  0  0
  190.8920  177.3110  145.1000 C   0  0  0  0  0  0  0  0  0  0  0  0
  190.6410  177.2950  142.7600 O   0  0  0  0  0  0  0  0  0  0  0  0
  191.1770  178.0090  143.8100 C   0  0  0  0  0  3  0  0  0  0  0  0
  189.9940  178.3800  143.2100 O   0  0  0  0  0  0  0  0  0  0  0  0
  196.5070  174.0520  144.6610 O   0  0  0  0  0  0  0  0  0  0  0  0
  196.7460  173.2710  145.8000 C   0  0  0  0  0  0  0  0  0  0  0  0
  197.1940  173.7760  146.8630 O   0  0  0  0  0  0  0  0  0  0  0  0
  196.4890  171.8090  145.7430 C   0  0  0  0  0  1  0  0  0  0  0  0
  189.4470  174.8980  146.8110 C   0  0  0  0  0  2  0  0  0  0  0  0
  188.1700  175.6520  146.9690 C   0  0  0  0  0  3  0  0  0  0  0  0
  187.6830  176.2320  146.0130 O   0  0  0  0  0  0  0  0  0  0  0  0
  1 17  1  0  0  0  0
  1  2  1  0  0  0  0
  2 12  1  6  0  0  0
  2 10  1  0  0  0  0
  3 27  1  1  0  0  0
  3 16  1  0  0  0  0
  3  4  1  0  0  0  0
  5 31  1  1  0  0  0
  5  9  1  0  0  0  0
  6 16  1  0  0  0  0
  9 15  1  0  0  0  0
 10 13  1  0  0  0  0
 10  7  1  1  0  0  0
 11  8  1  6  0  0  0
 11  5  1  0  0  0  0
 13  6  1  0  0  0  0
 14 11  1  0  0  0  0
 15  4  1  0  0  0  0
 16 35  1  1  0  0  0
 17 14  1  0  0  0  0
 19 21  1  6  0  0  0
 19 18  1  0  0  0  0
 19 20  1  0  0  0  0
 20 18  1  1  0  0  0
 20 11  1  0  0  0  0
 23 22  2  0  0  0  0
 23 25  1  0  0  0  0
 24 23  1  0  0  0  0
 25 21  1  0  0  0  0
 27 26  2  0  0  0  0
 28 30  1  0  0  0  0
 28 29  1  0  0  0  0
 29 27  1  0  0  0  0
 30 29  1  0  0  0  0
 31 32  1  0  0  0  0
 32 33  2  0  0  0  0
 34 32  1  0  0  0  0
 35 36  1  0  0  0  0
 37 36  2  0  0  0  0
M  END
>  <MODEL>
6

>  <REMARK>
 VINA RESULT:      -6.1      4.181      8.097
  Name = 
  9 active torsions:
  status: ('A' for Active; 'I' for Inactive)
    1  A    between atoms: C_4  and  O_22
    2  A    between atoms: C_6  and  C_19
    3  A    between atoms: C_7  and  C_33
    4  A    between atoms: C_10  and  O_22
    5  A    between atoms: C_16  and  C_30
    6  A    between atoms: C_18  and  C_19
    7  A    between atoms: C_20  and  C_24
    8  A    between atoms: C_30  and  N_32
    9  A    between atoms: C_33  and  C_34
                            x       y       z     vdW  Elec       q    Type
                         _______ _______ _______ _____ _____    ______ ____

>  <TORSDO>
F 9

$$$$
=
 OpenBabel11052420123D

 37 39  0  0  1  0  0  0  0  0999 V2000
  191.2320  175.1860  147.1740 C   0  0  0  0  0  2  0  0  0  0  0  0
  190.5990  176.5590  146.9750 C   0  0  1  0  0  3  0  0  0  0  0  0
  189.3520  174.7940  142.5930 C   0  0  1  0  0  3  0  0  0  0  0  0
  190.2990  175.4570  141.5930 C   0  0  0  0  0  2  0  0  0  0  0  0
  193.6060  174.6950  143.2290 C   0  0  2  0  0  3  0  0  0  0  0  0
  188.8650  176.5020  144.3630 C   0  0  0  0  0  2  0  0  0  0  0  0
  188.4710  177.6840  146.9500 O   0  0  0  0  0  1  0  0  0  0  0  0
  192.0170  173.4480  144.6770 C   0  0  0  0  0  1  0  0  0  0  0  0
  192.5400  175.6030  142.6140 C   0  0  0  0  0  2  0  0  0  0  0  0
  189.0800  176.4280  146.8900 C   0  0  1  0  0  3  0  0  0  0  0  0
  193.3140  174.2710  144.6880 C   0  0  2  0  0  0  0  0  0  0  0  0
  190.9450  177.3860  148.0450 O   0  0  0  0  0  1  0  0  0  0  0  0
  188.6370  175.6870  145.6290 C   0  0  0  0  0  2  0  0  0  0  0  0
  193.1260  175.5260  145.5560 C   0  0  0  0  0  2  0  0  0  0  0  0
  191.6670  174.8090  141.6660 C   0  0  0  0  0  2  0  0  0  0  0  0
  188.2980  175.7440  143.1730 C   0  0  1  0  0  3  0  0  0  0  0  0
  192.7440  175.2450  147.0080 C   0  0  0  0  0  2  0  0  0  0  0  0
  195.3700  173.0550  144.1590 O   0  0  0  0  0  0  0  0  0  0  0  0
  194.5930  172.0580  144.7830 C   0  0  2  0  0  3  0  0  0  0  0  0
  194.5390  173.4780  145.2140 C   0  0  2  0  0  3  0  0  0  0  0  0
  195.4650  171.2740  145.7380 C   0  0  0  0  0  2  0  0  0  0  0  0
  196.5320  169.1470  147.2880 O   0  0  0  0  0  0  0  0  0  0  0  0
  195.2840  169.1800  147.1240 C   0  0  0  0  0  0  0  0  0  0  0  0
  194.4710  168.1680  147.7030 N   0  0  0  0  0  1  0  0  0  0  0  0
  194.6800  170.2150  146.3480 N   0  0  0  0  0  2  0  0  0  0  0  0
  188.5510  172.5690  142.7030 O   0  0  0  0  0  0  0  0  0  0  0  0
  188.7160  173.5630  142.0130 C   0  0  0  0  0  0  0  0  0  0  0  0
  189.2250  173.0310  139.7780 O   0  0  0  0  0  0  0  0  0  0  0  0
  188.2520  173.5680  140.5940 C   0  0  0  0  0  3  0  0  0  0  0  0
  188.1730  172.2750  140.1250 O   0  0  0  0  0  0  0  0  0  0  0  0
  194.9310  175.2020  143.0300 O   0  0  0  0  0  0  0  0  0  0  0  0
  195.5100  175.4860  141.7850 C   0  0  0  0  0  0  0  0  0  0  0  0
  195.4970  174.6460  140.8470 O   0  0  0  0  0  0  0  0  0  0  0  0
  196.1740  176.7980  141.5780 C   0  0  0  0  0  1  0  0  0  0  0  0
  187.7100  176.6960  142.1360 C   0  0  0  0  0  2  0  0  0  0  0  0
  186.2290  176.7870  142.2890 C   0  0  0  0  0  3  0  0  0  0  0  0
  185.7500  177.2890  143.2920 O   0  0  0  0  0  0  0  0  0  0  0  0
  2  1  1  0  0  0  0
  2 12  1  1  0  0  0
  3 27  1  6  0  0  0
  3 16  1  0  0  0  0
  4 15  1  0  0  0  0
  4  3  1  0  0  0  0
  5 31  1  1  0  0  0
  5 11  1  0  0  0  0
  6 13  1  0  0  0  0
  9  5  1  0  0  0  0
 10  7  1  6  0  0  0
 10  2  1  0  0  0  0
 11  8  1  1  0  0  0
 11 20  1  0  0  0  0
 11 14  1  0  0  0  0
 13 10  1  0  0  0  0
 14 17  1  0  0  0  0
 15  9  1  0  0  0  0
 16 35  1  6  0  0  0
 16  6  1  0  0  0  0
 17  1  1  0  0  0  0
 18 19  1  0  0  0  0
 19 20  1  0  0  0  0
 19 21  1  1  0  0  0
 20 18  1  6  0  0  0
 21 25  1  0  0  0  0
 23 22  2  0  0  0  0
 23 24  1  0  0  0  0
 25 23  1  0  0  0  0
 27 26  2  0  0  0  0
 28 30  1  0  0  0  0
 28 29  1  0  0  0  0
 29 27  1  0  0  0  0
 30 29  1  0  0  0  0
 32 31  1  0  0  0  0
 33 32  2  0  0  0  0
 34 32  1  0  0  0  0
 35 36  1  0  0  0  0
 36 37  2  0  0  0  0
M  END
>  <MODEL>
7

>  <REMARK>
 VINA RESULT:      -5.8      3.610      7.973
  Name = 
  9 active torsions:
  status: ('A' for Active; 'I' for Inactive)
    1  A    between atoms: C_4  and  O_22
    2  A    between atoms: C_6  and  C_19
    3  A    between atoms: C_7  and  C_33
    4  A    between atoms: C_10  and  O_22
    5  A    between atoms: C_16  and  C_30
    6  A    between atoms: C_18  and  C_19
    7  A    between atoms: C_20  and  C_24
    8  A    between atoms: C_30  and  N_32
    9  A    between atoms: C_33  and  C_34
                            x       y       z     vdW  Elec       q    Type
                         _______ _______ _______ _____ _____    ______ ____

>  <TORSDO>
F 9

$$$$
=
 OpenBabel11052420123D

 37 39  0  0  1  0  0  0  0  0999 V2000
  192.4680  172.1720  143.0570 C   0  0  0  0  0  2  0  0  0  0  0  0
  191.9880  170.7340  142.8980 C   0  0  1  0  0  3  0  0  0  0  0  0
  190.3730  172.2830  138.5540 C   0  0  1  0  0  3  0  0  0  0  0  0
  188.8570  172.4200  138.6990 C   0  0  0  0  0  2  0  0  0  0  0  0
  188.6920  174.5410  141.8080 C   0  0  2  0  0  3  0  0  0  0  0  0
  191.0510  170.3040  139.9370 C   0  0  0  0  0  2  0  0  0  0  0  0
  192.5160  168.6660  141.7850 O   0  0  0  0  0  1  0  0  0  0  0  0
  191.1360  174.4640  141.3690 C   0  0  0  0  0  1  0  0  0  0  0  0
  188.3630  173.3270  140.9390 C   0  0  0  0  0  2  0  0  0  0  0  0
  192.7690  170.0400  141.7850 C   0  0  1  0  0  3  0  0  0  0  0  0
  190.0820  174.4800  142.4860 C   0  0  2  0  0  0  0  0  0  0  0  0
  192.1680  170.0510  144.1020 O   0  0  0  0  0  1  0  0  0  0  0  0
  192.4610  170.6330  140.4100 C   0  0  0  0  0  2  0  0  0  0  0  0
  190.1860  173.1920  143.3190 C   0  0  0  0  0  2  0  0  0  0  0  0
  188.5210  173.6770  139.4760 C   0  0  0  0  0  2  0  0  0  0  0  0
  190.8650  170.8310  138.5230 C   0  0  1  0  0  3  0  0  0  0  0  0
  191.5470  172.9650  143.9730 C   0  0  0  0  0  2  0  0  0  0  0  0
  190.1320  176.9140  142.7230 O   0  0  0  0  0  0  0  0  0  0  0  0
  191.4080  176.5470  143.1980 C   0  0  2  0  0  3  0  0  0  0  0  0
  190.2110  175.7010  143.4330 C   0  0  2  0  0  3  0  0  0  0  0  0
  191.7190  177.3390  144.4490 C   0  0  0  0  0  2  0  0  0  0  0  0
  192.2800  175.8450  146.7980 O   0  0  0  0  0  0  0  0  0  0  0  0
  193.2580  176.2330  146.1060 C   0  0  0  0  0  0  0  0  0  0  0  0
  194.5820  175.9210  146.5200 N   0  0  0  0  0  1  0  0  0  0  0  0
  193.0510  176.9970  144.9180 N   0  0  0  0  0  2  0  0  0  0  0  0
  190.2410  173.0990  136.3360 O   0  0  0  0  0  0  0  0  0  0  0  0
  190.8830  173.0580  137.3740 C   0  0  0  0  0  0  0  0  0  0  0  0
  193.2200  173.0040  137.1020 O   0  0  0  0  0  0  0  0  0  0  0  0
  192.1690  173.8100  137.4810 C   0  0  0  0  0  3  0  0  0  0  0  0
  192.7530  173.9170  136.2380 O   0  0  0  0  0  0  0  0  0  0  0  0
  187.6260  174.8710  142.7070 O   0  0  0  0  0  0  0  0  0  0  0  0
  186.8060  176.0030  142.6100 C   0  0  0  0  0  0  0  0  0  0  0  0
  186.0150  176.3250  143.5350 O   0  0  0  0  0  0  0  0  0  0  0  0
  186.8550  176.8290  141.3760 C   0  0  0  0  0  1  0  0  0  0  0  0
  189.9700  169.9110  137.6980 C   0  0  0  0  0  2  0  0  0  0  0  0
  190.7810  169.1330  136.7180 C   0  0  0  0  0  3  0  0  0  0  0  0
  191.7370  169.6530  136.1690 O   0  0  0  0  0  0  0  0  0  0  0  0
  1 17  1  0  0  0  0
  2  1  1  0  0  0  0
  2 12  1  1  0  0  0
  3 27  1  6  0  0  0
  3  4  1  0  0  0  0
  4 15  1  0  0  0  0
  5 11  1  0  0  0  0
  5 31  1  1  0  0  0
  6 13  1  0  0  0  0
  9  5  1  0  0  0  0
 10  7  1  6  0  0  0
 10  2  1  0  0  0  0
 11  8  1  6  0  0  0
 11 14  1  0  0  0  0
 11 20  1  0  0  0  0
 13 10  1  0  0  0  0
 14 17  1  0  0  0  0
 15  9  1  0  0  0  0
 16 35  1  1  0  0  0
 16  3  1  0  0  0  0
 16  6  1  0  0  0  0
 18 19  1  0  0  0  0
 19 20  1  0  0  0  0
 19 21  1  1  0  0  0
 20 18  1  6  0  0  0
 21 25  1  0  0  0  0
 23 24  1  0  0  0  0
 23 22  2  0  0  0  0
 25 23  1  0  0  0  0
 26 27  2  0  0  0  0
 27 29  1  0  0  0  0
 28 29  1  0  0  0  0
 30 28  1  0  0  0  0
 30 29  1  0  0  0  0
 32 31  1  0  0  0  0
 32 33  2  0  0  0  0
 34 32  1  0  0  0  0
 36 35  1  0  0  0  0
 37 36  2  0  0  0  0
M  END
>  <MODEL>
8

>  <REMARK>
 VINA RESULT:      -5.7      3.626      6.710
  Name = 
  9 active torsions:
  status: ('A' for Active; 'I' for Inactive)
    1  A    between atoms: C_4  and  O_22
    2  A    between atoms: C_6  and  C_19
    3  A    between atoms: C_7  and  C_33
    4  A    between atoms: C_10  and  O_22
    5  A    between atoms: C_16  and  C_30
    6  A    between atoms: C_18  and  C_19
    7  A    between atoms: C_20  and  C_24
    8  A    between atoms: C_30  and  N_32
    9  A    between atoms: C_33  and  C_34
                            x       y       z     vdW  Elec       q    Type
                         _______ _______ _______ _____ _____    ______ ____

>  <TORSDO>
F 9

$$$$
=
 OpenBabel11052420123D

 37 39  0  0  1  0  0  0  0  0999 V2000
  190.0810  173.7240  140.7200 C   0  0  0  0  0  2  0  0  0  0  0  0
  188.8260  173.6920  141.5850 C   0  0  1  0  0  3  0  0  0  0  0  0
  191.7620  175.5260  145.0330 C   0  0  1  0  0  3  0  0  0  0  0  0
  192.0480  174.3710  145.9930 C   0  0  0  0  0  2  0  0  0  0  0  0
  193.1820  171.7510  143.5350 C   0  0  2  0  0  3  0  0  0  0  0  0
  189.3970  175.2410  144.2500 C   0  0  0  0  0  2  0  0  0  0  0  0
  187.1180  175.1140  142.5080 O   0  0  0  0  0  1  0  0  0  0  0  0
  192.9160  173.7430  142.0750 C   0  0  0  0  0  1  0  0  0  0  0  0
  192.3250  172.3050  144.6730 C   0  0  0  0  0  2  0  0  0  0  0  0
  188.3880  175.1140  141.9260 C   0  0  1  0  0  3  0  0  0  0  0  0
  192.7470  172.2180  142.1260 C   0  0  2  0  0  0  0  0  0  0  0  0
  187.8070  173.0330  140.8950 O   0  0  0  0  0  1  0  0  0  0  0  0
  189.3880  175.8200  142.8420 C   0  0  0  0  0  2  0  0  0  0  0  0
  191.2710  171.8500  141.9010 C   0  0  0  0  0  2  0  0  0  0  0  0
  193.0600  173.4240  145.3800 C   0  0  0  0  0  2  0  0  0  0  0  0
  190.3300  176.0670  145.1220 C   0  0  1  0  0  3  0  0  0  0  0  0
  190.6890  172.3360  140.5750 C   0  0  0  0  0  2  0  0  0  0  0  0
  194.9550  171.8950  141.1240 O   0  0  0  0  0  0  0  0  0  0  0  0
  194.1940  172.3320  140.0210 C   0  0  2  0  0  3  0  0  0  0  0  0
  193.6140  171.4690  141.0810 C   0  0  2  0  0  3  0  0  0  0  0  0
  194.5380  171.4870  138.8140 C   0  0  0  0  0  2  0  0  0  0  0  0
  192.0590  170.5400  137.8020 O   0  0  0  0  0  0  0  0  0  0  0  0
  192.6090  171.4980  137.1970 C   0  0  0  0  0  0  0  0  0  0  0  0
  191.9850  172.0560  136.0480 N   0  0  0  0  0  1  0  0  0  0  0  0
  193.8600  172.0190  137.6440 N   0  0  0  0  0  2  0  0  0  0  0  0
  192.8670  177.4990  144.3340 O   0  0  0  0  0  0  0  0  0  0  0  0
  192.7710  176.6270  145.1840 C   0  0  0  0  0  0  0  0  0  0  0  0
  194.9290  176.3130  146.0700 O   0  0  0  0  0  0  0  0  0  0  0  0
  193.6400  176.6750  146.3990 C   0  0  0  0  0  3  0  0  0  0  0  0
  194.6340  177.6130  146.2240 O   0  0  0  0  0  0  0  0  0  0  0  0
  193.3740  170.3350  143.6400 O   0  0  0  0  0  0  0  0  0  0  0  0
  194.2290  169.6990  144.5510 C   0  0  0  0  0  0  0  0  0  0  0  0
  193.9450  168.5780  145.0490 O   0  0  0  0  0  0  0  0  0  0  0  0
  195.4880  170.3760  144.9550 C   0  0  0  0  0  1  0  0  0  0  0  0
  189.8130  176.1670  146.5530 C   0  0  0  0  0  2  0  0  0  0  0  0
  188.4060  175.6790  146.6370 C   0  0  0  0  0  3  0  0  0  0  0  0
  187.5090  176.4530  146.9280 O   0  0  0  0  0  0  0  0  0  0  0  0
  1  2  1  0  0  0  0
  2 12  1  6  0  0  0
  2 10  1  0  0  0  0
  3 16  1  0  0  0  0
  3 27  1  1  0  0  0
  3  4  1  0  0  0  0
  5 31  1  6  0  0  0
  5  9  1  0  0  0  0
  6 16  1  0  0  0  0
  9 15  1  0  0  0  0
 10  7  1  1  0  0  0
 10 13  1  0  0  0  0
 11  8  1  6  0  0  0
 11  5  1  0  0  0  0
 13  6  1  0  0  0  0
 14 11  1  0  0  0  0
 15  4  1  0  0  0  0
 16 35  1  1  0  0  0
 17  1  1  0  0  0  0
 17 14  1  0  0  0  0
 19 21  1  6  0  0  0
 19 20  1  0  0  0  0
 19 18  1  0  0  0  0
 20 18  1  1  0  0  0
 20 11  1  0  0  0  0
 23 25  1  0  0  0  0
 23 22  2  0  0  0  0
 24 23  1  0  0  0  0
 25 21  1  0  0  0  0
 26 27  2  0  0  0  0
 27 29  1  0  0  0  0
 28 30  1  0  0  0  0
 28 29  1  0  0  0  0
 30 29  1  0  0  0  0
 31 32  1  0  0  0  0
 32 34  1  0  0  0  0
 32 33  2  0  0  0  0
 35 36  1  0  0  0  0
 36 37  2  0  0  0  0
M  END
>  <MODEL>
9

>  <REMARK>
 VINA RESULT:      -5.7      3.874      7.340
  Name = 
  9 active torsions:
  status: ('A' for Active; 'I' for Inactive)
    1  A    between atoms: C_4  and  O_22
    2  A    between atoms: C_6  and  C_19
    3  A    between atoms: C_7  and  C_33
    4  A    between atoms: C_10  and  O_22
    5  A    between atoms: C_16  and  C_30
    6  A    between atoms: C_18  and  C_19
    7  A    between atoms: C_20  and  C_24
    8  A    between atoms: C_30  and  N_32
    9  A    between atoms: C_33  and  C_34
                            x       y       z     vdW  Elec       q    Type
                         _______ _______ _______ _____ _____    ______ ____

>  <TORSDO>
F 9

$$$$
