=
 OpenBabel11052419103D

 32 38  0  0  1  0  0  0  0  0999 V2000
  189.7200  176.4200  144.9660 C   0  0  0  0  0  0  0  0  0  0  0  0
  187.4200  176.9310  144.3500 C   0  0  0  0  0  0  0  0  0  0  0  0
  190.7370  176.4080  145.9310 C   0  0  0  0  0  3  0  0  0  0  0  0
  188.4440  176.9220  145.3100 C   0  0  0  0  0  0  0  0  0  0  0  0
  186.0150  177.3610  144.7450 C   0  0  2  0  0  3  0  0  0  0  0  0
  186.4580  177.3820  139.6470 C   0  0  0  0  0  3  0  0  0  0  0  0
  187.7100  176.5250  143.0400 C   0  0  0  0  0  0  0  0  0  0  0  0
  184.7950  178.1670  141.2560 C   0  0  0  0  0  3  0  0  0  0  0  0
  185.7840  177.8790  142.3520 C   0  0  1  0  0  3  0  0  0  0  0  0
  188.2200  177.4530  146.5980 C   0  0  0  0  0  0  0  0  0  0  0  0
  185.0950  177.6630  143.6240 N   0  0  0  0  0  2  0  0  0  0  0  0
  186.8780  178.0110  146.9940 C   0  0  0  0  0  2  0  0  0  0  0  0
  189.2470  177.4250  147.5450 C   0  0  0  0  0  3  0  0  0  0  0  0
  188.9410  176.0320  142.7350 N   0  0  0  0  0  0  0  0  0  0  0  0
  189.9420  175.9560  143.6560 C   0  0  0  0  0  0  0  0  0  0  0  0
  186.6440  176.6580  141.9970 C   0  0  1  0  0  3  0  0  0  0  0  0
  186.0680  178.4860  145.7820 C   0  0  2  0  0  3  0  0  0  0  0  0
  190.5000  176.9040  147.2150 C   0  0  0  0  0  3  0  0  0  0  0  0
  185.1420  177.9670  139.9780 C   0  0  0  0  0  3  0  0  0  0  0  0
  187.1970  176.8000  140.5990 C   0  0  0  0  0  3  0  0  0  0  0  0
  192.9790  173.6870  143.6920 C   0  0  2  0  0  3  0  0  0  0  0  0
  194.3870  175.6580  140.6970 O   0  0  0  0  0  0  0  0  0  0  0  0
  193.6830  173.0720  144.8870 C   0  0  0  0  0  1  0  0  0  0  0  0
  193.7920  176.1440  143.1360 C   0  0  2  0  0  3  0  0  0  0  0  0
  191.2780  175.3970  143.2430 C   0  0  1  0  0  3  0  0  0  0  0  0
  193.7840  174.7610  143.1720 N   0  0  0  0  0  0  0  0  0  0  0  0
  192.3140  176.5670  143.2250 C   0  0  0  0  0  2  0  0  0  0  0  0
  191.6830  174.2520  144.1090 N   0  0  0  0  0  0  0  0  0  0  0  0
  190.7130  173.1790  143.9250 C   0  0  0  0  0  1  0  0  0  0  0  0
  194.1270  175.5760  141.9240 C   0  0  0  0  0  0  0  0  0  0  0  0
  184.6670  178.8670  146.2370 C   0  0  0  0  0  2  0  0  0  0  0  0
  184.3930  178.2860  147.4750 O   0  0  0  0  0  1  0  0  0  0  0  0
  1  4  2  0  0  0  0
  1  3  1  0  0  0  0
  2  5  1  0  0  0  0
  2  4  1  0  0  0  0
  3 18  2  0  0  0  0
  4 10  1  0  0  0  0
  5 11  1  6  0  0  0
  5 17  1  0  0  0  0
  6 19  1  0  0  0  0
  6 20  2  0  0  0  0
  7  2  2  0  0  0  0
  9  8  1  6  0  0  0
  9 11  1  0  0  0  0
 10 12  1  0  0  0  0
 10 13  2  0  0  0  0
 14  7  1  0  0  0  0
 14 15  2  0  0  0  0
 15  1  1  0  0  0  0
 16 20  1  6  0  0  0
 16  9  1  0  0  0  0
 16  7  1  0  0  0  0
 17 31  1  1  0  0  0
 17 12  1  0  0  0  0
 18 13  1  0  0  0  0
 19  8  2  0  0  0  0
 21 28  1  0  0  0  0
 21 23  1  1  0  0  0
 22 30  2  0  0  0  0
 24 26  1  0  0  0  0
 24 27  1  6  0  0  0
 25 15  1  1  0  0  0
 25 28  1  0  0  0  0
 26 21  1  0  0  0  0
 27 25  1  0  0  0  0
 29 28  1  0  0  0  0
 30 24  1  0  0  0  0
 30 26  1  0  0  0  0
 31 32  1  0  0  0  0
M  END
>  <MODEL>
1

>  <REMARK>
 VINA RESULT:      -8.8      0.000      0.000
  Name = 
  2 active torsions:
  status: ('A' for Active; 'I' for Inactive)
    1  A    between atoms: C_13  and  C_29
    2  A    between atoms: C_16  and  C_27
                            x       y       z     vdW  Elec       q    Type
                         _______ _______ _______ _____ _____    ______ ____

>  <TORSDO>
F 2

$$$$
=
 OpenBabel11052419103D

 32 38  0  0  1  0  0  0  0  0999 V2000
  189.3880  175.1620  144.9320 C   0  0  0  0  0  0  0  0  0  0  0  0
  187.3570  176.4030  144.4190 C   0  0  0  0  0  0  0  0  0  0  0  0
  190.3730  174.7860  145.8580 C   0  0  0  0  0  3  0  0  0  0  0  0
  188.3480  176.0280  145.3400 C   0  0  0  0  0  0  0  0  0  0  0  0
  186.1720  177.2390  144.8800 C   0  0  2  0  0  3  0  0  0  0  0  0
  186.4730  177.3370  139.7730 C   0  0  0  0  0  3  0  0  0  0  0  0
  187.4690  175.9820  143.0870 C   0  0  0  0  0  0  0  0  0  0  0  0
  185.1870  178.5400  141.4670 C   0  0  0  0  0  3  0  0  0  0  0  0
  186.0590  177.9060  142.5150 C   0  0  1  0  0  3  0  0  0  0  0  0
  188.3370  176.5470  146.6520 C   0  0  0  0  0  0  0  0  0  0  0  0
  185.3700  177.8650  143.8050 N   0  0  0  0  0  2  0  0  0  0  0  0
  187.2540  177.4850  147.1150 C   0  0  0  0  0  2  0  0  0  0  0  0
  189.3250  176.1540  147.5590 C   0  0  0  0  0  3  0  0  0  0  0  0
  188.4720  175.1370  142.7210 N   0  0  0  0  0  0  0  0  0  0  0  0
  189.4180  174.7080  143.6000 C   0  0  0  0  0  0  0  0  0  0  0  0
  186.4760  176.4910  142.0890 C   0  0  1  0  0  3  0  0  0  0  0  0
  186.6070  178.2440  145.9500 C   0  0  2  0  0  3  0  0  0  0  0  0
  190.3380  175.2770  147.1650 C   0  0  0  0  0  3  0  0  0  0  0  0
  185.4200  178.2950  140.1710 C   0  0  0  0  0  3  0  0  0  0  0  0
  187.0100  176.5100  140.6770 C   0  0  0  0  0  3  0  0  0  0  0  0
  192.2780  173.4160  141.4730 C   0  0  2  0  0  3  0  0  0  0  0  0
  192.3840  170.2570  143.6750 O   0  0  0  0  0  0  0  0  0  0  0  0
  192.4970  173.5870  139.9810 C   0  0  0  0  0  1  0  0  0  0  0  0
  190.7170  171.3690  142.0860 C   0  0  2  0  0  3  0  0  0  0  0  0
  190.4950  173.7720  143.1200 C   0  0  1  0  0  3  0  0  0  0  0  0
  191.8610  172.0650  141.7370 N   0  0  0  0  0  0  0  0  0  0  0  0
  189.8510  172.3680  142.8740 C   0  0  0  0  0  2  0  0  0  0  0  0
  191.2070  174.3200  141.9300 N   0  0  0  0  0  0  0  0  0  0  0  0
  191.8800  175.5500  142.3320 C   0  0  0  0  0  1  0  0  0  0  0  0
  191.8320  170.9450  142.7790 C   0  0  0  0  0  0  0  0  0  0  0  0
  185.4120  179.0310  146.4690 C   0  0  0  0  0  2  0  0  0  0  0  0
  184.6450  178.2300  147.3150 O   0  0  0  0  0  1  0  0  0  0  0  0
  1  4  2  0  0  0  0
  1  3  1  0  0  0  0
  2  5  1  0  0  0  0
  2  4  1  0  0  0  0
  3 18  2  0  0  0  0
  4 10  1  0  0  0  0
  5 11  1  6  0  0  0
  5 17  1  0  0  0  0
  6 19  1  0  0  0  0
  6 20  2  0  0  0  0
  7  2  2  0  0  0  0
  9  8  1  6  0  0  0
  9 11  1  0  0  0  0
 10 12  1  0  0  0  0
 10 13  2  0  0  0  0
 14  7  1  0  0  0  0
 14 15  2  0  0  0  0
 15  1  1  0  0  0  0
 16 20  1  6  0  0  0
 16  9  1  0  0  0  0
 16  7  1  0  0  0  0
 17 31  1  1  0  0  0
 17 12  1  0  0  0  0
 18 13  1  0  0  0  0
 19  8  2  0  0  0  0
 21 23  1  6  0  0  0
 21 26  1  0  0  0  0
 21 28  1  0  0  0  0
 24 30  1  0  0  0  0
 24 27  1  1  0  0  0
 25 15  1  6  0  0  0
 26 24  1  0  0  0  0
 26 30  1  0  0  0  0
 27 25  1  0  0  0  0
 28 29  1  0  0  0  0
 28 25  1  0  0  0  0
 30 22  2  0  0  0  0
 31 32  1  0  0  0  0
M  END
>  <MODEL>
2

>  <REMARK>
 VINA RESULT:      -8.8      1.844      2.532
  Name = 
  2 active torsions:
  status: ('A' for Active; 'I' for Inactive)
    1  A    between atoms: C_13  and  C_29
    2  A    between atoms: C_16  and  C_27
                            x       y       z     vdW  Elec       q    Type
                         _______ _______ _______ _____ _____    ______ ____

>  <TORSDO>
F 2

$$$$
=
 OpenBabel11052419103D

 32 38  0  0  1  0  0  0  0  0999 V2000
  187.6960  176.9040  141.6920 C   0  0  0  0  0  0  0  0  0  0  0  0
  185.9770  178.0610  142.9710 C   0  0  0  0  0  0  0  0  0  0  0  0
  188.1410  176.3700  140.4740 C   0  0  0  0  0  3  0  0  0  0  0  0
  186.4250  177.5190  141.7560 C   0  0  0  0  0  0  0  0  0  0  0  0
  184.6620  178.8250  143.0210 C   0  0  2  0  0  3  0  0  0  0  0  0
  186.1160  177.5790  147.7670 C   0  0  0  0  0  3  0  0  0  0  0  0
  186.7620  177.9000  144.1210 C   0  0  0  0  0  0  0  0  0  0  0  0
  184.0950  178.5000  146.7470 C   0  0  0  0  0  3  0  0  0  0  0  0
  184.6910  178.2000  145.4000 C   0  0  1  0  0  3  0  0  0  0  0  0
  185.5960  177.5440  140.6140 C   0  0  0  0  0  0  0  0  0  0  0  0
  184.1060  179.0620  144.3730 N   0  0  0  0  0  2  0  0  0  0  0  0
  184.2290  178.1750  140.6510 C   0  0  0  0  0  2  0  0  0  0  0  0
  186.0630  177.0110  139.4100 C   0  0  0  0  0  3  0  0  0  0  0  0
  187.9890  177.3170  144.0320 N   0  0  0  0  0  0  0  0  0  0  0  0
  188.4800  176.8310  142.8580 C   0  0  0  0  0  0  0  0  0  0  0  0
  186.2170  178.3700  145.4330 C   0  0  1  0  0  3  0  0  0  0  0  0
  183.6410  178.2010  142.0670 C   0  0  2  0  0  3  0  0  0  0  0  0
  187.3300  176.4280  139.3380 C   0  0  0  0  0  3  0  0  0  0  0  0
  184.7610  178.1630  147.8590 C   0  0  0  0  0  3  0  0  0  0  0  0
  186.7960  177.6320  146.6150 C   0  0  0  0  0  3  0  0  0  0  0  0
  191.2090  174.3020  143.5870 C   0  0  2  0  0  3  0  0  0  0  0  0
  193.6490  176.4620  141.5320 O   0  0  0  0  0  0  0  0  0  0  0  0
  191.4320  173.4920  144.8510 C   0  0  0  0  0  1  0  0  0  0  0  0
  192.2810  176.7200  143.6780 C   0  0  2  0  0  3  0  0  0  0  0  0
  189.8480  176.2010  142.8400 C   0  0  1  0  0  3  0  0  0  0  0  0
  192.1940  175.3480  143.5170 N   0  0  0  0  0  0  0  0  0  0  0  0
  190.8840  177.2650  143.3290 C   0  0  0  0  0  2  0  0  0  0  0  0
  189.8770  174.9330  143.6240 N   0  0  0  0  0  0  0  0  0  0  0  0
  188.9780  173.9820  142.9820 C   0  0  0  0  0  1  0  0  0  0  0  0
  192.9820  176.2650  142.5790 C   0  0  0  0  0  0  0  0  0  0  0  0
  182.3500  179.0070  142.0560 C   0  0  0  0  0  2  0  0  0  0  0  0
  181.3130  178.2390  141.5240 O   0  0  0  0  0  1  0  0  0  0  0  0
  1  4  1  0  0  0  0
  1 15  2  0  0  0  0
  2  7  1  0  0  0  0
  3  1  1  0  0  0  0
  4  2  2  0  0  0  0
  5  2  1  1  0  0  0
  5 11  1  0  0  0  0
  6 19  1  0  0  0  0
  7 16  1  0  0  0  0
  8 19  2  0  0  0  0
  9 16  1  0  0  0  0
  9  8  1  1  0  0  0
 10 12  1  0  0  0  0
 10  4  1  0  0  0  0
 11  9  1  0  0  0  0
 12 17  1  0  0  0  0
 13 10  2  0  0  0  0
 14  7  2  0  0  0  0
 15 14  1  0  0  0  0
 16 20  1  1  0  0  0
 17 31  1  6  0  0  0
 17  5  1  0  0  0  0
 18 13  1  0  0  0  0
 18  3  2  0  0  0  0
 20  6  2  0  0  0  0
 21 28  1  0  0  0  0
 21 23  1  1  0  0  0
 22 30  2  0  0  0  0
 24 27  1  6  0  0  0
 25 15  1  1  0  0  0
 25 27  1  0  0  0  0
 25 28  1  0  0  0  0
 26 21  1  0  0  0  0
 26 24  1  0  0  0  0
 29 28  1  0  0  0  0
 30 26  1  0  0  0  0
 30 24  1  0  0  0  0
 32 31  1  0  0  0  0
M  END
>  <MODEL>
3

>  <REMARK>
 VINA RESULT:      -7.9      1.961      4.599
  Name = 
  2 active torsions:
  status: ('A' for Active; 'I' for Inactive)
    1  A    between atoms: C_13  and  C_29
    2  A    between atoms: C_16  and  C_27
                            x       y       z     vdW  Elec       q    Type
                         _______ _______ _______ _____ _____    ______ ____

>  <TORSDO>
F 2

$$$$
=
 OpenBabel11052419103D

 32 38  0  0  1  0  0  0  0  0999 V2000
  188.9580  176.0900  142.9240 C   0  0  0  0  0  0  0  0  0  0  0  0
  187.0350  177.5540  143.2220 C   0  0  0  0  0  0  0  0  0  0  0  0
  189.7210  175.2510  142.1000 C   0  0  0  0  0  3  0  0  0  0  0  0
  187.7990  176.7080  142.4020 C   0  0  0  0  0  0  0  0  0  0  0  0
  185.8540  178.3130  142.6350 C   0  0  2  0  0  3  0  0  0  0  0  0
  185.5640  178.3500  147.7440 C   0  0  0  0  0  3  0  0  0  0  0  0
  187.3860  177.6960  144.5710 C   0  0  0  0  0  0  0  0  0  0  0  0
  184.0810  178.9840  145.9090 C   0  0  0  0  0  3  0  0  0  0  0  0
  185.0500  178.3360  144.9590 C   0  0  1  0  0  3  0  0  0  0  0  0
  187.3920  176.4370  141.0780 C   0  0  0  0  0  0  0  0  0  0  0  0
  184.9150  178.9020  143.6170 N   0  0  0  0  0  2  0  0  0  0  0  0
  186.1540  177.0660  140.4950 C   0  0  0  0  0  2  0  0  0  0  0  0
  188.1720  175.6030  140.2730 C   0  0  0  0  0  3  0  0  0  0  0  0
  188.5140  177.1010  145.0490 N   0  0  0  0  0  0  0  0  0  0  0  0
  189.3100  176.3210  144.2670 C   0  0  0  0  0  0  0  0  0  0  0  0
  186.4910  178.4980  145.4630 C   0  0  1  0  0  3  0  0  0  0  0  0
  185.1430  177.4680  141.5750 C   0  0  2  0  0  3  0  0  0  0  0  0
  189.3320  175.0130  140.7790 C   0  0  0  0  0  3  0  0  0  0  0  0
  184.3150  178.9470  147.2260 C   0  0  0  0  0  3  0  0  0  0  0  0
  186.5830  178.0930  146.9150 C   0  0  0  0  0  3  0  0  0  0  0  0
  191.5760  174.8270  146.9150 C   0  0  2  0  0  3  0  0  0  0  0  0
  194.2770  174.3360  144.2120 O   0  0  0  0  0  0  0  0  0  0  0  0
  191.7020  175.2140  148.3770 C   0  0  0  0  0  1  0  0  0  0  0  0
  193.0610  176.3060  145.2980 C   0  0  2  0  0  3  0  0  0  0  0  0
  190.5430  175.6990  144.8670 C   0  0  1  0  0  3  0  0  0  0  0  0
  192.7270  175.3090  146.1980 N   0  0  0  0  0  0  0  0  0  0  0  0
  191.7700  176.6020  144.5140 C   0  0  0  0  0  2  0  0  0  0  0  0
  190.3790  175.4590  146.3300 N   0  0  0  0  0  0  0  0  0  0  0  0
  189.3020  174.4930  146.5120 C   0  0  0  0  0  1  0  0  0  0  0  0
  193.6270  175.0880  144.9810 C   0  0  0  0  0  0  0  0  0  0  0  0
  184.0090  178.2510  140.9310 C   0  0  0  0  0  2  0  0  0  0  0  0
  183.5240  177.5610  139.8200 O   0  0  0  0  0  1  0  0  0  0  0  0
  1 15  2  0  0  0  0
  2  7  1  0  0  0  0
  3  1  1  0  0  0  0
  4  1  1  0  0  0  0
  4  2  2  0  0  0  0
  5  2  1  1  0  0  0
  5 11  1  0  0  0  0
  7 14  2  0  0  0  0
  7 16  1  0  0  0  0
  8 19  2  0  0  0  0
  9 16  1  0  0  0  0
  9  8  1  1  0  0  0
 10  4  1  0  0  0  0
 11  9  1  0  0  0  0
 12 10  1  0  0  0  0
 12 17  1  0  0  0  0
 13 18  1  0  0  0  0
 13 10  2  0  0  0  0
 15 14  1  0  0  0  0
 16 20  1  1  0  0  0
 17 31  1  6  0  0  0
 17  5  1  0  0  0  0
 18  3  2  0  0  0  0
 19  6  1  0  0  0  0
 20  6  2  0  0  0  0
 21 23  1  1  0  0  0
 22 30  2  0  0  0  0
 24 27  1  6  0  0  0
 24 26  1  0  0  0  0
 25 15  1  1  0  0  0
 25 28  1  0  0  0  0
 26 21  1  0  0  0  0
 27 25  1  0  0  0  0
 28 29  1  0  0  0  0
 28 21  1  0  0  0  0
 30 24  1  0  0  0  0
 30 26  1  0  0  0  0
 32 31  1  0  0  0  0
M  END
>  <MODEL>
4

>  <REMARK>
 VINA RESULT:      -7.8      2.279      4.493
  Name = 
  2 active torsions:
  status: ('A' for Active; 'I' for Inactive)
    1  A    between atoms: C_13  and  C_29
    2  A    between atoms: C_16  and  C_27
                            x       y       z     vdW  Elec       q    Type
                         _______ _______ _______ _____ _____    ______ ____

>  <TORSDO>
F 2

$$$$
=
 OpenBabel11052419103D

 32 38  0  0  1  0  0  0  0  0999 V2000
  191.2780  174.0690  144.0480 C   0  0  0  0  0  0  0  0  0  0  0  0
  189.4700  175.5780  144.6670 C   0  0  0  0  0  0  0  0  0  0  0  0
  192.4940  173.4460  144.3660 C   0  0  0  0  0  3  0  0  0  0  0  0
  190.6900  174.9560  144.9780 C   0  0  0  0  0  0  0  0  0  0  0  0
  188.7740  176.4430  145.7070 C   0  0  2  0  0  3  0  0  0  0  0  0
  186.7770  177.3580  141.0860 C   0  0  0  0  0  3  0  0  0  0  0  0
  188.9040  175.3760  143.4000 C   0  0  0  0  0  0  0  0  0  0  0  0
  186.6020  178.3860  143.2950 C   0  0  0  0  0  3  0  0  0  0  0  0
  187.7310  177.5020  143.7480 C   0  0  1  0  0  3  0  0  0  0  0  0
  191.3520  175.2480  146.1890 C   0  0  0  0  0  0  0  0  0  0  0  0
  187.6930  177.3170  145.1990 N   0  0  0  0  0  2  0  0  0  0  0  0
  190.7620  176.2020  147.1950 C   0  0  0  0  0  2  0  0  0  0  0  0
  192.5590  174.6110  146.4880 C   0  0  0  0  0  3  0  0  0  0  0  0
  189.4820  174.5060  142.5270 N   0  0  0  0  0  0  0  0  0  0  0  0
  190.6340  173.8420  142.8170 C   0  0  0  0  0  0  0  0  0  0  0  0
  187.6710  176.1430  143.0360 C   0  0  1  0  0  3  0  0  0  0  0  0
  189.8010  177.2050  146.5480 C   0  0  2  0  0  3  0  0  0  0  0  0
  193.1280  173.7130  145.5820 C   0  0  0  0  0  3  0  0  0  0  0  0
  186.1890  178.3380  142.0230 C   0  0  0  0  0  3  0  0  0  0  0  0
  187.5150  176.3410  141.5480 C   0  0  0  0  0  3  0  0  0  0  0  0
  192.2080  172.6850  139.5670 C   0  0  2  0  0  3  0  0  0  0  0  0
  192.1750  169.0810  140.9270 O   0  0  0  0  0  0  0  0  0  0  0  0
  191.9730  173.2130  138.1650 C   0  0  0  0  0  1  0  0  0  0  0  0
  190.4430  170.8640  140.3230 C   0  0  2  0  0  3  0  0  0  0  0  0
  191.2110  172.8940  141.8000 C   0  0  1  0  0  3  0  0  0  0  0  0
  191.5560  171.4110  139.7080 N   0  0  0  0  0  0  0  0  0  0  0  0
  190.1740  171.7500  141.5520 C   0  0  0  0  0  2  0  0  0  0  0  0
  191.6210  173.6080  140.5560 N   0  0  0  0  0  0  0  0  0  0  0  0
  192.6880  174.5410  140.9000 C   0  0  0  0  0  1  0  0  0  0  0  0
  191.5670  170.0740  140.4520 C   0  0  0  0  0  0  0  0  0  0  0  0
  189.1130  178.0130  147.6400 C   0  0  0  0  0  2  0  0  0  0  0  0
  190.0660  178.6660  148.4210 O   0  0  0  0  0  1  0  0  0  0  0  0
  1  3  2  0  0  0  0
  1  4  1  0  0  0  0
  2  4  1  0  0  0  0
  3 18  1  0  0  0  0
  4 10  2  0  0  0  0
  5  2  1  6  0  0  0
  5 17  1  0  0  0  0
  6 20  2  0  0  0  0
  6 19  1  0  0  0  0
  7  2  2  0  0  0  0
  9  8  1  6  0  0  0
  9 11  1  0  0  0  0
 10 13  1  0  0  0  0
 10 12  1  0  0  0  0
 11  5  1  0  0  0  0
 14 15  2  0  0  0  0
 14  7  1  0  0  0  0
 15  1  1  0  0  0  0
 16 20  1  6  0  0  0
 16  7  1  0  0  0  0
 16  9  1  0  0  0  0
 17 12  1  0  0  0  0
 17 31  1  1  0  0  0
 18 13  2  0  0  0  0
 19  8  2  0  0  0  0
 21 23  1  6  0  0  0
 21 26  1  0  0  0  0
 21 28  1  0  0  0  0
 24 30  1  0  0  0  0
 24 27  1  1  0  0  0
 25 15  1  1  0  0  0
 26 24  1  0  0  0  0
 26 30  1  0  0  0  0
 27 25  1  0  0  0  0
 28 29  1  0  0  0  0
 28 25  1  0  0  0  0
 30 22  2  0  0  0  0
 31 32  1  0  0  0  0
M  END
>  <MODEL>
5

>  <REMARK>
 VINA RESULT:      -7.6      2.845      4.084
  Name = 
  2 active torsions:
  status: ('A' for Active; 'I' for Inactive)
    1  A    between atoms: C_13  and  C_29
    2  A    between atoms: C_16  and  C_27
                            x       y       z     vdW  Elec       q    Type
                         _______ _______ _______ _____ _____    ______ ____

>  <TORSDO>
F 2

$$$$
=
 OpenBabel11052419103D

 32 38  0  0  1  0  0  0  0  0999 V2000
  191.5680  174.5370  145.1280 C   0  0  0  0  0  0  0  0  0  0  0  0
  189.5810  174.9840  143.7940 C   0  0  0  0  0  0  0  0  0  0  0  0
  192.3660  174.8320  146.2430 C   0  0  0  0  0  3  0  0  0  0  0  0
  190.3860  175.2790  144.9050 C   0  0  0  0  0  0  0  0  0  0  0  0
  188.2500  175.6980  143.6110 C   0  0  2  0  0  3  0  0  0  0  0  0
  189.6170  173.4460  139.2240 C   0  0  0  0  0  3  0  0  0  0  0  0
  190.0140  174.0180  142.8750 C   0  0  0  0  0  0  0  0  0  0  0  0
  187.8900  175.0350  139.9040 C   0  0  0  0  0  3  0  0  0  0  0  0
  188.5770  175.1440  141.2370 C   0  0  1  0  0  3  0  0  0  0  0  0
  190.0460  176.3400  145.7720 C   0  0  0  0  0  0  0  0  0  0  0  0
  187.6370  175.5830  142.2680 N   0  0  0  0  0  2  0  0  0  0  0  0
  188.8030  177.1620  145.5550 C   0  0  0  0  0  2  0  0  0  0  0  0
  190.8520  176.6120  146.8800 C   0  0  0  0  0  3  0  0  0  0  0  0
  191.1490  173.3060  143.1170 N   0  0  0  0  0  0  0  0  0  0  0  0
  191.9240  173.5270  144.2150 C   0  0  0  0  0  0  0  0  0  0  0  0
  189.2110  173.8020  141.6300 C   0  0  1  0  0  3  0  0  0  0  0  0
  188.3470  177.1490  144.0910 C   0  0  2  0  0  3  0  0  0  0  0  0
  192.0070  175.8620  147.1160 C   0  0  0  0  0  3  0  0  0  0  0  0
  188.4160  174.2610  138.9470 C   0  0  0  0  0  3  0  0  0  0  0  0
  190.0280  173.2580  140.4840 C   0  0  0  0  0  3  0  0  0  0  0  0
  195.4280  172.2140  143.6000 C   0  0  2  0  0  3  0  0  0  0  0  0
  194.9910  169.8630  146.6200 O   0  0  0  0  0  0  0  0  0  0  0  0
  196.1360  171.9980  142.2750 C   0  0  0  0  0  1  0  0  0  0  0  0
  193.9010  170.1790  144.3280 C   0  0  2  0  0  3  0  0  0  0  0  0
  193.1650  172.6970  144.4160 C   0  0  1  0  0  3  0  0  0  0  0  0
  195.0420  170.9390  144.1430 N   0  0  0  0  0  0  0  0  0  0  0  0
  192.7470  171.1910  144.4480 C   0  0  0  0  0  2  0  0  0  0  0  0
  194.2030  173.0080  143.3910 N   0  0  0  0  0  0  0  0  0  0  0  0
  194.6060  174.3990  143.5620 C   0  0  0  0  0  1  0  0  0  0  0  0
  194.7350  170.1670  145.4270 C   0  0  0  0  0  0  0  0  0  0  0  0
  186.9990  177.8450  143.9810 C   0  0  0  0  0  2  0  0  0  0  0  0
  186.6670  178.4350  145.2010 O   0  0  0  0  0  1  0  0  0  0  0  0
  1  3  1  0  0  0  0
  2  4  1  0  0  0  0
  3 18  2  0  0  0  0
  4  1  2  0  0  0  0
  4 10  1  0  0  0  0
  5 11  1  6  0  0  0
  5  2  1  0  0  0  0
  5 17  1  0  0  0  0
  6 20  2  0  0  0  0
  7 14  1  0  0  0  0
  7  2  2  0  0  0  0
  9  8  1  6  0  0  0
  9 16  1  0  0  0  0
  9 11  1  0  0  0  0
 10 13  2  0  0  0  0
 12 10  1  0  0  0  0
 13 18  1  0  0  0  0
 14 15  2  0  0  0  0
 15  1  1  0  0  0  0
 16 20  1  6  0  0  0
 16  7  1  0  0  0  0
 17 31  1  1  0  0  0
 17 12  1  0  0  0  0
 19  6  1  0  0  0  0
 19  8  2  0  0  0  0
 21 23  1  6  0  0  0
 21 26  1  0  0  0  0
 24 27  1  1  0  0  0
 24 30  1  0  0  0  0
 25 15  1  6  0  0  0
 25 27  1  0  0  0  0
 26 24  1  0  0  0  0
 26 30  1  0  0  0  0
 28 29  1  0  0  0  0
 28 21  1  0  0  0  0
 28 25  1  0  0  0  0
 30 22  2  0  0  0  0
 31 32  1  0  0  0  0
M  END
>  <MODEL>
6

>  <REMARK>
 VINA RESULT:      -7.6      2.699      4.007
  Name = 
  2 active torsions:
  status: ('A' for Active; 'I' for Inactive)
    1  A    between atoms: C_13  and  C_29
    2  A    between atoms: C_16  and  C_27
                            x       y       z     vdW  Elec       q    Type
                         _______ _______ _______ _____ _____    ______ ____

>  <TORSDO>
F 2

$$$$
=
 OpenBabel11052419103D

 32 38  0  0  1  0  0  0  0  0999 V2000
  192.0330  175.3670  144.9170 C   0  0  0  0  0  0  0  0  0  0  0  0
  190.0660  174.8780  143.5680 C   0  0  0  0  0  0  0  0  0  0  0  0
  192.6100  176.0020  146.0260 C   0  0  0  0  0  3  0  0  0  0  0  0
  190.6490  175.5160  144.6740 C   0  0  0  0  0  0  0  0  0  0  0  0
  188.5590  174.9380  143.3660 C   0  0  2  0  0  3  0  0  0  0  0  0
  190.8210  173.4180  139.0360 C   0  0  0  0  0  3  0  0  0  0  0  0
  190.8860  174.1780  142.6730 C   0  0  0  0  0  0  0  0  0  0  0  0
  188.5670  174.1100  139.6750 C   0  0  0  0  0  3  0  0  0  0  0  0
  189.1220  174.5340  141.0070 C   0  0  1  0  0  3  0  0  0  0  0  0
  189.8710  176.3410  145.5160 C   0  0  0  0  0  0  0  0  0  0  0  0
  188.0720  174.5410  142.0260 N   0  0  0  0  0  2  0  0  0  0  0  0
  188.3970  176.5360  145.2770 C   0  0  0  0  0  2  0  0  0  0  0  0
  190.4660  176.9580  146.6190 C   0  0  0  0  0  3  0  0  0  0  0  0
  192.2150  174.0360  142.9340 N   0  0  0  0  0  0  0  0  0  0  0  0
  192.8040  174.5940  144.0280 C   0  0  0  0  0  0  0  0  0  0  0  0
  190.2710  173.6100  141.4320 C   0  0  1  0  0  3  0  0  0  0  0  0
  188.0100  176.2960  143.8130 C   0  0  2  0  0  3  0  0  0  0  0  0
  191.8290  176.7900  146.8750 C   0  0  0  0  0  3  0  0  0  0  0  0
  189.3880  173.6230  138.7370 C   0  0  0  0  0  3  0  0  0  0  0  0
  191.2580  173.4520  140.3000 C   0  0  0  0  0  3  0  0  0  0  0  0
  196.5070  174.4640  143.2260 C   0  0  2  0  0  3  0  0  0  0  0  0
  197.1790  173.4170  146.8720 O   0  0  0  0  0  0  0  0  0  0  0  0
  197.1780  174.0320  141.9350 C   0  0  0  0  0  1  0  0  0  0  0  0
  195.9450  172.4520  144.8500 C   0  0  2  0  0  3  0  0  0  0  0  0
  194.2790  174.3900  144.2500 C   0  0  1  0  0  3  0  0  0  0  0  0
  196.6830  173.4360  144.2170 N   0  0  0  0  0  0  0  0  0  0  0  0
  194.4920  172.9610  144.8490 C   0  0  0  0  0  2  0  0  0  0  0  0
  195.0600  174.6390  143.0040 N   0  0  0  0  0  0  0  0  0  0  0  0
  194.8890  176.0390  142.6340 C   0  0  0  0  0  1  0  0  0  0  0  0
  196.7670  173.1430  145.7160 C   0  0  0  0  0  0  0  0  0  0  0  0
  186.4940  176.3350  143.6850 C   0  0  0  0  0  2  0  0  0  0  0  0
  185.9270  176.7910  144.8750 O   0  0  0  0  0  1  0  0  0  0  0  0
  1  3  1  0  0  0  0
  2  4  1  0  0  0  0
  3 18  2  0  0  0  0
  4  1  2  0  0  0  0
  4 10  1  0  0  0  0
  5 11  1  6  0  0  0
  5  2  1  0  0  0  0
  5 17  1  0  0  0  0
  6 20  2  0  0  0  0
  7 14  1  0  0  0  0
  7  2  2  0  0  0  0
  9  8  1  6  0  0  0
  9 16  1  0  0  0  0
  9 11  1  0  0  0  0
 10 13  2  0  0  0  0
 12 10  1  0  0  0  0
 13 18  1  0  0  0  0
 14 15  2  0  0  0  0
 15  1  1  0  0  0  0
 16 20  1  6  0  0  0
 16  7  1  0  0  0  0
 17 31  1  1  0  0  0
 17 12  1  0  0  0  0
 19  6  1  0  0  0  0
 19  8  2  0  0  0  0
 21 23  1  6  0  0  0
 21 26  1  0  0  0  0
 24 27  1  1  0  0  0
 24 30  1  0  0  0  0
 25 15  1  6  0  0  0
 25 27  1  0  0  0  0
 26 24  1  0  0  0  0
 26 30  1  0  0  0  0
 28 21  1  0  0  0  0
 28 25  1  0  0  0  0
 29 28  1  0  0  0  0
 30 22  2  0  0  0  0
 31 32  1  0  0  0  0
M  END
>  <MODEL>
7

>  <REMARK>
 VINA RESULT:      -7.6      2.623      4.187
  Name = 
  2 active torsions:
  status: ('A' for Active; 'I' for Inactive)
    1  A    between atoms: C_13  and  C_29
    2  A    between atoms: C_16  and  C_27
                            x       y       z     vdW  Elec       q    Type
                         _______ _______ _______ _____ _____    ______ ____

>  <TORSDO>
F 2

$$$$
=
 OpenBabel11052419103D

 32 38  0  0  1  0  0  0  0  0999 V2000
  187.7880  176.4360  142.3850 C   0  0  0  0  0  0  0  0  0  0  0  0
  188.4910  174.3280  141.3910 C   0  0  0  0  0  0  0  0  0  0  0  0
  187.1850  177.6950  142.2470 C   0  0  0  0  0  3  0  0  0  0  0  0
  187.8930  175.5910  141.2570 C   0  0  0  0  0  0  0  0  0  0  0  0
  188.5040  173.3670  140.2110 C   0  0  2  0  0  3  0  0  0  0  0  0
  191.8820  171.8230  143.7300 C   0  0  0  0  0  3  0  0  0  0  0  0
  189.0560  173.9670  142.6220 C   0  0  0  0  0  0  0  0  0  0  0  0
  191.3550  171.1990  141.4280 C   0  0  0  0  0  3  0  0  0  0  0  0
  190.4560  172.4020  141.3540 C   0  0  1  0  0  3  0  0  0  0  0  0
  187.4390  176.0370  139.9970 C   0  0  0  0  0  0  0  0  0  0  0  0
  189.4320  172.2190  140.3250 N   0  0  0  0  0  2  0  0  0  0  0  0
  187.5510  175.1690  138.7720 C   0  0  0  0  0  2  0  0  0  0  0  0
  186.8350  177.2920  139.8850 C   0  0  0  0  0  3  0  0  0  0  0  0
  188.9310  174.7920  143.6970 N   0  0  0  0  0  0  0  0  0  0  0  0
  188.3070  175.9990  143.6180 C   0  0  0  0  0  0  0  0  0  0  0  0
  189.8010  172.6720  142.7160 C   0  0  1  0  0  3  0  0  0  0  0  0
  188.6730  174.1320  138.8960 C   0  0  2  0  0  3  0  0  0  0  0  0
  186.7070  178.1180  141.0050 C   0  0  0  0  0  3  0  0  0  0  0  0
  192.0560  170.9600  142.5430 C   0  0  0  0  0  3  0  0  0  0  0  0
  190.8450  172.6660  143.8050 C   0  0  0  0  0  3  0  0  0  0  0  0
  189.4150  177.7740  146.7800 C   0  0  2  0  0  3  0  0  0  0  0  0
  185.8410  179.1630  147.1570 O   0  0  0  0  0  0  0  0  0  0  0  0
  190.4070  177.3040  147.8270 C   0  0  0  0  0  1  0  0  0  0  0  0
  186.9600  176.8630  147.1640 C   0  0  2  0  0  3  0  0  0  0  0  0
  188.2060  176.8550  144.8530 C   0  0  1  0  0  3  0  0  0  0  0  0
  188.0810  177.6610  147.3080 N   0  0  0  0  0  0  0  0  0  0  0  0
  187.0210  176.3230  145.7240 C   0  0  0  0  0  2  0  0  0  0  0  0
  189.5040  176.9170  145.5840 N   0  0  0  0  0  0  0  0  0  0  0  0
  190.4830  177.5620  144.7150 C   0  0  0  0  0  1  0  0  0  0  0  0
  186.6540  178.2070  147.2320 C   0  0  0  0  0  0  0  0  0  0  0  0
  188.6090  173.1840  137.7070 C   0  0  0  0  0  2  0  0  0  0  0  0
  189.6390  173.4730  136.8110 O   0  0  0  0  0  1  0  0  0  0  0  0
  1 15  2  0  0  0  0
  2  7  1  0  0  0  0
  3  1  1  0  0  0  0
  4  2  2  0  0  0  0
  4  1  1  0  0  0  0
  5 11  1  1  0  0  0
  5  2  1  0  0  0  0
  6 20  2  0  0  0  0
  7 16  1  0  0  0  0
  7 14  2  0  0  0  0
  8 19  2  0  0  0  0
  9  8  1  1  0  0  0
  9 16  1  0  0  0  0
 10  4  1  0  0  0  0
 11  9  1  0  0  0  0
 12 17  1  0  0  0  0
 12 10  1  0  0  0  0
 13 10  2  0  0  0  0
 13 18  1  0  0  0  0
 15 14  1  0  0  0  0
 16 20  1  1  0  0  0
 17 31  1  6  0  0  0
 17  5  1  0  0  0  0
 18  3  2  0  0  0  0
 19  6  1  0  0  0  0
 21 26  1  0  0  0  0
 21 23  1  1  0  0  0
 22 30  2  0  0  0  0
 24 27  1  6  0  0  0
 24 30  1  0  0  0  0
 24 26  1  0  0  0  0
 25 15  1  6  0  0  0
 25 28  1  0  0  0  0
 25 27  1  0  0  0  0
 28 21  1  0  0  0  0
 29 28  1  0  0  0  0
 30 26  1  0  0  0  0
 32 31  1  0  0  0  0
M  END
>  <MODEL>
8

>  <REMARK>
 VINA RESULT:      -7.6      2.606      7.243
  Name = 
  2 active torsions:
  status: ('A' for Active; 'I' for Inactive)
    1  A    between atoms: C_13  and  C_29
    2  A    between atoms: C_16  and  C_27
                            x       y       z     vdW  Elec       q    Type
                         _______ _______ _______ _____ _____    ______ ____

>  <TORSDO>
F 2

$$$$
=
 OpenBabel11052419103D

 32 38  0  0  1  0  0  0  0  0999 V2000
  192.1960  173.9690  142.1800 C   0  0  0  0  0  0  0  0  0  0  0  0
  190.6280  175.4990  143.2430 C   0  0  0  0  0  0  0  0  0  0  0  0
  192.4770  173.0350  141.1720 C   0  0  0  0  0  3  0  0  0  0  0  0
  190.9130  174.5580  142.2400 C   0  0  0  0  0  0  0  0  0  0  0  0
  189.2900  176.2220  143.2450 C   0  0  2  0  0  3  0  0  0  0  0  0
  191.5590  176.7770  147.7980 C   0  0  0  0  0  3  0  0  0  0  0  0
  191.5950  175.7670  144.2210 C   0  0  0  0  0  0  0  0  0  0  0  0
  189.3450  177.2580  146.8830 C   0  0  0  0  0  3  0  0  0  0  0  0
  189.7380  176.4960  145.6480 C   0  0  1  0  0  3  0  0  0  0  0  0
  189.9130  174.1660  141.3240 C   0  0  0  0  0  0  0  0  0  0  0  0
  188.9410  176.9280  144.4990 N   0  0  0  0  0  2  0  0  0  0  0  0
  188.5300  174.7610  141.3710 C   0  0  0  0  0  2  0  0  0  0  0  0
  190.2170  173.2380  140.3250 C   0  0  0  0  0  3  0  0  0  0  0  0
  192.8290  175.1980  144.1340 N   0  0  0  0  0  0  0  0  0  0  0  0
  193.1580  174.3250  143.1430 C   0  0  0  0  0  0  0  0  0  0  0  0
  191.2340  176.6760  145.3550 C   0  0  1  0  0  3  0  0  0  0  0  0
  188.1730  175.2910  142.7640 C   0  0  2  0  0  3  0  0  0  0  0  0
  191.4930  172.6750  140.2480 C   0  0  0  0  0  3  0  0  0  0  0  0
  190.2000  177.3480  147.9090 C   0  0  0  0  0  3  0  0  0  0  0  0
  192.0430  176.4160  146.6030 C   0  0  0  0  0  3  0  0  0  0  0  0
  196.2300  172.4660  144.3630 C   0  0  2  0  0  3  0  0  0  0  0  0
  197.9070  173.1730  140.9680 O   0  0  0  0  0  0  0  0  0  0  0  0
  196.8130  172.4250  145.7630 C   0  0  0  0  0  1  0  0  0  0  0  0
  197.0360  174.5480  142.9410 C   0  0  2  0  0  3  0  0  0  0  0  0
  194.5450  173.7390  143.1120 C   0  0  1  0  0  3  0  0  0  0  0  0
  197.0590  173.2950  143.5290 N   0  0  0  0  0  0  0  0  0  0  0  0
  195.5480  174.8720  142.7180 C   0  0  0  0  0  2  0  0  0  0  0  0
  194.8820  173.0630  144.3980 N   0  0  0  0  0  0  0  0  0  0  0  0
  193.9650  171.9420  144.5750 C   0  0  0  0  0  1  0  0  0  0  0  0
  197.5160  173.5690  142.0950 C   0  0  0  0  0  0  0  0  0  0  0  0
  186.8460  176.0310  142.6920 C   0  0  0  0  0  2  0  0  0  0  0  0
  186.8220  176.8590  141.5690 O   0  0  0  0  0  1  0  0  0  0  0  0
  1  4  1  0  0  0  0
  1 15  2  0  0  0  0
  2  7  1  0  0  0  0
  3  1  1  0  0  0  0
  4  2  2  0  0  0  0
  5  2  1  1  0  0  0
  5 11  1  0  0  0  0
  6 19  1  0  0  0  0
  7 16  1  0  0  0  0
  8 19  2  0  0  0  0
  9  8  1  1  0  0  0
 10 12  1  0  0  0  0
 10  4  1  0  0  0  0
 11  9  1  0  0  0  0
 12 17  1  0  0  0  0
 13 10  2  0  0  0  0
 14  7  2  0  0  0  0
 15 14  1  0  0  0  0
 16  9  1  0  0  0  0
 16 20  1  1  0  0  0
 17 31  1  6  0  0  0
 17  5  1  0  0  0  0
 18 13  1  0  0  0  0
 18  3  2  0  0  0  0
 20  6  2  0  0  0  0
 21 28  1  0  0  0  0
 21 23  1  1  0  0  0
 22 30  2  0  0  0  0
 24 27  1  6  0  0  0
 24 26  1  0  0  0  0
 25 15  1  1  0  0  0
 25 28  1  0  0  0  0
 26 21  1  0  0  0  0
 27 25  1  0  0  0  0
 28 29  1  0  0  0  0
 30 24  1  0  0  0  0
 30 26  1  0  0  0  0
 32 31  1  0  0  0  0
M  END
>  <MODEL>
9

>  <REMARK>
 VINA RESULT:      -7.5      2.574      5.525
  Name = 
  2 active torsions:
  status: ('A' for Active; 'I' for Inactive)
    1  A    between atoms: C_13  and  C_29
    2  A    between atoms: C_16  and  C_27
                            x       y       z     vdW  Elec       q    Type
                         _______ _______ _______ _____ _____    ______ ____

>  <TORSDO>
F 2

$$$$
