=
 OpenBabel11052417393D

 31 35  0  0  0  0  0  0  0  0999 V2000
  187.1330  176.4380  140.7260 C   0  0  0  0  0  0  0  0  0  0  0  0
  187.3560  176.6020  144.4860 C   0  0  0  0  0  0  0  0  0  0  0  0
  186.2790  177.4480  144.9150 C   0  0  0  0  0  0  0  0  0  0  0  0
  184.1290  178.7520  144.4770 C   0  0  0  0  0  3  0  0  0  0  0  0
  187.6330  176.2890  143.1160 C   0  0  0  0  0  0  0  0  0  0  0  0
  188.2270  175.6290  140.4300 C   0  0  0  0  0  3  0  0  0  0  0  0
  185.4330  178.2380  143.9320 C   0  0  0  0  0  2  0  0  0  0  0  0
  189.2940  175.2100  145.1270 C   0  0  0  0  0  0  0  0  0  0  0  0
  186.1220  177.0530  139.4360 Cl  0  0  0  0  0  0  0  0  0  0  0  0
  186.9090  177.0870  147.2410 C   0  0  0  0  0  3  0  0  0  0  0  0
  183.9140  178.9050  145.7800 C   0  0  0  0  0  3  0  0  0  0  0  0
  189.5470  174.9380  143.7890 C   0  0  0  0  0  3  0  0  0  0  0  0
  188.2050  176.0310  145.4860 C   0  0  0  0  0  0  0  0  0  0  0  0
  186.8410  176.7600  142.0530 C   0  0  0  0  0  3  0  0  0  0  0  0
  184.9210  178.4780  146.7520 C   0  0  0  0  0  0  0  0  0  0  0  0
  188.7360  175.4570  142.7910 C   0  0  0  0  0  0  0  0  0  0  0  0
  189.0260  175.1390  141.4610 C   0  0  0  0  0  3  0  0  0  0  0  0
  187.9630  176.2850  146.8390 C   0  0  0  0  0  3  0  0  0  0  0  0
  186.0700  177.6700  146.2970 C   0  0  0  0  0  0  0  0  0  0  0  0
  184.7670  178.7580  147.9710 O   0  0  0  0  0  0  0  0  0  0  0  0
  190.2260  174.6290  146.1480 C   0  0  0  0  0  2  0  0  0  0  0  0
  195.0560  173.3640  145.1470 C   0  0  0  0  0  0  0  0  0  0  0  0
  192.6920  173.5460  145.2090 N   0  0  0  0  0  0  0  0  0  0  0  0
  194.0820  176.3680  146.7530 O   0  0  0  0  0  0  0  0  0  0  0  0
  191.4970  176.6060  146.4890 O   0  0  0  0  0  0  0  0  0  0  0  0
  196.2030  172.6680  144.7910 O   0  0  0  0  0  1  0  0  0  0  0  0
  191.5180  175.3860  146.1720 C   0  0  0  0  0  0  0  0  0  0  0  0
  193.8010  172.8480  144.8540 C   0  0  0  0  0  3  0  0  0  0  0  0
  193.9840  175.2670  146.1480 C   0  0  0  0  0  0  0  0  0  0  0  0
  192.7590  174.7260  145.8380 N   0  0  0  0  0  0  0  0  0  0  0  0
  195.1490  174.5860  145.8010 C   0  0  0  0  0  3  0  0  0  0  0  0
  1 14  1  0  0  0  0
  2  3  2  0  0  0  0
  2 13  1  0  0  0  0
  3 19  1  0  0  0  0
  4 11  2  0  0  0  0
  5  2  1  0  0  0  0
  6  1  2  0  0  0  0
  6 17  1  0  0  0  0
  7  4  1  0  0  0  0
  7  3  1  0  0  0  0
  8 13  1  0  0  0  0
  8 21  1  0  0  0  0
  9  1  1  0  0  0  0
 11 15  1  0  0  0  0
 12  8  2  0  0  0  0
 13 18  2  0  0  0  0
 14  5  2  0  0  0  0
 15 20  2  0  0  0  0
 16  5  1  0  0  0  0
 16 12  1  0  0  0  0
 17 16  2  0  0  0  0
 18 10  1  0  0  0  0
 19 15  1  0  0  0  0
 19 10  2  0  0  0  0
 21 27  1  0  0  0  0
 22 31  2  0  0  0  0
 23 30  1  0  0  0  0
 26 22  1  0  0  0  0
 27 25  2  0  0  0  0
 28 22  1  0  0  0  0
 28 23  2  0  0  0  0
 29 24  2  0  0  0  0
 30 29  1  0  0  0  0
 30 27  1  0  0  0  0
 31 29  1  0  0  0  0
M  END
>  <MODEL>
1

>  <REMARK>
 VINA RESULT:      -9.1      0.000      0.000
  Name = 
  2 active torsions:
  status: ('A' for Active; 'I' for Inactive)
    1  A    between atoms: C_9  and  C_23
    2  A    between atoms: C_15  and  C_23
                            x       y       z     vdW  Elec       q    Type
                         _______ _______ _______ _____ _____    ______ ____

>  <TORSDO>
F 2

$$$$
=
 OpenBabel11052417393D

 31 35  0  0  0  0  0  0  0  0999 V2000
  184.0500  178.1300  141.0720 C   0  0  0  0  0  0  0  0  0  0  0  0
  186.6900  177.9590  143.7590 C   0  0  0  0  0  0  0  0  0  0  0  0
  186.0120  178.1950  145.0020 C   0  0  0  0  0  0  0  0  0  0  0  0
  183.8880  178.4640  146.3930 C   0  0  0  0  0  3  0  0  0  0  0  0
  186.0410  177.9530  142.4820 C   0  0  0  0  0  0  0  0  0  0  0  0
  184.8190  177.9200  139.9310 C   0  0  0  0  0  3  0  0  0  0  0  0
  184.5600  178.6370  145.0580 C   0  0  0  0  0  2  0  0  0  0  0  0
  188.8240  177.4960  142.6060 C   0  0  0  0  0  0  0  0  0  0  0  0
  182.3230  178.3770  140.9330 Cl  0  0  0  0  0  0  0  0  0  0  0  0
  188.1050  177.8920  146.2120 C   0  0  0  0  0  3  0  0  0  0  0  0
  184.5760  178.3620  147.5270 C   0  0  0  0  0  3  0  0  0  0  0  0
  188.1710  177.5120  141.3800 C   0  0  0  0  0  3  0  0  0  0  0  0
  188.0980  177.7120  143.7950 C   0  0  0  0  0  0  0  0  0  0  0  0
  184.6560  178.1430  142.3300 C   0  0  0  0  0  3  0  0  0  0  0  0
  186.0380  178.3160  147.5050 C   0  0  0  0  0  0  0  0  0  0  0  0
  186.8040  177.7300  141.3050 C   0  0  0  0  0  0  0  0  0  0  0  0
  186.1930  177.7200  140.0480 C   0  0  0  0  0  3  0  0  0  0  0  0
  188.7740  177.6830  145.0180 C   0  0  0  0  0  3  0  0  0  0  0  0
  186.7380  178.1490  146.2160 C   0  0  0  0  0  0  0  0  0  0  0  0
  186.6770  178.3640  148.5900 O   0  0  0  0  0  0  0  0  0  0  0  0
  190.3080  177.2740  142.6060 C   0  0  0  0  0  2  0  0  0  0  0  0
  193.9910  175.3760  145.5650 C   0  0  0  0  0  0  0  0  0  0  0  0
  192.3510  176.7330  144.5210 N   0  0  0  0  0  0  0  0  0  0  0  0
  191.8120  173.3980  143.5920 O   0  0  0  0  0  0  0  0  0  0  0  0
  189.8830  174.9420  142.7510 O   0  0  0  0  0  0  0  0  0  0  0  0
  195.1000  175.2420  146.3890 O   0  0  0  0  0  1  0  0  0  0  0  0
  190.6340  175.8960  143.0930 C   0  0  0  0  0  0  0  0  0  0  0  0
  193.4360  176.6260  145.3300 C   0  0  0  0  0  3  0  0  0  0  0  0
  192.3090  174.4180  144.1410 C   0  0  0  0  0  0  0  0  0  0  0  0
  191.7860  175.6710  143.9340 N   0  0  0  0  0  0  0  0  0  0  0  0
  193.4230  174.2590  144.9640 C   0  0  0  0  0  3  0  0  0  0  0  0
  1 14  1  0  0  0  0
  2 13  2  0  0  0  0
  2  3  1  0  0  0  0
  3  7  1  0  0  0  0
  3 19  2  0  0  0  0
  4 11  2  0  0  0  0
  5  2  1  0  0  0  0
  6 17  1  0  0  0  0
  6  1  2  0  0  0  0
  7  4  1  0  0  0  0
  8 21  1  0  0  0  0
  8 13  1  0  0  0  0
  9  1  1  0  0  0  0
 10 19  1  0  0  0  0
 12  8  2  0  0  0  0
 13 18  1  0  0  0  0
 14  5  2  0  0  0  0
 15 11  1  0  0  0  0
 15 20  2  0  0  0  0
 16 12  1  0  0  0  0
 16  5  1  0  0  0  0
 17 16  2  0  0  0  0
 18 10  2  0  0  0  0
 19 15  1  0  0  0  0
 21 27  1  0  0  0  0
 22 26  1  0  0  0  0
 23 28  2  0  0  0  0
 24 29  2  0  0  0  0
 25 27  2  0  0  0  0
 27 30  1  0  0  0  0
 28 22  1  0  0  0  0
 29 31  1  0  0  0  0
 30 29  1  0  0  0  0
 30 23  1  0  0  0  0
 31 22  2  0  0  0  0
M  END
>  <MODEL>
2

>  <REMARK>
 VINA RESULT:      -9.1      2.145      3.008
  Name = 
  2 active torsions:
  status: ('A' for Active; 'I' for Inactive)
    1  A    between atoms: C_9  and  C_23
    2  A    between atoms: C_15  and  C_23
                            x       y       z     vdW  Elec       q    Type
                         _______ _______ _______ _____ _____    ______ ____

>  <TORSDO>
F 2

$$$$
=
 OpenBabel11052417393D

 31 35  0  0  0  0  0  0  0  0999 V2000
  185.4340  177.7700  146.6150 C   0  0  0  0  0  0  0  0  0  0  0  0
  187.3000  176.5470  143.5750 C   0  0  0  0  0  0  0  0  0  0  0  0
  186.5350  176.9720  142.4370 C   0  0  0  0  0  0  0  0  0  0  0  0
  184.6540  178.3260  141.3680 C   0  0  0  0  0  3  0  0  0  0  0  0
  186.9250  176.8020  144.9340 C   0  0  0  0  0  0  0  0  0  0  0  0
  186.2420  177.2800  147.6370 C   0  0  0  0  0  3  0  0  0  0  0  0
  185.1530  177.5860  142.5780 C   0  0  0  0  0  2  0  0  0  0  0  0
  189.2980  175.3640  144.4170 C   0  0  0  0  0  0  0  0  0  0  0  0
  183.9910  178.6810  146.9980 Cl  0  0  0  0  0  0  0  0  0  0  0  0
  188.2010  176.0070  140.9440 C   0  0  0  0  0  3  0  0  0  0  0  0
  185.1410  178.1080  140.1500 C   0  0  0  0  0  3  0  0  0  0  0  0
  188.9000  175.6120  145.7240 C   0  0  0  0  0  3  0  0  0  0  0  0
  188.5140  175.8280  143.3400 C   0  0  0  0  0  0  0  0  0  0  0  0
  185.7750  177.5350  145.2810 C   0  0  0  0  0  3  0  0  0  0  0  0
  186.2680  177.1950  139.9560 C   0  0  0  0  0  0  0  0  0  0  0  0
  187.7390  176.3220  145.9920 C   0  0  0  0  0  0  0  0  0  0  0  0
  187.3930  176.5580  147.3260 C   0  0  0  0  0  3  0  0  0  0  0  0
  188.9380  175.5740  142.0330 C   0  0  0  0  0  3  0  0  0  0  0  0
  187.0090  176.6980  141.1320 C   0  0  0  0  0  0  0  0  0  0  0  0
  186.6250  176.8890  138.7870 O   0  0  0  0  0  0  0  0  0  0  0  0
  190.5540  174.5720  144.2060 C   0  0  0  0  0  2  0  0  0  0  0  0
  195.3550  173.6890  145.6570 C   0  0  0  0  0  0  0  0  0  0  0  0
  193.1570  173.5530  144.7780 N   0  0  0  0  0  0  0  0  0  0  0  0
  193.9320  176.9210  145.3610 O   0  0  0  0  0  0  0  0  0  0  0  0
  191.6560  176.6730  144.1080 O   0  0  0  0  0  0  0  0  0  0  0  0
  196.5280  173.0750  146.0720 O   0  0  0  0  0  1  0  0  0  0  0  0
  191.7610  175.4440  144.3710 C   0  0  0  0  0  0  0  0  0  0  0  0
  194.2940  172.9310  145.1800 C   0  0  0  0  0  3  0  0  0  0  0  0
  194.0400  175.6670  145.2920 C   0  0  0  0  0  0  0  0  0  0  0  0
  193.0130  174.8840  144.8220 N   0  0  0  0  0  0  0  0  0  0  0  0
  195.2270  175.0710  145.7140 C   0  0  0  0  0  3  0  0  0  0  0  0
  1  9  1  0  0  0  0
  1  6  1  0  0  0  0
  2  5  1  0  0  0  0
  3  7  1  0  0  0  0
  3  2  1  0  0  0  0
  4  7  1  0  0  0  0
  5 14  1  0  0  0  0
  5 16  2  0  0  0  0
  8 12  2  0  0  0  0
 10 19  1  0  0  0  0
 10 18  2  0  0  0  0
 11  4  2  0  0  0  0
 12 16  1  0  0  0  0
 13  2  2  0  0  0  0
 13  8  1  0  0  0  0
 14  1  2  0  0  0  0
 15 11  1  0  0  0  0
 15 19  1  0  0  0  0
 16 17  1  0  0  0  0
 17  6  2  0  0  0  0
 18 13  1  0  0  0  0
 19  3  2  0  0  0  0
 20 15  2  0  0  0  0
 21 27  1  0  0  0  0
 21  8  1  0  0  0  0
 22 31  2  0  0  0  0
 22 26  1  0  0  0  0
 23 30  1  0  0  0  0
 23 28  2  0  0  0  0
 25 27  2  0  0  0  0
 27 30  1  0  0  0  0
 28 22  1  0  0  0  0
 29 24  2  0  0  0  0
 29 31  1  0  0  0  0
 30 29  1  0  0  0  0
M  END
>  <MODEL>
3

>  <REMARK>
 VINA RESULT:      -8.8      2.480      4.213
  Name = 
  2 active torsions:
  status: ('A' for Active; 'I' for Inactive)
    1  A    between atoms: C_9  and  C_23
    2  A    between atoms: C_15  and  C_23
                            x       y       z     vdW  Elec       q    Type
                         _______ _______ _______ _____ _____    ______ ____

>  <TORSDO>
F 2

$$$$
=
 OpenBabel11052417393D

 31 35  0  0  0  0  0  0  0  0999 V2000
  187.0520  176.5600  140.6090 C   0  0  0  0  0  0  0  0  0  0  0  0
  187.9330  176.2350  144.2610 C   0  0  0  0  0  0  0  0  0  0  0  0
  187.2090  177.2710  144.9420 C   0  0  0  0  0  0  0  0  0  0  0  0
  185.4440  179.1140  145.0070 C   0  0  0  0  0  3  0  0  0  0  0  0
  187.8840  176.0200  142.8460 C   0  0  0  0  0  0  0  0  0  0  0  0
  187.8240  175.5400  140.0580 C   0  0  0  0  0  3  0  0  0  0  0  0
  186.4540  178.3540  144.1910 C   0  0  0  0  0  2  0  0  0  0  0  0
  189.5070  174.3380  144.4290 C   0  0  0  0  0  0  0  0  0  0  0  0
  186.0420  177.5500  139.5790 Cl  0  0  0  0  0  0  0  0  0  0  0  0
  188.0970  176.5020  147.0760 C   0  0  0  0  0  3  0  0  0  0  0  0
  185.4980  179.1670  146.3350 C   0  0  0  0  0  3  0  0  0  0  0  0
  189.4520  174.1650  143.0520 C   0  0  0  0  0  3  0  0  0  0  0  0
  188.7530  175.3610  145.0420 C   0  0  0  0  0  0  0  0  0  0  0  0
  187.0820  176.7920  141.9860 C   0  0  0  0  0  3  0  0  0  0  0  0
  186.5010  178.3940  147.0670 C   0  0  0  0  0  0  0  0  0  0  0  0
  188.6550  174.9800  142.2630 C   0  0  0  0  0  0  0  0  0  0  0  0
  188.6230  174.7520  140.8840 C   0  0  0  0  0  3  0  0  0  0  0  0
  188.8170  175.5120  146.4300 C   0  0  0  0  0  3  0  0  0  0  0  0
  187.3000  177.3800  146.3500 C   0  0  0  0  0  0  0  0  0  0  0  0
  186.6330  178.5650  148.3080 O   0  0  0  0  0  0  0  0  0  0  0  0
  190.4060  173.4300  145.2140 C   0  0  0  0  0  2  0  0  0  0  0  0
  194.2120  176.7870  145.6470 C   0  0  0  0  0  0  0  0  0  0  0  0
  192.3040  175.4170  145.9800 N   0  0  0  0  0  0  0  0  0  0  0  0
  194.1670  174.1250  143.3080 O   0  0  0  0  0  0  0  0  0  0  0  0
  192.2120  172.5260  143.9640 O   0  0  0  0  0  0  0  0  0  0  0  0
  194.9830  177.8870  145.9960 O   0  0  0  0  0  1  0  0  0  0  0  0
  191.8040  173.4820  144.6780 C   0  0  0  0  0  0  0  0  0  0  0  0
  193.0420  176.4990  146.3380 C   0  0  0  0  0  3  0  0  0  0  0  0
  193.8100  174.8600  144.2680 C   0  0  0  0  0  0  0  0  0  0  0  0
  192.6610  174.6060  144.9770 N   0  0  0  0  0  0  0  0  0  0  0  0
  194.6000  175.9590  144.6000 C   0  0  0  0  0  3  0  0  0  0  0  0
  1 14  1  0  0  0  0
  2  3  2  0  0  0  0
  2 13  1  0  0  0  0
  3 19  1  0  0  0  0
  4 11  2  0  0  0  0
  5  2  1  0  0  0  0
  6  1  2  0  0  0  0
  6 17  1  0  0  0  0
  7  3  1  0  0  0  0
  7  4  1  0  0  0  0
  8 13  1  0  0  0  0
  8 21  1  0  0  0  0
  9  1  1  0  0  0  0
 11 15  1  0  0  0  0
 12  8  2  0  0  0  0
 13 18  2  0  0  0  0
 14  5  2  0  0  0  0
 15 20  2  0  0  0  0
 16  5  1  0  0  0  0
 16 12  1  0  0  0  0
 17 16  2  0  0  0  0
 18 10  1  0  0  0  0
 19 15  1  0  0  0  0
 19 10  2  0  0  0  0
 22 26  1  0  0  0  0
 22 28  1  0  0  0  0
 23 28  2  0  0  0  0
 24 29  2  0  0  0  0
 25 27  2  0  0  0  0
 27 30  1  0  0  0  0
 27 21  1  0  0  0  0
 29 31  1  0  0  0  0
 29 30  1  0  0  0  0
 30 23  1  0  0  0  0
 31 22  2  0  0  0  0
M  END
>  <MODEL>
4

>  <REMARK>
 VINA RESULT:      -8.8      1.478      2.157
  Name = 
  2 active torsions:
  status: ('A' for Active; 'I' for Inactive)
    1  A    between atoms: C_9  and  C_23
    2  A    between atoms: C_15  and  C_23
                            x       y       z     vdW  Elec       q    Type
                         _______ _______ _______ _____ _____    ______ ____

>  <TORSDO>
F 2

$$$$
=
 OpenBabel11052417393D

 31 35  0  0  0  0  0  0  0  0999 V2000
  184.9750  178.0050  140.7650 C   0  0  0  0  0  0  0  0  0  0  0  0
  186.9400  177.2420  143.8920 C   0  0  0  0  0  0  0  0  0  0  0  0
  186.1510  177.7270  144.9890 C   0  0  0  0  0  0  0  0  0  0  0  0
  183.9850  178.6600  145.9650 C   0  0  0  0  0  3  0  0  0  0  0  0
  186.5520  177.3500  142.5170 C   0  0  0  0  0  0  0  0  0  0  0  0
  185.8390  177.5250  139.7850 C   0  0  0  0  0  3  0  0  0  0  0  0
  184.9010  178.5630  144.7760 C   0  0  0  0  0  2  0  0  0  0  0  0
  189.0190  176.1330  143.1510 C   0  0  0  0  0  0  0  0  0  0  0  0
  183.4450  178.7210  140.3110 Cl  0  0  0  0  0  0  0  0  0  0  0  0
  187.8230  176.9120  146.5630 C   0  0  0  0  0  3  0  0  0  0  0  0
  184.4040  178.4300  147.2060 C   0  0  0  0  0  3  0  0  0  0  0  0
  188.6240  176.2660  141.8260 C   0  0  0  0  0  3  0  0  0  0  0  0
  188.1890  176.6100  144.1860 C   0  0  0  0  0  0  0  0  0  0  0  0
  185.3280  177.9150  142.1130 C   0  0  0  0  0  3  0  0  0  0  0  0
  185.7710  177.9710  147.4540 C   0  0  0  0  0  0  0  0  0  0  0  0
  187.4120  176.8570  141.5010 C   0  0  0  0  0  0  0  0  0  0  0  0
  187.0540  176.9510  140.1530 C   0  0  0  0  0  3  0  0  0  0  0  0
  188.6020  176.4580  145.5130 C   0  0  0  0  0  3  0  0  0  0  0  0
  186.6080  177.5440  146.3160 C   0  0  0  0  0  0  0  0  0  0  0  0
  186.1960  177.8960  148.6370 O   0  0  0  0  0  0  0  0  0  0  0  0
  190.3520  175.5020  143.4240 C   0  0  0  0  0  2  0  0  0  0  0  0
  191.4720  172.2390  139.6780 C   0  0  0  0  0  0  0  0  0  0  0  0
  191.3880  174.0670  141.1870 N   0  0  0  0  0  0  0  0  0  0  0  0
  189.6100  171.3810  142.5680 O   0  0  0  0  0  0  0  0  0  0  0  0
  189.8450  173.3430  144.2730 O   0  0  0  0  0  0  0  0  0  0  0  0
  191.8900  171.6850  138.4760 O   0  0  0  0  0  1  0  0  0  0  0  0
  190.2660  174.0120  143.2910 C   0  0  0  0  0  0  0  0  0  0  0  0
  191.8050  173.5460  140.0040 C   0  0  0  0  0  3  0  0  0  0  0  0
  190.3070  172.0670  141.7730 C   0  0  0  0  0  0  0  0  0  0  0  0
  190.6590  173.3630  142.0630 N   0  0  0  0  0  0  0  0  0  0  0  0
  190.7150  171.4910  140.5710 C   0  0  0  0  0  3  0  0  0  0  0  0
  1 14  1  0  0  0  0
  2 13  2  0  0  0  0
  2  3  1  0  0  0  0
  3 19  2  0  0  0  0
  4 11  2  0  0  0  0
  5  2  1  0  0  0  0
  6 17  1  0  0  0  0
  6  1  2  0  0  0  0
  7  3  1  0  0  0  0
  7  4  1  0  0  0  0
  8 21  1  0  0  0  0
  8 13  1  0  0  0  0
  9  1  1  0  0  0  0
 11 15  1  0  0  0  0
 12  8  2  0  0  0  0
 13 18  1  0  0  0  0
 14  5  2  0  0  0  0
 15 20  2  0  0  0  0
 16 12  1  0  0  0  0
 16  5  1  0  0  0  0
 17 16  2  0  0  0  0
 18 10  2  0  0  0  0
 19 10  1  0  0  0  0
 19 15  1  0  0  0  0
 22 28  1  0  0  0  0
 22 31  2  0  0  0  0
 23 30  1  0  0  0  0
 26 22  1  0  0  0  0
 27 21  1  0  0  0  0
 27 25  2  0  0  0  0
 28 23  2  0  0  0  0
 29 30  1  0  0  0  0
 29 24  2  0  0  0  0
 30 27  1  0  0  0  0
 31 29  1  0  0  0  0
M  END
>  <MODEL>
5

>  <REMARK>
 VINA RESULT:      -8.7      2.930      3.798
  Name = 
  2 active torsions:
  status: ('A' for Active; 'I' for Inactive)
    1  A    between atoms: C_9  and  C_23
    2  A    between atoms: C_15  and  C_23
                            x       y       z     vdW  Elec       q    Type
                         _______ _______ _______ _____ _____    ______ ____

>  <TORSDO>
F 2

$$$$
=
 OpenBabel11052417393D

 31 35  0  0  0  0  0  0  0  0999 V2000
  185.6770  177.7690  140.7820 C   0  0  0  0  0  0  0  0  0  0  0  0
  187.1800  176.8560  144.1180 C   0  0  0  0  0  0  0  0  0  0  0  0
  186.3570  177.4830  145.1130 C   0  0  0  0  0  0  0  0  0  0  0  0
  184.2530  178.7380  145.8300 C   0  0  0  0  0  3  0  0  0  0  0  0
  186.9560  176.9670  142.7070 C   0  0  0  0  0  0  0  0  0  0  0  0
  186.5620  177.1400  139.9110 C   0  0  0  0  0  3  0  0  0  0  0  0
  185.2650  178.4740  144.7500 C   0  0  0  0  0  2  0  0  0  0  0  0
  189.1490  175.4470  143.6290 C   0  0  0  0  0  0  0  0  0  0  0  0
  184.3170  178.6710  140.1510 Cl  0  0  0  0  0  0  0  0  0  0  0  0
  187.7250  176.5040  146.8750 C   0  0  0  0  0  3  0  0  0  0  0  0
  184.5040  178.4970  147.1140 C   0  0  0  0  0  3  0  0  0  0  0  0
  188.9160  175.5860  142.2670 C   0  0  0  0  0  3  0  0  0  0  0  0
  188.2910  176.0700  144.5590 C   0  0  0  0  0  0  0  0  0  0  0  0
  185.8720  177.6790  142.1620 C   0  0  0  0  0  3  0  0  0  0  0  0
  185.7610  177.8650  147.5170 C   0  0  0  0  0  0  0  0  0  0  0  0
  187.8390  176.3250  141.8010 C   0  0  0  0  0  0  0  0  0  0  0  0
  187.6410  176.4190  140.4200 C   0  0  0  0  0  3  0  0  0  0  0  0
  188.5390  175.9100  145.9250 C   0  0  0  0  0  3  0  0  0  0  0  0
  186.6440  177.2860  146.4850 C   0  0  0  0  0  0  0  0  0  0  0  0
  186.0460  177.7740  148.7410 O   0  0  0  0  0  0  0  0  0  0  0  0
  190.3450  174.6500  144.0570 C   0  0  0  0  0  2  0  0  0  0  0  0
  194.4730  174.6140  141.0750 C   0  0  0  0  0  0  0  0  0  0  0  0
  192.2890  174.4290  141.9810 N   0  0  0  0  0  0  0  0  0  0  0  0
  194.2170  176.4560  144.0910 O   0  0  0  0  0  0  0  0  0  0  0  0
  191.7130  176.4320  144.8250 O   0  0  0  0  0  0  0  0  0  0  0  0
  195.4000  174.3050  140.0890 O   0  0  0  0  0  1  0  0  0  0  0  0
  191.5850  175.4880  143.9990 C   0  0  0  0  0  0  0  0  0  0  0  0
  193.1800  174.1130  141.0070 C   0  0  0  0  0  3  0  0  0  0  0  0
  193.8790  175.7260  143.1210 C   0  0  0  0  0  0  0  0  0  0  0  0
  192.6080  175.2140  143.0180 N   0  0  0  0  0  0  0  0  0  0  0  0
  194.8270  175.4290  142.1430 C   0  0  0  0  0  3  0  0  0  0  0  0
  1 14  1  0  0  0  0
  2 13  2  0  0  0  0
  2  3  1  0  0  0  0
  3 19  2  0  0  0  0
  4 11  2  0  0  0  0
  5  2  1  0  0  0  0
  6 17  1  0  0  0  0
  6  1  2  0  0  0  0
  7  3  1  0  0  0  0
  7  4  1  0  0  0  0
  8 21  1  0  0  0  0
  8 13  1  0  0  0  0
  9  1  1  0  0  0  0
 11 15  1  0  0  0  0
 12  8  2  0  0  0  0
 13 18  1  0  0  0  0
 14  5  2  0  0  0  0
 15 20  2  0  0  0  0
 16 12  1  0  0  0  0
 16  5  1  0  0  0  0
 17 16  2  0  0  0  0
 18 10  2  0  0  0  0
 19 10  1  0  0  0  0
 19 15  1  0  0  0  0
 22 31  2  0  0  0  0
 23 30  1  0  0  0  0
 26 22  1  0  0  0  0
 27 21  1  0  0  0  0
 27 25  2  0  0  0  0
 28 22  1  0  0  0  0
 28 23  2  0  0  0  0
 29 24  2  0  0  0  0
 30 29  1  0  0  0  0
 30 27  1  0  0  0  0
 31 29  1  0  0  0  0
M  END
>  <MODEL>
6

>  <REMARK>
 VINA RESULT:      -8.6      2.137      2.328
  Name = 
  2 active torsions:
  status: ('A' for Active; 'I' for Inactive)
    1  A    between atoms: C_9  and  C_23
    2  A    between atoms: C_15  and  C_23
                            x       y       z     vdW  Elec       q    Type
                         _______ _______ _______ _____ _____    ______ ____

>  <TORSDO>
F 2

$$$$
=
 OpenBabel11052417393D

 31 35  0  0  0  0  0  0  0  0999 V2000
  191.2230  176.8400  147.6870 C   0  0  0  0  0  0  0  0  0  0  0  0
  188.3720  176.6350  145.2280 C   0  0  0  0  0  0  0  0  0  0  0  0
  187.2760  177.3430  145.8260 C   0  0  0  0  0  0  0  0  0  0  0  0
  186.2930  178.8730  147.6170 C   0  0  0  0  0  3  0  0  0  0  0  0
  189.6510  176.4660  145.8500 C   0  0  0  0  0  0  0  0  0  0  0  0
  192.2010  176.1050  147.0220 C   0  0  0  0  0  3  0  0  0  0  0  0
  187.3190  177.8320  147.2630 C   0  0  0  0  0  2  0  0  0  0  0  0
  189.2100  175.3380  143.3000 C   0  0  0  0  0  0  0  0  0  0  0  0
  191.5660  177.5410  149.2530 Cl  0  0  0  0  0  0  0  0  0  0  0  0
  185.9150  176.9240  143.8490 C   0  0  0  0  0  3  0  0  0  0  0  0
  185.1770  179.0410  146.9120 C   0  0  0  0  0  3  0  0  0  0  0  0
  190.4350  175.1770  143.9350 C   0  0  0  0  0  3  0  0  0  0  0  0
  188.1790  176.0640  143.9310 C   0  0  0  0  0  0  0  0  0  0  0  0
  189.9660  177.0180  147.1050 C   0  0  0  0  0  3  0  0  0  0  0  0
  184.9520  178.2710  145.6890 C   0  0  0  0  0  0  0  0  0  0  0  0
  190.6670  175.7310  145.1850 C   0  0  0  0  0  0  0  0  0  0  0  0
  191.9230  175.5530  145.7730 C   0  0  0  0  0  3  0  0  0  0  0  0
  186.9570  176.2210  143.2700 C   0  0  0  0  0  3  0  0  0  0  0  0
  186.0590  177.4820  145.1150 C   0  0  0  0  0  0  0  0  0  0  0  0
  183.8330  178.3340  145.1120 O   0  0  0  0  0  0  0  0  0  0  0  0
  189.0270  174.6940  141.9580 C   0  0  0  0  0  2  0  0  0  0  0  0
  192.7580  172.1650  139.5870 C   0  0  0  0  0  0  0  0  0  0  0  0
  191.3930  173.7910  140.6450 N   0  0  0  0  0  0  0  0  0  0  0  0
  190.1320  170.6060  141.3840 O   0  0  0  0  0  0  0  0  0  0  0  0
  188.8940  172.4570  142.7450 O   0  0  0  0  0  0  0  0  0  0  0  0
  193.8460  171.8380  138.7900 O   0  0  0  0  0  1  0  0  0  0  0  0
  189.4930  173.2700  141.9900 C   0  0  0  0  0  0  0  0  0  0  0  0
  192.4620  173.4930  139.8620 C   0  0  0  0  0  3  0  0  0  0  0  0
  190.8640  171.5200  140.9180 C   0  0  0  0  0  0  0  0  0  0  0  0
  190.6040  172.8460  141.1700 N   0  0  0  0  0  0  0  0  0  0  0  0
  191.9510  171.1680  140.1190 C   0  0  0  0  0  3  0  0  0  0  0  0
  1  9  1  0  0  0  0
  2  3  1  0  0  0  0
  2  5  1  0  0  0  0
  3  7  1  0  0  0  0
  5 14  2  0  0  0  0
  6  1  2  0  0  0  0
  7  4  1  0  0  0  0
  8 13  1  0  0  0  0
  8 12  2  0  0  0  0
 10 19  1  0  0  0  0
 11  4  2  0  0  0  0
 12 16  1  0  0  0  0
 13  2  2  0  0  0  0
 14  1  1  0  0  0  0
 15 11  1  0  0  0  0
 16 17  2  0  0  0  0
 16  5  1  0  0  0  0
 17  6  1  0  0  0  0
 18 10  2  0  0  0  0
 18 13  1  0  0  0  0
 19 15  1  0  0  0  0
 19  3  2  0  0  0  0
 20 15  2  0  0  0  0
 21 27  1  0  0  0  0
 21  8  1  0  0  0  0
 22 28  1  0  0  0  0
 22 31  2  0  0  0  0
 23 30  1  0  0  0  0
 26 22  1  0  0  0  0
 27 25  2  0  0  0  0
 28 23  2  0  0  0  0
 29 30  1  0  0  0  0
 29 24  2  0  0  0  0
 30 27  1  0  0  0  0
 31 29  1  0  0  0  0
M  END
>  <MODEL>
7

>  <REMARK>
 VINA RESULT:      -8.3      3.724      5.208
  Name = 
  2 active torsions:
  status: ('A' for Active; 'I' for Inactive)
    1  A    between atoms: C_9  and  C_23
    2  A    between atoms: C_15  and  C_23
                            x       y       z     vdW  Elec       q    Type
                         _______ _______ _______ _____ _____    ______ ____

>  <TORSDO>
F 2

$$$$
=
 OpenBabel11052417393D

 31 35  0  0  0  0  0  0  0  0999 V2000
  190.8700  171.5300  142.8070 C   0  0  0  0  0  0  0  0  0  0  0  0
  191.0970  174.9650  144.3450 C   0  0  0  0  0  0  0  0  0  0  0  0
  192.3760  175.0290  144.9940 C   0  0  0  0  0  0  0  0  0  0  0  0
  194.7020  174.0990  145.4820 C   0  0  0  0  0  3  0  0  0  0  0  0
  190.6110  173.8140  143.6450 C   0  0  0  0  0  0  0  0  0  0  0  0
  189.5980  171.5750  142.2420 C   0  0  0  0  0  3  0  0  0  0  0  0
  193.2650  173.8080  145.1470 C   0  0  0  0  0  2  0  0  0  0  0  0
  188.9790  176.1120  143.7970 C   0  0  0  0  0  0  0  0  0  0  0  0
  191.8470  170.0870  142.6520 Cl  0  0  0  0  0  0  0  0  0  0  0  0
  191.9360  177.3340  145.6510 C   0  0  0  0  0  3  0  0  0  0  0  0
  195.0860  175.2490  146.0300 C   0  0  0  0  0  3  0  0  0  0  0  0
  188.5280  174.9750  143.1390 C   0  0  0  0  0  3  0  0  0  0  0  0
  190.2550  176.1200  144.3970 C   0  0  0  0  0  0  0  0  0  0  0  0
  191.3680  172.6370  143.4960 C   0  0  0  0  0  3  0  0  0  0  0  0
  194.1200  176.3280  146.2390 C   0  0  0  0  0  0  0  0  0  0  0  0
  189.3220  173.8410  143.0520 C   0  0  0  0  0  0  0  0  0  0  0  0
  188.8260  172.7290  142.3640 C   0  0  0  0  0  3  0  0  0  0  0  0
  190.6930  177.2780  145.0460 C   0  0  0  0  0  3  0  0  0  0  0  0
  192.7770  176.2270  145.6340 C   0  0  0  0  0  0  0  0  0  0  0  0
  194.4640  177.3530  146.8870 O   0  0  0  0  0  0  0  0  0  0  0  0
  188.0560  177.2920  143.8670 C   0  0  0  0  0  2  0  0  0  0  0  0
  183.5810  178.2910  141.6530 C   0  0  0  0  0  0  0  0  0  0  0  0
  185.3880  178.0150  143.1630 N   0  0  0  0  0  0  0  0  0  0  0  0
  186.6300  177.9160  139.8880 O   0  0  0  0  0  0  0  0  0  0  0  0
  188.5660  177.9310  141.6380 O   0  0  0  0  0  0  0  0  0  0  0  0
  182.2260  178.4760  141.4140 O   0  0  0  0  0  1  0  0  0  0  0  0
  187.6600  177.7330  142.4920 C   0  0  0  0  0  0  0  0  0  0  0  0
  184.0590  178.1960  142.9530 C   0  0  0  0  0  3  0  0  0  0  0  0
  185.8310  178.0120  140.8580 C   0  0  0  0  0  0  0  0  0  0  0  0
  186.2680  177.9250  142.1580 N   0  0  0  0  0  0  0  0  0  0  0  0
  184.4750  178.1970  140.5940 C   0  0  0  0  0  3  0  0  0  0  0  0
  1 14  1  0  0  0  0
  2 13  2  0  0  0  0
  2  3  1  0  0  0  0
  3  7  1  0  0  0  0
  3 19  2  0  0  0  0
  4 11  2  0  0  0  0
  5  2  1  0  0  0  0
  6 17  1  0  0  0  0
  6  1  2  0  0  0  0
  7  4  1  0  0  0  0
  8 21  1  0  0  0  0
  8 13  1  0  0  0  0
  9  1  1  0  0  0  0
 11 15  1  0  0  0  0
 12  8  2  0  0  0  0
 13 18  1  0  0  0  0
 14  5  2  0  0  0  0
 15 20  2  0  0  0  0
 16 12  1  0  0  0  0
 16  5  1  0  0  0  0
 17 16  2  0  0  0  0
 18 10  2  0  0  0  0
 19 10  1  0  0  0  0
 19 15  1  0  0  0  0
 22 28  1  0  0  0  0
 24 29  2  0  0  0  0
 25 27  2  0  0  0  0
 26 22  1  0  0  0  0
 27 21  1  0  0  0  0
 28 23  2  0  0  0  0
 29 30  1  0  0  0  0
 30 27  1  0  0  0  0
 30 23  1  0  0  0  0
 31 29  1  0  0  0  0
 31 22  2  0  0  0  0
M  END
>  <MODEL>
8

>  <REMARK>
 VINA RESULT:      -8.3      3.948      8.119
  Name = 
  2 active torsions:
  status: ('A' for Active; 'I' for Inactive)
    1  A    between atoms: C_9  and  C_23
    2  A    between atoms: C_15  and  C_23
                            x       y       z     vdW  Elec       q    Type
                         _______ _______ _______ _____ _____    ______ ____

>  <TORSDO>
F 2

$$$$
=
 OpenBabel11052417393D

 31 35  0  0  0  0  0  0  0  0999 V2000
  185.6610  178.2330  146.9900 C   0  0  0  0  0  0  0  0  0  0  0  0
  187.3090  177.5780  143.6620 C   0  0  0  0  0  0  0  0  0  0  0  0
  186.2690  177.6680  142.6760 C   0  0  0  0  0  0  0  0  0  0  0  0
  183.8920  178.2570  141.9590 C   0  0  0  0  0  3  0  0  0  0  0  0
  187.0960  177.7520  145.0680 C   0  0  0  0  0  0  0  0  0  0  0  0
  186.7430  178.0920  147.8550 C   0  0  0  0  0  3  0  0  0  0  0  0
  184.8040  177.7840  143.0570 C   0  0  0  0  0  2  0  0  0  0  0  0
  189.6990  177.1780  144.1390 C   0  0  0  0  0  0  0  0  0  0  0  0
  184.0770  178.6200  147.6240 Cl  0  0  0  0  0  0  0  0  0  0  0  0
  187.8970  177.2560  140.9110 C   0  0  0  0  0  3  0  0  0  0  0  0
  184.2180  178.1620  140.6730 C   0  0  0  0  0  3  0  0  0  0  0  0
  189.4600  177.3360  145.4980 C   0  0  0  0  0  3  0  0  0  0  0  0
  188.6390  177.3010  143.2170 C   0  0  0  0  0  0  0  0  0  0  0  0
  185.8390  178.0680  145.6150 C   0  0  0  0  0  3  0  0  0  0  0  0
  185.5410  177.6760  140.2790 C   0  0  0  0  0  0  0  0  0  0  0  0
  188.1870  177.6230  145.9670 C   0  0  0  0  0  0  0  0  0  0  0  0
  188.0040  177.7880  147.3430 C   0  0  0  0  0  3  0  0  0  0  0  0
  188.9040  177.1470  141.8530 C   0  0  0  0  0  3  0  0  0  0  0  0
  186.5880  177.5110  141.3060 C   0  0  0  0  0  0  0  0  0  0  0  0
  185.7850  177.4560  139.0620 O   0  0  0  0  0  0  0  0  0  0  0  0
  191.0970  176.8490  143.7080 C   0  0  0  0  0  2  0  0  0  0  0  0
  195.1710  174.5290  145.6980 C   0  0  0  0  0  0  0  0  0  0  0  0
  193.4480  176.0500  145.1140 N   0  0  0  0  0  0  0  0  0  0  0  0
  192.5050  172.8330  144.0950 O   0  0  0  0  0  0  0  0  0  0  0  0
  190.5550  174.5380  143.7810 O   0  0  0  0  0  0  0  0  0  0  0  0
  196.4130  174.2720  146.2620 O   0  0  0  0  0  1  0  0  0  0  0  0
  191.4230  175.4210  144.0220 C   0  0  0  0  0  0  0  0  0  0  0  0
  194.6650  175.8220  145.6690 C   0  0  0  0  0  3  0  0  0  0  0  0
  193.1730  173.7770  144.5950 C   0  0  0  0  0  0  0  0  0  0  0  0
  192.7040  175.0690  144.5880 N   0  0  0  0  0  0  0  0  0  0  0  0
  194.4170  173.4960  145.1560 C   0  0  0  0  0  3  0  0  0  0  0  0
  1  9  1  0  0  0  0
  1  6  1  0  0  0  0
  2  5  1  0  0  0  0
  3  7  1  0  0  0  0
  3  2  1  0  0  0  0
  4  7  1  0  0  0  0
  5 14  1  0  0  0  0
  5 16  2  0  0  0  0
  8 12  2  0  0  0  0
 10 19  1  0  0  0  0
 10 18  2  0  0  0  0
 11  4  2  0  0  0  0
 12 16  1  0  0  0  0
 13  2  2  0  0  0  0
 13  8  1  0  0  0  0
 14  1  2  0  0  0  0
 15 11  1  0  0  0  0
 15 19  1  0  0  0  0
 16 17  1  0  0  0  0
 17  6  2  0  0  0  0
 18 13  1  0  0  0  0
 19  3  2  0  0  0  0
 20 15  2  0  0  0  0
 21 27  1  0  0  0  0
 21  8  1  0  0  0  0
 22 26  1  0  0  0  0
 23 28  2  0  0  0  0
 24 29  2  0  0  0  0
 25 27  2  0  0  0  0
 27 30  1  0  0  0  0
 28 22  1  0  0  0  0
 29 31  1  0  0  0  0
 30 29  1  0  0  0  0
 30 23  1  0  0  0  0
 31 22  2  0  0  0  0
M  END
>  <MODEL>
9

>  <REMARK>
 VINA RESULT:      -8.1      2.865      4.488
  Name = 
  2 active torsions:
  status: ('A' for Active; 'I' for Inactive)
    1  A    between atoms: C_9  and  C_23
    2  A    between atoms: C_15  and  C_23
                            x       y       z     vdW  Elec       q    Type
                         _______ _______ _______ _____ _____    ______ ____

>  <TORSDO>
F 2

$$$$
