=
 OpenBabel11052417293D

 25 28  0  0  1  0  0  0  0  0999 V2000
  187.7840  177.5240  144.1760 C   0  0  1  0  0  3  0  0  0  0  0  0
  188.3790  176.2970  144.8700 C   0  0  2  0  0  3  0  0  0  0  0  0
  188.3100  175.2260  141.2580 C   0  0  0  0  0  1  0  0  0  0  0  0
  188.2290  175.8670  142.6010 C   0  0  0  0  0  0  0  0  0  0  0  0
  189.5000  174.1230  144.0190 C   0  0  1  0  0  3  0  0  0  0  0  0
  189.9570  173.3630  142.7850 C   0  0  0  0  0  1  0  0  0  0  0  0
  189.6580  176.6420  145.6220 C   0  0  0  0  0  2  0  0  0  0  0  0
  187.6280  177.1370  142.7800 N   0  0  0  0  0  0  0  0  0  0  0  0
  190.7270  174.4820  144.8610 C   0  0  0  0  0  2  0  0  0  0  0  0
  190.3550  175.3530  146.0780 C   0  0  1  0  0  3  0  0  0  0  0  0
  188.7030  175.3780  143.7420 C   0  0  1  0  0  3  0  0  0  0  0  0
  186.4650  177.9020  144.7790 C   0  0  0  0  0  0  0  0  0  0  0  0
  184.0120  178.6410  145.9190 C   0  0  0  0  0  3  0  0  0  0  0  0
  185.7710  179.0220  144.2960 C   0  0  0  0  0  0  0  0  0  0  0  0
  184.5470  179.3870  144.8660 C   0  0  0  0  0  3  0  0  0  0  0  0
  184.7000  177.5270  146.4080 C   0  0  0  0  0  3  0  0  0  0  0  0
  186.2770  179.7610  143.2780 F   0  0  0  0  0  0  0  0  0  0  0  0
  185.9240  177.1590  145.8410 C   0  0  0  0  0  3  0  0  0  0  0  0
  191.5460  175.6800  146.9940 C   0  0  1  0  0  0  0  0  0  0  0  0
  191.3820  176.6120  148.1320 C   0  0  0  0  0  2  0  0  0  0  0  0
  191.3640  175.2090  148.3060 O   0  0  0  0  0  0  0  0  0  0  0  0
  192.9670  175.4410  146.5060 C   0  0  0  0  0  2  0  0  0  0  0  0
  193.0880  177.0840  144.7850 O   0  0  0  0  0  0  0  0  0  0  0  0
  194.5110  177.3980  146.5540 O   0  0  0  0  0  1  0  0  0  0  0  0
  193.5280  176.6760  145.8910 C   0  0  0  0  0  0  0  0  0  0  0  0
  1 12  1  1  0  0  0
  1  2  1  0  0  0  0
  2  7  1  6  0  0  0
  3  4  1  0  0  0  0
  4  8  2  0  0  0  0
  5  6  1  6  0  0  0
  5  9  1  0  0  0  0
  7 10  1  0  0  0  0
  8  1  1  0  0  0  0
 10  9  1  6  0  0  0
 10 19  1  0  0  0  0
 11  4  1  6  0  0  0
 11  5  1  0  0  0  0
 11  2  1  0  0  0  0
 12 18  1  0  0  0  0
 13 16  1  0  0  0  0
 14 12  2  0  0  0  0
 14 15  1  0  0  0  0
 15 13  2  0  0  0  0
 17 14  1  0  0  0  0
 18 16  2  0  0  0  0
 19 22  1  6  0  0  0
 19 20  1  0  0  0  0
 19 21  1  0  0  0  0
 20 21  1  0  0  0  0
 23 25  2  0  0  0  0
 25 22  1  0  0  0  0
 25 24  1  0  0  0  0
M  END
>  <MODEL>
1

>  <REMARK>
 VINA RESULT:      -7.8      0.000      0.000
  Name = 
  4 active torsions:
  status: ('A' for Active; 'I' for Inactive)
    1  A    between atoms: C_1  and  C_5
    2  A    between atoms: C_2  and  C_6
    3  A    between atoms: C_2  and  C_21
    4  A    between atoms: C_6  and  C_23
                            x       y       z     vdW  Elec       q    Type
                         _______ _______ _______ _____ _____    ______ ____

>  <TORSDO>
F 4

$$$$
=
 OpenBabel11052417293D

 25 28  0  0  1  0  0  0  0  0999 V2000
  187.3950  176.5790  145.4280 C   0  0  1  0  0  3  0  0  0  0  0  0
  188.4540  176.5480  144.3240 C   0  0  2  0  0  3  0  0  0  0  0  0
  190.5310  177.0920  147.4210 C   0  0  0  0  0  1  0  0  0  0  0  0
  189.5080  176.8850  146.3570 C   0  0  0  0  0  0  0  0  0  0  0  0
  191.0420  176.4510  144.3250 C   0  0  1  0  0  3  0  0  0  0  0  0
  192.2800  176.3670  145.2020 C   0  0  0  0  0  1  0  0  0  0  0  0
  188.4220  175.2360  143.5510 C   0  0  0  0  0  2  0  0  0  0  0  0
  188.1220  176.8960  146.6500 N   0  0  0  0  0  2  0  0  0  0  0  0
  190.9480  175.1790  143.4780 C   0  0  0  0  0  2  0  0  0  0  0  0
  189.6540  175.1410  142.6410 C   0  0  1  0  0  3  0  0  0  0  0  0
  189.7410  176.6500  145.0690 C   0  0  0  0  0  0  0  0  0  0  0  0
  186.3470  177.6120  145.1450 C   0  0  0  0  0  0  0  0  0  0  0  0
  184.3630  179.5180  144.6010 C   0  0  0  0  0  3  0  0  0  0  0  0
  185.1130  177.5580  145.8130 C   0  0  0  0  0  0  0  0  0  0  0  0
  184.1260  178.5110  145.5400 C   0  0  0  0  0  3  0  0  0  0  0  0
  185.5870  179.5750  143.9290 C   0  0  0  0  0  3  0  0  0  0  0  0
  184.8640  176.5850  146.7230 F   0  0  0  0  0  0  0  0  0  0  0  0
  186.5750  178.6240  144.1990 C   0  0  0  0  0  3  0  0  0  0  0  0
  189.5480  173.9150  141.7190 C   0  0  1  0  0  0  0  0  0  0  0  0
  189.8120  174.0430  140.2680 C   0  0  0  0  0  2  0  0  0  0  0  0
  190.7860  173.5470  141.1640 O   0  0  0  0  0  0  0  0  0  0  0  0
  188.7500  172.6980  142.1620 C   0  0  0  0  0  2  0  0  0  0  0  0
  189.7480  171.9380  144.1880 O   0  0  0  0  0  1  0  0  0  0  0  0
  190.2100  170.6840  142.3250 O   0  0  0  0  0  0  0  0  0  0  0  0
  189.6030  171.7650  142.9490 C   0  0  0  0  0  0  0  0  0  0  0  0
  1 12  1  6  0  0  0
  1  8  1  0  0  0  0
  2  7  1  1  0  0  0
  2 11  1  0  0  0  0
  2  1  1  0  0  0  0
  4  8  1  0  0  0  0
  4  3  1  0  0  0  0
  5 11  1  0  0  0  0
  5  6  1  1  0  0  0
  9  5  1  0  0  0  0
 10  9  1  1  0  0  0
 10  7  1  0  0  0  0
 11  4  2  0  0  0  0
 12 14  1  0  0  0  0
 13 15  1  0  0  0  0
 14 17  1  0  0  0  0
 15 14  2  0  0  0  0
 16 18  1  0  0  0  0
 16 13  2  0  0  0  0
 18 12  2  0  0  0  0
 19 22  1  1  0  0  0
 19 10  1  0  0  0  0
 20 21  1  0  0  0  0
 20 19  1  0  0  0  0
 21 19  1  0  0  0  0
 22 25  1  0  0  0  0
 24 25  2  0  0  0  0
 25 23  1  0  0  0  0
M  END
>  <MODEL>
2

>  <REMARK>
 VINA RESULT:      -7.8      2.736      4.724
  Name = 
  4 active torsions:
  status: ('A' for Active; 'I' for Inactive)
    1  A    between atoms: C_1  and  C_5
    2  A    between atoms: C_2  and  C_6
    3  A    between atoms: C_2  and  C_21
    4  A    between atoms: C_6  and  C_23
                            x       y       z     vdW  Elec       q    Type
                         _______ _______ _______ _____ _____    ______ ____

>  <TORSDO>
F 4

$$$$
=
 OpenBabel11052417293D

 25 28  0  0  1  0  0  0  0  0999 V2000
  187.6380  177.6310  143.8970 C   0  0  1  0  0  3  0  0  0  0  0  0
  188.4150  176.3670  144.2720 C   0  0  2  0  0  3  0  0  0  0  0  0
  187.7080  175.8230  140.6110 C   0  0  0  0  0  1  0  0  0  0  0  0
  187.8540  176.2570  142.0290 C   0  0  0  0  0  0  0  0  0  0  0  0
  189.4580  174.4310  142.9030 C   0  0  1  0  0  3  0  0  0  0  0  0
  189.7060  173.8950  141.5050 C   0  0  0  0  0  1  0  0  0  0  0  0
  189.7960  176.6990  144.8230 C   0  0  0  0  0  2  0  0  0  0  0  0
  187.2360  177.4380  142.5100 N   0  0  0  0  0  0  0  0  0  0  0  0
  190.8040  174.7600  143.5540 C   0  0  0  0  0  2  0  0  0  0  0  0
  190.6290  175.4160  144.9380 C   0  0  1  0  0  3  0  0  0  0  0  0
  188.5610  175.6470  142.9750 C   0  0  1  0  0  3  0  0  0  0  0  0
  186.4420  177.8150  144.7810 C   0  0  0  0  0  0  0  0  0  0  0  0
  184.2210  178.1890  146.4510 C   0  0  0  0  0  3  0  0  0  0  0  0
  185.6700  178.9830  144.6780 C   0  0  0  0  0  0  0  0  0  0  0  0
  184.5620  179.1660  145.5120 C   0  0  0  0  0  3  0  0  0  0  0  0
  184.9880  177.0260  146.5620 C   0  0  0  0  0  3  0  0  0  0  0  0
  185.9880  179.9430  143.7760 F   0  0  0  0  0  0  0  0  0  0  0  0
  186.0960  176.8410  145.7310 C   0  0  0  0  0  3  0  0  0  0  0  0
  191.9560  175.7000  145.6620 C   0  0  1  0  0  0  0  0  0  0  0  0
  192.1890  175.1820  147.0290 C   0  0  0  0  0  2  0  0  0  0  0  0
  192.7100  174.5350  145.8860 O   0  0  0  0  0  0  0  0  0  0  0  0
  192.8350  176.8560  145.2110 C   0  0  0  0  0  2  0  0  0  0  0  0
  193.9210  176.1010  143.2300 O   0  0  0  0  0  0  0  0  0  0  0  0
  195.2400  176.2100  145.1010 O   0  0  0  0  0  1  0  0  0  0  0  0
  194.0190  176.3570  144.4580 C   0  0  0  0  0  0  0  0  0  0  0  0
  1  2  1  0  0  0  0
  1 12  1  1  0  0  0
  2  7  1  6  0  0  0
  3  4  1  0  0  0  0
  4  8  2  0  0  0  0
  5  6  1  6  0  0  0
  5 11  1  0  0  0  0
  5  9  1  0  0  0  0
  7 10  1  0  0  0  0
  8  1  1  0  0  0  0
 10  9  1  6  0  0  0
 10 19  1  0  0  0  0
 11  4  1  6  0  0  0
 11  2  1  0  0  0  0
 12 18  1  0  0  0  0
 13 16  1  0  0  0  0
 14 12  2  0  0  0  0
 14 15  1  0  0  0  0
 15 13  2  0  0  0  0
 17 14  1  0  0  0  0
 18 16  2  0  0  0  0
 19 22  1  6  0  0  0
 19 21  1  0  0  0  0
 19 20  1  0  0  0  0
 21 20  1  0  0  0  0
 23 25  2  0  0  0  0
 25 24  1  0  0  0  0
 25 22  1  0  0  0  0
M  END
>  <MODEL>
3

>  <REMARK>
 VINA RESULT:      -7.8      1.155      1.275
  Name = 
  4 active torsions:
  status: ('A' for Active; 'I' for Inactive)
    1  A    between atoms: C_1  and  C_5
    2  A    between atoms: C_2  and  C_6
    3  A    between atoms: C_2  and  C_21
    4  A    between atoms: C_6  and  C_23
                            x       y       z     vdW  Elec       q    Type
                         _______ _______ _______ _____ _____    ______ ____

>  <TORSDO>
F 4

$$$$
=
 OpenBabel11052417293D

 25 28  0  0  1  0  0  0  0  0999 V2000
  190.4640  175.3200  145.5020 C   0  0  1  0  0  3  0  0  0  0  0  0
  189.7530  175.8600  144.2590 C   0  0  2  0  0  3  0  0  0  0  0  0
  189.5320  172.1320  143.7590 C   0  0  0  0  0  1  0  0  0  0  0  0
  189.7500  173.5470  144.1710 C   0  0  0  0  0  0  0  0  0  0  0  0
  188.3350  174.7670  142.3870 C   0  0  1  0  0  3  0  0  0  0  0  0
  187.7360  173.4650  141.8860 C   0  0  0  0  0  1  0  0  0  0  0  0
  188.5600  176.7330  144.6300 C   0  0  0  0  0  2  0  0  0  0  0  0
  190.5110  173.8750  145.3200 N   0  0  0  0  0  2  0  0  0  0  0  0
  187.2000  175.7270  142.7520 C   0  0  0  0  0  2  0  0  0  0  0  0
  187.7300  177.0340  143.3750 C   0  0  1  0  0  3  0  0  0  0  0  0
  189.2690  174.6310  143.5690 C   0  0  0  0  0  0  0  0  0  0  0  0
  191.8440  175.8900  145.6270 C   0  0  0  0  0  0  0  0  0  0  0  0
  194.4130  176.9880  145.8740 C   0  0  0  0  0  3  0  0  0  0  0  0
  192.3430  176.2420  146.8910 C   0  0  0  0  0  0  0  0  0  0  0  0
  193.6250  176.7880  147.0110 C   0  0  0  0  0  3  0  0  0  0  0  0
  193.9210  176.6440  144.6120 C   0  0  0  0  0  3  0  0  0  0  0  0
  191.5920  176.0600  148.0040 F   0  0  0  0  0  0  0  0  0  0  0  0
  192.6400  176.0980  144.4890 C   0  0  0  0  0  3  0  0  0  0  0  0
  186.6290  178.0610  143.6920 C   0  0  1  0  0  0  0  0  0  0  0  0
  186.1140  178.9570  142.6340 C   0  0  0  0  0  2  0  0  0  0  0  0
  185.4240  177.7860  143.0220 O   0  0  0  0  0  0  0  0  0  0  0  0
  186.3840  178.4900  145.1310 C   0  0  0  0  0  2  0  0  0  0  0  0
  184.1170  178.4050  145.8570 O   0  0  0  0  0  0  0  0  0  0  0  0
  185.2810  176.4370  146.0150 O   0  0  0  0  0  1  0  0  0  0  0  0
  185.2010  177.7860  145.6980 C   0  0  0  0  0  0  0  0  0  0  0  0
  1 12  1  6  0  0  0
  2  7  1  1  0  0  0
  2  1  1  0  0  0  0
  3  4  1  0  0  0  0
  4  8  1  0  0  0  0
  5  6  1  1  0  0  0
  5  9  1  0  0  0  0
  5 11  1  0  0  0  0
  8  1  1  0  0  0  0
 10  9  1  1  0  0  0
 10 19  1  0  0  0  0
 10  7  1  0  0  0  0
 11  4  2  0  0  0  0
 11  2  1  0  0  0  0
 12 14  1  0  0  0  0
 13 15  1  0  0  0  0
 14 15  2  0  0  0  0
 14 17  1  0  0  0  0
 16 13  2  0  0  0  0
 18 16  1  0  0  0  0
 18 12  2  0  0  0  0
 19 22  1  1  0  0  0
 20 21  1  0  0  0  0
 20 19  1  0  0  0  0
 21 19  1  0  0  0  0
 22 25  1  0  0  0  0
 25 23  2  0  0  0  0
 25 24  1  0  0  0  0
M  END
>  <MODEL>
4

>  <REMARK>
 VINA RESULT:      -7.7      3.510      6.586
  Name = 
  4 active torsions:
  status: ('A' for Active; 'I' for Inactive)
    1  A    between atoms: C_1  and  C_5
    2  A    between atoms: C_2  and  C_6
    3  A    between atoms: C_2  and  C_21
    4  A    between atoms: C_6  and  C_23
                            x       y       z     vdW  Elec       q    Type
                         _______ _______ _______ _____ _____    ______ ____

>  <TORSDO>
F 4

$$$$
=
 OpenBabel11052417293D

 25 28  0  0  1  0  0  0  0  0999 V2000
  187.5570  177.7410  143.7510 C   0  0  1  0  0  3  0  0  0  0  0  0
  188.3810  176.4760  144.0000 C   0  0  2  0  0  3  0  0  0  0  0  0
  187.4410  176.1280  140.3670 C   0  0  0  0  0  1  0  0  0  0  0  0
  187.6730  176.4820  141.7960 C   0  0  0  0  0  0  0  0  0  0  0  0
  189.3670  174.6470  142.4530 C   0  0  1  0  0  3  0  0  0  0  0  0
  189.5320  174.1980  141.0120 C   0  0  0  0  0  1  0  0  0  0  0  0
  189.7890  176.8070  144.4770 C   0  0  0  0  0  2  0  0  0  0  0  0
  187.0670  177.6190  142.3850 N   0  0  0  0  0  0  0  0  0  0  0  0
  190.7470  174.9690  143.0320 C   0  0  0  0  0  2  0  0  0  0  0  0
  190.6530  175.5400  144.4610 C   0  0  1  0  0  3  0  0  0  0  0  0
  188.4540  175.8350  142.6560 C   0  0  1  0  0  3  0  0  0  0  0  0
  186.4190  177.8460  144.7220 C   0  0  0  0  0  0  0  0  0  0  0  0
  184.3090  178.0700  146.5540 C   0  0  0  0  0  3  0  0  0  0  0  0
  185.6490  179.0190  144.7710 C   0  0  0  0  0  0  0  0  0  0  0  0
  184.5960  179.1270  145.6860 C   0  0  0  0  0  3  0  0  0  0  0  0
  185.0740  176.9020  146.5130 C   0  0  0  0  0  3  0  0  0  0  0  0
  185.9160  180.0550  143.9400 F   0  0  0  0  0  0  0  0  0  0  0  0
  186.1270  176.7910  145.6010 C   0  0  0  0  0  3  0  0  0  0  0  0
  192.0190  175.8120  145.1120 C   0  0  1  0  0  0  0  0  0  0  0  0
  193.1860  176.1790  144.2800 C   0  0  0  0  0  2  0  0  0  0  0  0
  192.4280  177.1490  144.9740 O   0  0  0  0  0  0  0  0  0  0  0  0
  192.3150  175.2780  146.5060 C   0  0  0  0  0  2  0  0  0  0  0  0
  191.3770  176.7910  148.0890 O   0  0  0  0  0  1  0  0  0  0  0  0
  190.1320  174.9160  147.6540 O   0  0  0  0  0  0  0  0  0  0  0  0
  191.2610  175.7020  147.4690 C   0  0  0  0  0  0  0  0  0  0  0  0
  1  2  1  0  0  0  0
  1 12  1  1  0  0  0
  2  7  1  6  0  0  0
  3  4  1  0  0  0  0
  4  8  2  0  0  0  0
  5  6  1  6  0  0  0
  5 11  1  0  0  0  0
  5  9  1  0  0  0  0
  8  1  1  0  0  0  0
 10  9  1  6  0  0  0
 10  7  1  0  0  0  0
 10 19  1  0  0  0  0
 11  4  1  6  0  0  0
 11  2  1  0  0  0  0
 12 14  2  0  0  0  0
 12 18  1  0  0  0  0
 14 15  1  0  0  0  0
 15 13  2  0  0  0  0
 16 13  1  0  0  0  0
 17 14  1  0  0  0  0
 18 16  2  0  0  0  0
 19 22  1  1  0  0  0
 20 21  1  0  0  0  0
 20 19  1  0  0  0  0
 21 19  1  0  0  0  0
 22 25  1  0  0  0  0
 25 24  2  0  0  0  0
 25 23  1  0  0  0  0
M  END
>  <MODEL>
5

>  <REMARK>
 VINA RESULT:      -7.7      1.150      2.118
  Name = 
  4 active torsions:
  status: ('A' for Active; 'I' for Inactive)
    1  A    between atoms: C_1  and  C_5
    2  A    between atoms: C_2  and  C_6
    3  A    between atoms: C_2  and  C_21
    4  A    between atoms: C_6  and  C_23
                            x       y       z     vdW  Elec       q    Type
                         _______ _______ _______ _____ _____    ______ ____

>  <TORSDO>
F 4

$$$$
=
 OpenBabel11052417293D

 25 28  0  0  1  0  0  0  0  0999 V2000
  187.4340  177.9860  144.0190 C   0  0  1  0  0  3  0  0  0  0  0  0
  187.8630  176.5260  143.8630 C   0  0  2  0  0  3  0  0  0  0  0  0
  186.7170  177.4080  140.3830 C   0  0  0  0  0  1  0  0  0  0  0  0
  187.1000  177.3000  141.8190 C   0  0  0  0  0  0  0  0  0  0  0  0
  188.2100  174.9680  141.8220 C   0  0  1  0  0  3  0  0  0  0  0  0
  188.1790  174.8840  140.3060 C   0  0  0  0  0  1  0  0  0  0  0  0
  189.3250  176.3260  144.2420 C   0  0  0  0  0  2  0  0  0  0  0  0
  186.8750  178.3630  142.7280 N   0  0  0  0  0  2  0  0  0  0  0  0
  189.6470  174.7400  142.3010 C   0  0  0  0  0  2  0  0  0  0  0  0
  189.7810  174.9210  143.8260 C   0  0  1  0  0  3  0  0  0  0  0  0
  187.6920  176.2640  142.4050 C   0  0  0  0  0  0  0  0  0  0  0  0
  186.4170  178.1380  145.1090 C   0  0  0  0  0  0  0  0  0  0  0  0
  184.5190  178.3880  147.1580 C   0  0  0  0  0  3  0  0  0  0  0  0
  186.8060  178.0090  146.4520 C   0  0  0  0  0  0  0  0  0  0  0  0
  185.8570  178.1350  147.4710 C   0  0  0  0  0  3  0  0  0  0  0  0
  184.1240  178.5130  145.8240 C   0  0  0  0  0  3  0  0  0  0  0  0
  188.0990  177.7590  146.7740 F   0  0  0  0  0  0  0  0  0  0  0  0
  185.0690  178.3870  144.8020 C   0  0  0  0  0  3  0  0  0  0  0  0
  191.1920  174.6320  144.3630 C   0  0  1  0  0  0  0  0  0  0  0  0
  191.5600  173.2700  144.8090 C   0  0  0  0  0  2  0  0  0  0  0  0
  191.9190  173.7610  143.5340 O   0  0  0  0  0  0  0  0  0  0  0  0
  192.0590  175.7740  144.8710 C   0  0  0  0  0  2  0  0  0  0  0  0
  194.2140  176.0500  143.8930 O   0  0  0  0  0  1  0  0  0  0  0  0
  192.4630  176.9000  142.6830 O   0  0  0  0  0  0  0  0  0  0  0  0
  192.9770  176.2570  143.8010 C   0  0  0  0  0  0  0  0  0  0  0  0
  1 12  1  1  0  0  0
  2  1  1  0  0  0  0
  2  7  1  6  0  0  0
  3  4  1  0  0  0  0
  4 11  2  0  0  0  0
  4  8  1  0  0  0  0
  5  6  1  6  0  0  0
  5  9  1  0  0  0  0
  5 11  1  0  0  0  0
  8  1  1  0  0  0  0
 10  9  1  6  0  0  0
 10  7  1  0  0  0  0
 10 19  1  0  0  0  0
 11  2  1  0  0  0  0
 12 14  1  0  0  0  0
 13 15  1  0  0  0  0
 14 17  1  0  0  0  0
 14 15  2  0  0  0  0
 16 13  2  0  0  0  0
 18 12  2  0  0  0  0
 18 16  1  0  0  0  0
 19 20  1  0  0  0  0
 19 22  1  1  0  0  0
 21 19  1  0  0  0  0
 21 20  1  0  0  0  0
 24 25  2  0  0  0  0
 25 23  1  0  0  0  0
 25 22  1  0  0  0  0
M  END
>  <MODEL>
6

>  <REMARK>
 VINA RESULT:      -7.6      2.024      2.710
  Name = 
  4 active torsions:
  status: ('A' for Active; 'I' for Inactive)
    1  A    between atoms: C_1  and  C_5
    2  A    between atoms: C_2  and  C_6
    3  A    between atoms: C_2  and  C_21
    4  A    between atoms: C_6  and  C_23
                            x       y       z     vdW  Elec       q    Type
                         _______ _______ _______ _____ _____    ______ ____

>  <TORSDO>
F 4

$$$$
=
 OpenBabel11052417293D

 25 28  0  0  1  0  0  0  0  0999 V2000
  187.9670  176.9820  143.4820 C   0  0  1  0  0  3  0  0  0  0  0  0
  188.7830  176.1070  144.4360 C   0  0  2  0  0  3  0  0  0  0  0  0
  187.9750  173.7160  141.6380 C   0  0  0  0  0  1  0  0  0  0  0  0
  188.1550  174.8310  142.6090 C   0  0  0  0  0  0  0  0  0  0  0  0
  189.8260  173.7440  144.2500 C   0  0  1  0  0  3  0  0  0  0  0  0
  190.0430  172.5520  143.3340 C   0  0  0  0  0  1  0  0  0  0  0  0
  190.1730  176.6830  144.6770 C   0  0  0  0  0  2  0  0  0  0  0  0
  187.5270  176.0870  142.4200 N   0  0  0  0  0  0  0  0  0  0  0  0
  191.1850  174.3690  144.5790 C   0  0  0  0  0  2  0  0  0  0  0  0
  191.0380  175.6550  145.4170 C   0  0  1  0  0  3  0  0  0  0  0  0
  188.9060  174.8130  143.7070 C   0  0  1  0  0  3  0  0  0  0  0  0
  186.7950  177.6010  144.1830 C   0  0  0  0  0  0  0  0  0  0  0  0
  184.6230  178.7890  145.4990 C   0  0  0  0  0  3  0  0  0  0  0  0
  186.1760  178.7380  143.6390 C   0  0  0  0  0  0  0  0  0  0  0  0
  185.0920  179.3270  144.2980 C   0  0  0  0  0  3  0  0  0  0  0  0
  185.2370  177.6600  146.0480 C   0  0  0  0  0  3  0  0  0  0  0  0
  186.6210  179.2760  142.4780 F   0  0  0  0  0  0  0  0  0  0  0  0
  186.3210  177.0690  145.3920 C   0  0  0  0  0  3  0  0  0  0  0  0
  192.3800  176.2810  145.8320 C   0  0  1  0  0  0  0  0  0  0  0  0
  192.7330  176.4150  147.2630 C   0  0  0  0  0  2  0  0  0  0  0  0
  193.2330  175.3600  146.4660 O   0  0  0  0  0  0  0  0  0  0  0  0
  193.1400  177.1660  144.8550 C   0  0  0  0  0  2  0  0  0  0  0  0
  193.9880  175.6480  143.2260 O   0  0  0  0  0  0  0  0  0  0  0  0
  195.5480  176.5600  144.6370 O   0  0  0  0  0  1  0  0  0  0  0  0
  194.2400  176.4050  144.2000 C   0  0  0  0  0  0  0  0  0  0  0  0
  1 12  1  1  0  0  0
  1  2  1  0  0  0  0
  2  7  1  6  0  0  0
  3  4  1  0  0  0  0
  5  6  1  6  0  0  0
  5  9  1  0  0  0  0
  7 10  1  0  0  0  0
  8  4  2  0  0  0  0
  8  1  1  0  0  0  0
 10  9  1  6  0  0  0
 10 19  1  0  0  0  0
 11  4  1  6  0  0  0
 11  5  1  0  0  0  0
 11  2  1  0  0  0  0
 12 18  1  0  0  0  0
 13 16  1  0  0  0  0
 14 12  2  0  0  0  0
 14 15  1  0  0  0  0
 15 13  2  0  0  0  0
 17 14  1  0  0  0  0
 18 16  2  0  0  0  0
 19 22  1  6  0  0  0
 19 21  1  0  0  0  0
 19 20  1  0  0  0  0
 21 20  1  0  0  0  0
 23 25  2  0  0  0  0
 25 24  1  0  0  0  0
 25 22  1  0  0  0  0
M  END
>  <MODEL>
7

>  <REMARK>
 VINA RESULT:      -7.3      1.249      1.360
  Name = 
  4 active torsions:
  status: ('A' for Active; 'I' for Inactive)
    1  A    between atoms: C_1  and  C_5
    2  A    between atoms: C_2  and  C_6
    3  A    between atoms: C_2  and  C_21
    4  A    between atoms: C_6  and  C_23
                            x       y       z     vdW  Elec       q    Type
                         _______ _______ _______ _____ _____    ______ ____

>  <TORSDO>
F 4

$$$$
=
 OpenBabel11052417293D

 25 28  0  0  1  0  0  0  0  0999 V2000
  187.2990  177.7650  143.5190 C   0  0  1  0  0  3  0  0  0  0  0  0
  187.8000  176.3270  143.3760 C   0  0  2  0  0  3  0  0  0  0  0  0
  186.6970  177.1520  139.8680 C   0  0  0  0  0  1  0  0  0  0  0  0
  187.0500  177.0620  141.3130 C   0  0  0  0  0  0  0  0  0  0  0  0
  188.2690  174.7860  141.3470 C   0  0  1  0  0  3  0  0  0  0  0  0
  188.2770  174.6990  139.8310 C   0  0  0  0  0  1  0  0  0  0  0  0
  189.2600  176.1960  143.7910 C   0  0  0  0  0  2  0  0  0  0  0  0
  186.7540  178.1150  142.2140 N   0  0  0  0  0  2  0  0  0  0  0  0
  189.7030  174.6260  141.8600 C   0  0  0  0  0  2  0  0  0  0  0  0
  189.7910  174.8140  143.3880 C   0  0  1  0  0  3  0  0  0  0  0  0
  187.6770  176.0560  141.9150 C   0  0  0  0  0  0  0  0  0  0  0  0
  186.2500  177.8700  144.5840 C   0  0  0  0  0  0  0  0  0  0  0  0
  184.3070  178.0930  146.5940 C   0  0  0  0  0  3  0  0  0  0  0  0
  185.5370  179.0690  144.7480 C   0  0  0  0  0  0  0  0  0  0  0  0
  184.5680  179.1760  145.7500 C   0  0  0  0  0  3  0  0  0  0  0  0
  185.0160  176.8990  146.4400 C   0  0  0  0  0  3  0  0  0  0  0  0
  185.7810  180.1310  143.9420 F   0  0  0  0  0  0  0  0  0  0  0  0
  185.9860  176.7880  145.4390 C   0  0  0  0  0  3  0  0  0  0  0  0
  191.2010  174.5920  143.9590 C   0  0  1  0  0  0  0  0  0  0  0  0
  192.3410  175.4020  143.4770 C   0  0  0  0  0  2  0  0  0  0  0  0
  191.6720  175.7000  144.6850 O   0  0  0  0  0  0  0  0  0  0  0  0
  191.5400  173.2820  144.6560 C   0  0  0  0  0  2  0  0  0  0  0  0
  189.5250  172.1230  145.1780 O   0  0  0  0  0  1  0  0  0  0  0  0
  190.5700  171.4700  143.2450 O   0  0  0  0  0  0  0  0  0  0  0  0
  190.4950  172.2560  144.3870 C   0  0  0  0  0  0  0  0  0  0  0  0
  1 12  1  1  0  0  0
  2  1  1  0  0  0  0
  2  7  1  6  0  0  0
  3  4  1  0  0  0  0
  4 11  2  0  0  0  0
  4  8  1  0  0  0  0
  5  6  1  6  0  0  0
  5  9  1  0  0  0  0
  5 11  1  0  0  0  0
  8  1  1  0  0  0  0
 10  9  1  6  0  0  0
 10  7  1  0  0  0  0
 10 19  1  0  0  0  0
 11  2  1  0  0  0  0
 12 14  2  0  0  0  0
 12 18  1  0  0  0  0
 14 15  1  0  0  0  0
 15 13  2  0  0  0  0
 16 13  1  0  0  0  0
 17 14  1  0  0  0  0
 18 16  2  0  0  0  0
 19 22  1  1  0  0  0
 19 21  1  0  0  0  0
 20 19  1  0  0  0  0
 20 21  1  0  0  0  0
 24 25  2  0  0  0  0
 25 22  1  0  0  0  0
 25 23  1  0  0  0  0
M  END
>  <MODEL>
8

>  <REMARK>
 VINA RESULT:      -7.2      2.067      3.217
  Name = 
  4 active torsions:
  status: ('A' for Active; 'I' for Inactive)
    1  A    between atoms: C_1  and  C_5
    2  A    between atoms: C_2  and  C_6
    3  A    between atoms: C_2  and  C_21
    4  A    between atoms: C_6  and  C_23
                            x       y       z     vdW  Elec       q    Type
                         _______ _______ _______ _____ _____    ______ ____

>  <TORSDO>
F 4

$$$$
=
 OpenBabel11052417293D

 25 28  0  0  1  0  0  0  0  0999 V2000
  187.4860  176.6440  145.6460 C   0  0  1  0  0  3  0  0  0  0  0  0
  188.6260  176.5490  144.6290 C   0  0  2  0  0  3  0  0  0  0  0  0
  190.4530  177.3980  147.8140 C   0  0  0  0  0  1  0  0  0  0  0  0
  189.5180  177.0780  146.6990 C   0  0  0  0  0  0  0  0  0  0  0  0
  191.2090  176.5160  144.8300 C   0  0  1  0  0  3  0  0  0  0  0  0
  192.3780  176.5350  145.7990 C   0  0  0  0  0  1  0  0  0  0  0  0
  188.6780  175.1760  143.9690 C   0  0  0  0  0  2  0  0  0  0  0  0
  188.1130  177.0780  146.8870 N   0  0  0  0  0  2  0  0  0  0  0  0
  191.2020  175.1770  144.0880 C   0  0  0  0  0  2  0  0  0  0  0  0
  189.9760  175.0370  143.1640 C   0  0  1  0  0  3  0  0  0  0  0  0
  189.8510  176.7440  145.4560 C   0  0  0  0  0  0  0  0  0  0  0  0
  186.4430  177.6240  145.2000 C   0  0  0  0  0  0  0  0  0  0  0  0
  184.4700  179.4280  144.3570 C   0  0  0  0  0  3  0  0  0  0  0  0
  185.2010  177.6670  145.8520 C   0  0  0  0  0  0  0  0  0  0  0  0
  184.2190  178.5690  145.4300 C   0  0  0  0  0  3  0  0  0  0  0  0
  185.7030  179.3870  143.7000 C   0  0  0  0  0  3  0  0  0  0  0  0
  184.9380  176.8370  146.8910 F   0  0  0  0  0  0  0  0  0  0  0  0
  186.6860  178.4870  144.1200 C   0  0  0  0  0  3  0  0  0  0  0  0
  189.9630  173.7370  142.3430 C   0  0  1  0  0  0  0  0  0  0  0  0
  190.2740  172.4420  142.9860 C   0  0  0  0  0  2  0  0  0  0  0  0
  188.9440  172.8550  142.7430 O   0  0  0  0  0  0  0  0  0  0  0  0
  190.0890  173.7960  140.8280 C   0  0  0  0  0  2  0  0  0  0  0  0
  188.1880  173.0220  139.6180 O   0  0  0  0  0  0  0  0  0  0  0  0
  188.1200  175.2190  140.2700 O   0  0  0  0  0  1  0  0  0  0  0  0
  188.7550  173.9870  140.1940 C   0  0  0  0  0  0  0  0  0  0  0  0
  1 12  1  6  0  0  0
  1  8  1  0  0  0  0
  2  7  1  1  0  0  0
  2 11  1  0  0  0  0
  2  1  1  0  0  0  0
  4  8  1  0  0  0  0
  4  3  1  0  0  0  0
  5 11  1  0  0  0  0
  5  6  1  1  0  0  0
  9  5  1  0  0  0  0
 10  7  1  1  0  0  0
 10  9  1  0  0  0  0
 11  4  2  0  0  0  0
 12 14  1  0  0  0  0
 13 15  1  0  0  0  0
 14 17  1  0  0  0  0
 15 14  2  0  0  0  0
 16 18  1  0  0  0  0
 16 13  2  0  0  0  0
 18 12  2  0  0  0  0
 19 22  1  6  0  0  0
 19 21  1  0  0  0  0
 19 20  1  0  0  0  0
 19 10  1  0  0  0  0
 21 20  1  0  0  0  0
 23 25  2  0  0  0  0
 25 24  1  0  0  0  0
 25 22  1  0  0  0  0
M  END
>  <MODEL>
9

>  <REMARK>
 VINA RESULT:      -7.2      2.958      4.783
  Name = 
  4 active torsions:
  status: ('A' for Active; 'I' for Inactive)
    1  A    between atoms: C_1  and  C_5
    2  A    between atoms: C_2  and  C_6
    3  A    between atoms: C_2  and  C_21
    4  A    between atoms: C_6  and  C_23
                            x       y       z     vdW  Elec       q    Type
                         _______ _______ _______ _____ _____    ______ ____

>  <TORSDO>
F 4

$$$$
