=
 OpenBabel11052418343D

 27 29  0  0  1  0  0  0  0  0999 V2000
  190.3100  176.2680  143.4870 C   0  0  1  0  0  3  0  0  0  0  0  0
  189.3500  176.3190  142.3080 C   0  0  1  0  0  3  0  0  0  0  0  0
  190.1950  174.7540  143.5100 C   0  0  2  0  0  3  0  0  0  0  0  0
  189.8160  174.2610  141.2100 O   0  0  0  0  0  1  0  0  0  0  0  0
  189.2180  174.8070  142.3460 C   0  0  2  0  0  3  0  0  0  0  0  0
  187.4990  178.2420  141.8270 O   0  0  0  0  0  0  0  0  0  0  0  0
  187.8180  177.1170  142.7710 S   0  0  0  0  0  0  0  0  0  0  0  0
  186.6970  176.1170  142.7450 O   0  0  0  0  0  0  0  0  0  0  0  0
  187.9850  177.7700  144.4230 C   0  0  0  0  0  2  0  0  0  0  0  0
  184.1720  178.1030  146.3570 C   0  0  0  0  0  3  0  0  0  0  0  0
  186.6530  177.8800  145.0820 C   0  0  0  0  0  0  0  0  0  0  0  0
  186.2370  176.8960  145.9870 C   0  0  0  0  0  3  0  0  0  0  0  0
  184.9970  177.0070  146.6220 C   0  0  0  0  0  3  0  0  0  0  0  0
  184.5850  179.0900  145.4560 C   0  0  0  0  0  3  0  0  0  0  0  0
  185.8260  178.9790  144.8200 C   0  0  0  0  0  3  0  0  0  0  0  0
  189.4950  174.3210  144.7570 C   0  0  0  0  0  3  0  0  0  0  0  0
  189.8710  173.3310  145.3610 O   0  0  0  0  0  0  0  0  0  0  0  0
  191.6460  176.6500  143.0520 N   0  0  0  0  0  2  0  0  0  0  0  0
  192.2970  177.3240  144.1680 C   0  0  0  0  0  2  0  0  0  0  0  0
  193.0850  174.4560  146.2710 C   0  0  0  0  0  3  0  0  0  0  0  0
  193.7500  173.5460  145.2800 C   0  0  0  0  0  2  0  0  0  0  0  0
  194.6770  174.3250  144.3590 C   0  0  0  0  0  2  0  0  0  0  0  0
  193.3700  176.4270  144.7700 C   0  0  2  0  0  3  0  0  0  0  0  0
  193.8790  175.4440  143.7090 C   0  0  0  0  0  2  0  0  0  0  0  0
  192.8620  175.7610  146.0310 C   0  0  0  0  0  0  0  0  0  0  0  0
  190.9810  176.2150  147.5880 C   0  0  0  0  0  1  0  0  0  0  0  0
  192.2220  176.5610  146.9870 O   0  0  0  0  0  0  0  0  0  0  0  0
  1 18  1  6  0  0  0
  1  3  1  0  0  0  0
  2  5  1  0  0  0  0
  2  7  1  1  0  0  0
  2  1  1  0  0  0  0
  3 16  1  1  0  0  0
  5  4  1  6  0  0  0
  5  3  1  0  0  0  0
  6  7  2  0  0  0  0
  7  9  1  0  0  0  0
  8  7  2  0  0  0  0
  9 11  1  0  0  0  0
 10 13  1  0  0  0  0
 11 12  1  0  0  0  0
 12 13  2  0  0  0  0
 14 10  2  0  0  0  0
 15 11  2  0  0  0  0
 15 14  1  0  0  0  0
 16 17  2  0  0  0  0
 18 19  1  0  0  0  0
 21 20  1  0  0  0  0
 22 21  1  0  0  0  0
 23 19  1  6  0  0  0
 23 25  1  0  0  0  0
 24 22  1  0  0  0  0
 24 23  1  0  0  0  0
 25 20  2  0  0  0  0
 25 27  1  0  0  0  0
 27 26  1  0  0  0  0
M  END
>  <MODEL>
1

>  <REMARK>
 VINA RESULT:      -6.7      0.000      0.000
  Name = 
  8 active torsions:
  status: ('A' for Active; 'I' for Inactive)
    1  A    between atoms: S_2  and  C_15
    2  A    between atoms: S_2  and  C_18
    3  A    between atoms: C_3  and  N_26
    4  A    between atoms: C_9  and  C_15
    5  A    between atoms: C_10  and  C_20
    6  A    between atoms: C_12  and  C_14
    7  A    between atoms: C_12  and  N_26
    8  A    between atoms: C_17  and  O_21
                            x       y       z     vdW  Elec       q    Type
                         _______ _______ _______ _____ _____    ______ ____

>  <TORSDO>
F 8

$$$$
=
 OpenBabel11052418343D

 27 29  0  0  1  0  0  0  0  0999 V2000
  188.1360  175.9030  143.5040 C   0  0  1  0  0  3  0  0  0  0  0  0
  188.0900  177.4010  143.2440 C   0  0  1  0  0  3  0  0  0  0  0  0
  189.2160  175.7560  142.4470 C   0  0  2  0  0  3  0  0  0  0  0  0
  190.3340  177.8550  142.6020 O   0  0  0  0  0  1  0  0  0  0  0  0
  189.1530  177.2510  142.1710 C   0  0  2  0  0  3  0  0  0  0  0  0
  186.6600  178.1790  141.0730 O   0  0  0  0  0  0  0  0  0  0  0  0
  186.5150  177.8730  142.5380 S   0  0  0  0  0  0  0  0  0  0  0  0
  185.5250  176.7560  142.7140 O   0  0  0  0  0  0  0  0  0  0  0  0
  185.9180  179.3260  143.3830 C   0  0  0  0  0  2  0  0  0  0  0  0
  184.7900  178.3350  147.4000 C   0  0  0  0  0  3  0  0  0  0  0  0
  185.5280  178.9970  144.7830 C   0  0  0  0  0  0  0  0  0  0  0  0
  184.1750  178.8820  145.1240 C   0  0  0  0  0  3  0  0  0  0  0  0
  183.8060  178.5530  146.4310 C   0  0  0  0  0  3  0  0  0  0  0  0
  186.1430  178.4440  147.0630 C   0  0  0  0  0  3  0  0  0  0  0  0
  186.5110  178.7740  145.7540 C   0  0  0  0  0  3  0  0  0  0  0  0
  188.6800  174.9900  141.2810 C   0  0  0  0  0  3  0  0  0  0  0  0
  189.2290  173.9650  140.9140 O   0  0  0  0  0  0  0  0  0  0  0  0
  188.7050  175.6480  144.8200 N   0  0  0  0  0  2  0  0  0  0  0  0
  189.5940  174.5000  144.7010 C   0  0  0  0  0  2  0  0  0  0  0  0
  192.3800  176.3470  146.1500 C   0  0  0  0  0  3  0  0  0  0  0  0
  191.8630  176.6090  147.5350 C   0  0  0  0  0  2  0  0  0  0  0  0
  191.1490  175.3870  148.0920 C   0  0  0  0  0  2  0  0  0  0  0  0
  190.6790  174.5640  145.7680 C   0  0  2  0  0  3  0  0  0  0  0  0
  190.0630  174.9760  147.1100 C   0  0  0  0  0  2  0  0  0  0  0  0
  191.8190  175.4520  145.3160 C   0  0  0  0  0  0  0  0  0  0  0  0
  193.3430  176.0850  143.4600 C   0  0  0  0  0  1  0  0  0  0  0  0
  192.3340  175.2600  144.0280 O   0  0  0  0  0  0  0  0  0  0  0  0
  1 18  1  1  0  0  0
  2  7  1  6  0  0  0
  2  1  1  0  0  0  0
  3 16  1  6  0  0  0
  3  1  1  0  0  0  0
  5  3  1  0  0  0  0
  5  4  1  1  0  0  0
  5  2  1  0  0  0  0
  6  7  2  0  0  0  0
  7  8  2  0  0  0  0
  7  9  1  0  0  0  0
  9 11  1  0  0  0  0
 11 12  2  0  0  0  0
 11 15  1  0  0  0  0
 12 13  1  0  0  0  0
 13 10  2  0  0  0  0
 14 10  1  0  0  0  0
 15 14  2  0  0  0  0
 17 16  2  0  0  0  0
 19 18  1  0  0  0  0
 20 21  1  0  0  0  0
 21 22  1  0  0  0  0
 23 19  1  6  0  0  0
 23 24  1  0  0  0  0
 24 22  1  0  0  0  0
 25 23  1  0  0  0  0
 25 20  2  0  0  0  0
 26 27  1  0  0  0  0
 27 25  1  0  0  0  0
M  END
>  <MODEL>
2

>  <REMARK>
 VINA RESULT:      -6.7      1.718      3.068
  Name = 
  8 active torsions:
  status: ('A' for Active; 'I' for Inactive)
    1  A    between atoms: S_2  and  C_15
    2  A    between atoms: S_2  and  C_18
    3  A    between atoms: C_3  and  N_26
    4  A    between atoms: C_9  and  C_15
    5  A    between atoms: C_10  and  C_20
    6  A    between atoms: C_12  and  C_14
    7  A    between atoms: C_12  and  N_26
    8  A    between atoms: C_17  and  O_21
                            x       y       z     vdW  Elec       q    Type
                         _______ _______ _______ _____ _____    ______ ____

>  <TORSDO>
F 8

$$$$
=
 OpenBabel11052418343D

 27 29  0  0  1  0  0  0  0  0999 V2000
  191.8080  176.2980  145.0100 C   0  0  1  0  0  3  0  0  0  0  0  0
  191.1840  175.1350  145.7660 C   0  0  1  0  0  3  0  0  0  0  0  0
  193.1900  175.7960  145.3850 C   0  0  2  0  0  3  0  0  0  0  0  0
  192.8340  173.4430  145.5070 O   0  0  0  0  0  1  0  0  0  0  0  0
  192.5660  174.6460  146.1600 C   0  0  2  0  0  3  0  0  0  0  0  0
  189.1260  174.8000  147.5010 O   0  0  0  0  0  0  0  0  0  0  0  0
  190.2720  175.7210  147.1890 S   0  0  0  0  0  0  0  0  0  0  0  0
  191.1840  175.7960  148.3810 O   0  0  0  0  0  0  0  0  0  0  0  0
  189.6330  177.3490  146.8340 C   0  0  0  0  0  2  0  0  0  0  0  0
  185.3630  177.2020  146.4560 C   0  0  0  0  0  3  0  0  0  0  0  0
  188.1500  177.3130  146.6960 C   0  0  0  0  0  0  0  0  0  0  0  0
  187.5650  176.6850  145.5900 C   0  0  0  0  0  3  0  0  0  0  0  0
  186.1730  176.6320  145.4690 C   0  0  0  0  0  3  0  0  0  0  0  0
  185.9440  177.8260  147.5640 C   0  0  0  0  0  3  0  0  0  0  0  0
  187.3370  177.8790  147.6850 C   0  0  0  0  0  3  0  0  0  0  0  0
  193.8410  176.7610  146.3210 C   0  0  0  0  0  3  0  0  0  0  0  0
  194.7040  177.5220  145.9180 O   0  0  0  0  0  0  0  0  0  0  0  0
  191.5970  176.1260  143.5790 N   0  0  0  0  0  2  0  0  0  0  0  0
  190.3120  175.4640  143.3990 C   0  0  0  0  0  2  0  0  0  0  0  0
  187.0560  176.2010  141.9430 C   0  0  0  0  0  3  0  0  0  0  0  0
  187.0350  177.7000  142.0290 C   0  0  0  0  0  2  0  0  0  0  0  0
  188.3890  178.2880  141.6600 C   0  0  0  0  0  2  0  0  0  0  0  0
  189.5250  176.1390  142.2840 C   0  0  2  0  0  3  0  0  0  0  0  0
  189.4470  177.6480  142.5460 C   0  0  0  0  0  2  0  0  0  0  0  0
  188.1760  175.4750  142.1070 C   0  0  0  0  0  0  0  0  0  0  0  0
  188.4600  173.3480  140.8560 C   0  0  0  0  0  1  0  0  0  0  0  0
  188.1350  174.0770  142.0330 O   0  0  0  0  0  0  0  0  0  0  0  0
  1 18  1  6  0  0  0
  1  3  1  0  0  0  0
  1  2  1  0  0  0  0
  2  5  1  0  0  0  0
  2  7  1  1  0  0  0
  3  5  1  0  0  0  0
  3 16  1  1  0  0  0
  5  4  1  6  0  0  0
  7  6  2  0  0  0  0
  7  8  2  0  0  0  0
  9  7  1  0  0  0  0
 10 14  1  0  0  0  0
 11  9  1  0  0  0  0
 11 15  1  0  0  0  0
 12 11  2  0  0  0  0
 13 12  1  0  0  0  0
 13 10  2  0  0  0  0
 14 15  2  0  0  0  0
 17 16  2  0  0  0  0
 19 18  1  0  0  0  0
 20 21  1  0  0  0  0
 20 25  2  0  0  0  0
 22 21  1  0  0  0  0
 22 24  1  0  0  0  0
 23 24  1  0  0  0  0
 23 19  1  1  0  0  0
 25 23  1  0  0  0  0
 26 27  1  0  0  0  0
 27 25  1  0  0  0  0
M  END
>  <MODEL>
3

>  <REMARK>
 VINA RESULT:      -6.7      2.036      5.156
  Name = 
  8 active torsions:
  status: ('A' for Active; 'I' for Inactive)
    1  A    between atoms: S_2  and  C_15
    2  A    between atoms: S_2  and  C_18
    3  A    between atoms: C_3  and  N_26
    4  A    between atoms: C_9  and  C_15
    5  A    between atoms: C_10  and  C_20
    6  A    between atoms: C_12  and  C_14
    7  A    between atoms: C_12  and  N_26
    8  A    between atoms: C_17  and  O_21
                            x       y       z     vdW  Elec       q    Type
                         _______ _______ _______ _____ _____    ______ ____

>  <TORSDO>
F 8

$$$$
=
 OpenBabel11052418343D

 27 29  0  0  1  0  0  0  0  0999 V2000
  192.5370  174.8480  145.0170 C   0  0  1  0  0  3  0  0  0  0  0  0
  191.1100  175.0440  145.5050 C   0  0  1  0  0  3  0  0  0  0  0  0
  193.0450  175.6910  146.1720 C   0  0  2  0  0  3  0  0  0  0  0  0
  191.4200  175.2350  147.8550 O   0  0  0  0  0  1  0  0  0  0  0  0
  191.6160  175.9060  146.6480 C   0  0  2  0  0  3  0  0  0  0  0  0
  191.0020  176.3530  143.1320 O   0  0  0  0  0  0  0  0  0  0  0  0
  190.1650  176.0090  144.3320 S   0  0  0  0  0  0  0  0  0  0  0  0
  188.9610  175.2280  143.8860 O   0  0  0  0  0  0  0  0  0  0  0  0
  189.6300  177.5150  145.1240 C   0  0  0  0  0  2  0  0  0  0  0  0
  185.5260  177.2560  146.3420 C   0  0  0  0  0  3  0  0  0  0  0  0
  188.2020  177.4120  145.5380 C   0  0  0  0  0  0  0  0  0  0  0  0
  187.8680  176.8040  146.7540 C   0  0  0  0  0  3  0  0  0  0  0  0
  186.5310  176.7240  147.1550 C   0  0  0  0  0  3  0  0  0  0  0  0
  185.8550  177.8690  145.1290 C   0  0  0  0  0  3  0  0  0  0  0  0
  187.1930  177.9480  144.7280 C   0  0  0  0  0  3  0  0  0  0  0  0
  193.6170  176.9690  145.6510 C   0  0  0  0  0  3  0  0  0  0  0  0
  194.7320  177.3270  145.9900 O   0  0  0  0  0  0  0  0  0  0  0  0
  192.9380  173.4620  145.2100 N   0  0  0  0  0  2  0  0  0  0  0  0
  193.5950  173.0180  143.9870 C   0  0  0  0  0  2  0  0  0  0  0  0
  196.7580  174.4040  145.1440 C   0  0  0  0  0  3  0  0  0  0  0  0
  197.0560  173.5080  146.3110 C   0  0  0  0  0  2  0  0  0  0  0  0
  196.7220  172.0590  145.9870 C   0  0  0  0  0  2  0  0  0  0  0  0
  195.0800  172.7980  144.2380 C   0  0  2  0  0  3  0  0  0  0  0  0
  195.2740  171.9920  145.5280 C   0  0  0  0  0  2  0  0  0  0  0  0
  195.8250  174.1150  144.2180 C   0  0  0  0  0  0  0  0  0  0  0  0
  196.2890  176.2140  142.9740 C   0  0  0  0  0  1  0  0  0  0  0  0
  195.5780  174.9970  143.1580 O   0  0  0  0  0  0  0  0  0  0  0  0
  1 18  1  1  0  0  0
  1  2  1  0  0  0  0
  1  3  1  0  0  0  0
  2  7  1  6  0  0  0
  2  5  1  0  0  0  0
  3 16  1  6  0  0  0
  3  5  1  0  0  0  0
  5  4  1  1  0  0  0
  6  7  2  0  0  0  0
  7  9  1  0  0  0  0
  8  7  2  0  0  0  0
  9 11  1  0  0  0  0
 10 13  1  0  0  0  0
 11 12  1  0  0  0  0
 12 13  2  0  0  0  0
 14 10  2  0  0  0  0
 15 14  1  0  0  0  0
 15 11  2  0  0  0  0
 16 17  2  0  0  0  0
 19 18  1  0  0  0  0
 20 21  1  0  0  0  0
 22 21  1  0  0  0  0
 23 19  1  1  0  0  0
 23 24  1  0  0  0  0
 24 22  1  0  0  0  0
 25 23  1  0  0  0  0
 25 20  2  0  0  0  0
 26 27  1  0  0  0  0
 27 25  1  0  0  0  0
M  END
>  <MODEL>
4

>  <REMARK>
 VINA RESULT:      -6.4      2.313      4.012
  Name = 
  8 active torsions:
  status: ('A' for Active; 'I' for Inactive)
    1  A    between atoms: S_2  and  C_15
    2  A    between atoms: S_2  and  C_18
    3  A    between atoms: C_3  and  N_26
    4  A    between atoms: C_9  and  C_15
    5  A    between atoms: C_10  and  C_20
    6  A    between atoms: C_12  and  C_14
    7  A    between atoms: C_12  and  N_26
    8  A    between atoms: C_17  and  O_21
                            x       y       z     vdW  Elec       q    Type
                         _______ _______ _______ _____ _____    ______ ____

>  <TORSDO>
F 8

$$$$
=
 OpenBabel11052418343D

 27 29  0  0  1  0  0  0  0  0999 V2000
  190.0610  175.8050  143.1070 C   0  0  1  0  0  3  0  0  0  0  0  0
  188.9100  175.6490  142.1250 C   0  0  1  0  0  3  0  0  0  0  0  0
  189.7980  174.4050  143.6320 C   0  0  2  0  0  3  0  0  0  0  0  0
  188.9500  173.3110  141.6920 O   0  0  0  0  0  1  0  0  0  0  0  0
  188.6330  174.2580  142.6660 C   0  0  2  0  0  3  0  0  0  0  0  0
  187.3570  177.7510  141.3990 O   0  0  0  0  0  0  0  0  0  0  0  0
  187.5810  176.7780  142.5220 S   0  0  0  0  0  0  0  0  0  0  0  0
  186.3150  176.0060  142.7660 O   0  0  0  0  0  0  0  0  0  0  0  0
  188.0130  177.6800  144.0000 C   0  0  0  0  0  2  0  0  0  0  0  0
  184.5350  178.2460  146.4440 C   0  0  0  0  0  3  0  0  0  0  0  0
  186.8130  177.8840  144.8600 C   0  0  0  0  0  0  0  0  0  0  0  0
  185.9430  178.9510  144.6060 C   0  0  0  0  0  3  0  0  0  0  0  0
  184.8060  179.1330  145.3980 C   0  0  0  0  0  3  0  0  0  0  0  0
  185.3990  177.1770  146.6990 C   0  0  0  0  0  3  0  0  0  0  0  0
  186.5370  176.9950  145.9060 C   0  0  0  0  0  3  0  0  0  0  0  0
  189.3000  174.4790  145.0390 C   0  0  0  0  0  3  0  0  0  0  0  0
  189.6850  173.6750  145.8700 O   0  0  0  0  0  0  0  0  0  0  0  0
  191.3260  175.8260  142.3860 N   0  0  0  0  0  2  0  0  0  0  0  0
  192.1970  176.7860  143.0510 C   0  0  0  0  0  2  0  0  0  0  0  0
  195.1560  176.6510  145.1710 C   0  0  0  0  0  3  0  0  0  0  0  0
  194.5640  176.9720  146.5130 C   0  0  0  0  0  2  0  0  0  0  0  0
  193.2320  176.2630  146.7060 C   0  0  0  0  0  2  0  0  0  0  0  0
  192.9120  176.1230  144.2210 C   0  0  2  0  0  3  0  0  0  0  0  0
  192.3220  176.6270  145.5420 C   0  0  0  0  0  2  0  0  0  0  0  0
  194.4100  176.3100  144.1040 C   0  0  0  0  0  0  0  0  0  0  0  0
  196.3540  176.4010  142.5610 C   0  0  0  0  0  1  0  0  0  0  0  0
  195.0150  176.0370  142.8710 O   0  0  0  0  0  0  0  0  0  0  0  0
  1 18  1  6  0  0  0
  1  3  1  0  0  0  0
  2  7  1  1  0  0  0
  2  5  1  0  0  0  0
  2  1  1  0  0  0  0
  3 16  1  1  0  0  0
  5  4  1  6  0  0  0
  5  3  1  0  0  0  0
  6  7  2  0  0  0  0
  7  8  2  0  0  0  0
  7  9  1  0  0  0  0
  9 11  1  0  0  0  0
 10 14  1  0  0  0  0
 11 15  1  0  0  0  0
 12 11  2  0  0  0  0
 12 13  1  0  0  0  0
 13 10  2  0  0  0  0
 15 14  2  0  0  0  0
 16 17  2  0  0  0  0
 18 19  1  0  0  0  0
 20 21  1  0  0  0  0
 21 22  1  0  0  0  0
 23 19  1  6  0  0  0
 23 24  1  0  0  0  0
 24 22  1  0  0  0  0
 25 23  1  0  0  0  0
 25 20  2  0  0  0  0
 26 27  1  0  0  0  0
 27 25  1  0  0  0  0
M  END
>  <MODEL>
5

>  <REMARK>
 VINA RESULT:      -6.4      1.418      2.445
  Name = 
  8 active torsions:
  status: ('A' for Active; 'I' for Inactive)
    1  A    between atoms: S_2  and  C_15
    2  A    between atoms: S_2  and  C_18
    3  A    between atoms: C_3  and  N_26
    4  A    between atoms: C_9  and  C_15
    5  A    between atoms: C_10  and  C_20
    6  A    between atoms: C_12  and  C_14
    7  A    between atoms: C_12  and  N_26
    8  A    between atoms: C_17  and  O_21
                            x       y       z     vdW  Elec       q    Type
                         _______ _______ _______ _____ _____    ______ ____

>  <TORSDO>
F 8

$$$$
=
 OpenBabel11052418343D

 27 29  0  0  1  0  0  0  0  0999 V2000
  189.6280  176.6210  144.2450 C   0  0  1  0  0  3  0  0  0  0  0  0
  190.6820  176.0710  145.1940 C   0  0  1  0  0  3  0  0  0  0  0  0
  188.8940  175.2930  144.2960 C   0  0  2  0  0  3  0  0  0  0  0  0
  189.4130  174.5370  146.4950 O   0  0  0  0  0  1  0  0  0  0  0  0
  189.9590  174.7360  145.2270 C   0  0  2  0  0  3  0  0  0  0  0  0
  192.5520  174.5020  144.0090 O   0  0  0  0  0  0  0  0  0  0  0  0
  192.2650  175.9330  144.3720 S   0  0  0  0  0  0  0  0  0  0  0  0
  192.2630  176.7680  143.1230 O   0  0  0  0  0  0  0  0  0  0  0  0
  193.5390  176.5240  145.4730 C   0  0  0  0  0  2  0  0  0  0  0  0
  197.2410  174.5220  144.6460 C   0  0  0  0  0  3  0  0  0  0  0  0
  194.8330  175.8400  145.1930 C   0  0  0  0  0  0  0  0  0  0  0  0
  195.2840  174.8210  146.0400 C   0  0  0  0  0  3  0  0  0  0  0  0
  196.4880  174.1640  145.7690 C   0  0  0  0  0  3  0  0  0  0  0  0
  196.7920  175.5370  143.7950 C   0  0  0  0  0  3  0  0  0  0  0  0
  195.5870  176.1940  144.0680 C   0  0  0  0  0  3  0  0  0  0  0  0
  188.9670  174.6240  142.9620 C   0  0  0  0  0  3  0  0  0  0  0  0
  187.9460  174.3540  142.3530 O   0  0  0  0  0  0  0  0  0  0  0  0
  188.8400  177.6420  144.9210 N   0  0  0  0  0  2  0  0  0  0  0  0
  187.5440  177.7090  144.2580 C   0  0  0  0  0  2  0  0  0  0  0  0
  184.1020  178.5870  145.0630 C   0  0  0  0  0  3  0  0  0  0  0  0
  184.0650  178.2890  146.5340 C   0  0  0  0  0  2  0  0  0  0  0  0
  185.3420  178.7520  147.2180 C   0  0  0  0  0  2  0  0  0  0  0  0
  186.5950  178.5990  145.0490 C   0  0  2  0  0  3  0  0  0  0  0  0
  186.5260  178.1190  146.5040 C   0  0  0  0  0  2  0  0  0  0  0  0
  185.2480  178.6830  144.3640 C   0  0  0  0  0  0  0  0  0  0  0  0
  184.3450  178.2890  142.0840 C   0  0  0  0  0  1  0  0  0  0  0  0
  185.2220  178.9470  142.9890 O   0  0  0  0  0  0  0  0  0  0  0  0
  1  3  1  0  0  0  0
  1 18  1  1  0  0  0
  1  2  1  0  0  0  0
  2  7  1  6  0  0  0
  2  5  1  0  0  0  0
  3 16  1  6  0  0  0
  3  5  1  0  0  0  0
  5  4  1  1  0  0  0
  6  7  2  0  0  0  0
  7  9  1  0  0  0  0
  8  7  2  0  0  0  0
 10 13  1  0  0  0  0
 11  9  1  0  0  0  0
 11 12  1  0  0  0  0
 13 12  2  0  0  0  0
 14 15  1  0  0  0  0
 14 10  2  0  0  0  0
 15 11  2  0  0  0  0
 17 16  2  0  0  0  0
 19 18  1  0  0  0  0
 20 21  1  0  0  0  0
 21 22  1  0  0  0  0
 23 19  1  6  0  0  0
 23 24  1  0  0  0  0
 24 22  1  0  0  0  0
 25 23  1  0  0  0  0
 25 20  2  0  0  0  0
 26 27  1  0  0  0  0
 27 25  1  0  0  0  0
M  END
>  <MODEL>
6

>  <REMARK>
 VINA RESULT:      -6.4      2.179      7.840
  Name = 
  8 active torsions:
  status: ('A' for Active; 'I' for Inactive)
    1  A    between atoms: S_2  and  C_15
    2  A    between atoms: S_2  and  C_18
    3  A    between atoms: C_3  and  N_26
    4  A    between atoms: C_9  and  C_15
    5  A    between atoms: C_10  and  C_20
    6  A    between atoms: C_12  and  C_14
    7  A    between atoms: C_12  and  N_26
    8  A    between atoms: C_17  and  O_21
                            x       y       z     vdW  Elec       q    Type
                         _______ _______ _______ _____ _____    ______ ____

>  <TORSDO>
F 8

$$$$
=
 OpenBabel11052418343D

 27 29  0  0  1  0  0  0  0  0999 V2000
  189.5810  176.3920  144.2100 C   0  0  1  0  0  3  0  0  0  0  0  0
  189.3750  175.2030  145.1350 C   0  0  1  0  0  3  0  0  0  0  0  0
  190.9350  175.8370  143.8050 C   0  0  2  0  0  3  0  0  0  0  0  0
  190.5760  173.4900  144.0050 O   0  0  0  0  0  1  0  0  0  0  0  0
  190.7380  174.6600  144.7470 C   0  0  2  0  0  3  0  0  0  0  0  0
  188.3760  174.8990  147.6390 O   0  0  0  0  0  0  0  0  0  0  0  0
  189.3460  175.7270  146.8450 S   0  0  0  0  0  0  0  0  0  0  0  0
  190.7190  175.5870  147.4420 O   0  0  0  0  0  0  0  0  0  0  0  0
  188.8470  177.4390  146.9140 C   0  0  0  0  0  2  0  0  0  0  0  0
  184.5740  177.8000  146.8810 C   0  0  0  0  0  3  0  0  0  0  0  0
  187.3610  177.5530  146.9140 C   0  0  0  0  0  0  0  0  0  0  0  0
  186.7370  178.5660  147.6530 C   0  0  0  0  0  3  0  0  0  0  0  0
  185.3450  178.6880  147.6380 C   0  0  0  0  0  3  0  0  0  0  0  0
  185.1940  176.7910  146.1390 C   0  0  0  0  0  3  0  0  0  0  0  0
  186.5870  176.6680  146.1540 C   0  0  0  0  0  3  0  0  0  0  0  0
  192.0190  176.7320  144.3110 C   0  0  0  0  0  3  0  0  0  0  0  0
  193.1890  176.4600  144.1010 O   0  0  0  0  0  0  0  0  0  0  0  0
  188.6620  176.3060  143.0840 N   0  0  0  0  0  2  0  0  0  0  0  0
  188.9180  177.4490  142.2170 C   0  0  0  0  0  2  0  0  0  0  0  0
  185.3370  177.5410  141.5580 C   0  0  0  0  0  3  0  0  0  0  0  0
  184.8190  178.0960  142.8530 C   0  0  0  0  0  2  0  0  0  0  0  0
  185.7140  179.2150  143.3640 C   0  0  0  0  0  2  0  0  0  0  0  0
  187.6580  178.2920  142.0730 C   0  0  2  0  0  3  0  0  0  0  0  0
  187.1370  178.6860  143.4600 C   0  0  0  0  0  2  0  0  0  0  0  0
  186.6370  177.5800  141.2120 C   0  0  0  0  0  0  0  0  0  0  0  0
  186.3160  177.1210  138.7920 C   0  0  0  0  0  1  0  0  0  0  0  0
  187.0660  177.0310  139.9970 O   0  0  0  0  0  0  0  0  0  0  0  0
  1 18  1  6  0  0  0
  1  2  1  0  0  0  0
  2  7  1  1  0  0  0
  3  1  1  0  0  0  0
  3 16  1  1  0  0  0
  3  5  1  0  0  0  0
  5  4  1  6  0  0  0
  5  2  1  0  0  0  0
  7  9  1  0  0  0  0
  7  8  2  0  0  0  0
  7  6  2  0  0  0  0
 10 13  1  0  0  0  0
 11  9  1  0  0  0  0
 11 12  1  0  0  0  0
 13 12  2  0  0  0  0
 14 15  1  0  0  0  0
 14 10  2  0  0  0  0
 15 11  2  0  0  0  0
 17 16  2  0  0  0  0
 19 18  1  0  0  0  0
 20 21  1  0  0  0  0
 21 22  1  0  0  0  0
 22 24  1  0  0  0  0
 23 19  1  1  0  0  0
 23 24  1  0  0  0  0
 25 20  2  0  0  0  0
 25 23  1  0  0  0  0
 26 27  1  0  0  0  0
 27 25  1  0  0  0  0
M  END
>  <MODEL>
7

>  <REMARK>
 VINA RESULT:      -6.4      2.333      5.684
  Name = 
  8 active torsions:
  status: ('A' for Active; 'I' for Inactive)
    1  A    between atoms: S_2  and  C_15
    2  A    between atoms: S_2  and  C_18
    3  A    between atoms: C_3  and  N_26
    4  A    between atoms: C_9  and  C_15
    5  A    between atoms: C_10  and  C_20
    6  A    between atoms: C_12  and  C_14
    7  A    between atoms: C_12  and  N_26
    8  A    between atoms: C_17  and  O_21
                            x       y       z     vdW  Elec       q    Type
                         _______ _______ _______ _____ _____    ______ ____

>  <TORSDO>
F 8

$$$$
=
 OpenBabel11052418343D

 27 29  0  0  1  0  0  0  0  0999 V2000
  191.3090  175.6990  144.9040 C   0  0  1  0  0  3  0  0  0  0  0  0
  190.2140  175.5060  143.8670 C   0  0  1  0  0  3  0  0  0  0  0  0
  190.6850  174.6130  145.7610 C   0  0  2  0  0  3  0  0  0  0  0  0
  189.7110  173.1950  144.1120 O   0  0  0  0  0  1  0  0  0  0  0  0
  189.5770  174.4360  144.7350 C   0  0  2  0  0  3  0  0  0  0  0  0
  189.5010  177.9250  144.8690 O   0  0  0  0  0  0  0  0  0  0  0  0
  189.1770  176.9600  143.7620 S   0  0  0  0  0  0  0  0  0  0  0  0
  189.3880  177.6400  142.4380 O   0  0  0  0  0  0  0  0  0  0  0  0
  187.4700  176.4620  143.9020 C   0  0  0  0  0  2  0  0  0  0  0  0
  185.5070  178.7810  146.9300 C   0  0  0  0  0  3  0  0  0  0  0  0
  186.7730  177.2620  144.9500 C   0  0  0  0  0  0  0  0  0  0  0  0
  186.7160  176.7910  146.2670 C   0  0  0  0  0  3  0  0  0  0  0  0
  186.0820  177.5480  147.2560 C   0  0  0  0  0  3  0  0  0  0  0  0
  185.5660  179.2560  145.6170 C   0  0  0  0  0  3  0  0  0  0  0  0
  186.2000  178.4980  144.6270 C   0  0  0  0  0  3  0  0  0  0  0  0
  190.1390  175.2120  147.0170 C   0  0  0  0  0  3  0  0  0  0  0  0
  190.8370  175.2910  148.0130 O   0  0  0  0  0  0  0  0  0  0  0  0
  192.5810  175.2300  144.3710 N   0  0  0  0  0  2  0  0  0  0  0  0
  193.3770  174.7480  145.4920 C   0  0  0  0  0  2  0  0  0  0  0  0
  196.9020  173.8430  145.6400 C   0  0  0  0  0  3  0  0  0  0  0  0
  196.8160  172.4290  146.1370 C   0  0  0  0  0  2  0  0  0  0  0  0
  195.6770  171.6800  145.4620 C   0  0  0  0  0  2  0  0  0  0  0  0
  194.4950  173.8440  144.9910 C   0  0  2  0  0  3  0  0  0  0  0  0
  194.3950  172.4720  145.6680 C   0  0  0  0  0  2  0  0  0  0  0  0
  195.8410  174.5160  145.1600 C   0  0  0  0  0  0  0  0  0  0  0  0
  196.5680  176.1960  143.4820 C   0  0  0  0  0  1  0  0  0  0  0  0
  195.9750  175.8400  144.7250 O   0  0  0  0  0  0  0  0  0  0  0  0
  1 18  1  6  0  0  0
  1  3  1  0  0  0  0
  2  7  1  1  0  0  0
  2  5  1  0  0  0  0
  2  1  1  0  0  0  0
  3 16  1  1  0  0  0
  5  4  1  6  0  0  0
  5  3  1  0  0  0  0
  7  9  1  0  0  0  0
  7  6  2  0  0  0  0
  8  7  2  0  0  0  0
  9 11  1  0  0  0  0
 10 13  1  0  0  0  0
 11 12  1  0  0  0  0
 12 13  2  0  0  0  0
 14 10  2  0  0  0  0
 15 11  2  0  0  0  0
 15 14  1  0  0  0  0
 16 17  2  0  0  0  0
 18 19  1  0  0  0  0
 20 21  1  0  0  0  0
 22 24  1  0  0  0  0
 22 21  1  0  0  0  0
 23 25  1  0  0  0  0
 23 19  1  1  0  0  0
 23 24  1  0  0  0  0
 25 20  2  0  0  0  0
 26 27  1  0  0  0  0
 27 25  1  0  0  0  0
M  END
>  <MODEL>
8

>  <REMARK>
 VINA RESULT:      -6.3      1.988      2.924
  Name = 
  8 active torsions:
  status: ('A' for Active; 'I' for Inactive)
    1  A    between atoms: S_2  and  C_15
    2  A    between atoms: S_2  and  C_18
    3  A    between atoms: C_3  and  N_26
    4  A    between atoms: C_9  and  C_15
    5  A    between atoms: C_10  and  C_20
    6  A    between atoms: C_12  and  C_14
    7  A    between atoms: C_12  and  N_26
    8  A    between atoms: C_17  and  O_21
                            x       y       z     vdW  Elec       q    Type
                         _______ _______ _______ _____ _____    ______ ____

>  <TORSDO>
F 8

$$$$
=
 OpenBabel11052418343D

 27 29  0  0  1  0  0  0  0  0999 V2000
  188.4700  175.2750  141.6930 C   0  0  1  0  0  3  0  0  0  0  0  0
  189.0030  174.2350  142.6660 C   0  0  1  0  0  3  0  0  0  0  0  0
  187.9710  174.1660  140.7850 C   0  0  2  0  0  3  0  0  0  0  0  0
  187.4690  172.4440  142.3540 O   0  0  0  0  0  1  0  0  0  0  0  0
  188.5240  173.1250  141.7470 C   0  0  2  0  0  3  0  0  0  0  0  0
  191.3920  173.6800  141.5060 O   0  0  0  0  0  0  0  0  0  0  0  0
  190.7890  174.2920  142.7400 S   0  0  0  0  0  0  0  0  0  0  0  0
  191.2470  175.7190  142.8560 O   0  0  0  0  0  0  0  0  0  0  0  0
  191.3360  173.3800  144.1720 C   0  0  0  0  0  2  0  0  0  0  0  0
  190.7550  175.6420  147.7700 C   0  0  0  0  0  3  0  0  0  0  0  0
  191.1320  174.1790  145.4130 C   0  0  0  0  0  0  0  0  0  0  0  0
  189.8830  174.1820  146.0470 C   0  0  0  0  0  3  0  0  0  0  0  0
  189.6940  174.9140  147.2220 C   0  0  0  0  0  3  0  0  0  0  0  0
  192.0050  175.6380  147.1420 C   0  0  0  0  0  3  0  0  0  0  0  0
  192.1930  174.9060  145.9660 C   0  0  0  0  0  3  0  0  0  0  0  0
  188.7540  174.1650  139.5120 C   0  0  0  0  0  3  0  0  0  0  0  0
  188.1800  174.2090  138.4380 O   0  0  0  0  0  0  0  0  0  0  0  0
  187.3350  175.9690  142.2860 N   0  0  0  0  0  2  0  0  0  0  0  0
  187.6700  177.3850  142.3540 C   0  0  0  0  0  2  0  0  0  0  0  0
  185.1330  177.7990  144.9340 C   0  0  0  0  0  3  0  0  0  0  0  0
  185.7690  177.0720  146.0830 C   0  0  0  0  0  2  0  0  0  0  0  0
  187.2570  177.3750  146.1650 C   0  0  0  0  0  2  0  0  0  0  0  0
  187.3070  177.9460  143.7220 C   0  0  2  0  0  3  0  0  0  0  0  0
  187.8890  177.0490  144.8210 C   0  0  0  0  0  2  0  0  0  0  0  0
  185.8120  178.1600  143.8300 C   0  0  0  0  0  0  0  0  0  0  0  0
  184.0390  178.2870  142.0960 C   0  0  0  0  0  1  0  0  0  0  0  0
  185.1640  178.8230  142.7810 O   0  0  0  0  0  0  0  0  0  0  0  0
  1 18  1  1  0  0  0
  1  2  1  0  0  0  0
  2  7  1  6  0  0  0
  3 16  1  6  0  0  0
  3  1  1  0  0  0  0
  3  5  1  0  0  0  0
  5  4  1  1  0  0  0
  5  2  1  0  0  0  0
  6  7  2  0  0  0  0
  7  8  2  0  0  0  0
  7  9  1  0  0  0  0
  9 11  1  0  0  0  0
 11 15  2  0  0  0  0
 11 12  1  0  0  0  0
 12 13  2  0  0  0  0
 13 10  1  0  0  0  0
 14 10  2  0  0  0  0
 15 14  1  0  0  0  0
 17 16  2  0  0  0  0
 18 19  1  0  0  0  0
 20 21  1  0  0  0  0
 21 22  1  0  0  0  0
 23 19  1  6  0  0  0
 23 25  1  0  0  0  0
 23 24  1  0  0  0  0
 24 22  1  0  0  0  0
 25 20  2  0  0  0  0
 26 27  1  0  0  0  0
 27 25  1  0  0  0  0
M  END
>  <MODEL>
9

>  <REMARK>
 VINA RESULT:      -6.3      2.367      6.218
  Name = 
  8 active torsions:
  status: ('A' for Active; 'I' for Inactive)
    1  A    between atoms: S_2  and  C_15
    2  A    between atoms: S_2  and  C_18
    3  A    between atoms: C_3  and  N_26
    4  A    between atoms: C_9  and  C_15
    5  A    between atoms: C_10  and  C_20
    6  A    between atoms: C_12  and  C_14
    7  A    between atoms: C_12  and  N_26
    8  A    between atoms: C_17  and  O_21
                            x       y       z     vdW  Elec       q    Type
                         _______ _______ _______ _____ _____    ______ ____

>  <TORSDO>
F 8

$$$$
