=
 OpenBabel11052418283D

 27 31  0  0  1  0  0  0  0  0999 V2000
  188.9160  176.4590  145.8150 O   0  0  0  0  0  0  0  0  0  0  0  0
  188.3380  176.0170  143.5380 C   0  0  0  0  0  0  0  0  0  0  0  0
  190.8320  176.0060  143.5480 N   0  0  0  0  0  2  0  0  0  0  0  0
  188.3060  173.4540  140.2840 N   0  0  0  0  0  0  0  0  0  0  0  0
  189.4540  173.0150  139.7000 C   0  0  0  0  0  0  0  0  0  0  0  0
  187.1690  175.5720  142.9910 N   0  0  0  0  0  0  0  0  0  0  0  0
  190.7420  174.2800  141.2990 C   0  0  0  0  0  3  0  0  0  0  0  0
  193.0590  176.5010  146.4760 C   0  0  0  0  0  0  0  0  0  0  0  0
  190.6930  173.4220  140.2000 C   0  0  0  0  0  3  0  0  0  0  0  0
  194.5210  176.5610  146.7330 C   0  0  0  0  0  1  0  0  0  0  0  0
  189.5540  174.7290  141.8920 C   0  0  0  0  0  0  0  0  0  0  0  0
  188.3170  177.0110  144.6570 C   0  0  1  0  0  3  0  0  0  0  0  0
  189.3920  172.1400  138.5820 N   0  0  0  0  0  1  0  0  0  0  0  0
  188.3270  174.2910  141.3540 C   0  0  0  0  0  0  0  0  0  0  0  0
  190.2990  176.4050  145.9830 C   0  0  0  0  0  0  0  0  0  0  0  0
  189.5680  175.5820  143.0100 C   0  0  0  0  0  0  0  0  0  0  0  0
  192.5850  176.3620  145.1700 C   0  0  0  0  0  3  0  0  0  0  0  0
  187.1380  174.7250  141.9300 C   0  0  0  0  0  3  0  0  0  0  0  0
  192.1590  176.5530  147.5390 C   0  0  0  0  0  3  0  0  0  0  0  0
  190.7870  176.5050  147.2900 C   0  0  0  0  0  3  0  0  0  0  0  0
  191.2120  176.2980  144.9030 C   0  0  0  0  0  0  0  0  0  0  0  0
  184.4050  178.5100  145.6270 C   0  0  0  0  0  3  0  0  0  0  0  0
  186.9480  177.5360  144.9740 C   0  0  0  0  0  0  0  0  0  0  0  0
  186.1770  176.8940  145.9510 C   0  0  0  0  0  3  0  0  0  0  0  0
  184.9070  177.3780  146.2750 C   0  0  0  0  0  3  0  0  0  0  0  0
  185.1710  179.1590  144.6540 C   0  0  0  0  0  3  0  0  0  0  0  0
  186.4420  178.6740  144.3300 C   0  0  0  0  0  3  0  0  0  0  0  0
  1 15  1  0  0  0  0
  2 12  1  0  0  0  0
  3 21  1  0  0  0  0
  4 14  1  0  0  0  0
  5  9  1  0  0  0  0
  5  4  2  0  0  0  0
  6  2  2  0  0  0  0
  7 11  1  0  0  0  0
  8 10  1  0  0  0  0
  8 19  1  0  0  0  0
  9  7  2  0  0  0  0
 11 16  2  0  0  0  0
 12 23  1  1  0  0  0
 12  1  1  0  0  0  0
 13  5  1  0  0  0  0
 14 11  1  0  0  0  0
 14 18  2  0  0  0  0
 15 20  1  0  0  0  0
 16  2  1  0  0  0  0
 16  3  1  0  0  0  0
 17  8  2  0  0  0  0
 18  6  1  0  0  0  0
 20 19  2  0  0  0  0
 21 17  1  0  0  0  0
 21 15  2  0  0  0  0
 22 25  1  0  0  0  0
 23 24  1  0  0  0  0
 24 25  2  0  0  0  0
 26 22  2  0  0  0  0
 27 26  1  0  0  0  0
 27 23  2  0  0  0  0
M  END
>  <MODEL>
1

>  <REMARK>
 VINA RESULT:      -8.3      0.000      0.000
  Name = 
  1 active torsions:
  status: ('A' for Active; 'I' for Inactive)
    1  A    between atoms: C_9  and  C_15
                            x       y       z     vdW  Elec       q    Type
                         _______ _______ _______ _____ _____    ______ ____

>  <TORSDO>
F 1

$$$$
=
 OpenBabel11052418283D

 27 31  0  0  1  0  0  0  0  0999 V2000
  187.3240  177.0380  142.5410 O   0  0  0  0  0  0  0  0  0  0  0  0
  188.6630  176.5610  144.4630 C   0  0  0  0  0  0  0  0  0  0  0  0
  189.4110  174.8910  142.7680 N   0  0  0  0  0  2  0  0  0  0  0  0
  192.3750  176.4160  146.2950 N   0  0  0  0  0  0  0  0  0  0  0  0
  193.3680  175.6010  145.8480 C   0  0  0  0  0  0  0  0  0  0  0  0
  188.9510  177.3280  145.5550 N   0  0  0  0  0  0  0  0  0  0  0  0
  191.9200  174.8120  144.0890 C   0  0  0  0  0  3  0  0  0  0  0  0
  188.1910  174.5460  139.2800 C   0  0  0  0  0  0  0  0  0  0  0  0
  193.1560  174.7840  144.7350 C   0  0  0  0  0  3  0  0  0  0  0  0
  188.4490  173.6530  138.1210 C   0  0  0  0  0  1  0  0  0  0  0  0
  190.9020  175.6530  144.5590 C   0  0  0  0  0  0  0  0  0  0  0  0
  187.2850  176.5700  143.8770 C   0  0  1  0  0  3  0  0  0  0  0  0
  194.6240  175.5810  146.5130 N   0  0  0  0  0  1  0  0  0  0  0  0
  191.1620  176.4600  145.6830 C   0  0  0  0  0  0  0  0  0  0  0  0
  187.6940  176.2180  141.4770 C   0  0  0  0  0  0  0  0  0  0  0  0
  189.6490  175.7160  143.9220 C   0  0  0  0  0  0  0  0  0  0  0  0
  188.8240  174.3050  140.5000 C   0  0  0  0  0  3  0  0  0  0  0  0
  190.1640  177.3020  146.1640 C   0  0  0  0  0  3  0  0  0  0  0  0
  187.3420  175.6420  139.1430 C   0  0  0  0  0  3  0  0  0  0  0  0
  187.0970  176.4720  140.2370 C   0  0  0  0  0  3  0  0  0  0  0  0
  188.6020  175.1350  141.6060 C   0  0  0  0  0  0  0  0  0  0  0  0
  184.4090  178.8430  146.1260 C   0  0  0  0  0  3  0  0  0  0  0  0
  186.2920  177.3570  144.6800 C   0  0  0  0  0  0  0  0  0  0  0  0
  185.9820  178.6660  144.2940 C   0  0  0  0  0  3  0  0  0  0  0  0
  185.0450  179.4090  145.0170 C   0  0  0  0  0  3  0  0  0  0  0  0
  184.7100  177.5340  146.5130 C   0  0  0  0  0  3  0  0  0  0  0  0
  185.6470  176.7910  145.7900 C   0  0  0  0  0  3  0  0  0  0  0  0
  1 12  1  0  0  0  0
  2  6  1  0  0  0  0
  3 16  1  0  0  0  0
  5  4  1  0  0  0  0
  5 13  1  0  0  0  0
  6 18  2  0  0  0  0
  7 11  2  0  0  0  0
  7  9  1  0  0  0  0
  8 17  1  0  0  0  0
  9  5  2  0  0  0  0
 10  8  1  0  0  0  0
 11 14  1  0  0  0  0
 12  2  1  0  0  0  0
 12 23  1  1  0  0  0
 14 18  1  0  0  0  0
 14  4  2  0  0  0  0
 15 21  1  0  0  0  0
 15  1  1  0  0  0  0
 16  2  2  0  0  0  0
 16 11  1  0  0  0  0
 17 21  2  0  0  0  0
 19  8  2  0  0  0  0
 19 20  1  0  0  0  0
 20 15  2  0  0  0  0
 21  3  1  0  0  0  0
 22 26  1  0  0  0  0
 23 27  1  0  0  0  0
 24 23  2  0  0  0  0
 24 25  1  0  0  0  0
 25 22  2  0  0  0  0
 27 26  2  0  0  0  0
M  END
>  <MODEL>
2

>  <REMARK>
 VINA RESULT:      -8.1      1.932      5.574
  Name = 
  1 active torsions:
  status: ('A' for Active; 'I' for Inactive)
    1  A    between atoms: C_9  and  C_15
                            x       y       z     vdW  Elec       q    Type
                         _______ _______ _______ _____ _____    ______ ____

>  <TORSDO>
F 1

$$$$
=
 OpenBabel11052418283D

 27 31  0  0  1  0  0  0  0  0999 V2000
  190.9800  174.2780  143.4890 O   0  0  0  0  0  0  0  0  0  0  0  0
  190.0280  176.0400  144.7940 C   0  0  0  0  0  0  0  0  0  0  0  0
  188.5760  175.9270  142.7690 N   0  0  0  0  0  2  0  0  0  0  0  0
  186.8730  177.5480  147.0150 N   0  0  0  0  0  0  0  0  0  0  0  0
  185.6520  177.7840  146.4640 C   0  0  0  0  0  0  0  0  0  0  0  0
  190.1640  176.3320  146.1210 N   0  0  0  0  0  0  0  0  0  0  0  0
  186.4670  176.9950  144.3370 C   0  0  0  0  0  3  0  0  0  0  0  0
  188.8880  173.5670  139.9230 C   0  0  0  0  0  0  0  0  0  0  0  0
  185.4280  177.5100  145.1130 C   0  0  0  0  0  3  0  0  0  0  0  0
  188.1920  173.3180  138.6340 C   0  0  0  0  0  1  0  0  0  0  0  0
  187.7220  176.7590  144.9120 C   0  0  0  0  0  0  0  0  0  0  0  0
  191.2100  175.5800  143.9990 C   0  0  1  0  0  3  0  0  0  0  0  0
  184.6010  178.3070  147.2650 N   0  0  0  0  0  1  0  0  0  0  0  0
  187.9000  177.0480  146.2790 C   0  0  0  0  0  0  0  0  0  0  0  0
  190.2130  174.0520  142.3470 C   0  0  0  0  0  0  0  0  0  0  0  0
  188.7860  176.2260  144.1600 C   0  0  0  0  0  0  0  0  0  0  0  0
  188.5040  174.6400  140.7280 C   0  0  0  0  0  3  0  0  0  0  0  0
  189.1400  176.8190  146.8680 C   0  0  0  0  0  3  0  0  0  0  0  0
  189.9060  172.7130  140.3440 C   0  0  0  0  0  3  0  0  0  0  0  0
  190.5630  172.9570  141.5500 C   0  0  0  0  0  3  0  0  0  0  0  0
  189.1420  174.8920  141.9490 C   0  0  0  0  0  0  0  0  0  0  0  0
  194.9400  175.6630  146.1370 C   0  0  0  0  0  3  0  0  0  0  0  0
  192.5040  175.6260  144.7560 C   0  0  0  0  0  0  0  0  0  0  0  0
  193.0400  174.4390  145.2690 C   0  0  0  0  0  3  0  0  0  0  0  0
  194.2540  174.4580  145.9610 C   0  0  0  0  0  3  0  0  0  0  0  0
  194.4120  176.8510  145.6220 C   0  0  0  0  0  3  0  0  0  0  0  0
  193.1980  176.8330  144.9300 C   0  0  0  0  0  3  0  0  0  0  0  0
  1 12  1  0  0  0  0
  2  6  1  0  0  0  0
  3 16  1  0  0  0  0
  5  4  1  0  0  0  0
  5 13  1  0  0  0  0
  6 18  2  0  0  0  0
  7 11  2  0  0  0  0
  7  9  1  0  0  0  0
  8 19  2  0  0  0  0
  8 17  1  0  0  0  0
  9  5  2  0  0  0  0
 10  8  1  0  0  0  0
 11 14  1  0  0  0  0
 12 23  1  1  0  0  0
 12  2  1  0  0  0  0
 14 18  1  0  0  0  0
 14  4  2  0  0  0  0
 15  1  1  0  0  0  0
 16  2  2  0  0  0  0
 16 11  1  0  0  0  0
 17 21  2  0  0  0  0
 19 20  1  0  0  0  0
 20 15  2  0  0  0  0
 21 15  1  0  0  0  0
 21  3  1  0  0  0  0
 23 27  2  0  0  0  0
 23 24  1  0  0  0  0
 24 25  2  0  0  0  0
 25 22  1  0  0  0  0
 26 22  2  0  0  0  0
 27 26  1  0  0  0  0
M  END
>  <MODEL>
3

>  <REMARK>
 VINA RESULT:      -7.9      2.015      7.059
  Name = 
  1 active torsions:
  status: ('A' for Active; 'I' for Inactive)
    1  A    between atoms: C_9  and  C_15
                            x       y       z     vdW  Elec       q    Type
                         _______ _______ _______ _____ _____    ______ ____

>  <TORSDO>
F 1

$$$$
=
 OpenBabel11052418283D

 27 31  0  0  1  0  0  0  0  0999 V2000
  188.6770  174.9970  141.6540 O   0  0  0  0  0  0  0  0  0  0  0  0
  188.4970  176.0270  143.8040 C   0  0  0  0  0  0  0  0  0  0  0  0
  189.4920  173.7900  144.2810 N   0  0  0  0  0  2  0  0  0  0  0  0
  190.3010  177.5900  147.1890 N   0  0  0  0  0  0  0  0  0  0  0  0
  191.0610  176.8260  148.0190 C   0  0  0  0  0  0  0  0  0  0  0  0
  188.3540  177.3410  144.1470 N   0  0  0  0  0  0  0  0  0  0  0  0
  190.6710  174.9130  146.6030 C   0  0  0  0  0  3  0  0  0  0  0  0
  190.3750  171.1640  141.8130 C   0  0  0  0  0  0  0  0  0  0  0  0
  191.2590  175.4720  147.7390 C   0  0  0  0  0  3  0  0  0  0  0  0
  190.9370  169.7890  141.8410 C   0  0  0  0  0  1  0  0  0  0  0  0
  189.8880  175.7080  145.7560 C   0  0  0  0  0  0  0  0  0  0  0  0
  187.7610  175.4720  142.6240 C   0  0  1  0  0  3  0  0  0  0  0  0
  191.6560  177.4060  149.1720 N   0  0  0  0  0  1  0  0  0  0  0  0
  189.7180  177.0690  146.0780 C   0  0  0  0  0  0  0  0  0  0  0  0
  189.2970  173.7530  141.7640 C   0  0  0  0  0  0  0  0  0  0  0  0
  189.2940  175.1790  144.5950 C   0  0  0  0  0  0  0  0  0  0  0  0
  190.1120  171.8350  143.0070 C   0  0  0  0  0  3  0  0  0  0  0  0
  188.9450  177.8740  145.2480 C   0  0  0  0  0  3  0  0  0  0  0  0
  190.1380  171.7970  140.5940 C   0  0  0  0  0  3  0  0  0  0  0  0
  189.6020  173.0850  140.5730 C   0  0  0  0  0  3  0  0  0  0  0  0
  189.5870  173.1330  143.0070 C   0  0  0  0  0  0  0  0  0  0  0  0
  184.9940  178.2750  140.8980 C   0  0  0  0  0  3  0  0  0  0  0  0
  186.7950  176.4380  142.0040 C   0  0  0  0  0  0  0  0  0  0  0  0
  185.6990  176.8850  142.7500 C   0  0  0  0  0  3  0  0  0  0  0  0
  184.7980  177.8000  142.1980 C   0  0  0  0  0  3  0  0  0  0  0  0
  186.0900  177.8360  140.1490 C   0  0  0  0  0  3  0  0  0  0  0  0
  186.9910  176.9210  140.7020 C   0  0  0  0  0  3  0  0  0  0  0  0
  1 15  1  0  0  0  0
  1 12  1  0  0  0  0
  2  6  2  0  0  0  0
  2 16  1  0  0  0  0
  3 16  1  0  0  0  0
  4  5  2  0  0  0  0
  5 13  1  0  0  0  0
  6 18  1  0  0  0  0
  7  9  2  0  0  0  0
  8 10  1  0  0  0  0
  8 17  1  0  0  0  0
  9  5  1  0  0  0  0
 11 14  1  0  0  0  0
 11  7  1  0  0  0  0
 12 23  1  6  0  0  0
 12  2  1  0  0  0  0
 14  4  1  0  0  0  0
 15 21  1  0  0  0  0
 16 11  2  0  0  0  0
 18 14  2  0  0  0  0
 19  8  2  0  0  0  0
 20 19  1  0  0  0  0
 20 15  2  0  0  0  0
 21 17  2  0  0  0  0
 21  3  1  0  0  0  0
 22 25  1  0  0  0  0
 23 24  1  0  0  0  0
 25 24  2  0  0  0  0
 26 27  1  0  0  0  0
 26 22  2  0  0  0  0
 27 23  2  0  0  0  0
M  END
>  <MODEL>
4

>  <REMARK>
 VINA RESULT:      -7.5      2.640      5.933
  Name = 
  1 active torsions:
  status: ('A' for Active; 'I' for Inactive)
    1  A    between atoms: C_9  and  C_15
                            x       y       z     vdW  Elec       q    Type
                         _______ _______ _______ _____ _____    ______ ____

>  <TORSDO>
F 1

$$$$
=
 OpenBabel11052418283D

 27 31  0  0  1  0  0  0  0  0999 V2000
  190.4700  176.0680  145.1020 O   0  0  0  0  0  0  0  0  0  0  0  0
  189.3280  175.4180  143.1040 C   0  0  0  0  0  0  0  0  0  0  0  0
  191.7230  175.5580  142.4210 N   0  0  0  0  0  2  0  0  0  0  0  0
  188.6100  172.6160  140.1400 N   0  0  0  0  0  0  0  0  0  0  0  0
  189.5850  172.2030  139.2870 C   0  0  0  0  0  0  0  0  0  0  0  0
  188.0930  174.8640  142.9300 N   0  0  0  0  0  0  0  0  0  0  0  0
  191.1570  173.6620  140.3890 C   0  0  0  0  0  3  0  0  0  0  0  0
  194.6180  176.4090  144.5810 C   0  0  0  0  0  0  0  0  0  0  0  0
  190.8780  172.7200  139.3980 C   0  0  0  0  0  3  0  0  0  0  0  0
  196.0850  176.5760  144.4180 C   0  0  0  0  0  1  0  0  0  0  0  0
  190.1450  174.0830  141.2620 C   0  0  0  0  0  0  0  0  0  0  0  0
  189.5350  176.4930  144.1260 C   0  0  1  0  0  3  0  0  0  0  0  0
  189.2900  171.2430  138.2810 N   0  0  0  0  0  1  0  0  0  0  0  0
  188.8570  173.5320  141.1130 C   0  0  0  0  0  0  0  0  0  0  0  0
  191.8450  176.1110  144.8810 C   0  0  0  0  0  0  0  0  0  0  0  0
  190.3970  175.0190  142.2810 C   0  0  0  0  0  0  0  0  0  0  0  0
  193.8180  176.1420  143.4690 C   0  0  0  0  0  3  0  0  0  0  0  0
  187.8390  173.9370  141.9710 C   0  0  0  0  0  3  0  0  0  0  0  0
  194.0420  176.4880  145.8480 C   0  0  0  0  0  3  0  0  0  0  0  0
  192.6630  176.3400  145.9940 C   0  0  0  0  0  3  0  0  0  0  0  0
  192.4340  175.9750  143.5980 C   0  0  0  0  0  0  0  0  0  0  0  0
  185.9320  177.8270  146.0580 C   0  0  0  0  0  3  0  0  0  0  0  0
  188.2680  176.9580  144.7810 C   0  0  0  0  0  0  0  0  0  0  0  0
  187.8650  176.3720  145.9870 C   0  0  0  0  0  3  0  0  0  0  0  0
  186.6980  176.8040  146.6230 C   0  0  0  0  0  3  0  0  0  0  0  0
  186.3310  178.4190  144.8560 C   0  0  0  0  0  3  0  0  0  0  0  0
  187.4980  177.9880  144.2190 C   0  0  0  0  0  3  0  0  0  0  0  0
  2 12  1  0  0  0  0
  3 21  1  0  0  0  0
  4 14  1  0  0  0  0
  5  9  1  0  0  0  0
  5  4  2  0  0  0  0
  6  2  1  0  0  0  0
  7 11  1  0  0  0  0
  8 19  1  0  0  0  0
  9  7  2  0  0  0  0
 10  8  1  0  0  0  0
 11 16  1  0  0  0  0
 12 23  1  1  0  0  0
 12  1  1  0  0  0  0
 13  5  1  0  0  0  0
 14 11  2  0  0  0  0
 14 18  1  0  0  0  0
 15  1  1  0  0  0  0
 15 20  1  0  0  0  0
 16  3  1  0  0  0  0
 16  2  2  0  0  0  0
 17 21  1  0  0  0  0
 17  8  2  0  0  0  0
 18  6  2  0  0  0  0
 19 20  2  0  0  0  0
 21 15  2  0  0  0  0
 22 25  1  0  0  0  0
 23 24  1  0  0  0  0
 24 25  2  0  0  0  0
 26 22  2  0  0  0  0
 27 23  2  0  0  0  0
 27 26  1  0  0  0  0
M  END
>  <MODEL>
5

>  <REMARK>
 VINA RESULT:      -7.5      1.256      1.638
  Name = 
  1 active torsions:
  status: ('A' for Active; 'I' for Inactive)
    1  A    between atoms: C_9  and  C_15
                            x       y       z     vdW  Elec       q    Type
                         _______ _______ _______ _____ _____    ______ ____

>  <TORSDO>
F 1

$$$$
=
 OpenBabel11052418283D

 27 31  0  0  1  0  0  0  0  0999 V2000
  190.6760  175.5470  142.3860 O   0  0  0  0  0  0  0  0  0  0  0  0
  188.4020  175.5090  143.1230 C   0  0  0  0  0  0  0  0  0  0  0  0
  189.7060  176.0070  145.1900 N   0  0  0  0  0  2  0  0  0  0  0  0
  185.1090  177.4790  144.6820 N   0  0  0  0  0  0  0  0  0  0  0  0
  185.1240  178.0380  145.9220 C   0  0  0  0  0  0  0  0  0  0  0  0
  187.2400  175.6260  142.4170 N   0  0  0  0  0  0  0  0  0  0  0  0
  187.4050  177.3130  146.2140 C   0  0  0  0  0  3  0  0  0  0  0  0
  193.3830  176.4170  145.4710 C   0  0  0  0  0  0  0  0  0  0  0  0
  186.2750  177.9640  146.7100 C   0  0  0  0  0  3  0  0  0  0  0  0
  194.3690  176.6840  146.5500 C   0  0  0  0  0  1  0  0  0  0  0  0
  187.3790  176.7380  144.9370 C   0  0  0  0  0  0  0  0  0  0  0  0
  189.5450  174.7150  142.5690 C   0  0  1  0  0  3  0  0  0  0  0  0
  183.9670  178.6990  146.4170 N   0  0  0  0  0  1  0  0  0  0  0  0
  186.1970  176.8400  144.1780 C   0  0  0  0  0  0  0  0  0  0  0  0
  191.5210  175.8940  143.4390 C   0  0  0  0  0  0  0  0  0  0  0  0
  188.5060  176.0880  144.4010 C   0  0  0  0  0  0  0  0  0  0  0  0
  192.0330  176.2570  145.7840 C   0  0  0  0  0  3  0  0  0  0  0  0
  186.1530  176.2760  142.9060 C   0  0  0  0  0  3  0  0  0  0  0  0
  193.8000  176.3570  144.1430 C   0  0  0  0  0  3  0  0  0  0  0  0
  192.8720  176.0960  143.1350 C   0  0  0  0  0  3  0  0  0  0  0  0
  191.0840  176.0100  144.7840 C   0  0  0  0  0  0  0  0  0  0  0  0
  188.6300  172.6810  138.8920 C   0  0  0  0  0  3  0  0  0  0  0  0
  189.2170  173.9890  141.2980 C   0  0  0  0  0  0  0  0  0  0  0  0
  188.6250  174.6910  140.2410 C   0  0  0  0  0  3  0  0  0  0  0  0
  188.3300  174.0380  139.0410 C   0  0  0  0  0  3  0  0  0  0  0  0
  189.2250  171.9760  139.9420 C   0  0  0  0  0  3  0  0  0  0  0  0
  189.5210  172.6290  141.1420 C   0  0  0  0  0  3  0  0  0  0  0  0
  1 12  1  0  0  0  0
  1 15  1  0  0  0  0
  2 16  1  0  0  0  0
  4  5  2  0  0  0  0
  5 13  1  0  0  0  0
  5  9  1  0  0  0  0
  6 18  1  0  0  0  0
  6  2  2  0  0  0  0
  7  9  2  0  0  0  0
  8 17  1  0  0  0  0
  8 10  1  0  0  0  0
 11  7  1  0  0  0  0
 12 23  1  6  0  0  0
 12  2  1  0  0  0  0
 14  4  1  0  0  0  0
 14 11  1  0  0  0  0
 15 21  1  0  0  0  0
 16 11  2  0  0  0  0
 16  3  1  0  0  0  0
 18 14  2  0  0  0  0
 19  8  2  0  0  0  0
 20 15  2  0  0  0  0
 20 19  1  0  0  0  0
 21  3  1  0  0  0  0
 21 17  2  0  0  0  0
 22 25  2  0  0  0  0
 22 26  1  0  0  0  0
 24 23  2  0  0  0  0
 25 24  1  0  0  0  0
 26 27  2  0  0  0  0
 27 23  1  0  0  0  0
M  END
>  <MODEL>
6

>  <REMARK>
 VINA RESULT:      -7.4      1.898      5.791
  Name = 
  1 active torsions:
  status: ('A' for Active; 'I' for Inactive)
    1  A    between atoms: C_9  and  C_15
                            x       y       z     vdW  Elec       q    Type
                         _______ _______ _______ _____ _____    ______ ____

>  <TORSDO>
F 1

$$$$
=
 OpenBabel11052418283D

 27 31  0  0  1  0  0  0  0  0999 V2000
  188.0500  175.5840  141.0600 O   0  0  0  0  0  0  0  0  0  0  0  0
  189.0440  175.8660  143.2160 C   0  0  0  0  0  0  0  0  0  0  0  0
  189.9610  173.6950  142.3990 N   0  0  0  0  0  2  0  0  0  0  0  0
  192.4110  176.4480  145.5580 N   0  0  0  0  0  0  0  0  0  0  0  0
  193.4180  175.5360  145.6110 C   0  0  0  0  0  0  0  0  0  0  0  0
  189.1960  176.9860  143.9810 N   0  0  0  0  0  0  0  0  0  0  0  0
  192.2250  174.1370  144.0510 C   0  0  0  0  0  3  0  0  0  0  0  0
  189.2880  172.0710  139.1310 C   0  0  0  0  0  0  0  0  0  0  0  0
  193.3420  174.3630  144.8560 C   0  0  0  0  0  3  0  0  0  0  0  0
  189.6770  170.8150  138.4400 C   0  0  0  0  0  1  0  0  0  0  0  0
  191.1900  175.0810  144.0050 C   0  0  0  0  0  0  0  0  0  0  0  0
  187.7780  175.6440  142.4490 C   0  0  1  0  0  3  0  0  0  0  0  0
  194.5520  175.7760  146.4340 N   0  0  0  0  0  1  0  0  0  0  0  0
  191.3130  176.2500  144.7820 C   0  0  0  0  0  0  0  0  0  0  0  0
  188.5400  174.4320  140.4480 C   0  0  0  0  0  0  0  0  0  0  0  0
  190.0580  174.8910  143.1920 C   0  0  0  0  0  0  0  0  0  0  0  0
  189.7080  172.3050  140.4410 C   0  0  0  0  0  3  0  0  0  0  0  0
  190.2960  177.2000  144.7480 C   0  0  0  0  0  3  0  0  0  0  0  0
  188.5290  173.0300  138.4640 C   0  0  0  0  0  3  0  0  0  0  0  0
  188.1580  174.2030  139.1210 C   0  0  0  0  0  3  0  0  0  0  0  0
  189.3580  173.4830  141.1120 C   0  0  0  0  0  0  0  0  0  0  0  0
  184.6990  178.5500  143.2040 C   0  0  0  0  0  3  0  0  0  0  0  0
  186.7120  176.6620  142.7310 C   0  0  0  0  0  0  0  0  0  0  0  0
  186.3800  177.5980  141.7460 C   0  0  0  0  0  3  0  0  0  0  0  0
  185.3770  178.5420  141.9820 C   0  0  0  0  0  3  0  0  0  0  0  0
  185.0230  177.6140  144.1910 C   0  0  0  0  0  3  0  0  0  0  0  0
  186.0260  176.6700  143.9550 C   0  0  0  0  0  3  0  0  0  0  0  0
  1 12  1  0  0  0  0
  2  6  1  0  0  0  0
  3 16  1  0  0  0  0
  4  5  1  0  0  0  0
  5 13  1  0  0  0  0
  6 18  2  0  0  0  0
  7  9  1  0  0  0  0
  8 17  1  0  0  0  0
  9  5  2  0  0  0  0
 10  8  1  0  0  0  0
 11  7  2  0  0  0  0
 11 14  1  0  0  0  0
 12 23  1  6  0  0  0
 12  2  1  0  0  0  0
 14  4  2  0  0  0  0
 15  1  1  0  0  0  0
 15 21  1  0  0  0  0
 16  2  2  0  0  0  0
 16 11  1  0  0  0  0
 17 21  2  0  0  0  0
 18 14  1  0  0  0  0
 19 20  1  0  0  0  0
 19  8  2  0  0  0  0
 20 15  2  0  0  0  0
 21  3  1  0  0  0  0
 22 26  1  0  0  0  0
 23 27  1  0  0  0  0
 24 25  1  0  0  0  0
 24 23  2  0  0  0  0
 25 22  2  0  0  0  0
 27 26  2  0  0  0  0
M  END
>  <MODEL>
7

>  <REMARK>
 VINA RESULT:      -7.4      2.168      5.843
  Name = 
  1 active torsions:
  status: ('A' for Active; 'I' for Inactive)
    1  A    between atoms: C_9  and  C_15
                            x       y       z     vdW  Elec       q    Type
                         _______ _______ _______ _____ _____    ______ ____

>  <TORSDO>
F 1

$$$$
=
 OpenBabel11052418283D

 27 31  0  0  1  0  0  0  0  0999 V2000
  190.8100  175.5380  144.5590 O   0  0  0  0  0  0  0  0  0  0  0  0
  188.5240  175.5030  143.8610 C   0  0  0  0  0  0  0  0  0  0  0  0
  188.4590  176.5800  146.1100 N   0  0  0  0  0  2  0  0  0  0  0  0
  185.0870  177.5320  142.7530 N   0  0  0  0  0  0  0  0  0  0  0  0
  184.4380  178.3700  143.6050 C   0  0  0  0  0  0  0  0  0  0  0  0
  187.9800  175.3590  142.6170 N   0  0  0  0  0  0  0  0  0  0  0  0
  186.0890  177.9120  145.3010 C   0  0  0  0  0  3  0  0  0  0  0  0
  191.3490  177.3240  148.3160 C   0  0  0  0  0  0  0  0  0  0  0  0
  184.9300  178.5750  144.8960 C   0  0  0  0  0  3  0  0  0  0  0  0
  191.5660  177.9160  149.6620 C   0  0  0  0  0  1  0  0  0  0  0  0
  186.7490  177.0480  144.4170 C   0  0  0  0  0  0  0  0  0  0  0  0
  189.7160  174.6900  144.2610 C   0  0  1  0  0  3  0  0  0  0  0  0
  183.2590  179.0400  143.1810 N   0  0  0  0  0  1  0  0  0  0  0  0
  186.2170  176.8750  143.1240 C   0  0  0  0  0  0  0  0  0  0  0  0
  190.9320  176.1900  145.7850 C   0  0  0  0  0  0  0  0  0  0  0  0
  187.9290  176.3770  144.7890 C   0  0  0  0  0  0  0  0  0  0  0  0
  190.0510  177.1400  147.8360 C   0  0  0  0  0  3  0  0  0  0  0  0
  186.8590  176.0220  142.2320 C   0  0  0  0  0  3  0  0  0  0  0  0
  192.4390  176.9800  147.5200 C   0  0  0  0  0  3  0  0  0  0  0  0
  192.2290  176.4160  146.2610 C   0  0  0  0  0  3  0  0  0  0  0  0
  189.8210  176.5900  146.5700 C   0  0  0  0  0  0  0  0  0  0  0  0
  190.9120  171.7500  141.3590 C   0  0  0  0  0  3  0  0  0  0  0  0
  190.1130  173.6580  143.2470 C   0  0  0  0  0  0  0  0  0  0  0  0
  190.9960  174.0110  142.2200 C   0  0  0  0  0  3  0  0  0  0  0  0
  191.3940  173.0600  141.2770 C   0  0  0  0  0  3  0  0  0  0  0  0
  190.0330  171.3900  142.3860 C   0  0  0  0  0  3  0  0  0  0  0  0
  189.6360  172.3410  143.3290 C   0  0  0  0  0  3  0  0  0  0  0  0
  1 15  1  0  0  0  0
  2 12  1  0  0  0  0
  2 16  1  0  0  0  0
  3 21  1  0  0  0  0
  4 14  1  0  0  0  0
  4  5  2  0  0  0  0
  5  9  1  0  0  0  0
  6  2  2  0  0  0  0
  8 10  1  0  0  0  0
  9  7  2  0  0  0  0
 11 16  2  0  0  0  0
 11  7  1  0  0  0  0
 12 23  1  6  0  0  0
 12  1  1  0  0  0  0
 13  5  1  0  0  0  0
 14 11  1  0  0  0  0
 15 20  2  0  0  0  0
 15 21  1  0  0  0  0
 16  3  1  0  0  0  0
 17  8  1  0  0  0  0
 18  6  1  0  0  0  0
 18 14  2  0  0  0  0
 19  8  2  0  0  0  0
 20 19  1  0  0  0  0
 21 17  2  0  0  0  0
 22 26  1  0  0  0  0
 23 27  1  0  0  0  0
 24 23  2  0  0  0  0
 25 22  2  0  0  0  0
 25 24  1  0  0  0  0
 26 27  2  0  0  0  0
M  END
>  <MODEL>
8

>  <REMARK>
 VINA RESULT:      -7.4      2.000      5.662
  Name = 
  1 active torsions:
  status: ('A' for Active; 'I' for Inactive)
    1  A    between atoms: C_9  and  C_15
                            x       y       z     vdW  Elec       q    Type
                         _______ _______ _______ _____ _____    ______ ____

>  <TORSDO>
F 1

$$$$
=
 OpenBabel11052418283D

 27 31  0  0  1  0  0  0  0  0999 V2000
  188.3250  177.3570  144.4560 O   0  0  0  0  0  0  0  0  0  0  0  0
  189.2950  175.4280  143.4300 C   0  0  0  0  0  0  0  0  0  0  0  0
  187.0840  175.6730  142.3020 N   0  0  0  0  0  2  0  0  0  0  0  0
  190.8380  173.5490  140.0770 N   0  0  0  0  0  0  0  0  0  0  0  0
  190.0810  173.3110  138.9720 C   0  0  0  0  0  0  0  0  0  0  0  0
  190.5930  175.0100  143.3810 N   0  0  0  0  0  0  0  0  0  0  0  0
  188.1920  174.3500  140.0500 C   0  0  0  0  0  3  0  0  0  0  0  0
  184.5530  178.3220  142.8930 C   0  0  0  0  0  0  0  0  0  0  0  0
  188.7430  173.7090  138.9400 C   0  0  0  0  0  3  0  0  0  0  0  0
  183.1990  178.6660  142.3880 C   0  0  0  0  0  1  0  0  0  0  0  0
  188.9780  174.5880  141.1850 C   0  0  0  0  0  0  0  0  0  0  0  0
  188.7420  176.0240  144.6880 C   0  0  1  0  0  3  0  0  0  0  0  0
  190.6540  172.6580  137.8470 N   0  0  0  0  0  1  0  0  0  0  0  0
  190.3230  174.1710  141.1700 C   0  0  0  0  0  0  0  0  0  0  0  0
  187.1020  177.6590  143.8600 C   0  0  0  0  0  0  0  0  0  0  0  0
  188.4570  175.2460  142.3150 C   0  0  0  0  0  0  0  0  0  0  0  0
  185.1850  177.1550  142.4600 C   0  0  0  0  0  3  0  0  0  0  0  0
  191.1200  174.4000  142.2880 C   0  0  0  0  0  3  0  0  0  0  0  0
  185.2070  179.1780  143.7770 C   0  0  0  0  0  3  0  0  0  0  0  0
  186.4750  178.8460  144.2560 C   0  0  0  0  0  3  0  0  0  0  0  0
  186.4620  176.8120  142.9180 C   0  0  0  0  0  0  0  0  0  0  0  0
  191.4550  175.7940  148.0170 C   0  0  0  0  0  3  0  0  0  0  0  0
  189.6880  175.9650  145.8520 C   0  0  0  0  0  0  0  0  0  0  0  0
  189.4910  175.0000  146.8460 C   0  0  0  0  0  3  0  0  0  0  0  0
  190.3720  174.9160  147.9280 C   0  0  0  0  0  3  0  0  0  0  0  0
  191.6600  176.7570  147.0240 C   0  0  0  0  0  3  0  0  0  0  0  0
  190.7800  176.8410  145.9420 C   0  0  0  0  0  3  0  0  0  0  0  0
  1 12  1  0  0  0  0
  2 12  1  0  0  0  0
  3 16  1  0  0  0  0
  3 21  1  0  0  0  0
  4 14  1  0  0  0  0
  5  4  2  0  0  0  0
  6  2  1  0  0  0  0
  7 11  1  0  0  0  0
  8 19  1  0  0  0  0
  9  5  1  0  0  0  0
  9  7  2  0  0  0  0
 10  8  1  0  0  0  0
 11 16  1  0  0  0  0
 12 23  1  1  0  0  0
 13  5  1  0  0  0  0
 14 11  2  0  0  0  0
 14 18  1  0  0  0  0
 15 20  1  0  0  0  0
 15  1  1  0  0  0  0
 16  2  2  0  0  0  0
 17  8  2  0  0  0  0
 17 21  1  0  0  0  0
 18  6  2  0  0  0  0
 19 20  2  0  0  0  0
 21 15  2  0  0  0  0
 23 27  2  0  0  0  0
 23 24  1  0  0  0  0
 24 25  2  0  0  0  0
 25 22  1  0  0  0  0
 26 22  2  0  0  0  0
 27 26  1  0  0  0  0
M  END
>  <MODEL>
9

>  <REMARK>
 VINA RESULT:      -7.3      1.513      5.213
  Name = 
  1 active torsions:
  status: ('A' for Active; 'I' for Inactive)
    1  A    between atoms: C_9  and  C_15
                            x       y       z     vdW  Elec       q    Type
                         _______ _______ _______ _____ _____    ______ ____

>  <TORSDO>
F 1

$$$$
