=
 OpenBabel11052421363D

 32 35  0  0  1  0  0  0  0  0999 V2000
  189.1410  177.4590  145.2950 C   0  0  1  0  0  3  0  0  0  0  0  0
  184.9170  178.4000  147.6820 C   0  0  0  0  0  3  0  0  0  0  0  0
  184.4050  178.9340  146.4980 C   0  0  0  0  0  3  0  0  0  0  0  0
  190.7530  175.8750  146.4590 C   0  0  2  0  0  3  0  0  0  0  0  0
  188.2230  175.6230  146.7920 C   0  0  0  0  0  2  0  0  0  0  0  0
  189.5790  173.7890  146.0900 O   0  0  0  0  0  1  0  0  0  0  0  0
  186.1850  177.8160  147.6920 C   0  0  0  0  0  3  0  0  0  0  0  0
  188.3170  177.1360  146.5630 C   0  0  2  0  0  3  0  0  0  0  0  0
  186.9480  177.7560  146.5170 C   0  0  0  0  0  0  0  0  0  0  0  0
  187.2800  178.2940  144.0590 C   0  0  1  0  0  3  0  0  0  0  0  0
  189.5980  174.9440  146.8780 C   0  0  1  0  0  3  0  0  0  0  0  0
  185.1580  178.8820  145.3230 C   0  0  0  0  0  3  0  0  0  0  0  0
  186.4250  178.2750  145.3130 C   0  0  0  0  0  0  0  0  0  0  0  0
  190.4170  176.6120  145.1660 C   0  0  0  0  0  2  0  0  0  0  0  0
  188.3240  177.2690  144.0990 N   0  0  0  0  0  2  0  0  0  0  0  0
  184.3050  177.9770  141.7040 C   0  0  0  0  0  0  0  0  0  0  0  0
  184.9430  177.8580  140.4670 C   0  0  0  0  0  3  0  0  0  0  0  0
  187.1020  178.0240  141.5560 C   0  0  0  0  0  0  0  0  0  0  0  0
  186.9450  177.7740  139.1830 F   0  0  0  0  0  0  0  0  0  0  0  0
  186.3370  177.8860  140.3910 C   0  0  0  0  0  0  0  0  0  0  0  0
  185.0650  178.1140  142.8690 C   0  0  0  0  0  3  0  0  0  0  0  0
  182.9530  177.9370  141.7760 F   0  0  0  0  0  0  0  0  0  0  0  0
  188.4900  178.0560  141.4690 O   0  0  0  0  0  1  0  0  0  0  0  0
  186.4650  178.1350  142.8030 C   0  0  0  0  0  0  0  0  0  0  0  0
  192.0700  175.1230  146.3230 C   0  0  0  0  0  2  0  0  0  0  0  0
  192.4900  173.8880  143.9420 S   0  0  0  0  0  1  0  0  0  0  0  0
  192.6980  175.3970  144.9580 C   0  0  2  0  0  3  0  0  0  0  0  0
  194.2020  176.9870  145.8700 C   0  0  0  0  0  1  0  0  0  0  0  0
  194.1170  175.7490  145.1020 N   0  0  0  0  0  0  0  0  0  0  0  0
  194.6490  176.0820  143.7830 C   0  0  0  0  0  2  0  0  0  0  0  0
  196.1540  175.8790  143.7550 C   0  0  0  0  0  2  0  0  0  0  0  0
  196.7930  177.0740  143.4190 O   0  0  0  0  0  1  0  0  0  0  0  0
  1 14  1  6  0  0  0
  1  8  1  0  0  0  0
  2  7  1  0  0  0  0
  3  2  2  0  0  0  0
  4 25  1  6  0  0  0
  4 11  1  0  0  0  0
  5 11  1  0  0  0  0
  8  5  1  6  0  0  0
  9  8  1  0  0  0  0
  9  7  2  0  0  0  0
 10 24  1  6  0  0  0
 10 15  1  0  0  0  0
 10 13  1  0  0  0  0
 11  6  1  6  0  0  0
 12  3  1  0  0  0  0
 13 12  2  0  0  0  0
 13  9  1  0  0  0  0
 14  4  1  0  0  0  0
 15  1  1  0  0  0  0
 16 22  1  0  0  0  0
 16 21  1  0  0  0  0
 17 16  2  0  0  0  0
 18 24  1  0  0  0  0
 19 20  1  0  0  0  0
 20 17  1  0  0  0  0
 20 18  2  0  0  0  0
 23 18  1  0  0  0  0
 24 21  2  0  0  0  0
 27 26  1  6  0  0  0
 27 29  1  0  0  0  0
 27 25  1  0  0  0  0
 29 28  1  0  0  0  0
 30 29  1  0  0  0  0
 31 30  1  0  0  0  0
 32 31  1  0  0  0  0
M  END
>  <MODEL>
1

>  <REMARK>
 VINA RESULT:      -9.0      0.000      0.000
  Name = 
  6 active torsions:
  status: ('A' for Active; 'I' for Inactive)
    1  A    between atoms: C_1  and  C_10
    2  A    between atoms: C_8  and  C_23
    3  A    between atoms: C_10  and  N_24
    4  A    between atoms: C_16  and  C_32
    5  A    between atoms: C_19  and  C_23
    6  A    between atoms: C_19  and  N_24
                            x       y       z     vdW  Elec       q    Type
                         _______ _______ _______ _____ _____    ______ ____

>  <TORSDO>
F 6

$$$$
=
 OpenBabel11052421363D

 32 35  0  0  1  0  0  0  0  0999 V2000
  189.7890  176.3140  142.4550 C   0  0  1  0  0  3  0  0  0  0  0  0
  190.6780  171.8080  144.2790 C   0  0  0  0  0  3  0  0  0  0  0  0
  192.0350  172.0050  144.0190 C   0  0  0  0  0  3  0  0  0  0  0  0
  187.4960  177.2900  142.9590 C   0  0  2  0  0  3  0  0  0  0  0  0
  188.6130  175.6870  144.6190 C   0  0  0  0  0  2  0  0  0  0  0  0
  187.8100  177.8300  145.2980 O   0  0  0  0  0  1  0  0  0  0  0  0
  189.7660  172.8390  144.0460 C   0  0  0  0  0  3  0  0  0  0  0  0
  189.1960  175.1630  143.3020 C   0  0  2  0  0  3  0  0  0  0  0  0
  190.2050  174.0770  143.5580 C   0  0  0  0  0  0  0  0  0  0  0  0
  192.0500  175.5950  142.7020 C   0  0  1  0  0  3  0  0  0  0  0  0
  187.5530  176.7800  144.4110 C   0  0  1  0  0  3  0  0  0  0  0  0
  192.4820  173.2350  143.5290 C   0  0  0  0  0  3  0  0  0  0  0  0
  191.5800  174.2890  143.3140 C   0  0  0  0  0  0  0  0  0  0  0  0
  188.8970  177.5650  142.4220 C   0  0  0  0  0  2  0  0  0  0  0  0
  191.1080  176.6860  142.9610 N   0  0  0  0  0  2  0  0  0  0  0  0
  194.8840  176.8170  144.9310 C   0  0  0  0  0  0  0  0  0  0  0  0
  195.9780  176.7160  144.0680 C   0  0  0  0  0  3  0  0  0  0  0  0
  194.5270  175.8860  142.3130 C   0  0  0  0  0  0  0  0  0  0  0  0
  196.8730  176.1510  141.9360 F   0  0  0  0  0  0  0  0  0  0  0  0
  195.8030  176.2480  142.7630 C   0  0  0  0  0  0  0  0  0  0  0  0
  193.6100  176.4570  144.4850 C   0  0  0  0  0  3  0  0  0  0  0  0
  195.0560  177.2830  146.1910 F   0  0  0  0  0  0  0  0  0  0  0  0
  194.3630  175.4150  141.0140 O   0  0  0  0  0  1  0  0  0  0  0  0
  193.4230  175.9930  143.1740 C   0  0  0  0  0  0  0  0  0  0  0  0
  186.6160  178.5250  142.8230 C   0  0  0  0  0  2  0  0  0  0  0  0
  184.3770  178.2570  141.3110 S   0  0  0  0  0  1  0  0  0  0  0  0
  185.1430  178.1450  142.9700 C   0  0  2  0  0  3  0  0  0  0  0  0
  185.4000  180.1020  144.2840 C   0  0  0  0  0  1  0  0  0  0  0  0
  184.4700  179.0350  143.9260 N   0  0  0  0  0  0  0  0  0  0  0  0
  184.2420  178.2970  145.1650 C   0  0  0  0  0  2  0  0  0  0  0  0
  184.8400  179.0470  146.3430 C   0  0  0  0  0  2  0  0  0  0  0  0
  185.0920  178.1640  147.3960 O   0  0  0  0  0  1  0  0  0  0  0  0
  1 14  1  1  0  0  0
  1 15  1  0  0  0  0
  1  8  1  0  0  0  0
  3  2  2  0  0  0  0
  4 25  1  1  0  0  0
  4 11  1  0  0  0  0
  7  2  1  0  0  0  0
  8  9  1  0  0  0  0
  8  5  1  1  0  0  0
  9  7  2  0  0  0  0
 10 15  1  0  0  0  0
 10 24  1  1  0  0  0
 10 13  1  0  0  0  0
 11  5  1  0  0  0  0
 11  6  1  1  0  0  0
 12  3  1  0  0  0  0
 13 12  2  0  0  0  0
 13  9  1  0  0  0  0
 14  4  1  0  0  0  0
 16 22  1  0  0  0  0
 17 16  2  0  0  0  0
 18 20  2  0  0  0  0
 18 24  1  0  0  0  0
 19 20  1  0  0  0  0
 20 17  1  0  0  0  0
 21 16  1  0  0  0  0
 23 18  1  0  0  0  0
 24 21  2  0  0  0  0
 25 27  1  0  0  0  0
 27 26  1  6  0  0  0
 27 29  1  0  0  0  0
 29 28  1  0  0  0  0
 29 30  1  0  0  0  0
 30 31  1  0  0  0  0
 31 32  1  0  0  0  0
M  END
>  <MODEL>
2

>  <REMARK>
 VINA RESULT:      -8.4      4.052      8.384
  Name = 
  6 active torsions:
  status: ('A' for Active; 'I' for Inactive)
    1  A    between atoms: C_1  and  C_10
    2  A    between atoms: C_8  and  C_23
    3  A    between atoms: C_10  and  N_24
    4  A    between atoms: C_16  and  C_32
    5  A    between atoms: C_19  and  C_23
    6  A    between atoms: C_19  and  N_24
                            x       y       z     vdW  Elec       q    Type
                         _______ _______ _______ _____ _____    ______ ____

>  <TORSDO>
F 6

$$$$
=
 OpenBabel11052421363D

 32 35  0  0  1  0  0  0  0  0999 V2000
  189.3040  175.6200  142.8900 C   0  0  1  0  0  3  0  0  0  0  0  0
  191.7340  175.8230  147.1890 C   0  0  0  0  0  3  0  0  0  0  0  0
  190.9230  176.8970  147.5600 C   0  0  0  0  0  3  0  0  0  0  0  0
  189.6380  173.5070  141.5170 C   0  0  2  0  0  3  0  0  0  0  0  0
  189.7440  173.4170  144.0780 C   0  0  0  0  0  2  0  0  0  0  0  0
  188.3060  171.9740  142.8350 O   0  0  0  0  0  1  0  0  0  0  0  0
  191.5070  175.1620  145.9810 C   0  0  0  0  0  3  0  0  0  0  0  0
  190.2510  174.8430  143.8350 C   0  0  2  0  0  3  0  0  0  0  0  0
  190.4610  175.5650  145.1380 C   0  0  0  0  0  0  0  0  0  0  0  0
  188.5490  177.1350  144.5720 C   0  0  1  0  0  3  0  0  0  0  0  0
  189.5420  172.6250  142.7770 C   0  0  1  0  0  3  0  0  0  0  0  0
  189.8810  177.3080  146.7250 C   0  0  0  0  0  3  0  0  0  0  0  0
  189.6240  176.6360  145.5190 C   0  0  0  0  0  0  0  0  0  0  0  0
  188.8300  174.7900  141.6870 C   0  0  0  0  0  2  0  0  0  0  0  0
  188.1350  176.0960  143.6270 N   0  0  0  0  0  2  0  0  0  0  0  0
  186.0050  177.8230  147.3190 C   0  0  0  0  0  0  0  0  0  0  0  0
  185.1070  178.6650  146.6600 C   0  0  0  0  0  3  0  0  0  0  0  0
  186.4400  178.5190  144.6410 C   0  0  0  0  0  0  0  0  0  0  0  0
  184.4470  179.8390  144.6980 F   0  0  0  0  0  0  0  0  0  0  0  0
  185.3240  179.0170  145.3260 C   0  0  0  0  0  0  0  0  0  0  0  0
  187.1190  177.3240  146.6390 C   0  0  0  0  0  3  0  0  0  0  0  0
  185.7850  177.4740  148.6090 F   0  0  0  0  0  0  0  0  0  0  0  0
  186.6510  178.8800  143.3140 O   0  0  0  0  0  1  0  0  0  0  0  0
  187.3420  177.6650  145.2970 C   0  0  0  0  0  0  0  0  0  0  0  0
  189.2040  172.7590  140.2640 C   0  0  0  0  0  2  0  0  0  0  0  0
  191.7970  173.5050  139.9660 S   0  0  0  0  0  1  0  0  0  0  0  0
  190.2650  172.8920  139.1730 C   0  0  2  0  0  3  0  0  0  0  0  0
  188.3530  173.7840  138.0920 C   0  0  0  0  0  1  0  0  0  0  0  0
  189.8120  173.8070  138.1170 N   0  0  0  0  0  0  0  0  0  0  0  0
  190.2240  173.2640  136.8250 C   0  0  0  0  0  2  0  0  0  0  0  0
  189.8190  171.8040  136.7130 C   0  0  0  0  0  2  0  0  0  0  0  0
  189.2600  171.5560  135.4580 O   0  0  0  0  0  1  0  0  0  0  0  0
  1 14  1  6  0  0  0
  1 15  1  0  0  0  0
  1  8  1  0  0  0  0
  2  3  1  0  0  0  0
  4 25  1  6  0  0  0
  4 14  1  0  0  0  0
  4 11  1  0  0  0  0
  7  2  2  0  0  0  0
  8  5  1  1  0  0  0
  8  9  1  0  0  0  0
  9 13  2  0  0  0  0
  9  7  1  0  0  0  0
 10 24  1  1  0  0  0
 10 13  1  0  0  0  0
 11  6  1  1  0  0  0
 11  5  1  0  0  0  0
 12  3  2  0  0  0  0
 13 12  1  0  0  0  0
 15 10  1  0  0  0  0
 16 22  1  0  0  0  0
 17 16  1  0  0  0  0
 18 24  2  0  0  0  0
 18 20  1  0  0  0  0
 19 20  1  0  0  0  0
 20 17  2  0  0  0  0
 21 16  2  0  0  0  0
 23 18  1  0  0  0  0
 24 21  1  0  0  0  0
 27 26  1  1  0  0  0
 27 25  1  0  0  0  0
 28 29  1  0  0  0  0
 29 27  1  0  0  0  0
 30 29  1  0  0  0  0
 31 30  1  0  0  0  0
 32 31  1  0  0  0  0
M  END
>  <MODEL>
3

>  <REMARK>
 VINA RESULT:      -8.0      4.134      6.102
  Name = 
  6 active torsions:
  status: ('A' for Active; 'I' for Inactive)
    1  A    between atoms: C_1  and  C_10
    2  A    between atoms: C_8  and  C_23
    3  A    between atoms: C_10  and  N_24
    4  A    between atoms: C_16  and  C_32
    5  A    between atoms: C_19  and  C_23
    6  A    between atoms: C_19  and  N_24
                            x       y       z     vdW  Elec       q    Type
                         _______ _______ _______ _____ _____    ______ ____

>  <TORSDO>
F 6

$$$$
=
 OpenBabel11052421363D

 32 35  0  0  1  0  0  0  0  0999 V2000
  189.3500  175.5990  143.0210 C   0  0  1  0  0  3  0  0  0  0  0  0
  191.7000  176.1290  147.3360 C   0  0  0  0  0  3  0  0  0  0  0  0
  190.8310  177.1770  147.6440 C   0  0  0  0  0  3  0  0  0  0  0  0
  189.8100  173.4420  141.7560 C   0  0  2  0  0  3  0  0  0  0  0  0
  189.8800  173.4800  144.3190 C   0  0  0  0  0  2  0  0  0  0  0  0
  188.5340  171.9090  143.1290 O   0  0  0  0  0  1  0  0  0  0  0  0
  191.5240  175.4000  146.1580 C   0  0  0  0  0  3  0  0  0  0  0  0
  190.3190  174.9170  144.0150 C   0  0  2  0  0  3  0  0  0  0  0  0
  190.4740  175.7100  145.2830 C   0  0  0  0  0  0  0  0  0  0  0  0
  188.4950  177.1530  144.6160 C   0  0  1  0  0  3  0  0  0  0  0  0
  189.7370  172.6180  143.0560 C   0  0  1  0  0  3  0  0  0  0  0  0
  189.7830  177.4960  146.7770 C   0  0  0  0  0  3  0  0  0  0  0  0
  189.5790  176.7550  145.6010 C   0  0  0  0  0  0  0  0  0  0  0  0
  188.9370  174.6900  141.8530 C   0  0  0  0  0  2  0  0  0  0  0  0
  188.1480  176.0510  143.7170 N   0  0  0  0  0  2  0  0  0  0  0  0
  185.8330  177.7680  147.2670 C   0  0  0  0  0  0  0  0  0  0  0  0
  184.9490  178.6060  146.5830 C   0  0  0  0  0  3  0  0  0  0  0  0
  186.3650  178.5060  144.6180 C   0  0  0  0  0  0  0  0  0  0  0  0
  184.3520  179.7970  144.6110 F   0  0  0  0  0  0  0  0  0  0  0  0
  185.2150  178.9790  145.2630 C   0  0  0  0  0  0  0  0  0  0  0  0
  186.9810  177.2940  146.6260 C   0  0  0  0  0  3  0  0  0  0  0  0
  185.5660  177.3990  148.5430 F   0  0  0  0  0  0  0  0  0  0  0  0
  186.6240  178.8880  143.3050 O   0  0  0  0  0  1  0  0  0  0  0  0
  187.2520  177.6570  145.2990 C   0  0  0  0  0  0  0  0  0  0  0  0
  189.4320  172.6150  140.5350 C   0  0  0  0  0  2  0  0  0  0  0  0
  191.9740  173.5000  140.1770 S   0  0  0  0  0  1  0  0  0  0  0  0
  190.6750  172.3000  139.7040 C   0  0  2  0  0  3  0  0  0  0  0  0
  191.5410  171.9070  137.5320 C   0  0  0  0  0  1  0  0  0  0  0  0
  190.3740  172.3820  138.2680 N   0  0  0  0  0  0  0  0  0  0  0  0
  190.2380  173.7890  137.9030 C   0  0  0  0  0  2  0  0  0  0  0  0
  188.9450  174.0120  137.1370 C   0  0  0  0  0  2  0  0  0  0  0  0
  187.9680  174.5350  137.9880 O   0  0  0  0  0  1  0  0  0  0  0  0
  1 14  1  6  0  0  0
  1 15  1  0  0  0  0
  1  8  1  0  0  0  0
  2  3  1  0  0  0  0
  4 25  1  6  0  0  0
  4 14  1  0  0  0  0
  4 11  1  0  0  0  0
  7  2  2  0  0  0  0
  8  5  1  1  0  0  0
  8  9  1  0  0  0  0
  9 13  2  0  0  0  0
  9  7  1  0  0  0  0
 10 24  1  1  0  0  0
 10 13  1  0  0  0  0
 11  6  1  1  0  0  0
 11  5  1  0  0  0  0
 12  3  2  0  0  0  0
 13 12  1  0  0  0  0
 15 10  1  0  0  0  0
 16 22  1  0  0  0  0
 17 16  2  0  0  0  0
 18 20  2  0  0  0  0
 18 24  1  0  0  0  0
 19 20  1  0  0  0  0
 20 17  1  0  0  0  0
 21 16  1  0  0  0  0
 23 18  1  0  0  0  0
 24 21  2  0  0  0  0
 27 26  1  1  0  0  0
 27 25  1  0  0  0  0
 28 29  1  0  0  0  0
 29 27  1  0  0  0  0
 30 29  1  0  0  0  0
 31 30  1  0  0  0  0
 31 32  1  0  0  0  0
M  END
>  <MODEL>
4

>  <REMARK>
 VINA RESULT:      -8.0      3.926      5.848
  Name = 
  6 active torsions:
  status: ('A' for Active; 'I' for Inactive)
    1  A    between atoms: C_1  and  C_10
    2  A    between atoms: C_8  and  C_23
    3  A    between atoms: C_10  and  N_24
    4  A    between atoms: C_16  and  C_32
    5  A    between atoms: C_19  and  C_23
    6  A    between atoms: C_19  and  N_24
                            x       y       z     vdW  Elec       q    Type
                         _______ _______ _______ _____ _____    ______ ____

>  <TORSDO>
F 6

$$$$
=
 OpenBabel11052421363D

 32 35  0  0  1  0  0  0  0  0999 V2000
  189.2710  177.6490  144.3180 C   0  0  1  0  0  3  0  0  0  0  0  0
  185.5740  177.8180  147.5930 C   0  0  0  0  0  3  0  0  0  0  0  0
  184.7700  178.3950  146.6080 C   0  0  0  0  0  3  0  0  0  0  0  0
  191.2470  176.1760  144.9390 C   0  0  2  0  0  3  0  0  0  0  0  0
  188.8850  175.5770  145.7370 C   0  0  0  0  0  2  0  0  0  0  0  0
  190.2430  174.0040  144.5650 O   0  0  0  0  0  1  0  0  0  0  0  0
  186.8690  177.4000  147.2810 C   0  0  0  0  0  3  0  0  0  0  0  0
  188.7720  177.1050  145.6770 C   0  0  2  0  0  3  0  0  0  0  0  0
  187.3670  177.5500  145.9790 C   0  0  0  0  0  0  0  0  0  0  0  0
  187.1140  178.3590  143.5870 C   0  0  1  0  0  3  0  0  0  0  0  0
  190.3090  175.0720  145.4650 C   0  0  1  0  0  3  0  0  0  0  0  0
  185.2590  178.5510  145.3090 C   0  0  0  0  0  3  0  0  0  0  0  0
  186.5500  178.1120  144.9740 C   0  0  0  0  0  0  0  0  0  0  0  0
  190.5710  176.9860  143.8370 C   0  0  0  0  0  2  0  0  0  0  0  0
  188.2430  177.4730  143.2950 N   0  0  0  0  0  2  0  0  0  0  0  0
  183.7470  178.2840  141.8100 C   0  0  0  0  0  0  0  0  0  0  0  0
  184.1320  177.9810  140.5020 C   0  0  0  0  0  3  0  0  0  0  0  0
  186.4550  177.9220  141.1900 C   0  0  0  0  0  0  0  0  0  0  0  0
  185.8430  177.5130  138.9150 F   0  0  0  0  0  0  0  0  0  0  0  0
  185.4820  177.8030  140.1900 C   0  0  0  0  0  0  0  0  0  0  0  0
  184.7160  178.4020  142.8110 C   0  0  0  0  0  3  0  0  0  0  0  0
  182.4370  178.4430  142.1120 F   0  0  0  0  0  0  0  0  0  0  0  0
  187.7980  177.7490  140.8680 O   0  0  0  0  0  1  0  0  0  0  0  0
  186.0730  178.2190  142.5080 C   0  0  0  0  0  0  0  0  0  0  0  0
  192.5760  175.6120  144.4550 C   0  0  0  0  0  2  0  0  0  0  0  0
  194.0990  176.4730  146.5300 S   0  0  0  0  0  1  0  0  0  0  0  0
  193.3740  175.0520  145.6310 C   0  0  2  0  0  3  0  0  0  0  0  0
  194.1210  172.8020  145.6750 C   0  0  0  0  0  1  0  0  0  0  0  0
  194.4200  174.1340  145.1580 N   0  0  0  0  0  0  0  0  0  0  0  0
  195.6850  174.5110  145.7820 C   0  0  0  0  0  2  0  0  0  0  0  0
  196.7890  174.5690  144.7410 C   0  0  0  0  0  2  0  0  0  0  0  0
  196.3910  175.3620  143.6630 O   0  0  0  0  0  1  0  0  0  0  0  0
  1 14  1  6  0  0  0
  1  8  1  0  0  0  0
  3  2  2  0  0  0  0
  4 25  1  6  0  0  0
  4 11  1  0  0  0  0
  7  2  1  0  0  0  0
  8  5  1  6  0  0  0
  8  9  1  0  0  0  0
  9  7  2  0  0  0  0
 10 24  1  6  0  0  0
 10 13  1  0  0  0  0
 11  6  1  6  0  0  0
 11  5  1  0  0  0  0
 12  3  1  0  0  0  0
 13 12  2  0  0  0  0
 13  9  1  0  0  0  0
 14  4  1  0  0  0  0
 15 10  1  0  0  0  0
 15  1  1  0  0  0  0
 16 22  1  0  0  0  0
 16 21  1  0  0  0  0
 17 16  2  0  0  0  0
 18 24  1  0  0  0  0
 19 20  1  0  0  0  0
 20 17  1  0  0  0  0
 20 18  2  0  0  0  0
 23 18  1  0  0  0  0
 24 21  2  0  0  0  0
 25 27  1  0  0  0  0
 27 26  1  6  0  0  0
 29 27  1  0  0  0  0
 29 28  1  0  0  0  0
 29 30  1  0  0  0  0
 31 30  1  0  0  0  0
 32 31  1  0  0  0  0
M  END
>  <MODEL>
5

>  <REMARK>
 VINA RESULT:      -7.9      1.379      1.562
  Name = 
  6 active torsions:
  status: ('A' for Active; 'I' for Inactive)
    1  A    between atoms: C_1  and  C_10
    2  A    between atoms: C_8  and  C_23
    3  A    between atoms: C_10  and  N_24
    4  A    between atoms: C_16  and  C_32
    5  A    between atoms: C_19  and  C_23
    6  A    between atoms: C_19  and  N_24
                            x       y       z     vdW  Elec       q    Type
                         _______ _______ _______ _____ _____    ______ ____

>  <TORSDO>
F 6

$$$$
=
 OpenBabel11052421363D

 32 35  0  0  1  0  0  0  0  0999 V2000
  189.2790  175.5590  142.9320 C   0  0  1  0  0  3  0  0  0  0  0  0
  191.6360  175.7810  147.2700 C   0  0  0  0  0  3  0  0  0  0  0  0
  190.8180  176.8560  147.6230 C   0  0  0  0  0  3  0  0  0  0  0  0
  189.6360  173.4400  141.5740 C   0  0  2  0  0  3  0  0  0  0  0  0
  189.6980  173.3610  144.1360 C   0  0  0  0  0  2  0  0  0  0  0  0
  188.2810  171.9130  142.8760 O   0  0  0  0  0  1  0  0  0  0  0  0
  191.4280  175.1140  146.0610 C   0  0  0  0  0  3  0  0  0  0  0  0
  190.2100  174.7860  143.8960 C   0  0  2  0  0  3  0  0  0  0  0  0
  190.3980  175.5140  145.1990 C   0  0  0  0  0  0  0  0  0  0  0  0
  188.4960  177.0820  144.5930 C   0  0  1  0  0  3  0  0  0  0  0  0
  189.5180  172.5640  142.8360 C   0  0  1  0  0  3  0  0  0  0  0  0
  189.7910  177.2640  146.7690 C   0  0  0  0  0  3  0  0  0  0  0  0
  189.5550  176.5870  145.5610 C   0  0  0  0  0  0  0  0  0  0  0  0
  188.8260  174.7240  141.7240 C   0  0  0  0  0  2  0  0  0  0  0  0
  188.0980  176.0390  143.6460 N   0  0  0  0  0  2  0  0  0  0  0  0
  185.8910  177.7600  147.2850 C   0  0  0  0  0  0  0  0  0  0  0  0
  185.0190  178.6220  146.6160 C   0  0  0  0  0  3  0  0  0  0  0  0
  186.4010  178.4890  144.6290 C   0  0  0  0  0  0  0  0  0  0  0  0
  184.4220  179.8310  144.6550 F   0  0  0  0  0  0  0  0  0  0  0  0
  185.2740  178.9900  145.2930 C   0  0  0  0  0  0  0  0  0  0  0  0
  187.0160  177.2570  146.6260 C   0  0  0  0  0  3  0  0  0  0  0  0
  185.6340  177.3950  148.5640 F   0  0  0  0  0  0  0  0  0  0  0  0
  186.6500  178.8660  143.3130 O   0  0  0  0  0  1  0  0  0  0  0  0
  187.2760  177.6160  145.2960 C   0  0  0  0  0  0  0  0  0  0  0  0
  189.2230  172.6870  140.3170 C   0  0  0  0  0  2  0  0  0  0  0  0
  188.6760  173.7930  137.8990 S   0  0  0  0  0  1  0  0  0  0  0  0
  189.9500  173.2520  139.0980 C   0  0  2  0  0  3  0  0  0  0  0  0
  190.4120  170.9290  138.9850 C   0  0  0  0  0  1  0  0  0  0  0  0
  190.8380  172.2420  138.5080 N   0  0  0  0  0  0  0  0  0  0  0  0
  192.1800  172.4280  139.0530 C   0  0  0  0  0  2  0  0  0  0  0  0
  192.5670  173.8960  139.0090 C   0  0  0  0  0  2  0  0  0  0  0  0
  193.1500  174.2750  140.2200 O   0  0  0  0  0  1  0  0  0  0  0  0
  1 14  1  6  0  0  0
  1 15  1  0  0  0  0
  1  8  1  0  0  0  0
  2  3  1  0  0  0  0
  4 25  1  6  0  0  0
  4 14  1  0  0  0  0
  4 11  1  0  0  0  0
  7  2  2  0  0  0  0
  8  5  1  1  0  0  0
  8  9  1  0  0  0  0
  9 13  2  0  0  0  0
  9  7  1  0  0  0  0
 10 24  1  1  0  0  0
 10 13  1  0  0  0  0
 11  6  1  1  0  0  0
 11  5  1  0  0  0  0
 12  3  2  0  0  0  0
 13 12  1  0  0  0  0
 15 10  1  0  0  0  0
 16 22  1  0  0  0  0
 17 16  2  0  0  0  0
 18 20  2  0  0  0  0
 18 24  1  0  0  0  0
 19 20  1  0  0  0  0
 20 17  1  0  0  0  0
 21 16  1  0  0  0  0
 23 18  1  0  0  0  0
 24 21  2  0  0  0  0
 27 26  1  6  0  0  0
 27 25  1  0  0  0  0
 29 28  1  0  0  0  0
 29 30  1  0  0  0  0
 29 27  1  0  0  0  0
 31 30  1  0  0  0  0
 31 32  1  0  0  0  0
M  END
>  <MODEL>
6

>  <REMARK>
 VINA RESULT:      -7.9      4.097      5.552
  Name = 
  6 active torsions:
  status: ('A' for Active; 'I' for Inactive)
    1  A    between atoms: C_1  and  C_10
    2  A    between atoms: C_8  and  C_23
    3  A    between atoms: C_10  and  N_24
    4  A    between atoms: C_16  and  C_32
    5  A    between atoms: C_19  and  C_23
    6  A    between atoms: C_19  and  N_24
                            x       y       z     vdW  Elec       q    Type
                         _______ _______ _______ _____ _____    ______ ____

>  <TORSDO>
F 6

$$$$
=
 OpenBabel11052421363D

 32 35  0  0  1  0  0  0  0  0999 V2000
  190.3860  176.6290  143.9200 C   0  0  1  0  0  3  0  0  0  0  0  0
  190.6610  172.2610  141.6250 C   0  0  0  0  0  3  0  0  0  0  0  0
  191.9960  172.5380  141.3260 C   0  0  0  0  0  3  0  0  0  0  0  0
  188.3680  176.9740  145.4260 C   0  0  2  0  0  3  0  0  0  0  0  0
  189.3580  174.6300  145.1060 C   0  0  0  0  0  2  0  0  0  0  0  0
  189.0200  175.5580  147.2790 O   0  0  0  0  0  1  0  0  0  0  0  0
  189.9240  173.1460  142.4130 C   0  0  0  0  0  3  0  0  0  0  0  0
  189.6950  175.2560  143.7470 C   0  0  2  0  0  3  0  0  0  0  0  0
  190.5190  174.3130  142.9140 C   0  0  0  0  0  0  0  0  0  0  0  0
  192.4990  175.8900  143.0960 C   0  0  1  0  0  3  0  0  0  0  0  0
  188.4900  175.5430  145.9850 C   0  0  1  0  0  3  0  0  0  0  0  0
  192.5960  173.6990  141.8170 C   0  0  0  0  0  3  0  0  0  0  0  0
  191.8750  174.5870  142.6320 C   0  0  0  0  0  0  0  0  0  0  0  0
  189.7300  177.5090  144.9950 C   0  0  0  0  0  2  0  0  0  0  0  0
  191.7960  176.4460  144.2540 N   0  0  0  0  0  2  0  0  0  0  0  0
  195.7240  175.0620  144.9430 C   0  0  0  0  0  0  0  0  0  0  0  0
  196.6860  175.4590  144.0120 C   0  0  0  0  0  3  0  0  0  0  0  0
  194.9340  176.1370  142.4800 C   0  0  0  0  0  0  0  0  0  0  0  0
  197.2380  176.3690  141.8840 F   0  0  0  0  0  0  0  0  0  0  0  0
  196.2940  175.9910  142.7810 C   0  0  0  0  0  0  0  0  0  0  0  0
  194.3650  175.2060  144.6460 C   0  0  0  0  0  3  0  0  0  0  0  0
  196.1060  174.5570  146.1410 F   0  0  0  0  0  0  0  0  0  0  0  0
  194.5540  176.6630  141.2490 O   0  0  0  0  0  1  0  0  0  0  0  0
  193.9630  175.7470  143.4160 C   0  0  0  0  0  0  0  0  0  0  0  0
  187.7080  177.9190  146.4210 C   0  0  0  0  0  2  0  0  0  0  0  0
  185.2230  176.8310  146.5110 S   0  0  0  0  0  1  0  0  0  0  0  0
  186.2770  178.2330  145.9860 C   0  0  2  0  0  3  0  0  0  0  0  0
  185.7210  179.7860  144.2840 C   0  0  0  0  0  1  0  0  0  0  0  0
  186.2090  178.4330  144.5330 N   0  0  0  0  0  0  0  0  0  0  0  0
  185.1790  177.5510  143.9910 C   0  0  0  0  0  2  0  0  0  0  0  0
  185.5140  177.1660  142.5600 C   0  0  0  0  0  2  0  0  0  0  0  0
  186.6590  176.3680  142.5340 O   0  0  0  0  0  1  0  0  0  0  0  0
  1 15  1  0  0  0  0
  1 14  1  1  0  0  0
  2  7  1  0  0  0  0
  3  2  2  0  0  0  0
  3 12  1  0  0  0  0
  4 11  1  0  0  0  0
  4 25  1  1  0  0  0
  5 11  1  0  0  0  0
  7  9  2  0  0  0  0
  8  1  1  0  0  0  0
  8  5  1  1  0  0  0
  9  8  1  0  0  0  0
 10 24  1  1  0  0  0
 10 15  1  0  0  0  0
 11  6  1  1  0  0  0
 12 13  2  0  0  0  0
 13  9  1  0  0  0  0
 13 10  1  0  0  0  0
 14  4  1  0  0  0  0
 16 22  1  0  0  0  0
 17 16  2  0  0  0  0
 18 20  2  0  0  0  0
 18 24  1  0  0  0  0
 19 20  1  0  0  0  0
 20 17  1  0  0  0  0
 21 16  1  0  0  0  0
 23 18  1  0  0  0  0
 24 21  2  0  0  0  0
 27 25  1  0  0  0  0
 27 26  1  6  0  0  0
 28 29  1  0  0  0  0
 29 27  1  0  0  0  0
 30 29  1  0  0  0  0
 31 30  1  0  0  0  0
 32 31  1  0  0  0  0
M  END
>  <MODEL>
7

>  <REMARK>
 VINA RESULT:      -7.9      3.917      8.239
  Name = 
  6 active torsions:
  status: ('A' for Active; 'I' for Inactive)
    1  A    between atoms: C_1  and  C_10
    2  A    between atoms: C_8  and  C_23
    3  A    between atoms: C_10  and  N_24
    4  A    between atoms: C_16  and  C_32
    5  A    between atoms: C_19  and  C_23
    6  A    between atoms: C_19  and  N_24
                            x       y       z     vdW  Elec       q    Type
                         _______ _______ _______ _____ _____    ______ ____

>  <TORSDO>
F 6

$$$$
=
 OpenBabel11052421363D

 32 35  0  0  1  0  0  0  0  0999 V2000
  190.1580  177.4570  145.1650 C   0  0  1  0  0  3  0  0  0  0  0  0
  185.6990  176.7800  147.1850 C   0  0  0  0  0  3  0  0  0  0  0  0
  185.1280  177.2820  146.0150 C   0  0  0  0  0  3  0  0  0  0  0  0
  192.0980  176.2920  146.3240 C   0  0  2  0  0  3  0  0  0  0  0  0
  189.7530  175.2550  146.3670 C   0  0  0  0  0  2  0  0  0  0  0  0
  191.6540  174.0160  145.6280 O   0  0  0  0  0  1  0  0  0  0  0  0
  187.0820  176.6060  147.2680 C   0  0  0  0  0  3  0  0  0  0  0  0
  189.3900  176.7430  146.3030 C   0  0  2  0  0  3  0  0  0  0  0  0
  187.9030  176.9260  146.1780 C   0  0  0  0  0  0  0  0  0  0  0  0
  188.2170  177.8470  143.8340 C   0  0  1  0  0  3  0  0  0  0  0  0
  191.2620  175.0140  146.5260 C   0  0  1  0  0  3  0  0  0  0  0  0
  185.9380  177.6070  144.9250 C   0  0  0  0  0  3  0  0  0  0  0  0
  187.3280  177.4140  144.9840 C   0  0  0  0  0  0  0  0  0  0  0  0
  191.6390  177.0540  145.0840 C   0  0  0  0  0  2  0  0  0  0  0  0
  189.5220  177.1840  143.8780 N   0  0  0  0  0  2  0  0  0  0  0  0
  187.3960  176.3090  140.4490 C   0  0  0  0  0  0  0  0  0  0  0  0
  186.3820  177.1570  139.9980 C   0  0  0  0  0  3  0  0  0  0  0  0
  186.5530  178.4580  142.0370 C   0  0  0  0  0  0  0  0  0  0  0  0
  184.9690  179.0410  140.3440 F   0  0  0  0  0  0  0  0  0  0  0  0
  185.9570  178.2270  140.7900 C   0  0  0  0  0  0  0  0  0  0  0  0
  187.9940  176.5370  141.6920 C   0  0  0  0  0  3  0  0  0  0  0  0
  187.8140  175.2810  139.6730 F   0  0  0  0  0  0  0  0  0  0  0  0
  186.1190  179.5220  142.8210 O   0  0  0  0  0  1  0  0  0  0  0  0
  187.5790  177.6120  142.4910 C   0  0  0  0  0  0  0  0  0  0  0  0
  193.5890  175.9920  146.2500 C   0  0  0  0  0  2  0  0  0  0  0  0
  195.0900  173.9870  145.2040 S   0  0  0  0  0  1  0  0  0  0  0  0
  193.9390  175.3770  144.8960 C   0  0  2  0  0  3  0  0  0  0  0  0
  194.2440  176.0100  142.6310 C   0  0  0  0  0  1  0  0  0  0  0  0
  194.5440  176.3810  144.0110 N   0  0  0  0  0  0  0  0  0  0  0  0
  195.9970  176.2840  144.1230 C   0  0  0  0  0  2  0  0  0  0  0  0
  196.6420  176.4180  142.7550 C   0  0  0  0  0  2  0  0  0  0  0  0
  197.9410  175.9070  142.7850 O   0  0  0  0  0  1  0  0  0  0  0  0
  1 14  1  6  0  0  0
  1  8  1  0  0  0  0
  2  7  1  0  0  0  0
  3  2  2  0  0  0  0
  4 25  1  6  0  0  0
  4 11  1  0  0  0  0
  5 11  1  0  0  0  0
  8  5  1  6  0  0  0
  9  8  1  0  0  0  0
  9  7  2  0  0  0  0
 10 24  1  6  0  0  0
 10 15  1  0  0  0  0
 10 13  1  0  0  0  0
 11  6  1  6  0  0  0
 12 13  2  0  0  0  0
 12  3  1  0  0  0  0
 13  9  1  0  0  0  0
 14  4  1  0  0  0  0
 15  1  1  0  0  0  0
 16 21  1  0  0  0  0
 17 16  2  0  0  0  0
 17 20  1  0  0  0  0
 18 24  1  0  0  0  0
 18 23  1  0  0  0  0
 19 20  1  0  0  0  0
 20 18  2  0  0  0  0
 21 24  2  0  0  0  0
 22 16  1  0  0  0  0
 27 26  1  1  0  0  0
 27 25  1  0  0  0  0
 28 29  1  0  0  0  0
 29 30  1  0  0  0  0
 29 27  1  0  0  0  0
 31 32  1  0  0  0  0
 31 30  1  0  0  0  0
M  END
>  <MODEL>
8

>  <REMARK>
 VINA RESULT:      -7.8      1.569      2.167
  Name = 
  6 active torsions:
  status: ('A' for Active; 'I' for Inactive)
    1  A    between atoms: C_1  and  C_10
    2  A    between atoms: C_8  and  C_23
    3  A    between atoms: C_10  and  N_24
    4  A    between atoms: C_16  and  C_32
    5  A    between atoms: C_19  and  C_23
    6  A    between atoms: C_19  and  N_24
                            x       y       z     vdW  Elec       q    Type
                         _______ _______ _______ _____ _____    ______ ____

>  <TORSDO>
F 6

$$$$
=
 OpenBabel11052421363D

 32 35  0  0  1  0  0  0  0  0999 V2000
  190.1300  174.8360  145.1500 C   0  0  1  0  0  3  0  0  0  0  0  0
  194.7770  175.9850  146.3790 C   0  0  0  0  0  3  0  0  0  0  0  0
  195.1990  174.8130  145.7490 C   0  0  0  0  0  3  0  0  0  0  0  0
  188.4220  176.7070  145.3660 C   0  0  2  0  0  3  0  0  0  0  0  0
  190.8630  177.2410  144.7880 C   0  0  0  0  0  2  0  0  0  0  0  0
  189.0580  178.0340  143.4430 O   0  0  0  0  0  1  0  0  0  0  0  0
  193.4320  176.3550  146.3330 C   0  0  0  0  0  3  0  0  0  0  0  0
  191.0550  175.9770  145.6330 C   0  0  2  0  0  3  0  0  0  0  0  0
  192.5000  175.5600  145.6510 C   0  0  0  0  0  0  0  0  0  0  0  0
  191.9090  173.4740  144.3310 C   0  0  1  0  0  3  0  0  0  0  0  0
  189.4060  177.7270  144.7620 C   0  0  1  0  0  3  0  0  0  0  0  0
  194.2780  174.0120  145.0700 C   0  0  0  0  0  3  0  0  0  0  0  0
  192.9260  174.3850  144.9940 C   0  0  0  0  0  0  0  0  0  0  0  0
  188.7000  175.3030  144.8360 C   0  0  0  0  0  2  0  0  0  0  0  0
  190.6920  174.1990  143.9620 N   0  0  0  0  0  2  0  0  0  0  0  0
  193.2820  172.8560  140.8340 C   0  0  0  0  0  0  0  0  0  0  0  0
  193.5190  171.4800  140.8690 C   0  0  0  0  0  3  0  0  0  0  0  0
  192.7130  171.3920  143.1540 C   0  0  0  0  0  0  0  0  0  0  0  0
  193.4790  169.4140  142.0500 F   0  0  0  0  0  0  0  0  0  0  0  0
  193.2410  170.7490  142.0260 C   0  0  0  0  0  0  0  0  0  0  0  0
  192.7550  173.5010  141.9570 C   0  0  0  0  0  3  0  0  0  0  0  0
  193.5420  173.5600  139.7070 F   0  0  0  0  0  0  0  0  0  0  0  0
  192.4450  170.6560  144.3030 O   0  0  0  0  0  1  0  0  0  0  0  0
  192.4650  172.7740  143.1200 C   0  0  0  0  0  0  0  0  0  0  0  0
  186.9720  177.0980  145.1190 C   0  0  0  0  0  2  0  0  0  0  0  0
  185.9450  177.4970  147.6000 S   0  0  0  0  0  1  0  0  0  0  0  0
  186.5660  178.2420  146.0470 C   0  0  2  0  0  3  0  0  0  0  0  0
  184.2370  178.6730  145.9270 C   0  0  0  0  0  1  0  0  0  0  0  0
  185.5410  179.0840  145.4150 N   0  0  0  0  0  0  0  0  0  0  0  0
  185.5040  178.7770  143.9880 C   0  0  0  0  0  2  0  0  0  0  0  0
  184.0660  178.6680  143.5100 C   0  0  0  0  0  2  0  0  0  0  0  0
  184.0090  177.9310  142.3250 O   0  0  0  0  0  1  0  0  0  0  0  0
  1 14  1  6  0  0  0
  1  8  1  0  0  0  0
  3  2  2  0  0  0  0
  4 25  1  6  0  0  0
  7  2  1  0  0  0  0
  8  5  1  6  0  0  0
  8  9  1  0  0  0  0
  9  7  2  0  0  0  0
 10 24  1  6  0  0  0
 10 13  1  0  0  0  0
 11  6  1  6  0  0  0
 11  5  1  0  0  0  0
 11  4  1  0  0  0  0
 12  3  1  0  0  0  0
 13 12  2  0  0  0  0
 13  9  1  0  0  0  0
 14  4  1  0  0  0  0
 15 10  1  0  0  0  0
 15  1  1  0  0  0  0
 16 17  2  0  0  0  0
 16 21  1  0  0  0  0
 17 20  1  0  0  0  0
 18 23  1  0  0  0  0
 20 19  1  0  0  0  0
 20 18  2  0  0  0  0
 21 24  2  0  0  0  0
 22 16  1  0  0  0  0
 24 18  1  0  0  0  0
 25 27  1  0  0  0  0
 27 26  1  1  0  0  0
 29 28  1  0  0  0  0
 29 27  1  0  0  0  0
 30 29  1  0  0  0  0
 31 30  1  0  0  0  0
 32 31  1  0  0  0  0
M  END
>  <MODEL>
9

>  <REMARK>
 VINA RESULT:      -7.7      3.898      8.411
  Name = 
  6 active torsions:
  status: ('A' for Active; 'I' for Inactive)
    1  A    between atoms: C_1  and  C_10
    2  A    between atoms: C_8  and  C_23
    3  A    between atoms: C_10  and  N_24
    4  A    between atoms: C_16  and  C_32
    5  A    between atoms: C_19  and  C_23
    6  A    between atoms: C_19  and  N_24
                            x       y       z     vdW  Elec       q    Type
                         _______ _______ _______ _____ _____    ______ ____

>  <TORSDO>
F 6

$$$$
