=
 OpenBabel11052419363D

 55 59  0  0  1  0  0  0  0  0999 V2000
  194.8280  170.6950  144.3690 C   0  0  2  0  0  3  0  0  0  0  0  0
  195.4260  169.8640  145.4970 C   0  0  0  0  0  3  0  0  0  0  0  0
  196.8740  169.5440  145.1800 C   0  0  0  0  0  2  0  0  0  0  0  0
  196.5380  170.6420  146.1690 C   0  0  0  0  0  2  0  0  0  0  0  0
  195.9060  171.5170  143.6630 C   0  0  0  0  0  2  0  0  0  0  0  0
  196.0560  171.1290  142.1970 C   0  0  0  0  0  2  0  0  0  0  0  0
  196.7470  172.2350  141.4210 C   0  0  0  0  0  2  0  0  0  0  0  0
  195.9350  172.5980  140.1910 C   0  0  0  0  0  2  0  0  0  0  0  0
  196.1440  174.0560  139.8380 C   0  0  0  0  0  2  0  0  0  0  0  0
  194.8190  174.7800  139.9480 C   0  0  0  0  0  2  0  0  0  0  0  0
  193.8420  174.2770  138.8990 C   0  0  1  0  0  3  0  0  0  0  0  0
  192.5250  174.0890  139.4960 N   0  0  0  0  0  2  0  0  0  0  0  0
  189.4840  173.6390  139.1120 C   0  0  0  0  0  0  0  0  0  0  0  0
  192.8290  171.4670  140.2590 F   0  0  0  0  0  0  0  0  0  0  0  0
  191.8430  173.0340  138.7550 C   0  0  1  0  0  3  0  0  0  0  0  0
  188.5040  172.4300  142.5550 C   0  0  0  0  0  3  0  0  0  0  0  0
  191.2320  170.7380  138.8550 F   0  0  0  0  0  0  0  0  0  0  0  0
  191.6310  171.8000  139.6480 C   0  0  0  0  0  0  0  0  0  0  0  0
  188.4870  174.3230  138.7550 O   0  0  0  0  0  0  0  0  0  0  0  0
  189.5460  171.5390  142.8290 C   0  0  0  0  0  3  0  0  0  0  0  0
  190.5660  171.3460  141.8960 C   0  0  0  0  0  3  0  0  0  0  0  0
  189.4990  172.9380  140.4040 C   0  0  0  0  0  0  0  0  0  0  0  0
  190.5630  172.0580  140.6860 C   0  0  0  0  0  0  0  0  0  0  0  0
  188.4780  173.1250  141.3440 C   0  0  0  0  0  3  0  0  0  0  0  0
  190.5930  173.5290  138.2690 O   0  0  0  0  0  0  0  0  0  0  0  0
  193.7750  175.2350  137.7020 C   0  0  0  0  0  2  0  0  0  0  0  0
  194.5660  173.3610  136.2830 C   0  0  0  0  0  1  0  0  0  0  0  0
  194.6990  174.8460  136.5550 C   0  0  1  0  0  3  0  0  0  0  0  0
  194.3760  175.5610  135.4020 O   0  0  0  0  0  1  0  0  0  0  0  0
  193.6890  171.5670  144.8920 C   0  0  0  0  0  2  0  0  0  0  0  0
  193.2800  172.5950  143.8470 C   0  0  0  0  0  2  0  0  0  0  0  0
  192.0800  173.4020  144.3160 C   0  0  0  0  0  2  0  0  0  0  0  0
  191.8400  174.5720  143.3780 C   0  0  0  0  0  2  0  0  0  0  0  0
  191.2200  175.7540  144.1250 C   0  0  1  0  0  3  0  0  0  0  0  0
  192.4030  176.3160  146.2860 C   0  0  0  0  0  2  0  0  0  0  0  0
  194.5510  176.4900  145.2580 C   0  0  1  0  0  3  0  0  0  0  0  0
  192.2670  176.6420  144.8100 C   0  0  1  0  0  3  0  0  0  0  0  0
  193.5770  176.5270  144.1730 N   0  0  0  0  0  2  0  0  0  0  0  0
  193.8530  175.9680  146.4920 C   0  0  0  0  0  2  0  0  0  0  0  0
  195.7700  175.6340  144.9040 C   0  0  0  0  0  3  0  0  0  0  0  0
  195.9090  174.4170  145.8050 C   0  0  0  0  0  1  0  0  0  0  0  0
  195.7060  175.1940  143.4550 C   0  0  0  0  0  1  0  0  0  0  0  0
  190.3980  176.6070  143.1670 C   0  0  0  0  0  2  0  0  0  0  0  0
  186.3200  177.7680  142.7500 C   0  0  0  0  0  2  0  0  0  0  0  0
  186.6980  176.4070  142.1830 C   0  0  0  0  0  2  0  0  0  0  0  0
  188.9810  177.9530  145.2480 O   0  0  0  0  0  0  0  0  0  0  0  0
  188.9000  176.4250  143.3940 C   0  0  2  0  0  3  0  0  0  0  0  0
  188.2100  176.3530  142.0330 C   0  0  0  0  0  2  0  0  0  0  0  0
  188.3200  177.5210  144.2620 C   0  0  0  0  0  0  0  0  0  0  0  0
  186.9770  177.9870  144.0370 N   0  0  0  0  0  0  0  0  0  0  0  0
  186.3330  178.8760  145.0010 C   0  0  0  0  0  2  0  0  0  0  0  0
  184.1150  178.5250  146.0350 C   0  0  0  0  0  1  0  0  0  0  0  0
  186.1170  178.4170  147.4630 C   0  0  0  0  0  1  0  0  0  0  0  0
  185.6510  176.6140  145.8340 C   0  0  0  0  0  1  0  0  0  0  0  0
  185.5710  178.1080  146.0820 C   0  0  0  0  0  0  0  0  0  0  0  0
  1  5  1  1  0  0  0
  1 30  1  0  0  0  0
  1  2  1  0  0  0  0
  2  4  1  0  0  0  0
  3  2  1  0  0  0  0
  3  4  1  0  0  0  0
  6  5  1  0  0  0  0
  7  6  1  0  0  0  0
  8  7  1  0  0  0  0
  9 10  1  0  0  0  0
  9  8  1  0  0  0  0
 11 26  1  6  0  0  0
 11 12  1  0  0  0  0
 11 10  1  0  0  0  0
 13 22  1  0  0  0  0
 15 12  1  1  0  0  0
 15 18  1  0  0  0  0
 16 20  1  0  0  0  0
 17 18  1  0  0  0  0
 18 14  1  0  0  0  0
 18 23  1  0  0  0  0
 19 13  2  0  0  0  0
 21 20  2  0  0  0  0
 22 23  2  0  0  0  0
 22 24  1  0  0  0  0
 23 21  1  0  0  0  0
 24 16  2  0  0  0  0
 25 15  1  0  0  0  0
 25 13  1  0  0  0  0
 28 27  1  6  0  0  0
 28 26  1  0  0  0  0
 29 28  1  0  0  0  0
 31 32  1  0  0  0  0
 31 30  1  0  0  0  0
 33 34  1  0  0  0  0
 33 32  1  0  0  0  0
 34 43  1  6  0  0  0
 35 39  1  0  0  0  0
 36 40  1  6  0  0  0
 36 39  1  0  0  0  0
 37 34  1  6  0  0  0
 37 35  1  0  0  0  0
 38 37  1  0  0  0  0
 38 36  1  0  0  0  0
 40 41  1  0  0  0  0
 42 40  1  0  0  0  0
 44 50  1  0  0  0  0
 45 44  1  0  0  0  0
 47 43  1  6  0  0  0
 47 49  1  0  0  0  0
 48 45  1  0  0  0  0
 48 47  1  0  0  0  0
 49 46  2  0  0  0  0
 50 49  1  0  0  0  0
 50 51  1  0  0  0  0
 51 55  1  0  0  0  0
 52 55  1  0  0  0  0
 54 55  1  0  0  0  0
 55 53  1  0  0  0  0
M  END
>  <MODEL>
1

>  <REMARK>
 VINA RESULT:      -5.8      0.000      0.000
  Name = 
  23 active torsions:
  status: ('A' for Active; 'I' for Inactive)
    1  A    between atoms: C_2  and  C_28
    2  A    between atoms: C_2  and  C_44
    3  A    between atoms: C_6  and  N_46
    4  A    between atoms: C_8  and  C_20
    5  A    between atoms: C_8  and  C_22
    6  A    between atoms: C_10  and  C_32
    7  A    between atoms: C_17  and  C_36
    8  A    between atoms: C_19  and  C_40
    9  A    between atoms: C_19  and  N_45
   10  A    between atoms: C_22  and  C_35
   11  A    between atoms: C_22  and  N_46
   12  A    between atoms: C_24  and  C_44
   13  A    between atoms: C_27  and  C_31
   14  A    between atoms: C_27  and  C_54
   15  A    between atoms: C_28  and  C_49
   16  A    between atoms: C_31  and  C_44
   17  A    between atoms: C_33  and  C_49
   18  A    between atoms: C_33  and  C_52
   19  A    between atoms: C_34  and  C_52
   20  A    between atoms: C_35  and  C_43
   21  A    between atoms: C_36  and  C_52
   22  A    between atoms: C_43  and  C_51
   23  A    between atoms: C_51  and  C_54
                            x       y       z     vdW  Elec       q    Type
                         _______ _______ _______ _____ _____    ______ ____

>  <TORSDO>
F 23

$$$$
=
 OpenBabel11052419363D

 55 59  0  0  1  0  0  0  0  0999 V2000
  189.9960  175.3230  146.9590 C   0  0  2  0  0  3  0  0  0  0  0  0
  190.7380  176.6410  147.1430 C   0  0  0  0  0  3  0  0  0  0  0  0
  191.4390  176.6460  148.4870 C   0  0  0  0  0  2  0  0  0  0  0  0
  192.2280  176.3820  147.2210 C   0  0  0  0  0  2  0  0  0  0  0  0
  190.6710  174.4590  145.8930 C   0  0  0  0  0  2  0  0  0  0  0  0
  189.6750  173.5670  145.1620 C   0  0  0  0  0  2  0  0  0  0  0  0
  190.3140  172.2370  144.8040 C   0  0  0  0  0  2  0  0  0  0  0  0
  189.9960  171.8740  143.3650 C   0  0  0  0  0  2  0  0  0  0  0  0
  191.1360  171.0800  142.7620 C   0  0  0  0  0  2  0  0  0  0  0  0
  190.6030  170.2620  141.6040 C   0  0  0  0  0  2  0  0  0  0  0  0
  191.4350  170.4930  140.3540 C   0  0  1  0  0  3  0  0  0  0  0  0
  191.0750  171.7690  139.7480 N   0  0  0  0  0  2  0  0  0  0  0  0
  190.3590  170.6800  136.9380 C   0  0  0  0  0  0  0  0  0  0  0  0
  189.5150  173.9870  139.2990 F   0  0  0  0  0  0  0  0  0  0  0  0
  189.7610  171.6190  139.1320 C   0  0  1  0  0  3  0  0  0  0  0  0
  191.5200  173.5350  134.7510 C   0  0  0  0  0  3  0  0  0  0  0  0
  188.0050  172.8400  138.0920 F   0  0  0  0  0  0  0  0  0  0  0  0
  189.3450  172.9220  138.4290 C   0  0  0  0  0  0  0  0  0  0  0  0
  190.6300  169.6620  136.2460 O   0  0  0  0  0  0  0  0  0  0  0  0
  191.0380  174.6310  135.4710 C   0  0  0  0  0  3  0  0  0  0  0  0
  190.3480  174.4350  136.6680 C   0  0  0  0  0  3  0  0  0  0  0  0
  190.6170  172.0340  136.4270 C   0  0  0  0  0  0  0  0  0  0  0  0
  190.1500  173.1390  137.1670 C   0  0  0  0  0  0  0  0  0  0  0  0
  191.3070  172.2380  135.2260 C   0  0  0  0  0  3  0  0  0  0  0  0
  189.7940  170.5310  138.2070 O   0  0  0  0  0  0  0  0  0  0  0  0
  192.9350  170.4340  140.6710 C   0  0  0  0  0  2  0  0  0  0  0  0
  192.6930  168.5560  139.0700 C   0  0  0  0  0  1  0  0  0  0  0  0
  193.6700  169.3160  139.9420 C   0  0  1  0  0  3  0  0  0  0  0  0
  194.6930  169.8380  139.1500 O   0  0  0  0  0  1  0  0  0  0  0  0
  188.5230  175.5760  146.6470 C   0  0  0  0  0  2  0  0  0  0  0  0
  188.2030  177.0600  146.7440 C   0  0  0  0  0  2  0  0  0  0  0  0
  188.1370  177.6950  145.3640 C   0  0  0  0  0  2  0  0  0  0  0  0
  187.7490  176.6540  144.3290 C   0  0  0  0  0  2  0  0  0  0  0  0
  188.7160  176.6750  143.1440 C   0  0  1  0  0  3  0  0  0  0  0  0
  187.6890  176.6420  140.8360 C   0  0  0  0  0  2  0  0  0  0  0  0
  186.1400  178.3940  141.3200 C   0  0  1  0  0  3  0  0  0  0  0  0
  188.2010  177.5140  141.9670 C   0  0  1  0  0  3  0  0  0  0  0  0
  187.1420  178.4330  142.3790 N   0  0  0  0  0  2  0  0  0  0  0  0
  186.2590  177.0630  140.6140 C   0  0  0  0  0  2  0  0  0  0  0  0
  184.7250  178.6110  141.8620 C   0  0  0  0  0  3  0  0  0  0  0  0
  183.6500  178.2530  140.8470 C   0  0  0  0  0  1  0  0  0  0  0  0
  184.5160  177.8110  143.1320 C   0  0  0  0  0  1  0  0  0  0  0  0
  190.0710  177.2150  143.5820 C   0  0  0  0  0  2  0  0  0  0  0  0
  193.0430  174.2920  142.7050 C   0  0  0  0  0  2  0  0  0  0  0  0
  191.9770  174.5140  141.6410 C   0  0  0  0  0  2  0  0  0  0  0  0
  192.8220  177.6000  144.2400 O   0  0  0  0  0  0  0  0  0  0  0  0
  191.2060  176.6380  142.7430 C   0  0  2  0  0  3  0  0  0  0  0  0
  190.8030  175.2380  142.2830 C   0  0  0  0  0  2  0  0  0  0  0  0
  192.5200  176.6260  143.4960 C   0  0  0  0  0  0  0  0  0  0  0  0
  193.4710  175.5670  143.2750 N   0  0  0  0  0  0  0  0  0  0  0  0
  194.8220  175.6640  143.8210 C   0  0  0  0  0  2  0  0  0  0  0  0
  196.8920  176.8860  143.2450 C   0  0  0  0  0  1  0  0  0  0  0  0
  195.2470  176.4430  141.4690 C   0  0  0  0  0  1  0  0  0  0  0  0
  196.5930  174.5910  142.4090 C   0  0  0  0  0  1  0  0  0  0  0  0
  195.8740  175.8880  142.7330 C   0  0  0  0  0  0  0  0  0  0  0  0
  1  5  1  6  0  0  0
  1  2  1  0  0  0  0
  2  4  1  0  0  0  0
  2  3  1  0  0  0  0
  4  3  1  0  0  0  0
  6  5  1  0  0  0  0
  7  6  1  0  0  0  0
  8  7  1  0  0  0  0
  9  8  1  0  0  0  0
 10  9  1  0  0  0  0
 11 26  1  1  0  0  0
 11 10  1  0  0  0  0
 12 11  1  0  0  0  0
 13 25  1  0  0  0  0
 15 12  1  6  0  0  0
 16 24  2  0  0  0  0
 16 20  1  0  0  0  0
 17 18  1  0  0  0  0
 18 15  1  0  0  0  0
 18 14  1  0  0  0  0
 19 13  2  0  0  0  0
 20 21  2  0  0  0  0
 21 23  1  0  0  0  0
 22 13  1  0  0  0  0
 22 23  2  0  0  0  0
 23 18  1  0  0  0  0
 24 22  1  0  0  0  0
 25 15  1  0  0  0  0
 28 27  1  6  0  0  0
 28 26  1  0  0  0  0
 29 28  1  0  0  0  0
 30 31  1  0  0  0  0
 30  1  1  0  0  0  0
 32 31  1  0  0  0  0
 33 32  1  0  0  0  0
 34 43  1  1  0  0  0
 34 33  1  0  0  0  0
 35 37  1  0  0  0  0
 36 40  1  1  0  0  0
 36 38  1  0  0  0  0
 37 38  1  0  0  0  0
 37 34  1  1  0  0  0
 39 35  1  0  0  0  0
 39 36  1  0  0  0  0
 40 42  1  0  0  0  0
 41 40  1  0  0  0  0
 44 50  1  0  0  0  0
 45 48  1  0  0  0  0
 45 44  1  0  0  0  0
 47 49  1  0  0  0  0
 47 43  1  1  0  0  0
 48 47  1  0  0  0  0
 49 46  2  0  0  0  0
 50 49  1  0  0  0  0
 50 51  1  0  0  0  0
 53 55  1  0  0  0  0
 54 55  1  0  0  0  0
 55 52  1  0  0  0  0
 55 51  1  0  0  0  0
M  END
>  <MODEL>
2

>  <REMARK>
 VINA RESULT:      -5.8      2.881      7.197
  Name = 
  23 active torsions:
  status: ('A' for Active; 'I' for Inactive)
    1  A    between atoms: C_2  and  C_28
    2  A    between atoms: C_2  and  C_44
    3  A    between atoms: C_6  and  N_46
    4  A    between atoms: C_8  and  C_20
    5  A    between atoms: C_8  and  C_22
    6  A    between atoms: C_10  and  C_32
    7  A    between atoms: C_17  and  C_36
    8  A    between atoms: C_19  and  C_40
    9  A    between atoms: C_19  and  N_45
   10  A    between atoms: C_22  and  C_35
   11  A    between atoms: C_22  and  N_46
   12  A    between atoms: C_24  and  C_44
   13  A    between atoms: C_27  and  C_31
   14  A    between atoms: C_27  and  C_54
   15  A    between atoms: C_28  and  C_49
   16  A    between atoms: C_31  and  C_44
   17  A    between atoms: C_33  and  C_49
   18  A    between atoms: C_33  and  C_52
   19  A    between atoms: C_34  and  C_52
   20  A    between atoms: C_35  and  C_43
   21  A    between atoms: C_36  and  C_52
   22  A    between atoms: C_43  and  C_51
   23  A    between atoms: C_51  and  C_54
                            x       y       z     vdW  Elec       q    Type
                         _______ _______ _______ _____ _____    ______ ____

>  <TORSDO>
F 23

$$$$
=
 OpenBabel11052419363D

 55 59  0  0  1  0  0  0  0  0999 V2000
  190.5340  173.4100  141.1790 C   0  0  2  0  0  3  0  0  0  0  0  0
  190.2660  171.9510  141.5270 C   0  0  0  0  0  3  0  0  0  0  0  0
  190.8680  171.6320  142.8820 C   0  0  0  0  0  2  0  0  0  0  0  0
  189.3780  171.8730  142.7510 C   0  0  0  0  0  2  0  0  0  0  0  0
  189.2740  174.0840  140.6370 C   0  0  0  0  0  2  0  0  0  0  0  0
  188.7880  175.2090  141.5440 C   0  0  0  0  0  2  0  0  0  0  0  0
  187.7950  176.0920  140.8120 C   0  0  0  0  0  2  0  0  0  0  0  0
  186.6920  176.5340  141.7570 C   0  0  0  0  0  2  0  0  0  0  0  0
  187.2870  177.0200  143.0630 C   0  0  0  0  0  2  0  0  0  0  0  0
  186.2590  176.8510  144.1610 C   0  0  0  0  0  2  0  0  0  0  0  0
  186.8700  177.1490  145.5200 C   0  0  1  0  0  3  0  0  0  0  0  0
  188.3170  176.9790  145.4620 N   0  0  0  0  0  2  0  0  0  0  0  0
  190.6600  176.7000  147.4690 C   0  0  0  0  0  0  0  0  0  0  0  0
  189.0050  174.5830  144.3060 F   0  0  0  0  0  0  0  0  0  0  0  0
  188.6690  175.8410  146.3050 C   0  0  1  0  0  3  0  0  0  0  0  0
  193.5900  176.3880  145.1010 C   0  0  0  0  0  3  0  0  0  0  0  0
  189.6710  173.6850  146.2560 F   0  0  0  0  0  0  0  0  0  0  0  0
  189.5750  174.8640  145.5370 C   0  0  0  0  0  0  0  0  0  0  0  0
  191.1380  177.3630  148.4280 O   0  0  0  0  0  0  0  0  0  0  0  0
  193.0700  175.5020  144.1540 C   0  0  0  0  0  3  0  0  0  0  0  0
  191.7670  175.0200  144.2850 C   0  0  0  0  0  3  0  0  0  0  0  0
  191.4980  176.3120  146.3240 C   0  0  0  0  0  0  0  0  0  0  0  0
  190.9630  175.4360  145.3580 C   0  0  0  0  0  0  0  0  0  0  0  0
  192.8070  176.7900  146.1870 C   0  0  0  0  0  3  0  0  0  0  0  0
  189.3180  176.3120  147.4880 O   0  0  0  0  0  0  0  0  0  0  0  0
  186.4980  178.5590  145.9970 C   0  0  0  0  0  2  0  0  0  0  0  0
  184.1350  178.2540  146.6850 C   0  0  0  0  0  1  0  0  0  0  0  0
  185.5330  178.5720  147.1750 C   0  0  1  0  0  3  0  0  0  0  0  0
  185.9160  177.6320  148.1320 O   0  0  0  0  0  1  0  0  0  0  0  0
  191.7090  173.5230  140.2110 C   0  0  0  0  0  2  0  0  0  0  0  0
  192.9560  174.0070  140.9380 C   0  0  0  0  0  2  0  0  0  0  0  0
  194.2040  173.7580  140.1070 C   0  0  0  0  0  2  0  0  0  0  0  0
  195.3360  174.6490  140.5850 C   0  0  0  0  0  2  0  0  0  0  0  0
  196.6150  173.8400  140.8030 C   0  0  1  0  0  3  0  0  0  0  0  0
  197.7620  172.6850  138.8700 C   0  0  0  0  0  2  0  0  0  0  0  0
  197.4850  174.5340  137.3860 C   0  0  1  0  0  3  0  0  0  0  0  0
  197.6150  173.9800  139.6470 C   0  0  1  0  0  3  0  0  0  0  0  0
  197.2330  175.0490  138.7270 N   0  0  0  0  0  2  0  0  0  0  0  0
  197.4160  173.0260  137.4450 C   0  0  0  0  0  2  0  0  0  0  0  0
  196.4960  175.0970  136.3620 C   0  0  0  0  0  3  0  0  0  0  0  0
  195.1290  175.3780  136.9650 C   0  0  0  0  0  1  0  0  0  0  0  0
  197.0470  176.3600  135.7310 C   0  0  0  0  0  1  0  0  0  0  0  0
  197.2920  174.2680  142.0990 C   0  0  0  0  0  2  0  0  0  0  0  0
  197.0170  173.0020  146.1570 C   0  0  0  0  0  2  0  0  0  0  0  0
  196.2100  174.2360  145.7760 C   0  0  0  0  0  2  0  0  0  0  0  0
  197.1350  171.5110  142.8240 O   0  0  0  0  0  0  0  0  0  0  0  0
  196.5250  173.7820  143.3240 C   0  0  2  0  0  3  0  0  0  0  0  0
  196.7510  174.7760  144.4620 C   0  0  0  0  0  2  0  0  0  0  0  0
  196.9180  172.3740  143.7200 C   0  0  0  0  0  0  0  0  0  0  0  0
  196.9320  171.9900  145.1070 N   0  0  0  0  0  0  0  0  0  0  0  0
  197.0900  170.5870  145.4820 C   0  0  0  0  0  2  0  0  0  0  0  0
  195.8330  169.0770  146.9830 C   0  0  0  0  0  1  0  0  0  0  0  0
  195.4120  168.9570  144.5620 C   0  0  0  0  0  1  0  0  0  0  0  0
  194.6350  170.9120  145.8650 C   0  0  0  0  0  1  0  0  0  0  0  0
  195.7470  169.8910  145.7080 C   0  0  0  0  0  0  0  0  0  0  0  0
  1 30  1  6  0  0  0
  1  2  1  0  0  0  0
  2  4  1  0  0  0  0
  2  3  1  0  0  0  0
  4  3  1  0  0  0  0
  5  1  1  0  0  0  0
  5  6  1  0  0  0  0
  7  6  1  0  0  0  0
  7  8  1  0  0  0  0
  8  9  1  0  0  0  0
  9 10  1  0  0  0  0
 11 10  1  6  0  0  0
 11 26  1  0  0  0  0
 12 11  1  0  0  0  0
 13 25  1  0  0  0  0
 13 19  2  0  0  0  0
 14 18  1  0  0  0  0
 15 12  1  6  0  0  0
 15 25  1  0  0  0  0
 16 24  1  0  0  0  0
 18 17  1  0  0  0  0
 18 15  1  0  0  0  0
 20 21  1  0  0  0  0
 20 16  2  0  0  0  0
 21 23  2  0  0  0  0
 22 13  1  0  0  0  0
 23 18  1  0  0  0  0
 23 22  1  0  0  0  0
 24 22  2  0  0  0  0
 26 28  1  0  0  0  0
 28 27  1  6  0  0  0
 28 29  1  0  0  0  0
 30 31  1  0  0  0  0
 32 33  1  0  0  0  0
 32 31  1  0  0  0  0
 34 33  1  6  0  0  0
 34 43  1  0  0  0  0
 35 37  1  0  0  0  0
 36 40  1  6  0  0  0
 36 39  1  0  0  0  0
 36 38  1  0  0  0  0
 37 34  1  1  0  0  0
 38 37  1  0  0  0  0
 39 35  1  0  0  0  0
 40 41  1  0  0  0  0
 42 40  1  0  0  0  0
 45 44  1  0  0  0  0
 46 49  2  0  0  0  0
 47 43  1  6  0  0  0
 47 49  1  0  0  0  0
 47 48  1  0  0  0  0
 48 45  1  0  0  0  0
 49 50  1  0  0  0  0
 50 51  1  0  0  0  0
 50 44  1  0  0  0  0
 51 55  1  0  0  0  0
 53 55  1  0  0  0  0
 55 54  1  0  0  0  0
 55 52  1  0  0  0  0
M  END
>  <MODEL>
3

>  <REMARK>
 VINA RESULT:      -5.7      2.923      9.406
  Name = 
  23 active torsions:
  status: ('A' for Active; 'I' for Inactive)
    1  A    between atoms: C_2  and  C_28
    2  A    between atoms: C_2  and  C_44
    3  A    between atoms: C_6  and  N_46
    4  A    between atoms: C_8  and  C_20
    5  A    between atoms: C_8  and  C_22
    6  A    between atoms: C_10  and  C_32
    7  A    between atoms: C_17  and  C_36
    8  A    between atoms: C_19  and  C_40
    9  A    between atoms: C_19  and  N_45
   10  A    between atoms: C_22  and  C_35
   11  A    between atoms: C_22  and  N_46
   12  A    between atoms: C_24  and  C_44
   13  A    between atoms: C_27  and  C_31
   14  A    between atoms: C_27  and  C_54
   15  A    between atoms: C_28  and  C_49
   16  A    between atoms: C_31  and  C_44
   17  A    between atoms: C_33  and  C_49
   18  A    between atoms: C_33  and  C_52
   19  A    between atoms: C_34  and  C_52
   20  A    between atoms: C_35  and  C_43
   21  A    between atoms: C_36  and  C_52
   22  A    between atoms: C_43  and  C_51
   23  A    between atoms: C_51  and  C_54
                            x       y       z     vdW  Elec       q    Type
                         _______ _______ _______ _____ _____    ______ ____

>  <TORSDO>
F 23

$$$$
=
 OpenBabel11052419363D

 55 59  0  0  1  0  0  0  0  0999 V2000
  191.6780  176.1160  145.4930 C   0  0  2  0  0  3  0  0  0  0  0  0
  190.6350  176.4130  146.5620 C   0  0  0  0  0  3  0  0  0  0  0  0
  190.5700  175.2600  147.5450 C   0  0  0  0  0  2  0  0  0  0  0  0
  191.3080  176.5320  147.9140 C   0  0  0  0  0  2  0  0  0  0  0  0
  193.0860  176.4300  145.9990 C   0  0  0  0  0  2  0  0  0  0  0  0
  194.0540  175.2790  145.7540 C   0  0  0  0  0  2  0  0  0  0  0  0
  195.3010  175.7740  145.0430 C   0  0  0  0  0  2  0  0  0  0  0  0
  196.3250  174.6580  144.9450 C   0  0  0  0  0  2  0  0  0  0  0  0
  196.0230  173.5810  145.9660 C   0  0  0  0  0  2  0  0  0  0  0  0
  197.0930  172.5120  145.8790 C   0  0  0  0  0  2  0  0  0  0  0  0
  196.5090  171.2070  145.3630 C   0  0  1  0  0  3  0  0  0  0  0  0
  196.4720  171.2210  143.9060 N   0  0  0  0  0  2  0  0  0  0  0  0
  195.9370  169.5250  141.3700 C   0  0  0  0  0  0  0  0  0  0  0  0
  194.2450  172.7420  143.3740 F   0  0  0  0  0  0  0  0  0  0  0  0
  195.2350  170.5730  143.4830 C   0  0  1  0  0  3  0  0  0  0  0  0
  195.9350  172.2080  138.7080 C   0  0  0  0  0  3  0  0  0  0  0  0
  193.1030  171.0040  142.5200 F   0  0  0  0  0  0  0  0  0  0  0  0
  194.3650  171.5520  142.6750 C   0  0  0  0  0  0  0  0  0  0  0  0
  196.4710  168.5440  140.7850 O   0  0  0  0  0  0  0  0  0  0  0  0
  195.1780  173.2020  139.3360 C   0  0  0  0  0  3  0  0  0  0  0  0
  194.6830  172.9960  140.6250 C   0  0  0  0  0  3  0  0  0  0  0  0
  195.7000  170.7920  140.6620 C   0  0  0  0  0  0  0  0  0  0  0  0
  194.9570  171.8010  141.3060 C   0  0  0  0  0  0  0  0  0  0  0  0
  196.1920  171.0040  139.3680 C   0  0  0  0  0  3  0  0  0  0  0  0
  195.5490  169.4140  142.7080 O   0  0  0  0  0  0  0  0  0  0  0  0
  197.3030  170.0030  145.8860 C   0  0  0  0  0  2  0  0  0  0  0  0
  197.1090  168.5330  147.8730 C   0  0  0  0  0  1  0  0  0  0  0  0
  196.4410  168.9570  146.5810 C   0  0  1  0  0  3  0  0  0  0  0  0
  195.1750  169.4710  146.8580 O   0  0  0  0  0  1  0  0  0  0  0  0
  191.3510  176.8610  144.2020 C   0  0  0  0  0  2  0  0  0  0  0  0
  191.8150  176.0640  142.9920 C   0  0  0  0  0  2  0  0  0  0  0  0
  191.4790  174.5890  143.1480 C   0  0  0  0  0  2  0  0  0  0  0  0
  191.3500  173.9360  141.7830 C   0  0  0  0  0  2  0  0  0  0  0  0
  189.8820  173.7950  141.3800 C   0  0  1  0  0  3  0  0  0  0  0  0
  189.3160  172.6210  139.2160 C   0  0  0  0  0  2  0  0  0  0  0  0
  190.8220  170.8110  139.6100 C   0  0  1  0  0  3  0  0  0  0  0  0
  189.5760  172.4530  140.7010 C   0  0  1  0  0  3  0  0  0  0  0  0
  190.6570  171.4890  140.8910 N   0  0  0  0  0  2  0  0  0  0  0  0
  190.3190  171.7350  138.5260 C   0  0  0  0  0  2  0  0  0  0  0  0
  192.2760  170.4010  139.3620 C   0  0  0  0  0  3  0  0  0  0  0  0
  192.5590  168.9690  139.7880 C   0  0  0  0  0  1  0  0  0  0  0  0
  192.6340  170.5800  137.9010 C   0  0  0  0  0  1  0  0  0  0  0  0
  188.9860  173.9470  142.6030 C   0  0  0  0  0  2  0  0  0  0  0  0
  187.5560  177.8860  141.8390 C   0  0  0  0  0  2  0  0  0  0  0  0
  187.1900  176.8220  140.8130 C   0  0  0  0  0  2  0  0  0  0  0  0
  187.9790  175.6280  144.6790 O   0  0  0  0  0  0  0  0  0  0  0  0
  187.8820  174.9730  142.3690 C   0  0  2  0  0  3  0  0  0  0  0  0
  188.1130  175.6300  141.0090 C   0  0  0  0  0  2  0  0  0  0  0  0
  187.8090  175.9950  143.4830 C   0  0  0  0  0  0  0  0  0  0  0  0
  187.4360  177.3550  143.1940 N   0  0  0  0  0  0  0  0  0  0  0  0
  187.1460  178.2870  144.2810 C   0  0  0  0  0  2  0  0  0  0  0  0
  185.3020  177.4120  145.6760 C   0  0  0  0  0  1  0  0  0  0  0  0
  184.8240  178.0520  143.3480 C   0  0  0  0  0  1  0  0  0  0  0  0
  185.2930  179.7900  145.0450 C   0  0  0  0  0  1  0  0  0  0  0  0
  185.6490  178.3930  144.5740 C   0  0  0  0  0  0  0  0  0  0  0  0
  1 30  1  6  0  0  0
  1  5  1  0  0  0  0
  1  2  1  0  0  0  0
  2  3  1  0  0  0  0
  2  4  1  0  0  0  0
  3  4  1  0  0  0  0
  6  5  1  0  0  0  0
  7  6  1  0  0  0  0
  8  7  1  0  0  0  0
  8  9  1  0  0  0  0
 10  9  1  0  0  0  0
 11 10  1  6  0  0  0
 11 26  1  0  0  0  0
 12 11  1  0  0  0  0
 13 25  1  0  0  0  0
 15 12  1  6  0  0  0
 16 20  2  0  0  0  0
 16 24  1  0  0  0  0
 17 18  1  0  0  0  0
 18 14  1  0  0  0  0
 18 15  1  0  0  0  0
 19 13  2  0  0  0  0
 20 21  1  0  0  0  0
 21 23  2  0  0  0  0
 22 23  1  0  0  0  0
 22 13  1  0  0  0  0
 23 18  1  0  0  0  0
 24 22  2  0  0  0  0
 25 15  1  0  0  0  0
 26 28  1  0  0  0  0
 28 29  1  0  0  0  0
 28 27  1  1  0  0  0
 31 32  1  0  0  0  0
 31 30  1  0  0  0  0
 33 32  1  0  0  0  0
 34 33  1  1  0  0  0
 34 43  1  0  0  0  0
 35 37  1  0  0  0  0
 36 40  1  6  0  0  0
 36 38  1  0  0  0  0
 37 38  1  0  0  0  0
 37 34  1  6  0  0  0
 39 35  1  0  0  0  0
 39 36  1  0  0  0  0
 40 41  1  0  0  0  0
 42 40  1  0  0  0  0
 44 50  1  0  0  0  0
 45 48  1  0  0  0  0
 45 44  1  0  0  0  0
 47 43  1  1  0  0  0
 47 49  1  0  0  0  0
 48 47  1  0  0  0  0
 49 46  2  0  0  0  0
 50 49  1  0  0  0  0
 50 51  1  0  0  0  0
 51 55  1  0  0  0  0
 53 55  1  0  0  0  0
 55 54  1  0  0  0  0
 55 52  1  0  0  0  0
M  END
>  <MODEL>
4

>  <REMARK>
 VINA RESULT:      -5.7      2.765      6.603
  Name = 
  23 active torsions:
  status: ('A' for Active; 'I' for Inactive)
    1  A    between atoms: C_2  and  C_28
    2  A    between atoms: C_2  and  C_44
    3  A    between atoms: C_6  and  N_46
    4  A    between atoms: C_8  and  C_20
    5  A    between atoms: C_8  and  C_22
    6  A    between atoms: C_10  and  C_32
    7  A    between atoms: C_17  and  C_36
    8  A    between atoms: C_19  and  C_40
    9  A    between atoms: C_19  and  N_45
   10  A    between atoms: C_22  and  C_35
   11  A    between atoms: C_22  and  N_46
   12  A    between atoms: C_24  and  C_44
   13  A    between atoms: C_27  and  C_31
   14  A    between atoms: C_27  and  C_54
   15  A    between atoms: C_28  and  C_49
   16  A    between atoms: C_31  and  C_44
   17  A    between atoms: C_33  and  C_49
   18  A    between atoms: C_33  and  C_52
   19  A    between atoms: C_34  and  C_52
   20  A    between atoms: C_35  and  C_43
   21  A    between atoms: C_36  and  C_52
   22  A    between atoms: C_43  and  C_51
   23  A    between atoms: C_51  and  C_54
                            x       y       z     vdW  Elec       q    Type
                         _______ _______ _______ _____ _____    ______ ____

>  <TORSDO>
F 23

$$$$
=
 OpenBabel11052419363D

 55 59  0  0  1  0  0  0  0  0999 V2000
  188.2070  177.2610  143.2390 C   0  0  2  0  0  3  0  0  0  0  0  0
  187.9770  177.6500  144.6930 C   0  0  0  0  0  3  0  0  0  0  0  0
  186.6120  178.2940  144.8380 C   0  0  0  0  0  2  0  0  0  0  0  0
  186.8190  176.8530  145.2580 C   0  0  0  0  0  2  0  0  0  0  0  0
  188.0950  175.7480  143.0510 C   0  0  0  0  0  2  0  0  0  0  0  0
  188.6520  175.2930  141.7070 C   0  0  0  0  0  2  0  0  0  0  0  0
  188.7310  173.7780  141.6500 C   0  0  0  0  0  2  0  0  0  0  0  0
  190.1560  173.3190  141.9020 C   0  0  0  0  0  2  0  0  0  0  0  0
  191.0750  173.8530  140.8230 C   0  0  0  0  0  2  0  0  0  0  0  0
  190.7540  173.1550  139.5180 C   0  0  0  0  0  2  0  0  0  0  0  0
  191.7780  173.5090  138.4520 C   0  0  1  0  0  3  0  0  0  0  0  0
  193.1190  173.1890  138.9270 N   0  0  0  0  0  2  0  0  0  0  0  0
  195.8400  172.0100  138.0310 C   0  0  0  0  0  0  0  0  0  0  0  0
  194.3110  175.6210  139.3910 F   0  0  0  0  0  0  0  0  0  0  0  0
  194.0750  173.7240  137.9630 C   0  0  1  0  0  3  0  0  0  0  0  0
  197.9410  172.6550  141.1060 C   0  0  0  0  0  3  0  0  0  0  0  0
  195.7510  175.3880  137.6800 F   0  0  0  0  0  0  0  0  0  0  0  0
  195.0400  174.7040  138.6520 C   0  0  0  0  0  0  0  0  0  0  0  0
  196.2750  170.9020  137.6160 O   0  0  0  0  0  0  0  0  0  0  0  0
  197.5540  173.9610  141.4200 C   0  0  0  0  0  3  0  0  0  0  0  0
  196.6050  174.6190  140.6360 C   0  0  0  0  0  3  0  0  0  0  0  0
  196.4270  172.6600  139.2120 C   0  0  0  0  0  0  0  0  0  0  0  0
  196.0180  173.9690  139.5400 C   0  0  0  0  0  0  0  0  0  0  0  0
  197.3820  172.0070  140.0010 C   0  0  0  0  0  3  0  0  0  0  0  0
  194.7920  172.6450  137.3590 O   0  0  0  0  0  0  0  0  0  0  0  0
  191.4720  172.7910  137.1320 C   0  0  0  0  0  2  0  0  0  0  0  0
  189.4530  173.9200  136.2360 C   0  0  0  0  0  1  0  0  0  0  0  0
  189.9830  172.6390  136.8490 C   0  0  1  0  0  3  0  0  0  0  0  0
  189.7560  171.5760  135.9750 O   0  0  0  0  0  1  0  0  0  0  0  0
  189.5450  177.8050  142.7430 C   0  0  0  0  0  2  0  0  0  0  0  0
  190.6630  177.4340  143.7070 C   0  0  0  0  0  2  0  0  0  0  0  0
  192.0070  177.4020  142.9970 C   0  0  0  0  0  2  0  0  0  0  0  0
  192.6890  176.0660  143.2320 C   0  0  0  0  0  2  0  0  0  0  0  0
  193.7510  176.1780  144.3250 C   0  0  1  0  0  3  0  0  0  0  0  0
  192.9520  176.6390  146.6780 C   0  0  0  0  0  2  0  0  0  0  0  0
  191.2620  174.9540  146.6120 C   0  0  1  0  0  3  0  0  0  0  0  0
  193.3010  175.5690  145.6600 C   0  0  1  0  0  3  0  0  0  0  0  0
  192.1540  174.6790  145.4910 N   0  0  0  0  0  2  0  0  0  0  0  0
  191.5280  176.3640  147.0840 C   0  0  0  0  0  2  0  0  0  0  0  0
  189.7910  174.7620  146.2320 C   0  0  0  0  0  3  0  0  0  0  0  0
  189.5620  173.5130  145.3970 C   0  0  0  0  0  1  0  0  0  0  0  0
  188.9260  174.7130  147.4760 C   0  0  0  0  0  1  0  0  0  0  0  0
  195.0380  175.4960  143.8790 C   0  0  0  0  0  2  0  0  0  0  0  0
  197.3290  172.0450  144.8710 C   0  0  0  0  0  2  0  0  0  0  0  0
  197.1580  173.0830  145.9720 C   0  0  0  0  0  2  0  0  0  0  0  0
  194.3000  172.8790  143.0070 O   0  0  0  0  0  0  0  0  0  0  0  0
  195.3260  174.2430  144.7000 C   0  0  2  0  0  3  0  0  0  0  0  0
  196.7090  174.3880  145.3330 C   0  0  0  0  0  2  0  0  0  0  0  0
  195.2160  172.9820  143.8700 C   0  0  0  0  0  0  0  0  0  0  0  0
  196.0770  171.8600  144.1410 N   0  0  0  0  0  0  0  0  0  0  0  0
  195.8320  170.5700  143.5020 C   0  0  0  0  0  2  0  0  0  0  0  0
  194.4990  168.4990  143.7170 C   0  0  0  0  0  1  0  0  0  0  0  0
  194.4090  170.1570  145.5340 C   0  0  0  0  0  1  0  0  0  0  0  0
  196.4560  168.8120  145.1750 C   0  0  0  0  0  1  0  0  0  0  0  0
  195.3060  169.5240  144.4870 C   0  0  0  0  0  0  0  0  0  0  0  0
  1 30  1  1  0  0  0
  1  2  1  0  0  0  0
  2  3  1  0  0  0  0
  2  4  1  0  0  0  0
  3  4  1  0  0  0  0
  5  1  1  0  0  0  0
  6  5  1  0  0  0  0
  7  6  1  0  0  0  0
  7  8  1  0  0  0  0
  9  8  1  0  0  0  0
 10  9  1  0  0  0  0
 11 26  1  6  0  0  0
 11 12  1  0  0  0  0
 11 10  1  0  0  0  0
 13 22  1  0  0  0  0
 15 18  1  0  0  0  0
 15 12  1  1  0  0  0
 16 20  1  0  0  0  0
 17 18  1  0  0  0  0
 18 14  1  0  0  0  0
 18 23  1  0  0  0  0
 19 13  2  0  0  0  0
 21 20  2  0  0  0  0
 22 23  2  0  0  0  0
 22 24  1  0  0  0  0
 23 21  1  0  0  0  0
 24 16  2  0  0  0  0
 25 15  1  0  0  0  0
 25 13  1  0  0  0  0
 28 27  1  6  0  0  0
 28 26  1  0  0  0  0
 29 28  1  0  0  0  0
 30 31  1  0  0  0  0
 32 33  1  0  0  0  0
 32 31  1  0  0  0  0
 34 33  1  6  0  0  0
 35 39  1  0  0  0  0
 36 40  1  6  0  0  0
 36 39  1  0  0  0  0
 37 34  1  6  0  0  0
 37 35  1  0  0  0  0
 38 37  1  0  0  0  0
 38 36  1  0  0  0  0
 40 42  1  0  0  0  0
 41 40  1  0  0  0  0
 43 34  1  0  0  0  0
 44 45  1  0  0  0  0
 46 49  2  0  0  0  0
 47 43  1  6  0  0  0
 47 48  1  0  0  0  0
 48 45  1  0  0  0  0
 49 50  1  0  0  0  0
 49 47  1  0  0  0  0
 50 44  1  0  0  0  0
 51 50  1  0  0  0  0
 51 55  1  0  0  0  0
 52 55  1  0  0  0  0
 55 54  1  0  0  0  0
 55 53  1  0  0  0  0
M  END
>  <MODEL>
5

>  <REMARK>
 VINA RESULT:      -5.6      2.369      7.855
  Name = 
  23 active torsions:
  status: ('A' for Active; 'I' for Inactive)
    1  A    between atoms: C_2  and  C_28
    2  A    between atoms: C_2  and  C_44
    3  A    between atoms: C_6  and  N_46
    4  A    between atoms: C_8  and  C_20
    5  A    between atoms: C_8  and  C_22
    6  A    between atoms: C_10  and  C_32
    7  A    between atoms: C_17  and  C_36
    8  A    between atoms: C_19  and  C_40
    9  A    between atoms: C_19  and  N_45
   10  A    between atoms: C_22  and  C_35
   11  A    between atoms: C_22  and  N_46
   12  A    between atoms: C_24  and  C_44
   13  A    between atoms: C_27  and  C_31
   14  A    between atoms: C_27  and  C_54
   15  A    between atoms: C_28  and  C_49
   16  A    between atoms: C_31  and  C_44
   17  A    between atoms: C_33  and  C_49
   18  A    between atoms: C_33  and  C_52
   19  A    between atoms: C_34  and  C_52
   20  A    between atoms: C_35  and  C_43
   21  A    between atoms: C_36  and  C_52
   22  A    between atoms: C_43  and  C_51
   23  A    between atoms: C_51  and  C_54
                            x       y       z     vdW  Elec       q    Type
                         _______ _______ _______ _____ _____    ______ ____

>  <TORSDO>
F 23

$$$$
=
 OpenBabel11052419363D

 55 59  0  0  1  0  0  0  0  0999 V2000
  190.1560  174.6980  146.4690 C   0  0  2  0  0  3  0  0  0  0  0  0
  191.0760  175.8920  146.6800 C   0  0  0  0  0  3  0  0  0  0  0  0
  191.6500  175.8510  148.0830 C   0  0  0  0  0  2  0  0  0  0  0  0
  192.4950  175.4110  146.9050 C   0  0  0  0  0  2  0  0  0  0  0  0
  190.6630  173.8110  145.3310 C   0  0  0  0  0  2  0  0  0  0  0  0
  189.6280  172.7750  144.9060 C   0  0  0  0  0  2  0  0  0  0  0  0
  190.1350  171.9710  143.7220 C   0  0  0  0  0  2  0  0  0  0  0  0
  191.5050  171.3940  144.0300 C   0  0  0  0  0  2  0  0  0  0  0  0
  192.3550  171.3700  142.7770 C   0  0  0  0  0  2  0  0  0  0  0  0
  193.0170  170.0130  142.6610 C   0  0  0  0  0  2  0  0  0  0  0  0
  193.3690  169.7080  141.2140 C   0  0  1  0  0  3  0  0  0  0  0  0
  192.7920  170.7210  140.3390 N   0  0  0  0  0  2  0  0  0  0  0  0
  191.5910  171.8180  137.7030 C   0  0  0  0  0  0  0  0  0  0  0  0
  190.3140  169.8110  141.1030 F   0  0  0  0  0  0  0  0  0  0  0  0
  191.9380  170.0420  139.3700 C   0  0  1  0  0  3  0  0  0  0  0  0
  188.9320  174.1430  139.0460 C   0  0  0  0  0  3  0  0  0  0  0  0
  189.7070  169.3060  138.9980 F   0  0  0  0  0  0  0  0  0  0  0  0
  190.4590  170.1720  139.7740 C   0  0  0  0  0  0  0  0  0  0  0  0
  192.0090  172.4250  136.6800 O   0  0  0  0  0  0  0  0  0  0  0  0
  188.3790  173.3540  140.0590 C   0  0  0  0  0  3  0  0  0  0  0  0
  188.8820  172.0760  140.3050 C   0  0  0  0  0  3  0  0  0  0  0  0
  190.4970  172.3700  138.5160 C   0  0  0  0  0  0  0  0  0  0  0  0
  189.9580  171.5810  139.5520 C   0  0  0  0  0  0  0  0  0  0  0  0
  189.9860  173.6510  138.2730 C   0  0  0  0  0  3  0  0  0  0  0  0
  192.1610  170.5970  138.0720 O   0  0  0  0  0  0  0  0  0  0  0  0
  194.8890  169.6140  141.0240 C   0  0  0  0  0  2  0  0  0  0  0  0
  196.6640  170.9450  142.1340 C   0  0  0  0  0  1  0  0  0  0  0  0
  195.5950  170.9640  141.0600 C   0  0  1  0  0  3  0  0  0  0  0  0
  196.1790  171.2440  139.8250 O   0  0  0  0  0  1  0  0  0  0  0  0
  188.7190  175.1600  146.2410 C   0  0  0  0  0  2  0  0  0  0  0  0
  188.5640  176.6260  146.6200 C   0  0  0  0  0  2  0  0  0  0  0  0
  187.7720  177.3810  145.5650 C   0  0  0  0  0  2  0  0  0  0  0  0
  187.5040  176.4820  144.3710 C   0  0  0  0  0  2  0  0  0  0  0  0
  188.3310  176.9190  143.1610 C   0  0  1  0  0  3  0  0  0  0  0  0
  187.5280  177.5560  140.8510 C   0  0  0  0  0  2  0  0  0  0  0  0
  185.4290  178.3870  141.6290 C   0  0  1  0  0  3  0  0  0  0  0  0
  187.6230  177.9790  142.3050 C   0  0  1  0  0  3  0  0  0  0  0  0
  186.2830  178.2740  142.8060 N   0  0  0  0  0  2  0  0  0  0  0  0
  186.0590  177.5810  140.5180 C   0  0  0  0  0  2  0  0  0  0  0  0
  183.9990  177.9180  141.9130 C   0  0  0  0  0  3  0  0  0  0  0  0
  183.4180  178.5460  143.1700 C   0  0  0  0  0  1  0  0  0  0  0  0
  183.1000  178.2170  140.7290 C   0  0  0  0  0  1  0  0  0  0  0  0
  189.6770  177.4670  143.6160 C   0  0  0  0  0  2  0  0  0  0  0  0
  192.7600  174.6890  142.6550 C   0  0  0  0  0  2  0  0  0  0  0  0
  191.6620  174.8680  141.6160 C   0  0  0  0  0  2  0  0  0  0  0  0
  192.4210  177.9730  144.2190 O   0  0  0  0  0  0  0  0  0  0  0  0
  190.8200  176.9480  142.7490 C   0  0  2  0  0  3  0  0  0  0  0  0
  190.4710  175.5330  142.2870 C   0  0  0  0  0  2  0  0  0  0  0  0
  192.1480  176.9910  143.4740 C   0  0  0  0  0  0  0  0  0  0  0  0
  193.1410  175.9790  143.2260 N   0  0  0  0  0  0  0  0  0  0  0  0
  194.4980  176.1330  143.7440 C   0  0  0  0  0  2  0  0  0  0  0  0
  196.8760  176.5040  143.1790 C   0  0  0  0  0  1  0  0  0  0  0  0
  195.1870  176.7480  141.4060 C   0  0  0  0  0  1  0  0  0  0  0  0
  195.7400  174.5070  142.2980 C   0  0  0  0  0  1  0  0  0  0  0  0
  195.5590  175.9710  142.6540 C   0  0  0  0  0  0  0  0  0  0  0  0
  1  5  1  6  0  0  0
  1  2  1  0  0  0  0
  2  4  1  0  0  0  0
  2  3  1  0  0  0  0
  4  3  1  0  0  0  0
  6  5  1  0  0  0  0
  7  8  1  0  0  0  0
  7  6  1  0  0  0  0
  9  8  1  0  0  0  0
 10  9  1  0  0  0  0
 11 26  1  1  0  0  0
 11 10  1  0  0  0  0
 12 11  1  0  0  0  0
 13 25  1  0  0  0  0
 13 22  1  0  0  0  0
 15 18  1  0  0  0  0
 15 12  1  1  0  0  0
 16 20  1  0  0  0  0
 17 18  1  0  0  0  0
 18 14  1  0  0  0  0
 19 13  2  0  0  0  0
 20 21  2  0  0  0  0
 22 23  2  0  0  0  0
 23 18  1  0  0  0  0
 23 21  1  0  0  0  0
 24 22  1  0  0  0  0
 24 16  2  0  0  0  0
 25 15  1  0  0  0  0
 26 28  1  0  0  0  0
 28 27  1  1  0  0  0
 29 28  1  0  0  0  0
 30  1  1  0  0  0  0
 30 31  1  0  0  0  0
 32 31  1  0  0  0  0
 33 32  1  0  0  0  0
 34 43  1  1  0  0  0
 34 33  1  0  0  0  0
 35 37  1  0  0  0  0
 36 40  1  1  0  0  0
 36 38  1  0  0  0  0
 37 38  1  0  0  0  0
 37 34  1  1  0  0  0
 39 35  1  0  0  0  0
 39 36  1  0  0  0  0
 40 41  1  0  0  0  0
 42 40  1  0  0  0  0
 44 50  1  0  0  0  0
 45 48  1  0  0  0  0
 45 44  1  0  0  0  0
 47 49  1  0  0  0  0
 47 43  1  1  0  0  0
 48 47  1  0  0  0  0
 49 46  2  0  0  0  0
 50 49  1  0  0  0  0
 50 51  1  0  0  0  0
 53 55  1  0  0  0  0
 54 55  1  0  0  0  0
 55 52  1  0  0  0  0
 55 51  1  0  0  0  0
M  END
>  <MODEL>
6

>  <REMARK>
 VINA RESULT:      -5.5      2.402      6.808
  Name = 
  23 active torsions:
  status: ('A' for Active; 'I' for Inactive)
    1  A    between atoms: C_2  and  C_28
    2  A    between atoms: C_2  and  C_44
    3  A    between atoms: C_6  and  N_46
    4  A    between atoms: C_8  and  C_20
    5  A    between atoms: C_8  and  C_22
    6  A    between atoms: C_10  and  C_32
    7  A    between atoms: C_17  and  C_36
    8  A    between atoms: C_19  and  C_40
    9  A    between atoms: C_19  and  N_45
   10  A    between atoms: C_22  and  C_35
   11  A    between atoms: C_22  and  N_46
   12  A    between atoms: C_24  and  C_44
   13  A    between atoms: C_27  and  C_31
   14  A    between atoms: C_27  and  C_54
   15  A    between atoms: C_28  and  C_49
   16  A    between atoms: C_31  and  C_44
   17  A    between atoms: C_33  and  C_49
   18  A    between atoms: C_33  and  C_52
   19  A    between atoms: C_34  and  C_52
   20  A    between atoms: C_35  and  C_43
   21  A    between atoms: C_36  and  C_52
   22  A    between atoms: C_43  and  C_51
   23  A    between atoms: C_51  and  C_54
                            x       y       z     vdW  Elec       q    Type
                         _______ _______ _______ _____ _____    ______ ____

>  <TORSDO>
F 23

$$$$
=
 OpenBabel11052419363D

 55 59  0  0  1  0  0  0  0  0999 V2000
  189.7700  173.3750  141.1660 C   0  0  2  0  0  3  0  0  0  0  0  0
  189.5160  171.9680  141.6910 C   0  0  0  0  0  3  0  0  0  0  0  0
  190.1400  171.8170  143.0650 C   0  0  0  0  0  2  0  0  0  0  0  0
  188.6470  172.0340  142.9290 C   0  0  0  0  0  2  0  0  0  0  0  0
  188.4550  174.0900  140.8580 C   0  0  0  0  0  2  0  0  0  0  0  0
  188.4700  175.5440  141.3170 C   0  0  0  0  0  2  0  0  0  0  0  0
  187.4710  176.3640  140.5210 C   0  0  0  0  0  2  0  0  0  0  0  0
  186.6500  177.2360  141.4520 C   0  0  0  0  0  2  0  0  0  0  0  0
  187.2970  177.2940  142.8210 C   0  0  0  0  0  2  0  0  0  0  0  0
  186.2800  176.8760  143.8610 C   0  0  0  0  0  2  0  0  0  0  0  0
  186.7500  177.2550  145.2560 C   0  0  1  0  0  3  0  0  0  0  0  0
  188.2010  177.1460  145.3370 N   0  0  0  0  0  2  0  0  0  0  0  0
  190.6320  176.6720  147.1990 C   0  0  0  0  0  0  0  0  0  0  0  0
  188.6450  174.7230  144.1200 F   0  0  0  0  0  0  0  0  0  0  0  0
  188.5190  175.9750  146.1470 C   0  0  1  0  0  3  0  0  0  0  0  0
  193.3870  176.1830  144.6590 C   0  0  0  0  0  3  0  0  0  0  0  0
  189.3570  173.7530  146.0190 F   0  0  0  0  0  0  0  0  0  0  0  0
  189.3050  174.9450  145.3170 C   0  0  0  0  0  0  0  0  0  0  0  0
  191.2120  177.2860  148.1340 O   0  0  0  0  0  0  0  0  0  0  0  0
  192.7500  175.3500  143.7360 C   0  0  0  0  0  3  0  0  0  0  0  0
  191.4250  174.9610  143.9400 C   0  0  0  0  0  3  0  0  0  0  0  0
  191.3700  176.2410  146.0030 C   0  0  0  0  0  0  0  0  0  0  0  0
  190.7170  175.4190  145.0620 C   0  0  0  0  0  0  0  0  0  0  0  0
  192.7010  176.6250  145.7930 C   0  0  0  0  0  3  0  0  0  0  0  0
  189.2680  176.3820  147.2940 O   0  0  0  0  0  0  0  0  0  0  0  0
  186.2780  178.6660  145.6320 C   0  0  0  0  0  2  0  0  0  0  0  0
  184.9260  177.3800  147.2650 C   0  0  0  0  0  1  0  0  0  0  0  0
  185.5440  178.7300  146.9650 C   0  0  1  0  0  3  0  0  0  0  0  0
  186.4210  179.0800  147.9910 O   0  0  0  0  0  1  0  0  0  0  0  0
  190.7020  173.3370  139.9580 C   0  0  0  0  0  2  0  0  0  0  0  0
  191.9690  174.1340  140.2340 C   0  0  0  0  0  2  0  0  0  0  0  0
  193.1440  173.5820  139.4440 C   0  0  0  0  0  2  0  0  0  0  0  0
  194.2090  174.6510  139.2770 C   0  0  0  0  0  2  0  0  0  0  0  0
  195.5010  174.0540  138.7180 C   0  0  1  0  0  3  0  0  0  0  0  0
  195.3970  173.1310  136.3680 C   0  0  0  0  0  2  0  0  0  0  0  0
  194.3400  175.0770  135.4730 C   0  0  1  0  0  3  0  0  0  0  0  0
  195.6980  174.3470  137.2240 C   0  0  1  0  0  3  0  0  0  0  0  0
  194.8670  175.4630  136.7770 N   0  0  0  0  0  2  0  0  0  0  0  0
  194.3220  173.5670  135.4080 C   0  0  0  0  0  2  0  0  0  0  0  0
  192.9480  175.6610  135.2220 C   0  0  0  0  0  3  0  0  0  0  0  0
  191.8900  175.0600  136.1340 C   0  0  0  0  0  1  0  0  0  0  0  0
  192.9690  177.1680  135.3860 C   0  0  0  0  0  1  0  0  0  0  0  0
  196.7020  174.5870  139.4890 C   0  0  0  0  0  2  0  0  0  0  0  0
  197.7450  175.4880  143.5200 C   0  0  0  0  0  2  0  0  0  0  0  0
  196.7090  176.3950  142.8700 C   0  0  0  0  0  2  0  0  0  0  0  0
  197.1160  172.5480  141.4440 O   0  0  0  0  0  0  0  0  0  0  0  0
  196.3800  174.7860  140.9670 C   0  0  2  0  0  3  0  0  0  0  0  0
  196.7840  176.2050  141.3630 C   0  0  0  0  0  2  0  0  0  0  0  0
  197.0490  173.7460  141.8400 C   0  0  0  0  0  0  0  0  0  0  0  0
  197.5020  174.0930  143.1610 N   0  0  0  0  0  0  0  0  0  0  0  0
  197.9410  173.0530  144.0880 C   0  0  0  0  0  2  0  0  0  0  0  0
  195.5160  173.1370  144.5600 C   0  0  0  0  0  1  0  0  0  0  0  0
  197.0950  173.3560  146.4360 C   0  0  0  0  0  1  0  0  0  0  0  0
  196.8060  171.1770  145.3000 C   0  0  0  0  0  1  0  0  0  0  0  0
  196.8560  172.6800  145.1000 C   0  0  0  0  0  0  0  0  0  0  0  0
  1 30  1  6  0  0  0
  1  2  1  0  0  0  0
  2  4  1  0  0  0  0
  2  3  1  0  0  0  0
  4  3  1  0  0  0  0
  5  1  1  0  0  0  0
  5  6  1  0  0  0  0
  7  6  1  0  0  0  0
  7  8  1  0  0  0  0
  8  9  1  0  0  0  0
  9 10  1  0  0  0  0
 11 10  1  6  0  0  0
 11 12  1  0  0  0  0
 11 26  1  0  0  0  0
 13 25  1  0  0  0  0
 13 19  2  0  0  0  0
 14 18  1  0  0  0  0
 15 12  1  6  0  0  0
 15 25  1  0  0  0  0
 16 24  1  0  0  0  0
 18 17  1  0  0  0  0
 18 15  1  0  0  0  0
 20 21  1  0  0  0  0
 20 16  2  0  0  0  0
 21 23  2  0  0  0  0
 22 13  1  0  0  0  0
 23 18  1  0  0  0  0
 23 22  1  0  0  0  0
 24 22  2  0  0  0  0
 26 28  1  0  0  0  0
 28 27  1  1  0  0  0
 28 29  1  0  0  0  0
 30 31  1  0  0  0  0
 32 31  1  0  0  0  0
 33 32  1  0  0  0  0
 34 33  1  1  0  0  0
 34 43  1  0  0  0  0
 35 37  1  0  0  0  0
 36 40  1  1  0  0  0
 36 38  1  0  0  0  0
 37 34  1  1  0  0  0
 38 37  1  0  0  0  0
 39 36  1  0  0  0  0
 39 35  1  0  0  0  0
 40 42  1  0  0  0  0
 40 41  1  0  0  0  0
 45 44  1  0  0  0  0
 46 49  2  0  0  0  0
 47 43  1  6  0  0  0
 47 48  1  0  0  0  0
 47 49  1  0  0  0  0
 48 45  1  0  0  0  0
 49 50  1  0  0  0  0
 50 44  1  0  0  0  0
 50 51  1  0  0  0  0
 51 55  1  0  0  0  0
 52 55  1  0  0  0  0
 55 54  1  0  0  0  0
 55 53  1  0  0  0  0
M  END
>  <MODEL>
7

>  <REMARK>
 VINA RESULT:      -5.5      2.806      9.463
  Name = 
  23 active torsions:
  status: ('A' for Active; 'I' for Inactive)
    1  A    between atoms: C_2  and  C_28
    2  A    between atoms: C_2  and  C_44
    3  A    between atoms: C_6  and  N_46
    4  A    between atoms: C_8  and  C_20
    5  A    between atoms: C_8  and  C_22
    6  A    between atoms: C_10  and  C_32
    7  A    between atoms: C_17  and  C_36
    8  A    between atoms: C_19  and  C_40
    9  A    between atoms: C_19  and  N_45
   10  A    between atoms: C_22  and  C_35
   11  A    between atoms: C_22  and  N_46
   12  A    between atoms: C_24  and  C_44
   13  A    between atoms: C_27  and  C_31
   14  A    between atoms: C_27  and  C_54
   15  A    between atoms: C_28  and  C_49
   16  A    between atoms: C_31  and  C_44
   17  A    between atoms: C_33  and  C_49
   18  A    between atoms: C_33  and  C_52
   19  A    between atoms: C_34  and  C_52
   20  A    between atoms: C_35  and  C_43
   21  A    between atoms: C_36  and  C_52
   22  A    between atoms: C_43  and  C_51
   23  A    between atoms: C_51  and  C_54
                            x       y       z     vdW  Elec       q    Type
                         _______ _______ _______ _____ _____    ______ ____

>  <TORSDO>
F 23

$$$$
=
 OpenBabel11052419363D

 55 59  0  0  1  0  0  0  0  0999 V2000
  195.9820  173.9650  141.9530 C   0  0  2  0  0  3  0  0  0  0  0  0
  196.7710  175.2500  142.1710 C   0  0  0  0  0  3  0  0  0  0  0  0
  196.1410  176.0480  143.2970 C   0  0  0  0  0  2  0  0  0  0  0  0
  197.3960  175.2370  143.5510 C   0  0  0  0  0  2  0  0  0  0  0  0
  196.9070  172.8160  141.5500 C   0  0  0  0  0  2  0  0  0  0  0  0
  196.2390  171.8580  140.5700 C   0  0  0  0  0  2  0  0  0  0  0  0
  197.1540  171.5800  139.3910 C   0  0  0  0  0  2  0  0  0  0  0  0
  196.3340  171.1850  138.1760 C   0  0  0  0  0  2  0  0  0  0  0  0
  194.8590  171.3940  138.4500 C   0  0  0  0  0  2  0  0  0  0  0  0
  194.1290  171.5140  137.1290 C   0  0  0  0  0  2  0  0  0  0  0  0
  193.1840  172.7050  137.1420 C   0  0  1  0  0  3  0  0  0  0  0  0
  192.2970  172.6220  138.2970 N   0  0  0  0  0  2  0  0  0  0  0  0
  189.2450  173.0020  138.6620 C   0  0  0  0  0  0  0  0  0  0  0  0
  192.1540  170.1740  139.5380 F   0  0  0  0  0  0  0  0  0  0  0  0
  191.2140  171.7020  137.9650 C   0  0  1  0  0  3  0  0  0  0  0  0
  188.9330  172.6770  142.4150 C   0  0  0  0  0  3  0  0  0  0  0  0
  190.1210  169.7200  138.6940 F   0  0  0  0  0  0  0  0  0  0  0  0
  190.9540  170.7350  139.1320 C   0  0  0  0  0  0  0  0  0  0  0  0
  188.3830  173.8770  138.3790 O   0  0  0  0  0  0  0  0  0  0  0  0
  189.7660  171.5810  142.6550 C   0  0  0  0  0  3  0  0  0  0  0  0
  190.4320  170.9610  141.5960 C   0  0  0  0  0  3  0  0  0  0  0  0
  189.4270  172.5370  140.0450 C   0  0  0  0  0  0  0  0  0  0  0  0
  190.2860  171.4460  140.2870 C   0  0  0  0  0  0  0  0  0  0  0  0
  188.7600  173.1520  141.1120 C   0  0  0  0  0  3  0  0  0  0  0  0
  190.0380  172.4500  137.6520 O   0  0  0  0  0  0  0  0  0  0  0  0
  193.9630  174.0270  137.1370 C   0  0  0  0  0  2  0  0  0  0  0  0
  193.1340  174.1070  134.8020 C   0  0  0  0  0  1  0  0  0  0  0  0
  193.6060  174.9430  135.9740 C   0  0  1  0  0  3  0  0  0  0  0  0
  192.6000  175.8360  136.3450 O   0  0  0  0  0  1  0  0  0  0  0  0
  194.8650  174.1880  140.9370 C   0  0  0  0  0  2  0  0  0  0  0  0
  193.5360  173.6870  141.4850 C   0  0  0  0  0  2  0  0  0  0  0  0
  192.4190  174.6760  141.1950 C   0  0  0  0  0  2  0  0  0  0  0  0
  192.2650  175.6440  142.3550 C   0  0  0  0  0  2  0  0  0  0  0  0
  190.8850  175.5100  143.0010 C   0  0  1  0  0  3  0  0  0  0  0  0
  191.6180  173.8170  144.7280 C   0  0  0  0  0  2  0  0  0  0  0  0
  192.5090  175.4650  146.2080 C   0  0  1  0  0  3  0  0  0  0  0  0
  190.9560  175.1620  144.4940 C   0  0  1  0  0  3  0  0  0  0  0  0
  191.6700  176.1840  145.2560 N   0  0  0  0  0  2  0  0  0  0  0  0
  192.7830  174.0920  145.6410 C   0  0  0  0  0  2  0  0  0  0  0  0
  193.8100  176.2150  146.5040 C   0  0  0  0  0  3  0  0  0  0  0  0
  195.0140  175.2880  146.5740 C   0  0  0  0  0  1  0  0  0  0  0  0
  194.0510  177.2890  145.4620 C   0  0  0  0  0  1  0  0  0  0  0  0
  190.0980  176.8030  142.8300 C   0  0  0  0  0  2  0  0  0  0  0  0
  186.0560  178.1140  143.1280 C   0  0  0  0  0  2  0  0  0  0  0  0
  186.2950  176.8290  142.3470 C   0  0  0  0  0  2  0  0  0  0  0  0
  189.0300  177.9020  145.2390 O   0  0  0  0  0  0  0  0  0  0  0  0
  188.6380  176.6320  143.2370 C   0  0  2  0  0  3  0  0  0  0  0  0
  187.7700  176.7560  141.9850 C   0  0  0  0  0  2  0  0  0  0  0  0
  188.2260  177.6200  144.3070 C   0  0  0  0  0  0  0  0  0  0  0  0
  186.8870  178.1460  144.3300 N   0  0  0  0  0  0  0  0  0  0  0  0
  186.4160  178.9180  145.4770 C   0  0  0  0  0  2  0  0  0  0  0  0
  183.9930  178.6160  145.8660 C   0  0  0  0  0  1  0  0  0  0  0  0
  185.5300  178.4410  147.7810 C   0  0  0  0  0  1  0  0  0  0  0  0
  185.4820  176.6670  146.0570 C   0  0  0  0  0  1  0  0  0  0  0  0
  185.3720  178.1600  146.2990 C   0  0  0  0  0  0  0  0  0  0  0  0
  1 30  1  6  0  0  0
  1  2  1  0  0  0  0
  2  3  1  0  0  0  0
  2  4  1  0  0  0  0
  3  4  1  0  0  0  0
  5  1  1  0  0  0  0
  6  5  1  0  0  0  0
  7  6  1  0  0  0  0
  8  9  1  0  0  0  0
  8  7  1  0  0  0  0
 10  9  1  0  0  0  0
 11 10  1  1  0  0  0
 11 12  1  0  0  0  0
 13 22  1  0  0  0  0
 15 12  1  1  0  0  0
 15 18  1  0  0  0  0
 16 20  1  0  0  0  0
 17 18  1  0  0  0  0
 18 14  1  0  0  0  0
 18 23  1  0  0  0  0
 19 13  2  0  0  0  0
 21 20  2  0  0  0  0
 22 23  2  0  0  0  0
 22 24  1  0  0  0  0
 23 21  1  0  0  0  0
 24 16  2  0  0  0  0
 25 15  1  0  0  0  0
 25 13  1  0  0  0  0
 26 11  1  0  0  0  0
 28 27  1  6  0  0  0
 28 29  1  0  0  0  0
 28 26  1  0  0  0  0
 30 31  1  0  0  0  0
 32 31  1  0  0  0  0
 32 33  1  0  0  0  0
 34 33  1  1  0  0  0
 35 39  1  0  0  0  0
 36 40  1  6  0  0  0
 37 34  1  6  0  0  0
 37 35  1  0  0  0  0
 37 38  1  0  0  0  0
 38 36  1  0  0  0  0
 39 36  1  0  0  0  0
 40 41  1  0  0  0  0
 42 40  1  0  0  0  0
 43 34  1  0  0  0  0
 44 50  1  0  0  0  0
 45 44  1  0  0  0  0
 47 43  1  6  0  0  0
 47 49  1  0  0  0  0
 48 45  1  0  0  0  0
 48 47  1  0  0  0  0
 49 50  1  0  0  0  0
 49 46  2  0  0  0  0
 50 51  1  0  0  0  0
 51 55  1  0  0  0  0
 52 55  1  0  0  0  0
 54 55  1  0  0  0  0
 55 53  1  0  0  0  0
M  END
>  <MODEL>
8

>  <REMARK>
 VINA RESULT:      -5.5      1.753      2.413
  Name = 
  23 active torsions:
  status: ('A' for Active; 'I' for Inactive)
    1  A    between atoms: C_2  and  C_28
    2  A    between atoms: C_2  and  C_44
    3  A    between atoms: C_6  and  N_46
    4  A    between atoms: C_8  and  C_20
    5  A    between atoms: C_8  and  C_22
    6  A    between atoms: C_10  and  C_32
    7  A    between atoms: C_17  and  C_36
    8  A    between atoms: C_19  and  C_40
    9  A    between atoms: C_19  and  N_45
   10  A    between atoms: C_22  and  C_35
   11  A    between atoms: C_22  and  N_46
   12  A    between atoms: C_24  and  C_44
   13  A    between atoms: C_27  and  C_31
   14  A    between atoms: C_27  and  C_54
   15  A    between atoms: C_28  and  C_49
   16  A    between atoms: C_31  and  C_44
   17  A    between atoms: C_33  and  C_49
   18  A    between atoms: C_33  and  C_52
   19  A    between atoms: C_34  and  C_52
   20  A    between atoms: C_35  and  C_43
   21  A    between atoms: C_36  and  C_52
   22  A    between atoms: C_43  and  C_51
   23  A    between atoms: C_51  and  C_54
                            x       y       z     vdW  Elec       q    Type
                         _______ _______ _______ _____ _____    ______ ____

>  <TORSDO>
F 23

$$$$
=
 OpenBabel11052419363D

 55 59  0  0  1  0  0  0  0  0999 V2000
  190.3840  175.1020  146.9800 C   0  0  2  0  0  3  0  0  0  0  0  0
  191.0980  176.4470  147.0210 C   0  0  0  0  0  3  0  0  0  0  0  0
  191.8080  176.6050  148.3510 C   0  0  0  0  0  2  0  0  0  0  0  0
  192.5950  176.2280  147.1120 C   0  0  0  0  0  2  0  0  0  0  0  0
  190.9160  174.2340  145.8390 C   0  0  0  0  0  2  0  0  0  0  0  0
  189.8250  173.3710  145.2170 C   0  0  0  0  0  2  0  0  0  0  0  0
  190.4360  172.2480  144.3980 C   0  0  0  0  0  2  0  0  0  0  0  0
  189.6190  172.0150  143.1400 C   0  0  0  0  0  2  0  0  0  0  0  0
  190.1740  170.8360  142.3680 C   0  0  0  0  0  2  0  0  0  0  0  0
  190.4480  171.2700  140.9430 C   0  0  0  0  0  2  0  0  0  0  0  0
  191.7800  170.7200  140.4590 C   0  0  1  0  0  3  0  0  0  0  0  0
  192.5140  171.7550  139.7420 N   0  0  0  0  0  2  0  0  0  0  0  0
  194.9040  172.5420  137.9350 C   0  0  0  0  0  0  0  0  0  0  0  0
  190.8020  172.0010  137.6060 F   0  0  0  0  0  0  0  0  0  0  0  0
  192.8950  171.2150  138.4410 C   0  0  1  0  0  3  0  0  0  0  0  0
  193.7580  175.9130  136.6690 C   0  0  0  0  0  3  0  0  0  0  0  0
  192.3280  171.2580  136.1320 F   0  0  0  0  0  0  0  0  0  0  0  0
  192.1560  171.9570  137.3140 C   0  0  0  0  0  0  0  0  0  0  0  0
  196.1490  172.6940  138.0650 O   0  0  0  0  0  0  0  0  0  0  0  0
  192.4200  175.6410  136.3700 C   0  0  0  0  0  3  0  0  0  0  0  0
  191.8970  174.3660  136.5920 C   0  0  0  0  0  3  0  0  0  0  0  0
  194.0590  173.6260  137.4140 C   0  0  0  0  0  0  0  0  0  0  0  0
  192.7040  173.3550  137.1350 C   0  0  0  0  0  0  0  0  0  0  0  0
  194.5770  174.9060  137.1860 C   0  0  0  0  0  3  0  0  0  0  0  0
  194.3100  171.3250  138.2790 O   0  0  0  0  0  0  0  0  0  0  0  0
  192.6050  170.1660  141.6290 C   0  0  0  0  0  2  0  0  0  0  0  0
  193.9100  171.2150  143.4580 C   0  0  0  0  0  1  0  0  0  0  0  0
  193.8350  171.0020  141.9600 C   0  0  1  0  0  3  0  0  0  0  0  0
  194.9940  170.3620  141.5210 O   0  0  0  0  0  1  0  0  0  0  0  0
  188.8730  175.2990  146.8960 C   0  0  0  0  0  2  0  0  0  0  0  0
  188.5100  176.7570  147.1380 C   0  0  0  0  0  2  0  0  0  0  0  0
  188.0940  177.4370  145.8430 C   0  0  0  0  0  2  0  0  0  0  0  0
  187.7870  176.3950  144.7820 C   0  0  0  0  0  2  0  0  0  0  0  0
  188.4440  176.7620  143.4500 C   0  0  1  0  0  3  0  0  0  0  0  0
  186.4990  176.9020  141.8430 C   0  0  0  0  0  2  0  0  0  0  0  0
  185.5670  178.8410  142.8800 C   0  0  1  0  0  3  0  0  0  0  0  0
  187.5690  177.6800  142.5860 C   0  0  1  0  0  3  0  0  0  0  0  0
  186.9320  178.7280  143.3800 N   0  0  0  0  0  2  0  0  0  0  0  0
  185.1880  177.5170  142.2600 C   0  0  0  0  0  2  0  0  0  0  0  0
  184.5840  179.2400  143.9830 C   0  0  0  0  0  3  0  0  0  0  0  0
  183.1340  179.0380  143.5730 C   0  0  0  0  0  1  0  0  0  0  0  0
  184.8700  178.4650  145.2530 C   0  0  0  0  0  1  0  0  0  0  0  0
  189.7840  177.4420  143.6950 C   0  0  0  0  0  2  0  0  0  0  0  0
  192.7570  174.5610  142.6880 C   0  0  0  0  0  2  0  0  0  0  0  0
  191.6240  174.7430  141.6880 C   0  0  0  0  0  2  0  0  0  0  0  0
  192.5620  177.8920  144.1780 O   0  0  0  0  0  0  0  0  0  0  0  0
  190.8780  176.8710  142.7990 C   0  0  2  0  0  3  0  0  0  0  0  0
  190.4770  175.4560  142.3870 C   0  0  0  0  0  2  0  0  0  0  0  0
  192.2350  176.8990  143.4700 C   0  0  0  0  0  0  0  0  0  0  0  0
  193.1920  175.8550  143.2100 N   0  0  0  0  0  0  0  0  0  0  0  0
  194.5720  175.9870  143.6710 C   0  0  0  0  0  2  0  0  0  0  0  0
  196.7970  176.7710  142.9320 C   0  0  0  0  0  1  0  0  0  0  0  0
  194.9850  176.6180  141.2730 C   0  0  0  0  0  1  0  0  0  0  0  0
  196.0070  174.5610  142.1930 C   0  0  0  0  0  1  0  0  0  0  0  0
  195.5740  175.9790  142.5150 C   0  0  0  0  0  0  0  0  0  0  0  0
  1  5  1  6  0  0  0
  1  2  1  0  0  0  0
  2  4  1  0  0  0  0
  2  3  1  0  0  0  0
  4  3  1  0  0  0  0
  6  5  1  0  0  0  0
  7  6  1  0  0  0  0
  8  7  1  0  0  0  0
  9  8  1  0  0  0  0
 10  9  1  0  0  0  0
 11 10  1  1  0  0  0
 11 26  1  0  0  0  0
 12 11  1  0  0  0  0
 13 19  2  0  0  0  0
 13 25  1  0  0  0  0
 15 12  1  1  0  0  0
 16 24  1  0  0  0  0
 17 18  1  0  0  0  0
 18 14  1  0  0  0  0
 18 15  1  0  0  0  0
 20 21  1  0  0  0  0
 20 16  2  0  0  0  0
 21 23  2  0  0  0  0
 22 13  1  0  0  0  0
 23 18  1  0  0  0  0
 23 22  1  0  0  0  0
 24 22  2  0  0  0  0
 25 15  1  0  0  0  0
 26 28  1  0  0  0  0
 28 27  1  1  0  0  0
 29 28  1  0  0  0  0
 30  1  1  0  0  0  0
 30 31  1  0  0  0  0
 32 31  1  0  0  0  0
 33 32  1  0  0  0  0
 34 43  1  1  0  0  0
 34 33  1  0  0  0  0
 35 39  1  0  0  0  0
 35 37  1  0  0  0  0
 36 38  1  0  0  0  0
 36 40  1  1  0  0  0
 37 38  1  0  0  0  0
 37 34  1  1  0  0  0
 39 36  1  0  0  0  0
 40 42  1  0  0  0  0
 41 40  1  0  0  0  0
 44 50  1  0  0  0  0
 45 48  1  0  0  0  0
 45 44  1  0  0  0  0
 47 49  1  0  0  0  0
 47 43  1  1  0  0  0
 48 47  1  0  0  0  0
 49 46  2  0  0  0  0
 50 49  1  0  0  0  0
 50 51  1  0  0  0  0
 53 55  1  0  0  0  0
 54 55  1  0  0  0  0
 55 52  1  0  0  0  0
 55 51  1  0  0  0  0
M  END
>  <MODEL>
9

>  <REMARK>
 VINA RESULT:      -5.4      2.251      7.256
  Name = 
  23 active torsions:
  status: ('A' for Active; 'I' for Inactive)
    1  A    between atoms: C_2  and  C_28
    2  A    between atoms: C_2  and  C_44
    3  A    between atoms: C_6  and  N_46
    4  A    between atoms: C_8  and  C_20
    5  A    between atoms: C_8  and  C_22
    6  A    between atoms: C_10  and  C_32
    7  A    between atoms: C_17  and  C_36
    8  A    between atoms: C_19  and  C_40
    9  A    between atoms: C_19  and  N_45
   10  A    between atoms: C_22  and  C_35
   11  A    between atoms: C_22  and  N_46
   12  A    between atoms: C_24  and  C_44
   13  A    between atoms: C_27  and  C_31
   14  A    between atoms: C_27  and  C_54
   15  A    between atoms: C_28  and  C_49
   16  A    between atoms: C_31  and  C_44
   17  A    between atoms: C_33  and  C_49
   18  A    between atoms: C_33  and  C_52
   19  A    between atoms: C_34  and  C_52
   20  A    between atoms: C_35  and  C_43
   21  A    between atoms: C_36  and  C_52
   22  A    between atoms: C_43  and  C_51
   23  A    between atoms: C_51  and  C_54
                            x       y       z     vdW  Elec       q    Type
                         _______ _______ _______ _____ _____    ______ ____

>  <TORSDO>
F 23

$$$$
