=
 OpenBabel11052418123D

 28 32  0  0  0  0  0  0  0  0999 V2000
  189.3950  173.7160  142.4740 N   0  0  0  0  0  0  0  0  0  0  0  0
  187.0230  176.9190  146.1730 S   0  0  0  0  0  0  0  0  0  0  0  0
  186.8580  176.8630  139.6610 C   0  0  0  0  0  1  0  0  0  0  0  0
  186.1390  178.5790  144.5160 C   0  0  0  0  0  0  0  0  0  0  0  0
  187.2600  176.6760  143.3660 C   0  0  0  0  0  0  0  0  0  0  0  0
  186.8190  177.3780  144.5720 C   0  0  0  0  0  0  0  0  0  0  0  0
  185.8280  178.2390  142.0560 C   0  0  0  0  0  2  0  0  0  0  0  0
  185.8180  179.1120  145.7670 C   0  0  0  0  0  3  0  0  0  0  0  0
  188.1640  175.2730  141.1060 C   0  0  0  0  0  0  0  0  0  0  0  0
  188.1090  175.5660  143.4620 O   0  0  0  0  0  0  0  0  0  0  0  0
  185.9130  179.2650  143.2030 C   0  0  0  0  0  2  0  0  0  0  0  0
  189.4600  173.5000  140.0210 C   0  0  0  0  0  3  0  0  0  0  0  0
  187.2920  176.4160  140.9790 N   0  0  0  0  0  0  0  0  0  0  0  0
  188.5870  174.5020  139.9210 C   0  0  0  0  0  3  0  0  0  0  0  0
  186.2510  178.2830  146.8000 C   0  0  0  0  0  0  0  0  0  0  0  0
  186.8530  177.1170  142.1590 C   0  0  0  0  0  0  0  0  0  0  0  0
  190.1120  173.1480  141.3300 C   0  0  0  0  0  2  0  0  0  0  0  0
  188.5500  174.8710  142.3280 C   0  0  0  0  0  0  0  0  0  0  0  0
  186.0190  178.5370  148.2470 C   0  0  0  0  0  2  0  0  0  0  0  0
  186.9980  179.4040  148.7320 O   0  0  0  0  0  1  0  0  0  0  0  0
  189.6870  173.1850  143.7980 C   0  0  0  0  0  2  0  0  0  0  0  0
  190.6960  174.0400  144.4880 C   0  0  0  0  0  0  0  0  0  0  0  0
  192.6050  175.6020  145.8090 C   0  0  0  0  0  0  0  0  0  0  0  0
  191.9230  174.3130  143.8740 C   0  0  0  0  0  3  0  0  0  0  0  0
  190.4270  174.5440  145.7660 C   0  0  0  0  0  3  0  0  0  0  0  0
  191.3800  175.3260  146.4250 C   0  0  0  0  0  3  0  0  0  0  0  0
  193.6180  176.4330  146.5090 C   0  0  0  0  0  1  0  0  0  0  0  0
  192.8770  175.0940  144.5340 C   0  0  0  0  0  3  0  0  0  0  0  0
  1 21  1  0  0  0  0
  2 15  1  0  0  0  0
  3 13  1  0  0  0  0
  4  6  2  0  0  0  0
  4  8  1  0  0  0  0
  5 10  1  0  0  0  0
  5  6  1  0  0  0  0
  6  2  1  0  0  0  0
  7 16  1  0  0  0  0
  7 11  1  0  0  0  0
  8 15  2  0  0  0  0
  9 18  2  0  0  0  0
 11  4  1  0  0  0  0
 12 17  1  0  0  0  0
 13  9  1  0  0  0  0
 13 16  1  0  0  0  0
 14 12  2  0  0  0  0
 14  9  1  0  0  0  0
 15 19  1  0  0  0  0
 16  5  2  0  0  0  0
 17  1  1  0  0  0  0
 18  1  1  0  0  0  0
 18 10  1  0  0  0  0
 19 20  1  0  0  0  0
 21 22  1  0  0  0  0
 22 25  1  0  0  0  0
 23 26  1  0  0  0  0
 23 27  1  0  0  0  0
 24 22  2  0  0  0  0
 24 28  1  0  0  0  0
 25 26  2  0  0  0  0
 28 23  2  0  0  0  0
M  END
>  <MODEL>
1

>  <REMARK>
 VINA RESULT:      -7.5      0.000      0.000
  Name = 
  3 active torsions:
  status: ('A' for Active; 'I' for Inactive)
    1  A    between atoms: N_1  and  C_2
    2  A    between atoms: C_2  and  C_3
    3  A    between atoms: C_12  and  C_24
                            x       y       z     vdW  Elec       q    Type
                         _______ _______ _______ _____ _____    ______ ____

>  <TORSDO>
F 3

$$$$
=
 OpenBabel11052418123D

 28 32  0  0  0  0  0  0  0  0999 V2000
  189.6550  176.0250  146.5060 N   0  0  0  0  0  0  0  0  0  0  0  0
  188.8840  173.6850  141.6600 S   0  0  0  0  0  0  0  0  0  0  0  0
  194.2540  175.6430  144.7860 C   0  0  0  0  0  1  0  0  0  0  0  0
  191.2560  173.9460  140.8910 C   0  0  0  0  0  0  0  0  0  0  0  0
  190.9820  174.7370  143.2370 C   0  0  0  0  0  0  0  0  0  0  0  0
  190.4560  174.1650  141.9960 C   0  0  0  0  0  0  0  0  0  0  0  0
  193.2680  174.3650  142.3180 C   0  0  0  0  0  2  0  0  0  0  0  0
  190.5770  173.4150  139.7910 C   0  0  0  0  0  3  0  0  0  0  0  0
  191.9010  175.8500  145.6470 C   0  0  0  0  0  0  0  0  0  0  0  0
  190.1130  175.1230  144.2640 O   0  0  0  0  0  0  0  0  0  0  0  0
  192.6890  174.3830  140.8910 C   0  0  0  0  0  2  0  0  0  0  0  0
  191.5480  176.8170  147.8700 C   0  0  0  0  0  3  0  0  0  0  0  0
  192.8190  175.4630  144.6030 N   0  0  0  0  0  0  0  0  0  0  0  0
  192.3910  176.3770  146.9350 C   0  0  0  0  0  3  0  0  0  0  0  0
  189.2290  173.2100  140.0770 C   0  0  0  0  0  0  0  0  0  0  0  0
  192.3130  174.9020  143.3760 C   0  0  0  0  0  0  0  0  0  0  0  0
  190.0630  176.8650  147.6360 C   0  0  0  0  0  2  0  0  0  0  0  0
  190.5820  175.6730  145.4640 C   0  0  0  0  0  0  0  0  0  0  0  0
  188.2440  172.6100  139.1380 C   0  0  0  0  0  2  0  0  0  0  0  0
  188.1920  173.3660  137.9680 O   0  0  0  0  0  1  0  0  0  0  0  0
  188.2440  175.6910  146.3760 C   0  0  0  0  0  2  0  0  0  0  0  0
  187.4850  176.8560  145.8360 C   0  0  0  0  0  0  0  0  0  0  0  0
  186.0210  179.0070  144.8080 C   0  0  0  0  0  0  0  0  0  0  0  0
  186.6600  177.6090  146.6800 C   0  0  0  0  0  3  0  0  0  0  0  0
  187.5710  177.1760  144.4760 C   0  0  0  0  0  3  0  0  0  0  0  0
  186.8410  178.2520  143.9640 C   0  0  0  0  0  3  0  0  0  0  0  0
  185.2460  180.1510  144.2620 C   0  0  0  0  0  1  0  0  0  0  0  0
  185.9300  178.6850  146.1660 C   0  0  0  0  0  3  0  0  0  0  0  0
  1 17  1  0  0  0  0
  2  6  1  0  0  0  0
  4 11  1  0  0  0  0
  4  6  2  0  0  0  0
  5 16  2  0  0  0  0
  5 10  1  0  0  0  0
  6  5  1  0  0  0  0
  7 16  1  0  0  0  0
  8 15  2  0  0  0  0
  8  4  1  0  0  0  0
  9 14  1  0  0  0  0
 10 18  1  0  0  0  0
 11  7  1  0  0  0  0
 13  3  1  0  0  0  0
 13  9  1  0  0  0  0
 14 12  2  0  0  0  0
 15  2  1  0  0  0  0
 16 13  1  0  0  0  0
 17 12  1  0  0  0  0
 18  9  2  0  0  0  0
 18  1  1  0  0  0  0
 19 15  1  0  0  0  0
 20 19  1  0  0  0  0
 21  1  1  0  0  0  0
 22 21  1  0  0  0  0
 22 24  1  0  0  0  0
 23 28  1  0  0  0  0
 25 22  2  0  0  0  0
 26 25  1  0  0  0  0
 26 23  2  0  0  0  0
 27 23  1  0  0  0  0
 28 24  2  0  0  0  0
M  END
>  <MODEL>
2

>  <REMARK>
 VINA RESULT:      -7.4      2.732      7.356
  Name = 
  3 active torsions:
  status: ('A' for Active; 'I' for Inactive)
    1  A    between atoms: N_1  and  C_2
    2  A    between atoms: C_2  and  C_3
    3  A    between atoms: C_12  and  C_24
                            x       y       z     vdW  Elec       q    Type
                         _______ _______ _______ _____ _____    ______ ____

>  <TORSDO>
F 3

$$$$
=
 OpenBabel11052418123D

 28 32  0  0  0  0  0  0  0  0999 V2000
  190.2160  176.3160  144.5450 N   0  0  0  0  0  0  0  0  0  0  0  0
  185.6960  177.7510  141.8850 S   0  0  0  0  0  0  0  0  0  0  0  0
  187.4970  178.3400  148.1180 C   0  0  0  0  0  1  0  0  0  0  0  0
  184.4050  178.3860  143.9380 C   0  0  0  0  0  0  0  0  0  0  0  0
  186.7430  177.7480  144.5120 C   0  0  0  0  0  0  0  0  0  0  0  0
  185.6600  177.9610  143.5500 C   0  0  0  0  0  0  0  0  0  0  0  0
  185.3320  178.9160  146.2010 C   0  0  0  0  0  2  0  0  0  0  0  0
  183.4940  178.5120  142.8860 C   0  0  0  0  0  3  0  0  0  0  0  0
  188.8690  177.2930  146.2900 C   0  0  0  0  0  0  0  0  0  0  0  0
  187.9370  177.1370  144.1120 O   0  0  0  0  0  0  0  0  0  0  0  0
  184.0740  178.5530  145.3900 C   0  0  0  0  0  2  0  0  0  0  0  0
  191.1050  176.4530  146.8390 C   0  0  0  0  0  3  0  0  0  0  0  0
  187.6470  177.9220  146.7290 N   0  0  0  0  0  0  0  0  0  0  0  0
  190.0070  177.1110  147.2130 C   0  0  0  0  0  3  0  0  0  0  0  0
  184.0810  178.1910  141.6640 C   0  0  0  0  0  0  0  0  0  0  0  0
  186.5730  178.1340  145.7930 C   0  0  0  0  0  0  0  0  0  0  0  0
  191.2140  175.8030  145.4870 C   0  0  0  0  0  2  0  0  0  0  0  0
  188.9930  176.9180  145.0060 C   0  0  0  0  0  0  0  0  0  0  0  0
  183.3980  178.2730  140.3460 C   0  0  0  0  0  2  0  0  0  0  0  0
  182.0210  178.1350  140.5230 O   0  0  0  0  0  1  0  0  0  0  0  0
  190.4140  176.0530  143.1260 C   0  0  0  0  0  2  0  0  0  0  0  0
  190.4670  174.5840  142.8750 C   0  0  0  0  0  0  0  0  0  0  0  0
  190.5450  171.8360  142.3560 C   0  0  0  0  0  0  0  0  0  0  0  0
  191.6310  174.0010  142.3620 C   0  0  0  0  0  3  0  0  0  0  0  0
  189.3400  173.7920  143.1220 C   0  0  0  0  0  3  0  0  0  0  0  0
  189.3800  172.4190  142.8650 C   0  0  0  0  0  3  0  0  0  0  0  0
  190.5860  170.3760  142.0830 C   0  0  0  0  0  1  0  0  0  0  0  0
  191.6700  172.6270  142.1040 C   0  0  0  0  0  3  0  0  0  0  0  0
  1 18  1  0  0  0  0
  1 17  1  0  0  0  0
  2  6  1  0  0  0  0
  4 11  1  0  0  0  0
  5 16  2  0  0  0  0
  6  4  2  0  0  0  0
  6  5  1  0  0  0  0
  8  4  1  0  0  0  0
  9 13  1  0  0  0  0
  9 14  1  0  0  0  0
 10  5  1  0  0  0  0
 10 18  1  0  0  0  0
 11  7  1  0  0  0  0
 12 14  2  0  0  0  0
 13  3  1  0  0  0  0
 15  2  1  0  0  0  0
 15  8  2  0  0  0  0
 16  7  1  0  0  0  0
 16 13  1  0  0  0  0
 17 12  1  0  0  0  0
 18  9  2  0  0  0  0
 19 20  1  0  0  0  0
 19 15  1  0  0  0  0
 21  1  1  0  0  0  0
 22 25  1  0  0  0  0
 22 21  1  0  0  0  0
 23 26  1  0  0  0  0
 24 22  2  0  0  0  0
 26 25  2  0  0  0  0
 27 23  1  0  0  0  0
 28 23  2  0  0  0  0
 28 24  1  0  0  0  0
M  END
>  <MODEL>
3

>  <REMARK>
 VINA RESULT:      -7.3      2.691      5.173
  Name = 
  3 active torsions:
  status: ('A' for Active; 'I' for Inactive)
    1  A    between atoms: N_1  and  C_2
    2  A    between atoms: C_2  and  C_3
    3  A    between atoms: C_12  and  C_24
                            x       y       z     vdW  Elec       q    Type
                         _______ _______ _______ _____ _____    ______ ____

>  <TORSDO>
F 3

$$$$
=
 OpenBabel11052418123D

 28 32  0  0  0  0  0  0  0  0999 V2000
  187.7710  176.2020  146.5780 N   0  0  0  0  0  0  0  0  0  0  0  0
  189.6360  173.5170  142.2340 S   0  0  0  0  0  0  0  0  0  0  0  0
  186.1370  178.9780  142.8530 C   0  0  0  0  0  1  0  0  0  0  0  0
  188.3880  174.8950  140.5510 C   0  0  0  0  0  0  0  0  0  0  0  0
  188.0490  175.7730  142.8570 C   0  0  0  0  0  0  0  0  0  0  0  0
  188.6280  174.8190  141.9090 C   0  0  0  0  0  0  0  0  0  0  0  0
  187.3950  177.1660  140.8970 C   0  0  0  0  0  2  0  0  0  0  0  0
  189.0070  173.8870  139.8050 C   0  0  0  0  0  3  0  0  0  0  0  0
  186.9610  177.5440  144.7460 C   0  0  0  0  0  0  0  0  0  0  0  0
  188.1540  175.5560  144.2360 O   0  0  0  0  0  0  0  0  0  0  0  0
  187.4340  175.9110  140.0020 C   0  0  0  0  0  2  0  0  0  0  0  0
  186.4770  178.2460  147.0430 C   0  0  0  0  0  3  0  0  0  0  0  0
  186.8350  177.7910  143.3300 N   0  0  0  0  0  0  0  0  0  0  0  0
  186.4420  178.5080  145.7360 C   0  0  0  0  0  3  0  0  0  0  0  0
  189.7490  173.0360  140.6190 C   0  0  0  0  0  0  0  0  0  0  0  0
  187.3990  176.8580  142.3880 C   0  0  0  0  0  0  0  0  0  0  0  0
  186.9800  176.9320  147.5730 C   0  0  0  0  0  2  0  0  0  0  0  0
  187.6110  176.4480  145.1700 C   0  0  0  0  0  0  0  0  0  0  0  0
  190.5690  171.8940  140.1310 C   0  0  0  0  0  2  0  0  0  0  0  0
  190.4810  170.8350  141.0350 O   0  0  0  0  0  1  0  0  0  0  0  0
  188.6080  175.1040  147.0410 C   0  0  0  0  0  2  0  0  0  0  0  0
  190.0490  175.4680  146.9260 C   0  0  0  0  0  0  0  0  0  0  0  0
  192.7430  176.1810  146.6670 C   0  0  0  0  0  0  0  0  0  0  0  0
  190.5640  176.5410  147.6630 C   0  0  0  0  0  3  0  0  0  0  0  0
  190.8820  174.7560  146.0540 C   0  0  0  0  0  3  0  0  0  0  0  0
  192.2280  175.1110  145.9280 C   0  0  0  0  0  3  0  0  0  0  0  0
  194.1730  176.5580  146.5320 C   0  0  0  0  0  1  0  0  0  0  0  0
  191.9100  176.8960  147.5340 C   0  0  0  0  0  3  0  0  0  0  0  0
  1 21  1  0  0  0  0
  1 17  1  0  0  0  0
  3 13  1  0  0  0  0
  4  6  2  0  0  0  0
  5 10  1  0  0  0  0
  6  2  1  0  0  0  0
  6  5  1  0  0  0  0
  7 16  1  0  0  0  0
  8  4  1  0  0  0  0
  8 15  2  0  0  0  0
  9 18  2  0  0  0  0
  9 14  1  0  0  0  0
 10 18  1  0  0  0  0
 11  4  1  0  0  0  0
 11  7  1  0  0  0  0
 12 17  1  0  0  0  0
 13  9  1  0  0  0  0
 14 12  2  0  0  0  0
 15  2  1  0  0  0  0
 16  5  2  0  0  0  0
 16 13  1  0  0  0  0
 18  1  1  0  0  0  0
 19 15  1  0  0  0  0
 19 20  1  0  0  0  0
 22 21  1  0  0  0  0
 22 24  1  0  0  0  0
 23 28  1  0  0  0  0
 25 22  2  0  0  0  0
 26 25  1  0  0  0  0
 26 23  2  0  0  0  0
 27 23  1  0  0  0  0
 28 24  2  0  0  0  0
M  END
>  <MODEL>
4

>  <REMARK>
 VINA RESULT:      -7.3      2.192      5.613
  Name = 
  3 active torsions:
  status: ('A' for Active; 'I' for Inactive)
    1  A    between atoms: N_1  and  C_2
    2  A    between atoms: C_2  and  C_3
    3  A    between atoms: C_12  and  C_24
                            x       y       z     vdW  Elec       q    Type
                         _______ _______ _______ _____ _____    ______ ____

>  <TORSDO>
F 3

$$$$
=
 OpenBabel11052418123D

 28 32  0  0  0  0  0  0  0  0999 V2000
  191.0010  175.5180  145.8220 N   0  0  0  0  0  0  0  0  0  0  0  0
  190.4810  173.4460  140.8220 S   0  0  0  0  0  0  0  0  0  0  0  0
  195.5320  176.0850  143.9780 C   0  0  0  0  0  1  0  0  0  0  0  0
  192.7430  174.1790  140.0260 C   0  0  0  0  0  0  0  0  0  0  0  0
  192.4170  174.7320  142.4320 C   0  0  0  0  0  0  0  0  0  0  0  0
  191.9560  174.1710  141.1610 C   0  0  0  0  0  0  0  0  0  0  0  0
  194.6990  174.8400  141.4390 C   0  0  0  0  0  2  0  0  0  0  0  0
  192.1280  173.6200  138.9020 C   0  0  0  0  0  3  0  0  0  0  0  0
  193.2110  175.8070  144.9030 C   0  0  0  0  0  0  0  0  0  0  0  0
  191.5300  174.8800  143.5050 O   0  0  0  0  0  0  0  0  0  0  0  0
  194.0760  174.8610  140.0290 C   0  0  0  0  0  2  0  0  0  0  0  0
  192.7730  176.5270  147.2040 C   0  0  0  0  0  3  0  0  0  0  0  0
  194.1450  175.6680  143.8120 N   0  0  0  0  0  0  0  0  0  0  0  0
  193.6460  176.3150  146.2190 C   0  0  0  0  0  3  0  0  0  0  0  0
  190.8480  173.1590  139.1980 C   0  0  0  0  0  0  0  0  0  0  0  0
  193.7030  175.1190  142.5550 C   0  0  0  0  0  0  0  0  0  0  0  0
  191.2950  176.3290  147.0060 C   0  0  0  0  0  2  0  0  0  0  0  0
  191.9380  175.4130  144.7350 C   0  0  0  0  0  0  0  0  0  0  0  0
  189.9500  172.4660  138.2370 C   0  0  0  0  0  2  0  0  0  0  0  0
  189.4790  171.2830  138.8060 O   0  0  0  0  0  1  0  0  0  0  0  0
  189.6660  174.9500  145.6950 C   0  0  0  0  0  2  0  0  0  0  0  0
  188.6480  176.0360  145.6100 C   0  0  0  0  0  0  0  0  0  0  0  0
  186.7060  178.0430  145.4210 C   0  0  0  0  0  0  0  0  0  0  0  0
  187.7060  176.1990  146.6330 C   0  0  0  0  0  3  0  0  0  0  0  0
  188.6120  176.8740  144.4890 C   0  0  0  0  0  3  0  0  0  0  0  0
  187.6440  177.8770  144.3960 C   0  0  0  0  0  3  0  0  0  0  0  0
  185.6780  179.1090  145.3210 C   0  0  0  0  0  1  0  0  0  0  0  0
  186.7380  177.2020  146.5390 C   0  0  0  0  0  3  0  0  0  0  0  0
  1 17  1  0  0  0  0
  2  6  1  0  0  0  0
  4 11  1  0  0  0  0
  4  6  2  0  0  0  0
  5 16  2  0  0  0  0
  5 10  1  0  0  0  0
  6  5  1  0  0  0  0
  7 16  1  0  0  0  0
  8 15  2  0  0  0  0
  8  4  1  0  0  0  0
  9 14  1  0  0  0  0
 10 18  1  0  0  0  0
 11  7  1  0  0  0  0
 13  3  1  0  0  0  0
 13  9  1  0  0  0  0
 14 12  2  0  0  0  0
 15  2  1  0  0  0  0
 16 13  1  0  0  0  0
 17 12  1  0  0  0  0
 18  9  2  0  0  0  0
 18  1  1  0  0  0  0
 19 20  1  0  0  0  0
 19 15  1  0  0  0  0
 21  1  1  0  0  0  0
 22 21  1  0  0  0  0
 22 24  1  0  0  0  0
 23 28  1  0  0  0  0
 25 22  2  0  0  0  0
 26 25  1  0  0  0  0
 26 23  2  0  0  0  0
 27 23  1  0  0  0  0
 28 24  2  0  0  0  0
M  END
>  <MODEL>
5

>  <REMARK>
 VINA RESULT:      -7.0      3.259      7.696
  Name = 
  3 active torsions:
  status: ('A' for Active; 'I' for Inactive)
    1  A    between atoms: N_1  and  C_2
    2  A    between atoms: C_2  and  C_3
    3  A    between atoms: C_12  and  C_24
                            x       y       z     vdW  Elec       q    Type
                         _______ _______ _______ _____ _____    ______ ____

>  <TORSDO>
F 3

$$$$
=
 OpenBabel11052418123D

 28 32  0  0  0  0  0  0  0  0999 V2000
  188.7400  176.1290  143.5620 N   0  0  0  0  0  0  0  0  0  0  0  0
  194.0000  175.7800  142.2290 S   0  0  0  0  0  0  0  0  0  0  0  0
  190.9660  176.8200  147.9000 C   0  0  0  0  0  1  0  0  0  0  0  0
  194.8600  176.5120  144.4680 C   0  0  0  0  0  0  0  0  0  0  0  0
  192.3770  176.3130  144.4830 C   0  0  0  0  0  0  0  0  0  0  0  0
  193.6770  176.2220  143.8160 C   0  0  0  0  0  0  0  0  0  0  0  0
  193.6130  176.5140  146.6370 C   0  0  0  0  0  2  0  0  0  0  0  0
  195.9980  176.3920  143.6660 C   0  0  0  0  0  3  0  0  0  0  0  0
  189.8410  176.4840  145.6770 C   0  0  0  0  0  0  0  0  0  0  0  0
  191.1930  176.2000  143.7460 O   0  0  0  0  0  0  0  0  0  0  0  0
  194.8460  177.0320  145.8730 C   0  0  0  0  0  2  0  0  0  0  0  0
  187.3920  176.4870  145.5920 C   0  0  0  0  0  3  0  0  0  0  0  0
  191.0460  176.6070  146.4600 N   0  0  0  0  0  0  0  0  0  0  0  0
  188.5110  176.5120  146.3170 C   0  0  0  0  0  3  0  0  0  0  0  0
  195.6700  175.9820  142.3760 C   0  0  0  0  0  0  0  0  0  0  0  0
  192.3320  176.5220  145.8150 C   0  0  0  0  0  0  0  0  0  0  0  0
  187.4240  176.4980  144.0890 C   0  0  0  0  0  2  0  0  0  0  0  0
  189.9320  176.2820  144.3530 C   0  0  0  0  0  0  0  0  0  0  0  0
  196.6540  175.7100  141.2950 C   0  0  0  0  0  2  0  0  0  0  0  0
  197.9380  175.6460  141.8360 O   0  0  0  0  0  1  0  0  0  0  0  0
  188.8350  175.7550  142.1570 C   0  0  0  0  0  2  0  0  0  0  0  0
  189.2980  174.3430  142.0290 C   0  0  0  0  0  0  0  0  0  0  0  0
  190.2060  171.7040  141.8220 C   0  0  0  0  0  0  0  0  0  0  0  0
  188.7090  173.3370  142.8020 C   0  0  0  0  0  3  0  0  0  0  0  0
  190.3470  174.0290  141.1570 C   0  0  0  0  0  3  0  0  0  0  0  0
  190.7990  172.7100  141.0520 C   0  0  0  0  0  3  0  0  0  0  0  0
  190.6870  170.3030  141.7100 C   0  0  0  0  0  1  0  0  0  0  0  0
  189.1620  172.0180  142.6980 C   0  0  0  0  0  3  0  0  0  0  0  0
  1 17  1  0  0  0  0
  1 18  1  0  0  0  0
  2 15  1  0  0  0  0
  2  6  1  0  0  0  0
  4 11  1  0  0  0  0
  5 16  2  0  0  0  0
  6  4  2  0  0  0  0
  6  5  1  0  0  0  0
  8  4  1  0  0  0  0
  9 14  1  0  0  0  0
  9 13  1  0  0  0  0
 10 18  1  0  0  0  0
 10  5  1  0  0  0  0
 11  7  1  0  0  0  0
 12 14  2  0  0  0  0
 13  3  1  0  0  0  0
 15  8  2  0  0  0  0
 16 13  1  0  0  0  0
 16  7  1  0  0  0  0
 17 12  1  0  0  0  0
 18  9  2  0  0  0  0
 19 20  1  0  0  0  0
 19 15  1  0  0  0  0
 21  1  1  0  0  0  0
 22 21  1  0  0  0  0
 22 24  1  0  0  0  0
 23 28  1  0  0  0  0
 25 22  2  0  0  0  0
 26 25  1  0  0  0  0
 26 23  2  0  0  0  0
 27 23  1  0  0  0  0
 28 24  2  0  0  0  0
M  END
>  <MODEL>
6

>  <REMARK>
 VINA RESULT:      -7.0      3.356      7.411
  Name = 
  3 active torsions:
  status: ('A' for Active; 'I' for Inactive)
    1  A    between atoms: N_1  and  C_2
    2  A    between atoms: C_2  and  C_3
    3  A    between atoms: C_12  and  C_24
                            x       y       z     vdW  Elec       q    Type
                         _______ _______ _______ _____ _____    ______ ____

>  <TORSDO>
F 3

$$$$
=
 OpenBabel11052418123D

 28 32  0  0  0  0  0  0  0  0999 V2000
  193.3660  176.0760  143.7640 N   0  0  0  0  0  0  0  0  0  0  0  0
  188.3420  177.6580  142.4170 S   0  0  0  0  0  0  0  0  0  0  0  0
  191.2420  176.6720  148.1670 C   0  0  0  0  0  1  0  0  0  0  0  0
  187.4210  177.5300  144.7460 C   0  0  0  0  0  0  0  0  0  0  0  0
  189.8630  177.0380  144.7190 C   0  0  0  0  0  0  0  0  0  0  0  0
  188.6060  177.3830  144.0520 C   0  0  0  0  0  0  0  0  0  0  0  0
  188.7220  177.5050  146.8840 C   0  0  0  0  0  2  0  0  0  0  0  0
  186.3220  177.8390  143.9400 C   0  0  0  0  0  3  0  0  0  0  0  0
  192.3110  176.3540  145.9140 C   0  0  0  0  0  0  0  0  0  0  0  0
  190.9980  176.7100  143.9680 O   0  0  0  0  0  0  0  0  0  0  0  0
  187.3590  177.2390  146.2140 C   0  0  0  0  0  2  0  0  0  0  0  0
  194.6600  175.6640  145.8190 C   0  0  0  0  0  3  0  0  0  0  0  0
  191.1550  176.6840  146.7120 N   0  0  0  0  0  0  0  0  0  0  0  0
  193.6120  176.0550  146.5440 C   0  0  0  0  0  3  0  0  0  0  0  0
  186.6880  177.9480  142.6010 C   0  0  0  0  0  0  0  0  0  0  0  0
  189.9120  177.0230  146.0670 C   0  0  0  0  0  0  0  0  0  0  0  0
  194.5560  175.4400  144.3360 C   0  0  0  0  0  2  0  0  0  0  0  0
  192.2160  176.3740  144.5740 C   0  0  0  0  0  0  0  0  0  0  0  0
  185.7650  178.3170  141.4950 C   0  0  0  0  0  2  0  0  0  0  0  0
  186.3260  177.9450  140.2730 O   0  0  0  0  0  1  0  0  0  0  0  0
  193.3100  176.2500  142.3190 C   0  0  0  0  0  2  0  0  0  0  0  0
  193.1370  174.9300  141.6460 C   0  0  0  0  0  0  0  0  0  0  0  0
  192.7920  172.4800  140.3400 C   0  0  0  0  0  0  0  0  0  0  0  0
  194.2130  174.3360  140.9770 C   0  0  0  0  0  3  0  0  0  0  0  0
  191.8860  174.3010  141.6550 C   0  0  0  0  0  3  0  0  0  0  0  0
  191.7150  173.0760  141.0040 C   0  0  0  0  0  3  0  0  0  0  0  0
  192.6090  171.1780  139.6480 C   0  0  0  0  0  1  0  0  0  0  0  0
  194.0410  173.1110  140.3260 C   0  0  0  0  0  3  0  0  0  0  0  0
  1 17  1  0  0  0  0
  1 18  1  0  0  0  0
  2 15  1  0  0  0  0
  2  6  1  0  0  0  0
  4 11  1  0  0  0  0
  5 16  2  0  0  0  0
  6  5  1  0  0  0  0
  6  4  2  0  0  0  0
  8  4  1  0  0  0  0
  9 14  1  0  0  0  0
  9 13  1  0  0  0  0
 10 18  1  0  0  0  0
 10  5  1  0  0  0  0
 11  7  1  0  0  0  0
 12 14  2  0  0  0  0
 13  3  1  0  0  0  0
 15  8  2  0  0  0  0
 16 13  1  0  0  0  0
 16  7  1  0  0  0  0
 17 12  1  0  0  0  0
 18  9  2  0  0  0  0
 19 15  1  0  0  0  0
 20 19  1  0  0  0  0
 21  1  1  0  0  0  0
 22 25  1  0  0  0  0
 22 21  1  0  0  0  0
 23 26  1  0  0  0  0
 24 22  2  0  0  0  0
 26 25  2  0  0  0  0
 27 23  1  0  0  0  0
 28 23  2  0  0  0  0
 28 24  1  0  0  0  0
M  END
>  <MODEL>
7

>  <REMARK>
 VINA RESULT:      -7.0      2.973      5.661
  Name = 
  3 active torsions:
  status: ('A' for Active; 'I' for Inactive)
    1  A    between atoms: N_1  and  C_2
    2  A    between atoms: C_2  and  C_3
    3  A    between atoms: C_12  and  C_24
                            x       y       z     vdW  Elec       q    Type
                         _______ _______ _______ _____ _____    ______ ____

>  <TORSDO>
F 3

$$$$
=
 OpenBabel11052418123D

 28 32  0  0  0  0  0  0  0  0999 V2000
  192.9240  175.0560  143.6000 N   0  0  0  0  0  0  0  0  0  0  0  0
  188.1510  177.3560  142.3810 S   0  0  0  0  0  0  0  0  0  0  0  0
  191.2780  176.4580  148.0260 C   0  0  0  0  0  1  0  0  0  0  0  0
  187.4050  177.6280  144.7600 C   0  0  0  0  0  0  0  0  0  0  0  0
  189.7180  176.7130  144.6450 C   0  0  0  0  0  0  0  0  0  0  0  0
  188.4910  177.2050  144.0180 C   0  0  0  0  0  0  0  0  0  0  0  0
  188.8430  177.5900  146.8070 C   0  0  0  0  0  2  0  0  0  0  0  0
  186.3150  178.0440  143.9900 C   0  0  0  0  0  3  0  0  0  0  0  0
  192.1000  175.7310  145.7640 C   0  0  0  0  0  0  0  0  0  0  0  0
  190.7200  176.1160  143.8700 O   0  0  0  0  0  0  0  0  0  0  0  0
  187.4080  177.5020  146.2520 C   0  0  0  0  0  2  0  0  0  0  0  0
  194.2850  174.6320  145.6100 C   0  0  0  0  0  3  0  0  0  0  0  0
  191.0830  176.3390  146.5850 N   0  0  0  0  0  0  0  0  0  0  0  0
  193.3770  175.2720  146.3460 C   0  0  0  0  0  3  0  0  0  0  0  0
  186.5890  177.9510  142.6280 C   0  0  0  0  0  0  0  0  0  0  0  0
  189.8690  176.8260  145.9800 C   0  0  0  0  0  0  0  0  0  0  0  0
  194.0300  174.2810  144.1690 C   0  0  0  0  0  2  0  0  0  0  0  0
  191.9070  175.6330  144.4380 C   0  0  0  0  0  0  0  0  0  0  0  0
  185.6590  178.3640  141.5430 C   0  0  0  0  0  2  0  0  0  0  0  0
  186.1820  177.9820  140.3080 O   0  0  0  0  0  1  0  0  0  0  0  0
  192.7870  175.0910  142.1510 C   0  0  0  0  0  2  0  0  0  0  0  0
  194.1250  175.2330  141.5080 C   0  0  0  0  0  0  0  0  0  0  0  0
  196.6120  175.5170  140.2580 C   0  0  0  0  0  0  0  0  0  0  0  0
  194.8900  176.3850  141.7230 C   0  0  0  0  0  3  0  0  0  0  0  0
  194.6030  174.2250  140.6620 C   0  0  0  0  0  3  0  0  0  0  0  0
  195.8470  174.3670  140.0390 C   0  0  0  0  0  3  0  0  0  0  0  0
  197.9330  175.6660  139.5960 C   0  0  0  0  0  1  0  0  0  0  0  0
  196.1330  176.5260  141.1000 C   0  0  0  0  0  3  0  0  0  0  0  0
  1 17  1  0  0  0  0
  1 18  1  0  0  0  0
  2 15  1  0  0  0  0
  2  6  1  0  0  0  0
  4 11  1  0  0  0  0
  5 16  2  0  0  0  0
  6  5  1  0  0  0  0
  6  4  2  0  0  0  0
  8  4  1  0  0  0  0
  9 14  1  0  0  0  0
  9 13  1  0  0  0  0
 10 18  1  0  0  0  0
 10  5  1  0  0  0  0
 11  7  1  0  0  0  0
 12 14  2  0  0  0  0
 13  3  1  0  0  0  0
 15  8  2  0  0  0  0
 16 13  1  0  0  0  0
 16  7  1  0  0  0  0
 17 12  1  0  0  0  0
 18  9  2  0  0  0  0
 19 15  1  0  0  0  0
 20 19  1  0  0  0  0
 21  1  1  0  0  0  0
 22 24  1  0  0  0  0
 22 21  1  0  0  0  0
 23 28  1  0  0  0  0
 25 22  2  0  0  0  0
 26 23  2  0  0  0  0
 26 25  1  0  0  0  0
 27 23  1  0  0  0  0
 28 24  2  0  0  0  0
M  END
>  <MODEL>
8

>  <REMARK>
 VINA RESULT:      -6.9      3.299      5.661
  Name = 
  3 active torsions:
  status: ('A' for Active; 'I' for Inactive)
    1  A    between atoms: N_1  and  C_2
    2  A    between atoms: C_2  and  C_3
    3  A    between atoms: C_12  and  C_24
                            x       y       z     vdW  Elec       q    Type
                         _______ _______ _______ _____ _____    ______ ____

>  <TORSDO>
F 3

$$$$
=
 OpenBabel11052418123D

 28 32  0  0  0  0  0  0  0  0999 V2000
  189.0350  177.1570  143.1710 N   0  0  0  0  0  0  0  0  0  0  0  0
  189.1930  173.8970  138.8230 S   0  0  0  0  0  0  0  0  0  0  0  0
  189.8280  172.7410  145.2030 C   0  0  0  0  0  1  0  0  0  0  0  0
  189.9500  171.8630  140.0790 C   0  0  0  0  0  0  0  0  0  0  0  0
  189.5270  173.7680  141.6280 C   0  0  0  0  0  0  0  0  0  0  0  0
  189.5690  173.1750  140.2900 C   0  0  0  0  0  0  0  0  0  0  0  0
  189.7900  171.4660  142.5450 C   0  0  0  0  0  2  0  0  0  0  0  0
  189.9500  171.4790  138.7360 C   0  0  0  0  0  3  0  0  0  0  0  0
  189.4410  174.9930  144.1540 C   0  0  0  0  0  0  0  0  0  0  0  0
  189.3240  175.1440  141.7870 O   0  0  0  0  0  0  0  0  0  0  0  0
  190.4350  171.0200  141.2180 C   0  0  0  0  0  2  0  0  0  0  0  0
  189.2250  176.9460  145.6190 C   0  0  0  0  0  3  0  0  0  0  0  0
  189.6550  173.5730  144.0180 N   0  0  0  0  0  0  0  0  0  0  0  0
  189.3350  175.6240  145.4840 C   0  0  0  0  0  3  0  0  0  0  0  0
  189.5420  172.5220  137.9080 C   0  0  0  0  0  0  0  0  0  0  0  0
  189.7010  172.9770  142.7060 C   0  0  0  0  0  0  0  0  0  0  0  0
  189.2730  177.8670  144.4310 C   0  0  0  0  0  2  0  0  0  0  0  0
  189.2790  175.7440  143.0520 C   0  0  0  0  0  0  0  0  0  0  0  0
  189.3840  172.4230  136.4320 C   0  0  0  0  0  2  0  0  0  0  0  0
  190.5050  172.9680  135.8050 O   0  0  0  0  0  1  0  0  0  0  0  0
  188.7030  177.9460  141.9930 C   0  0  0  0  0  2  0  0  0  0  0  0
  187.2250  177.9890  141.8000 C   0  0  0  0  0  0  0  0  0  0  0  0
  184.4540  178.1260  141.4330 C   0  0  0  0  0  0  0  0  0  0  0  0
  186.6740  177.7640  140.5340 C   0  0  0  0  0  3  0  0  0  0  0  0
  186.3890  178.2900  142.8820 C   0  0  0  0  0  3  0  0  0  0  0  0
  185.0040  178.3550  142.6980 C   0  0  0  0  0  3  0  0  0  0  0  0
  182.9830  178.1950  141.2390 C   0  0  0  0  0  1  0  0  0  0  0  0
  185.2900  177.8300  140.3510 C   0  0  0  0  0  3  0  0  0  0  0  0
  1 17  1  0  0  0  0
  2  6  1  0  0  0  0
  4  6  2  0  0  0  0
  4 11  1  0  0  0  0
  5 10  1  0  0  0  0
  5 16  2  0  0  0  0
  6  5  1  0  0  0  0
  7 16  1  0  0  0  0
  8  4  1  0  0  0  0
  9 14  1  0  0  0  0
 10 18  1  0  0  0  0
 11  7  1  0  0  0  0
 13  9  1  0  0  0  0
 13  3  1  0  0  0  0
 14 12  2  0  0  0  0
 15  8  2  0  0  0  0
 15  2  1  0  0  0  0
 16 13  1  0  0  0  0
 17 12  1  0  0  0  0
 18  1  1  0  0  0  0
 18  9  2  0  0  0  0
 19 15  1  0  0  0  0
 20 19  1  0  0  0  0
 21  1  1  0  0  0  0
 22 21  1  0  0  0  0
 22 25  1  0  0  0  0
 23 26  1  0  0  0  0
 24 22  2  0  0  0  0
 26 25  2  0  0  0  0
 27 23  1  0  0  0  0
 28 24  1  0  0  0  0
 28 23  2  0  0  0  0
M  END
>  <MODEL>
9

>  <REMARK>
 VINA RESULT:      -6.9      3.175      8.007
  Name = 
  3 active torsions:
  status: ('A' for Active; 'I' for Inactive)
    1  A    between atoms: N_1  and  C_2
    2  A    between atoms: C_2  and  C_3
    3  A    between atoms: C_12  and  C_24
                            x       y       z     vdW  Elec       q    Type
                         _______ _______ _______ _____ _____    ______ ____

>  <TORSDO>
F 3

$$$$
