=
 OpenBabel11052417493D

 31 34  0  0  1  0  0  0  0  0999 V2000
  184.5750  178.5200  144.9840 C   0  0  0  0  0  0  0  0  0  0  0  0
  187.9570  177.6280  143.8050 C   0  0  1  0  0  3  0  0  0  0  0  0
  188.8150  177.5090  145.0340 C   0  0  0  0  0  0  0  0  0  0  0  0
  189.1250  177.5480  147.5500 C   0  0  0  0  0  2  0  0  0  0  0  0
  186.6260  177.9040  143.8110 C   0  0  0  0  0  0  0  0  0  0  0  0
  183.9050  178.6550  143.7690 C   0  0  0  0  0  3  0  0  0  0  0  0
  188.2010  177.2150  146.3880 C   0  0  0  0  0  2  0  0  0  0  0  0
  187.8610  177.2570  141.3160 C   0  0  1  0  0  3  0  0  0  0  0  0
  183.9050  178.7560  146.1760 O   0  0  0  0  0  1  0  0  0  0  0  0
  190.7870  177.5780  143.5550 C   0  0  0  0  0  3  0  0  0  0  0  0
  190.4610  176.8720  147.3160 C   0  0  2  0  0  3  0  0  0  0  0  0
  186.5010  177.7780  141.4410 N   0  0  0  0  0  2  0  0  0  0  0  0
  188.6230  177.5370  142.5280 N   0  0  0  0  0  0  0  0  0  0  0  0
  185.9220  178.1570  145.0000 C   0  0  0  0  0  3  0  0  0  0  0  0
  191.5250  177.1480  148.7120 Cl  0  0  0  0  0  0  0  0  0  0  0  0
  185.9230  178.0230  142.5800 C   0  0  0  0  0  0  0  0  0  0  0  0
  184.5790  178.4100  142.5730 C   0  0  0  0  0  3  0  0  0  0  0  0
  190.0510  177.5840  142.4490 C   0  0  0  0  0  3  0  0  0  0  0  0
  190.1640  177.4880  144.8870 C   0  0  0  0  0  0  0  0  0  0  0  0
  191.1020  177.4590  146.0660 C   0  0  0  0  0  2  0  0  0  0  0  0
  187.9300  174.9240  142.1260 C   0  0  0  0  0  3  0  0  0  0  0  0
  187.8080  175.7770  141.1130 C   0  0  0  0  0  3  0  0  0  0  0  0
  187.8980  173.4540  141.8520 C   0  0  0  0  0  2  0  0  0  0  0  0
  189.0610  172.7310  142.5280 C   0  0  0  0  0  2  0  0  0  0  0  0
  190.2620  173.6350  142.7980 C   0  0  0  0  0  2  0  0  0  0  0  0
  189.7480  173.7030  145.2110 C   0  0  0  0  0  1  0  0  0  0  0  0
  190.8310  173.4150  144.1890 C   0  0  2  0  0  3  0  0  0  0  0  0
  193.1690  173.9210  145.0280 C   0  0  0  0  0  0  0  0  0  0  0  0
  193.3320  172.7360  145.4230 O   0  0  0  0  0  0  0  0  0  0  0  0
  194.2550  174.9180  145.2190 C   0  0  0  0  0  1  0  0  0  0  0  0
  191.9520  174.3190  144.3960 N   0  0  0  0  0  2  0  0  0  0  0  0
  1 14  1  0  0  0  0
  1  9  1  0  0  0  0
  2  5  1  1  0  0  0
  2  3  1  0  0  0  0
  3  7  1  0  0  0  0
  5 14  2  0  0  0  0
  6  1  2  0  0  0  0
  7  4  1  0  0  0  0
  8 22  1  1  0  0  0
  8 12  1  0  0  0  0
  8 13  1  0  0  0  0
 10 19  1  0  0  0  0
 11  4  1  0  0  0  0
 11 15  1  1  0  0  0
 12 16  1  0  0  0  0
 13  2  1  0  0  0  0
 16  5  1  0  0  0  0
 17 16  2  0  0  0  0
 17  6  1  0  0  0  0
 18 13  1  0  0  0  0
 18 10  2  0  0  0  0
 19  3  2  0  0  0  0
 19 20  1  0  0  0  0
 20 11  1  0  0  0  0
 22 21  2  0  0  0  0
 23 21  1  0  0  0  0
 23 24  1  0  0  0  0
 24 25  1  0  0  0  0
 25 27  1  0  0  0  0
 27 31  1  0  0  0  0
 27 26  1  1  0  0  0
 28 30  1  0  0  0  0
 28 29  2  0  0  0  0
 31 28  1  0  0  0  0
M  END
>  <MODEL>
1

>  <REMARK>
 VINA RESULT:      -7.5      0.000      0.000
  Name = 
  6 active torsions:
  status: ('A' for Active; 'I' for Inactive)
    1  A    between atoms: C_3  and  C_19
    2  A    between atoms: C_3  and  C_22
    3  A    between atoms: C_7  and  C_9
    4  A    between atoms: C_7  and  C_22
    5  A    between atoms: C_15  and  C_23
    6  A    between atoms: C_19  and  N_24
                            x       y       z     vdW  Elec       q    Type
                         _______ _______ _______ _____ _____    ______ ____

>  <TORSDO>
F 6

$$$$
=
 OpenBabel11052417493D

 31 34  0  0  1  0  0  0  0  0999 V2000
  185.9260  177.8760  147.1420 C   0  0  0  0  0  0  0  0  0  0  0  0
  188.4170  177.4890  144.4470 C   0  0  1  0  0  3  0  0  0  0  0  0
  189.7320  177.2160  145.1230 C   0  0  0  0  0  0  0  0  0  0  0  0
  191.1330  176.8200  147.1990 C   0  0  0  0  0  2  0  0  0  0  0  0
  187.2310  177.6510  145.0910 C   0  0  0  0  0  0  0  0  0  0  0  0
  184.7860  178.1770  146.4000 C   0  0  0  0  0  3  0  0  0  0  0  0
  189.7840  176.6320  146.5200 C   0  0  0  0  0  2  0  0  0  0  0  0
  187.2170  177.5730  142.2340 C   0  0  1  0  0  3  0  0  0  0  0  0
  185.8610  177.8360  148.5280 O   0  0  0  0  0  1  0  0  0  0  0  0
  190.8380  177.7120  142.9760 C   0  0  0  0  0  3  0  0  0  0  0  0
  192.2170  176.3070  146.2720 C   0  0  2  0  0  3  0  0  0  0  0  0
  186.0600  177.9510  143.0450 N   0  0  0  0  0  2  0  0  0  0  0  0
  188.4430  177.6870  143.0180 N   0  0  0  0  0  0  0  0  0  0  0  0
  187.1340  177.6250  146.4930 C   0  0  0  0  0  3  0  0  0  0  0  0
  193.7950  176.4080  147.0830 Cl  0  0  0  0  0  0  0  0  0  0  0  0
  186.0540  177.9370  144.3450 C   0  0  0  0  0  0  0  0  0  0  0  0
  184.8530  178.2100  145.0070 C   0  0  0  0  0  3  0  0  0  0  0  0
  189.6850  177.8620  142.3310 C   0  0  0  0  0  3  0  0  0  0  0  0
  190.8740  177.3310  144.3980 C   0  0  0  0  0  0  0  0  0  0  0  0
  192.2380  177.1630  145.0130 C   0  0  0  0  0  2  0  0  0  0  0  0
  187.6760  175.1510  142.4060 C   0  0  0  0  0  3  0  0  0  0  0  0
  187.0640  176.1550  141.7850 C   0  0  0  0  0  3  0  0  0  0  0  0
  187.5060  173.7590  141.8880 C   0  0  0  0  0  2  0  0  0  0  0  0
  188.6870  172.8680  142.2690 C   0  0  0  0  0  2  0  0  0  0  0  0
  189.9640  173.6510  142.5690 C   0  0  0  0  0  2  0  0  0  0  0  0
  189.9160  173.3440  145.0180 C   0  0  0  0  0  1  0  0  0  0  0  0
  190.7130  173.0730  143.7560 C   0  0  2  0  0  3  0  0  0  0  0  0
  193.1600  173.0660  144.4220 C   0  0  0  0  0  0  0  0  0  0  0  0
  193.0870  171.8840  144.8490 O   0  0  0  0  0  0  0  0  0  0  0  0
  194.4490  173.8010  144.5050 C   0  0  0  0  0  1  0  0  0  0  0  0
  192.0180  173.7100  143.8560 N   0  0  0  0  0  2  0  0  0  0  0  0
  1  9  1  0  0  0  0
  2  5  1  1  0  0  0
  2  3  1  0  0  0  0
  3  7  1  0  0  0  0
  5 14  2  0  0  0  0
  6  1  2  0  0  0  0
  7  4  1  0  0  0  0
  8 22  1  1  0  0  0
  8 13  1  0  0  0  0
  8 12  1  0  0  0  0
 10 19  1  0  0  0  0
 11 15  1  1  0  0  0
 11  4  1  0  0  0  0
 12 16  1  0  0  0  0
 13  2  1  0  0  0  0
 14  1  1  0  0  0  0
 16 17  2  0  0  0  0
 16  5  1  0  0  0  0
 17  6  1  0  0  0  0
 18 10  2  0  0  0  0
 18 13  1  0  0  0  0
 19 20  1  0  0  0  0
 19  3  2  0  0  0  0
 20 11  1  0  0  0  0
 22 21  2  0  0  0  0
 23 24  1  0  0  0  0
 23 21  1  0  0  0  0
 24 25  1  0  0  0  0
 25 27  1  0  0  0  0
 27 31  1  0  0  0  0
 27 26  1  1  0  0  0
 28 30  1  0  0  0  0
 28 29  2  0  0  0  0
 31 28  1  0  0  0  0
M  END
>  <MODEL>
2

>  <REMARK>
 VINA RESULT:      -7.4      1.268      1.583
  Name = 
  6 active torsions:
  status: ('A' for Active; 'I' for Inactive)
    1  A    between atoms: C_3  and  C_19
    2  A    between atoms: C_3  and  C_22
    3  A    between atoms: C_7  and  C_9
    4  A    between atoms: C_7  and  C_22
    5  A    between atoms: C_15  and  C_23
    6  A    between atoms: C_19  and  N_24
                            x       y       z     vdW  Elec       q    Type
                         _______ _______ _______ _____ _____    ______ ____

>  <TORSDO>
F 6

$$$$
=
 OpenBabel11052417493D

 31 34  0  0  1  0  0  0  0  0999 V2000
  186.1360  178.3110  143.6310 C   0  0  0  0  0  0  0  0  0  0  0  0
  188.5830  175.6510  144.3790 C   0  0  1  0  0  3  0  0  0  0  0  0
  188.8360  174.9340  143.0830 C   0  0  0  0  0  0  0  0  0  0  0  0
  188.4850  174.6420  140.5890 C   0  0  0  0  0  2  0  0  0  0  0  0
  187.7690  176.7310  144.5240 C   0  0  0  0  0  0  0  0  0  0  0  0
  185.9460  178.8530  144.9000 C   0  0  0  0  0  3  0  0  0  0  0  0
  188.5920  175.6170  141.7520 C   0  0  0  0  0  2  0  0  0  0  0  0
  189.3150  175.8940  146.7770 C   0  0  1  0  0  3  0  0  0  0  0  0
  185.4270  178.8140  142.5490 O   0  0  0  0  0  1  0  0  0  0  0  0
  189.8830  173.1250  144.3920 C   0  0  0  0  0  3  0  0  0  0  0  0
  189.6970  173.7330  140.6050 C   0  0  2  0  0  3  0  0  0  0  0  0
  188.2500  176.8930  146.8450 N   0  0  0  0  0  2  0  0  0  0  0  0
  189.1770  175.0890  145.5680 N   0  0  0  0  0  0  0  0  0  0  0  0
  187.0310  177.2570  143.4500 C   0  0  0  0  0  3  0  0  0  0  0  0
  189.6580  172.6570  139.1910 Cl  0  0  0  0  0  0  0  0  0  0  0  0
  187.5820  177.3090  145.8090 C   0  0  0  0  0  0  0  0  0  0  0  0
  186.6650  178.3500  145.9850 C   0  0  0  0  0  3  0  0  0  0  0  0
  189.7600  173.7830  145.5400 C   0  0  0  0  0  3  0  0  0  0  0  0
  189.4580  173.7280  143.1170 C   0  0  0  0  0  0  0  0  0  0  0  0
  189.6740  172.8980  141.8780 C   0  0  0  0  0  2  0  0  0  0  0  0
  191.7660  175.9650  147.0850 C   0  0  0  0  0  3  0  0  0  0  0  0
  190.6410  176.5860  146.7440 C   0  0  0  0  0  3  0  0  0  0  0  0
  193.0550  176.7220  147.0590 C   0  0  0  0  0  2  0  0  0  0  0  0
  194.1500  175.9450  146.3310 C   0  0  0  0  0  2  0  0  0  0  0  0
  193.6540  175.2370  145.0720 C   0  0  0  0  0  2  0  0  0  0  0  0
  192.3420  176.1540  143.1930 C   0  0  0  0  0  1  0  0  0  0  0  0
  193.7050  176.1470  143.8570 C   0  0  2  0  0  3  0  0  0  0  0  0
  196.0400  176.1340  142.8690 C   0  0  0  0  0  0  0  0  0  0  0  0
  196.4290  177.0330  143.6610 O   0  0  0  0  0  0  0  0  0  0  0  0
  196.9850  175.5770  141.8660 C   0  0  0  0  0  1  0  0  0  0  0  0
  194.7010  175.6420  142.9230 N   0  0  0  0  0  2  0  0  0  0  0  0
  1  6  1  0  0  0  0
  2  3  1  1  0  0  0
  2  5  1  0  0  0  0
  2 13  1  0  0  0  0
  3 19  2  0  0  0  0
  4 11  1  0  0  0  0
  4  7  1  0  0  0  0
  5 16  2  0  0  0  0
  6 17  2  0  0  0  0
  7  3  1  0  0  0  0
  8 22  1  6  0  0  0
  8 12  1  0  0  0  0
  9  1  1  0  0  0  0
 10 18  2  0  0  0  0
 11 15  1  6  0  0  0
 11 20  1  0  0  0  0
 13  8  1  0  0  0  0
 14  1  2  0  0  0  0
 14  5  1  0  0  0  0
 16 17  1  0  0  0  0
 16 12  1  0  0  0  0
 18 13  1  0  0  0  0
 19 10  1  0  0  0  0
 20 19  1  0  0  0  0
 22 21  2  0  0  0  0
 23 21  1  0  0  0  0
 24 23  1  0  0  0  0
 25 24  1  0  0  0  0
 27 26  1  6  0  0  0
 27 25  1  0  0  0  0
 28 31  1  0  0  0  0
 28 29  2  0  0  0  0
 30 28  1  0  0  0  0
 31 27  1  0  0  0  0
M  END
>  <MODEL>
3

>  <REMARK>
 VINA RESULT:      -7.2      2.974      5.212
  Name = 
  6 active torsions:
  status: ('A' for Active; 'I' for Inactive)
    1  A    between atoms: C_3  and  C_19
    2  A    between atoms: C_3  and  C_22
    3  A    between atoms: C_7  and  C_9
    4  A    between atoms: C_7  and  C_22
    5  A    between atoms: C_15  and  C_23
    6  A    between atoms: C_19  and  N_24
                            x       y       z     vdW  Elec       q    Type
                         _______ _______ _______ _____ _____    ______ ____

>  <TORSDO>
F 6

$$$$
=
 OpenBabel11052417493D

 31 34  0  0  1  0  0  0  0  0999 V2000
  185.9860  178.4000  144.4800 C   0  0  0  0  0  0  0  0  0  0  0  0
  188.4920  175.6910  144.4400 C   0  0  1  0  0  3  0  0  0  0  0  0
  188.5410  175.1820  143.0260 C   0  0  0  0  0  0  0  0  0  0  0  0
  187.8180  175.2680  140.5980 C   0  0  0  0  0  2  0  0  0  0  0  0
  187.7190  176.7240  144.8670 C   0  0  0  0  0  0  0  0  0  0  0  0
  185.9950  178.7410  145.8310 C   0  0  0  0  0  3  0  0  0  0  0  0
  188.1070  176.0560  141.8670 C   0  0  0  0  0  2  0  0  0  0  0  0
  189.5780  175.5760  146.7100 C   0  0  1  0  0  3  0  0  0  0  0  0
  185.1280  179.0530  143.6060 O   0  0  0  0  0  1  0  0  0  0  0  0
  189.7550  173.2090  143.8730 C   0  0  0  0  0  3  0  0  0  0  0  0
  189.0100  174.3840  140.2940 C   0  0  2  0  0  3  0  0  0  0  0  0
  188.5450  176.5390  147.0880 N   0  0  0  0  0  2  0  0  0  0  0  0
  189.2520  174.9630  145.4270 N   0  0  0  0  0  0  0  0  0  0  0  0
  186.8340  177.3980  144.0090 C   0  0  0  0  0  3  0  0  0  0  0  0
  188.7490  173.5350  138.7550 Cl  0  0  0  0  0  0  0  0  0  0  0  0
  187.7330  177.0980  146.2400 C   0  0  0  0  0  0  0  0  0  0  0  0
  186.8630  178.0890  146.7060 C   0  0  0  0  0  3  0  0  0  0  0  0
  189.8120  173.6840  145.1140 C   0  0  0  0  0  3  0  0  0  0  0  0
  189.1500  173.9930  142.7830 C   0  0  0  0  0  0  0  0  0  0  0  0
  189.1690  173.3650  141.4140 C   0  0  0  0  0  2  0  0  0  0  0  0
  192.0110  175.7790  147.0920 C   0  0  0  0  0  3  0  0  0  0  0  0
  190.8900  176.2820  146.5840 C   0  0  0  0  0  3  0  0  0  0  0  0
  193.2850  176.5490  146.9590 C   0  0  0  0  0  2  0  0  0  0  0  0
  194.4250  175.6680  146.4520 C   0  0  0  0  0  2  0  0  0  0  0  0
  194.0790  174.9040  145.1760 C   0  0  0  0  0  2  0  0  0  0  0  0
  195.7000  176.3770  144.0380 C   0  0  0  0  0  1  0  0  0  0  0  0
  194.3270  175.7420  143.9340 C   0  0  2  0  0  3  0  0  0  0  0  0
  192.1520  176.6720  143.0220 C   0  0  0  0  0  0  0  0  0  0  0  0
  191.9450  175.6370  142.3350 O   0  0  0  0  0  0  0  0  0  0  0  0
  191.1780  177.7940  142.9760 C   0  0  0  0  0  1  0  0  0  0  0  0
  193.3120  176.7820  143.8470 N   0  0  0  0  0  2  0  0  0  0  0  0
  1  6  1  0  0  0  0
  2  3  1  1  0  0  0
  2  5  1  0  0  0  0
  2 13  1  0  0  0  0
  4  7  1  0  0  0  0
  5 16  2  0  0  0  0
  6 17  2  0  0  0  0
  7  3  1  0  0  0  0
  8 22  1  6  0  0  0
  8 12  1  0  0  0  0
  9  1  1  0  0  0  0
 10 18  2  0  0  0  0
 11 15  1  6  0  0  0
 11  4  1  0  0  0  0
 11 20  1  0  0  0  0
 13  8  1  0  0  0  0
 14  1  2  0  0  0  0
 14  5  1  0  0  0  0
 16 17  1  0  0  0  0
 16 12  1  0  0  0  0
 18 13  1  0  0  0  0
 19  3  2  0  0  0  0
 19 10  1  0  0  0  0
 20 19  1  0  0  0  0
 22 21  2  0  0  0  0
 23 21  1  0  0  0  0
 24 23  1  0  0  0  0
 25 24  1  0  0  0  0
 27 26  1  1  0  0  0
 27 25  1  0  0  0  0
 28 31  1  0  0  0  0
 29 28  2  0  0  0  0
 30 28  1  0  0  0  0
 31 27  1  0  0  0  0
M  END
>  <MODEL>
4

>  <REMARK>
 VINA RESULT:      -7.0      2.830      5.298
  Name = 
  6 active torsions:
  status: ('A' for Active; 'I' for Inactive)
    1  A    between atoms: C_3  and  C_19
    2  A    between atoms: C_3  and  C_22
    3  A    between atoms: C_7  and  C_9
    4  A    between atoms: C_7  and  C_22
    5  A    between atoms: C_15  and  C_23
    6  A    between atoms: C_19  and  N_24
                            x       y       z     vdW  Elec       q    Type
                         _______ _______ _______ _____ _____    ______ ____

>  <TORSDO>
F 6

$$$$
=
 OpenBabel11052417493D

 31 34  0  0  1  0  0  0  0  0999 V2000
  190.0490  172.5770  140.2940 C   0  0  0  0  0  0  0  0  0  0  0  0
  190.4520  175.5780  142.4040 C   0  0  1  0  0  3  0  0  0  0  0  0
  189.1210  176.2760  142.4040 C   0  0  0  0  0  0  0  0  0  0  0  0
  186.6790  176.4230  141.7380 C   0  0  0  0  0  2  0  0  0  0  0  0
  190.7130  174.4020  141.7740 C   0  0  0  0  0  0  0  0  0  0  0  0
  191.3420  172.0610  140.3270 C   0  0  0  0  0  3  0  0  0  0  0  0
  187.8420  175.5160  142.1130 C   0  0  0  0  0  2  0  0  0  0  0  0
  192.7530  175.5290  143.4270 C   0  0  1  0  0  3  0  0  0  0  0  0
  189.0670  171.9400  139.5480 O   0  0  0  0  0  1  0  0  0  0  0  0
  190.2620  178.2600  143.3220 C   0  0  0  0  0  3  0  0  0  0  0  0
  186.5350  177.4930  142.8020 C   0  0  2  0  0  3  0  0  0  0  0  0
  192.9650  174.3940  142.5300 N   0  0  0  0  0  2  0  0  0  0  0  0
  191.5520  176.2610  143.0400 N   0  0  0  0  0  0  0  0  0  0  0  0
  189.7430  173.7380  141.0030 C   0  0  0  0  0  3  0  0  0  0  0  0
  185.1140  178.5000  142.4510 Cl  0  0  0  0  0  0  0  0  0  0  0  0
  192.0230  173.8510  141.8170 C   0  0  0  0  0  0  0  0  0  0  0  0
  192.3250  172.6990  141.0840 C   0  0  0  0  0  3  0  0  0  0  0  0
  191.4300  177.6340  143.4240 C   0  0  0  0  0  3  0  0  0  0  0  0
  189.0570  177.5580  142.8480 C   0  0  0  0  0  0  0  0  0  0  0  0
  187.7850  178.3630  142.8020 C   0  0  0  0  0  2  0  0  0  0  0  0
  192.5220  175.8550  145.8660 C   0  0  0  0  0  3  0  0  0  0  0  0
  192.5800  175.0280  144.8260 C   0  0  0  0  0  3  0  0  0  0  0  0
  192.3780  175.2890  147.2420 C   0  0  0  0  0  2  0  0  0  0  0  0
  191.1500  175.8500  147.9570 C   0  0  0  0  0  2  0  0  0  0  0  0
  190.3590  176.8440  147.1090 C   0  0  0  0  0  2  0  0  0  0  0  0
  188.9320  175.2840  145.8350 C   0  0  0  0  0  1  0  0  0  0  0  0
  188.9310  176.3800  146.8840 C   0  0  2  0  0  3  0  0  0  0  0  0
  186.7390  177.6430  146.7080 C   0  0  0  0  0  0  0  0  0  0  0  0
  186.1400  176.7910  147.4150 O   0  0  0  0  0  0  0  0  0  0  0  0
  185.9930  178.8110  146.1700 C   0  0  0  0  0  1  0  0  0  0  0  0
  188.1300  177.5020  146.4170 N   0  0  0  0  0  2  0  0  0  0  0  0
  1  6  2  0  0  0  0
  1 14  1  0  0  0  0
  2  5  1  6  0  0  0
  2  3  1  0  0  0  0
  2 13  1  0  0  0  0
  3 19  2  0  0  0  0
  4  7  1  0  0  0  0
  4 11  1  0  0  0  0
  5 16  1  0  0  0  0
  6 17  1  0  0  0  0
  7  3  1  0  0  0  0
  8 22  1  1  0  0  0
  9  1  1  0  0  0  0
 10 18  2  0  0  0  0
 11 15  1  6  0  0  0
 12  8  1  0  0  0  0
 13 18  1  0  0  0  0
 13  8  1  0  0  0  0
 14  5  2  0  0  0  0
 16 12  1  0  0  0  0
 17 16  2  0  0  0  0
 19 10  1  0  0  0  0
 20 11  1  0  0  0  0
 20 19  1  0  0  0  0
 21 23  1  0  0  0  0
 22 21  2  0  0  0  0
 23 24  1  0  0  0  0
 25 24  1  0  0  0  0
 27 26  1  6  0  0  0
 27 25  1  0  0  0  0
 28 29  2  0  0  0  0
 30 28  1  0  0  0  0
 31 28  1  0  0  0  0
 31 27  1  0  0  0  0
M  END
>  <MODEL>
5

>  <REMARK>
 VINA RESULT:      -6.8      2.860      6.580
  Name = 
  6 active torsions:
  status: ('A' for Active; 'I' for Inactive)
    1  A    between atoms: C_3  and  C_19
    2  A    between atoms: C_3  and  C_22
    3  A    between atoms: C_7  and  C_9
    4  A    between atoms: C_7  and  C_22
    5  A    between atoms: C_15  and  C_23
    6  A    between atoms: C_19  and  N_24
                            x       y       z     vdW  Elec       q    Type
                         _______ _______ _______ _____ _____    ______ ____

>  <TORSDO>
F 6

$$$$
=
 OpenBabel11052417493D

 31 34  0  0  1  0  0  0  0  0999 V2000
  190.9310  172.0510  141.7590 C   0  0  0  0  0  0  0  0  0  0  0  0
  191.8460  174.3160  144.5260 C   0  0  1  0  0  3  0  0  0  0  0  0
  193.1710  174.9220  144.1560 C   0  0  0  0  0  0  0  0  0  0  0  0
  195.1080  175.2380  142.5520 C   0  0  0  0  0  2  0  0  0  0  0  0
  191.1410  173.4540  143.7470 C   0  0  0  0  0  0  0  0  0  0  0  0
  189.7370  171.5200  142.2430 C   0  0  0  0  0  3  0  0  0  0  0  0
  193.6130  175.0050  142.7090 C   0  0  0  0  0  2  0  0  0  0  0  0
  189.9290  174.3940  146.1580 C   0  0  1  0  0  3  0  0  0  0  0  0
  191.4330  171.6290  140.5360 O   0  0  0  0  0  1  0  0  0  0  0  0
  193.3880  175.6590  146.4990 C   0  0  0  0  0  3  0  0  0  0  0  0
  195.5030  176.4370  143.3900 C   0  0  2  0  0  3  0  0  0  0  0  0
  189.3840  173.3120  145.3400 N   0  0  0  0  0  2  0  0  0  0  0  0
  191.3390  174.6020  145.8460 N   0  0  0  0  0  0  0  0  0  0  0  0
  191.6260  173.0000  142.5080 C   0  0  0  0  0  3  0  0  0  0  0  0
  197.2240  176.8040  143.1380 Cl  0  0  0  0  0  0  0  0  0  0  0  0
  189.9090  172.9200  144.2170 C   0  0  0  0  0  0  0  0  0  0  0  0
  189.2320  171.9520  143.4690 C   0  0  0  0  0  3  0  0  0  0  0  0
  192.1770  175.2190  146.8280 C   0  0  0  0  0  3  0  0  0  0  0  0
  193.8880  175.5570  145.1170 C   0  0  0  0  0  0  0  0  0  0  0  0
  195.2630  176.1160  144.8590 C   0  0  0  0  0  2  0  0  0  0  0  0
  188.5040  176.3040  146.8130 C   0  0  0  0  0  3  0  0  0  0  0  0
  189.1820  175.6570  145.8700 C   0  0  0  0  0  3  0  0  0  0  0  0
  187.7530  177.5450  146.4530 C   0  0  0  0  0  2  0  0  0  0  0  0
  186.6510  177.2610  145.4340 C   0  0  0  0  0  2  0  0  0  0  0  0
  186.2260  178.4950  144.6420 C   0  0  0  0  0  2  0  0  0  0  0  0
  184.6820  178.0650  142.7650 C   0  0  0  0  0  1  0  0  0  0  0  0
  186.1410  178.2070  143.1530 C   0  0  2  0  0  3  0  0  0  0  0  0
  188.0830  176.9220  142.1490 C   0  0  0  0  0  0  0  0  0  0  0  0
  188.6340  177.9800  141.7470 O   0  0  0  0  0  0  0  0  0  0  0  0
  188.7230  175.6090  141.8780 C   0  0  0  0  0  1  0  0  0  0  0  0
  186.8470  176.9680  142.8640 N   0  0  0  0  0  2  0  0  0  0  0  0
  1  6  2  0  0  0  0
  1 14  1  0  0  0  0
  2  5  1  1  0  0  0
  2 13  1  0  0  0  0
  3  2  1  0  0  0  0
  3 19  2  0  0  0  0
  4  7  1  0  0  0  0
  4 11  1  0  0  0  0
  5 16  1  0  0  0  0
  6 17  1  0  0  0  0
  7  3  1  0  0  0  0
  8 22  1  6  0  0  0
  9  1  1  0  0  0  0
 10 18  2  0  0  0  0
 11 15  1  1  0  0  0
 11 20  1  0  0  0  0
 12  8  1  0  0  0  0
 13  8  1  0  0  0  0
 13 18  1  0  0  0  0
 14  5  2  0  0  0  0
 16 12  1  0  0  0  0
 17 16  2  0  0  0  0
 19 10  1  0  0  0  0
 20 19  1  0  0  0  0
 22 21  2  0  0  0  0
 23 21  1  0  0  0  0
 24 23  1  0  0  0  0
 25 24  1  0  0  0  0
 27 26  1  1  0  0  0
 27 25  1  0  0  0  0
 28 31  1  0  0  0  0
 29 28  2  0  0  0  0
 30 28  1  0  0  0  0
 31 27  1  0  0  0  0
M  END
>  <MODEL>
6

>  <REMARK>
 VINA RESULT:      -6.7      2.594      6.824
  Name = 
  6 active torsions:
  status: ('A' for Active; 'I' for Inactive)
    1  A    between atoms: C_3  and  C_19
    2  A    between atoms: C_3  and  C_22
    3  A    between atoms: C_7  and  C_9
    4  A    between atoms: C_7  and  C_22
    5  A    between atoms: C_15  and  C_23
    6  A    between atoms: C_19  and  N_24
                            x       y       z     vdW  Elec       q    Type
                         _______ _______ _______ _____ _____    ______ ____

>  <TORSDO>
F 6

$$$$
=
 OpenBabel11052417493D

 31 34  0  0  1  0  0  0  0  0999 V2000
  190.8640  171.7730  142.5690 C   0  0  0  0  0  0  0  0  0  0  0  0
  190.2730  175.2840  143.5450 C   0  0  1  0  0  3  0  0  0  0  0  0
  189.2810  175.8350  142.5580 C   0  0  0  0  0  0  0  0  0  0  0  0
  187.7330  175.5720  140.5680 C   0  0  0  0  0  2  0  0  0  0  0  0
  190.7240  174.0010  143.5580 C   0  0  0  0  0  0  0  0  0  0  0  0
  191.8250  171.4020  143.5070 C   0  0  0  0  0  3  0  0  0  0  0  0
  188.3460  174.9170  141.7970 C   0  0  0  0  0  2  0  0  0  0  0  0
  191.5080  175.7320  145.6930 C   0  0  1  0  0  3  0  0  0  0  0  0
  190.4470  170.8650  141.6060 O   0  0  0  0  0  1  0  0  0  0  0  0
  189.8720  178.0900  143.3610 C   0  0  0  0  0  3  0  0  0  0  0  0
  187.1090  176.8890  140.9810 C   0  0  2  0  0  3  0  0  0  0  0  0
  192.0830  174.4070  145.4650 N   0  0  0  0  0  2  0  0  0  0  0  0
  190.8540  176.2140  144.4820 N   0  0  0  0  0  0  0  0  0  0  0  0
  190.3280  173.0610  142.5920 C   0  0  0  0  0  3  0  0  0  0  0  0
  186.2860  177.6250  139.5870 Cl  0  0  0  0  0  0  0  0  0  0  0  0
  191.6890  173.6010  144.5240 C   0  0  0  0  0  0  0  0  0  0  0  0
  192.2360  172.3150  144.4780 C   0  0  0  0  0  3  0  0  0  0  0  0
  190.6800  177.6240  144.3080 C   0  0  0  0  0  3  0  0  0  0  0  0
  189.1090  177.1800  142.4900 C   0  0  0  0  0  0  0  0  0  0  0  0
  188.2040  177.8250  141.4730 C   0  0  0  0  0  2  0  0  0  0  0  0
  189.2120  175.3890  146.5410 C   0  0  0  0  0  3  0  0  0  0  0  0
  190.4930  175.6500  146.7870 C   0  0  0  0  0  3  0  0  0  0  0  0
  188.2420  175.3500  147.6770 C   0  0  0  0  0  2  0  0  0  0  0  0
  187.1310  176.3850  147.5040 C   0  0  0  0  0  2  0  0  0  0  0  0
  187.2520  177.1920  146.2130 C   0  0  0  0  0  2  0  0  0  0  0  0
  185.3010  178.1920  147.3470 C   0  0  0  0  0  1  0  0  0  0  0  0
  186.1350  178.2130  146.0810 C   0  0  2  0  0  3  0  0  0  0  0  0
  184.9920  178.7830  143.8900 C   0  0  0  0  0  0  0  0  0  0  0  0
  185.4580  179.9520  143.9000 O   0  0  0  0  0  0  0  0  0  0  0  0
  184.1120  178.3490  142.7740 C   0  0  0  0  0  1  0  0  0  0  0  0
  185.3000  177.8650  144.9400 N   0  0  0  0  0  2  0  0  0  0  0  0
  1 14  2  0  0  0  0
  1  6  1  0  0  0  0
  2  3  1  6  0  0  0
  2  5  1  0  0  0  0
  2 13  1  0  0  0  0
  4 11  1  0  0  0  0
  4  7  1  0  0  0  0
  5 16  2  0  0  0  0
  6 17  2  0  0  0  0
  7  3  1  0  0  0  0
  8 22  1  1  0  0  0
  9  1  1  0  0  0  0
 10 18  2  0  0  0  0
 11 15  1  6  0  0  0
 11 20  1  0  0  0  0
 12  8  1  0  0  0  0
 13  8  1  0  0  0  0
 14  5  1  0  0  0  0
 16 12  1  0  0  0  0
 17 16  1  0  0  0  0
 18 13  1  0  0  0  0
 19  3  2  0  0  0  0
 19 10  1  0  0  0  0
 20 19  1  0  0  0  0
 21 22  2  0  0  0  0
 21 23  1  0  0  0  0
 24 23  1  0  0  0  0
 25 24  1  0  0  0  0
 27 25  1  0  0  0  0
 27 26  1  1  0  0  0
 28 29  2  0  0  0  0
 28 31  1  0  0  0  0
 30 28  1  0  0  0  0
 31 27  1  0  0  0  0
M  END
>  <MODEL>
7

>  <REMARK>
 VINA RESULT:      -6.7      2.689      7.258
  Name = 
  6 active torsions:
  status: ('A' for Active; 'I' for Inactive)
    1  A    between atoms: C_3  and  C_19
    2  A    between atoms: C_3  and  C_22
    3  A    between atoms: C_7  and  C_9
    4  A    between atoms: C_7  and  C_22
    5  A    between atoms: C_15  and  C_23
    6  A    between atoms: C_19  and  N_24
                            x       y       z     vdW  Elec       q    Type
                         _______ _______ _______ _____ _____    ______ ____

>  <TORSDO>
F 6

$$$$
=
 OpenBabel11052417493D

 31 34  0  0  1  0  0  0  0  0999 V2000
  185.2320  178.2180  146.2750 C   0  0  0  0  0  0  0  0  0  0  0  0
  187.7780  176.2630  144.4540 C   0  0  1  0  0  3  0  0  0  0  0  0
  187.4940  176.4580  142.9910 C   0  0  0  0  0  0  0  0  0  0  0  0
  186.1760  177.5060  141.0950 C   0  0  0  0  0  2  0  0  0  0  0  0
  187.0880  176.8540  145.4650 C   0  0  0  0  0  0  0  0  0  0  0  0
  185.5650  177.9120  147.5930 C   0  0  0  0  0  3  0  0  0  0  0  0
  186.7380  177.6760  142.4990 C   0  0  0  0  0  2  0  0  0  0  0  0
  189.4070  175.3200  146.1280 C   0  0  1  0  0  3  0  0  0  0  0  0
  184.1500  179.0440  146.0070 O   0  0  0  0  0  1  0  0  0  0  0  0
  188.9780  174.5420  142.5380 C   0  0  0  0  0  3  0  0  0  0  0  0
  187.2960  177.0590  140.1760 C   0  0  2  0  0  3  0  0  0  0  0  0
  188.4560  175.8280  147.1160 N   0  0  0  0  0  2  0  0  0  0  0  0
  188.7980  175.3030  144.8020 N   0  0  0  0  0  0  0  0  0  0  0  0
  185.9820  177.6870  145.2260 C   0  0  0  0  0  3  0  0  0  0  0  0
  186.6960  176.9610  138.5060 Cl  0  0  0  0  0  0  0  0  0  0  0  0
  187.4290  176.5680  146.8160 C   0  0  0  0  0  0  0  0  0  0  0  0
  186.6580  177.0880  147.8600 C   0  0  0  0  0  3  0  0  0  0  0  0
  189.3230  174.4110  143.8150 C   0  0  0  0  0  3  0  0  0  0  0  0
  188.0790  175.6220  142.0960 C   0  0  0  0  0  0  0  0  0  0  0  0
  187.7830  175.6870  140.6200 C   0  0  0  0  0  2  0  0  0  0  0  0
  191.7630  175.8550  146.6490 C   0  0  0  0  0  3  0  0  0  0  0  0
  190.6080  176.2100  146.0940 C   0  0  0  0  0  3  0  0  0  0  0  0
  192.9170  176.8030  146.6070 C   0  0  0  0  0  2  0  0  0  0  0  0
  194.2380  176.0720  146.3770 C   0  0  0  0  0  2  0  0  0  0  0  0
  194.3850  175.5170  144.9620 C   0  0  0  0  0  2  0  0  0  0  0  0
  196.1070  175.8530  143.2260 C   0  0  0  0  0  1  0  0  0  0  0  0
  195.8400  175.2730  144.6010 C   0  0  2  0  0  3  0  0  0  0  0  0
  196.7620  173.1530  145.6440 C   0  0  0  0  0  0  0  0  0  0  0  0
  197.1490  173.7730  146.6700 O   0  0  0  0  0  0  0  0  0  0  0  0
  197.0010  171.6910  145.5320 C   0  0  0  0  0  1  0  0  0  0  0  0
  196.0950  173.8400  144.5840 N   0  0  0  0  0  2  0  0  0  0  0  0
  1  6  1  0  0  0  0
  2  3  1  6  0  0  0
  2 13  1  0  0  0  0
  2  5  1  0  0  0  0
  4  7  1  0  0  0  0
  5 16  2  0  0  0  0
  6 17  2  0  0  0  0
  7  3  1  0  0  0  0
  8 22  1  6  0  0  0
  8 12  1  0  0  0  0
  9  1  1  0  0  0  0
 10 18  2  0  0  0  0
 11 15  1  6  0  0  0
 11 20  1  0  0  0  0
 11  4  1  0  0  0  0
 13  8  1  0  0  0  0
 14  5  1  0  0  0  0
 14  1  2  0  0  0  0
 16 12  1  0  0  0  0
 16 17  1  0  0  0  0
 18 13  1  0  0  0  0
 19 10  1  0  0  0  0
 19  3  2  0  0  0  0
 20 19  1  0  0  0  0
 22 21  2  0  0  0  0
 23 21  1  0  0  0  0
 24 23  1  0  0  0  0
 25 24  1  0  0  0  0
 27 26  1  6  0  0  0
 27 25  1  0  0  0  0
 28 29  2  0  0  0  0
 30 28  1  0  0  0  0
 31 27  1  0  0  0  0
 31 28  1  0  0  0  0
M  END
>  <MODEL>
8

>  <REMARK>
 VINA RESULT:      -6.6      3.008      5.272
  Name = 
  6 active torsions:
  status: ('A' for Active; 'I' for Inactive)
    1  A    between atoms: C_3  and  C_19
    2  A    between atoms: C_3  and  C_22
    3  A    between atoms: C_7  and  C_9
    4  A    between atoms: C_7  and  C_22
    5  A    between atoms: C_15  and  C_23
    6  A    between atoms: C_19  and  N_24
                            x       y       z     vdW  Elec       q    Type
                         _______ _______ _______ _____ _____    ______ ____

>  <TORSDO>
F 6

$$$$
=
 OpenBabel11052417493D

 31 34  0  0  1  0  0  0  0  0999 V2000
  185.9740  177.7340  147.2140 C   0  0  0  0  0  0  0  0  0  0  0  0
  188.4350  177.4300  144.4790 C   0  0  1  0  0  3  0  0  0  0  0  0
  189.7630  177.1710  145.1340 C   0  0  0  0  0  0  0  0  0  0  0  0
  191.2000  176.7700  147.1840 C   0  0  0  0  0  2  0  0  0  0  0  0
  187.2550  177.5610  145.1420 C   0  0  0  0  0  0  0  0  0  0  0  0
  184.8190  178.0250  146.4910 C   0  0  0  0  0  3  0  0  0  0  0  0
  189.8450  176.5680  146.5210 C   0  0  0  0  0  2  0  0  0  0  0  0
  187.2030  177.5240  142.2850 C   0  0  1  0  0  3  0  0  0  0  0  0
  185.9290  177.6720  148.6000 O   0  0  0  0  0  1  0  0  0  0  0  0
  190.8300  177.7170  142.9790 C   0  0  0  0  0  3  0  0  0  0  0  0
  192.2790  176.2900  146.2350 C   0  0  2  0  0  3  0  0  0  0  0  0
  186.0510  177.8690  143.1170 N   0  0  0  0  0  2  0  0  0  0  0  0
  188.4360  177.6480  143.0530 N   0  0  0  0  0  0  0  0  0  0  0  0
  187.1780  177.5140  146.5450 C   0  0  0  0  0  3  0  0  0  0  0  0
  193.8670  176.4080  147.0260 Cl  0  0  0  0  0  0  0  0  0  0  0  0
  186.0630  177.8370  144.4170 C   0  0  0  0  0  0  0  0  0  0  0  0
  184.8660  178.0780  145.0980 C   0  0  0  0  0  3  0  0  0  0  0  0
  189.6660  177.8550  142.3520 C   0  0  0  0  0  3  0  0  0  0  0  0
  190.8930  177.3160  144.3940 C   0  0  0  0  0  0  0  0  0  0  0  0
  192.2680  177.1640  144.9890 C   0  0  0  0  0  2  0  0  0  0  0  0
  187.5970  175.0930  142.4910 C   0  0  0  0  0  3  0  0  0  0  0  0
  187.0680  176.1100  141.8170 C   0  0  0  0  0  3  0  0  0  0  0  0
  187.4530  173.7050  141.9540 C   0  0  0  0  0  2  0  0  0  0  0  0
  188.6300  172.8200  142.3590 C   0  0  0  0  0  2  0  0  0  0  0  0
  189.9730  173.5460  142.3260 C   0  0  0  0  0  2  0  0  0  0  0  0
  192.0010  174.1040  141.0340 C   0  0  0  0  0  1  0  0  0  0  0  0
  190.7020  173.3220  141.0130 C   0  0  2  0  0  3  0  0  0  0  0  0
  189.8510  173.1720  138.6290 C   0  0  0  0  0  0  0  0  0  0  0  0
  190.5610  172.1590  138.3910 O   0  0  0  0  0  0  0  0  0  0  0  0
  188.9850  173.7310  137.5590 C   0  0  0  0  0  1  0  0  0  0  0  0
  189.8680  173.7900  139.9160 N   0  0  0  0  0  2  0  0  0  0  0  0
  1  9  1  0  0  0  0
  2  3  1  1  0  0  0
  2  5  1  0  0  0  0
  3  7  1  0  0  0  0
  5 14  2  0  0  0  0
  6  1  2  0  0  0  0
  7  4  1  0  0  0  0
  8 22  1  1  0  0  0
  8 13  1  0  0  0  0
  8 12  1  0  0  0  0
 10 19  1  0  0  0  0
 11 15  1  1  0  0  0
 11  4  1  0  0  0  0
 12 16  1  0  0  0  0
 13  2  1  0  0  0  0
 14  1  1  0  0  0  0
 16 17  2  0  0  0  0
 16  5  1  0  0  0  0
 17  6  1  0  0  0  0
 18 10  2  0  0  0  0
 18 13  1  0  0  0  0
 19 20  1  0  0  0  0
 19  3  2  0  0  0  0
 20 11  1  0  0  0  0
 22 21  2  0  0  0  0
 23 24  1  0  0  0  0
 23 21  1  0  0  0  0
 25 24  1  0  0  0  0
 27 26  1  1  0  0  0
 27 25  1  0  0  0  0
 28 31  1  0  0  0  0
 29 28  2  0  0  0  0
 30 28  1  0  0  0  0
 31 27  1  0  0  0  0
M  END
>  <MODEL>
9

>  <REMARK>
 VINA RESULT:      -6.5      2.343      3.282
  Name = 
  6 active torsions:
  status: ('A' for Active; 'I' for Inactive)
    1  A    between atoms: C_3  and  C_19
    2  A    between atoms: C_3  and  C_22
    3  A    between atoms: C_7  and  C_9
    4  A    between atoms: C_7  and  C_22
    5  A    between atoms: C_15  and  C_23
    6  A    between atoms: C_19  and  N_24
                            x       y       z     vdW  Elec       q    Type
                         _______ _______ _______ _____ _____    ______ ____

>  <TORSDO>
F 6

$$$$
