=
 OpenBabel11052417253D

 25 28  0  0  1  0  0  0  0  0999 V2000
  188.1760  176.0960  144.5190 C   0  0  0  0  0  0  0  0  0  0  0  0
  187.1090  177.0100  144.4990 C   0  0  0  0  0  0  0  0  0  0  0  0
  188.2430  176.1700  146.9050 N   0  0  0  0  0  0  0  0  0  0  0  0
  188.8200  175.5080  143.3930 N   0  0  0  0  0  0  0  0  0  0  0  0
  184.2310  177.8970  142.2590 N   0  0  0  0  0  2  0  0  0  0  0  0
  190.4450  174.2030  141.4800 C   0  0  0  0  0  2  0  0  0  0  0  0
  187.2150  177.0610  146.9270 C   0  0  0  0  0  3  0  0  0  0  0  0
  189.8900  174.6700  143.8280 C   0  0  0  0  0  0  0  0  0  0  0  0
  190.6400  173.9970  142.9580 C   0  0  0  0  0  3  0  0  0  0  0  0
  185.5090  178.5210  145.7230 C   0  0  2  0  0  3  0  0  0  0  0  0
  184.6320  178.4470  146.9630 C   0  0  0  0  0  1  0  0  0  0  0  0
  186.5410  177.5520  143.2160 C   0  0  0  0  0  2  0  0  0  0  0  0
  188.9850  174.5300  141.1520 C   0  0  0  0  0  2  0  0  0  0  0  0
  188.7130  175.6850  145.7290 C   0  0  0  0  0  0  0  0  0  0  0  0
  190.0750  174.5220  145.6090 S   0  0  0  0  0  0  0  0  0  0  0  0
  184.6640  178.3840  144.5350 N   0  0  0  0  0  0  0  0  0  0  0  0
  188.5200  175.7320  141.9780 C   0  0  0  0  0  2  0  0  0  0  0  0
  185.1080  177.9660  143.3850 C   0  0  0  0  0  0  0  0  0  0  0  0
  186.6110  177.4860  145.7300 C   0  0  0  0  0  0  0  0  0  0  0  0
  182.9410  178.3230  142.3270 O   0  0  0  0  0  0  0  0  0  0  0  0
  182.3720  178.1390  141.0490 C   0  0  2  0  0  3  0  0  0  0  0  0
  183.1900  178.6250  140.0380 F   0  0  0  0  0  0  0  0  0  0  0  0
  180.9880  178.7070  140.9620 C   0  0  0  0  0  0  0  0  0  0  0  0
  180.0320  178.0400  141.3250 O   0  0  0  0  0  0  0  0  0  0  0  0
  180.7880  179.9570  140.4690 F   0  0  0  0  0  0  0  0  0  0  0  0
  1 14  1  0  0  0  0
  2  1  2  0  0  0  0
  2 19  1  0  0  0  0
  3  7  1  0  0  0  0
  4  8  1  0  0  0  0
  4  1  1  0  0  0  0
  5 20  1  0  0  0  0
  5 18  1  0  0  0  0
  6  9  1  0  0  0  0
  8 15  1  0  0  0  0
  9  8  2  0  0  0  0
 10 19  1  0  0  0  0
 10 11  1  1  0  0  0
 12 18  1  0  0  0  0
 12  2  1  0  0  0  0
 13  6  1  0  0  0  0
 13 17  1  0  0  0  0
 14  3  2  0  0  0  0
 15 14  1  0  0  0  0
 16 10  1  0  0  0  0
 17  4  1  0  0  0  0
 18 16  2  0  0  0  0
 19  7  2  0  0  0  0
 21 22  1  6  0  0  0
 21 20  1  0  0  0  0
 23 21  1  0  0  0  0
 23 24  2  0  0  0  0
 25 23  1  0  0  0  0
M  END
>  <MODEL>
1

>  <REMARK>
 VINA RESULT:      -7.4      0.000      0.000
  Name = 
  3 active torsions:
  status: ('A' for Active; 'I' for Inactive)
    1  A    between atoms: C_2  and  C_21
    2  A    between atoms: N_6  and  O_15
    3  A    between atoms: O_15  and  C_21
                            x       y       z     vdW  Elec       q    Type
                         _______ _______ _______ _____ _____    ______ ____

>  <TORSDO>
F 3

$$$$
=
 OpenBabel11052417253D

 25 28  0  0  1  0  0  0  0  0999 V2000
  192.0210  176.5560  145.0310 C   0  0  0  0  0  0  0  0  0  0  0  0
  190.6640  176.8760  144.8490 C   0  0  0  0  0  0  0  0  0  0  0  0
  191.7210  176.4780  147.4000 N   0  0  0  0  0  0  0  0  0  0  0  0
  193.0100  176.4140  144.0170 N   0  0  0  0  0  0  0  0  0  0  0  0
  188.0380  176.5020  142.1940 N   0  0  0  0  0  2  0  0  0  0  0  0
  195.2980  176.1470  142.3750 C   0  0  0  0  0  2  0  0  0  0  0  0
  190.4040  176.7920  147.2640 C   0  0  0  0  0  3  0  0  0  0  0  0
  194.2770  176.1340  144.6110 C   0  0  0  0  0  0  0  0  0  0  0  0
  195.3650  175.9470  143.8650 C   0  0  0  0  0  3  0  0  0  0  0  0
  188.3950  177.3880  145.8140 C   0  0  2  0  0  3  0  0  0  0  0  0
  187.4960  176.8280  146.9040 C   0  0  0  0  0  1  0  0  0  0  0  0
  190.0900  177.1880  143.4950 C   0  0  0  0  0  2  0  0  0  0  0  0
  193.9130  175.7890  141.8260 C   0  0  0  0  0  2  0  0  0  0  0  0
  192.5180  176.3510  146.3090 C   0  0  0  0  0  0  0  0  0  0  0  0
  194.2660  175.9560  146.3980 S   0  0  0  0  0  0  0  0  0  0  0  0
  187.8810  176.9650  144.5090 N   0  0  0  0  0  0  0  0  0  0  0  0
  192.8360  176.5780  142.5730 C   0  0  0  0  0  2  0  0  0  0  0  0
  188.6210  176.8840  143.4410 C   0  0  0  0  0  0  0  0  0  0  0  0
  189.8400  176.9780  145.9890 C   0  0  0  0  0  0  0  0  0  0  0  0
  186.7030  176.2810  142.0620 O   0  0  0  0  0  0  0  0  0  0  0  0
  186.1680  177.3670  141.3380 C   0  0  2  0  0  3  0  0  0  0  0  0
  187.1420  178.0420  140.6140 F   0  0  0  0  0  0  0  0  0  0  0  0
  185.3860  178.2980  142.2140 C   0  0  0  0  0  0  0  0  0  0  0  0
  184.1900  178.1220  142.3750 O   0  0  0  0  0  0  0  0  0  0  0  0
  186.0000  179.3460  142.8230 F   0  0  0  0  0  0  0  0  0  0  0  0
  1 14  1  0  0  0  0
  2  1  2  0  0  0  0
  2 19  1  0  0  0  0
  4  8  1  0  0  0  0
  4  1  1  0  0  0  0
  5 18  1  0  0  0  0
  6  9  1  0  0  0  0
  7  3  1  0  0  0  0
  8 15  1  0  0  0  0
  9  8  2  0  0  0  0
 10 19  1  0  0  0  0
 10 11  1  1  0  0  0
 12  2  1  0  0  0  0
 13  6  1  0  0  0  0
 13 17  1  0  0  0  0
 14 15  1  0  0  0  0
 14  3  2  0  0  0  0
 16 10  1  0  0  0  0
 17  4  1  0  0  0  0
 18 12  1  0  0  0  0
 18 16  2  0  0  0  0
 19  7  2  0  0  0  0
 20  5  1  0  0  0  0
 21 22  1  1  0  0  0
 21 20  1  0  0  0  0
 21 23  1  0  0  0  0
 23 24  2  0  0  0  0
 23 25  1  0  0  0  0
M  END
>  <MODEL>
2

>  <REMARK>
 VINA RESULT:      -7.1      3.273      4.180
  Name = 
  3 active torsions:
  status: ('A' for Active; 'I' for Inactive)
    1  A    between atoms: C_2  and  C_21
    2  A    between atoms: N_6  and  O_15
    3  A    between atoms: O_15  and  C_21
                            x       y       z     vdW  Elec       q    Type
                         _______ _______ _______ _____ _____    ______ ____

>  <TORSDO>
F 3

$$$$
=
 OpenBabel11052417253D

 25 28  0  0  1  0  0  0  0  0999 V2000
  186.7420  177.8480  143.7610 C   0  0  0  0  0  0  0  0  0  0  0  0
  186.1400  178.0100  142.5010 C   0  0  0  0  0  0  0  0  0  0  0  0
  184.6590  178.2720  144.8510 N   0  0  0  0  0  0  0  0  0  0  0  0
  188.1120  177.5650  144.0240 N   0  0  0  0  0  0  0  0  0  0  0  0
  186.6860  176.8490  138.9740 N   0  0  0  0  0  2  0  0  0  0  0  0
  190.7260  177.1240  145.0130 C   0  0  0  0  0  2  0  0  0  0  0  0
  184.0420  178.4430  143.6500 C   0  0  0  0  0  3  0  0  0  0  0  0
  188.3380  177.5240  145.4330 C   0  0  0  0  0  0  0  0  0  0  0  0
  189.5440  177.2640  145.9330 C   0  0  0  0  0  3  0  0  0  0  0  0
  184.1130  178.5400  141.1050 C   0  0  2  0  0  3  0  0  0  0  0  0
  182.6390  178.1660  141.0910 C   0  0  0  0  0  1  0  0  0  0  0  0
  186.9320  177.9680  141.2240 C   0  0  0  0  0  2  0  0  0  0  0  0
  190.3100  176.5440  143.6570 C   0  0  0  0  0  2  0  0  0  0  0  0
  185.9810  177.9710  144.9130 C   0  0  0  0  0  0  0  0  0  0  0  0
  186.8760  177.7470  146.4520 S   0  0  0  0  0  0  0  0  0  0  0  0
  184.8010  177.8000  140.0450 N   0  0  0  0  0  0  0  0  0  0  0  0
  189.1890  177.3900  143.0490 C   0  0  0  0  0  2  0  0  0  0  0  0
  186.0770  177.5430  140.0650 C   0  0  0  0  0  0  0  0  0  0  0  0
  184.7600  178.2960  142.4490 C   0  0  0  0  0  0  0  0  0  0  0  0
  185.9830  176.4990  137.8640 O   0  0  0  0  0  0  0  0  0  0  0  0
  186.8410  175.7310  137.0500 C   0  0  2  0  0  3  0  0  0  0  0  0
  187.9020  175.1950  137.7680 F   0  0  0  0  0  0  0  0  0  0  0  0
  187.3150  176.4970  135.8510 C   0  0  0  0  0  0  0  0  0  0  0  0
  187.2880  175.9780  134.7480 O   0  0  0  0  0  0  0  0  0  0  0  0
  187.7860  177.7640  135.9880 F   0  0  0  0  0  0  0  0  0  0  0  0
  1  4  1  0  0  0  0
  1 14  1  0  0  0  0
  2  1  2  0  0  0  0
  3 14  2  0  0  0  0
  4  8  1  0  0  0  0
  5 18  1  0  0  0  0
  6  9  1  0  0  0  0
  7  3  1  0  0  0  0
  8  9  2  0  0  0  0
  8 15  1  0  0  0  0
 10 11  1  1  0  0  0
 10 19  1  0  0  0  0
 12  2  1  0  0  0  0
 13  6  1  0  0  0  0
 14 15  1  0  0  0  0
 16 18  2  0  0  0  0
 16 10  1  0  0  0  0
 17 13  1  0  0  0  0
 17  4  1  0  0  0  0
 18 12  1  0  0  0  0
 19  2  1  0  0  0  0
 19  7  2  0  0  0  0
 20  5  1  0  0  0  0
 21 22  1  1  0  0  0
 21 20  1  0  0  0  0
 23 25  1  0  0  0  0
 23 21  1  0  0  0  0
 24 23  2  0  0  0  0
M  END
>  <MODEL>
3

>  <REMARK>
 VINA RESULT:      -7.1      3.701      5.126
  Name = 
  3 active torsions:
  status: ('A' for Active; 'I' for Inactive)
    1  A    between atoms: C_2  and  C_21
    2  A    between atoms: N_6  and  O_15
    3  A    between atoms: O_15  and  C_21
                            x       y       z     vdW  Elec       q    Type
                         _______ _______ _______ _____ _____    ______ ____

>  <TORSDO>
F 3

$$$$
=
 OpenBabel11052417253D

 25 28  0  0  1  0  0  0  0  0999 V2000
  187.0370  176.7900  144.2150 C   0  0  0  0  0  0  0  0  0  0  0  0
  188.1770  176.0230  144.5140 C   0  0  0  0  0  0  0  0  0  0  0  0
  186.5480  177.0340  146.5410 N   0  0  0  0  0  0  0  0  0  0  0  0
  186.5510  177.1320  142.9220 N   0  0  0  0  0  0  0  0  0  0  0  0
  191.4860  175.2080  142.9420 N   0  0  0  0  0  2  0  0  0  0  0  0
  185.1760  177.9490  140.5890 C   0  0  0  0  0  2  0  0  0  0  0  0
  187.6400  176.2900  146.8700 C   0  0  0  0  0  3  0  0  0  0  0  0
  185.3410  177.8800  143.0400 C   0  0  0  0  0  0  0  0  0  0  0  0
  184.6970  178.3280  141.9640 C   0  0  0  0  0  3  0  0  0  0  0  0
  189.6730  174.9060  146.2040 C   0  0  2  0  0  3  0  0  0  0  0  0
  190.2990  175.2590  147.5440 C   0  0  0  0  0  1  0  0  0  0  0  0
  189.0180  175.3870  143.4420 C   0  0  0  0  0  2  0  0  0  0  0  0
  186.6970  177.7660  140.5590 C   0  0  0  0  0  2  0  0  0  0  0  0
  186.2520  177.2900  145.2420 C   0  0  0  0  0  0  0  0  0  0  0  0
  184.8250  178.2460  144.7210 S   0  0  0  0  0  0  0  0  0  0  0  0
  190.7000  174.9850  145.1640 N   0  0  0  0  0  0  0  0  0  0  0  0
  187.1230  176.7570  141.6280 C   0  0  0  0  0  2  0  0  0  0  0  0
  190.4310  175.1830  143.9060 C   0  0  0  0  0  0  0  0  0  0  0  0
  188.4900  175.7860  145.8690 C   0  0  0  0  0  0  0  0  0  0  0  0
  192.7780  174.9610  143.2850 O   0  0  0  0  0  0  0  0  0  0  0  0
  193.4460  176.2030  143.3230 C   0  0  2  0  0  3  0  0  0  0  0  0
  194.3440  176.3450  142.2740 F   0  0  0  0  0  0  0  0  0  0  0  0
  194.1000  176.4500  144.6490 C   0  0  0  0  0  0  0  0  0  0  0  0
  195.3140  176.3940  144.7500 O   0  0  0  0  0  0  0  0  0  0  0  0
  193.3460  176.7260  145.7450 F   0  0  0  0  0  0  0  0  0  0  0  0
  1  2  2  0  0  0  0
  1 14  1  0  0  0  0
  2 19  1  0  0  0  0
  3  7  1  0  0  0  0
  4  8  1  0  0  0  0
  4  1  1  0  0  0  0
  5 20  1  0  0  0  0
  5 18  1  0  0  0  0
  6  9  1  0  0  0  0
  8 15  1  0  0  0  0
  9  8  2  0  0  0  0
 10 11  1  1  0  0  0
 12 18  1  0  0  0  0
 12  2  1  0  0  0  0
 13  6  1  0  0  0  0
 13 17  1  0  0  0  0
 14  3  2  0  0  0  0
 15 14  1  0  0  0  0
 16 10  1  0  0  0  0
 17  4  1  0  0  0  0
 18 16  2  0  0  0  0
 19 10  1  0  0  0  0
 19  7  2  0  0  0  0
 20 21  1  0  0  0  0
 21 22  1  6  0  0  0
 21 23  1  0  0  0  0
 23 24  2  0  0  0  0
 23 25  1  0  0  0  0
M  END
>  <MODEL>
4

>  <REMARK>
 VINA RESULT:      -7.1      5.419      7.646
  Name = 
  3 active torsions:
  status: ('A' for Active; 'I' for Inactive)
    1  A    between atoms: C_2  and  C_21
    2  A    between atoms: N_6  and  O_15
    3  A    between atoms: O_15  and  C_21
                            x       y       z     vdW  Elec       q    Type
                         _______ _______ _______ _____ _____    ______ ____

>  <TORSDO>
F 3

$$$$
=
 OpenBabel11052417253D

 25 28  0  0  1  0  0  0  0  0999 V2000
  185.7790  177.8240  143.7220 C   0  0  0  0  0  0  0  0  0  0  0  0
  186.6230  177.3250  142.7150 C   0  0  0  0  0  0  0  0  0  0  0  0
  184.2700  178.6840  142.0820 N   0  0  0  0  0  0  0  0  0  0  0  0
  185.9850  177.7420  145.1280 N   0  0  0  0  0  0  0  0  0  0  0  0
  189.1460  174.5790  142.2910 N   0  0  0  0  0  2  0  0  0  0  0  0
  186.0320  177.9130  147.9520 C   0  0  0  0  0  2  0  0  0  0  0  0
  185.0640  178.2200  141.0780 C   0  0  0  0  0  3  0  0  0  0  0  0
  184.9270  178.4120  145.8140 C   0  0  0  0  0  0  0  0  0  0  0  0
  184.8880  178.4640  147.1440 C   0  0  0  0  0  3  0  0  0  0  0  0
  187.1750  177.0420  140.2740 C   0  0  2  0  0  3  0  0  0  0  0  0
  186.4340  176.6760  138.9980 C   0  0  0  0  0  1  0  0  0  0  0  0
  187.9420  176.6730  143.0250 C   0  0  0  0  0  2  0  0  0  0  0  0
  186.6930  176.7270  147.2430 C   0  0  0  0  0  2  0  0  0  0  0  0
  184.6100  178.4850  143.3800 C   0  0  0  0  0  0  0  0  0  0  0  0
  183.6300  179.0760  144.7630 S   0  0  0  0  0  0  0  0  0  0  0  0
  187.9660  175.8900  140.7130 N   0  0  0  0  0  0  0  0  0  0  0  0
  187.1150  177.1320  145.8290 C   0  0  0  0  0  2  0  0  0  0  0  0
  188.3410  175.7080  141.9460 C   0  0  0  0  0  0  0  0  0  0  0  0
  186.2450  177.5140  141.3690 C   0  0  0  0  0  0  0  0  0  0  0  0
  189.6000  173.7060  141.3510 O   0  0  0  0  0  0  0  0  0  0  0  0
  189.0240  172.4500  141.6330 C   0  0  2  0  0  3  0  0  0  0  0  0
  187.6410  172.5200  141.7360 F   0  0  0  0  0  0  0  0  0  0  0  0
  189.6370  171.8090  142.8410 C   0  0  0  0  0  0  0  0  0  0  0  0
  190.7650  171.3490  142.7810 O   0  0  0  0  0  0  0  0  0  0  0  0
  188.9380  171.7250  144.0040 F   0  0  0  0  0  0  0  0  0  0  0  0
  1  4  1  0  0  0  0
  2 12  1  0  0  0  0
  2  1  2  0  0  0  0
  3 14  2  0  0  0  0
  4  8  1  0  0  0  0
  4 17  1  0  0  0  0
  7 19  2  0  0  0  0
  7  3  1  0  0  0  0
  8  9  2  0  0  0  0
  9  6  1  0  0  0  0
 10 11  1  6  0  0  0
 10 16  1  0  0  0  0
 10 19  1  0  0  0  0
 13  6  1  0  0  0  0
 14  1  1  0  0  0  0
 14 15  1  0  0  0  0
 15  8  1  0  0  0  0
 16 18  2  0  0  0  0
 17 13  1  0  0  0  0
 18  5  1  0  0  0  0
 18 12  1  0  0  0  0
 19  2  1  0  0  0  0
 20 21  1  0  0  0  0
 20  5  1  0  0  0  0
 21 22  1  1  0  0  0
 21 23  1  0  0  0  0
 23 25  1  0  0  0  0
 24 23  2  0  0  0  0
M  END
>  <MODEL>
5

>  <REMARK>
 VINA RESULT:      -7.0      4.362      7.242
  Name = 
  3 active torsions:
  status: ('A' for Active; 'I' for Inactive)
    1  A    between atoms: C_2  and  C_21
    2  A    between atoms: N_6  and  O_15
    3  A    between atoms: O_15  and  C_21
                            x       y       z     vdW  Elec       q    Type
                         _______ _______ _______ _____ _____    ______ ____

>  <TORSDO>
F 3

$$$$
=
 OpenBabel11052417253D

 25 28  0  0  1  0  0  0  0  0999 V2000
  186.5200  177.6920  144.6910 C   0  0  0  0  0  0  0  0  0  0  0  0
  187.8250  177.1920  144.8390 C   0  0  0  0  0  0  0  0  0  0  0  0
  186.3530  178.0520  147.0470 N   0  0  0  0  0  0  0  0  0  0  0  0
  185.7810  177.8110  143.4800 N   0  0  0  0  0  0  0  0  0  0  0  0
  190.9510  176.8920  142.7830 N   0  0  0  0  0  2  0  0  0  0  0  0
  183.9260  178.1240  141.3680 C   0  0  0  0  0  2  0  0  0  0  0  0
  187.6120  177.5690  147.2310 C   0  0  0  0  0  3  0  0  0  0  0  0
  184.4750  178.3170  143.7550 C   0  0  0  0  0  0  0  0  0  0  0  0
  183.5960  178.5290  142.7780 C   0  0  0  0  0  3  0  0  0  0  0  0
  189.7610  176.5500  146.3170 C   0  0  2  0  0  3  0  0  0  0  0  0
  190.4980  177.1420  147.5080 C   0  0  0  0  0  1  0  0  0  0  0  0
  188.6050  176.6350  143.6810 C   0  0  0  0  0  2  0  0  0  0  0  0
  185.4290  178.2380  141.0930 C   0  0  0  0  0  2  0  0  0  0  0  0
  185.8150  178.1240  145.8040 C   0  0  0  0  0  0  0  0  0  0  0  0
  184.1580  178.7310  145.4740 S   0  0  0  0  0  0  0  0  0  0  0  0
  190.5780  176.7300  145.1150 N   0  0  0  0  0  0  0  0  0  0  0  0
  186.2130  177.4350  142.1330 C   0  0  0  0  0  2  0  0  0  0  0  0
  190.0840  176.7530  143.9100 C   0  0  0  0  0  0  0  0  0  0  0  0
  188.3840  177.1480  146.1330 C   0  0  0  0  0  0  0  0  0  0  0  0
  192.3030  176.9340  142.9180 O   0  0  0  0  0  0  0  0  0  0  0  0
  192.8120  175.7190  142.4130 C   0  0  2  0  0  3  0  0  0  0  0  0
  191.8860  175.0550  141.6190 F   0  0  0  0  0  0  0  0  0  0  0  0
  193.3410  174.8350  143.5020 C   0  0  0  0  0  0  0  0  0  0  0  0
  194.5420  174.6440  143.6010 O   0  0  0  0  0  0  0  0  0  0  0  0
  192.4900  174.2340  144.3740 F   0  0  0  0  0  0  0  0  0  0  0  0
  1  2  2  0  0  0  0
  1 14  1  0  0  0  0
  2 19  1  0  0  0  0
  3  7  1  0  0  0  0
  4  8  1  0  0  0  0
  4  1  1  0  0  0  0
  5 20  1  0  0  0  0
  5 18  1  0  0  0  0
  6  9  1  0  0  0  0
  8 15  1  0  0  0  0
  9  8  2  0  0  0  0
 10 11  1  1  0  0  0
 12 18  1  0  0  0  0
 12  2  1  0  0  0  0
 13  6  1  0  0  0  0
 13 17  1  0  0  0  0
 14  3  2  0  0  0  0
 15 14  1  0  0  0  0
 16 10  1  0  0  0  0
 17  4  1  0  0  0  0
 18 16  2  0  0  0  0
 19 10  1  0  0  0  0
 19  7  2  0  0  0  0
 21 22  1  1  0  0  0
 21 20  1  0  0  0  0
 21 23  1  0  0  0  0
 23 24  2  0  0  0  0
 23 25  1  0  0  0  0
M  END
>  <MODEL>
6

>  <REMARK>
 VINA RESULT:      -7.0      4.960      7.383
  Name = 
  3 active torsions:
  status: ('A' for Active; 'I' for Inactive)
    1  A    between atoms: C_2  and  C_21
    2  A    between atoms: N_6  and  O_15
    3  A    between atoms: O_15  and  C_21
                            x       y       z     vdW  Elec       q    Type
                         _______ _______ _______ _____ _____    ______ ____

>  <TORSDO>
F 3

$$$$
=
 OpenBabel11052417253D

 25 28  0  0  1  0  0  0  0  0999 V2000
  187.3850  177.1900  144.2270 C   0  0  0  0  0  0  0  0  0  0  0  0
  188.7500  176.8610  144.1560 C   0  0  0  0  0  0  0  0  0  0  0  0
  187.0950  176.6320  141.9220 N   0  0  0  0  0  0  0  0  0  0  0  0
  186.6800  177.6790  145.3620 N   0  0  0  0  0  0  0  0  0  0  0  0
  191.4660  175.7000  146.4710 N   0  0  0  0  0  2  0  0  0  0  0  0
  184.9220  178.7580  147.2980 C   0  0  0  0  0  2  0  0  0  0  0  0
  188.4140  176.3100  141.8130 C   0  0  0  0  0  3  0  0  0  0  0  0
  185.3200  177.9390  145.0150 C   0  0  0  0  0  0  0  0  0  0  0  0
  184.4520  178.3940  145.9160 C   0  0  0  0  0  3  0  0  0  0  0  0
  190.7450  176.1040  142.8190 C   0  0  2  0  0  3  0  0  0  0  0  0
  191.0520  175.0340  141.7830 C   0  0  0  0  0  1  0  0  0  0  0  0
  189.6840  177.0650  145.3170 C   0  0  0  0  0  2  0  0  0  0  0  0
  186.0990  177.8800  147.7340 C   0  0  0  0  0  2  0  0  0  0  0  0
  186.5830  177.0550  143.1040 C   0  0  0  0  0  0  0  0  0  0  0  0
  184.8620  177.5150  143.3310 S   0  0  0  0  0  0  0  0  0  0  0  0
  191.2970  175.6880  144.1100 N   0  0  0  0  0  0  0  0  0  0  0  0
  187.2190  177.9530  146.6950 C   0  0  0  0  0  2  0  0  0  0  0  0
  190.8490  176.1210  145.2530 C   0  0  0  0  0  0  0  0  0  0  0  0
  189.2660  176.3960  142.9280 C   0  0  0  0  0  0  0  0  0  0  0  0
  192.5680  174.9020  146.4800 O   0  0  0  0  0  0  0  0  0  0  0  0
  193.6760  175.7230  146.7750 C   0  0  2  0  0  3  0  0  0  0  0  0
  193.2920  176.9510  147.2980 F   0  0  0  0  0  0  0  0  0  0  0  0
  194.5880  175.8840  145.5960 C   0  0  0  0  0  0  0  0  0  0  0  0
  195.6220  175.2390  145.5330 O   0  0  0  0  0  0  0  0  0  0  0  0
  194.2760  176.7540  144.6000 F   0  0  0  0  0  0  0  0  0  0  0  0
  1  4  1  0  0  0  0
  2  1  1  0  0  0  0
  2 12  1  0  0  0  0
  3 14  1  0  0  0  0
  4 17  1  0  0  0  0
  5 20  1  0  0  0  0
  6 13  1  0  0  0  0
  7  3  2  0  0  0  0
  7 19  1  0  0  0  0
  8  4  1  0  0  0  0
  8  9  2  0  0  0  0
  9  6  1  0  0  0  0
 10 11  1  6  0  0  0
 10 19  1  0  0  0  0
 10 16  1  0  0  0  0
 14 15  1  0  0  0  0
 14  1  2  0  0  0  0
 15  8  1  0  0  0  0
 16 18  2  0  0  0  0
 17 13  1  0  0  0  0
 18 12  1  0  0  0  0
 18  5  1  0  0  0  0
 19  2  2  0  0  0  0
 20 21  1  0  0  0  0
 21 22  1  6  0  0  0
 23 21  1  0  0  0  0
 24 23  2  0  0  0  0
 25 23  1  0  0  0  0
M  END
>  <MODEL>
7

>  <REMARK>
 VINA RESULT:      -7.0      5.738      8.624
  Name = 
  3 active torsions:
  status: ('A' for Active; 'I' for Inactive)
    1  A    between atoms: C_2  and  C_21
    2  A    between atoms: N_6  and  O_15
    3  A    between atoms: O_15  and  C_21
                            x       y       z     vdW  Elec       q    Type
                         _______ _______ _______ _____ _____    ______ ____

>  <TORSDO>
F 3

$$$$
=
 OpenBabel11052417253D

 25 28  0  0  1  0  0  0  0  0999 V2000
  185.5930  177.7700  143.6060 C   0  0  0  0  0  0  0  0  0  0  0  0
  186.3430  177.4400  144.7470 C   0  0  0  0  0  0  0  0  0  0  0  0
  183.8460  178.6640  144.9690 N   0  0  0  0  0  0  0  0  0  0  0  0
  185.9490  177.5320  142.2490 N   0  0  0  0  0  0  0  0  0  0  0  0
  189.9460  176.9420  145.6730 N   0  0  0  0  0  2  0  0  0  0  0  0
  186.1870  177.1650  139.4540 C   0  0  0  0  0  2  0  0  0  0  0  0
  184.5410  178.3530  146.0980 C   0  0  0  0  0  3  0  0  0  0  0  0
  184.8990  177.9690  141.3860 C   0  0  0  0  0  0  0  0  0  0  0  0
  185.0020  177.8630  140.0630 C   0  0  0  0  0  3  0  0  0  0  0  0
  186.5750  177.3440  147.2530 C   0  0  2  0  0  3  0  0  0  0  0  0
  186.3100  178.2650  148.4330 C   0  0  0  0  0  1  0  0  0  0  0  0
  187.6470  176.6950  144.6600 C   0  0  0  0  0  2  0  0  0  0  0  0
  187.4420  177.3450  140.3140 C   0  0  0  0  0  2  0  0  0  0  0  0
  184.3600  178.3890  143.7440 C   0  0  0  0  0  0  0  0  0  0  0  0
  183.5050  178.7490  142.2070 S   0  0  0  0  0  0  0  0  0  0  0  0
  188.0160  177.3050  146.9950 N   0  0  0  0  0  0  0  0  0  0  0  0
  187.1630  176.8870  141.7470 C   0  0  0  0  0  2  0  0  0  0  0  0
  188.5280  176.9970  145.8380 C   0  0  0  0  0  0  0  0  0  0  0  0
  185.8110  177.7540  146.0150 C   0  0  0  0  0  0  0  0  0  0  0  0
  190.7980  177.1360  146.7160 O   0  0  0  0  0  0  0  0  0  0  0  0
  191.3570  175.8810  147.0380 C   0  0  2  0  0  3  0  0  0  0  0  0
  191.1680  175.5530  148.3740 F   0  0  0  0  0  0  0  0  0  0  0  0
  192.8000  175.7900  146.6440 C   0  0  0  0  0  0  0  0  0  0  0  0
  193.4970  176.7910  146.6450 O   0  0  0  0  0  0  0  0  0  0  0  0
  193.3360  174.5980  146.2730 F   0  0  0  0  0  0  0  0  0  0  0  0
  1 14  2  0  0  0  0
  1  2  1  0  0  0  0
  2 19  2  0  0  0  0
  3  7  2  0  0  0  0
  4  1  1  0  0  0  0
  5 18  1  0  0  0  0
  5 20  1  0  0  0  0
  6  9  1  0  0  0  0
  6 13  1  0  0  0  0
  8 15  1  0  0  0  0
  8  4  1  0  0  0  0
  9  8  2  0  0  0  0
 10 11  1  1  0  0  0
 12  2  1  0  0  0  0
 12 18  1  0  0  0  0
 13 17  1  0  0  0  0
 14  3  1  0  0  0  0
 15 14  1  0  0  0  0
 16 10  1  0  0  0  0
 17  4  1  0  0  0  0
 18 16  2  0  0  0  0
 19  7  1  0  0  0  0
 19 10  1  0  0  0  0
 20 21  1  0  0  0  0
 21 22  1  1  0  0  0
 23 24  2  0  0  0  0
 23 21  1  0  0  0  0
 25 23  1  0  0  0  0
M  END
>  <MODEL>
8

>  <REMARK>
 VINA RESULT:      -6.9      5.426      7.385
  Name = 
  3 active torsions:
  status: ('A' for Active; 'I' for Inactive)
    1  A    between atoms: C_2  and  C_21
    2  A    between atoms: N_6  and  O_15
    3  A    between atoms: O_15  and  C_21
                            x       y       z     vdW  Elec       q    Type
                         _______ _______ _______ _____ _____    ______ ____

>  <TORSDO>
F 3

$$$$
=
 OpenBabel11052417253D

 25 28  0  0  1  0  0  0  0  0999 V2000
  186.8180  176.9770  144.5470 C   0  0  0  0  0  0  0  0  0  0  0  0
  186.8100  177.1500  143.1520 C   0  0  0  0  0  0  0  0  0  0  0  0
  184.8030  178.2440  144.7510 N   0  0  0  0  0  0  0  0  0  0  0  0
  187.7930  176.2830  145.3180 N   0  0  0  0  0  0  0  0  0  0  0  0
  188.1000  175.3700  140.1100 N   0  0  0  0  0  2  0  0  0  0  0  0
  189.5180  175.1220  147.2360 C   0  0  0  0  0  2  0  0  0  0  0  0
  184.7650  178.4390  143.4040 C   0  0  0  0  0  3  0  0  0  0  0  0
  187.4710  176.3740  146.7050 C   0  0  0  0  0  0  0  0  0  0  0  0
  188.2300  175.7920  147.6310 C   0  0  0  0  0  3  0  0  0  0  0  0
  185.7670  178.1330  141.0820 C   0  0  2  0  0  3  0  0  0  0  0  0
  184.3690  178.2890  140.5040 C   0  0  0  0  0  1  0  0  0  0  0  0
  187.9280  176.6530  142.2770 C   0  0  0  0  0  2  0  0  0  0  0  0
  189.4270  174.5290  145.8270 C   0  0  0  0  0  2  0  0  0  0  0  0
  185.8020  177.5210  145.3170 C   0  0  0  0  0  0  0  0  0  0  0  0
  185.9380  177.2310  147.0830 S   0  0  0  0  0  0  0  0  0  0  0  0
  186.4580  177.0550  140.3710 N   0  0  0  0  0  0  0  0  0  0  0  0
  188.9980  175.6100  144.8310 C   0  0  0  0  0  2  0  0  0  0  0  0
  187.4490  176.3820  140.8800 C   0  0  0  0  0  0  0  0  0  0  0  0
  185.7520  177.8810  142.5720 C   0  0  0  0  0  0  0  0  0  0  0  0
  187.7610  175.1240  138.8150 O   0  0  0  0  0  0  0  0  0  0  0  0
  188.6650  174.1600  138.3220 C   0  0  2  0  0  3  0  0  0  0  0  0
  188.4800  173.9150  136.9680 F   0  0  0  0  0  0  0  0  0  0  0  0
  188.6300  172.8940  139.1240 C   0  0  0  0  0  0  0  0  0  0  0  0
  189.6700  172.3960  139.5220 O   0  0  0  0  0  0  0  0  0  0  0  0
  187.4450  172.2890  139.4020 F   0  0  0  0  0  0  0  0  0  0  0  0
  1 14  1  0  0  0  0
  1  4  1  0  0  0  0
  2  1  2  0  0  0  0
  3 14  2  0  0  0  0
  4  8  1  0  0  0  0
  5 18  1  0  0  0  0
  6  9  1  0  0  0  0
  7  3  1  0  0  0  0
  8 15  1  0  0  0  0
  8  9  2  0  0  0  0
 10 11  1  6  0  0  0
 10 19  1  0  0  0  0
 12  2  1  0  0  0  0
 13  6  1  0  0  0  0
 14 15  1  0  0  0  0
 16 18  2  0  0  0  0
 16 10  1  0  0  0  0
 17  4  1  0  0  0  0
 17 13  1  0  0  0  0
 18 12  1  0  0  0  0
 19  2  1  0  0  0  0
 19  7  2  0  0  0  0
 20  5  1  0  0  0  0
 21 22  1  6  0  0  0
 21 20  1  0  0  0  0
 21 23  1  0  0  0  0
 23 25  1  0  0  0  0
 23 24  2  0  0  0  0
M  END
>  <MODEL>
9

>  <REMARK>
 VINA RESULT:      -6.8      3.900      5.795
  Name = 
  3 active torsions:
  status: ('A' for Active; 'I' for Inactive)
    1  A    between atoms: C_2  and  C_21
    2  A    between atoms: N_6  and  O_15
    3  A    between atoms: O_15  and  C_21
                            x       y       z     vdW  Elec       q    Type
                         _______ _______ _______ _____ _____    ______ ____

>  <TORSDO>
F 3

$$$$
