=
 OpenBabel11052418073D

 28 33  0  0  1  0  0  0  0  0999 V2000
  191.2380  173.5790  144.2460 C   0  0  0  0  0  0  0  0  0  0  0  0
  190.3660  172.6510  143.4200 C   0  0  1  0  0  3  0  0  0  0  0  0
  188.6840  174.4880  143.2240 C   0  0  2  0  0  3  0  0  0  0  0  0
  187.2240  178.2590  144.6820 C   0  0  0  0  0  2  0  0  0  0  0  0
  193.7600  176.1030  146.6700 C   0  0  0  0  0  1  0  0  0  0  0  0
  191.0790  173.0520  140.4540 C   0  0  0  0  0  2  0  0  0  0  0  0
  189.4640  173.4310  142.4410 C   0  0  1  0  0  3  0  0  0  0  0  0
  190.4080  170.8410  141.6050 C   0  0  0  0  0  2  0  0  0  0  0  0
  185.8340  176.9070  142.3660 C   0  0  0  0  0  2  0  0  0  0  0  0
  189.2110  176.7400  144.2840 C   0  0  0  0  0  0  0  0  0  0  0  0
  191.1520  171.4940  142.7730 C   0  0  0  0  0  2  0  0  0  0  0  0
  185.7990  178.6520  144.2510 C   0  0  2  0  0  0  0  0  0  0  0  0
  187.9480  177.3320  143.6910 C   0  0  1  0  0  3  0  0  0  0  0  0
  187.6900  175.2350  142.3390 C   0  0  0  0  0  2  0  0  0  0  0  0
  185.5380  178.3620  142.7670 C   0  0  0  0  0  2  0  0  0  0  0  0
  191.6540  175.7540  145.3000 C   0  0  0  0  0  0  0  0  0  0  0  0
  189.6060  175.4120  143.9950 C   0  0  0  0  0  0  0  0  0  0  0  0
  186.9670  176.2720  143.1770 C   0  0  2  0  0  3  0  0  0  0  0  0
  193.2300  173.9330  145.5950 C   0  0  0  0  0  3  0  0  0  0  0  0
  191.2640  177.0760  145.5370 C   0  0  0  0  0  3  0  0  0  0  0  0
  192.8580  175.2560  145.8350 C   0  0  0  0  0  0  0  0  0  0  0  0
  190.4370  171.6670  140.3060 C   0  0  0  0  0  2  0  0  0  0  0  0
  185.6310  180.0170  144.4740 O   0  0  0  0  0  1  0  0  0  0  0  0
  184.7970  177.8980  145.1070 C   0  0  0  0  0  1  0  0  0  0  0  0
  190.0640  177.5650  145.0250 C   0  0  0  0  0  3  0  0  0  0  0  0
  192.4270  173.1030  144.8150 C   0  0  0  0  0  3  0  0  0  0  0  0
  190.8260  174.9100  144.5150 C   0  0  0  0  0  0  0  0  0  0  0  0
  190.2120  174.0410  141.2400 C   0  0  0  0  0  2  0  0  0  0  0  0
  1 27  2  0  0  0  0
  1 26  1  0  0  0  0
  2 11  1  6  0  0  0
  2  1  1  0  0  0  0
  3 14  1  6  0  0  0
  3 17  1  0  0  0  0
  6 28  1  0  0  0  0
  7 28  1  6  0  0  0
  7  3  1  0  0  0  0
  7  2  1  0  0  0  0
  8 11  1  0  0  0  0
  9 15  1  0  0  0  0
  9 18  1  0  0  0  0
 10 25  1  0  0  0  0
 12 23  1  0  0  0  0
 12  4  1  0  0  0  0
 12 24  1  1  0  0  0
 13 10  1  0  0  0  0
 13  4  1  1  0  0  0
 15 12  1  0  0  0  0
 16 20  1  0  0  0  0
 16 21  2  0  0  0  0
 17 10  2  0  0  0  0
 17 27  1  0  0  0  0
 18 14  1  6  0  0  0
 18 13  1  0  0  0  0
 19 21  1  0  0  0  0
 21  5  1  0  0  0  0
 22  6  1  0  0  0  0
 22  8  1  0  0  0  0
 25 20  2  0  0  0  0
 26 19  2  0  0  0  0
 27 16  1  0  0  0  0
M  END
>  <MODEL>
1

>  <REMARK>
 VINA RESULT:      -8.7      0.000      0.000
  Name = 
  0 active torsions:
  status: ('A' for Active; 'I' for Inactive)
                            x       y       z     vdW  Elec       q    Type
                         _______ _______ _______ _____ _____    ______ ____

>  <TORSDO>
F 0

$$$$
=
 OpenBabel11052418073D

 28 33  0  0  1  0  0  0  0  0999 V2000
  192.0150  175.4860  142.6870 C   0  0  0  0  0  0  0  0  0  0  0  0
  192.8110  176.3280  143.6680 C   0  0  1  0  0  3  0  0  0  0  0  0
  190.6730  176.9080  144.8240 C   0  0  2  0  0  3  0  0  0  0  0  0
  186.3790  177.0560  144.6800 C   0  0  0  0  0  2  0  0  0  0  0  0
  189.8490  173.1300  139.7940 C   0  0  0  0  0  1  0  0  0  0  0  0
  193.5670  174.5510  146.0630 C   0  0  0  0  0  2  0  0  0  0  0  0
  192.1090  176.4290  145.0380 C   0  0  1  0  0  3  0  0  0  0  0  0
  194.9890  176.4330  145.0150 C   0  0  0  0  0  2  0  0  0  0  0  0
  187.8300  178.0040  147.1530 C   0  0  0  0  0  2  0  0  0  0  0  0
  188.5080  175.8830  143.9670 C   0  0  0  0  0  0  0  0  0  0  0  0
  194.2980  175.9300  143.7450 C   0  0  0  0  0  2  0  0  0  0  0  0
  185.6910  177.9440  145.7320 C   0  0  2  0  0  0  0  0  0  0  0  0
  187.7420  176.4970  145.1220 C   0  0  1  0  0  3  0  0  0  0  0  0
  189.9430  177.1320  146.1450 C   0  0  0  0  0  2  0  0  0  0  0  0
  186.3090  177.7800  147.1270 C   0  0  0  0  0  2  0  0  0  0  0  0
  189.8850  174.5840  141.8730 C   0  0  0  0  0  0  0  0  0  0  0  0
  189.9140  176.0070  143.8690 C   0  0  0  0  0  0  0  0  0  0  0  0
  188.5270  177.5920  145.8540 C   0  0  2  0  0  3  0  0  0  0  0  0
  191.9440  174.1200  140.6770 C   0  0  0  0  0  3  0  0  0  0  0  0
  188.5010  174.4390  142.0150 C   0  0  0  0  0  3  0  0  0  0  0  0
  190.5650  173.9600  140.8080 C   0  0  0  0  0  0  0  0  0  0  0  0
  194.6450  175.6200  146.2770 C   0  0  0  0  0  2  0  0  0  0  0  0
  184.3450  177.5900  145.7970 O   0  0  0  0  0  1  0  0  0  0  0  0
  185.7860  179.3950  145.2940 C   0  0  0  0  0  1  0  0  0  0  0  0
  187.8250  175.0720  143.0550 C   0  0  0  0  0  3  0  0  0  0  0  0
  192.6600  174.8770  141.6010 C   0  0  0  0  0  3  0  0  0  0  0  0
  190.6070  175.3670  142.8100 C   0  0  0  0  0  0  0  0  0  0  0  0
  192.1630  175.1340  145.8730 C   0  0  0  0  0  2  0  0  0  0  0  0
  1 27  1  0  0  0  0
  1  2  1  0  0  0  0
  2 11  1  1  0  0  0
  2  7  1  0  0  0  0
  3  7  1  0  0  0  0
  3 14  1  1  0  0  0
  4 12  1  0  0  0  0
  5 21  1  0  0  0  0
  6 22  1  0  0  0  0
  7 28  1  6  0  0  0
  8 22  1  0  0  0  0
 10 13  1  0  0  0  0
 11  8  1  0  0  0  0
 12 24  1  6  0  0  0
 12 23  1  0  0  0  0
 12 15  1  0  0  0  0
 13  4  1  6  0  0  0
 13 18  1  0  0  0  0
 15  9  1  0  0  0  0
 16 20  2  0  0  0  0
 16 27  1  0  0  0  0
 17 10  1  0  0  0  0
 17  3  1  0  0  0  0
 18 14  1  1  0  0  0
 18  9  1  0  0  0  0
 19 21  2  0  0  0  0
 19 26  1  0  0  0  0
 20 25  1  0  0  0  0
 21 16  1  0  0  0  0
 25 10  2  0  0  0  0
 26  1  2  0  0  0  0
 27 17  2  0  0  0  0
 28  6  1  0  0  0  0
M  END
>  <MODEL>
2

>  <REMARK>
 VINA RESULT:      -8.7      1.727      4.630
  Name = 
  0 active torsions:
  status: ('A' for Active; 'I' for Inactive)
                            x       y       z     vdW  Elec       q    Type
                         _______ _______ _______ _____ _____    ______ ____

>  <TORSDO>
F 0

$$$$
=
 OpenBabel11052418073D

 28 33  0  0  1  0  0  0  0  0999 V2000
  188.3300  176.0470  145.8340 C   0  0  0  0  0  0  0  0  0  0  0  0
  189.5000  175.1440  146.1810 C   0  0  1  0  0  3  0  0  0  0  0  0
  189.7290  174.5950  143.7530 C   0  0  2  0  0  3  0  0  0  0  0  0
  187.9580  174.6000  139.8370 C   0  0  0  0  0  2  0  0  0  0  0  0
  184.9440  178.5780  144.9770 C   0  0  0  0  0  1  0  0  0  0  0  0
  192.0830  176.8060  145.9990 C   0  0  0  0  0  2  0  0  0  0  0  0
  190.4940  175.0180  145.0080 C   0  0  1  0  0  3  0  0  0  0  0  0
  191.5670  174.9160  147.6790 C   0  0  0  0  0  2  0  0  0  0  0  0
  190.7500  173.5140  140.2190 C   0  0  0  0  0  2  0  0  0  0  0  0
  188.1620  175.7240  142.0970 C   0  0  0  0  0  0  0  0  0  0  0  0
  190.1550  175.4880  147.5330 C   0  0  0  0  0  2  0  0  0  0  0  0
  188.6270  173.6980  138.7850 C   0  0  2  0  0  0  0  0  0  0  0  0
  188.9100  175.0960  140.9380 C   0  0  1  0  0  3  0  0  0  0  0  0
  190.6620  174.3490  142.5710 C   0  0  0  0  0  2  0  0  0  0  0  0
  190.1580  173.7910  138.8270 C   0  0  0  0  0  2  0  0  0  0  0  0
  186.8110  177.0500  144.1920 C   0  0  0  0  0  0  0  0  0  0  0  0
  188.6000  175.5560  143.4320 C   0  0  0  0  0  0  0  0  0  0  0  0
  189.8340  173.9490  141.3660 C   0  0  2  0  0  3  0  0  0  0  0  0
  186.5100  177.4870  146.5590 C   0  0  0  0  0  3  0  0  0  0  0  0
  186.4230  177.2370  142.8610 C   0  0  0  0  0  3  0  0  0  0  0  0
  186.1140  177.6880  145.2370 C   0  0  0  0  0  0  0  0  0  0  0  0
  192.6400  175.6940  146.8950 C   0  0  0  0  0  2  0  0  0  0  0  0
  188.1920  174.0960  137.5210 O   0  0  0  0  0  1  0  0  0  0  0  0
  188.1910  172.2620  139.0130 C   0  0  0  0  0  1  0  0  0  0  0  0
  187.0970  176.5910  141.8280 C   0  0  0  0  0  3  0  0  0  0  0  0
  187.6010  176.6720  146.8550 C   0  0  0  0  0  3  0  0  0  0  0  0
  187.9140  176.2090  144.4880 C   0  0  0  0  0  0  0  0  0  0  0  0
  191.3470  176.2790  144.7630 C   0  0  0  0  0  2  0  0  0  0  0  0
  1  2  1  0  0  0  0
  1 26  1  0  0  0  0
  2 11  1  1  0  0  0
  3 14  1  6  0  0  0
  3  7  1  0  0  0  0
  5 21  1  0  0  0  0
  6 22  1  0  0  0  0
  7 28  1  6  0  0  0
  7  2  1  0  0  0  0
 10 17  2  0  0  0  0
 11  8  1  0  0  0  0
 12 15  1  0  0  0  0
 12 24  1  1  0  0  0
 12  4  1  0  0  0  0
 13  4  1  6  0  0  0
 13 18  1  0  0  0  0
 13 10  1  0  0  0  0
 15  9  1  0  0  0  0
 16 27  1  0  0  0  0
 16 21  2  0  0  0  0
 17  3  1  0  0  0  0
 17 27  1  0  0  0  0
 18  9  1  6  0  0  0
 18 14  1  0  0  0  0
 19 26  2  0  0  0  0
 20 16  1  0  0  0  0
 21 19  1  0  0  0  0
 22  8  1  0  0  0  0
 23 12  1  0  0  0  0
 25 10  1  0  0  0  0
 25 20  2  0  0  0  0
 27  1  2  0  0  0  0
 28  6  1  0  0  0  0
M  END
>  <MODEL>
3

>  <REMARK>
 VINA RESULT:      -8.6      2.457      5.999
  Name = 
  0 active torsions:
  status: ('A' for Active; 'I' for Inactive)
                            x       y       z     vdW  Elec       q    Type
                         _______ _______ _______ _____ _____    ______ ____

>  <TORSDO>
F 0

$$$$
=
 OpenBabel11052418073D

 28 33  0  0  1  0  0  0  0  0999 V2000
  187.2110  178.0460  143.9970 C   0  0  0  0  0  0  0  0  0  0  0  0
  187.6280  178.1980  142.5450 C   0  0  1  0  0  3  0  0  0  0  0  0
  189.8940  177.3400  143.1590 C   0  0  2  0  0  3  0  0  0  0  0  0
  192.7530  176.5050  146.2580 C   0  0  0  0  0  2  0  0  0  0  0  0
  185.9410  177.7330  148.1070 C   0  0  0  0  0  1  0  0  0  0  0  0
  187.0660  175.5380  141.1020 C   0  0  0  0  0  2  0  0  0  0  0  0
  188.7430  177.2030  142.1610 C   0  0  1  0  0  3  0  0  0  0  0  0
  186.8370  177.9160  140.1230 C   0  0  0  0  0  2  0  0  0  0  0  0
  193.4460  175.9140  143.3780 C   0  0  0  0  0  2  0  0  0  0  0  0
  190.3200  176.6460  145.5690 C   0  0  0  0  0  0  0  0  0  0  0  0
  186.4350  178.2210  141.5680 C   0  0  0  0  0  2  0  0  0  0  0  0
  194.2070  176.2870  145.8030 C   0  0  2  0  0  0  0  0  0  0  0  0
  191.7010  176.1440  145.1960 C   0  0  1  0  0  3  0  0  0  0  0  0
  191.0820  176.4590  142.7850 C   0  0  0  0  0  2  0  0  0  0  0  0
  194.3000  175.4040  144.5510 C   0  0  0  0  0  2  0  0  0  0  0  0
  187.7090  177.4200  146.3140 C   0  0  0  0  0  0  0  0  0  0  0  0
  189.4270  177.1380  144.5880 C   0  0  0  0  0  0  0  0  0  0  0  0
  192.1730  176.6380  143.8230 C   0  0  2  0  0  3  0  0  0  0  0  0
  185.5500  178.3670  145.7430 C   0  0  0  0  0  3  0  0  0  0  0  0
  188.5940  176.8900  147.2590 C   0  0  0  0  0  3  0  0  0  0  0  0
  186.4180  177.8350  146.6960 C   0  0  0  0  0  0  0  0  0  0  0  0
  187.1070  176.4240  139.8520 C   0  0  0  0  0  2  0  0  0  0  0  0
  194.9050  175.6660  146.8380 O   0  0  0  0  0  1  0  0  0  0  0  0
  194.8500  177.6350  145.5310 C   0  0  0  0  0  1  0  0  0  0  0  0
  189.8770  176.4980  146.8880 C   0  0  0  0  0  3  0  0  0  0  0  0
  185.9430  178.4770  144.4100 C   0  0  0  0  0  3  0  0  0  0  0  0
  188.1200  177.5410  144.9620 C   0  0  0  0  0  0  0  0  0  0  0  0
  188.2690  175.7420  142.0290 C   0  0  0  0  0  2  0  0  0  0  0  0
  1 26  2  0  0  0  0
  1 27  1  0  0  0  0
  2 11  1  6  0  0  0
  2  1  1  0  0  0  0
  3 14  1  6  0  0  0
  3 17  1  0  0  0  0
  6 28  1  0  0  0  0
  7 28  1  1  0  0  0
  7  2  1  0  0  0  0
  7  3  1  0  0  0  0
  8 11  1  0  0  0  0
  9 18  1  0  0  0  0
  9 15  1  0  0  0  0
 10 25  1  0  0  0  0
 12 24  1  6  0  0  0
 12  4  1  0  0  0  0
 12 23  1  0  0  0  0
 13 10  1  0  0  0  0
 13  4  1  1  0  0  0
 15 12  1  0  0  0  0
 16 21  1  0  0  0  0
 16 20  1  0  0  0  0
 17 27  1  0  0  0  0
 17 10  2  0  0  0  0
 18 14  1  6  0  0  0
 18 13  1  0  0  0  0
 19 21  2  0  0  0  0
 21  5  1  0  0  0  0
 22  8  1  0  0  0  0
 22  6  1  0  0  0  0
 25 20  2  0  0  0  0
 26 19  1  0  0  0  0
 27 16  2  0  0  0  0
M  END
>  <MODEL>
4

>  <REMARK>
 VINA RESULT:      -8.5      3.174      6.411
  Name = 
  0 active torsions:
  status: ('A' for Active; 'I' for Inactive)
                            x       y       z     vdW  Elec       q    Type
                         _______ _______ _______ _____ _____    ______ ____

>  <TORSDO>
F 0

$$$$
=
 OpenBabel11052418073D

 28 33  0  0  1  0  0  0  0  0999 V2000
  192.3040  175.0380  142.2590 C   0  0  0  0  0  0  0  0  0  0  0  0
  192.9260  175.9600  143.2930 C   0  0  1  0  0  3  0  0  0  0  0  0
  190.6290  176.7100  143.9320 C   0  0  2  0  0  3  0  0  0  0  0  0
  186.4600  176.9420  142.9110 C   0  0  0  0  0  2  0  0  0  0  0  0
  190.6520  172.4420  139.2360 C   0  0  0  0  0  1  0  0  0  0  0  0
  193.1140  174.4280  145.9550 C   0  0  0  0  0  2  0  0  0  0  0  0
  191.9720  176.2210  144.4770 C   0  0  1  0  0  3  0  0  0  0  0  0
  194.7970  176.1550  145.0340 C   0  0  0  0  0  2  0  0  0  0  0  0
  187.4330  178.1120  145.5210 C   0  0  0  0  0  2  0  0  0  0  0  0
  188.6340  175.6510  142.7610 C   0  0  0  0  0  0  0  0  0  0  0  0
  194.3490  175.5370  143.7070 C   0  0  0  0  0  2  0  0  0  0  0  0
  185.6180  177.9530  143.7100 C   0  0  2  0  0  0  0  0  0  0  0  0
  187.6820  176.4010  143.6720 C   0  0  1  0  0  3  0  0  0  0  0  0
  189.6630  177.0890  145.0500 C   0  0  0  0  0  2  0  0  0  0  0  0
  185.9390  177.9230  145.2110 C   0  0  0  0  0  2  0  0  0  0  0  0
  190.3400  174.1060  141.1260 C   0  0  0  0  0  0  0  0  0  0  0  0
  190.0360  175.7310  142.9370 C   0  0  0  0  0  0  0  0  0  0  0  0
  188.3550  177.5480  144.4350 C   0  0  2  0  0  3  0  0  0  0  0  0
  192.5720  173.4690  140.4210 C   0  0  0  0  0  3  0  0  0  0  0  0
  188.9500  174.0100  141.0000 C   0  0  0  0  0  3  0  0  0  0  0  0
  191.1880  173.3580  140.2870 C   0  0  0  0  0  0  0  0  0  0  0  0
  194.1740  175.4880  146.2750 C   0  0  0  0  0  2  0  0  0  0  0  0
  184.2710  177.6390  143.5370 O   0  0  0  0  0  1  0  0  0  0  0  0
  185.8620  179.3470  143.1600 C   0  0  0  0  0  1  0  0  0  0  0  0
  188.1090  174.7640  141.8150 C   0  0  0  0  0  3  0  0  0  0  0  0
  193.1240  174.3030  141.3920 C   0  0  0  0  0  3  0  0  0  0  0  0
  190.8950  174.9670  142.1080 C   0  0  0  0  0  0  0  0  0  0  0  0
  191.8020  175.0210  145.4290 C   0  0  0  0  0  2  0  0  0  0  0  0
  1  2  1  0  0  0  0
  2 11  1  1  0  0  0
  2  7  1  0  0  0  0
  3  7  1  0  0  0  0
  3 14  1  1  0  0  0
  4 12  1  0  0  0  0
  5 21  1  0  0  0  0
  6 22  1  0  0  0  0
  7 28  1  6  0  0  0
  8 22  1  0  0  0  0
 10 17  1  0  0  0  0
 10 13  1  0  0  0  0
 11  8  1  0  0  0  0
 12 24  1  6  0  0  0
 12 15  1  0  0  0  0
 13  4  1  6  0  0  0
 13 18  1  0  0  0  0
 15  9  1  0  0  0  0
 16 27  1  0  0  0  0
 17  3  1  0  0  0  0
 18 14  1  1  0  0  0
 18  9  1  0  0  0  0
 19 26  1  0  0  0  0
 20 16  2  0  0  0  0
 20 25  1  0  0  0  0
 21 19  2  0  0  0  0
 21 16  1  0  0  0  0
 23 12  1  0  0  0  0
 25 10  2  0  0  0  0
 26  1  2  0  0  0  0
 27  1  1  0  0  0  0
 27 17  2  0  0  0  0
 28  6  1  0  0  0  0
M  END
>  <MODEL>
5

>  <REMARK>
 VINA RESULT:      -8.1      1.504      4.511
  Name = 
  0 active torsions:
  status: ('A' for Active; 'I' for Inactive)
                            x       y       z     vdW  Elec       q    Type
                         _______ _______ _______ _____ _____    ______ ____

>  <TORSDO>
F 0

$$$$
=
 OpenBabel11052418073D

 28 33  0  0  1  0  0  0  0  0999 V2000
  186.2900  177.0670  144.2530 C   0  0  0  0  0  0  0  0  0  0  0  0
  186.0090  176.7990  145.7200 C   0  0  1  0  0  3  0  0  0  0  0  0
  188.4710  176.6040  146.1040 C   0  0  2  0  0  3  0  0  0  0  0  0
  192.3870  176.0640  144.4160 C   0  0  0  0  0  2  0  0  0  0  0  0
  186.9660  177.7590  140.0490 C   0  0  0  0  0  1  0  0  0  0  0  0
  186.0390  179.4910  147.2110 C   0  0  0  0  0  2  0  0  0  0  0  0
  187.1810  177.2440  146.6200 C   0  0  1  0  0  3  0  0  0  0  0  0
  184.5200  177.4620  147.6980 C   0  0  0  0  0  2  0  0  0  0  0  0
  192.0740  176.3970  147.4020 C   0  0  0  0  0  2  0  0  0  0  0  0
  190.0430  176.9810  144.1390 C   0  0  0  0  0  0  0  0  0  0  0  0
  184.6290  177.3100  146.1790 C   0  0  0  0  0  2  0  0  0  0  0  0
  193.5040  175.6650  145.3970 C   0  0  2  0  0  0  0  0  0  0  0  0
  191.2430  176.8670  145.0570 C   0  0  1  0  0  3  0  0  0  0  0  0
  189.6620  176.9150  147.0050 C   0  0  0  0  0  2  0  0  0  0  0  0
  193.4430  176.4640  146.7060 C   0  0  0  0  0  2  0  0  0  0  0  0
  187.8580  177.3540  142.3900 C   0  0  0  0  0  0  0  0  0  0  0  0
  188.7220  176.9400  144.6460 C   0  0  0  0  0  0  0  0  0  0  0  0
  190.9020  176.2630  146.4250 C   0  0  2  0  0  3  0  0  0  0  0  0
  185.4650  177.4200  141.9930 C   0  0  0  0  0  3  0  0  0  0  0  0
  189.1730  177.4340  141.9180 C   0  0  0  0  0  3  0  0  0  0  0  0
  186.7700  177.5090  141.5080 C   0  0  0  0  0  0  0  0  0  0  0  0
  185.2310  178.7090  148.2530 C   0  0  0  0  0  2  0  0  0  0  0  0
  194.7340  175.9020  144.7860 O   0  0  0  0  0  1  0  0  0  0  0  0
  193.3940  174.1800  145.6960 C   0  0  0  0  0  1  0  0  0  0  0  0
  190.2490  177.2610  142.7840 C   0  0  0  0  0  3  0  0  0  0  0  0
  185.2280  177.1970  143.3480 C   0  0  0  0  0  3  0  0  0  0  0  0
  187.6230  177.1130  143.7680 C   0  0  0  0  0  0  0  0  0  0  0  0
  187.3180  178.7720  146.7710 C   0  0  0  0  0  2  0  0  0  0  0  0
  1  2  1  0  0  0  0
  2 11  1  1  0  0  0
  2  7  1  0  0  0  0
  3  7  1  0  0  0  0
  3 14  1  1  0  0  0
  4 12  1  0  0  0  0
  5 21  1  0  0  0  0
  6 22  1  0  0  0  0
  7 28  1  6  0  0  0
  8 22  1  0  0  0  0
 10 17  1  0  0  0  0
 10 13  1  0  0  0  0
 11  8  1  0  0  0  0
 12 24  1  1  0  0  0
 12 15  1  0  0  0  0
 13  4  1  6  0  0  0
 13 18  1  0  0  0  0
 15  9  1  0  0  0  0
 16 27  1  0  0  0  0
 17  3  1  0  0  0  0
 18 14  1  1  0  0  0
 18  9  1  0  0  0  0
 19 26  1  0  0  0  0
 20 16  2  0  0  0  0
 20 25  1  0  0  0  0
 21 19  2  0  0  0  0
 21 16  1  0  0  0  0
 23 12  1  0  0  0  0
 25 10  2  0  0  0  0
 26  1  2  0  0  0  0
 27  1  1  0  0  0  0
 27 17  2  0  0  0  0
 28  6  1  0  0  0  0
M  END
>  <MODEL>
6

>  <REMARK>
 VINA RESULT:      -8.1      3.312      7.383
  Name = 
  0 active torsions:
  status: ('A' for Active; 'I' for Inactive)
                            x       y       z     vdW  Elec       q    Type
                         _______ _______ _______ _____ _____    ______ ____

>  <TORSDO>
F 0

$$$$
=
 OpenBabel11052418073D

 28 33  0  0  1  0  0  0  0  0999 V2000
  192.2200  175.9370  145.5180 C   0  0  0  0  0  0  0  0  0  0  0  0
  190.8270  176.5370  145.4470 C   0  0  1  0  0  3  0  0  0  0  0  0
  190.3520  175.0760  143.4760 C   0  0  2  0  0  3  0  0  0  0  0  0
  191.8990  172.5790  140.3380 C   0  0  0  0  0  2  0  0  0  0  0  0
  196.2270  174.3590  145.7630 C   0  0  0  0  0  1  0  0  0  0  0  0
  188.9420  174.7890  147.1370 C   0  0  0  0  0  2  0  0  0  0  0  0
  189.8110  175.5580  144.8230 C   0  0  1  0  0  3  0  0  0  0  0  0
  188.8510  177.3540  146.8600 C   0  0  0  0  0  2  0  0  0  0  0  0
  188.9180  172.9900  140.5960 C   0  0  0  0  0  2  0  0  0  0  0  0
  192.1520  173.4540  142.7010 C   0  0  0  0  0  0  0  0  0  0  0  0
  190.3670  177.1650  146.7780 C   0  0  0  0  0  2  0  0  0  0  0  0
  190.9350  172.2610  139.1820 C   0  0  2  0  0  0  0  0  0  0  0  0
  191.2020  172.8630  141.6790 C   0  0  1  0  0  3  0  0  0  0  0  0
  189.3530  174.1810  142.7480 C   0  0  0  0  0  2  0  0  0  0  0  0
  189.5240  171.9160  139.6780 C   0  0  0  0  0  2  0  0  0  0  0  0
  193.9330  174.3970  144.6790 C   0  0  0  0  0  0  0  0  0  0  0  0
  191.7260  174.4480  143.6130 C   0  0  0  0  0  0  0  0  0  0  0  0
  189.9630  173.7330  141.4340 C   0  0  2  0  0  3  0  0  0  0  0  0
  194.4370  175.9030  146.5130 C   0  0  0  0  0  3  0  0  0  0  0  0
  194.3190  173.3840  143.7940 C   0  0  0  0  0  3  0  0  0  0  0  0
  194.8360  174.8880  145.6430 C   0  0  0  0  0  0  0  0  0  0  0  0
  188.0740  176.0530  147.1380 C   0  0  0  0  0  2  0  0  0  0  0  0
  191.4370  171.1690  138.4750 O   0  0  0  0  0  1  0  0  0  0  0  0
  190.8730  173.4530  138.2440 C   0  0  0  0  0  1  0  0  0  0  0  0
  193.4360  172.9120  142.8270 C   0  0  0  0  0  3  0  0  0  0  0  0
  193.1470  176.4250  146.4480 C   0  0  0  0  0  3  0  0  0  0  0  0
  192.6230  174.9340  144.5980 C   0  0  0  0  0  0  0  0  0  0  0  0
  189.4210  174.3820  145.7400 C   0  0  0  0  0  2  0  0  0  0  0  0
  1 26  1  0  0  0  0
  2  1  1  0  0  0  0
  2 11  1  1  0  0  0
  3 14  1  1  0  0  0
  3 17  1  0  0  0  0
  3  7  1  0  0  0  0
  6 22  1  0  0  0  0
  7  2  1  0  0  0  0
  7 28  1  1  0  0  0
  8 22  1  0  0  0  0
 10 25  1  0  0  0  0
 10 17  2  0  0  0  0
 11  8  1  0  0  0  0
 12 24  1  6  0  0  0
 12 15  1  0  0  0  0
 12  4  1  0  0  0  0
 13  4  1  6  0  0  0
 13 10  1  0  0  0  0
 15  9  1  0  0  0  0
 16 21  2  0  0  0  0
 17 27  1  0  0  0  0
 18  9  1  1  0  0  0
 18 13  1  0  0  0  0
 18 14  1  0  0  0  0
 20 16  1  0  0  0  0
 21  5  1  0  0  0  0
 21 19  1  0  0  0  0
 23 12  1  0  0  0  0
 25 20  2  0  0  0  0
 26 19  2  0  0  0  0
 27 16  1  0  0  0  0
 27  1  2  0  0  0  0
 28  6  1  0  0  0  0
M  END
>  <MODEL>
7

>  <REMARK>
 VINA RESULT:      -7.9      3.236      6.016
  Name = 
  0 active torsions:
  status: ('A' for Active; 'I' for Inactive)
                            x       y       z     vdW  Elec       q    Type
                         _______ _______ _______ _____ _____    ______ ____

>  <TORSDO>
F 0

$$$$
=
 OpenBabel11052418073D

 28 33  0  0  1  0  0  0  0  0999 V2000
  185.4000  177.3480  143.9910 C   0  0  0  0  0  0  0  0  0  0  0  0
  185.2710  177.1390  145.4890 C   0  0  1  0  0  3  0  0  0  0  0  0
  187.5070  176.0230  145.4740 C   0  0  2  0  0  3  0  0  0  0  0  0
  190.6190  174.1360  143.1870 C   0  0  0  0  0  2  0  0  0  0  0  0
  185.6220  177.9240  139.7210 C   0  0  0  0  0  1  0  0  0  0  0  0
  186.5410  179.5560  146.9070 C   0  0  0  0  0  2  0  0  0  0  0  0
  186.6490  177.0740  146.1800 C   0  0  1  0  0  3  0  0  0  0  0  0
  184.4670  178.2210  147.6690 C   0  0  0  0  0  2  0  0  0  0  0  0
  190.9230  174.4290  146.1770 C   0  0  0  0  0  2  0  0  0  0  0  0
  188.7780  175.8730  143.2750 C   0  0  0  0  0  0  0  0  0  0  0  0
  184.2730  178.1070  146.1540 C   0  0  0  0  0  2  0  0  0  0  0  0
  191.6420  173.3060  143.9810 C   0  0  2  0  0  0  0  0  0  0  0  0
  189.9750  175.2790  143.9890 C   0  0  1  0  0  3  0  0  0  0  0  0
  188.8520  175.8270  146.1660 C   0  0  0  0  0  2  0  0  0  0  0  0
  192.0910  174.0110  145.2690 C   0  0  0  0  0  2  0  0  0  0  0  0
  186.6490  177.1120  141.8940 C   0  0  0  0  0  0  0  0  0  0  0  0
  187.6350  176.3050  143.9890 C   0  0  0  0  0  0  0  0  0  0  0  0
  189.6500  174.7850  145.4040 C   0  0  2  0  0  3  0  0  0  0  0  0
  184.4260  178.0840  141.8880 C   0  0  0  0  0  3  0  0  0  0  0  0
  187.8070  176.7160  141.2150 C   0  0  0  0  0  3  0  0  0  0  0  0
  185.5760  177.7010  141.1970 C   0  0  0  0  0  0  0  0  0  0  0  0
  185.6720  179.0870  148.0800 C   0  0  0  0  0  2  0  0  0  0  0  0
  192.7600  173.0940  143.1760 O   0  0  0  0  0  1  0  0  0  0  0  0
  191.0310  171.9580  144.3200 C   0  0  0  0  0  1  0  0  0  0  0  0
  188.8600  176.1160  141.8990 C   0  0  0  0  0  3  0  0  0  0  0  0
  184.3370  177.9050  143.2670 C   0  0  0  0  0  3  0  0  0  0  0  0
  186.5590  176.9150  143.2960 C   0  0  0  0  0  0  0  0  0  0  0  0
  187.3710  178.4320  146.2790 C   0  0  0  0  0  2  0  0  0  0  0  0
  1  2  1  0  0  0  0
  2 11  1  1  0  0  0
  2  7  1  0  0  0  0
  3 14  1  1  0  0  0
  3  7  1  0  0  0  0
  4 12  1  0  0  0  0
  5 21  1  0  0  0  0
  6 22  1  0  0  0  0
  7 28  1  6  0  0  0
  8 22  1  0  0  0  0
 10 13  1  0  0  0  0
 10 17  1  0  0  0  0
 11  8  1  0  0  0  0
 12 24  1  1  0  0  0
 12 15  1  0  0  0  0
 13  4  1  6  0  0  0
 13 18  1  0  0  0  0
 15  9  1  0  0  0  0
 16 27  1  0  0  0  0
 17  3  1  0  0  0  0
 18 14  1  1  0  0  0
 18  9  1  0  0  0  0
 19 26  1  0  0  0  0
 20 16  2  0  0  0  0
 20 25  1  0  0  0  0
 21 19  2  0  0  0  0
 21 16  1  0  0  0  0
 23 12  1  0  0  0  0
 25 10  2  0  0  0  0
 26  1  2  0  0  0  0
 27 17  2  0  0  0  0
 27  1  1  0  0  0  0
 28  6  1  0  0  0  0
M  END
>  <MODEL>
8

>  <REMARK>
 VINA RESULT:      -7.8      2.616      7.560
  Name = 
  0 active torsions:
  status: ('A' for Active; 'I' for Inactive)
                            x       y       z     vdW  Elec       q    Type
                         _______ _______ _______ _____ _____    ______ ____

>  <TORSDO>
F 0

$$$$
=
 OpenBabel11052418073D

 28 33  0  0  1  0  0  0  0  0999 V2000
  189.6300  176.1040  143.7580 C   0  0  0  0  0  0  0  0  0  0  0  0
  189.7840  175.5050  142.3720 C   0  0  1  0  0  3  0  0  0  0  0  0
  191.9410  174.4810  143.1090 C   0  0  2  0  0  3  0  0  0  0  0  0
  195.1480  174.4110  145.9710 C   0  0  0  0  0  2  0  0  0  0  0  0
  189.1290  177.9210  147.6380 C   0  0  0  0  0  1  0  0  0  0  0  0
  188.5070  172.7060  142.3880 C   0  0  0  0  0  2  0  0  0  0  0  0
  190.6170  174.2060  142.3960 C   0  0  1  0  0  3  0  0  0  0  0  0
  188.5120  174.4000  140.4400 C   0  0  0  0  0  2  0  0  0  0  0  0
  195.1690  172.4810  143.6480 C   0  0  0  0  0  2  0  0  0  0  0  0
  192.6900  174.8210  145.5160 C   0  0  0  0  0  0  0  0  0  0  0  0
  188.4510  175.3890  141.6070 C   0  0  0  0  0  2  0  0  0  0  0  0
  196.4290  173.6740  145.5420 C   0  0  2  0  0  0  0  0  0  0  0  0
  193.8670  173.8910  145.2980 C   0  0  1  0  0  3  0  0  0  0  0  0
  192.8660  173.2670  143.0830 C   0  0  0  0  0  2  0  0  0  0  0  0
  196.1280  172.3420  144.8410 C   0  0  0  0  0  2  0  0  0  0  0  0
  190.4420  176.4460  146.0460 C   0  0  0  0  0  0  0  0  0  0  0  0
  191.7270  175.0380  144.5030 C   0  0  0  0  0  0  0  0  0  0  0  0
  194.1480  173.6100  143.8170 C   0  0  2  0  0  3  0  0  0  0  0  0
  188.4120  177.5410  145.2950 C   0  0  0  0  0  3  0  0  0  0  0  0
  191.3850  176.1820  147.0460 C   0  0  0  0  0  3  0  0  0  0  0  0
  189.3390  177.2830  146.3040 C   0  0  0  0  0  0  0  0  0  0  0  0
  188.4620  172.9220  140.8710 C   0  0  0  0  0  2  0  0  0  0  0  0
  197.1910  173.4160  146.6800 O   0  0  0  0  0  1  0  0  0  0  0  0
  197.2320  174.5710  144.6180 C   0  0  0  0  0  1  0  0  0  0  0  0
  192.4870  175.3710  146.7860 C   0  0  0  0  0  3  0  0  0  0  0  0
  188.5580  176.9630  144.0350 C   0  0  0  0  0  3  0  0  0  0  0  0
  190.6040  175.8650  144.7620 C   0  0  0  0  0  0  0  0  0  0  0  0
  189.8800  172.9940  143.0020 C   0  0  0  0  0  2  0  0  0  0  0  0
  1 26  2  0  0  0  0
  1 27  1  0  0  0  0
  2 11  1  1  0  0  0
  2  7  1  0  0  0  0
  2  1  1  0  0  0  0
  3 14  1  1  0  0  0
  3 17  1  0  0  0  0
  6 28  1  0  0  0  0
  7 28  1  1  0  0  0
  7  3  1  0  0  0  0
  8 22  1  0  0  0  0
  8 11  1  0  0  0  0
  9 18  1  0  0  0  0
  9 15  1  0  0  0  0
 10 25  1  0  0  0  0
 12 24  1  6  0  0  0
 12  4  1  0  0  0  0
 12 23  1  0  0  0  0
 13 10  1  0  0  0  0
 13  4  1  6  0  0  0
 15 12  1  0  0  0  0
 16 21  1  0  0  0  0
 16 20  1  0  0  0  0
 17 27  1  0  0  0  0
 17 10  2  0  0  0  0
 18 14  1  6  0  0  0
 18 13  1  0  0  0  0
 19 21  2  0  0  0  0
 21  5  1  0  0  0  0
 22  6  1  0  0  0  0
 25 20  2  0  0  0  0
 26 19  1  0  0  0  0
 27 16  2  0  0  0  0
M  END
>  <MODEL>
9

>  <REMARK>
 VINA RESULT:      -7.8      3.167      6.581
  Name = 
  0 active torsions:
  status: ('A' for Active; 'I' for Inactive)
                            x       y       z     vdW  Elec       q    Type
                         _______ _______ _______ _____ _____    ______ ____

>  <TORSDO>
F 0

$$$$
