=
 OpenBabel11052419283D

 55 60  0  0  1  0  0  0  0  0999 V2000
  192.4080  176.3180  145.8450 O   0  0  0  0  0  0  0  0  0  0  0  0
  189.3330  171.8100  143.4210 C   0  0  0  0  0  2  0  0  0  0  0  0
  188.6730  174.6580  141.9880 S   0  0  0  0  0  1  0  0  0  0  0  0
  190.7100  175.4220  143.7520 C   0  0  0  0  0  2  0  0  0  0  0  0
  195.7180  174.6120  145.8350 C   0  0  0  0  0  3  0  0  0  0  0  0
  193.8940  173.0710  145.3210 C   0  0  0  0  0  0  0  0  0  0  0  0
  191.2460  176.0320  146.5750 C   0  0  0  0  0  2  0  0  0  0  0  0
  192.9700  173.9990  145.5840 C   0  0  0  0  0  3  0  0  0  0  0  0
  190.4580  171.2340  142.5600 C   0  0  0  0  0  2  0  0  0  0  0  0
  189.6980  173.1380  144.0860 C   0  0  0  0  0  2  0  0  0  0  0  0
  190.0780  174.2100  143.0670 C   0  0  1  0  0  3  0  0  0  0  0  0
  194.7410  175.7590  145.7580 C   0  0  0  0  0  2  0  0  0  0  0  0
  191.6380  170.7700  143.4030 C   0  0  2  0  0  3  0  0  0  0  0  0
  193.3370  175.3290  146.2020 C   0  0  1  0  0  3  0  0  0  0  0  0
  189.6980  176.3260  144.4630 C   0  0  1  0  0  3  0  0  0  0  0  0
  190.0090  176.6790  145.9450 C   0  0  1  0  0  3  0  0  0  0  0  0
  192.6490  171.9010  143.5390 C   0  0  0  0  0  2  0  0  0  0  0  0
  193.4720  171.7350  144.8080 C   0  0  0  0  0  2  0  0  0  0  0  0
  195.3180  173.3590  145.5870 C   0  0  0  0  0  3  0  0  0  0  0  0
  188.8090  176.4450  146.8720 C   0  0  1  0  0  0  0  0  0  0  0  0
  187.6960  177.4310  146.8800 C   0  0  2  0  0  3  0  0  0  0  0  0
  188.5420  175.1360  147.2930 O   0  0  0  0  0  1  0  0  0  0  0  0
  188.6590  177.3760  147.9170 O   0  0  0  0  0  0  0  0  0  0  0  0
  186.3810  176.8450  147.3790 C   0  0  0  0  0  2  0  0  0  0  0  0
  185.2120  177.6590  146.8520 C   0  0  0  0  0  2  0  0  0  0  0  0
  185.7050  178.9360  146.1910 C   0  0  0  0  0  2  0  0  0  0  0  0
  184.6930  179.4160  145.1610 C   0  0  1  0  0  3  0  0  0  0  0  0
  184.6940  178.6710  143.2580 C   0  0  0  0  0  2  0  0  0  0  0  0
  185.3850  179.8540  143.8900 C   0  0  0  0  0  2  0  0  0  0  0  0
  184.0650  178.2730  144.5120 N   0  0  0  0  0  2  0  0  0  0  0  0
  192.2840  169.5370  142.7800 C   0  0  0  0  0  2  0  0  0  0  0  0
  193.3910  169.8900  142.0000 O   0  0  0  0  0  0  0  0  0  0  0  0
  192.4230  169.3470  138.0060 C   0  0  1  0  0  3  0  0  0  0  0  0
  193.9400  171.7780  138.6090 C   0  0  0  0  0  2  0  0  0  0  0  0
  194.2330  169.7280  139.7450 C   0  0  1  0  0  3  0  0  0  0  0  0
  192.0010  172.7900  139.8120 C   0  0  0  0  0  1  0  0  0  0  0  0
  192.3980  171.8420  138.6810 C   0  0  2  0  0  0  0  0  0  0  0  0
  193.0630  169.4750  140.7070 C   0  0  2  0  0  3  0  0  0  0  0  0
  193.8880  169.0720  138.3900 C   0  0  0  0  0  2  0  0  0  0  0  0
  191.6850  168.1660  138.1000 O   0  0  0  0  0  1  0  0  0  0  0  0
  191.8330  170.0690  140.3070 O   0  0  0  0  0  0  0  0  0  0  0  0
  194.5350  171.1210  139.7120 O   0  0  0  0  0  0  0  0  0  0  0  0
  191.8030  170.4270  138.9270 C   0  0  2  0  0  3  0  0  0  0  0  0
  192.9780  172.8240  136.3770 C   0  0  0  0  0  1  0  0  0  0  0  0
  191.8660  172.3830  137.3320 C   0  0  2  0  0  3  0  0  0  0  0  0
  190.7730  173.4550  137.4890 C   0  0  1  0  0  3  0  0  0  0  0  0
  191.0180  174.5730  136.6800 O   0  0  0  0  0  1  0  0  0  0  0  0
  189.3770  172.8940  137.2350 C   0  0  0  0  0  2  0  0  0  0  0  0
  188.7980  172.4360  138.4190 O   0  0  0  0  0  1  0  0  0  0  0  0
  189.4340  177.5710  143.6060 C   0  0  1  0  0  3  0  0  0  0  0  0
  190.5340  177.8310  142.6160 C   0  0  0  0  0  3  0  0  0  0  0  0
  191.5640  178.3980  142.9500 O   0  0  0  0  0  0  0  0  0  0  0  0
  188.0520  177.5510  142.9490 C   0  0  0  0  0  2  0  0  0  0  0  0
  188.0630  178.2920  141.6220 C   0  0  0  0  0  2  0  0  0  0  0  0
  187.0430  177.6990  140.6690 C   0  0  0  0  0  1  0  0  0  0  0  0
  1 14  1  0  0  0  0
  1  7  1  0  0  0  0
  2 10  1  0  0  0  0
  4 15  1  0  0  0  0
  6  8  2  0  0  0  0
  6 19  1  0  0  0  0
  9 13  1  0  0  0  0
  9  2  1  0  0  0  0
 11  3  1  1  0  0  0
 11  4  1  0  0  0  0
 11 10  1  0  0  0  0
 12  5  1  0  0  0  0
 12 14  1  0  0  0  0
 13 31  1  6  0  0  0
 13 17  1  0  0  0  0
 14  8  1  6  0  0  0
 15 50  1  6  0  0  0
 15 16  1  0  0  0  0
 16  7  1  1  0  0  0
 16 20  1  0  0  0  0
 17 18  1  0  0  0  0
 18  6  1  0  0  0  0
 19  5  2  0  0  0  0
 20 21  1  0  0  0  0
 20 22  1  1  0  0  0
 20 23  1  0  0  0  0
 21 24  1  1  0  0  0
 21 23  1  0  0  0  0
 25 24  1  0  0  0  0
 26 25  1  0  0  0  0
 27 26  1  1  0  0  0
 28 29  1  0  0  0  0
 28 30  1  0  0  0  0
 29 27  1  0  0  0  0
 30 27  1  0  0  0  0
 32 31  1  0  0  0  0
 33 40  1  1  0  0  0
 33 39  1  0  0  0  0
 33 43  1  0  0  0  0
 34 37  1  0  0  0  0
 34 42  1  0  0  0  0
 35 39  1  6  0  0  0
 35 38  1  0  0  0  0
 37 43  1  0  0  0  0
 37 36  1  1  0  0  0
 38 32  1  1  0  0  0
 41 38  1  0  0  0  0
 42 35  1  0  0  0  0
 43 41  1  1  0  0  0
 45 44  1  1  0  0  0
 45 46  1  0  0  0  0
 45 37  1  0  0  0  0
 46 47  1  6  0  0  0
 48 46  1  0  0  0  0
 48 49  1  0  0  0  0
 50 51  1  6  0  0  0
 51 52  2  0  0  0  0
 53 50  1  0  0  0  0
 54 53  1  0  0  0  0
 55 54  1  0  0  0  0
M  END
>  <MODEL>
1

>  <REMARK>
 VINA RESULT:      -7.0      0.000      0.000
  Name = 
  15 active torsions:
  status: ('A' for Active; 'I' for Inactive)
    1  A    between atoms: C_8  and  O_22
    2  A    between atoms: C_8  and  C_43
    3  A    between atoms: C_9  and  C_15
    4  A    between atoms: C_9  and  C_26
    5  A    between atoms: C_10  and  C_32
    6  A    between atoms: C_11  and  C_29
    7  A    between atoms: C_13  and  C_34
    8  A    between atoms: C_13  and  C_48
    9  A    between atoms: C_14  and  C_38
   10  A    between atoms: C_16  and  C_26
   11  A    between atoms: C_20  and  O_22
   12  A    between atoms: C_26  and  C_45
   13  A    between atoms: C_29  and  C_38
   14  A    between atoms: C_32  and  C_48
   15  A    between atoms: C_33  and  C_49
                            x       y       z     vdW  Elec       q    Type
                         _______ _______ _______ _____ _____    ______ ____

>  <TORSDO>
F 15

$$$$
=
 OpenBabel11052419283D

 55 60  0  0  1  0  0  0  0  0999 V2000
  195.4740  173.4130  145.0600 O   0  0  0  0  0  0  0  0  0  0  0  0
  191.0690  171.9230  141.3140 C   0  0  0  0  0  2  0  0  0  0  0  0
  192.1400  169.3700  143.0290 S   0  0  0  0  0  1  0  0  0  0  0  0
  193.6210  171.4410  144.1970 C   0  0  0  0  0  2  0  0  0  0  0  0
  193.8050  176.4230  146.4820 C   0  0  0  0  0  3  0  0  0  0  0  0
  192.6310  175.5700  144.5190 C   0  0  0  0  0  0  0  0  0  0  0  0
  195.9540  173.1730  143.7650 C   0  0  0  0  0  2  0  0  0  0  0  0
  193.5950  174.6790  144.2680 C   0  0  0  0  0  3  0  0  0  0  0  0
  189.9010  172.4460  142.1530 C   0  0  0  0  0  2  0  0  0  0  0  0
  192.4100  171.9650  142.0490 C   0  0  0  0  0  2  0  0  0  0  0  0
  192.3850  171.1540  143.3430 C   0  0  1  0  0  3  0  0  0  0  0  0
  194.6900  175.2010  146.4570 C   0  0  0  0  0  2  0  0  0  0  0  0
  190.0020  173.9460  142.3930 C   0  0  2  0  0  3  0  0  0  0  0  0
  194.9030  174.6950  145.0250 C   0  0  1  0  0  3  0  0  0  0  0  0
  194.8960  170.7610  143.6860 C   0  0  1  0  0  3  0  0  0  0  0  0
  196.1390  171.6770  143.4990 C   0  0  1  0  0  3  0  0  0  0  0  0
  190.7410  174.2090  143.6980 C   0  0  0  0  0  2  0  0  0  0  0  0
  191.4000  175.5810  143.6760 C   0  0  0  0  0  2  0  0  0  0  0  0
  192.8150  176.5650  145.5940 C   0  0  0  0  0  3  0  0  0  0  0  0
  196.7990  171.5020  142.1250 C   0  0  1  0  0  0  0  0  0  0  0  0
  196.6760  172.5900  141.1180 C   0  0  2  0  0  3  0  0  0  0  0  0
  197.8750  170.6120  142.0150 O   0  0  0  0  0  1  0  0  0  0  0  0
  195.9150  171.3990  141.0350 O   0  0  0  0  0  0  0  0  0  0  0  0
  197.7790  172.5600  140.0680 C   0  0  0  0  0  2  0  0  0  0  0  0
  197.7650  173.8450  139.2570 C   0  0  0  0  0  2  0  0  0  0  0  0
  196.5210  173.9130  138.3860 C   0  0  0  0  0  2  0  0  0  0  0  0
  196.3660  175.3110  137.8050 C   0  0  1  0  0  3  0  0  0  0  0  0
  196.4150  175.6220  135.7860 C   0  0  0  0  0  2  0  0  0  0  0  0
  197.4910  175.6220  136.8430 C   0  0  0  0  0  2  0  0  0  0  0  0
  195.3660  175.3010  136.7460 N   0  0  0  0  0  2  0  0  0  0  0  0
  188.6130  174.5750  142.4200 C   0  0  0  0  0  2  0  0  0  0  0  0
  188.3970  175.3630  141.2840 O   0  0  0  0  0  0  0  0  0  0  0  0
  185.6360  177.9700  142.9450 C   0  0  1  0  0  3  0  0  0  0  0  0
  188.3670  178.2160  143.9710 C   0  0  0  0  0  2  0  0  0  0  0  0
  187.8460  177.6680  141.7330 C   0  0  1  0  0  3  0  0  0  0  0  0
  188.2250  176.0020  145.1170 C   0  0  0  0  0  1  0  0  0  0  0  0
  187.4140  177.2150  144.6620 C   0  0  2  0  0  0  0  0  0  0  0  0
  187.3500  176.2180  141.6370 C   0  0  2  0  0  3  0  0  0  0  0  0
  186.6150  178.5820  141.9290 C   0  0  0  0  0  2  0  0  0  0  0  0
  184.4810  177.5450  142.2860 O   0  0  0  0  0  1  0  0  0  0  0  0
  186.7090  175.7360  142.8130 O   0  0  0  0  0  0  0  0  0  0  0  0
  188.8640  177.7620  142.7260 O   0  0  0  0  0  0  0  0  0  0  0  0
  186.2830  176.7760  143.6900 C   0  0  2  0  0  3  0  0  0  0  0  0
  187.8000  178.2970  146.9620 C   0  0  0  0  0  1  0  0  0  0  0  0
  186.7780  177.9110  145.8900 C   0  0  2  0  0  3  0  0  0  0  0  0
  185.5790  177.1450  146.4770 C   0  0  1  0  0  3  0  0  0  0  0  0
  185.9320  176.4200  147.6230 O   0  0  0  0  0  1  0  0  0  0  0  0
  184.3910  178.0610  146.7550 C   0  0  0  0  0  2  0  0  0  0  0  0
  184.3150  179.0840  145.8090 O   0  0  0  0  0  1  0  0  0  0  0  0
  195.1980  169.5290  144.5480 C   0  0  1  0  0  3  0  0  0  0  0  0
  195.6970  168.3680  143.7360 C   0  0  0  0  0  3  0  0  0  0  0  0
  195.4670  168.2890  142.5380 O   0  0  0  0  0  0  0  0  0  0  0  0
  196.1160  169.8500  145.7300 C   0  0  0  0  0  2  0  0  0  0  0  0
  196.6030  168.5800  146.4090 C   0  0  0  0  0  2  0  0  0  0  0  0
  197.1880  168.8920  147.7730 C   0  0  0  0  0  1  0  0  0  0  0  0
  2 10  1  0  0  0  0
  2  9  1  0  0  0  0
  6 19  1  0  0  0  0
  7  1  1  0  0  0  0
  8  6  2  0  0  0  0
  9 13  1  0  0  0  0
 10 11  1  0  0  0  0
 11  3  1  6  0  0  0
 11  4  1  0  0  0  0
 12  5  1  0  0  0  0
 13 31  1  1  0  0  0
 13 17  1  0  0  0  0
 14  8  1  1  0  0  0
 14  1  1  0  0  0  0
 14 12  1  0  0  0  0
 15  4  1  0  0  0  0
 15 50  1  1  0  0  0
 16 15  1  0  0  0  0
 16  7  1  6  0  0  0
 18 17  1  0  0  0  0
 18  6  1  0  0  0  0
 19  5  2  0  0  0  0
 20 22  1  6  0  0  0
 20 16  1  0  0  0  0
 21 24  1  6  0  0  0
 21 20  1  0  0  0  0
 23 21  1  0  0  0  0
 23 20  1  0  0  0  0
 25 24  1  0  0  0  0
 26 25  1  0  0  0  0
 27 26  1  6  0  0  0
 28 30  1  0  0  0  0
 28 29  1  0  0  0  0
 29 27  1  0  0  0  0
 30 27  1  0  0  0  0
 32 31  1  0  0  0  0
 33 40  1  6  0  0  0
 33 43  1  0  0  0  0
 34 37  1  0  0  0  0
 35 39  1  1  0  0  0
 35 42  1  0  0  0  0
 37 36  1  1  0  0  0
 37 45  1  0  0  0  0
 38 32  1  1  0  0  0
 38 35  1  0  0  0  0
 38 41  1  0  0  0  0
 39 33  1  0  0  0  0
 42 34  1  0  0  0  0
 43 41  1  6  0  0  0
 43 37  1  0  0  0  0
 45 46  1  0  0  0  0
 45 44  1  1  0  0  0
 46 48  1  0  0  0  0
 46 47  1  1  0  0  0
 49 48  1  0  0  0  0
 50 51  1  6  0  0  0
 50 53  1  0  0  0  0
 52 51  2  0  0  0  0
 53 54  1  0  0  0  0
 54 55  1  0  0  0  0
M  END
>  <MODEL>
2

>  <REMARK>
 VINA RESULT:      -6.2      3.586      9.805
  Name = 
  15 active torsions:
  status: ('A' for Active; 'I' for Inactive)
    1  A    between atoms: C_8  and  O_22
    2  A    between atoms: C_8  and  C_43
    3  A    between atoms: C_9  and  C_15
    4  A    between atoms: C_9  and  C_26
    5  A    between atoms: C_10  and  C_32
    6  A    between atoms: C_11  and  C_29
    7  A    between atoms: C_13  and  C_34
    8  A    between atoms: C_13  and  C_48
    9  A    between atoms: C_14  and  C_38
   10  A    between atoms: C_16  and  C_26
   11  A    between atoms: C_20  and  O_22
   12  A    between atoms: C_26  and  C_45
   13  A    between atoms: C_29  and  C_38
   14  A    between atoms: C_32  and  C_48
   15  A    between atoms: C_33  and  C_49
                            x       y       z     vdW  Elec       q    Type
                         _______ _______ _______ _____ _____    ______ ____

>  <TORSDO>
F 15

$$$$
=
 OpenBabel11052419283D

 55 60  0  0  1  0  0  0  0  0999 V2000
  189.7390  173.1450  143.1440 O   0  0  0  0  0  0  0  0  0  0  0  0
  194.5530  176.4570  141.9140 C   0  0  0  0  0  2  0  0  0  0  0  0
  193.4060  177.0210  144.9090 S   0  0  0  0  0  1  0  0  0  0  0  0
  191.7400  174.9190  144.1000 C   0  0  0  0  0  2  0  0  0  0  0  0
  191.1460  169.9130  141.9440 C   0  0  0  0  0  3  0  0  0  0  0  0
  192.5430  171.8100  141.3040 C   0  0  0  0  0  0  0  0  0  0  0  0
  189.4020  174.3040  142.4320 C   0  0  0  0  0  2  0  0  0  0  0  0
  191.6420  172.6880  141.7540 C   0  0  0  0  0  3  0  0  0  0  0  0
  195.6100  175.3750  142.1390 C   0  0  0  0  0  2  0  0  0  0  0  0
  193.1440  176.0230  142.3210 C   0  0  0  0  0  2  0  0  0  0  0  0
  193.0660  175.6160  143.7910 C   0  0  1  0  0  3  0  0  0  0  0  0
  190.3120  170.8400  142.7930 C   0  0  0  0  0  2  0  0  0  0  0  0
  195.4310  174.2000  141.1870 C   0  0  2  0  0  3  0  0  0  0  0  0
  190.2640  172.2530  142.1970 C   0  0  1  0  0  3  0  0  0  0  0  0
  190.5490  175.8780  144.2060 C   0  0  1  0  0  3  0  0  0  0  0  0
  189.3000  175.5240  143.3520 C   0  0  1  0  0  3  0  0  0  0  0  0
  194.5540  173.1390  141.8380 C   0  0  0  0  0  2  0  0  0  0  0  0
  193.8520  172.2990  140.7810 C   0  0  0  0  0  2  0  0  0  0  0  0
  192.2150  170.3710  141.2820 C   0  0  0  0  0  3  0  0  0  0  0  0
  188.7890  176.7150  142.5300 C   0  0  1  0  0  0  0  0  0  0  0  0
  187.3510  176.7720  142.1540 C   0  0  2  0  0  3  0  0  0  0  0  0
  189.5130  177.9130  142.5790 O   0  0  0  0  0  1  0  0  0  0  0  0
  188.3580  176.4110  141.2250 O   0  0  0  0  0  0  0  0  0  0  0  0
  186.8680  178.1850  141.8530 C   0  0  0  0  0  2  0  0  0  0  0  0
  185.6580  178.5180  142.7080 C   0  0  0  0  0  2  0  0  0  0  0  0
  185.9900  179.6260  143.6940 C   0  0  0  0  0  2  0  0  0  0  0  0
  185.0570  179.5540  144.8950 C   0  0  1  0  0  3  0  0  0  0  0  0
  185.1000  177.9570  146.1670 C   0  0  0  0  0  2  0  0  0  0  0  0
  184.3070  178.2410  144.9160 C   0  0  0  0  0  2  0  0  0  0  0  0
  185.8140  179.2260  146.0940 N   0  0  0  0  0  2  0  0  0  0  0  0
  196.7870  173.6200  140.7980 C   0  0  0  0  0  2  0  0  0  0  0  0
  197.4530  174.4610  139.9000 O   0  0  0  0  0  0  0  0  0  0  0  0
  196.8310  172.7940  136.1550 C   0  0  1  0  0  3  0  0  0  0  0  0
  195.8080  175.5150  136.5020 C   0  0  0  0  0  2  0  0  0  0  0  0
  197.7810  174.7110  137.5220 C   0  0  1  0  0  3  0  0  0  0  0  0
  194.0300  174.7380  138.0730 C   0  0  0  0  0  1  0  0  0  0  0  0
  194.8820  174.3350  136.8690 C   0  0  2  0  0  0  0  0  0  0  0  0
  197.4370  173.7690  138.6860 C   0  0  2  0  0  3  0  0  0  0  0  0
  197.9410  173.8550  136.2460 C   0  0  0  0  0  2  0  0  0  0  0  0
  197.3760  171.5260  136.3670 O   0  0  0  0  0  1  0  0  0  0  0  0
  196.2010  173.0790  138.5390 O   0  0  0  0  0  0  0  0  0  0  0  0
  196.8220  175.7630  137.4580 O   0  0  0  0  0  0  0  0  0  0  0  0
  195.7180  173.0660  137.1980 C   0  0  2  0  0  3  0  0  0  0  0  0
  193.8960  175.1850  134.6520 C   0  0  0  0  0  1  0  0  0  0  0  0
  193.9680  174.0330  135.6570 C   0  0  2  0  0  3  0  0  0  0  0  0
  192.5720  173.5180  136.0540 C   0  0  1  0  0  3  0  0  0  0  0  0
  191.6090  173.8160  135.0800 O   0  0  0  0  0  1  0  0  0  0  0  0
  192.5800  172.0260  136.3750 C   0  0  0  0  0  2  0  0  0  0  0  0
  191.6320  171.3440  135.6120 O   0  0  0  0  0  1  0  0  0  0  0  0
  190.2060  176.1040  145.6840 C   0  0  1  0  0  3  0  0  0  0  0  0
  188.7680  176.4870  145.8880 C   0  0  0  0  0  3  0  0  0  0  0  0
  188.0430  175.8490  146.6370 O   0  0  0  0  0  0  0  0  0  0  0  0
  190.6270  174.9300  146.5710 C   0  0  0  0  0  2  0  0  0  0  0  0
  191.7450  175.3310  147.5200 C   0  0  0  0  0  2  0  0  0  0  0  0
  191.4560  176.6800  148.1490 C   0  0  0  0  0  1  0  0  0  0  0  0
  2  9  1  0  0  0  0
  2 10  1  0  0  0  0
  4 15  1  0  0  0  0
  5 12  1  0  0  0  0
  6  8  2  0  0  0  0
  7  1  1  0  0  0  0
 10 11  1  0  0  0  0
 11  4  1  0  0  0  0
 11  3  1  1  0  0  0
 13 31  1  1  0  0  0
 13 17  1  0  0  0  0
 13  9  1  0  0  0  0
 14  8  1  1  0  0  0
 14 12  1  0  0  0  0
 14  1  1  0  0  0  0
 15 50  1  1  0  0  0
 16  7  1  6  0  0  0
 16 15  1  0  0  0  0
 18  6  1  0  0  0  0
 18 17  1  0  0  0  0
 19  6  1  0  0  0  0
 19  5  2  0  0  0  0
 20 22  1  1  0  0  0
 20 16  1  0  0  0  0
 21 24  1  6  0  0  0
 21 20  1  0  0  0  0
 23 21  1  0  0  0  0
 23 20  1  0  0  0  0
 24 25  1  0  0  0  0
 25 26  1  0  0  0  0
 27 26  1  6  0  0  0
 27 29  1  0  0  0  0
 27 30  1  0  0  0  0
 29 28  1  0  0  0  0
 30 28  1  0  0  0  0
 32 31  1  0  0  0  0
 33 39  1  0  0  0  0
 33 40  1  1  0  0  0
 33 43  1  0  0  0  0
 34 37  1  0  0  0  0
 34 42  1  0  0  0  0
 35 39  1  6  0  0  0
 35 38  1  0  0  0  0
 37 43  1  0  0  0  0
 37 36  1  1  0  0  0
 38 32  1  1  0  0  0
 41 38  1  0  0  0  0
 42 35  1  0  0  0  0
 43 41  1  1  0  0  0
 45 44  1  1  0  0  0
 45 46  1  0  0  0  0
 45 37  1  0  0  0  0
 46 47  1  6  0  0  0
 46 48  1  0  0  0  0
 49 48  1  0  0  0  0
 50 51  1  6  0  0  0
 50 53  1  0  0  0  0
 51 52  2  0  0  0  0
 53 54  1  0  0  0  0
 54 55  1  0  0  0  0
M  END
>  <MODEL>
3

>  <REMARK>
 VINA RESULT:      -6.2      2.810      5.044
  Name = 
  15 active torsions:
  status: ('A' for Active; 'I' for Inactive)
    1  A    between atoms: C_8  and  O_22
    2  A    between atoms: C_8  and  C_43
    3  A    between atoms: C_9  and  C_15
    4  A    between atoms: C_9  and  C_26
    5  A    between atoms: C_10  and  C_32
    6  A    between atoms: C_11  and  C_29
    7  A    between atoms: C_13  and  C_34
    8  A    between atoms: C_13  and  C_48
    9  A    between atoms: C_14  and  C_38
   10  A    between atoms: C_16  and  C_26
   11  A    between atoms: C_20  and  O_22
   12  A    between atoms: C_26  and  C_45
   13  A    between atoms: C_29  and  C_38
   14  A    between atoms: C_32  and  C_48
   15  A    between atoms: C_33  and  C_49
                            x       y       z     vdW  Elec       q    Type
                         _______ _______ _______ _____ _____    ______ ____

>  <TORSDO>
F 15

$$$$
=
 OpenBabel11052419283D

 55 60  0  0  1  0  0  0  0  0999 V2000
  194.1190  171.1940  138.1230 O   0  0  0  0  0  0  0  0  0  0  0  0
  192.0520  174.2970  142.7870 C   0  0  0  0  0  2  0  0  0  0  0  0
  194.6020  175.7510  141.3760 S   0  0  0  0  0  1  0  0  0  0  0  0
  194.1930  173.6020  139.6260 C   0  0  0  0  0  2  0  0  0  0  0  0
  190.8090  170.6060  136.5200 C   0  0  0  0  0  3  0  0  0  0  0  0
  190.5830  171.5090  138.7770 C   0  0  0  0  0  0  0  0  0  0  0  0
  194.6340  170.7130  139.3340 C   0  0  0  0  0  2  0  0  0  0  0  0
  191.8960  171.4050  139.0030 C   0  0  0  0  0  3  0  0  0  0  0  0
  190.8510  174.9390  142.0900 C   0  0  0  0  0  2  0  0  0  0  0  0
  192.9730  173.5360  141.8300 C   0  0  0  0  0  2  0  0  0  0  0  0
  193.5200  174.4310  140.7210 C   0  0  1  0  0  3  0  0  0  0  0  0
  192.2980  170.8390  136.5990 C   0  0  0  0  0  2  0  0  0  0  0  0
  189.8670  173.8950  141.5810 C   0  0  2  0  0  3  0  0  0  0  0  0
  192.8110  170.6900  138.0360 C   0  0  1  0  0  3  0  0  0  0  0  0
  195.5790  173.0770  140.0140 C   0  0  1  0  0  3  0  0  0  0  0  0
  195.8200  171.5530  139.8180 C   0  0  1  0  0  3  0  0  0  0  0  0
  190.2010  173.5320  140.1400 C   0  0  0  0  0  2  0  0  0  0  0  0
  189.7040  172.1320  139.8100 C   0  0  0  0  0  2  0  0  0  0  0  0
  190.0090  170.9630  137.5320 C   0  0  0  0  0  3  0  0  0  0  0  0
  196.4180  170.8850  141.0630 C   0  0  1  0  0  0  0  0  0  0  0  0
  196.4830  171.6510  142.3360 C   0  0  2  0  0  3  0  0  0  0  0  0
  196.4210  169.4850  141.1260 O   0  0  0  0  0  1  0  0  0  0  0  0
  197.6260  171.4370  141.5270 O   0  0  0  0  0  0  0  0  0  0  0  0
  196.5610  170.7570  143.5670 C   0  0  0  0  0  2  0  0  0  0  0  0
  195.5010  171.1630  144.5760 C   0  0  0  0  0  2  0  0  0  0  0  0
  195.0270  172.5830  144.3110 C   0  0  0  0  0  2  0  0  0  0  0  0
  195.5360  173.5160  145.4000 C   0  0  1  0  0  3  0  0  0  0  0  0
  195.3450  175.5430  145.2240 C   0  0  0  0  0  2  0  0  0  0  0  0
  196.4360  174.5830  144.8180 C   0  0  0  0  0  2  0  0  0  0  0  0
  194.5010  174.4780  145.7540 N   0  0  0  0  0  2  0  0  0  0  0  0
  188.4370  174.4140  141.6920 C   0  0  0  0  0  2  0  0  0  0  0  0
  188.2380  175.5180  140.8550 O   0  0  0  0  0  0  0  0  0  0  0  0
  185.9780  177.8960  143.3890 C   0  0  1  0  0  3  0  0  0  0  0  0
  188.8760  178.0490  143.7790 C   0  0  0  0  0  2  0  0  0  0  0  0
  187.8450  177.7530  141.6740 C   0  0  1  0  0  3  0  0  0  0  0  0
  188.9630  175.7190  144.6710 C   0  0  0  0  0  1  0  0  0  0  0  0
  188.0910  176.9680  144.5540 C   0  0  2  0  0  0  0  0  0  0  0  0
  187.3150  176.3180  141.5330 C   0  0  2  0  0  3  0  0  0  0  0  0
  186.7080  178.6270  142.2490 C   0  0  0  0  0  2  0  0  0  0  0  0
  184.6960  177.5370  142.9690 O   0  0  0  0  0  1  0  0  0  0  0  0
  186.9530  175.7010  142.7630 O   0  0  0  0  0  0  0  0  0  0  0  0
  189.0660  177.7440  142.4100 O   0  0  0  0  0  0  0  0  0  0  0  0
  186.7590  176.6310  143.8250 C   0  0  2  0  0  3  0  0  0  0  0  0
  188.9740  177.5180  146.9050 C   0  0  0  0  0  1  0  0  0  0  0  0
  187.7660  177.5150  145.9660 C   0  0  2  0  0  3  0  0  0  0  0  0
  186.5290  176.8600  146.6080 C   0  0  1  0  0  3  0  0  0  0  0  0
  186.8830  175.9650  147.6280 O   0  0  0  0  0  1  0  0  0  0  0  0
  185.5270  177.8940  147.1120 C   0  0  0  0  0  2  0  0  0  0  0  0
  184.2770  177.7090  146.5220 O   0  0  0  0  0  1  0  0  0  0  0  0
  196.6570  173.9330  139.3370 C   0  0  1  0  0  3  0  0  0  0  0  0
  197.8280  174.2010  140.2390 C   0  0  0  0  0  3  0  0  0  0  0  0
  197.8430  175.1690  140.9850 O   0  0  0  0  0  0  0  0  0  0  0  0
  197.0850  173.3740  137.9780 C   0  0  0  0  0  2  0  0  0  0  0  0
  196.7280  174.3300  136.8520 C   0  0  0  0  0  2  0  0  0  0  0  0
  195.4670  173.8760  136.1420 C   0  0  0  0  0  1  0  0  0  0  0  0
  1  7  1  0  0  0  0
  4 15  1  0  0  0  0
  4 11  1  0  0  0  0
  5 12  1  0  0  0  0
  5 19  2  0  0  0  0
  6  8  2  0  0  0  0
  6 18  1  0  0  0  0
  9  2  1  0  0  0  0
 10  2  1  0  0  0  0
 11  3  1  1  0  0  0
 11 10  1  0  0  0  0
 13 31  1  6  0  0  0
 13  9  1  0  0  0  0
 14 12  1  6  0  0  0
 14  1  1  0  0  0  0
 14  8  1  0  0  0  0
 15 50  1  6  0  0  0
 16  7  1  1  0  0  0
 16 15  1  0  0  0  0
 16 20  1  0  0  0  0
 17 13  1  0  0  0  0
 18 17  1  0  0  0  0
 19  6  1  0  0  0  0
 20 22  1  1  0  0  0
 20 23  1  0  0  0  0
 20 21  1  0  0  0  0
 21 24  1  1  0  0  0
 23 21  1  0  0  0  0
 24 25  1  0  0  0  0
 26 25  1  0  0  0  0
 27 26  1  6  0  0  0
 27 30  1  0  0  0  0
 28 30  1  0  0  0  0
 29 28  1  0  0  0  0
 29 27  1  0  0  0  0
 32 31  1  0  0  0  0
 33 40  1  6  0  0  0
 33 43  1  0  0  0  0
 34 37  1  0  0  0  0
 35 39  1  1  0  0  0
 35 42  1  0  0  0  0
 37 36  1  1  0  0  0
 37 45  1  0  0  0  0
 38 32  1  1  0  0  0
 38 35  1  0  0  0  0
 38 41  1  0  0  0  0
 39 33  1  0  0  0  0
 42 34  1  0  0  0  0
 43 41  1  6  0  0  0
 43 37  1  0  0  0  0
 45 46  1  0  0  0  0
 45 44  1  1  0  0  0
 46 48  1  0  0  0  0
 46 47  1  1  0  0  0
 49 48  1  0  0  0  0
 50 53  1  6  0  0  0
 50 51  1  0  0  0  0
 51 52  2  0  0  0  0
 54 53  1  0  0  0  0
 55 54  1  0  0  0  0
M  END
>  <MODEL>
4

>  <REMARK>
 VINA RESULT:      -6.1      3.099      9.665
  Name = 
  15 active torsions:
  status: ('A' for Active; 'I' for Inactive)
    1  A    between atoms: C_8  and  O_22
    2  A    between atoms: C_8  and  C_43
    3  A    between atoms: C_9  and  C_15
    4  A    between atoms: C_9  and  C_26
    5  A    between atoms: C_10  and  C_32
    6  A    between atoms: C_11  and  C_29
    7  A    between atoms: C_13  and  C_34
    8  A    between atoms: C_13  and  C_48
    9  A    between atoms: C_14  and  C_38
   10  A    between atoms: C_16  and  C_26
   11  A    between atoms: C_20  and  O_22
   12  A    between atoms: C_26  and  C_45
   13  A    between atoms: C_29  and  C_38
   14  A    between atoms: C_32  and  C_48
   15  A    between atoms: C_33  and  C_49
                            x       y       z     vdW  Elec       q    Type
                         _______ _______ _______ _____ _____    ______ ____

>  <TORSDO>
F 15

$$$$
=
 OpenBabel11052419283D

 55 60  0  0  1  0  0  0  0  0999 V2000
  196.0140  174.8740  140.2680 O   0  0  0  0  0  0  0  0  0  0  0  0
  190.6920  172.6340  141.7920 C   0  0  0  0  0  2  0  0  0  0  0  0
  192.6150  170.4000  140.4080 S   0  0  0  0  0  1  0  0  0  0  0  0
  194.3740  172.5740  140.5680 C   0  0  0  0  0  2  0  0  0  0  0  0
  196.6800  176.5910  143.5050 C   0  0  0  0  0  3  0  0  0  0  0  0
  194.3760  175.7990  143.3480 C   0  0  0  0  0  0  0  0  0  0  0  0
  195.0430  175.1330  139.2910 C   0  0  0  0  0  2  0  0  0  0  0  0
  194.5340  175.4390  142.0720 C   0  0  0  0  0  3  0  0  0  0  0  0
  190.9650  172.4570  143.2870 C   0  0  0  0  0  2  0  0  0  0  0  0
  191.9330  173.0380  140.9930 C   0  0  0  0  0  2  0  0  0  0  0  0
  193.0630  172.0200  141.1270 C   0  0  1  0  0  3  0  0  0  0  0  0
  196.9970  175.8540  142.2270 C   0  0  0  0  0  2  0  0  0  0  0  0
  191.2750  173.7830  143.9680 C   0  0  2  0  0  3  0  0  0  0  0  0
  195.7790  175.8010  141.2950 C   0  0  1  0  0  3  0  0  0  0  0  0
  194.4370  172.5820  139.0370 C   0  0  1  0  0  3  0  0  0  0  0  0
  194.8330  173.9290  138.3690 C   0  0  1  0  0  3  0  0  0  0  0  0
  192.7790  174.0210  143.9690 C   0  0  0  0  0  2  0  0  0  0  0  0
  193.0860  175.5100  144.0420 C   0  0  0  0  0  2  0  0  0  0  0  0
  195.4580  176.5240  144.0440 C   0  0  0  0  0  3  0  0  0  0  0  0
  193.8700  174.3360  137.2450 C   0  0  1  0  0  0  0  0  0  0  0  0
  193.0330  173.2920  136.5940 C   0  0  2  0  0  3  0  0  0  0  0  0
  193.4350  175.6660  137.1940 O   0  0  0  0  0  1  0  0  0  0  0  0
  194.1820  173.8330  135.9680 O   0  0  0  0  0  0  0  0  0  0  0  0
  191.7830  173.8560  135.9320 C   0  0  0  0  0  2  0  0  0  0  0  0
  190.5400  173.3550  136.6470 C   0  0  0  0  0  2  0  0  0  0  0  0
  190.8570  172.1070  137.4560 C   0  0  0  0  0  2  0  0  0  0  0  0
  190.1530  170.9000  136.8520 C   0  0  1  0  0  3  0  0  0  0  0  0
  190.6300  169.0020  137.4370 C   0  0  0  0  0  2  0  0  0  0  0  0
  191.1570  169.8920  136.3390 C   0  0  0  0  0  2  0  0  0  0  0  0
  189.6920  170.0130  137.9100 N   0  0  0  0  0  2  0  0  0  0  0  0
  190.7230  173.7910  145.3900 C   0  0  0  0  0  2  0  0  0  0  0  0
  189.4160  174.2900  145.4180 O   0  0  0  0  0  0  0  0  0  0  0  0
  188.9950  177.9970  143.6110 C   0  0  1  0  0  3  0  0  0  0  0  0
  187.7890  177.7540  146.2680 C   0  0  0  0  0  2  0  0  0  0  0  0
  189.7850  176.6660  145.6230 C   0  0  1  0  0  3  0  0  0  0  0  0
  186.0280  176.2010  145.4180 C   0  0  0  0  0  1  0  0  0  0  0  0
  186.9330  177.3730  145.0400 C   0  0  2  0  0  0  0  0  0  0  0  0
  189.4750  175.4830  144.6930 C   0  0  2  0  0  3  0  0  0  0  0  0
  190.0310  177.9120  144.7440 C   0  0  0  0  0  2  0  0  0  0  0  0
  189.6160  177.7360  142.3880 O   0  0  0  0  0  1  0  0  0  0  0  0
  188.2900  175.6370  143.9200 O   0  0  0  0  0  0  0  0  0  0  0  0
  188.7610  176.7820  146.6080 O   0  0  0  0  0  0  0  0  0  0  0  0
  187.8420  176.9880  143.8380 C   0  0  2  0  0  3  0  0  0  0  0  0
  185.8530  179.5790  145.7970 C   0  0  0  0  0  1  0  0  0  0  0  0
  186.0700  178.5960  144.6440 C   0  0  2  0  0  3  0  0  0  0  0  0
  184.7520  178.2170  143.9450 C   0  0  1  0  0  3  0  0  0  0  0  0
  183.6910  179.0380  144.3490 O   0  0  0  0  0  1  0  0  0  0  0  0
  184.8890  178.2110  142.4250 C   0  0  0  0  0  2  0  0  0  0  0  0
  185.9320  179.0410  142.0130 O   0  0  0  0  0  1  0  0  0  0  0  0
  195.3050  171.4120  138.5560 C   0  0  1  0  0  3  0  0  0  0  0  0
  196.2120  170.8880  139.6330 C   0  0  0  0  0  3  0  0  0  0  0  0
  197.4120  171.1150  139.6140 O   0  0  0  0  0  0  0  0  0  0  0  0
  194.4820  170.3020  137.8970 C   0  0  0  0  0  2  0  0  0  0  0  0
  195.1080  169.8570  136.5850 C   0  0  0  0  0  2  0  0  0  0  0  0
  196.0210  170.9350  136.0340 C   0  0  0  0  0  1  0  0  0  0  0  0
  1 14  1  0  0  0  0
  2  9  1  0  0  0  0
  4 11  1  0  0  0  0
  5 19  2  0  0  0  0
  6 18  1  0  0  0  0
  6 19  1  0  0  0  0
  7  1  1  0  0  0  0
  8  6  2  0  0  0  0
  9 13  1  0  0  0  0
 10 11  1  0  0  0  0
 10  2  1  0  0  0  0
 11  3  1  6  0  0  0
 12  5  1  0  0  0  0
 13 17  1  0  0  0  0
 13 31  1  1  0  0  0
 14  8  1  1  0  0  0
 14 12  1  0  0  0  0
 15 50  1  1  0  0  0
 15  4  1  0  0  0  0
 16 15  1  0  0  0  0
 16  7  1  1  0  0  0
 17 18  1  0  0  0  0
 20 22  1  1  0  0  0
 20 16  1  0  0  0  0
 21 24  1  6  0  0  0
 21 20  1  0  0  0  0
 23 21  1  0  0  0  0
 23 20  1  0  0  0  0
 24 25  1  0  0  0  0
 25 26  1  0  0  0  0
 27 26  1  1  0  0  0
 27 30  1  0  0  0  0
 28 30  1  0  0  0  0
 29 27  1  0  0  0  0
 29 28  1  0  0  0  0
 31 32  1  0  0  0  0
 33 40  1  6  0  0  0
 33 43  1  0  0  0  0
 33 39  1  0  0  0  0
 34 42  1  0  0  0  0
 35 39  1  6  0  0  0
 35 42  1  0  0  0  0
 37 36  1  1  0  0  0
 37 34  1  0  0  0  0
 38 32  1  1  0  0  0
 38 35  1  0  0  0  0
 41 38  1  0  0  0  0
 43 41  1  1  0  0  0
 43 37  1  0  0  0  0
 45 37  1  0  0  0  0
 45 44  1  1  0  0  0
 46 47  1  6  0  0  0
 46 45  1  0  0  0  0
 48 46  1  0  0  0  0
 49 48  1  0  0  0  0
 50 53  1  1  0  0  0
 50 51  1  0  0  0  0
 52 51  2  0  0  0  0
 54 53  1  0  0  0  0
 55 54  1  0  0  0  0
M  END
>  <MODEL>
5

>  <REMARK>
 VINA RESULT:      -6.0      3.024      9.324
  Name = 
  15 active torsions:
  status: ('A' for Active; 'I' for Inactive)
    1  A    between atoms: C_8  and  O_22
    2  A    between atoms: C_8  and  C_43
    3  A    between atoms: C_9  and  C_15
    4  A    between atoms: C_9  and  C_26
    5  A    between atoms: C_10  and  C_32
    6  A    between atoms: C_11  and  C_29
    7  A    between atoms: C_13  and  C_34
    8  A    between atoms: C_13  and  C_48
    9  A    between atoms: C_14  and  C_38
   10  A    between atoms: C_16  and  C_26
   11  A    between atoms: C_20  and  O_22
   12  A    between atoms: C_26  and  C_45
   13  A    between atoms: C_29  and  C_38
   14  A    between atoms: C_32  and  C_48
   15  A    between atoms: C_33  and  C_49
                            x       y       z     vdW  Elec       q    Type
                         _______ _______ _______ _____ _____    ______ ____

>  <TORSDO>
F 15

$$$$
=
 OpenBabel11052419283D

 55 60  0  0  1  0  0  0  0  0999 V2000
  195.2060  173.5920  143.8490 O   0  0  0  0  0  0  0  0  0  0  0  0
  190.4730  172.3030  140.4450 C   0  0  0  0  0  2  0  0  0  0  0  0
  191.6120  169.6830  142.0090 S   0  0  0  0  0  1  0  0  0  0  0  0
  193.2370  171.6880  143.0980 C   0  0  0  0  0  2  0  0  0  0  0  0
  193.7390  176.6060  145.4700 C   0  0  0  0  0  3  0  0  0  0  0  0
  192.3870  175.8310  143.5910 C   0  0  0  0  0  0  0  0  0  0  0  0
  195.5730  173.3720  142.5150 C   0  0  0  0  0  2  0  0  0  0  0  0
  193.3030  174.9230  143.2430 C   0  0  0  0  0  3  0  0  0  0  0  0
  189.3910  172.8330  141.3870 C   0  0  0  0  0  2  0  0  0  0  0  0
  191.8700  172.2930  141.0690 C   0  0  0  0  0  2  0  0  0  0  0  0
  191.9290  171.4520  142.3410 C   0  0  1  0  0  3  0  0  0  0  0  0
  194.5860  175.3650  145.3460 C   0  0  0  0  0  2  0  0  0  0  0  0
  189.5520  174.3240  141.6520 C   0  0  2  0  0  3  0  0  0  0  0  0
  194.6680  174.8880  143.8900 C   0  0  1  0  0  3  0  0  0  0  0  0
  194.4480  170.9900  142.4690 C   0  0  1  0  0  3  0  0  0  0  0  0
  195.6950  171.8780  142.2010 C   0  0  1  0  0  3  0  0  0  0  0  0
  190.4010  174.5370  142.8980 C   0  0  0  0  0  2  0  0  0  0  0  0
  191.0920  175.8930  142.8520 C   0  0  0  0  0  2  0  0  0  0  0  0
  192.6840  176.7950  144.6690 C   0  0  0  0  0  3  0  0  0  0  0  0
  196.2370  171.7210  140.7740 C   0  0  1  0  0  0  0  0  0  0  0  0
  195.4600  172.2830  139.6370 C   0  0  2  0  0  3  0  0  0  0  0  0
  197.6130  171.5220  140.6060 O   0  0  0  0  0  1  0  0  0  0  0  0
  195.4770  170.8970  139.9230 O   0  0  0  0  0  0  0  0  0  0  0  0
  196.3140  172.5570  138.4060 C   0  0  0  0  0  2  0  0  0  0  0  0
  195.4340  172.6690  137.1730 C   0  0  0  0  0  2  0  0  0  0  0  0
  193.9660  172.6870  137.5650 C   0  0  0  0  0  2  0  0  0  0  0  0
  193.1570  171.8320  136.6000 C   0  0  1  0  0  3  0  0  0  0  0  0
  191.3970  170.9700  137.1790 C   0  0  0  0  0  2  0  0  0  0  0  0
  192.8270  170.4910  137.2160 C   0  0  0  0  0  2  0  0  0  0  0  0
  191.7650  172.2590  136.6040 N   0  0  0  0  0  2  0  0  0  0  0  0
  188.1860  174.9860  141.8070 C   0  0  0  0  0  2  0  0  0  0  0  0
  188.1930  176.2800  141.2730 O   0  0  0  0  0  0  0  0  0  0  0  0
  185.1670  178.0250  143.5060 C   0  0  1  0  0  3  0  0  0  0  0  0
  187.8490  178.2090  144.6680 C   0  0  0  0  0  2  0  0  0  0  0  0
  187.4110  178.2930  142.3480 C   0  0  1  0  0  3  0  0  0  0  0  0
  187.9140  175.7540  145.1170 C   0  0  0  0  0  1  0  0  0  0  0  0
  186.9920  176.9670  145.0010 C   0  0  2  0  0  0  0  0  0  0  0  0
  187.0620  176.8950  141.8170 C   0  0  2  0  0  3  0  0  0  0  0  0
  186.0940  178.9930  142.7500 C   0  0  0  0  0  2  0  0  0  0  0  0
  184.0690  177.7070  142.7060 O   0  0  0  0  0  1  0  0  0  0  0  0
  186.4580  176.0340  142.7760 O   0  0  0  0  0  0  0  0  0  0  0  0
  188.4030  178.1860  143.3660 O   0  0  0  0  0  0  0  0  0  0  0  0
  185.9220  176.7300  143.8980 C   0  0  2  0  0  3  0  0  0  0  0  0
  184.9900  176.3980  146.5100 C   0  0  0  0  0  1  0  0  0  0  0  0
  186.2760  177.2130  146.3510 C   0  0  2  0  0  3  0  0  0  0  0  0
  186.0640  178.7040  146.6710 C   0  0  1  0  0  3  0  0  0  0  0  0
  184.7330  179.0960  146.4730 O   0  0  0  0  0  1  0  0  0  0  0  0
  186.5360  179.0630  148.0770 C   0  0  0  0  0  2  0  0  0  0  0  0
  186.3200  180.4150  148.3480 O   0  0  0  0  0  1  0  0  0  0  0  0
  194.7870  169.7300  143.2750 C   0  0  1  0  0  3  0  0  0  0  0  0
  195.5360  168.7120  142.4640 C   0  0  0  0  0  3  0  0  0  0  0  0
  196.7400  168.5550  142.6040 O   0  0  0  0  0  0  0  0  0  0  0  0
  195.4860  170.0500  144.5990 C   0  0  0  0  0  2  0  0  0  0  0  0
  195.2430  168.9580  145.6280 C   0  0  0  0  0  2  0  0  0  0  0  0
  196.0010  169.2500  146.9090 C   0  0  0  0  0  1  0  0  0  0  0  0
  1 14  1  0  0  0  0
  2 10  1  0  0  0  0
  2  9  1  0  0  0  0
  6 19  1  0  0  0  0
  7  1  1  0  0  0  0
  8  6  2  0  0  0  0
  9 13  1  0  0  0  0
 10 11  1  0  0  0  0
 11  3  1  6  0  0  0
 11  4  1  0  0  0  0
 12  5  1  0  0  0  0
 13 31  1  1  0  0  0
 13 17  1  0  0  0  0
 14  8  1  1  0  0  0
 14 12  1  0  0  0  0
 15  4  1  0  0  0  0
 15 50  1  1  0  0  0
 16 15  1  0  0  0  0
 16  7  1  6  0  0  0
 18 17  1  0  0  0  0
 18  6  1  0  0  0  0
 19  5  2  0  0  0  0
 20 22  1  6  0  0  0
 20 16  1  0  0  0  0
 21 24  1  6  0  0  0
 21 23  1  0  0  0  0
 21 20  1  0  0  0  0
 23 20  1  0  0  0  0
 25 26  1  0  0  0  0
 25 24  1  0  0  0  0
 27 30  1  0  0  0  0
 27 29  1  0  0  0  0
 27 26  1  1  0  0  0
 28 29  1  0  0  0  0
 30 28  1  0  0  0  0
 32 31  1  0  0  0  0
 33 40  1  6  0  0  0
 33 43  1  0  0  0  0
 34 37  1  0  0  0  0
 35 39  1  1  0  0  0
 35 42  1  0  0  0  0
 37 36  1  1  0  0  0
 37 45  1  0  0  0  0
 38 32  1  1  0  0  0
 38 35  1  0  0  0  0
 38 41  1  0  0  0  0
 39 33  1  0  0  0  0
 42 34  1  0  0  0  0
 43 41  1  6  0  0  0
 43 37  1  0  0  0  0
 45 44  1  6  0  0  0
 45 46  1  0  0  0  0
 46 47  1  1  0  0  0
 46 48  1  0  0  0  0
 48 49  1  0  0  0  0
 50 51  1  6  0  0  0
 50 53  1  0  0  0  0
 51 52  2  0  0  0  0
 53 54  1  0  0  0  0
 54 55  1  0  0  0  0
M  END
>  <MODEL>
6

>  <REMARK>
 VINA RESULT:      -6.0      3.177      9.843
  Name = 
  15 active torsions:
  status: ('A' for Active; 'I' for Inactive)
    1  A    between atoms: C_8  and  O_22
    2  A    between atoms: C_8  and  C_43
    3  A    between atoms: C_9  and  C_15
    4  A    between atoms: C_9  and  C_26
    5  A    between atoms: C_10  and  C_32
    6  A    between atoms: C_11  and  C_29
    7  A    between atoms: C_13  and  C_34
    8  A    between atoms: C_13  and  C_48
    9  A    between atoms: C_14  and  C_38
   10  A    between atoms: C_16  and  C_26
   11  A    between atoms: C_20  and  O_22
   12  A    between atoms: C_26  and  C_45
   13  A    between atoms: C_29  and  C_38
   14  A    between atoms: C_32  and  C_48
   15  A    between atoms: C_33  and  C_49
                            x       y       z     vdW  Elec       q    Type
                         _______ _______ _______ _____ _____    ______ ____

>  <TORSDO>
F 15

$$$$
=
 OpenBabel11052419283D

 55 60  0  0  1  0  0  0  0  0999 V2000
  189.0630  177.5450  144.1150 O   0  0  0  0  0  0  0  0  0  0  0  0
  190.8870  172.5360  141.4240 C   0  0  0  0  0  2  0  0  0  0  0  0
  190.5300  172.1450  144.6380 S   0  0  0  0  0  1  0  0  0  0  0  0
  189.5730  174.7590  144.3210 C   0  0  0  0  0  2  0  0  0  0  0  0
  186.3220  178.3250  141.7170 C   0  0  0  0  0  3  0  0  0  0  0  0
  187.7700  176.5380  140.8990 C   0  0  0  0  0  0  0  0  0  0  0  0
  190.4510  177.5340  143.9270 C   0  0  0  0  0  2  0  0  0  0  0  0
  188.6280  176.7030  141.9090 C   0  0  0  0  0  3  0  0  0  0  0  0
  189.5320  172.0990  140.8640 C   0  0  0  0  0  2  0  0  0  0  0  0
  190.7940  173.7380  142.3660 C   0  0  0  0  0  2  0  0  0  0  0  0
  189.8790  173.4690  143.5580 C   0  0  1  0  0  3  0  0  0  0  0  0
  187.0410  178.2720  143.0430 C   0  0  0  0  0  2  0  0  0  0  0  0
  188.9610  173.1260  139.8950 C   0  0  2  0  0  3  0  0  0  0  0  0
  188.5100  177.8680  142.8650 C   0  0  1  0  0  3  0  0  0  0  0  0
  190.7310  175.2440  145.2000 C   0  0  1  0  0  3  0  0  0  0  0  0
  191.1630  176.7260  145.0160 C   0  0  1  0  0  3  0  0  0  0  0  0
  188.0640  174.0990  140.6480 C   0  0  0  0  0  2  0  0  0  0  0  0
  187.9870  175.4330  139.9190 C   0  0  0  0  0  2  0  0  0  0  0  0
  186.6440  177.4790  140.7320 C   0  0  0  0  0  3  0  0  0  0  0  0
  192.6780  176.8800  144.8280 C   0  0  1  0  0  0  0  0  0  0  0  0
  193.5830  176.5960  145.9740 C   0  0  2  0  0  3  0  0  0  0  0  0
  193.1980  176.7900  143.5310 O   0  0  0  0  0  1  0  0  0  0  0  0
  193.2780  177.9180  145.5660 O   0  0  0  0  0  0  0  0  0  0  0  0
  195.0020  176.2480  145.5430 C   0  0  0  0  0  2  0  0  0  0  0  0
  195.3550  174.8410  145.9920 C   0  0  0  0  0  2  0  0  0  0  0  0
  194.3170  173.8460  145.4970 C   0  0  0  0  0  2  0  0  0  0  0  0
  194.9340  172.4590  145.3870 C   0  0  1  0  0  3  0  0  0  0  0  0
  195.7060  171.7890  143.6180 C   0  0  0  0  0  2  0  0  0  0  0  0
  194.3310  171.6930  144.2300 C   0  0  0  0  0  2  0  0  0  0  0  0
  196.2380  172.5450  144.7460 N   0  0  0  0  0  2  0  0  0  0  0  0
  188.1910  172.4320  138.7770 C   0  0  0  0  0  2  0  0  0  0  0  0
  189.0070  171.5190  138.0980 O   0  0  0  0  0  0  0  0  0  0  0  0
  190.7420  173.2720  134.7670 C   0  0  1  0  0  3  0  0  0  0  0  0
  192.2010  170.9950  135.8880 C   0  0  0  0  0  2  0  0  0  0  0  0
  189.8450  171.1660  135.8640 C   0  0  1  0  0  3  0  0  0  0  0  0
  192.8160  172.2880  137.9330 C   0  0  0  0  0  1  0  0  0  0  0  0
  192.5110  172.4040  136.4400 C   0  0  2  0  0  0  0  0  0  0  0  0
  189.3690  172.1750  136.9190 C   0  0  2  0  0  3  0  0  0  0  0  0
  190.0400  171.9240  134.5320 C   0  0  0  0  0  2  0  0  0  0  0  0
  189.8390  174.3150  134.5500 O   0  0  0  0  0  1  0  0  0  0  0  0
  190.3040  173.2080  137.2090 O   0  0  0  0  0  0  0  0  0  0  0  0
  190.9790  170.4560  136.3560 O   0  0  0  0  0  0  0  0  0  0  0  0
  191.3070  173.3600  136.2070 C   0  0  2  0  0  3  0  0  0  0  0  0
  194.3480  171.9710  134.6950 C   0  0  0  0  0  1  0  0  0  0  0  0
  193.7470  172.9630  135.6940 C   0  0  2  0  0  3  0  0  0  0  0  0
  194.8100  173.5640  136.6310 C   0  0  1  0  0  3  0  0  0  0  0  0
  196.0760  173.0050  136.4110 O   0  0  0  0  0  1  0  0  0  0  0  0
  194.8610  175.0860  136.5400 C   0  0  0  0  0  2  0  0  0  0  0  0
  193.7960  175.6660  137.2290 O   0  0  0  0  0  1  0  0  0  0  0  0
  190.4390  174.8950  146.6660 C   0  0  1  0  0  3  0  0  0  0  0  0
  191.1940  175.7700  147.6260 C   0  0  0  0  0  3  0  0  0  0  0  0
  191.5660  175.3450  148.7090 O   0  0  0  0  0  0  0  0  0  0  0  0
  188.9410  174.8510  146.9730 C   0  0  0  0  0  2  0  0  0  0  0  0
  188.3970  176.2400  147.2630 C   0  0  0  0  0  2  0  0  0  0  0  0
  187.0200  176.4150  146.6510 C   0  0  0  0  0  1  0  0  0  0  0  0
  2 10  1  0  0  0  0
  4 15  1  0  0  0  0
  5 12  1  0  0  0  0
  6  8  2  0  0  0  0
  7  1  1  0  0  0  0
  9  2  1  0  0  0  0
 10 11  1  0  0  0  0
 11  4  1  0  0  0  0
 11  3  1  1  0  0  0
 13 31  1  6  0  0  0
 13 17  1  0  0  0  0
 13  9  1  0  0  0  0
 14  8  1  6  0  0  0
 14 12  1  0  0  0  0
 14  1  1  0  0  0  0
 15 50  1  1  0  0  0
 16  7  1  6  0  0  0
 16 15  1  0  0  0  0
 18 17  1  0  0  0  0
 18  6  1  0  0  0  0
 19  6  1  0  0  0  0
 19  5  2  0  0  0  0
 20 22  1  6  0  0  0
 20 16  1  0  0  0  0
 20 23  1  0  0  0  0
 20 21  1  0  0  0  0
 21 24  1  6  0  0  0
 23 21  1  0  0  0  0
 24 25  1  0  0  0  0
 26 25  1  0  0  0  0
 27 26  1  6  0  0  0
 28 29  1  0  0  0  0
 28 30  1  0  0  0  0
 29 27  1  0  0  0  0
 30 27  1  0  0  0  0
 32 31  1  0  0  0  0
 33 40  1  1  0  0  0
 33 43  1  0  0  0  0
 34 42  1  0  0  0  0
 34 37  1  0  0  0  0
 35 39  1  6  0  0  0
 35 42  1  0  0  0  0
 35 38  1  0  0  0  0
 37 36  1  1  0  0  0
 38 41  1  0  0  0  0
 38 32  1  1  0  0  0
 39 33  1  0  0  0  0
 43 37  1  0  0  0  0
 43 41  1  1  0  0  0
 45 44  1  1  0  0  0
 45 37  1  0  0  0  0
 45 46  1  0  0  0  0
 46 47  1  6  0  0  0
 48 46  1  0  0  0  0
 48 49  1  0  0  0  0
 50 53  1  1  0  0  0
 50 51  1  0  0  0  0
 51 52  2  0  0  0  0
 53 54  1  0  0  0  0
 55 54  1  0  0  0  0
M  END
>  <MODEL>
7

>  <REMARK>
 VINA RESULT:      -5.9      2.900      6.581
  Name = 
  15 active torsions:
  status: ('A' for Active; 'I' for Inactive)
    1  A    between atoms: C_8  and  O_22
    2  A    between atoms: C_8  and  C_43
    3  A    between atoms: C_9  and  C_15
    4  A    between atoms: C_9  and  C_26
    5  A    between atoms: C_10  and  C_32
    6  A    between atoms: C_11  and  C_29
    7  A    between atoms: C_13  and  C_34
    8  A    between atoms: C_13  and  C_48
    9  A    between atoms: C_14  and  C_38
   10  A    between atoms: C_16  and  C_26
   11  A    between atoms: C_20  and  O_22
   12  A    between atoms: C_26  and  C_45
   13  A    between atoms: C_29  and  C_38
   14  A    between atoms: C_32  and  C_48
   15  A    between atoms: C_33  and  C_49
                            x       y       z     vdW  Elec       q    Type
                         _______ _______ _______ _____ _____    ______ ____

>  <TORSDO>
F 15

$$$$
=
 OpenBabel11052419283D

 55 60  0  0  1  0  0  0  0  0999 V2000
  193.2440  171.5300  138.8180 O   0  0  0  0  0  0  0  0  0  0  0  0
  195.6940  174.9010  143.0950 C   0  0  0  0  0  2  0  0  0  0  0  0
  196.8390  175.6430  140.1380 S   0  0  0  0  0  1  0  0  0  0  0  0
  194.8700  173.7630  139.4780 C   0  0  0  0  0  2  0  0  0  0  0  0
  189.7160  171.9470  139.9350 C   0  0  0  0  0  3  0  0  0  0  0  0
  191.3030  172.7880  141.5890 C   0  0  0  0  0  0  0  0  0  0  0  0
  194.3180  170.8780  139.4400 C   0  0  0  0  0  2  0  0  0  0  0  0
  192.3460  172.3150  140.9010 C   0  0  0  0  0  3  0  0  0  0  0  0
  194.5310  175.8770  143.2780 C   0  0  0  0  0  2  0  0  0  0  0  0
  195.5090  173.9520  141.9090 C   0  0  0  0  0  2  0  0  0  0  0  0
  195.3380  174.7020  140.5900 C   0  0  1  0  0  3  0  0  0  0  0  0
  190.8590  171.7540  138.9680 C   0  0  0  0  0  2  0  0  0  0  0  0
  193.2600  175.1690  143.7270 C   0  0  2  0  0  3  0  0  0  0  0  0
  192.1610  171.4120  139.7030 C   0  0  1  0  0  3  0  0  0  0  0  0
  195.9790  172.8580  138.9280 C   0  0  1  0  0  3  0  0  0  0  0  0
  195.6640  171.3370  138.8720 C   0  0  1  0  0  3  0  0  0  0  0  0
  192.4290  174.7840  142.5110 C   0  0  0  0  0  2  0  0  0  0  0  0
  191.5380  173.5910  142.8250 C   0  0  0  0  0  2  0  0  0  0  0  0
  189.9300  172.4720  141.1470 C   0  0  0  0  0  3  0  0  0  0  0  0
  196.7750  170.4800  139.4940 C   0  0  1  0  0  0  0  0  0  0  0  0
  197.1190  170.6700  140.9290 C   0  0  2  0  0  3  0  0  0  0  0  0
  197.0810  169.2530  138.8930 O   0  0  0  0  0  1  0  0  0  0  0  0
  197.9320  171.1790  139.8870 O   0  0  0  0  0  0  0  0  0  0  0  0
  197.7930  169.4530  141.5480 C   0  0  0  0  0  2  0  0  0  0  0  0
  197.4040  169.3260  143.0110 C   0  0  0  0  0  2  0  0  0  0  0  0
  197.1430  170.6970  143.6140 C   0  0  0  0  0  2  0  0  0  0  0  0
  196.1230  170.5870  144.7390 C   0  0  1  0  0  3  0  0  0  0  0  0
  194.8000  172.0990  145.1110 C   0  0  0  0  0  2  0  0  0  0  0  0
  196.1820  171.8010  145.6390 C   0  0  0  0  0  2  0  0  0  0  0  0
  194.7970  170.9280  144.2420 N   0  0  0  0  0  2  0  0  0  0  0  0
  192.4600  176.0600  144.6710 C   0  0  0  0  0  2  0  0  0  0  0  0
  191.4110  176.6930  143.9950 O   0  0  0  0  0  0  0  0  0  0  0  0
  188.0100  177.1810  146.3130 C   0  0  1  0  0  3  0  0  0  0  0  0
  187.6090  175.7660  143.7810 C   0  0  0  0  0  2  0  0  0  0  0  0
  189.5670  175.5900  145.0910 C   0  0  1  0  0  3  0  0  0  0  0  0
  188.0270  177.8420  142.4580 C   0  0  0  0  0  1  0  0  0  0  0  0
  187.4880  177.3060  143.7840 C   0  0  2  0  0  0  0  0  0  0  0  0
  190.4160  176.8630  144.9600 C   0  0  2  0  0  3  0  0  0  0  0  0
  188.6210  175.7690  146.3000 C   0  0  0  0  0  2  0  0  0  0  0  0
  188.5480  177.9150  147.3710 O   0  0  0  0  0  1  0  0  0  0  0  0
  189.6700  178.0430  144.6810 O   0  0  0  0  0  0  0  0  0  0  0  0
  188.9430  175.2990  143.8430 O   0  0  0  0  0  0  0  0  0  0  0  0
  188.2810  177.9140  144.9760 C   0  0  2  0  0  3  0  0  0  0  0  0
  185.2310  177.6600  142.6060 C   0  0  0  0  0  1  0  0  0  0  0  0
  185.9940  177.6810  143.9330 C   0  0  2  0  0  3  0  0  0  0  0  0
  185.7630  178.9860  144.7170 C   0  0  1  0  0  3  0  0  0  0  0  0
  185.5650  180.0800  143.8640 O   0  0  0  0  0  1  0  0  0  0  0  0
  184.6190  178.8610  145.7180 C   0  0  0  0  0  2  0  0  0  0  0  0
  184.6200  177.6050  146.3260 O   0  0  0  0  0  1  0  0  0  0  0  0
  196.4640  173.4070  137.5800 C   0  0  1  0  0  3  0  0  0  0  0  0
  197.2280  172.3870  136.7850 C   0  0  0  0  0  3  0  0  0  0  0  0
  196.7640  171.9060  135.7620 O   0  0  0  0  0  0  0  0  0  0  0  0
  195.3380  174.0530  136.7690 C   0  0  0  0  0  2  0  0  0  0  0  0
  195.6860  175.4820  136.3840 C   0  0  0  0  0  2  0  0  0  0  0  0
  197.0660  175.5470  135.7580 C   0  0  0  0  0  1  0  0  0  0  0  0
  1  7  1  0  0  0  0
  1 14  1  0  0  0  0
  2  9  1  0  0  0  0
  4 11  1  0  0  0  0
  5 19  2  0  0  0  0
  6 18  1  0  0  0  0
  8  6  2  0  0  0  0
  9 13  1  0  0  0  0
 10  2  1  0  0  0  0
 11  3  1  6  0  0  0
 11 10  1  0  0  0  0
 12  5  1  0  0  0  0
 13 31  1  1  0  0  0
 14 12  1  6  0  0  0
 14  8  1  0  0  0  0
 15 50  1  6  0  0  0
 15  4  1  0  0  0  0
 16 15  1  0  0  0  0
 16  7  1  1  0  0  0
 16 20  1  0  0  0  0
 17 18  1  0  0  0  0
 17 13  1  0  0  0  0
 19  6  1  0  0  0  0
 20 22  1  6  0  0  0
 20 23  1  0  0  0  0
 20 21  1  0  0  0  0
 21 24  1  6  0  0  0
 23 21  1  0  0  0  0
 24 25  1  0  0  0  0
 25 26  1  0  0  0  0
 27 26  1  6  0  0  0
 27 29  1  0  0  0  0
 28 29  1  0  0  0  0
 30 27  1  0  0  0  0
 30 28  1  0  0  0  0
 32 31  1  0  0  0  0
 33 40  1  1  0  0  0
 34 37  1  0  0  0  0
 34 42  1  0  0  0  0
 35 39  1  1  0  0  0
 37 36  1  6  0  0  0
 37 45  1  0  0  0  0
 37 43  1  0  0  0  0
 38 32  1  6  0  0  0
 38 35  1  0  0  0  0
 39 33  1  0  0  0  0
 41 38  1  0  0  0  0
 42 35  1  0  0  0  0
 43 41  1  6  0  0  0
 43 33  1  0  0  0  0
 45 44  1  6  0  0  0
 45 46  1  0  0  0  0
 46 47  1  6  0  0  0
 46 48  1  0  0  0  0
 48 49  1  0  0  0  0
 50 53  1  6  0  0  0
 51 50  1  0  0  0  0
 52 51  2  0  0  0  0
 54 53  1  0  0  0  0
 55 54  1  0  0  0  0
M  END
>  <MODEL>
8

>  <REMARK>
 VINA RESULT:      -5.8      3.375     10.080
  Name = 
  15 active torsions:
  status: ('A' for Active; 'I' for Inactive)
    1  A    between atoms: C_8  and  O_22
    2  A    between atoms: C_8  and  C_43
    3  A    between atoms: C_9  and  C_15
    4  A    between atoms: C_9  and  C_26
    5  A    between atoms: C_10  and  C_32
    6  A    between atoms: C_11  and  C_29
    7  A    between atoms: C_13  and  C_34
    8  A    between atoms: C_13  and  C_48
    9  A    between atoms: C_14  and  C_38
   10  A    between atoms: C_16  and  C_26
   11  A    between atoms: C_20  and  O_22
   12  A    between atoms: C_26  and  C_45
   13  A    between atoms: C_29  and  C_38
   14  A    between atoms: C_32  and  C_48
   15  A    between atoms: C_33  and  C_49
                            x       y       z     vdW  Elec       q    Type
                         _______ _______ _______ _____ _____    ______ ____

>  <TORSDO>
F 15

$$$$
=
 OpenBabel11052419283D

 55 60  0  0  1  0  0  0  0  0999 V2000
  187.7280  177.5210  143.0340 O   0  0  0  0  0  0  0  0  0  0  0  0
  190.8650  172.6690  141.5250 C   0  0  0  0  0  2  0  0  0  0  0  0
  189.7300  172.4990  144.5730 S   0  0  0  0  0  1  0  0  0  0  0  0
  188.5420  174.8840  143.7060 C   0  0  0  0  0  2  0  0  0  0  0  0
  185.6370  177.6340  139.9550 C   0  0  0  0  0  3  0  0  0  0  0  0
  187.4800  176.0450  139.7500 C   0  0  0  0  0  0  0  0  0  0  0  0
  189.1050  177.7220  143.1990 C   0  0  0  0  0  2  0  0  0  0  0  0
  188.0100  176.4340  140.9120 C   0  0  0  0  0  3  0  0  0  0  0  0
  189.7790  171.9690  140.7050 C   0  0  0  0  0  2  0  0  0  0  0  0
  190.3640  173.9150  142.2570 C   0  0  0  0  0  2  0  0  0  0  0  0
  189.2120  173.6010  143.2100 C   0  0  1  0  0  3  0  0  0  0  0  0
  185.9810  177.8120  141.4130 C   0  0  0  0  0  2  0  0  0  0  0  0
  189.3480  172.8020  139.5060 C   0  0  2  0  0  3  0  0  0  0  0  0
  187.4860  177.6410  141.6570 C   0  0  1  0  0  3  0  0  0  0  0  0
  189.3490  175.6260  144.7770 C   0  0  1  0  0  3  0  0  0  0  0  0
  189.6080  177.1370  144.5220 C   0  0  1  0  0  3  0  0  0  0  0  0
  188.1600  173.6750  139.8850 C   0  0  0  0  0  2  0  0  0  0  0  0
  188.0970  174.9120  139.0000 C   0  0  0  0  0  2  0  0  0  0  0  0
  186.3200  176.7710  139.1940 C   0  0  0  0  0  3  0  0  0  0  0  0
  191.0830  177.5220  144.6980 C   0  0  1  0  0  0  0  0  0  0  0  0
  192.0560  176.4850  145.1340 C   0  0  2  0  0  3  0  0  0  0  0  0
  191.5660  178.6340  143.9970 O   0  0  0  0  0  1  0  0  0  0  0  0
  191.5690  177.4780  146.0180 O   0  0  0  0  0  0  0  0  0  0  0  0
  193.4920  176.8120  144.7470 C   0  0  0  0  0  2  0  0  0  0  0  0
  194.4590  176.1480  145.7130 C   0  0  0  0  0  2  0  0  0  0  0  0
  195.4720  175.3040  144.9580 C   0  0  0  0  0  2  0  0  0  0  0  0
  195.5160  173.8970  145.5380 C   0  0  1  0  0  3  0  0  0  0  0  0
  194.9540  172.2810  144.4210 C   0  0  0  0  0  2  0  0  0  0  0  0
  194.1900  173.1950  145.3470 C   0  0  0  0  0  2  0  0  0  0  0  0
  196.2050  173.0020  144.6190 N   0  0  0  0  0  2  0  0  0  0  0  0
  189.0030  171.8980  138.3270 C   0  0  0  0  0  2  0  0  0  0  0  0
  189.3230  170.5650  138.6070 O   0  0  0  0  0  0  0  0  0  0  0  0
  192.0430  169.5770  135.6390 C   0  0  1  0  0  3  0  0  0  0  0  0
  193.1710  169.8780  138.3240 C   0  0  0  0  0  2  0  0  0  0  0  0
  191.0190  169.0060  137.8910 C   0  0  1  0  0  3  0  0  0  0  0  0
  192.7700  172.3420  138.3080 C   0  0  0  0  0  1  0  0  0  0  0  0
  193.0770  171.1320  137.4270 C   0  0  2  0  0  0  0  0  0  0  0  0
  190.0530  170.1330  137.4970 C   0  0  2  0  0  3  0  0  0  0  0  0
  191.6470  168.4410  136.5970 C   0  0  0  0  0  2  0  0  0  0  0  0
  191.1940  169.5740  134.5310 O   0  0  0  0  0  1  0  0  0  0  0  0
  190.6740  171.2460  136.8650 O   0  0  0  0  0  0  0  0  0  0  0  0
  191.9320  169.4800  138.8780 O   0  0  0  0  0  0  0  0  0  0  0  0
  191.9700  170.9520  136.3500 C   0  0  2  0  0  3  0  0  0  0  0  0
  195.4200  170.1810  136.9590 C   0  0  0  0  0  1  0  0  0  0  0  0
  194.4390  171.3310  136.7180 C   0  0  2  0  0  3  0  0  0  0  0  0
  195.0750  172.7070  136.9870 C   0  0  1  0  0  3  0  0  0  0  0  0
  196.2590  172.5980  137.7300 O   0  0  0  0  0  1  0  0  0  0  0  0
  195.3080  173.4950  135.7010 C   0  0  0  0  0  2  0  0  0  0  0  0
  195.5290  174.8450  135.9740 O   0  0  0  0  0  1  0  0  0  0  0  0
  188.7330  175.3600  146.1560 C   0  0  1  0  0  3  0  0  0  0  0  0
  189.6780  174.6480  147.0810 C   0  0  0  0  0  3  0  0  0  0  0  0
  190.4210  175.2700  147.8260 O   0  0  0  0  0  0  0  0  0  0  0  0
  188.1390  176.6210  146.7880 C   0  0  0  0  0  2  0  0  0  0  0  0
  186.6540  176.7430  146.4850 C   0  0  0  0  0  2  0  0  0  0  0  0
  186.1090  178.0620  146.9950 C   0  0  0  0  0  1  0  0  0  0  0  0
  1  7  1  0  0  0  0
  2 10  1  0  0  0  0
  4 15  1  0  0  0  0
  5 12  1  0  0  0  0
  6  8  2  0  0  0  0
  9  2  1  0  0  0  0
 10 11  1  0  0  0  0
 11  4  1  0  0  0  0
 11  3  1  1  0  0  0
 12 14  1  0  0  0  0
 13 31  1  6  0  0  0
 13 17  1  0  0  0  0
 13  9  1  0  0  0  0
 14  8  1  6  0  0  0
 14  1  1  0  0  0  0
 15 50  1  1  0  0  0
 16  7  1  6  0  0  0
 16 20  1  0  0  0  0
 16 15  1  0  0  0  0
 18  6  1  0  0  0  0
 18 17  1  0  0  0  0
 19  6  1  0  0  0  0
 19  5  2  0  0  0  0
 20 22  1  6  0  0  0
 20 21  1  0  0  0  0
 20 23  1  0  0  0  0
 21 24  1  6  0  0  0
 21 23  1  0  0  0  0
 24 25  1  0  0  0  0
 26 25  1  0  0  0  0
 27 26  1  6  0  0  0
 28 30  1  0  0  0  0
 28 29  1  0  0  0  0
 29 27  1  0  0  0  0
 30 27  1  0  0  0  0
 31 32  1  0  0  0  0
 33 40  1  6  0  0  0
 33 43  1  0  0  0  0
 33 39  1  0  0  0  0
 34 42  1  0  0  0  0
 35 39  1  6  0  0  0
 35 42  1  0  0  0  0
 37 36  1  1  0  0  0
 37 34  1  0  0  0  0
 38 35  1  0  0  0  0
 38 32  1  1  0  0  0
 41 38  1  0  0  0  0
 43 41  1  1  0  0  0
 43 37  1  0  0  0  0
 45 44  1  1  0  0  0
 45 46  1  0  0  0  0
 45 37  1  0  0  0  0
 46 47  1  6  0  0  0
 48 49  1  0  0  0  0
 48 46  1  0  0  0  0
 50 53  1  1  0  0  0
 50 51  1  0  0  0  0
 51 52  2  0  0  0  0
 54 53  1  0  0  0  0
 54 55  1  0  0  0  0
M  END
>  <MODEL>
9

>  <REMARK>
 VINA RESULT:      -5.7      2.665      6.358
  Name = 
  15 active torsions:
  status: ('A' for Active; 'I' for Inactive)
    1  A    between atoms: C_8  and  O_22
    2  A    between atoms: C_8  and  C_43
    3  A    between atoms: C_9  and  C_15
    4  A    between atoms: C_9  and  C_26
    5  A    between atoms: C_10  and  C_32
    6  A    between atoms: C_11  and  C_29
    7  A    between atoms: C_13  and  C_34
    8  A    between atoms: C_13  and  C_48
    9  A    between atoms: C_14  and  C_38
   10  A    between atoms: C_16  and  C_26
   11  A    between atoms: C_20  and  O_22
   12  A    between atoms: C_26  and  C_45
   13  A    between atoms: C_29  and  C_38
   14  A    between atoms: C_32  and  C_48
   15  A    between atoms: C_33  and  C_49
                            x       y       z     vdW  Elec       q    Type
                         _______ _______ _______ _____ _____    ______ ____

>  <TORSDO>
F 15

$$$$
