=
 OpenBabel11052421263D

 32 36  0  0  1  0  0  0  0  0999 V2000
  187.1760  177.0210  142.6970 C   0  0  0  0  0  0  0  0  0  0  0  0
  184.7280  178.7490  146.5170 C   0  0  0  0  0  2  0  0  0  0  0  0
  185.8150  178.3050  147.4840 C   0  0  0  0  0  2  0  0  0  0  0  0
  189.4230  175.9780  143.2570 C   0  0  1  0  0  3  0  0  0  0  0  0
  189.4740  174.7160  142.3850 C   0  0  0  0  0  2  0  0  0  0  0  0
  186.5020  177.4440  140.3680 C   0  0  0  0  0  0  0  0  0  0  0  0
  185.3150  178.6380  142.3290 C   0  0  0  0  0  2  0  0  0  0  0  0
  191.0150  174.5550  144.7300 C   0  0  0  0  0  2  0  0  0  0  0  0
  184.4330  178.6070  140.1200 O   0  0  0  0  0  0  0  0  0  0  0  0
  185.3570  179.1200  145.1810 C   0  0  0  0  0  2  0  0  0  0  0  0
  186.2350  177.8330  143.2230 C   0  0  0  0  0  0  0  0  0  0  0  0
  186.1560  178.0080  144.6580 N   0  0  0  0  0  0  0  0  0  0  0  0
  187.7160  176.1060  144.9750 C   0  0  2  0  0  3  0  0  0  0  0  0
  192.2420  174.5230  143.8040 C   0  0  0  0  0  2  0  0  0  0  0  0
  185.3660  178.2410  140.8830 C   0  0  0  0  0  0  0  0  0  0  0  0
  192.0160  175.1280  142.4160 C   0  0  0  0  0  2  0  0  0  0  0  0
  186.5230  177.0820  146.9200 C   0  0  0  0  0  2  0  0  0  0  0  0
  187.1540  177.3980  145.5610 C   0  0  2  0  0  3  0  0  0  0  0  0
  189.0170  175.7090  145.6590 C   0  0  0  0  0  2  0  0  0  0  0  0
  187.3340  176.8740  141.2370 C   0  0  0  0  0  3  0  0  0  0  0  0
  190.8190  174.5320  141.6700 C   0  0  0  0  0  2  0  0  0  0  0  0
  190.9420  177.0590  144.9210 C   0  0  0  0  0  1  0  0  0  0  0  0
  188.0440  176.2920  143.5760 N   0  0  0  0  0  0  0  0  0  0  0  0
  190.1290  175.8100  144.6200 C   0  0  2  0  0  0  0  0  0  0  0  0
  186.7380  177.2380  139.0020 O   0  0  0  0  0  0  0  0  0  0  0  0
  186.2160  176.1430  138.2570 C   0  0  0  0  0  2  0  0  0  0  0  0
  188.5880  174.1950  137.9590 C   0  0  0  0  0  0  0  0  0  0  0  0
  186.6860  176.6310  135.9840 O   0  0  0  0  0  0  0  0  0  0  0  0
  188.1180  175.0650  136.9220 N   0  0  0  0  0  2  0  0  0  0  0  0
  187.9930  174.1150  139.0660 O   0  0  0  0  0  0  0  0  0  0  0  0
  189.7960  173.3640  137.7200 C   0  0  0  0  0  1  0  0  0  0  0  0
  187.0000  175.9570  136.9980 C   0  0  0  0  0  0  0  0  0  0  0  0
  1 11  2  0  0  0  0
  1 23  1  0  0  0  0
  2  3  1  0  0  0  0
  4  5  1  6  0  0  0
  4 23  1  0  0  0  0
  4 24  1  0  0  0  0
  6 15  1  0  0  0  0
  6 20  2  0  0  0  0
  7 11  1  0  0  0  0
  9 15  2  0  0  0  0
 10  2  1  0  0  0  0
 11 12  1  0  0  0  0
 12 10  1  0  0  0  0
 12 18  1  0  0  0  0
 13 18  1  0  0  0  0
 13 19  1  1  0  0  0
 14  8  1  0  0  0  0
 15  7  1  0  0  0  0
 16 14  1  0  0  0  0
 17  3  1  0  0  0  0
 18 17  1  1  0  0  0
 20  1  1  0  0  0  0
 21  5  1  0  0  0  0
 21 16  1  0  0  0  0
 23 13  1  0  0  0  0
 24  8  1  0  0  0  0
 24 22  1  1  0  0  0
 24 19  1  0  0  0  0
 25  6  1  0  0  0  0
 26 25  1  0  0  0  0
 27 30  2  0  0  0  0
 28 32  2  0  0  0  0
 29 32  1  0  0  0  0
 29 27  1  0  0  0  0
 31 27  1  0  0  0  0
 32 26  1  0  0  0  0
M  END
>  <MODEL>
1

>  <REMARK>
 VINA RESULT:      -8.3      0.000      0.000
  Name = 
  3 active torsions:
  status: ('A' for Active; 'I' for Inactive)
    1  A    between atoms: C_8  and  O_23
    2  A    between atoms: C_19  and  O_23
    3  A    between atoms: C_19  and  C_24
                            x       y       z     vdW  Elec       q    Type
                         _______ _______ _______ _____ _____    ______ ____

>  <TORSDO>
F 3

$$$$
=
 OpenBabel11052421263D

 32 36  0  0  1  0  0  0  0  0999 V2000
  188.8300  175.9850  142.1920 C   0  0  0  0  0  0  0  0  0  0  0  0
  190.2060  172.6890  138.9040 C   0  0  0  0  0  2  0  0  0  0  0  0
  191.0850  171.9680  139.9140 C   0  0  0  0  0  2  0  0  0  0  0  0
  189.8030  175.6430  144.5130 C   0  0  1  0  0  3  0  0  0  0  0  0
  190.1840  177.0590  144.9680 C   0  0  0  0  0  2  0  0  0  0  0  0
  187.0470  177.6320  141.7780 C   0  0  0  0  0  0  0  0  0  0  0  0
  187.5170  175.7330  140.0890 C   0  0  0  0  0  2  0  0  0  0  0  0
  191.7100  175.0210  146.1580 C   0  0  0  0  0  2  0  0  0  0  0  0
  186.1730  177.6220  139.5570 O   0  0  0  0  0  0  0  0  0  0  0  0
  189.0070  173.2980  139.6170 C   0  0  0  0  0  2  0  0  0  0  0  0
  188.6340  175.3300  141.0290 C   0  0  0  0  0  0  0  0  0  0  0  0
  189.4420  174.1720  140.7100 N   0  0  0  0  0  0  0  0  0  0  0  0
  190.9600  174.7150  142.5950 C   0  0  2  0  0  3  0  0  0  0  0  0
  191.0330  175.4200  147.4790 C   0  0  0  0  0  2  0  0  0  0  0  0
  186.8710  177.0430  140.4310 C   0  0  0  0  0  0  0  0  0  0  0  0
  189.6920  176.1400  147.3220 C   0  0  0  0  0  2  0  0  0  0  0  0
  191.5840  172.9640  140.9500 C   0  0  0  0  0  2  0  0  0  0  0  0
  190.4110  173.6230  141.6800 C   0  0  2  0  0  3  0  0  0  0  0  0
  191.6030  174.1210  143.8410 C   0  0  0  0  0  2  0  0  0  0  0  0
  187.9770  177.1250  142.5840 C   0  0  0  0  0  3  0  0  0  0  0  0
  189.7500  177.3660  146.4070 C   0  0  0  0  0  2  0  0  0  0  0  0
  189.9490  173.3520  145.5000 C   0  0  0  0  0  1  0  0  0  0  0  0
  189.8830  175.5600  143.0670 N   0  0  0  0  0  0  0  0  0  0  0  0
  190.7610  174.5530  145.0380 C   0  0  2  0  0  0  0  0  0  0  0  0
  186.2950  178.7180  142.2450 O   0  0  0  0  0  0  0  0  0  0  0  0
  185.2220  178.6070  143.1730 C   0  0  0  0  0  2  0  0  0  0  0  0
  185.8450  177.4980  145.9820 C   0  0  0  0  0  0  0  0  0  0  0  0
  185.4630  180.7080  144.2480 O   0  0  0  0  0  0  0  0  0  0  0  0
  185.7390  178.8910  145.6660 N   0  0  0  0  0  2  0  0  0  0  0  0
  185.7640  176.6160  145.0880 O   0  0  0  0  0  0  0  0  0  0  0  0
  186.0650  177.0870  147.3930 C   0  0  0  0  0  1  0  0  0  0  0  0
  185.4900  179.4570  144.3730 C   0  0  0  0  0  0  0  0  0  0  0  0
  1 20  1  0  0  0  0
  1 23  1  0  0  0  0
  2 10  1  0  0  0  0
  2  3  1  0  0  0  0
  3 17  1  0  0  0  0
  4  5  1  1  0  0  0
  4 24  1  0  0  0  0
  5 21  1  0  0  0  0
  6 25  1  0  0  0  0
  6 20  2  0  0  0  0
  7 15  1  0  0  0  0
  7 11  1  0  0  0  0
  8 14  1  0  0  0  0
  9 15  2  0  0  0  0
 10 12  1  0  0  0  0
 11  1  2  0  0  0  0
 12 11  1  0  0  0  0
 12 18  1  0  0  0  0
 13 23  1  0  0  0  0
 13 19  1  1  0  0  0
 15  6  1  0  0  0  0
 16 14  1  0  0  0  0
 18 17  1  6  0  0  0
 18 13  1  0  0  0  0
 19 24  1  0  0  0  0
 21 16  1  0  0  0  0
 23  4  1  0  0  0  0
 24 22  1  1  0  0  0
 24  8  1  0  0  0  0
 25 26  1  0  0  0  0
 26 32  1  0  0  0  0
 27 31  1  0  0  0  0
 28 32  2  0  0  0  0
 29 27  1  0  0  0  0
 30 27  2  0  0  0  0
 32 29  1  0  0  0  0
M  END
>  <MODEL>
2

>  <REMARK>
 VINA RESULT:      -8.2      2.066      6.211
  Name = 
  3 active torsions:
  status: ('A' for Active; 'I' for Inactive)
    1  A    between atoms: C_8  and  O_23
    2  A    between atoms: C_19  and  O_23
    3  A    between atoms: C_19  and  C_24
                            x       y       z     vdW  Elec       q    Type
                         _______ _______ _______ _____ _____    ______ ____

>  <TORSDO>
F 3

$$$$
=
 OpenBabel11052421263D

 32 36  0  0  1  0  0  0  0  0999 V2000
  189.7810  176.0720  144.6130 C   0  0  0  0  0  0  0  0  0  0  0  0
  185.9330  179.0190  144.8840 C   0  0  0  0  0  2  0  0  0  0  0  0
  185.3480  178.4650  143.5930 C   0  0  0  0  0  2  0  0  0  0  0  0
  189.7810  174.5030  142.6160 C   0  0  1  0  0  3  0  0  0  0  0  0
  191.2340  174.5330  142.1210 C   0  0  0  0  0  2  0  0  0  0  0  0
  191.4140  175.8250  146.4380 C   0  0  0  0  0  0  0  0  0  0  0  0
  189.2460  177.1900  146.7750 C   0  0  0  0  0  2  0  0  0  0  0  0
  189.3530  173.9250  140.1230 C   0  0  0  0  0  2  0  0  0  0  0  0
  191.0790  177.2980  148.2860 O   0  0  0  0  0  0  0  0  0  0  0  0
  186.7030  177.9220  145.6050 C   0  0  0  0  0  2  0  0  0  0  0  0
  188.9530  176.8640  145.3250 C   0  0  0  0  0  0  0  0  0  0  0  0
  187.7240  177.3430  144.7280 N   0  0  0  0  0  0  0  0  0  0  0  0
  188.5010  176.5590  142.5070 C   0  0  2  0  0  3  0  0  0  0  0  0
  189.9940  172.5280  140.0830 C   0  0  0  0  0  2  0  0  0  0  0  0
  190.6220  176.7960  147.2260 C   0  0  0  0  0  0  0  0  0  0  0  0
  190.7360  172.1240  141.3590 C   0  0  0  0  0  2  0  0  0  0  0  0
  186.4770  177.9850  142.6940 C   0  0  0  0  0  2  0  0  0  0  0  0
  187.2980  176.8950  143.3860 C   0  0  2  0  0  3  0  0  0  0  0  0
  188.0910  175.7090  141.3120 C   0  0  0  0  0  2  0  0  0  0  0  0
  191.0060  175.5060  145.2120 C   0  0  0  0  0  3  0  0  0  0  0  0
  191.7920  173.1390  141.8070 C   0  0  0  0  0  2  0  0  0  0  0  0
  187.6790  173.3530  141.9080 C   0  0  0  0  0  1  0  0  0  0  0  0
  189.4590  175.7670  143.2500 N   0  0  0  0  0  0  0  0  0  0  0  0
  188.7500  174.3430  141.4780 C   0  0  2  0  0  0  0  0  0  0  0  0
  192.5950  175.2360  146.9110 O   0  0  0  0  0  0  0  0  0  0  0  0
  193.7800  175.0890  146.1370 C   0  0  0  0  0  2  0  0  0  0  0  0
  195.3520  175.9400  143.6250 C   0  0  0  0  0  0  0  0  0  0  0  0
  194.3910  177.2450  146.9150 O   0  0  0  0  0  0  0  0  0  0  0  0
  195.2070  176.7450  144.8000 N   0  0  0  0  0  2  0  0  0  0  0  0
  194.7640  174.8320  143.5120 O   0  0  0  0  0  0  0  0  0  0  0  0
  196.2080  176.4270  142.5110 C   0  0  0  0  0  1  0  0  0  0  0  0
  194.4570  176.4120  145.9750 C   0  0  0  0  0  0  0  0  0  0  0  0
  1 20  1  0  0  0  0
  1 11  2  0  0  0  0
  2 10  1  0  0  0  0
  3  2  1  0  0  0  0
  4  5  1  6  0  0  0
  4 23  1  0  0  0  0
  6 25  1  0  0  0  0
  6 15  1  0  0  0  0
  7 15  1  0  0  0  0
  8 24  1  0  0  0  0
 11  7  1  0  0  0  0
 12 11  1  0  0  0  0
 12 10  1  0  0  0  0
 13 19  1  6  0  0  0
 13 23  1  0  0  0  0
 13 18  1  0  0  0  0
 14  8  1  0  0  0  0
 14 16  1  0  0  0  0
 15  9  2  0  0  0  0
 16 21  1  0  0  0  0
 17  3  1  0  0  0  0
 18 17  1  6  0  0  0
 18 12  1  0  0  0  0
 19 24  1  0  0  0  0
 20  6  2  0  0  0  0
 21  5  1  0  0  0  0
 23  1  1  0  0  0  0
 24 22  1  1  0  0  0
 24  4  1  0  0  0  0
 26 25  1  0  0  0  0
 27 29  1  0  0  0  0
 29 32  1  0  0  0  0
 30 27  2  0  0  0  0
 31 27  1  0  0  0  0
 32 26  1  0  0  0  0
 32 28  2  0  0  0  0
M  END
>  <MODEL>
3

>  <REMARK>
 VINA RESULT:      -8.1      4.060      6.626
  Name = 
  3 active torsions:
  status: ('A' for Active; 'I' for Inactive)
    1  A    between atoms: C_8  and  O_23
    2  A    between atoms: C_19  and  O_23
    3  A    between atoms: C_19  and  C_24
                            x       y       z     vdW  Elec       q    Type
                         _______ _______ _______ _____ _____    ______ ____

>  <TORSDO>
F 3

$$$$
=
 OpenBabel11052421263D

 32 36  0  0  1  0  0  0  0  0999 V2000
  188.7560  175.8020  143.0380 C   0  0  0  0  0  0  0  0  0  0  0  0
  191.8750  174.9160  146.6510 C   0  0  0  0  0  2  0  0  0  0  0  0
  191.0480  175.7250  147.6380 C   0  0  0  0  0  2  0  0  0  0  0  0
  186.7410  177.2020  143.6930 C   0  0  1  0  0  3  0  0  0  0  0  0
  186.5690  178.1770  142.5190 C   0  0  0  0  0  2  0  0  0  0  0  0
  188.8880  174.6890  140.8470 C   0  0  0  0  0  0  0  0  0  0  0  0
  190.4060  173.9490  142.8030 C   0  0  0  0  0  2  0  0  0  0  0  0
  185.5800  179.1410  144.9670 C   0  0  0  0  0  2  0  0  0  0  0  0
  190.7920  173.2790  140.5540 O   0  0  0  0  0  0  0  0  0  0  0  0
  190.9550  174.2690  145.6260 C   0  0  0  0  0  2  0  0  0  0  0  0
  189.7440  175.0640  143.5860 C   0  0  0  0  0  0  0  0  0  0  0  0
  190.1220  175.2780  144.9670 N   0  0  0  0  0  0  0  0  0  0  0  0
  188.7680  177.3560  145.0130 C   0  0  2  0  0  3  0  0  0  0  0  0
  184.1860  179.0560  144.3250 C   0  0  0  0  0  2  0  0  0  0  0  0
  190.0660  173.9400  141.3420 C   0  0  0  0  0  0  0  0  0  0  0  0
  184.0760  178.0760  143.1550 C   0  0  0  0  0  2  0  0  0  0  0  0
  190.3000  176.8190  146.8910 C   0  0  0  0  0  2  0  0  0  0  0  0
  189.3760  176.2180  145.8290 C   0  0  2  0  0  3  0  0  0  0  0  0
  187.6690  178.0680  145.7890 C   0  0  0  0  0  2  0  0  0  0  0  0
  188.2950  175.5630  141.6560 C   0  0  0  0  0  3  0  0  0  0  0  0
  185.1130  178.3080  142.0530 C   0  0  0  0  0  2  0  0  0  0  0  0
  185.5620  176.7910  145.8570 C   0  0  0  0  0  1  0  0  0  0  0  0
  188.1380  176.8340  143.8180 N   0  0  0  0  0  0  0  0  0  0  0  0
  186.3550  177.8120  145.0570 C   0  0  2  0  0  0  0  0  0  0  0  0
  188.3750  174.5410  139.5510 O   0  0  0  0  0  0  0  0  0  0  0  0
  188.2160  173.2890  138.8920 C   0  0  0  0  0  2  0  0  0  0  0  0
  189.7800  171.0240  137.5030 C   0  0  0  0  0  0  0  0  0  0  0  0
  188.5670  174.4200  136.8370 O   0  0  0  0  0  0  0  0  0  0  0  0
  189.5070  172.3000  136.9120 N   0  0  0  0  0  2  0  0  0  0  0  0
  189.3160  170.7110  138.6310 O   0  0  0  0  0  0  0  0  0  0  0  0
  190.6180  170.0450  136.7630 C   0  0  0  0  0  1  0  0  0  0  0  0
  188.7540  173.3690  137.5000 C   0  0  0  0  0  0  0  0  0  0  0  0
  1 11  2  0  0  0  0
  1 23  1  0  0  0  0
  2  3  1  0  0  0  0
  4  5  1  6  0  0  0
  4 23  1  0  0  0  0
  4 24  1  0  0  0  0
  6 15  1  0  0  0  0
  6 20  2  0  0  0  0
  7 11  1  0  0  0  0
  8 24  1  0  0  0  0
  9 15  2  0  0  0  0
 10  2  1  0  0  0  0
 11 12  1  0  0  0  0
 12 10  1  0  0  0  0
 12 18  1  0  0  0  0
 13 19  1  1  0  0  0
 13 18  1  0  0  0  0
 14  8  1  0  0  0  0
 15  7  1  0  0  0  0
 16 14  1  0  0  0  0
 17  3  1  0  0  0  0
 18 17  1  1  0  0  0
 20  1  1  0  0  0  0
 21  5  1  0  0  0  0
 21 16  1  0  0  0  0
 23 13  1  0  0  0  0
 24 19  1  0  0  0  0
 24 22  1  1  0  0  0
 25  6  1  0  0  0  0
 26 25  1  0  0  0  0
 27 30  2  0  0  0  0
 28 32  2  0  0  0  0
 29 32  1  0  0  0  0
 29 27  1  0  0  0  0
 31 27  1  0  0  0  0
 32 26  1  0  0  0  0
M  END
>  <MODEL>
4

>  <REMARK>
 VINA RESULT:      -8.0      2.074      5.094
  Name = 
  3 active torsions:
  status: ('A' for Active; 'I' for Inactive)
    1  A    between atoms: C_8  and  O_23
    2  A    between atoms: C_19  and  O_23
    3  A    between atoms: C_19  and  C_24
                            x       y       z     vdW  Elec       q    Type
                         _______ _______ _______ _____ _____    ______ ____

>  <TORSDO>
F 3

$$$$
=
 OpenBabel11052421263D

 32 36  0  0  1  0  0  0  0  0999 V2000
  188.9210  175.2980  142.6280 C   0  0  0  0  0  0  0  0  0  0  0  0
  192.1990  174.6460  146.1490 C   0  0  0  0  0  2  0  0  0  0  0  0
  191.4720  175.6060  147.0790 C   0  0  0  0  0  2  0  0  0  0  0  0
  187.0190  176.8730  143.2240 C   0  0  1  0  0  3  0  0  0  0  0  0
  186.8270  177.7190  141.9570 C   0  0  0  0  0  2  0  0  0  0  0  0
  188.8680  173.9420  140.5740 C   0  0  0  0  0  0  0  0  0  0  0  0
  190.4600  173.3410  142.5200 C   0  0  0  0  0  2  0  0  0  0  0  0
  186.0340  179.0040  144.3270 C   0  0  0  0  0  2  0  0  0  0  0  0
  190.6790  172.4040  140.3450 O   0  0  0  0  0  0  0  0  0  0  0  0
  191.1880  173.9420  145.2550 C   0  0  0  0  0  2  0  0  0  0  0  0
  189.9010  174.5710  143.2030 C   0  0  0  0  0  0  0  0  0  0  0  0
  190.3700  174.9170  144.5290 N   0  0  0  0  0  0  0  0  0  0  0  0
  189.1260  177.0590  144.4080 C   0  0  2  0  0  3  0  0  0  0  0  0
  184.6020  178.9260  143.7730 C   0  0  0  0  0  2  0  0  0  0  0  0
  190.0340  173.1880  141.0890 C   0  0  0  0  0  0  0  0  0  0  0  0
  184.3740  177.8290  142.7310 C   0  0  0  0  0  2  0  0  0  0  0  0
  190.7370  176.6500  146.2520 C   0  0  0  0  0  2  0  0  0  0  0  0
  189.7230  175.9870  145.3160 C   0  0  2  0  0  3  0  0  0  0  0  0
  188.1110  177.9130  145.1550 C   0  0  0  0  0  2  0  0  0  0  0  0
  188.3680  174.9320  141.3090 C   0  0  0  0  0  3  0  0  0  0  0  0
  185.3560  177.8790  141.5560 C   0  0  0  0  0  2  0  0  0  0  0  0
  185.9500  176.7720  145.4800 C   0  0  0  0  0  1  0  0  0  0  0  0
  188.4020  176.4440  143.3160 N   0  0  0  0  0  0  0  0  0  0  0  0
  186.7450  177.6520  144.5270 C   0  0  2  0  0  0  0  0  0  0  0  0
  188.2730  173.6790  139.3330 O   0  0  0  0  0  0  0  0  0  0  0  0
  187.9100  174.6830  138.3920 C   0  0  0  0  0  2  0  0  0  0  0  0
  187.4380  176.3330  135.8300 C   0  0  0  0  0  0  0  0  0  0  0  0
  189.5510  173.6000  137.0650 O   0  0  0  0  0  0  0  0  0  0  0  0
  188.3800  175.2590  135.9410 N   0  0  0  0  0  2  0  0  0  0  0  0
  186.7800  176.7320  136.8260 O   0  0  0  0  0  0  0  0  0  0  0  0
  187.2420  176.9950  134.5140 C   0  0  0  0  0  1  0  0  0  0  0  0
  188.6630  174.4900  137.1160 C   0  0  0  0  0  0  0  0  0  0  0  0
  1 11  2  0  0  0  0
  1 23  1  0  0  0  0
  2  3  1  0  0  0  0
  4  5  1  6  0  0  0
  4 23  1  0  0  0  0
  4 24  1  0  0  0  0
  6 15  1  0  0  0  0
  6 20  2  0  0  0  0
  7 11  1  0  0  0  0
  8 24  1  0  0  0  0
  9 15  2  0  0  0  0
 10  2  1  0  0  0  0
 11 12  1  0  0  0  0
 12 10  1  0  0  0  0
 12 18  1  0  0  0  0
 13 19  1  1  0  0  0
 13 18  1  0  0  0  0
 14  8  1  0  0  0  0
 15  7  1  0  0  0  0
 16 14  1  0  0  0  0
 17  3  1  0  0  0  0
 18 17  1  1  0  0  0
 20  1  1  0  0  0  0
 21  5  1  0  0  0  0
 21 16  1  0  0  0  0
 23 13  1  0  0  0  0
 24 19  1  0  0  0  0
 24 22  1  1  0  0  0
 25  6  1  0  0  0  0
 26 25  1  0  0  0  0
 27 29  1  0  0  0  0
 27 30  2  0  0  0  0
 28 32  2  0  0  0  0
 29 32  1  0  0  0  0
 31 27  1  0  0  0  0
 32 26  1  0  0  0  0
M  END
>  <MODEL>
5

>  <REMARK>
 VINA RESULT:      -8.0      1.704      5.184
  Name = 
  3 active torsions:
  status: ('A' for Active; 'I' for Inactive)
    1  A    between atoms: C_8  and  O_23
    2  A    between atoms: C_19  and  O_23
    3  A    between atoms: C_19  and  C_24
                            x       y       z     vdW  Elec       q    Type
                         _______ _______ _______ _____ _____    ______ ____

>  <TORSDO>
F 3

$$$$
=
 OpenBabel11052421263D

 32 36  0  0  1  0  0  0  0  0999 V2000
  187.6780  176.4100  143.5780 C   0  0  0  0  0  0  0  0  0  0  0  0
  184.0190  179.0380  145.3860 C   0  0  0  0  0  2  0  0  0  0  0  0
  184.6350  179.0410  146.7770 C   0  0  0  0  0  2  0  0  0  0  0  0
  189.5000  175.8310  145.2500 C   0  0  1  0  0  3  0  0  0  0  0  0
  189.8350  174.3650  144.9400 C   0  0  0  0  0  2  0  0  0  0  0  0
  187.9650  175.9850  141.1700 C   0  0  0  0  0  0  0  0  0  0  0  0
  186.1610  177.6290  142.0210 C   0  0  0  0  0  2  0  0  0  0  0  0
  190.3530  175.1260  147.5960 C   0  0  0  0  0  2  0  0  0  0  0  0
  186.1920  176.7960  139.7930 O   0  0  0  0  0  0  0  0  0  0  0  0
  185.1250  179.0140  144.3400 C   0  0  0  0  0  2  0  0  0  0  0  0
  186.6380  177.2530  143.4080 C   0  0  0  0  0  0  0  0  0  0  0  0
  186.0210  177.8760  144.5600 N   0  0  0  0  0  0  0  0  0  0  0  0
  187.2710  176.3420  146.0560 C   0  0  2  0  0  3  0  0  0  0  0  0
  191.8390  174.9160  147.2630 C   0  0  0  0  0  2  0  0  0  0  0  0
  186.7480  176.7910  140.9230 C   0  0  0  0  0  0  0  0  0  0  0  0
  192.1840  175.0110  145.7750 C   0  0  0  0  0  2  0  0  0  0  0  0
  185.4600  177.7760  146.9640 C   0  0  0  0  0  2  0  0  0  0  0  0
  186.5740  177.6940  145.9180 C   0  0  2  0  0  3  0  0  0  0  0  0
  188.1940  176.3180  147.2660 C   0  0  0  0  0  2  0  0  0  0  0  0
  188.3780  175.8130  142.4230 C   0  0  0  0  0  3  0  0  0  0  0  0
  191.3430  174.0910  144.8850 C   0  0  0  0  0  2  0  0  0  0  0  0
  190.3040  177.5370  146.8890 C   0  0  0  0  0  1  0  0  0  0  0  0
  188.1160  176.0950  144.9060 N   0  0  0  0  0  0  0  0  0  0  0  0
  189.6230  176.1840  146.7470 C   0  0  2  0  0  0  0  0  0  0  0  0
  188.6980  175.3700  140.1460 O   0  0  0  0  0  0  0  0  0  0  0  0
  188.5140  174.0220  139.7300 C   0  0  0  0  0  2  0  0  0  0  0  0
  189.7600  172.0530  141.7500 C   0  0  0  0  0  0  0  0  0  0  0  0
  190.5030  173.5990  138.5080 O   0  0  0  0  0  0  0  0  0  0  0  0
  190.3900  172.4740  140.5350 N   0  0  0  0  0  2  0  0  0  0  0  0
  188.5880  172.4130  142.0390 O   0  0  0  0  0  0  0  0  0  0  0  0
  190.5000  171.1660  142.6840 C   0  0  0  0  0  1  0  0  0  0  0  0
  189.8390  173.3540  139.5470 C   0  0  0  0  0  0  0  0  0  0  0  0
  1 23  1  0  0  0  0
  2  3  1  0  0  0  0
  3 17  1  0  0  0  0
  4  5  1  1  0  0  0
  4 24  1  0  0  0  0
  6 20  2  0  0  0  0
  7 11  1  0  0  0  0
  9 15  2  0  0  0  0
 10 12  1  0  0  0  0
 10  2  1  0  0  0  0
 11  1  2  0  0  0  0
 11 12  1  0  0  0  0
 12 18  1  0  0  0  0
 13 19  1  1  0  0  0
 14  8  1  0  0  0  0
 15  6  1  0  0  0  0
 15  7  1  0  0  0  0
 16 14  1  0  0  0  0
 18 13  1  0  0  0  0
 18 17  1  1  0  0  0
 20  1  1  0  0  0  0
 21  5  1  0  0  0  0
 21 16  1  0  0  0  0
 23  4  1  0  0  0  0
 23 13  1  0  0  0  0
 24 22  1  1  0  0  0
 24 19  1  0  0  0  0
 24  8  1  0  0  0  0
 25  6  1  0  0  0  0
 26 25  1  0  0  0  0
 27 30  2  0  0  0  0
 27 31  1  0  0  0  0
 28 32  2  0  0  0  0
 29 27  1  0  0  0  0
 32 26  1  0  0  0  0
 32 29  1  0  0  0  0
M  END
>  <MODEL>
6

>  <REMARK>
 VINA RESULT:      -7.7      1.921      2.850
  Name = 
  3 active torsions:
  status: ('A' for Active; 'I' for Inactive)
    1  A    between atoms: C_8  and  O_23
    2  A    between atoms: C_19  and  O_23
    3  A    between atoms: C_19  and  C_24
                            x       y       z     vdW  Elec       q    Type
                         _______ _______ _______ _____ _____    ______ ____

>  <TORSDO>
F 3

$$$$
=
 OpenBabel11052421263D

 32 36  0  0  1  0  0  0  0  0999 V2000
  189.4680  176.1100  144.3930 C   0  0  0  0  0  0  0  0  0  0  0  0
  185.2370  178.4890  144.3380 C   0  0  0  0  0  2  0  0  0  0  0  0
  184.7950  177.7870  143.0630 C   0  0  0  0  0  2  0  0  0  0  0  0
  189.7780  174.4480  142.4980 C   0  0  1  0  0  3  0  0  0  0  0  0
  191.2340  174.6560  142.0570 C   0  0  0  0  0  2  0  0  0  0  0  0
  191.0350  176.2010  146.2890 C   0  0  0  0  0  0  0  0  0  0  0  0
  188.6830  177.2600  146.4600 C   0  0  0  0  0  2  0  0  0  0  0  0
  189.5500  173.6760  140.0320 C   0  0  0  0  0  2  0  0  0  0  0  0
  190.4130  177.7120  148.0290 O   0  0  0  0  0  0  0  0  0  0  0  0
  186.1190  177.5550  145.1540 C   0  0  0  0  0  2  0  0  0  0  0  0
  188.5060  176.8150  145.0230 C   0  0  0  0  0  0  0  0  0  0  0  0
  187.2500  177.0800  144.3530 N   0  0  0  0  0  0  0  0  0  0  0  0
  188.2290  176.2920  142.2140 C   0  0  2  0  0  3  0  0  0  0  0  0
  190.3800  172.3840  140.1020 C   0  0  0  0  0  2  0  0  0  0  0  0
  190.0790  177.0920  146.9850 C   0  0  0  0  0  0  0  0  0  0  0  0
  191.1130  172.1630  141.4270 C   0  0  0  0  0  2  0  0  0  0  0  0
  186.0200  177.4230  142.2370 C   0  0  0  0  0  2  0  0  0  0  0  0
  186.9530  176.5010  143.0260 C   0  0  2  0  0  3  0  0  0  0  0  0
  187.9970  175.3260  141.0600 C   0  0  0  0  0  2  0  0  0  0  0  0
  190.7310  175.7590  145.0710 C   0  0  0  0  0  3  0  0  0  0  0  0
  191.9950  173.3410  141.8510 C   0  0  0  0  0  2  0  0  0  0  0  0
  187.8920  172.9720  141.7850 C   0  0  0  0  0  1  0  0  0  0  0  0
  189.2540  175.6870  143.0400 N   0  0  0  0  0  0  0  0  0  0  0  0
  188.8330  174.0790  141.3350 C   0  0  2  0  0  0  0  0  0  0  0  0
  192.2630  175.8130  146.8410 O   0  0  0  0  0  0  0  0  0  0  0  0
  193.1640  174.9010  146.2240 C   0  0  0  0  0  2  0  0  0  0  0  0
  195.7820  173.3490  145.7240 C   0  0  0  0  0  0  0  0  0  0  0  0
  194.5850  176.7960  146.0940 O   0  0  0  0  0  0  0  0  0  0  0  0
  195.6960  174.7730  145.8490 N   0  0  0  0  0  2  0  0  0  0  0  0
  194.7500  172.6270  145.7340 O   0  0  0  0  0  0  0  0  0  0  0  0
  197.1150  172.7120  145.5700 C   0  0  0  0  0  1  0  0  0  0  0  0
  194.5020  175.5430  146.0420 C   0  0  0  0  0  0  0  0  0  0  0  0
  1 11  2  0  0  0  0
  1 20  1  0  0  0  0
  2 10  1  0  0  0  0
  3  2  1  0  0  0  0
  4  5  1  6  0  0  0
  4 23  1  0  0  0  0
  6 25  1  0  0  0  0
  6 15  1  0  0  0  0
  7 15  1  0  0  0  0
  8 14  1  0  0  0  0
  8 24  1  0  0  0  0
 11  7  1  0  0  0  0
 12 11  1  0  0  0  0
 12 10  1  0  0  0  0
 13 19  1  6  0  0  0
 13 18  1  0  0  0  0
 13 23  1  0  0  0  0
 14 16  1  0  0  0  0
 15  9  2  0  0  0  0
 16 21  1  0  0  0  0
 17  3  1  0  0  0  0
 18 17  1  6  0  0  0
 18 12  1  0  0  0  0
 19 24  1  0  0  0  0
 20  6  2  0  0  0  0
 21  5  1  0  0  0  0
 23  1  1  0  0  0  0
 24 22  1  1  0  0  0
 24  4  1  0  0  0  0
 26 25  1  0  0  0  0
 27 30  2  0  0  0  0
 27 29  1  0  0  0  0
 29 32  1  0  0  0  0
 31 27  1  0  0  0  0
 32 28  2  0  0  0  0
 32 26  1  0  0  0  0
M  END
>  <MODEL>
7

>  <REMARK>
 VINA RESULT:      -7.7      4.172      6.783
  Name = 
  3 active torsions:
  status: ('A' for Active; 'I' for Inactive)
    1  A    between atoms: C_8  and  O_23
    2  A    between atoms: C_19  and  O_23
    3  A    between atoms: C_19  and  C_24
                            x       y       z     vdW  Elec       q    Type
                         _______ _______ _______ _____ _____    ______ ____

>  <TORSDO>
F 3

$$$$
=
 OpenBabel11052421263D

 32 36  0  0  1  0  0  0  0  0999 V2000
  189.0710  175.2910  143.3850 C   0  0  0  0  0  0  0  0  0  0  0  0
  192.4110  175.6730  146.8880 C   0  0  0  0  0  2  0  0  0  0  0  0
  193.3780  174.7680  146.1410 C   0  0  0  0  0  2  0  0  0  0  0  0
  189.7670  173.8630  141.4030 C   0  0  1  0  0  3  0  0  0  0  0  0
  188.5120  173.0410  141.0800 C   0  0  0  0  0  2  0  0  0  0  0  0
  187.0250  176.6580  143.3260 C   0  0  0  0  0  0  0  0  0  0  0  0
  188.8820  177.1260  145.0610 C   0  0  0  0  0  2  0  0  0  0  0  0
  190.9200  171.8080  140.3190 C   0  0  0  0  0  2  0  0  0  0  0  0
  186.6990  178.0540  145.2340 O   0  0  0  0  0  0  0  0  0  0  0  0
  191.5730  176.4580  145.8880 C   0  0  0  0  0  2  0  0  0  0  0  0
  189.5940  175.9380  144.4470 C   0  0  0  0  0  0  0  0  0  0  0  0
  190.8920  175.5520  144.9590 N   0  0  0  0  0  0  0  0  0  0  0  0
  190.8360  173.5100  143.5500 C   0  0  2  0  0  3  0  0  0  0  0  0
  190.4450  171.9980  138.8690 C   0  0  0  0  0  2  0  0  0  0  0  0
  187.4770  177.3170  144.5720 C   0  0  0  0  0  0  0  0  0  0  0  0
  189.4170  173.1140  138.6700 C   0  0  0  0  0  2  0  0  0  0  0  0
  192.5910  173.7870  145.2850 C   0  0  0  0  0  2  0  0  0  0  0  0
  191.7120  174.5300  144.2760 C   0  0  2  0  0  3  0  0  0  0  0  0
  191.6360  172.7330  142.5150 C   0  0  0  0  0  2  0  0  0  0  0  0
  187.7840  175.7050  142.7910 C   0  0  0  0  0  3  0  0  0  0  0  0
  188.1910  172.9950  139.5800 C   0  0  0  0  0  2  0  0  0  0  0  0
  192.0780  174.0340  140.4680 C   0  0  0  0  0  1  0  0  0  0  0  0
  189.7850  174.1850  142.8170 N   0  0  0  0  0  0  0  0  0  0  0  0
  191.0830  173.1010  141.1410 C   0  0  2  0  0  0  0  0  0  0  0  0
  185.8180  176.9710  142.6860 O   0  0  0  0  0  0  0  0  0  0  0  0
  185.5540  178.2120  142.0410 C   0  0  0  0  0  2  0  0  0  0  0  0
  182.6250  178.2910  141.0770 C   0  0  0  0  0  0  0  0  0  0  0  0
  186.0030  177.7270  139.7630 O   0  0  0  0  0  0  0  0  0  0  0  0
  183.7470  177.9880  140.2390 N   0  0  0  0  0  2  0  0  0  0  0  0
  182.7800  178.6300  142.2800 O   0  0  0  0  0  0  0  0  0  0  0  0
  181.2530  178.2130  140.5130 C   0  0  0  0  0  1  0  0  0  0  0  0
  185.1260  177.9760  140.6280 C   0  0  0  0  0  0  0  0  0  0  0  0
  1 11  2  0  0  0  0
  3  2  1  0  0  0  0
  4  5  1  1  0  0  0
  4 23  1  0  0  0  0
  6 15  1  0  0  0  0
  8 24  1  0  0  0  0
 10  2  1  0  0  0  0
 11 12  1  0  0  0  0
 11  7  1  0  0  0  0
 12 10  1  0  0  0  0
 13 19  1  6  0  0  0
 13 18  1  0  0  0  0
 14  8  1  0  0  0  0
 15  7  1  0  0  0  0
 15  9  2  0  0  0  0
 16 14  1  0  0  0  0
 16 21  1  0  0  0  0
 17  3  1  0  0  0  0
 18 12  1  0  0  0  0
 18 17  1  1  0  0  0
 20  6  2  0  0  0  0
 20  1  1  0  0  0  0
 21  5  1  0  0  0  0
 23  1  1  0  0  0  0
 23 13  1  0  0  0  0
 24 22  1  6  0  0  0
 24  4  1  0  0  0  0
 24 19  1  0  0  0  0
 25  6  1  0  0  0  0
 26 25  1  0  0  0  0
 27 30  2  0  0  0  0
 28 32  2  0  0  0  0
 29 32  1  0  0  0  0
 29 27  1  0  0  0  0
 31 27  1  0  0  0  0
 32 26  1  0  0  0  0
M  END
>  <MODEL>
8

>  <REMARK>
 VINA RESULT:      -7.6      2.532      5.462
  Name = 
  3 active torsions:
  status: ('A' for Active; 'I' for Inactive)
    1  A    between atoms: C_8  and  O_23
    2  A    between atoms: C_19  and  O_23
    3  A    between atoms: C_19  and  C_24
                            x       y       z     vdW  Elec       q    Type
                         _______ _______ _______ _____ _____    ______ ____

>  <TORSDO>
F 3

$$$$
=
 OpenBabel11052421263D

 32 36  0  0  1  0  0  0  0  0999 V2000
  191.8210  174.3080  145.1800 C   0  0  0  0  0  0  0  0  0  0  0  0
  196.5720  173.8980  146.0920 C   0  0  0  0  0  2  0  0  0  0  0  0
  196.8020  173.0910  144.8230 C   0  0  0  0  0  2  0  0  0  0  0  0
  191.0560  173.2200  143.0170 C   0  0  1  0  0  3  0  0  0  0  0  0
  189.7370  172.5310  143.3950 C   0  0  0  0  0  2  0  0  0  0  0  0
  190.3250  175.7650  146.4830 C   0  0  0  0  0  0  0  0  0  0  0  0
  192.8820  175.8260  146.8480 C   0  0  0  0  0  2  0  0  0  0  0  0
  191.0800  171.3330  141.2360 C   0  0  0  0  0  2  0  0  0  0  0  0
  191.3440  176.8170  148.3670 O   0  0  0  0  0  0  0  0  0  0  0  0
  195.4370  174.8880  145.8660 C   0  0  0  0  0  2  0  0  0  0  0  0
  192.9410  174.7300  145.8040 C   0  0  0  0  0  0  0  0  0  0  0  0
  194.2280  174.1950  145.4130 N   0  0  0  0  0  0  0  0  0  0  0  0
  193.0910  172.4400  144.0790 C   0  0  2  0  0  3  0  0  0  0  0  0
  189.8990  171.7990  140.3700 C   0  0  0  0  0  2  0  0  0  0  0  0
  191.4930  176.1700  147.2970 C   0  0  0  0  0  0  0  0  0  0  0  0
  189.1130  172.9830  140.9380 C   0  0  0  0  0  2  0  0  0  0  0  0
  195.5370  172.3180  144.4810 C   0  0  0  0  0  2  0  0  0  0  0  0
  194.3580  173.2700  144.2680 C   0  0  2  0  0  3  0  0  0  0  0  0
  193.0400  171.8180  142.6900 C   0  0  0  0  0  2  0  0  0  0  0  0
  190.5000  174.8840  145.5010 C   0  0  0  0  0  3  0  0  0  0  0  0
  188.6190  172.7670  142.3710 C   0  0  0  0  0  2  0  0  0  0  0  0
  192.4220  173.4370  140.9360 C   0  0  0  0  0  1  0  0  0  0  0  0
  191.9190  173.2850  144.1800 N   0  0  0  0  0  0  0  0  0  0  0  0
  191.8650  172.4500  141.9510 C   0  0  2  0  0  0  0  0  0  0  0  0
  189.0280  176.2460  146.7090 O   0  0  0  0  0  0  0  0  0  0  0  0
  187.9700  176.1690  145.7600 C   0  0  0  0  0  2  0  0  0  0  0  0
  185.3650  177.8100  145.9280 C   0  0  0  0  0  0  0  0  0  0  0  0
  188.7120  177.9940  144.4390 O   0  0  0  0  0  0  0  0  0  0  0  0
  186.5240  178.2040  145.1840 N   0  0  0  0  0  2  0  0  0  0  0  0
  185.3670  176.7750  146.6440 O   0  0  0  0  0  0  0  0  0  0  0  0
  184.1390  178.6470  145.8600 C   0  0  0  0  0  1  0  0  0  0  0  0
  187.7690  177.4980  145.1060 C   0  0  0  0  0  0  0  0  0  0  0  0
  1 20  1  0  0  0  0
  1 11  2  0  0  0  0
  3  2  1  0  0  0  0
  4  5  1  1  0  0  0
  4 23  1  0  0  0  0
  6 25  1  0  0  0  0
  6 15  1  0  0  0  0
  7 15  1  0  0  0  0
  8 24  1  0  0  0  0
 10  2  1  0  0  0  0
 11  7  1  0  0  0  0
 12 11  1  0  0  0  0
 12 10  1  0  0  0  0
 13 19  1  6  0  0  0
 13 23  1  0  0  0  0
 13 18  1  0  0  0  0
 14 16  1  0  0  0  0
 14  8  1  0  0  0  0
 15  9  2  0  0  0  0
 16 21  1  0  0  0  0
 17  3  1  0  0  0  0
 18 17  1  1  0  0  0
 18 12  1  0  0  0  0
 20  6  2  0  0  0  0
 21  5  1  0  0  0  0
 23  1  1  0  0  0  0
 24 22  1  6  0  0  0
 24 19  1  0  0  0  0
 24  4  1  0  0  0  0
 26 25  1  0  0  0  0
 27 30  2  0  0  0  0
 28 32  2  0  0  0  0
 29 27  1  0  0  0  0
 31 27  1  0  0  0  0
 32 29  1  0  0  0  0
 32 26  1  0  0  0  0
M  END
>  <MODEL>
9

>  <REMARK>
 VINA RESULT:      -7.5      3.944      8.013
  Name = 
  3 active torsions:
  status: ('A' for Active; 'I' for Inactive)
    1  A    between atoms: C_8  and  O_23
    2  A    between atoms: C_19  and  O_23
    3  A    between atoms: C_19  and  C_24
                            x       y       z     vdW  Elec       q    Type
                         _______ _______ _______ _____ _____    ______ ____

>  <TORSDO>
F 3

$$$$
