=
 OpenBabel11052418543D

 34 40  0  0  1  0  0  0  0  0999 V2000
  190.4180  173.8670  142.3240 C   0  0  0  0  0  0  0  0  0  0  0  0
  189.3990  176.1020  142.7920 C   0  0  0  0  0  0  0  0  0  0  0  0
  191.5770  175.5350  143.6930 N   0  0  0  0  0  0  0  0  0  0  0  0
  192.7490  176.3860  145.4450 C   0  0  1  0  0  3  0  0  0  0  0  0
  188.1490  174.3290  141.6310 C   0  0  0  0  0  3  0  0  0  0  0  0
  188.2400  175.6460  142.3010 C   0  0  0  0  0  3  0  0  0  0  0  0
  190.7080  177.4220  144.7830 C   0  0  1  0  0  3  0  0  0  0  0  0
  190.6800  175.3500  142.5580 C   0  0  0  0  0  0  0  0  0  0  0  0
  191.7110  176.3650  146.9610 S   0  0  0  0  0  0  0  0  0  0  0  0
  189.1780  173.4790  141.6400 C   0  0  0  0  0  2  0  0  0  0  0  0
  192.4270  174.5270  144.1600 C   0  0  0  0  0  0  0  0  0  0  0  0
  191.2190  172.9180  142.8360 C   0  0  0  0  0  3  0  0  0  0  0  0
  189.4620  177.7590  143.4750 S   0  0  0  0  0  0  0  0  0  0  0  0
  193.2430  175.0290  145.1870 N   0  0  0  0  0  0  0  0  0  0  0  0
  190.2110  176.6810  145.9960 C   0  0  1  0  0  3  0  0  0  0  0  0
  191.9140  176.7730  144.2740 N   0  0  2  0  0  0  0  0  0  0  0  0
  192.3100  173.2580  143.7730 C   0  0  0  0  0  3  0  0  0  0  0  0
  187.2820  176.2440  146.0110 C   0  0  0  0  0  2  0  0  0  0  0  0
  186.0760  176.7890  145.2480 C   0  0  0  0  0  2  0  0  0  0  0  0
  187.9400  177.3560  146.7820 C   0  0  0  0  0  0  0  0  0  0  0  0
  185.1340  177.5410  146.1880 C   0  0  1  0  0  3  0  0  0  0  0  0
  189.2660  177.5370  146.7820 C   0  0  0  0  0  3  0  0  0  0  0  0
  185.8690  178.7170  146.8360 C   0  0  1  0  0  3  0  0  0  0  0  0
  185.0100  179.4030  147.6750 F   0  0  0  0  0  0  0  0  0  0  0  0
  187.0770  178.2320  147.6360 C   0  0  0  0  0  2  0  0  0  0  0  0
  184.0510  178.0060  145.4690 F   0  0  0  0  0  0  0  0  0  0  0  0
  194.1150  174.2590  146.0640 C   0  0  0  0  0  2  0  0  0  0  0  0
  197.2410  174.8360  144.0100 C   0  0  0  0  0  0  0  0  0  0  0  0
  197.9310  173.6370  144.2150 C   0  0  0  0  0  3  0  0  0  0  0  0
  195.4310  174.0350  145.4060 C   0  0  0  0  0  0  0  0  0  0  0  0
  197.3730  172.6390  145.0200 C   0  0  0  0  0  3  0  0  0  0  0  0
  195.9930  175.0360  144.6060 C   0  0  0  0  0  3  0  0  0  0  0  0
  196.1250  172.8390  145.6170 C   0  0  0  0  0  3  0  0  0  0  0  0
  197.9410  176.0900  143.0100 Cl  0  0  0  0  0  0  0  0  0  0  0  0
  1  8  1  0  0  0  0
  1 12  2  0  0  0  0
  2 13  1  0  0  0  0
  3 11  1  0  0  0  0
  4  9  1  1  0  0  0
  5 10  1  0  0  0  0
  5  6  2  0  0  0  0
  6  2  1  0  0  0  0
  7 13  1  6  0  0  0
  7 15  1  0  0  0  0
  8  2  2  0  0  0  0
  8  3  1  0  0  0  0
 10  1  1  0  0  0  0
 11 14  1  0  0  0  0
 12 17  1  0  0  0  0
 14  4  1  0  0  0  0
 14 27  1  0  0  0  0
 15 22  1  1  0  0  0
 15  9  1  0  0  0  0
 16  3  1  1  0  0  0
 16  7  1  0  0  0  0
 16  4  1  0  0  0  0
 17 11  2  0  0  0  0
 18 20  1  0  0  0  0
 19 18  1  0  0  0  0
 19 21  1  0  0  0  0
 20 25  1  0  0  0  0
 21 26  1  6  0  0  0
 21 23  1  0  0  0  0
 22 20  2  0  0  0  0
 23 25  1  0  0  0  0
 23 24  1  1  0  0  0
 28 29  2  0  0  0  0
 28 32  1  0  0  0  0
 29 31  1  0  0  0  0
 30 33  1  0  0  0  0
 30 27  1  0  0  0  0
 31 33  2  0  0  0  0
 32 30  2  0  0  0  0
 34 28  1  0  0  0  0
M  END
>  <MODEL>
1

>  <REMARK>
 VINA RESULT:      -8.7      0.000      0.000
  Name = 
  3 active torsions:
  status: ('A' for Active; 'I' for Inactive)
    1  A    between atoms: C_12  and  C_28
    2  A    between atoms: C_17  and  C_29
    3  A    between atoms: N_26  and  C_28
                            x       y       z     vdW  Elec       q    Type
                         _______ _______ _______ _____ _____    ______ ____

>  <TORSDO>
F 3

$$$$
=
 OpenBabel11052418543D

 34 40  0  0  1  0  0  0  0  0999 V2000
  188.9870  174.3630  141.3790 C   0  0  0  0  0  0  0  0  0  0  0  0
  190.4410  172.8390  142.7260 C   0  0  0  0  0  0  0  0  0  0  0  0
  189.1660  174.5900  143.8110 N   0  0  0  0  0  0  0  0  0  0  0  0
  189.4240  175.6140  145.8250 C   0  0  1  0  0  3  0  0  0  0  0  0
  190.4400  172.7850  140.2660 C   0  0  0  0  0  3  0  0  0  0  0  0
  190.9870  172.3960  141.5860 C   0  0  0  0  0  3  0  0  0  0  0  0
  190.8130  173.7610  145.2620 C   0  0  1  0  0  3  0  0  0  0  0  0
  189.1680  173.6380  142.7080 C   0  0  0  0  0  0  0  0  0  0  0  0
  191.1380  176.2590  145.9830 S   0  0  0  0  0  0  0  0  0  0  0  0
  189.4930  173.7200  140.1600 C   0  0  0  0  0  2  0  0  0  0  0  0
  188.6050  175.8680  143.7100 C   0  0  0  0  0  0  0  0  0  0  0  0
  188.5020  175.6140  141.3170 C   0  0  0  0  0  3  0  0  0  0  0  0
  191.0740  172.2250  144.2870 S   0  0  0  0  0  0  0  0  0  0  0  0
  188.6550  176.5120  144.9570 N   0  0  0  0  0  0  0  0  0  0  0  0
  191.8000  174.8730  145.0230 C   0  0  1  0  0  3  0  0  0  0  0  0
  189.4530  174.2840  145.1560 N   0  0  2  0  0  0  0  0  0  0  0  0
  188.2550  176.4030  142.5420 C   0  0  0  0  0  3  0  0  0  0  0  0
  194.2860  176.2370  144.1700 C   0  0  0  0  0  2  0  0  0  0  0  0
  195.3680  176.0130  143.1160 C   0  0  0  0  0  2  0  0  0  0  0  0
  194.2820  175.0930  145.1470 C   0  0  0  0  0  0  0  0  0  0  0  0
  196.7210  175.7510  143.7760 C   0  0  1  0  0  3  0  0  0  0  0  0
  193.1530  174.4910  145.5390 C   0  0  0  0  0  3  0  0  0  0  0  0
  196.6410  174.5030  144.6590 C   0  0  1  0  0  3  0  0  0  0  0  0
  197.8700  174.2610  145.2440 F   0  0  0  0  0  0  0  0  0  0  0  0
  195.5870  174.6760  145.7520 C   0  0  0  0  0  2  0  0  0  0  0  0
  197.6760  175.5670  142.7950 F   0  0  0  0  0  0  0  0  0  0  0  0
  188.3600  177.9120  145.2290 C   0  0  0  0  0  2  0  0  0  0  0  0
  184.6350  178.5170  144.9450 C   0  0  0  0  0  0  0  0  0  0  0  0
  184.2210  178.3110  146.2650 C   0  0  0  0  0  3  0  0  0  0  0  0
  186.9260  178.0700  145.5940 C   0  0  0  0  0  0  0  0  0  0  0  0
  185.1580  177.9800  147.2480 C   0  0  0  0  0  3  0  0  0  0  0  0
  185.9850  178.3950  144.6090 C   0  0  0  0  0  3  0  0  0  0  0  0
  186.5100  177.8570  146.9120 C   0  0  0  0  0  3  0  0  0  0  0  0
  183.4610  178.9230  143.7120 Cl  0  0  0  0  0  0  0  0  0  0  0  0
  1  8  1  0  0  0  0
  2 13  1  0  0  0  0
  4  9  1  6  0  0  0
  5  6  2  0  0  0  0
  6  2  1  0  0  0  0
  7 13  1  6  0  0  0
  8  2  2  0  0  0  0
  8  3  1  0  0  0  0
 10  5  1  0  0  0  0
 10  1  1  0  0  0  0
 11  3  1  0  0  0  0
 11 14  1  0  0  0  0
 12  1  2  0  0  0  0
 12 17  1  0  0  0  0
 14 27  1  0  0  0  0
 14  4  1  0  0  0  0
 15  7  1  0  0  0  0
 15 22  1  1  0  0  0
 15  9  1  0  0  0  0
 16  3  1  6  0  0  0
 16  7  1  0  0  0  0
 16  4  1  0  0  0  0
 17 11  2  0  0  0  0
 18 20  1  0  0  0  0
 19 21  1  0  0  0  0
 19 18  1  0  0  0  0
 20 22  2  0  0  0  0
 20 25  1  0  0  0  0
 21 26  1  6  0  0  0
 21 23  1  0  0  0  0
 23 24  1  1  0  0  0
 23 25  1  0  0  0  0
 27 30  1  0  0  0  0
 28 29  1  0  0  0  0
 29 31  2  0  0  0  0
 30 33  2  0  0  0  0
 32 28  2  0  0  0  0
 32 30  1  0  0  0  0
 33 31  1  0  0  0  0
 34 28  1  0  0  0  0
M  END
>  <MODEL>
2

>  <REMARK>
 VINA RESULT:      -8.5      4.592      8.335
  Name = 
  3 active torsions:
  status: ('A' for Active; 'I' for Inactive)
    1  A    between atoms: C_12  and  C_28
    2  A    between atoms: C_17  and  C_29
    3  A    between atoms: N_26  and  C_28
                            x       y       z     vdW  Elec       q    Type
                         _______ _______ _______ _____ _____    ______ ____

>  <TORSDO>
F 3

$$$$
=
 OpenBabel11052418543D

 34 40  0  0  1  0  0  0  0  0999 V2000
  188.9240  173.1100  142.3980 C   0  0  0  0  0  0  0  0  0  0  0  0
  190.9640  173.1360  143.8440 C   0  0  0  0  0  0  0  0  0  0  0  0
  189.3550  174.9450  143.9630 N   0  0  0  0  0  0  0  0  0  0  0  0
  189.5460  177.0830  144.7130 C   0  0  1  0  0  3  0  0  0  0  0  0
  190.6400  171.4350  142.0960 C   0  0  0  0  0  3  0  0  0  0  0  0
  191.4600  172.1270  143.1160 C   0  0  0  0  0  3  0  0  0  0  0  0
  191.3660  175.5710  144.9970 C   0  0  1  0  0  3  0  0  0  0  0  0
  189.5120  173.5120  143.7470 C   0  0  0  0  0  0  0  0  0  0  0  0
  190.9640  177.9100  143.8870 S   0  0  0  0  0  0  0  0  0  0  0  0
  189.4360  171.8970  141.7490 C   0  0  0  0  0  2  0  0  0  0  0  0
  188.4030  175.7150  143.2860 C   0  0  0  0  0  0  0  0  0  0  0  0
  188.0580  173.8990  141.7420 C   0  0  0  0  0  3  0  0  0  0  0  0
  191.9710  173.8420  145.1490 S   0  0  0  0  0  0  0  0  0  0  0  0
  188.4160  177.0310  143.7790 N   0  0  0  0  0  0  0  0  0  0  0  0
  191.8980  176.3590  143.8300 C   0  0  1  0  0  3  0  0  0  0  0  0
  189.9090  175.6740  145.0330 N   0  0  2  0  0  0  0  0  0  0  0  0
  187.7420  175.2600  142.2240 C   0  0  0  0  0  3  0  0  0  0  0  0
  193.9860  175.0620  142.1780 C   0  0  0  0  0  2  0  0  0  0  0  0
  194.8900  173.8370  142.2960 C   0  0  0  0  0  2  0  0  0  0  0  0
  194.3100  176.0410  143.2740 C   0  0  0  0  0  0  0  0  0  0  0  0
  196.3600  174.2510  142.3490 C   0  0  1  0  0  3  0  0  0  0  0  0
  193.3600  176.6340  144.0060 C   0  0  0  0  0  3  0  0  0  0  0  0
  196.6080  175.1530  143.5620 C   0  0  1  0  0  3  0  0  0  0  0  0
  197.9410  175.5150  143.6140 F   0  0  0  0  0  0  0  0  0  0  0  0
  195.7450  176.4120  143.4900 C   0  0  0  0  0  2  0  0  0  0  0  0
  197.1480  173.1200  142.4410 F   0  0  0  0  0  0  0  0  0  0  0  0
  187.7250  178.1810  143.2120 C   0  0  0  0  0  2  0  0  0  0  0  0
  185.1760  178.4980  145.9920 C   0  0  0  0  0  0  0  0  0  0  0  0
  184.0380  178.8880  145.2790 C   0  0  0  0  0  3  0  0  0  0  0  0
  186.4390  178.4070  143.9270 C   0  0  0  0  0  0  0  0  0  0  0  0
  184.1020  179.0410  143.8910 C   0  0  0  0  0  3  0  0  0  0  0  0
  186.3770  178.2600  145.3170 C   0  0  0  0  0  3  0  0  0  0  0  0
  185.3020  178.8030  143.2160 C   0  0  0  0  0  3  0  0  0  0  0  0
  185.1010  178.3130  147.7310 Cl  0  0  0  0  0  0  0  0  0  0  0  0
  1  8  1  0  0  0  0
  2 13  1  0  0  0  0
  4  9  1  6  0  0  0
  4 16  1  0  0  0  0
  5  6  2  0  0  0  0
  6  2  1  0  0  0  0
  7 16  1  0  0  0  0
  7 13  1  6  0  0  0
  8  2  2  0  0  0  0
  8  3  1  0  0  0  0
 10  5  1  0  0  0  0
 10  1  1  0  0  0  0
 11 14  1  0  0  0  0
 11  3  1  0  0  0  0
 12 17  1  0  0  0  0
 12  1  2  0  0  0  0
 14  4  1  0  0  0  0
 15  9  1  0  0  0  0
 15 22  1  1  0  0  0
 15  7  1  0  0  0  0
 16  3  1  6  0  0  0
 17 11  2  0  0  0  0
 18 19  1  0  0  0  0
 18 20  1  0  0  0  0
 19 21  1  0  0  0  0
 20 25  1  0  0  0  0
 20 22  2  0  0  0  0
 21 26  1  1  0  0  0
 21 23  1  0  0  0  0
 23 24  1  6  0  0  0
 25 23  1  0  0  0  0
 27 14  1  0  0  0  0
 27 30  1  0  0  0  0
 28 34  1  0  0  0  0
 29 28  2  0  0  0  0
 30 32  2  0  0  0  0
 31 29  1  0  0  0  0
 32 28  1  0  0  0  0
 33 31  2  0  0  0  0
 33 30  1  0  0  0  0
M  END
>  <MODEL>
3

>  <REMARK>
 VINA RESULT:      -8.3      4.593      8.521
  Name = 
  3 active torsions:
  status: ('A' for Active; 'I' for Inactive)
    1  A    between atoms: C_12  and  C_28
    2  A    between atoms: C_17  and  C_29
    3  A    between atoms: N_26  and  C_28
                            x       y       z     vdW  Elec       q    Type
                         _______ _______ _______ _____ _____    ______ ____

>  <TORSDO>
F 3

$$$$
=
 OpenBabel11052418543D

 34 40  0  0  1  0  0  0  0  0999 V2000
  189.0620  173.3670  140.9460 C   0  0  0  0  0  0  0  0  0  0  0  0
  190.3010  172.7470  143.0270 C   0  0  0  0  0  0  0  0  0  0  0  0
  188.8250  174.6690  143.0070 N   0  0  0  0  0  0  0  0  0  0  0  0
  188.7190  176.5010  144.3490 C   0  0  1  0  0  3  0  0  0  0  0  0
  190.7150  171.6040  140.8870 C   0  0  0  0  0  3  0  0  0  0  0  0
  191.0400  171.8980  142.3010 C   0  0  0  0  0  3  0  0  0  0  0  0
  190.2220  174.7330  144.8900 C   0  0  1  0  0  3  0  0  0  0  0  0
  189.0320  173.3300  142.4690 C   0  0  0  0  0  0  0  0  0  0  0  0
  190.3680  177.3090  144.4340 S   0  0  0  0  0  0  0  0  0  0  0  0
  189.7790  172.2990  140.2370 C   0  0  0  0  0  2  0  0  0  0  0  0
  188.2610  175.7080  142.2580 C   0  0  0  0  0  0  0  0  0  0  0  0
  188.5670  174.4060  140.2540 C   0  0  0  0  0  3  0  0  0  0  0  0
  190.6760  172.9560  144.7680 S   0  0  0  0  0  0  0  0  0  0  0  0
  188.0880  176.8420  143.0690 N   0  0  0  0  0  0  0  0  0  0  0  0
  191.2110  175.7100  144.3130 C   0  0  1  0  0  3  0  0  0  0  0  0
  188.8880  175.0210  144.3690 N   0  0  2  0  0  0  0  0  0  0  0  0
  188.1020  175.6310  140.9380 C   0  0  0  0  0  3  0  0  0  0  0  0
  193.7910  174.6510  143.3160 C   0  0  0  0  0  2  0  0  0  0  0  0
  194.5550  173.3320  143.4020 C   0  0  0  0  0  2  0  0  0  0  0  0
  193.6320  175.2390  144.6920 C   0  0  0  0  0  0  0  0  0  0  0  0
  195.8710  173.5170  144.1590 C   0  0  1  0  0  3  0  0  0  0  0  0
  192.4660  175.7290  145.1290 C   0  0  0  0  0  3  0  0  0  0  0  0
  195.5930  174.0090  145.5810 C   0  0  1  0  0  3  0  0  0  0  0  0
  196.7840  174.1630  146.2660 F   0  0  0  0  0  0  0  0  0  0  0  0
  194.8470  175.3430  145.5610 C   0  0  0  0  0  2  0  0  0  0  0  0
  196.5410  172.3100  144.2050 F   0  0  0  0  0  0  0  0  0  0  0  0
  187.7210  178.1810  142.6300 C   0  0  0  0  0  2  0  0  0  0  0  0
  183.9470  178.4670  142.6350 C   0  0  0  0  0  0  0  0  0  0  0  0
  183.7160  179.0360  143.8910 C   0  0  0  0  0  3  0  0  0  0  0  0
  186.3320  178.4970  143.0610 C   0  0  0  0  0  0  0  0  0  0  0  0
  184.7920  179.3320  144.7330 C   0  0  0  0  0  3  0  0  0  0  0  0
  185.2540  178.1950  142.2200 C   0  0  0  0  0  3  0  0  0  0  0  0
  186.0990  179.0600  144.3200 C   0  0  0  0  0  3  0  0  0  0  0  0
  182.6010  178.0890  141.5820 Cl  0  0  0  0  0  0  0  0  0  0  0  0
  1  8  1  0  0  0  0
  2 13  1  0  0  0  0
  4 16  1  0  0  0  0
  4  9  1  6  0  0  0
  5  6  2  0  0  0  0
  6  2  1  0  0  0  0
  7 13  1  6  0  0  0
  8  3  1  0  0  0  0
  8  2  2  0  0  0  0
 10  5  1  0  0  0  0
 10  1  1  0  0  0  0
 11  3  1  0  0  0  0
 11 14  1  0  0  0  0
 12 17  1  0  0  0  0
 12  1  2  0  0  0  0
 14  4  1  0  0  0  0
 15  9  1  0  0  0  0
 15  7  1  0  0  0  0
 15 22  1  1  0  0  0
 16  3  1  6  0  0  0
 16  7  1  0  0  0  0
 17 11  2  0  0  0  0
 18 19  1  0  0  0  0
 18 20  1  0  0  0  0
 19 21  1  0  0  0  0
 20 22  2  0  0  0  0
 20 25  1  0  0  0  0
 21 26  1  1  0  0  0
 21 23  1  0  0  0  0
 23 24  1  1  0  0  0
 25 23  1  0  0  0  0
 27 30  1  0  0  0  0
 27 14  1  0  0  0  0
 28 29  1  0  0  0  0
 29 31  2  0  0  0  0
 30 33  2  0  0  0  0
 32 28  2  0  0  0  0
 32 30  1  0  0  0  0
 33 31  1  0  0  0  0
 34 28  1  0  0  0  0
M  END
>  <MODEL>
4

>  <REMARK>
 VINA RESULT:      -8.2      4.709      8.490
  Name = 
  3 active torsions:
  status: ('A' for Active; 'I' for Inactive)
    1  A    between atoms: C_12  and  C_28
    2  A    between atoms: C_17  and  C_29
    3  A    between atoms: N_26  and  C_28
                            x       y       z     vdW  Elec       q    Type
                         _______ _______ _______ _____ _____    ______ ____

>  <TORSDO>
F 3

$$$$
=
 OpenBabel11052418543D

 34 40  0  0  1  0  0  0  0  0999 V2000
  193.1020  175.8390  146.4630 C   0  0  0  0  0  0  0  0  0  0  0  0
  193.3110  175.9990  143.9770 C   0  0  0  0  0  0  0  0  0  0  0  0
  191.2130  176.5300  145.0660 N   0  0  0  0  0  0  0  0  0  0  0  0
  189.0820  176.5990  144.2770 C   0  0  1  0  0  3  0  0  0  0  0  0
  195.1160  175.0720  145.3690 C   0  0  0  0  0  3  0  0  0  0  0  0
  194.4830  175.3550  144.0620 C   0  0  0  0  0  3  0  0  0  0  0  0
  190.8840  176.2330  142.7620 C   0  0  1  0  0  3  0  0  0  0  0  0
  192.6630  176.5770  145.2040 C   0  0  1  0  0  3  0  0  0  0  0  0
  188.6710  175.0110  143.4480 S   0  0  0  0  0  0  0  0  0  0  0  0
  194.4660  175.2970  146.5130 C   0  0  0  0  0  3  0  0  0  0  0  0
  190.3550  176.2860  146.1450 C   0  0  0  0  0  0  0  0  0  0  0  0
  192.2420  175.5650  147.4580 C   0  0  0  0  0  3  0  0  0  0  0  0
  192.6680  176.4210  142.3580 S   0  0  0  0  0  0  0  0  0  0  0  0
  189.0190  176.4080  145.7300 N   0  0  0  0  0  0  0  0  0  0  0  0
  190.3750  174.8200  142.8620 C   0  0  1  0  0  3  0  0  0  0  0  0
  190.4830  176.9830  143.9500 N   0  0  2  0  0  0  0  0  0  0  0  0
  190.7960  175.8350  147.3180 C   0  0  0  0  0  3  0  0  0  0  0  0
  190.0640  171.8980  142.5000 C   0  0  0  0  0  2  0  0  0  0  0  0
  190.9920  170.6950  142.3460 C   0  0  0  0  0  2  0  0  0  0  0  0
  190.2580  172.8420  141.3450 C   0  0  0  0  0  0  0  0  0  0  0  0
  190.8170  170.0480  140.9720 C   0  0  1  0  0  3  0  0  0  0  0  0
  190.3840  174.1630  141.5160 C   0  0  0  0  0  3  0  0  0  0  0  0
  191.1470  171.0570  139.8700 C   0  0  1  0  0  3  0  0  0  0  0  0
  191.0000  170.4650  138.6300 F   0  0  0  0  0  0  0  0  0  0  0  0
  190.2320  172.2790  139.9580 C   0  0  0  0  0  2  0  0  0  0  0  0
  191.6600  168.9570  140.8730 F   0  0  0  0  0  0  0  0  0  0  0  0
  187.8330  176.0410  146.4900 C   0  0  0  0  0  2  0  0  0  0  0  0
  185.0460  178.1720  145.0690 C   0  0  0  0  0  0  0  0  0  0  0  0
  184.8030  179.0510  146.1290 C   0  0  0  0  0  3  0  0  0  0  0  0
  186.7940  177.1000  146.3580 C   0  0  0  0  0  0  0  0  0  0  0  0
  185.5530  178.9520  147.3050 C   0  0  0  0  0  3  0  0  0  0  0  0
  186.0390  177.1960  145.1830 C   0  0  0  0  0  3  0  0  0  0  0  0
  186.5460  177.9750  147.4200 C   0  0  0  0  0  3  0  0  0  0  0  0
  184.1040  178.2910  143.5990 Cl  0  0  0  0  0  0  0  0  0  0  0  0
  1 10  1  0  0  0  0
  1 12  2  0  0  0  0
  2  6  2  0  0  0  0
  3  8  1  0  0  0  0
  3 11  1  0  0  0  0
  4  9  1  6  0  0  0
  4 14  1  0  0  0  0
  5 10  2  0  0  0  0
  6  5  1  0  0  0  0
  7 13  1  1  0  0  0
  7 15  1  0  0  0  0
  7 16  1  0  0  0  0
  8  2  1  6  0  0  0
  8  1  1  0  0  0  0
 11 17  2  0  0  0  0
 13  2  1  0  0  0  0
 14 11  1  0  0  0  0
 14 27  1  0  0  0  0
 15 22  1  6  0  0  0
 15  9  1  0  0  0  0
 16  4  1  0  0  0  0
 16  3  1  1  0  0  0
 17 12  1  0  0  0  0
 19 18  1  0  0  0  0
 20 22  2  0  0  0  0
 20 18  1  0  0  0  0
 21 26  1  1  0  0  0
 21 19  1  0  0  0  0
 23 24  1  6  0  0  0
 23 25  1  0  0  0  0
 23 21  1  0  0  0  0
 25 20  1  0  0  0  0
 28 32  2  0  0  0  0
 28 29  1  0  0  0  0
 29 31  2  0  0  0  0
 30 27  1  0  0  0  0
 30 33  2  0  0  0  0
 31 33  1  0  0  0  0
 32 30  1  0  0  0  0
 34 28  1  0  0  0  0
M  END
>  <MODEL>
5

>  <REMARK>
 VINA RESULT:      -8.0      4.424      8.392
  Name = 
  3 active torsions:
  status: ('A' for Active; 'I' for Inactive)
    1  A    between atoms: C_12  and  C_28
    2  A    between atoms: C_17  and  C_29
    3  A    between atoms: N_26  and  C_28
                            x       y       z     vdW  Elec       q    Type
                         _______ _______ _______ _____ _____    ______ ____

>  <TORSDO>
F 3

$$$$
=
 OpenBabel11052418543D

 34 40  0  0  1  0  0  0  0  0999 V2000
  190.4530  176.7440  146.5570 C   0  0  0  0  0  0  0  0  0  0  0  0
  192.6190  176.3000  145.3900 C   0  0  0  0  0  0  0  0  0  0  0  0
  190.5500  176.4100  144.1330 N   0  0  0  0  0  0  0  0  0  0  0  0
  189.9850  175.5940  142.0870 C   0  0  1  0  0  3  0  0  0  0  0  0
  192.4680  176.3910  147.8440 C   0  0  0  0  0  3  0  0  0  0  0  0
  193.1920  176.1050  146.5850 C   0  0  0  0  0  3  0  0  0  0  0  0
  192.2410  175.4290  142.8360 C   0  0  1  0  0  3  0  0  0  0  0  0
  191.2660  176.9470  145.2840 C   0  0  1  0  0  3  0  0  0  0  0  0
  190.3670  173.7980  142.0050 S   0  0  0  0  0  0  0  0  0  0  0  0
  191.1670  176.6930  147.8390 C   0  0  0  0  0  3  0  0  0  0  0  0
  189.1660  176.2020  144.1290 C   0  0  0  0  0  0  0  0  0  0  0  0
  189.1350  176.4850  146.5210 C   0  0  0  0  0  3  0  0  0  0  0  0
  193.5970  176.0560  143.9070 S   0  0  0  0  0  0  0  0  0  0  0  0
  188.7500  175.7830  142.8550 N   0  0  0  0  0  0  0  0  0  0  0  0
  191.8110  174.0060  143.0780 C   0  0  1  0  0  3  0  0  0  0  0  0
  191.0680  176.2990  142.8280 N   0  0  2  0  0  0  0  0  0  0  0  0
  188.4370  176.2390  145.2420 C   0  0  0  0  0  3  0  0  0  0  0  0
  193.4180  172.4700  145.0340 C   0  0  0  0  0  2  0  0  0  0  0  0
  194.7600  172.6380  145.7420 C   0  0  0  0  0  2  0  0  0  0  0  0
  193.6350  172.3690  143.5490 C   0  0  0  0  0  0  0  0  0  0  0  0
  195.7350  171.5370  145.3260 C   0  0  1  0  0  3  0  0  0  0  0  0
  192.8950  173.0560  142.6710 C   0  0  0  0  0  3  0  0  0  0  0  0
  195.9750  171.5920  143.8150 C   0  0  1  0  0  3  0  0  0  0  0  0
  196.8660  170.6020  143.4440 F   0  0  0  0  0  0  0  0  0  0  0  0
  194.6660  171.4050  143.0480 C   0  0  0  0  0  2  0  0  0  0  0  0
  196.9310  171.7120  145.9940 F   0  0  0  0  0  0  0  0  0  0  0  0
  187.4350  175.2750  142.4900 C   0  0  0  0  0  2  0  0  0  0  0  0
  184.8580  178.0470  142.5310 C   0  0  0  0  0  0  0  0  0  0  0  0
  184.9580  178.5360  141.2250 C   0  0  0  0  0  3  0  0  0  0  0  0
  186.5610  176.3940  142.0440 C   0  0  0  0  0  0  0  0  0  0  0  0
  185.8630  177.9570  140.3300 C   0  0  0  0  0  3  0  0  0  0  0  0
  185.6590  176.9780  142.9410 C   0  0  0  0  0  3  0  0  0  0  0  0
  186.6660  176.8890  140.7400 C   0  0  0  0  0  3  0  0  0  0  0  0
  183.7310  178.7750  143.6550 Cl  0  0  0  0  0  0  0  0  0  0  0  0
  1 10  1  0  0  0  0
  2  6  2  0  0  0  0
  3  8  1  0  0  0  0
  4  9  1  1  0  0  0
  4 16  1  0  0  0  0
  4 14  1  0  0  0  0
  6  5  1  0  0  0  0
  7 15  1  0  0  0  0
  7 13  1  1  0  0  0
  8  2  1  1  0  0  0
  8  1  1  0  0  0  0
  9 15  1  0  0  0  0
 10  5  2  0  0  0  0
 11  3  1  0  0  0  0
 11 17  2  0  0  0  0
 12  1  2  0  0  0  0
 13  2  1  0  0  0  0
 14 11  1  0  0  0  0
 15 22  1  6  0  0  0
 16  7  1  0  0  0  0
 16  3  1  1  0  0  0
 17 12  1  0  0  0  0
 18 19  1  0  0  0  0
 20 18  1  0  0  0  0
 21 19  1  0  0  0  0
 21 26  1  1  0  0  0
 22 20  2  0  0  0  0
 23 24  1  6  0  0  0
 23 21  1  0  0  0  0
 25 20  1  0  0  0  0
 25 23  1  0  0  0  0
 27 14  1  0  0  0  0
 28 32  1  0  0  0  0
 28 34  1  0  0  0  0
 29 28  2  0  0  0  0
 30 27  1  0  0  0  0
 30 32  2  0  0  0  0
 31 33  2  0  0  0  0
 31 29  1  0  0  0  0
 33 30  1  0  0  0  0
M  END
>  <MODEL>
6

>  <REMARK>
 VINA RESULT:      -7.8      4.822      8.930
  Name = 
  3 active torsions:
  status: ('A' for Active; 'I' for Inactive)
    1  A    between atoms: C_12  and  C_28
    2  A    between atoms: C_17  and  C_29
    3  A    between atoms: N_26  and  C_28
                            x       y       z     vdW  Elec       q    Type
                         _______ _______ _______ _____ _____    ______ ____

>  <TORSDO>
F 3

$$$$
=
 OpenBabel11052418543D

 34 40  0  0  1  0  0  0  0  0999 V2000
  190.9420  176.3000  145.9960 C   0  0  0  0  0  0  0  0  0  0  0  0
  192.2670  175.2070  144.1790 C   0  0  0  0  0  0  0  0  0  0  0  0
  190.0450  176.0650  143.7290 N   0  0  0  0  0  0  0  0  0  0  0  0
  188.5490  175.5810  142.0880 C   0  0  1  0  0  3  0  0  0  0  0  0
  193.0470  175.2310  146.5130 C   0  0  0  0  0  3  0  0  0  0  0  0
  193.1320  174.7770  145.1070 C   0  0  0  0  0  3  0  0  0  0  0  0
  190.7330  174.6320  142.0030 C   0  0  1  0  0  3  0  0  0  0  0  0
  191.2610  176.2760  144.5060 C   0  0  1  0  0  3  0  0  0  0  0  0
  188.2600  173.7670  142.0210 S   0  0  0  0  0  0  0  0  0  0  0  0
  192.0090  175.9530  146.9430 C   0  0  0  0  0  3  0  0  0  0  0  0
  188.7670  176.3350  144.2310 C   0  0  0  0  0  0  0  0  0  0  0  0
  189.6930  176.5020  146.4480 C   0  0  0  0  0  3  0  0  0  0  0  0
  192.5080  174.7160  142.4720 S   0  0  0  0  0  0  0  0  0  0  0  0
  187.8080  176.1390  143.2240 N   0  0  0  0  0  0  0  0  0  0  0  0
  189.9750  173.4280  142.4950 C   0  0  1  0  0  3  0  0  0  0  0  0
  189.9920  175.8460  142.3390 N   0  0  2  0  0  0  0  0  0  0  0  0
  188.5430  176.5640  145.5230 C   0  0  0  0  0  3  0  0  0  0  0  0
  191.5310  171.3280  143.8880 C   0  0  0  0  0  2  0  0  0  0  0  0
  193.0060  170.9870  144.0830 C   0  0  0  0  0  2  0  0  0  0  0  0
  191.1770  171.2410  142.4280 C   0  0  0  0  0  0  0  0  0  0  0  0
  193.3420  169.6440  143.4370 C   0  0  1  0  0  3  0  0  0  0  0  0
  190.4610  172.1880  141.8100 C   0  0  0  0  0  3  0  0  0  0  0  0
  193.0530  169.6970  141.9350 C   0  0  1  0  0  3  0  0  0  0  0  0
  193.3700  168.4840  141.3520 F   0  0  0  0  0  0  0  0  0  0  0  0
  191.5800  170.0120  141.6740 C   0  0  0  0  0  2  0  0  0  0  0  0
  194.6790  169.3620  143.6440 F   0  0  0  0  0  0  0  0  0  0  0  0
  186.3610  176.1210  143.3890 C   0  0  0  0  0  2  0  0  0  0  0  0
  185.0270  178.5940  145.9250 C   0  0  0  0  0  0  0  0  0  0  0  0
  185.0930  179.7910  145.2030 C   0  0  0  0  0  3  0  0  0  0  0  0
  185.9020  177.3930  144.0120 C   0  0  0  0  0  0  0  0  0  0  0  0
  185.5660  179.7880  143.8880 C   0  0  0  0  0  3  0  0  0  0  0  0
  185.4330  177.3970  145.3310 C   0  0  0  0  0  3  0  0  0  0  0  0
  185.9740  178.5910  143.2930 C   0  0  0  0  0  3  0  0  0  0  0  0
  184.4410  178.5960  147.5740 Cl  0  0  0  0  0  0  0  0  0  0  0  0
  1 12  2  0  0  0  0
  1 10  1  0  0  0  0
  2  6  2  0  0  0  0
  3 11  1  0  0  0  0
  3  8  1  0  0  0  0
  4  9  1  1  0  0  0
  4 16  1  0  0  0  0
  4 14  1  0  0  0  0
  5 10  2  0  0  0  0
  6  5  1  0  0  0  0
  7 16  1  0  0  0  0
  7 13  1  1  0  0  0
  7 15  1  0  0  0  0
  8  2  1  1  0  0  0
  8  1  1  0  0  0  0
  9 15  1  0  0  0  0
 11 17  2  0  0  0  0
 13  2  1  0  0  0  0
 14 27  1  0  0  0  0
 14 11  1  0  0  0  0
 15 22  1  6  0  0  0
 16  3  1  1  0  0  0
 17 12  1  0  0  0  0
 18 19  1  0  0  0  0
 20 18  1  0  0  0  0
 21 26  1  6  0  0  0
 21 19  1  0  0  0  0
 22 20  2  0  0  0  0
 23 24  1  1  0  0  0
 23 21  1  0  0  0  0
 25 23  1  0  0  0  0
 25 20  1  0  0  0  0
 27 30  1  0  0  0  0
 28 34  1  0  0  0  0
 29 28  2  0  0  0  0
 30 32  2  0  0  0  0
 31 29  1  0  0  0  0
 32 28  1  0  0  0  0
 33 31  2  0  0  0  0
 33 30  1  0  0  0  0
M  END
>  <MODEL>
7

>  <REMARK>
 VINA RESULT:      -7.8      4.861      8.916
  Name = 
  3 active torsions:
  status: ('A' for Active; 'I' for Inactive)
    1  A    between atoms: C_12  and  C_28
    2  A    between atoms: C_17  and  C_29
    3  A    between atoms: N_26  and  C_28
                            x       y       z     vdW  Elec       q    Type
                         _______ _______ _______ _____ _____    ______ ____

>  <TORSDO>
F 3

$$$$
=
 OpenBabel11052418543D

 34 40  0  0  1  0  0  0  0  0999 V2000
  193.5430  175.5690  145.1930 C   0  0  0  0  0  0  0  0  0  0  0  0
  191.2790  174.9640  146.0650 C   0  0  0  0  0  0  0  0  0  0  0  0
  191.9890  174.2110  143.8740 N   0  0  0  0  0  0  0  0  0  0  0  0
  190.8030  173.5150  142.0630 C   0  0  1  0  0  3  0  0  0  0  0  0
  192.7520  176.5270  147.2660 C   0  0  0  0  0  3  0  0  0  0  0  0
  191.4510  175.8540  147.0510 C   0  0  0  0  0  3  0  0  0  0  0  0
  189.6690  173.9590  144.1110 C   0  0  1  0  0  3  0  0  0  0  0  0
  192.4430  174.5150  145.2260 C   0  0  1  0  0  3  0  0  0  0  0  0
  189.5380  174.7730  141.6240 S   0  0  0  0  0  0  0  0  0  0  0  0
  193.7480  176.3980  146.3870 C   0  0  0  0  0  3  0  0  0  0  0  0
  192.7630  174.4700  142.7370 C   0  0  0  0  0  0  0  0  0  0  0  0
  194.2290  175.8400  144.0710 C   0  0  0  0  0  3  0  0  0  0  0  0
  189.7170  174.0930  145.9440 S   0  0  0  0  0  0  0  0  0  0  0  0
  192.1150  173.9750  141.5940 N   0  0  0  0  0  0  0  0  0  0  0  0
  189.3030  175.2150  143.3650 C   0  0  1  0  0  3  0  0  0  0  0  0
  190.8910  173.3930  143.5450 N   0  0  2  0  0  0  0  0  0  0  0  0
  193.8540  175.2340  142.7770 C   0  0  0  0  0  3  0  0  0  0  0  0
  188.4870  177.3700  145.2250 C   0  0  0  0  0  2  0  0  0  0  0  0
  188.0660  177.4710  146.6890 C   0  0  0  0  0  2  0  0  0  0  0  0
  187.4930  176.5360  144.4640 C   0  0  0  0  0  0  0  0  0  0  0  0
  186.6220  177.9580  146.8050 C   0  0  1  0  0  3  0  0  0  0  0  0
  187.8700  175.5730  143.6150 C   0  0  0  0  0  3  0  0  0  0  0  0
  185.6800  176.9820  146.0960 C   0  0  1  0  0  3  0  0  0  0  0  0
  184.3740  177.4190  146.2140 F   0  0  0  0  0  0  0  0  0  0  0  0
  186.0380  176.8560  144.6150 C   0  0  0  0  0  2  0  0  0  0  0  0
  186.2790  178.0500  148.1400 F   0  0  0  0  0  0  0  0  0  0  0  0
  192.4870  174.2150  140.2070 C   0  0  0  0  0  2  0  0  0  0  0  0
  190.8250  172.0260  137.6050 C   0  0  0  0  0  0  0  0  0  0  0  0
  191.5260  170.8260  137.7660 C   0  0  0  0  0  3  0  0  0  0  0  0
  192.1400  173.0320  139.3730 C   0  0  0  0  0  0  0  0  0  0  0  0
  192.5360  170.7310  138.7280 C   0  0  0  0  0  3  0  0  0  0  0  0
  191.1330  173.1280  138.4060 C   0  0  0  0  0  3  0  0  0  0  0  0
  192.8450  171.8340  139.5290 C   0  0  0  0  0  3  0  0  0  0  0  0
  189.5650  172.1490  136.3970 Cl  0  0  0  0  0  0  0  0  0  0  0  0
  1 10  1  0  0  0  0
  2  6  2  0  0  0  0
  3  8  1  0  0  0  0
  4  9  1  1  0  0  0
  4 16  1  0  0  0  0
  6  5  1  0  0  0  0
  7 13  1  1  0  0  0
  8  1  1  6  0  0  0
  8  2  1  0  0  0  0
  9 15  1  0  0  0  0
 10  5  2  0  0  0  0
 11 17  2  0  0  0  0
 11  3  1  0  0  0  0
 12  1  2  0  0  0  0
 13  2  1  0  0  0  0
 14  4  1  0  0  0  0
 14 11  1  0  0  0  0
 15 22  1  6  0  0  0
 15  7  1  0  0  0  0
 16  3  1  1  0  0  0
 16  7  1  0  0  0  0
 17 12  1  0  0  0  0
 18 19  1  0  0  0  0
 19 21  1  0  0  0  0
 20 25  1  0  0  0  0
 20 18  1  0  0  0  0
 21 26  1  1  0  0  0
 22 20  2  0  0  0  0
 23 24  1  6  0  0  0
 23 21  1  0  0  0  0
 25 23  1  0  0  0  0
 27 14  1  0  0  0  0
 28 29  2  0  0  0  0
 28 32  1  0  0  0  0
 29 31  1  0  0  0  0
 30 33  1  0  0  0  0
 30 27  1  0  0  0  0
 31 33  2  0  0  0  0
 32 30  2  0  0  0  0
 34 28  1  0  0  0  0
M  END
>  <MODEL>
8

>  <REMARK>
 VINA RESULT:      -7.6      3.131      5.413
  Name = 
  3 active torsions:
  status: ('A' for Active; 'I' for Inactive)
    1  A    between atoms: C_12  and  C_28
    2  A    between atoms: C_17  and  C_29
    3  A    between atoms: N_26  and  C_28
                            x       y       z     vdW  Elec       q    Type
                         _______ _______ _______ _____ _____    ______ ____

>  <TORSDO>
F 3

$$$$
=
 OpenBabel11052418543D

 34 40  0  0  1  0  0  0  0  0999 V2000
  188.6810  174.9260  140.8430 C   0  0  0  0  0  0  0  0  0  0  0  0
  188.6320  176.9310  142.3360 C   0  0  0  0  0  0  0  0  0  0  0  0
  190.0720  175.0520  142.8560 N   0  0  0  0  0  0  0  0  0  0  0  0
  191.0340  174.3870  144.8050 C   0  0  1  0  0  3  0  0  0  0  0  0
  187.0670  176.6820  140.4540 C   0  0  0  0  0  3  0  0  0  0  0  0
  187.5450  177.3590  141.6800 C   0  0  0  0  0  3  0  0  0  0  0  0
  189.8550  176.4560  144.7230 C   0  0  1  0  0  3  0  0  0  0  0  0
  189.4850  175.8300  141.7710 C   0  0  0  0  0  0  0  0  0  0  0  0
  189.7540  174.2390  146.1150 S   0  0  0  0  0  0  0  0  0  0  0  0
  187.6000  175.5250  140.0520 C   0  0  0  0  0  2  0  0  0  0  0  0
  190.2710  173.6700  142.7770 C   0  0  0  0  0  0  0  0  0  0  0  0
  188.8510  173.5930  140.8330 C   0  0  0  0  0  3  0  0  0  0  0  0
  189.2280  177.8760  143.7380 S   0  0  0  0  0  0  0  0  0  0  0  0
  190.9490  173.2190  143.9220 N   0  0  0  0  0  0  0  0  0  0  0  0
  188.8130  175.6230  145.4200 C   0  0  1  0  0  3  0  0  0  0  0  0
  190.7530  175.5860  143.9670 N   0  0  2  0  0  0  0  0  0  0  0  0
  189.7210  172.9230  141.8210 C   0  0  0  0  0  3  0  0  0  0  0  0
  185.9680  176.4400  145.3460 C   0  0  0  0  0  2  0  0  0  0  0  0
  185.1800  177.6760  144.9160 C   0  0  0  0  0  2  0  0  0  0  0  0
  186.8840  176.7920  146.4870 C   0  0  0  0  0  0  0  0  0  0  0  0
  184.4730  178.3120  146.1120 C   0  0  1  0  0  3  0  0  0  0  0  0
  188.1650  176.4060  146.5190 C   0  0  0  0  0  3  0  0  0  0  0  0
  185.5010  178.7350  147.1650 C   0  0  1  0  0  3  0  0  0  0  0  0
  184.8590  179.3220  148.2400 F   0  0  0  0  0  0  0  0  0  0  0  0
  186.3080  177.5330  147.6530 C   0  0  0  0  0  2  0  0  0  0  0  0
  183.7610  179.4160  145.6850 F   0  0  0  0  0  0  0  0  0  0  0  0
  191.1690  171.8350  144.3170 C   0  0  0  0  0  2  0  0  0  0  0  0
  194.9220  171.5160  144.6920 C   0  0  0  0  0  0  0  0  0  0  0  0
  195.2370  170.6810  143.6150 C   0  0  0  0  0  3  0  0  0  0  0  0
  192.5840  171.4500  144.0610 C   0  0  0  0  0  0  0  0  0  0  0  0
  194.2250  170.2280  142.7640 C   0  0  0  0  0  3  0  0  0  0  0  0
  193.5970  171.8990  144.9160 C   0  0  0  0  0  3  0  0  0  0  0  0
  192.8990  170.6090  142.9880 C   0  0  0  0  0  3  0  0  0  0  0  0
  196.1860  172.0790  145.7630 Cl  0  0  0  0  0  0  0  0  0  0  0  0
  1  8  1  0  0  0  0
  2 13  1  0  0  0  0
  4  9  1  1  0  0  0
  5  6  2  0  0  0  0
  6  2  1  0  0  0  0
  7 13  1  6  0  0  0
  7 15  1  0  0  0  0
  8  2  2  0  0  0  0
  8  3  1  0  0  0  0
 10  5  1  0  0  0  0
 10  1  1  0  0  0  0
 11  3  1  0  0  0  0
 11 14  1  0  0  0  0
 12  1  2  0  0  0  0
 12 17  1  0  0  0  0
 14 27  1  0  0  0  0
 14  4  1  0  0  0  0
 15  9  1  0  0  0  0
 15 22  1  1  0  0  0
 16  3  1  6  0  0  0
 16  7  1  0  0  0  0
 16  4  1  0  0  0  0
 17 11  2  0  0  0  0
 18 20  1  0  0  0  0
 19 18  1  0  0  0  0
 19 21  1  0  0  0  0
 20 22  2  0  0  0  0
 20 25  1  0  0  0  0
 21 26  1  6  0  0  0
 21 23  1  0  0  0  0
 23 25  1  0  0  0  0
 23 24  1  1  0  0  0
 28 32  1  0  0  0  0
 28 34  1  0  0  0  0
 29 28  2  0  0  0  0
 30 27  1  0  0  0  0
 30 32  2  0  0  0  0
 31 33  2  0  0  0  0
 31 29  1  0  0  0  0
 33 30  1  0  0  0  0
M  END
>  <MODEL>
9

>  <REMARK>
 VINA RESULT:      -7.4      2.115      2.780
  Name = 
  3 active torsions:
  status: ('A' for Active; 'I' for Inactive)
    1  A    between atoms: C_12  and  C_28
    2  A    between atoms: C_17  and  C_29
    3  A    between atoms: N_26  and  C_28
                            x       y       z     vdW  Elec       q    Type
                         _______ _______ _______ _____ _____    ______ ____

>  <TORSDO>
F 3

$$$$
