=
 OpenBabel11052421343D

 32 37  0  0  1  0  0  0  0  0999 V2000
  194.2850  176.8790  145.3970 C   0  0  2  0  0  3  0  0  0  0  0  0
  190.6020  176.0040  143.4600 C   0  0  0  0  0  0  0  0  0  0  0  0
  188.1090  177.4500  147.3510 C   0  0  0  0  0  3  0  0  0  0  0  0
  186.9370  177.1170  146.6710 C   0  0  0  0  0  3  0  0  0  0  0  0
  192.9650  176.0960  143.4040 C   0  0  2  0  0  3  0  0  0  0  0  0
  191.8050  176.8250  145.3570 N   0  0  0  0  0  0  0  0  0  0  0  0
  194.5210  175.8640  146.3050 F   0  0  0  0  0  0  0  0  0  0  0  0
  189.3420  177.2590  146.7250 C   0  0  0  0  0  3  0  0  0  0  0  0
  190.6130  176.5330  144.7660 C   0  0  2  0  0  3  0  0  0  0  0  0
  189.3940  176.7400  145.4260 C   0  0  0  0  0  0  0  0  0  0  0  0
  188.2270  175.8940  143.4680 C   0  0  0  0  0  0  0  0  0  0  0  0
  195.3750  176.3200  143.2160 C   0  0  0  0  0  0  0  0  0  0  0  0
  192.9790  176.6260  144.7020 C   0  0  0  0  0  0  0  0  0  0  0  0
  194.2240  175.8990  142.6810 C   0  0  0  0  0  3  0  0  0  0  0  0
  195.3770  176.9510  144.4720 O   0  0  0  0  0  0  0  0  0  0  0  0
  186.9970  176.6120  145.4100 N   0  0  0  0  0  0  0  0  0  0  0  0
  188.1840  176.4170  144.7710 C   0  0  0  0  0  0  0  0  0  0  0  0
  191.7780  175.7980  142.8110 N   0  0  0  0  0  0  0  0  0  0  0  0
  189.4250  175.7030  142.8520 N   0  0  0  0  0  0  0  0  0  0  0  0
  196.6470  176.1660  142.4920 C   0  0  0  0  0  0  0  0  0  0  0  0
  197.7500  175.9460  143.1360 N   0  0  0  0  0  2  0  0  0  0  0  0
  196.6470  176.2620  141.0970 O   0  0  0  0  0  0  0  0  0  0  0  0
  197.5390  175.5130  140.2830 C   0  0  0  0  0  1  0  0  0  0  0  0
  186.9690  175.5620  142.7300 C   0  0  0  0  0  2  0  0  0  0  0  0
  184.9460  179.6250  144.2560 C   0  0  0  0  0  1  0  0  0  0  0  0
  185.3340  177.5240  143.0120 C   0  0  2  0  0  3  0  0  0  0  0  0
  186.3610  177.2540  140.9190 C   0  0  0  0  0  0  0  0  0  0  0  0
  185.5550  178.2810  140.7500 C   0  0  0  0  0  3  0  0  0  0  0  0
  184.8060  178.5670  142.0240 C   0  0  2  0  0  3  0  0  0  0  0  0
  185.7480  178.9800  143.1450 C   0  0  1  0  0  3  0  0  0  0  0  0
  187.2550  176.7180  139.8560 C   0  0  0  0  0  1  0  0  0  0  0  0
  186.3260  176.7790  142.2530 N   0  0  0  0  0  0  0  0  0  0  0  0
  1  7  1  1  0  0  0
  4  3  2  0  0  0  0
  5 14  1  6  0  0  0
  5 13  1  0  0  0  0
  8  3  1  0  0  0  0
  9  2  1  1  0  0  0
  9  6  1  0  0  0  0
  9 10  1  0  0  0  0
 10  8  2  0  0  0  0
 11 17  1  0  0  0  0
 12 15  1  0  0  0  0
 13  6  2  0  0  0  0
 13  1  1  0  0  0  0
 14 12  2  0  0  0  0
 15  1  1  0  0  0  0
 16  4  1  0  0  0  0
 17 16  2  0  0  0  0
 17 10  1  0  0  0  0
 18  5  1  0  0  0  0
 18  2  2  0  0  0  0
 19  2  1  0  0  0  0
 19 11  2  0  0  0  0
 20 21  2  0  0  0  0
 20 12  1  0  0  0  0
 22 20  1  0  0  0  0
 23 22  1  0  0  0  0
 24 11  1  0  0  0  0
 26 32  1  6  0  0  0
 26 30  1  0  0  0  0
 27 32  1  0  0  0  0
 28 27  2  0  0  0  0
 29 28  1  6  0  0  0
 29 26  1  0  0  0  0
 29 30  1  0  0  0  0
 30 25  1  1  0  0  0
 31 27  1  0  0  0  0
 32 24  1  0  0  0  0
M  END
>  <MODEL>
1

>  <REMARK>
 VINA RESULT:      -8.2      0.000      0.000
  Name = 
  4 active torsions:
  status: ('A' for Active; 'I' for Inactive)
    1  A    between atoms: C_1  and  O_10
    2  A    between atoms: C_1  and  C_19
    3  A    between atoms: C_16  and  C_27
    4  A    between atoms: C_27  and  N_32
                            x       y       z     vdW  Elec       q    Type
                         _______ _______ _______ _____ _____    ______ ____

>  <TORSDO>
F 4

$$$$
=
 OpenBabel11052421343D

 32 37  0  0  1  0  0  0  0  0999 V2000
  185.3960  179.0640  144.4840 C   0  0  2  0  0  3  0  0  0  0  0  0
  188.4590  176.1940  143.7990 C   0  0  0  0  0  0  0  0  0  0  0  0
  190.6190  177.3740  147.9690 C   0  0  0  0  0  3  0  0  0  0  0  0
  191.6090  176.4350  147.6730 C   0  0  0  0  0  3  0  0  0  0  0  0
  186.4510  177.2390  143.1100 C   0  0  2  0  0  3  0  0  0  0  0  0
  187.4600  177.8730  145.1780 N   0  0  0  0  0  0  0  0  0  0  0  0
  185.9330  180.3080  144.2080 F   0  0  0  0  0  0  0  0  0  0  0  0
  189.5650  177.5620  147.0750 C   0  0  0  0  0  3  0  0  0  0  0  0
  188.4630  176.9760  144.9710 C   0  0  2  0  0  3  0  0  0  0  0  0
  189.5050  176.8120  145.8940 C   0  0  0  0  0  0  0  0  0  0  0  0
  190.4750  175.1140  144.4490 C   0  0  0  0  0  0  0  0  0  0  0  0
  184.3080  178.1490  142.4260 C   0  0  0  0  0  0  0  0  0  0  0  0
  186.4510  178.0160  144.2780 C   0  0  0  0  0  0  0  0  0  0  0  0
  185.3570  177.3700  142.1450 C   0  0  0  0  0  3  0  0  0  0  0  0
  184.2550  178.8440  143.6460 O   0  0  0  0  0  0  0  0  0  0  0  0
  191.5440  175.7110  146.5240 N   0  0  0  0  0  0  0  0  0  0  0  0
  190.5260  175.8710  145.6320 C   0  0  0  0  0  0  0  0  0  0  0  0
  187.4530  176.3450  142.8970 N   0  0  0  0  0  0  0  0  0  0  0  0
  189.4510  175.2950  143.5710 N   0  0  0  0  0  0  0  0  0  0  0  0
  183.1800  178.2660  141.4870 C   0  0  0  0  0  0  0  0  0  0  0  0
  183.3490  178.0430  140.2220 N   0  0  0  0  0  2  0  0  0  0  0  0
  181.9220  178.6230  141.9830 O   0  0  0  0  0  0  0  0  0  0  0  0
  180.7150  178.2670  141.3230 C   0  0  0  0  0  1  0  0  0  0  0  0
  191.5220  174.0900  144.1450 C   0  0  0  0  0  2  0  0  0  0  0  0
  195.7300  176.3390  143.7490 C   0  0  0  0  0  1  0  0  0  0  0  0
  193.3600  175.7260  143.4050 C   0  0  2  0  0  3  0  0  0  0  0  0
  192.4600  174.2920  141.7800 C   0  0  0  0  0  0  0  0  0  0  0  0
  193.3180  175.0350  141.1130 C   0  0  0  0  0  3  0  0  0  0  0  0
  193.9720  176.0280  142.0360 C   0  0  2  0  0  3  0  0  0  0  0  0
  194.7980  175.3330  143.1080 C   0  0  1  0  0  3  0  0  0  0  0  0
  191.6510  173.2040  141.1660 C   0  0  0  0  0  1  0  0  0  0  0  0
  192.4640  174.6060  143.1610 N   0  0  0  0  0  0  0  0  0  0  0  0
  1  7  1  6  0  0  0
  4  3  1  0  0  0  0
  5 14  1  1  0  0  0
  5 13  1  0  0  0  0
  8  3  2  0  0  0  0
  9  2  1  6  0  0  0
  9  6  1  0  0  0  0
  9 10  1  0  0  0  0
 10  8  1  0  0  0  0
 11 17  1  0  0  0  0
 12 15  1  0  0  0  0
 13  1  1  0  0  0  0
 13  6  2  0  0  0  0
 14 12  2  0  0  0  0
 15  1  1  0  0  0  0
 16  4  2  0  0  0  0
 17 10  2  0  0  0  0
 17 16  1  0  0  0  0
 18  5  1  0  0  0  0
 18  2  2  0  0  0  0
 19  2  1  0  0  0  0
 19 11  2  0  0  0  0
 20 22  1  0  0  0  0
 20 12  1  0  0  0  0
 21 20  2  0  0  0  0
 23 22  1  0  0  0  0
 24 11  1  0  0  0  0
 26 32  1  6  0  0  0
 27 32  1  0  0  0  0
 28 27  2  0  0  0  0
 29 28  1  6  0  0  0
 29 30  1  0  0  0  0
 29 26  1  0  0  0  0
 30 26  1  0  0  0  0
 30 25  1  1  0  0  0
 31 27  1  0  0  0  0
 32 24  1  0  0  0  0
M  END
>  <MODEL>
2

>  <REMARK>
 VINA RESULT:      -8.0      3.998      8.374
  Name = 
  4 active torsions:
  status: ('A' for Active; 'I' for Inactive)
    1  A    between atoms: C_1  and  O_10
    2  A    between atoms: C_1  and  C_19
    3  A    between atoms: C_16  and  C_27
    4  A    between atoms: C_27  and  N_32
                            x       y       z     vdW  Elec       q    Type
                         _______ _______ _______ _____ _____    ______ ____

>  <TORSDO>
F 4

$$$$
=
 OpenBabel11052421343D

 32 37  0  0  1  0  0  0  0  0999 V2000
  185.3450  178.5640  144.6570 C   0  0  2  0  0  3  0  0  0  0  0  0
  188.9290  176.6970  143.3320 C   0  0  0  0  0  0  0  0  0  0  0  0
  190.8480  177.0360  147.7650 C   0  0  0  0  0  3  0  0  0  0  0  0
  192.0080  176.4440  147.2620 C   0  0  0  0  0  3  0  0  0  0  0  0
  186.7390  177.4660  142.8730 C   0  0  2  0  0  3  0  0  0  0  0  0
  187.6190  177.6680  145.0820 N   0  0  0  0  0  0  0  0  0  0  0  0
  185.6070  179.9160  144.7730 F   0  0  0  0  0  0  0  0  0  0  0  0
  189.7670  177.2570  146.9110 C   0  0  0  0  0  3  0  0  0  0  0  0
  188.7850  177.0910  144.6770 C   0  0  2  0  0  3  0  0  0  0  0  0
  189.8500  176.8840  145.5650 C   0  0  0  0  0  0  0  0  0  0  0  0
  191.1340  175.9080  143.7440 C   0  0  0  0  0  0  0  0  0  0  0  0
  184.4450  178.0800  142.3730 C   0  0  0  0  0  0  0  0  0  0  0  0
  186.5920  177.8560  144.2130 C   0  0  0  0  0  0  0  0  0  0  0  0
  185.6300  177.6450  141.9330 C   0  0  0  0  0  3  0  0  0  0  0  0
  184.2630  178.3680  143.7360 O   0  0  0  0  0  0  0  0  0  0  0  0
  192.0810  176.0850  145.9520 N   0  0  0  0  0  0  0  0  0  0  0  0
  191.0410  176.2850  145.0950 C   0  0  0  0  0  0  0  0  0  0  0  0
  187.9030  176.8950  142.4630 N   0  0  0  0  0  0  0  0  0  0  0  0
  190.0840  176.1230  142.9060 N   0  0  0  0  0  0  0  0  0  0  0  0
  183.3050  178.2310  141.4540 C   0  0  0  0  0  0  0  0  0  0  0  0
  183.4540  178.0320  140.1810 N   0  0  0  0  0  2  0  0  0  0  0  0
  182.0600  178.5940  141.9740 O   0  0  0  0  0  0  0  0  0  0  0  0
  180.8380  178.2440  141.3380 C   0  0  0  0  0  1  0  0  0  0  0  0
  192.3670  175.2500  143.2120 C   0  0  0  0  0  2  0  0  0  0  0  0
  190.3710  171.0350  142.1250 C   0  0  0  0  0  1  0  0  0  0  0  0
  191.2440  172.9490  143.4250 C   0  0  2  0  0  3  0  0  0  0  0  0
  193.3820  173.2070  144.3570 C   0  0  0  0  0  0  0  0  0  0  0  0
  193.0450  171.9710  144.6630 C   0  0  0  0  0  3  0  0  0  0  0  0
  191.6700  171.6620  144.1350 C   0  0  2  0  0  3  0  0  0  0  0  0
  191.6290  171.7210  142.6160 C   0  0  1  0  0  3  0  0  0  0  0  0
  194.6860  173.8260  144.7210 C   0  0  0  0  0  1  0  0  0  0  0  0
  192.3840  173.8400  143.5760 N   0  0  0  0  0  0  0  0  0  0  0  0
  1  7  1  6  0  0  0
  4  3  1  0  0  0  0
  5 14  1  1  0  0  0
  5 13  1  0  0  0  0
  8  3  2  0  0  0  0
  9  2  1  6  0  0  0
  9  6  1  0  0  0  0
  9 10  1  0  0  0  0
 10  8  1  0  0  0  0
 11 17  1  0  0  0  0
 12 15  1  0  0  0  0
 13  1  1  0  0  0  0
 13  6  2  0  0  0  0
 14 12  2  0  0  0  0
 15  1  1  0  0  0  0
 16  4  2  0  0  0  0
 17 10  2  0  0  0  0
 17 16  1  0  0  0  0
 18  5  1  0  0  0  0
 18  2  2  0  0  0  0
 19  2  1  0  0  0  0
 19 11  2  0  0  0  0
 20 22  1  0  0  0  0
 20 12  1  0  0  0  0
 21 20  2  0  0  0  0
 23 22  1  0  0  0  0
 24 32  1  0  0  0  0
 24 11  1  0  0  0  0
 26 32  1  6  0  0  0
 26 29  1  0  0  0  0
 27 28  2  0  0  0  0
 27 31  1  0  0  0  0
 29 28  1  6  0  0  0
 30 25  1  1  0  0  0
 30 26  1  0  0  0  0
 30 29  1  0  0  0  0
 32 27  1  0  0  0  0
M  END
>  <MODEL>
3

>  <REMARK>
 VINA RESULT:      -8.0      4.299      8.519
  Name = 
  4 active torsions:
  status: ('A' for Active; 'I' for Inactive)
    1  A    between atoms: C_1  and  O_10
    2  A    between atoms: C_1  and  C_19
    3  A    between atoms: C_16  and  C_27
    4  A    between atoms: C_27  and  N_32
                            x       y       z     vdW  Elec       q    Type
                         _______ _______ _______ _____ _____    ______ ____

>  <TORSDO>
F 4

$$$$
=
 OpenBabel11052421343D

 32 37  0  0  1  0  0  0  0  0999 V2000
  184.7970  178.8700  144.3790 C   0  0  2  0  0  3  0  0  0  0  0  0
  188.1060  176.5290  143.0960 C   0  0  0  0  0  0  0  0  0  0  0  0
  190.3240  177.1710  147.3530 C   0  0  0  0  0  3  0  0  0  0  0  0
  191.3910  176.4160  146.8630 C   0  0  0  0  0  3  0  0  0  0  0  0
  185.9710  177.4510  142.6660 C   0  0  2  0  0  3  0  0  0  0  0  0
  187.0030  177.8100  144.7870 N   0  0  0  0  0  0  0  0  0  0  0  0
  185.1870  180.1950  144.3230 F   0  0  0  0  0  0  0  0  0  0  0  0
  189.2150  177.3990  146.5370 C   0  0  0  0  0  3  0  0  0  0  0  0
  188.0840  177.0820  144.3920 C   0  0  2  0  0  3  0  0  0  0  0  0
  189.1790  176.8720  145.2410 C   0  0  0  0  0  0  0  0  0  0  0  0
  190.2530  175.5800  143.4820 C   0  0  0  0  0  0  0  0  0  0  0  0
  183.7140  178.2250  142.2180 C   0  0  0  0  0  0  0  0  0  0  0  0
  185.9440  177.9990  143.9570 C   0  0  0  0  0  0  0  0  0  0  0  0
  184.8250  177.6310  141.7710 C   0  0  0  0  0  3  0  0  0  0  0  0
  183.6460  178.6790  143.5460 O   0  0  0  0  0  0  0  0  0  0  0  0
  191.3480  175.9090  145.6020 N   0  0  0  0  0  0  0  0  0  0  0  0
  190.2790  176.1120  144.7830 C   0  0  0  0  0  0  0  0  0  0  0  0
  187.0500  176.7270  142.2650 N   0  0  0  0  0  0  0  0  0  0  0  0
  189.1760  175.8010  142.6810 N   0  0  0  0  0  0  0  0  0  0  0  0
  182.5380  178.3830  141.3480 C   0  0  0  0  0  0  0  0  0  0  0  0
  182.5440  177.9150  140.1390 N   0  0  0  0  0  2  0  0  0  0  0  0
  181.4120  179.0460  141.8460 O   0  0  0  0  0  0  0  0  0  0  0  0
  180.4030  179.5740  140.9980 C   0  0  0  0  0  1  0  0  0  0  0  0
  191.3850  174.7500  142.9670 C   0  0  0  0  0  2  0  0  0  0  0  0
  191.5850  172.0020  139.0510 C   0  0  0  0  0  1  0  0  0  0  0  0
  190.7030  173.2630  140.9860 C   0  0  2  0  0  3  0  0  0  0  0  0
  190.2590  172.4660  143.1490 C   0  0  0  0  0  0  0  0  0  0  0  0
  189.7610  171.5400  142.3570 C   0  0  0  0  0  3  0  0  0  0  0  0
  189.9610  171.9270  140.9160 C   0  0  2  0  0  3  0  0  0  0  0  0
  191.4370  172.0030  140.5580 C   0  0  1  0  0  3  0  0  0  0  0  0
  190.2370  172.3870  144.6350 C   0  0  0  0  0  1  0  0  0  0  0  0
  190.8840  173.5010  142.4100 N   0  0  0  0  0  0  0  0  0  0  0  0
  1  7  1  6  0  0  0
  4  3  1  0  0  0  0
  5 14  1  1  0  0  0
  5 13  1  0  0  0  0
  8  3  2  0  0  0  0
  9  2  1  6  0  0  0
  9  6  1  0  0  0  0
  9 10  1  0  0  0  0
 10  8  1  0  0  0  0
 11 17  1  0  0  0  0
 12 15  1  0  0  0  0
 13  1  1  0  0  0  0
 13  6  2  0  0  0  0
 14 12  2  0  0  0  0
 15  1  1  0  0  0  0
 16  4  2  0  0  0  0
 17 10  2  0  0  0  0
 17 16  1  0  0  0  0
 18  5  1  0  0  0  0
 18  2  2  0  0  0  0
 19  2  1  0  0  0  0
 19 11  2  0  0  0  0
 20 22  1  0  0  0  0
 20 12  1  0  0  0  0
 21 20  2  0  0  0  0
 23 22  1  0  0  0  0
 24 11  1  0  0  0  0
 26 32  1  1  0  0  0
 27 31  1  0  0  0  0
 28 27  2  0  0  0  0
 29 26  1  0  0  0  0
 29 28  1  1  0  0  0
 30 25  1  6  0  0  0
 30 29  1  0  0  0  0
 30 26  1  0  0  0  0
 32 24  1  0  0  0  0
 32 27  1  0  0  0  0
M  END
>  <MODEL>
4

>  <REMARK>
 VINA RESULT:      -7.9      4.599      8.567
  Name = 
  4 active torsions:
  status: ('A' for Active; 'I' for Inactive)
    1  A    between atoms: C_1  and  O_10
    2  A    between atoms: C_1  and  C_19
    3  A    between atoms: C_16  and  C_27
    4  A    between atoms: C_27  and  N_32
                            x       y       z     vdW  Elec       q    Type
                         _______ _______ _______ _____ _____    ______ ____

>  <TORSDO>
F 4

$$$$
=
 OpenBabel11052421343D

 32 37  0  0  1  0  0  0  0  0999 V2000
  188.7760  172.9980  138.6680 C   0  0  2  0  0  3  0  0  0  0  0  0
  189.1400  175.1970  142.2890 C   0  0  0  0  0  0  0  0  0  0  0  0
  185.7090  178.2990  140.8550 C   0  0  0  0  0  3  0  0  0  0  0  0
  185.8950  178.9930  142.0520 C   0  0  0  0  0  3  0  0  0  0  0  0
  189.7890  173.3660  140.9410 C   0  0  2  0  0  3  0  0  0  0  0  0
  188.0920  174.8530  140.1680 N   0  0  0  0  0  0  0  0  0  0  0  0
  189.4150  173.7260  137.6820 F   0  0  0  0  0  0  0  0  0  0  0  0
  186.4740  177.1610  140.5970 C   0  0  0  0  0  3  0  0  0  0  0  0
  188.2050  175.5860  141.3100 C   0  0  2  0  0  3  0  0  0  0  0  0
  187.4170  176.7230  141.5350 C   0  0  0  0  0  0  0  0  0  0  0  0
  188.5200  177.0230  143.6820 C   0  0  0  0  0  0  0  0  0  0  0  0
  190.3840  171.3750  139.6860 C   0  0  0  0  0  0  0  0  0  0  0  0
  188.8570  173.7480  139.9660 C   0  0  0  0  0  0  0  0  0  0  0  0
  190.6030  172.1640  140.7430 C   0  0  0  0  0  3  0  0  0  0  0  0
  189.3750  171.7000  138.7630 O   0  0  0  0  0  0  0  0  0  0  0  0
  186.8140  178.5620  142.9570 N   0  0  0  0  0  0  0  0  0  0  0  0
  187.5750  177.4530  142.7350 C   0  0  0  0  0  0  0  0  0  0  0  0
  189.9090  174.0970  142.0810 N   0  0  0  0  0  0  0  0  0  0  0  0
  189.2710  175.9150  143.4350 N   0  0  0  0  0  0  0  0  0  0  0  0
  191.1640  170.1430  139.4860 C   0  0  0  0  0  0  0  0  0  0  0  0
  192.2990  170.1750  138.8600 N   0  0  0  0  0  2  0  0  0  0  0  0
  190.6610  168.9360  139.9820 O   0  0  0  0  0  0  0  0  0  0  0  0
  190.8260  168.5440  141.3380 C   0  0  0  0  0  1  0  0  0  0  0  0
  188.7010  177.7520  144.9750 C   0  0  0  0  0  2  0  0  0  0  0  0
  184.0580  178.6390  145.7430 C   0  0  0  0  0  1  0  0  0  0  0  0
  186.4810  178.3380  146.1300 C   0  0  2  0  0  3  0  0  0  0  0  0
  187.6010  176.4020  146.8410 C   0  0  0  0  0  0  0  0  0  0  0  0
  186.5510  176.4740  147.6320 C   0  0  0  0  0  3  0  0  0  0  0  0
  185.7330  177.6930  147.2990 C   0  0  2  0  0  3  0  0  0  0  0  0
  185.1660  177.6160  145.8900 C   0  0  1  0  0  3  0  0  0  0  0  0
  188.6100  175.3090  146.8990 C   0  0  0  0  0  1  0  0  0  0  0  0
  187.6050  177.4470  145.8850 N   0  0  0  0  0  0  0  0  0  0  0  0
  1  7  1  6  0  0  0
  1 15  1  0  0  0  0
  1 13  1  0  0  0  0
  2 19  1  0  0  0  0
  3  4  1  0  0  0  0
  4 16  2  0  0  0  0
  5 14  1  1  0  0  0
  5 18  1  0  0  0  0
  8  3  2  0  0  0  0
  8 10  1  0  0  0  0
  9  6  1  6  0  0  0
  9 10  1  0  0  0  0
  9  2  1  0  0  0  0
 10 17  2  0  0  0  0
 11 24  1  0  0  0  0
 12 14  2  0  0  0  0
 13  6  2  0  0  0  0
 13  5  1  0  0  0  0
 15 12  1  0  0  0  0
 17 16  1  0  0  0  0
 17 11  1  0  0  0  0
 18  2  2  0  0  0  0
 19 11  2  0  0  0  0
 20 12  1  0  0  0  0
 20 22  1  0  0  0  0
 21 20  2  0  0  0  0
 22 23  1  0  0  0  0
 24 32  1  0  0  0  0
 26 32  1  6  0  0  0
 26 29  1  0  0  0  0
 27 31  1  0  0  0  0
 27 28  2  0  0  0  0
 29 28  1  6  0  0  0
 30 25  1  1  0  0  0
 30 26  1  0  0  0  0
 30 29  1  0  0  0  0
 32 27  1  0  0  0  0
M  END
>  <MODEL>
5

>  <REMARK>
 VINA RESULT:      -7.8      4.526      6.261
  Name = 
  4 active torsions:
  status: ('A' for Active; 'I' for Inactive)
    1  A    between atoms: C_1  and  O_10
    2  A    between atoms: C_1  and  C_19
    3  A    between atoms: C_16  and  C_27
    4  A    between atoms: C_27  and  N_32
                            x       y       z     vdW  Elec       q    Type
                         _______ _______ _______ _____ _____    ______ ____

>  <TORSDO>
F 4

$$$$
=
 OpenBabel11052421343D

 32 37  0  0  1  0  0  0  0  0999 V2000
  191.4190  171.2600  141.3240 C   0  0  2  0  0  3  0  0  0  0  0  0
  189.6370  174.8910  142.6360 C   0  0  0  0  0  0  0  0  0  0  0  0
  192.4310  174.9360  146.5910 C   0  0  0  0  0  3  0  0  0  0  0  0
  191.7880  176.1120  146.9800 C   0  0  0  0  0  3  0  0  0  0  0  0
  189.8180  173.1760  141.0170 C   0  0  2  0  0  3  0  0  0  0  0  0
  191.2270  173.1310  142.9420 N   0  0  0  0  0  0  0  0  0  0  0  0
  190.8810  170.2410  142.0880 F   0  0  0  0  0  0  0  0  0  0  0  0
  192.0620  174.3170  145.3960 C   0  0  0  0  0  3  0  0  0  0  0  0
  190.6570  174.2830  143.3940 C   0  0  2  0  0  3  0  0  0  0  0  0
  191.0560  174.8770  144.5990 C   0  0  0  0  0  0  0  0  0  0  0  0
  189.4200  176.6380  144.2340 C   0  0  0  0  0  0  0  0  0  0  0  0
  190.0660  171.5430  139.2380 C   0  0  0  0  0  0  0  0  0  0  0  0
  190.8360  172.5700  141.7670 C   0  0  0  0  0  0  0  0  0  0  0  0
  189.4040  172.5910  139.7390 C   0  0  0  0  0  3  0  0  0  0  0  0
  191.1580  171.0010  139.9380 O   0  0  0  0  0  0  0  0  0  0  0  0
  190.8120  176.6490  146.2000 N   0  0  0  0  0  0  0  0  0  0  0  0
  190.4310  176.0690  145.0270 C   0  0  0  0  0  0  0  0  0  0  0  0
  189.2420  174.3230  141.4670 N   0  0  0  0  0  0  0  0  0  0  0  0
  189.0530  176.0380  143.0700 N   0  0  0  0  0  0  0  0  0  0  0  0
  189.6920  170.9630  137.9390 C   0  0  0  0  0  0  0  0  0  0  0  0
  189.6930  169.6780  137.7650 N   0  0  0  0  0  2  0  0  0  0  0  0
  189.3360  171.8190  136.8920 O   0  0  0  0  0  0  0  0  0  0  0  0
  189.6550  171.5380  135.5370 C   0  0  0  0  0  1  0  0  0  0  0  0
  188.7500  177.9130  144.6390 C   0  0  0  0  0  2  0  0  0  0  0  0
  184.8090  177.9180  141.9200 C   0  0  0  0  0  1  0  0  0  0  0  0
  186.3660  178.3570  143.7890 C   0  0  2  0  0  3  0  0  0  0  0  0
  186.6020  177.1490  145.7870 C   0  0  0  0  0  0  0  0  0  0  0  0
  185.3000  177.2670  145.6350 C   0  0  0  0  0  3  0  0  0  0  0  0
  184.9910  178.0450  144.3840 C   0  0  2  0  0  3  0  0  0  0  0  0
  185.4720  177.3140  143.1400 C   0  0  1  0  0  3  0  0  0  0  0  0
  187.2430  176.4250  146.9180 C   0  0  0  0  0  1  0  0  0  0  0  0
  187.3070  177.7270  144.7020 N   0  0  0  0  0  0  0  0  0  0  0  0
  1 13  1  0  0  0  0
  1  7  1  1  0  0  0
  2 19  1  0  0  0  0
  3  4  1  0  0  0  0
  5 14  1  6  0  0  0
  5 18  1  0  0  0  0
  5 13  1  0  0  0  0
  6  9  1  0  0  0  0
  8  3  2  0  0  0  0
  9  2  1  1  0  0  0
  9 10  1  0  0  0  0
 10 17  2  0  0  0  0
 10  8  1  0  0  0  0
 11 24  1  0  0  0  0
 11 17  1  0  0  0  0
 12 14  2  0  0  0  0
 12 15  1  0  0  0  0
 13  6  2  0  0  0  0
 15  1  1  0  0  0  0
 16  4  2  0  0  0  0
 17 16  1  0  0  0  0
 18  2  2  0  0  0  0
 19 11  2  0  0  0  0
 20 12  1  0  0  0  0
 21 20  2  0  0  0  0
 22 20  1  0  0  0  0
 23 22  1  0  0  0  0
 24 32  1  0  0  0  0
 26 29  1  0  0  0  0
 26 32  1  1  0  0  0
 27 31  1  0  0  0  0
 28 27  2  0  0  0  0
 29 28  1  1  0  0  0
 30 25  1  6  0  0  0
 30 26  1  0  0  0  0
 30 29  1  0  0  0  0
 32 27  1  0  0  0  0
M  END
>  <MODEL>
6

>  <REMARK>
 VINA RESULT:      -7.5      4.107      5.738
  Name = 
  4 active torsions:
  status: ('A' for Active; 'I' for Inactive)
    1  A    between atoms: C_1  and  O_10
    2  A    between atoms: C_1  and  C_19
    3  A    between atoms: C_16  and  C_27
    4  A    between atoms: C_27  and  N_32
                            x       y       z     vdW  Elec       q    Type
                         _______ _______ _______ _____ _____    ______ ____

>  <TORSDO>
F 4

$$$$
=
 OpenBabel11052421343D

 32 37  0  0  1  0  0  0  0  0999 V2000
  187.3280  176.5970  143.2460 C   0  0  2  0  0  3  0  0  0  0  0  0
  190.6580  174.3340  144.6140 C   0  0  0  0  0  0  0  0  0  0  0  0
  191.7960  173.0950  140.0730 C   0  0  0  0  0  3  0  0  0  0  0  0
  192.8560  172.3480  140.5880 C   0  0  0  0  0  3  0  0  0  0  0  0
  188.8180  175.7440  145.0840 C   0  0  2  0  0  3  0  0  0  0  0  0
  189.3170  175.1750  142.8220 N   0  0  0  0  0  0  0  0  0  0  0  0
  186.3310  175.6980  142.9160 F   0  0  0  0  0  0  0  0  0  0  0  0
  190.9620  173.7930  140.9480 C   0  0  0  0  0  3  0  0  0  0  0  0
  190.3770  174.4270  143.2370 C   0  0  2  0  0  3  0  0  0  0  0  0
  191.1940  173.7410  142.3280 C   0  0  0  0  0  0  0  0  0  0  0  0
  192.5190  172.9150  144.1920 C   0  0  0  0  0  0  0  0  0  0  0  0
  187.0510  177.3170  145.6250 C   0  0  0  0  0  0  0  0  0  0  0  0
  188.5380  175.8410  143.7140 C   0  0  0  0  0  0  0  0  0  0  0  0
  187.9970  176.4760  146.0520 C   0  0  0  0  0  3  0  0  0  0  0  0
  186.8410  177.4990  144.2470 O   0  0  0  0  0  0  0  0  0  0  0  0
  193.0740  172.3020  141.9290 N   0  0  0  0  0  0  0  0  0  0  0  0
  192.2790  172.9740  142.8080 C   0  0  0  0  0  0  0  0  0  0  0  0
  189.8720  174.9940  145.5040 N   0  0  0  0  0  0  0  0  0  0  0  0
  191.7080  173.5900  145.0510 N   0  0  0  0  0  0  0  0  0  0  0  0
  186.2390  178.0910  146.5790 C   0  0  0  0  0  0  0  0  0  0  0  0
  186.3170  177.8590  147.8520 N   0  0  0  0  0  2  0  0  0  0  0  0
  185.3820  179.0810  146.0900 O   0  0  0  0  0  0  0  0  0  0  0  0
  184.0410  178.8070  145.7090 C   0  0  0  0  0  1  0  0  0  0  0  0
  193.6710  172.1350  144.7400 C   0  0  0  0  0  2  0  0  0  0  0  0
  194.5490  176.7010  145.8800 C   0  0  0  0  0  1  0  0  0  0  0  0
  194.7590  174.4590  144.8600 C   0  0  2  0  0  3  0  0  0  0  0  0
  196.0090  172.6310  145.6370 C   0  0  0  0  0  0  0  0  0  0  0  0
  196.8250  173.6560  145.7670 C   0  0  0  0  0  3  0  0  0  0  0  0
  196.1560  174.9160  145.2870 C   0  0  2  0  0  3  0  0  0  0  0  0
  194.9430  175.2620  146.1380 C   0  0  1  0  0  3  0  0  0  0  0  0
  196.3570  171.2380  146.0290 C   0  0  0  0  0  1  0  0  0  0  0  0
  194.7410  173.0340  145.1510 N   0  0  0  0  0  0  0  0  0  0  0  0
  1  7  1  1  0  0  0
  1 13  1  0  0  0  0
  1 15  1  0  0  0  0
  2 19  1  0  0  0  0
  2 18  2  0  0  0  0
  3  4  2  0  0  0  0
  3  8  1  0  0  0  0
  4 16  1  0  0  0  0
  5 18  1  0  0  0  0
  5 14  1  6  0  0  0
  6  9  1  0  0  0  0
  6 13  2  0  0  0  0
  8 10  2  0  0  0  0
  9 10  1  1  0  0  0
  9  2  1  0  0  0  0
 10 17  1  0  0  0  0
 11 24  1  0  0  0  0
 11 19  2  0  0  0  0
 12 14  2  0  0  0  0
 12 20  1  0  0  0  0
 13  5  1  0  0  0  0
 15 12  1  0  0  0  0
 16 17  2  0  0  0  0
 17 11  1  0  0  0  0
 20 21  2  0  0  0  0
 22 20  1  0  0  0  0
 23 22  1  0  0  0  0
 24 32  1  0  0  0  0
 26 32  1  1  0  0  0
 26 29  1  0  0  0  0
 26 30  1  0  0  0  0
 27 28  2  0  0  0  0
 27 31  1  0  0  0  0
 29 28  1  1  0  0  0
 29 30  1  0  0  0  0
 30 25  1  6  0  0  0
 32 27  1  0  0  0  0
M  END
>  <MODEL>
7

>  <REMARK>
 VINA RESULT:      -7.5      4.039      8.929
  Name = 
  4 active torsions:
  status: ('A' for Active; 'I' for Inactive)
    1  A    between atoms: C_1  and  O_10
    2  A    between atoms: C_1  and  C_19
    3  A    between atoms: C_16  and  C_27
    4  A    between atoms: C_27  and  N_32
                            x       y       z     vdW  Elec       q    Type
                         _______ _______ _______ _____ _____    ______ ____

>  <TORSDO>
F 4

$$$$
=
 OpenBabel11052421343D

 32 37  0  0  1  0  0  0  0  0999 V2000
  185.6020  178.1300  145.4750 C   0  0  2  0  0  3  0  0  0  0  0  0
  189.2580  177.3530  143.4480 C   0  0  0  0  0  0  0  0  0  0  0  0
  191.5170  176.5340  147.6520 C   0  0  0  0  0  3  0  0  0  0  0  0
  192.6920  176.3170  146.9300 C   0  0  0  0  0  3  0  0  0  0  0  0
  186.9560  177.8880  143.3690 C   0  0  2  0  0  3  0  0  0  0  0  0
  188.0010  177.4990  145.4770 N   0  0  0  0  0  0  0  0  0  0  0  0
  185.6980  179.3970  146.0210 F   0  0  0  0  0  0  0  0  0  0  0  0
  190.3430  176.8510  146.9700 C   0  0  0  0  0  3  0  0  0  0  0  0
  189.1890  177.2660  144.8530 C   0  0  2  0  0  3  0  0  0  0  0  0
  190.3490  176.9480  145.5730 C   0  0  0  0  0  0  0  0  0  0  0  0
  191.5750  176.8150  143.4770 C   0  0  0  0  0  0  0  0  0  0  0  0
  184.5650  178.2760  143.2030 C   0  0  0  0  0  0  0  0  0  0  0  0
  186.8830  177.7990  144.7670 C   0  0  0  0  0  0  0  0  0  0  0  0
  185.7510  178.1900  142.5920 C   0  0  0  0  0  3  0  0  0  0  0  0
  184.4740  178.0800  144.5920 O   0  0  0  0  0  0  0  0  0  0  0  0
  192.6890  176.4140  145.5740 N   0  0  0  0  0  0  0  0  0  0  0  0
  191.5580  176.7200  144.8790 C   0  0  0  0  0  0  0  0  0  0  0  0
  188.1400  177.6620  142.7410 N   0  0  0  0  0  0  0  0  0  0  0  0
  190.4330  177.1270  142.8050 N   0  0  0  0  0  0  0  0  0  0  0  0
  183.3360  178.5410  142.4380 C   0  0  0  0  0  0  0  0  0  0  0  0
  182.2840  179.0210  143.0240 N   0  0  0  0  0  2  0  0  0  0  0  0
  183.3210  178.2670  141.0670 O   0  0  0  0  0  0  0  0  0  0  0  0
  182.1280  177.9360  140.3700 C   0  0  0  0  0  1  0  0  0  0  0  0
  192.8280  176.5570  142.7020 C   0  0  0  0  0  2  0  0  0  0  0  0
  191.1720  173.3300  139.5770 C   0  0  0  0  0  1  0  0  0  0  0  0
  191.8500  174.4040  141.6980 C   0  0  2  0  0  3  0  0  0  0  0  0
  193.9170  174.2510  142.7990 C   0  0  0  0  0  0  0  0  0  0  0  0
  193.6470  173.0110  142.4470 C   0  0  0  0  0  3  0  0  0  0  0  0
  192.3240  172.9500  141.7330 C   0  0  2  0  0  3  0  0  0  0  0  0
  192.3550  173.7350  140.4310 C   0  0  1  0  0  3  0  0  0  0  0  0
  195.1560  174.6600  143.5130 C   0  0  0  0  0  1  0  0  0  0  0  0
  192.9190  175.1490  142.3440 N   0  0  0  0  0  0  0  0  0  0  0  0
  1  7  1  6  0  0  0
  4  3  2  0  0  0  0
  5 14  1  6  0  0  0
  5 13  1  0  0  0  0
  8  3  1  0  0  0  0
  9  2  1  1  0  0  0
  9  6  1  0  0  0  0
  9 10  1  0  0  0  0
 10  8  2  0  0  0  0
 11 17  1  0  0  0  0
 12 15  1  0  0  0  0
 13  1  1  0  0  0  0
 13  6  2  0  0  0  0
 14 12  2  0  0  0  0
 15  1  1  0  0  0  0
 16  4  1  0  0  0  0
 17 10  1  0  0  0  0
 17 16  2  0  0  0  0
 18  5  1  0  0  0  0
 18  2  2  0  0  0  0
 19  2  1  0  0  0  0
 19 11  2  0  0  0  0
 20 21  2  0  0  0  0
 20 12  1  0  0  0  0
 22 20  1  0  0  0  0
 23 22  1  0  0  0  0
 24 11  1  0  0  0  0
 26 29  1  0  0  0  0
 26 32  1  1  0  0  0
 27 31  1  0  0  0  0
 28 27  2  0  0  0  0
 29 28  1  1  0  0  0
 30 25  1  6  0  0  0
 30 26  1  0  0  0  0
 30 29  1  0  0  0  0
 32 24  1  0  0  0  0
 32 27  1  0  0  0  0
M  END
>  <MODEL>
8

>  <REMARK>
 VINA RESULT:      -7.5      4.028      8.316
  Name = 
  4 active torsions:
  status: ('A' for Active; 'I' for Inactive)
    1  A    between atoms: C_1  and  O_10
    2  A    between atoms: C_1  and  C_19
    3  A    between atoms: C_16  and  C_27
    4  A    between atoms: C_27  and  N_32
                            x       y       z     vdW  Elec       q    Type
                         _______ _______ _______ _____ _____    ______ ____

>  <TORSDO>
F 4

$$$$
=
 OpenBabel11052421343D

 32 37  0  0  1  0  0  0  0  0999 V2000
  191.5150  170.9770  141.5780 C   0  0  2  0  0  3  0  0  0  0  0  0
  189.8350  174.7580  142.5590 C   0  0  0  0  0  0  0  0  0  0  0  0
  192.3720  174.9160  146.6800 C   0  0  0  0  0  3  0  0  0  0  0  0
  191.7650  176.1410  146.9580 C   0  0  0  0  0  3  0  0  0  0  0  0
  190.0330  172.9420  141.0570 C   0  0  2  0  0  3  0  0  0  0  0  0
  191.3130  172.9500  143.0690 N   0  0  0  0  0  0  0  0  0  0  0  0
  190.8810  170.0320  142.3620 F   0  0  0  0  0  0  0  0  0  0  0  0
  192.0490  174.2430  145.5010 C   0  0  0  0  0  3  0  0  0  0  0  0
  190.7740  174.1510  143.4160 C   0  0  2  0  0  3  0  0  0  0  0  0
  191.1250  174.7990  144.6090 C   0  0  0  0  0  0  0  0  0  0  0  0
  189.6030  176.6070  144.0370 C   0  0  0  0  0  0  0  0  0  0  0  0
  190.3120  171.1950  139.3950 C   0  0  0  0  0  0  0  0  0  0  0  0
  190.9700  172.3370  141.9060 C   0  0  0  0  0  0  0  0  0  0  0  0
  189.6720  172.3000  139.7900 C   0  0  0  0  0  3  0  0  0  0  0  0
  191.3290  170.6480  140.1950 O   0  0  0  0  0  0  0  0  0  0  0  0
  190.8670  176.6730  146.0860 N   0  0  0  0  0  0  0  0  0  0  0  0
  190.5330  176.0420  144.9260 C   0  0  0  0  0  0  0  0  0  0  0  0
  189.4870  174.1390  141.4010 N   0  0  0  0  0  0  0  0  0  0  0  0
  189.2810  175.9550  142.8870 N   0  0  0  0  0  0  0  0  0  0  0  0
  189.9920  170.5540  138.1090 C   0  0  0  0  0  0  0  0  0  0  0  0
  189.9530  169.2620  138.0070 N   0  0  0  0  0  2  0  0  0  0  0  0
  189.7320  171.3620  136.9970 O   0  0  0  0  0  0  0  0  0  0  0  0
  190.7410  171.7180  136.0630 C   0  0  0  0  0  1  0  0  0  0  0  0
  188.9730  177.9330  144.3230 C   0  0  0  0  0  2  0  0  0  0  0  0
  185.9400  177.5210  148.0050 C   0  0  0  0  0  1  0  0  0  0  0  0
  187.0710  177.1140  145.8450 C   0  0  2  0  0  3  0  0  0  0  0  0
  186.4900  177.9480  143.7300 C   0  0  0  0  0  0  0  0  0  0  0  0
  185.3440  177.5610  144.2480 C   0  0  0  0  0  3  0  0  0  0  0  0
  185.5640  176.9810  145.6200 C   0  0  2  0  0  3  0  0  0  0  0  0
  186.1060  178.0240  146.5860 C   0  0  1  0  0  3  0  0  0  0  0  0
  186.6240  178.5760  142.3870 C   0  0  0  0  0  1  0  0  0  0  0  0
  187.5610  177.7630  144.6390 N   0  0  0  0  0  0  0  0  0  0  0  0
  1 13  1  0  0  0  0
  1  7  1  1  0  0  0
  2 19  1  0  0  0  0
  3  4  1  0  0  0  0
  5 14  1  6  0  0  0
  5 18  1  0  0  0  0
  5 13  1  0  0  0  0
  6  9  1  0  0  0  0
  8  3  2  0  0  0  0
  9  2  1  1  0  0  0
  9 10  1  0  0  0  0
 10 17  2  0  0  0  0
 10  8  1  0  0  0  0
 11 24  1  0  0  0  0
 11 17  1  0  0  0  0
 12 14  2  0  0  0  0
 12 15  1  0  0  0  0
 13  6  2  0  0  0  0
 15  1  1  0  0  0  0
 16  4  2  0  0  0  0
 17 16  1  0  0  0  0
 18  2  2  0  0  0  0
 19 11  2  0  0  0  0
 20 12  1  0  0  0  0
 21 20  2  0  0  0  0
 22 20  1  0  0  0  0
 23 22  1  0  0  0  0
 24 32  1  0  0  0  0
 26 32  1  6  0  0  0
 26 30  1  0  0  0  0
 27 28  2  0  0  0  0
 27 32  1  0  0  0  0
 29 28  1  6  0  0  0
 29 26  1  0  0  0  0
 29 30  1  0  0  0  0
 30 25  1  1  0  0  0
 31 27  1  0  0  0  0
M  END
>  <MODEL>
9

>  <REMARK>
 VINA RESULT:      -7.3      4.214      5.596
  Name = 
  4 active torsions:
  status: ('A' for Active; 'I' for Inactive)
    1  A    between atoms: C_1  and  O_10
    2  A    between atoms: C_1  and  C_19
    3  A    between atoms: C_16  and  C_27
    4  A    between atoms: C_27  and  N_32
                            x       y       z     vdW  Elec       q    Type
                         _______ _______ _______ _____ _____    ______ ____

>  <TORSDO>
F 4

$$$$
