=
 OpenBabel11052418093D

 28 32  0  0  1  0  0  0  0  0999 V2000
  188.5480  176.8430  143.2970 C   0  0  2  0  0  0  0  0  0  0  0  0
  188.2980  177.5800  141.9740 C   0  0  0  0  0  2  0  0  0  0  0  0
  185.8250  177.3570  142.2060 C   0  0  0  0  0  2  0  0  0  0  0  0
  190.9570  173.4510  139.5390 C   0  0  0  0  0  3  0  0  0  0  0  0
  192.3900  174.2850  145.4690 C   0  0  0  0  0  1  0  0  0  0  0  0
  186.9720  178.3330  141.9770 C   0  0  0  0  0  2  0  0  0  0  0  0
  187.3400  175.9390  143.6480 C   0  0  0  0  0  2  0  0  0  0  0  0
  190.6580  171.7290  141.2260 C   0  0  0  0  0  0  0  0  0  0  0  0
  191.0050  174.1230  141.9590 C   0  0  1  0  0  3  0  0  0  0  0  0
  185.9710  176.6360  143.5490 C   0  0  1  0  0  3  0  0  0  0  0  0
  190.6050  171.1480  138.8750 C   0  0  0  0  0  0  0  0  0  0  0  0
  190.8820  173.0790  140.8860 C   0  0  0  0  0  0  0  0  0  0  0  0
  190.5680  172.2880  143.6320 C   0  0  0  0  0  2  0  0  0  0  0  0
  190.5270  170.7700  140.2180 C   0  0  0  0  0  3  0  0  0  0  0  0
  190.4350  175.5070  144.4370 C   0  0  0  0  0  0  0  0  0  0  0  0
  189.6750  174.8530  142.1270 C   0  0  0  0  0  2  0  0  0  0  0  0
  190.6010  171.3370  142.5690 O   0  0  0  0  0  0  0  0  0  0  0  0
  189.1300  177.2070  145.7310 C   0  0  0  0  0  2  0  0  0  0  0  0
  191.4290  174.4640  144.3880 N   0  0  0  0  0  0  0  0  0  0  0  0
  190.1720  176.1340  145.5930 C   0  0  0  0  0  3  0  0  0  0  0  0
  190.4690  170.1700  137.8510 N   0  0  0  0  0  1  0  0  0  0  0  0
  190.8210  172.4870  138.5360 C   0  0  0  0  0  3  0  0  0  0  0  0
  191.4500  173.4920  143.2940 C   0  0  2  0  0  3  0  0  0  0  0  0
  188.8130  177.8800  144.3970 C   0  0  0  0  0  2  0  0  0  0  0  0
  189.8250  175.9910  143.1350 C   0  0  1  0  0  3  0  0  0  0  0  0
  185.6860  177.5570  144.7410 C   0  0  1  0  0  3  0  0  0  0  0  0
  184.5170  178.2860  144.5190 O   0  0  0  0  0  1  0  0  0  0  0  0
  185.5200  176.7440  146.0120 C   0  0  0  0  0  1  0  0  0  0  0  0
  1  2  1  6  0  0  0
  1  7  1  0  0  0  0
  1 24  1  0  0  0  0
  2  6  1  0  0  0  0
  3 10  1  0  0  0  0
  4 12  1  0  0  0  0
  6  3  1  0  0  0  0
  8 17  1  0  0  0  0
  9 16  1  1  0  0  0
  9 23  1  0  0  0  0
 10  7  1  0  0  0  0
 10 26  1  1  0  0  0
 11 14  2  0  0  0  0
 12  8  2  0  0  0  0
 12  9  1  0  0  0  0
 14  8  1  0  0  0  0
 15 20  2  0  0  0  0
 17 13  1  0  0  0  0
 19 15  1  0  0  0  0
 19  5  1  0  0  0  0
 20 18  1  0  0  0  0
 21 11  1  0  0  0  0
 22 11  1  0  0  0  0
 22  4  2  0  0  0  0
 23 13  1  1  0  0  0
 23 19  1  0  0  0  0
 24 18  1  0  0  0  0
 25 16  1  6  0  0  0
 25  1  1  0  0  0  0
 25 15  1  0  0  0  0
 26 28  1  1  0  0  0
 27 26  1  0  0  0  0
M  END
>  <MODEL>
1

>  <REMARK>
 VINA RESULT:      -7.5      0.000      0.000
  Name = 
  1 active torsions:
  status: ('A' for Active; 'I' for Inactive)
    1  A    between atoms: C_6  and  C_11
                            x       y       z     vdW  Elec       q    Type
                         _______ _______ _______ _____ _____    ______ ____

>  <TORSDO>
F 1

$$$$
=
 OpenBabel11052418093D

 28 32  0  0  1  0  0  0  0  0999 V2000
  193.3000  174.6080  143.2750 C   0  0  2  0  0  0  0  0  0  0  0  0
  192.9590  173.8310  141.9960 C   0  0  0  0  0  2  0  0  0  0  0  0
  194.3900  175.3190  140.5960 C   0  0  0  0  0  2  0  0  0  0  0  0
  187.7700  175.4010  142.8050 C   0  0  0  0  0  3  0  0  0  0  0  0
  191.2360  175.2720  147.8930 C   0  0  0  0  0  1  0  0  0  0  0  0
  194.0940  173.8750  140.9780 C   0  0  0  0  0  2  0  0  0  0  0  0
  193.7470  176.0500  142.9280 C   0  0  0  0  0  2  0  0  0  0  0  0
  188.1530  177.3580  144.1930 C   0  0  0  0  0  0  0  0  0  0  0  0
  189.6560  175.3430  144.4630 C   0  0  1  0  0  3  0  0  0  0  0  0
  194.8110  176.1390  141.8190 C   0  0  1  0  0  3  0  0  0  0  0  0
  186.3610  177.3570  142.5640 C   0  0  0  0  0  0  0  0  0  0  0  0
  188.4960  176.0440  143.8140 C   0  0  0  0  0  0  0  0  0  0  0  0
  190.0510  177.4600  145.7740 C   0  0  0  0  0  2  0  0  0  0  0  0
  187.0830  178.0050  143.5700 C   0  0  0  0  0  3  0  0  0  0  0  0
  192.2930  175.0160  145.6130 C   0  0  0  0  0  0  0  0  0  0  0  0
  190.8880  175.4440  143.5670 C   0  0  0  0  0  2  0  0  0  0  0  0
  188.8560  178.0060  145.2150 O   0  0  0  0  0  0  0  0  0  0  0  0
  194.7370  174.5400  145.3550 C   0  0  0  0  0  2  0  0  0  0  0  0
  191.1670  175.3740  146.4400 N   0  0  0  0  0  0  0  0  0  0  0  0
  193.5120  174.8780  146.1550 C   0  0  0  0  0  3  0  0  0  0  0  0
  185.2730  178.0190  141.9300 N   0  0  0  0  0  1  0  0  0  0  0  0
  186.7030  176.0560  142.1820 C   0  0  0  0  0  3  0  0  0  0  0  0
  189.9490  175.9350  145.8560 C   0  0  2  0  0  3  0  0  0  0  0  0
  194.3950  173.8480  144.0380 C   0  0  0  0  0  2  0  0  0  0  0  0
  192.0400  174.6380  144.1660 C   0  0  1  0  0  3  0  0  0  0  0  0
  196.2150  175.7740  142.3130 C   0  0  1  0  0  3  0  0  0  0  0  0
  197.1010  175.7000  141.2370 O   0  0  0  0  0  1  0  0  0  0  0  0
  196.7220  176.8200  143.2900 C   0  0  0  0  0  1  0  0  0  0  0  0
  1  2  1  6  0  0  0
  1 24  1  0  0  0  0
  1 25  1  0  0  0  0
  3  6  1  0  0  0  0
  3 10  1  0  0  0  0
  4 12  1  0  0  0  0
  6  2  1  0  0  0  0
  7  1  1  0  0  0  0
  8 17  1  0  0  0  0
  9 16  1  6  0  0  0
  9 23  1  0  0  0  0
 10 26  1  1  0  0  0
 10  7  1  0  0  0  0
 11 14  2  0  0  0  0
 12  8  2  0  0  0  0
 12  9  1  0  0  0  0
 14  8  1  0  0  0  0
 15 20  2  0  0  0  0
 15 19  1  0  0  0  0
 17 13  1  0  0  0  0
 18 20  1  0  0  0  0
 19  5  1  0  0  0  0
 21 11  1  0  0  0  0
 22 11  1  0  0  0  0
 22  4  2  0  0  0  0
 23 13  1  6  0  0  0
 23 19  1  0  0  0  0
 24 18  1  0  0  0  0
 25 16  1  6  0  0  0
 25 15  1  0  0  0  0
 26 28  1  1  0  0  0
 27 26  1  0  0  0  0
M  END
>  <MODEL>
2

>  <REMARK>
 VINA RESULT:      -7.1      3.341      7.058
  Name = 
  1 active torsions:
  status: ('A' for Active; 'I' for Inactive)
    1  A    between atoms: C_6  and  C_11
                            x       y       z     vdW  Elec       q    Type
                         _______ _______ _______ _____ _____    ______ ____

>  <TORSDO>
F 1

$$$$
=
 OpenBabel11052418093D

 28 32  0  0  1  0  0  0  0  0999 V2000
  191.4980  175.0880  145.1860 C   0  0  2  0  0  0  0  0  0  0  0  0
  190.3940  174.0220  145.2030 C   0  0  0  0  0  2  0  0  0  0  0  0
  189.5920  174.7510  147.4500 C   0  0  0  0  0  2  0  0  0  0  0  0
  194.4210  170.3060  145.0760 C   0  0  0  0  0  3  0  0  0  0  0  0
  195.9390  175.8150  142.7820 C   0  0  0  0  0  1  0  0  0  0  0  0
  189.1790  174.4660  146.0110 C   0  0  0  0  0  2  0  0  0  0  0  0
  191.8570  175.5180  146.6300 C   0  0  0  0  0  2  0  0  0  0  0  0
  196.2390  171.6510  145.9630 C   0  0  0  0  0  0  0  0  0  0  0  0
  194.5260  172.7370  144.4550 C   0  0  1  0  0  3  0  0  0  0  0  0
  190.6440  175.8630  147.5130 C   0  0  1  0  0  3  0  0  0  0  0  0
  196.0740  169.3040  146.5380 C   0  0  0  0  0  0  0  0  0  0  0  0
  195.0790  171.5370  145.1700 C   0  0  0  0  0  0  0  0  0  0  0  0
  196.3780  174.0790  145.5170 C   0  0  0  0  0  2  0  0  0  0  0  0
  196.7330  170.5320  146.6380 C   0  0  0  0  0  3  0  0  0  0  0  0
  193.7680  175.4990  144.0340 C   0  0  0  0  0  0  0  0  0  0  0  0
  193.3740  173.3350  145.2590 C   0  0  0  0  0  2  0  0  0  0  0  0
  196.9200  172.8710  146.0500 O   0  0  0  0  0  0  0  0  0  0  0  0
  192.1000  177.3550  144.2390 C   0  0  0  0  0  2  0  0  0  0  0  0
  195.0780  175.0300  143.6590 N   0  0  0  0  0  0  0  0  0  0  0  0
  193.4320  176.7840  143.8450 C   0  0  0  0  0  3  0  0  0  0  0  0
  196.5770  168.1670  147.2280 N   0  0  0  0  0  1  0  0  0  0  0  0
  194.9190  169.1910  145.7570 C   0  0  0  0  0  3  0  0  0  0  0  0
  195.6250  173.7920  144.2150 C   0  0  2  0  0  3  0  0  0  0  0  0
  191.0190  176.2810  144.3460 C   0  0  0  0  0  2  0  0  0  0  0  0
  192.7340  174.4850  144.4840 C   0  0  1  0  0  3  0  0  0  0  0  0
  190.0550  177.2430  147.2000 C   0  0  1  0  0  3  0  0  0  0  0  0
  188.6660  177.1610  147.0880 O   0  0  0  0  0  1  0  0  0  0  0  0
  190.3980  178.2280  148.3030 C   0  0  0  0  0  1  0  0  0  0  0  0
  1 24  1  6  0  0  0
  1  2  1  0  0  0  0
  1  7  1  0  0  0  0
  2  6  1  0  0  0  0
  3 10  1  0  0  0  0
  4 12  2  0  0  0  0
  4 22  1  0  0  0  0
  5 19  1  0  0  0  0
  6  3  1  0  0  0  0
  7 10  1  0  0  0  0
  8 17  1  0  0  0  0
  8 14  2  0  0  0  0
  9 12  1  0  0  0  0
  9 16  1  1  0  0  0
 10 26  1  6  0  0  0
 11 14  1  0  0  0  0
 11 21  1  0  0  0  0
 12  8  1  0  0  0  0
 13 17  1  0  0  0  0
 15 25  1  0  0  0  0
 18 24  1  0  0  0  0
 19 15  1  0  0  0  0
 19 23  1  0  0  0  0
 20 15  2  0  0  0  0
 20 18  1  0  0  0  0
 22 11  2  0  0  0  0
 23  9  1  0  0  0  0
 23 13  1  1  0  0  0
 25  1  1  0  0  0  0
 25 16  1  1  0  0  0
 26 28  1  1  0  0  0
 27 26  1  0  0  0  0
M  END
>  <MODEL>
3

>  <REMARK>
 VINA RESULT:      -6.6      4.500      6.136
  Name = 
  1 active torsions:
  status: ('A' for Active; 'I' for Inactive)
    1  A    between atoms: C_6  and  C_11
                            x       y       z     vdW  Elec       q    Type
                         _______ _______ _______ _____ _____    ______ ____

>  <TORSDO>
F 1

$$$$
=
 OpenBabel11052418093D

 28 32  0  0  1  0  0  0  0  0999 V2000
  194.5850  172.8340  144.8400 C   0  0  2  0  0  0  0  0  0  0  0  0
  194.0000  171.6630  145.6400 C   0  0  0  0  0  2  0  0  0  0  0  0
  193.5810  170.3340  143.5710 C   0  0  0  0  0  2  0  0  0  0  0  0
  190.0580  175.1250  147.2240 C   0  0  0  0  0  3  0  0  0  0  0  0
  195.3320  177.8300  145.5550 C   0  0  0  0  0  1  0  0  0  0  0  0
  194.2310  170.3230  144.9480 C   0  0  0  0  0  2  0  0  0  0  0  0
  194.0620  172.8080  143.3820 C   0  0  0  0  0  2  0  0  0  0  0  0
  190.1980  176.7480  145.4210 C   0  0  0  0  0  0  0  0  0  0  0  0
  192.3190  175.6690  146.2740 C   0  0  1  0  0  3  0  0  0  0  0  0
  194.1720  171.4380  142.6890 C   0  0  1  0  0  3  0  0  0  0  0  0
  188.0460  176.1690  146.3670 C   0  0  0  0  0  0  0  0  0  0  0  0
  190.8290  175.8590  146.3150 C   0  0  0  0  0  0  0  0  0  0  0  0
  192.3540  177.2730  144.3290 C   0  0  0  0  0  2  0  0  0  0  0  0
  188.8100  176.9020  145.4560 C   0  0  0  0  0  3  0  0  0  0  0  0
  194.9570  175.3700  145.1210 C   0  0  0  0  0  0  0  0  0  0  0  0
  192.6590  174.4070  145.4850 C   0  0  0  0  0  2  0  0  0  0  0  0
  190.9580  177.5040  144.5200 O   0  0  0  0  0  0  0  0  0  0  0  0
  196.7630  173.9270  144.1590 C   0  0  0  0  0  2  0  0  0  0  0  0
  194.4480  176.6740  145.4690 N   0  0  0  0  0  0  0  0  0  0  0  0
  196.1770  175.2450  144.5770 C   0  0  0  0  0  3  0  0  0  0  0  0
  186.6320  176.3260  146.3990 N   0  0  0  0  0  1  0  0  0  0  0  0
  188.6680  175.2820  147.2510 C   0  0  0  0  0  3  0  0  0  0  0  0
  193.0150  176.8990  145.6580 C   0  0  2  0  0  3  0  0  0  0  0  0
  196.1180  172.7500  144.8890 C   0  0  0  0  0  2  0  0  0  0  0  0
  194.1630  174.1460  145.5360 C   0  0  1  0  0  3  0  0  0  0  0  0
  195.5990  171.1180  142.2300 C   0  0  1  0  0  3  0  0  0  0  0  0
  195.6800  169.7960  141.7900 O   0  0  0  0  0  1  0  0  0  0  0  0
  196.0090  172.0370  141.0930 C   0  0  0  0  0  1  0  0  0  0  0  0
  1  7  1  6  0  0  0
  1 24  1  0  0  0  0
  1 25  1  0  0  0  0
  1  2  1  0  0  0  0
  3  6  1  0  0  0  0
  4 22  1  0  0  0  0
  6  2  1  0  0  0  0
  8 14  2  0  0  0  0
  8 12  1  0  0  0  0
  9 16  1  6  0  0  0
  9 12  1  0  0  0  0
 10 26  1  1  0  0  0
 10  7  1  0  0  0  0
 10  3  1  0  0  0  0
 11 21  1  0  0  0  0
 11 22  2  0  0  0  0
 12  4  2  0  0  0  0
 13 17  1  0  0  0  0
 14 11  1  0  0  0  0
 15 19  1  0  0  0  0
 15 25  1  0  0  0  0
 17  8  1  0  0  0  0
 18 20  1  0  0  0  0
 18 24  1  0  0  0  0
 19  5  1  0  0  0  0
 19 23  1  0  0  0  0
 20 15  2  0  0  0  0
 23 13  1  6  0  0  0
 23  9  1  0  0  0  0
 25 16  1  6  0  0  0
 26 28  1  6  0  0  0
 27 26  1  0  0  0  0
M  END
>  <MODEL>
4

>  <REMARK>
 VINA RESULT:      -6.5      4.152      8.346
  Name = 
  1 active torsions:
  status: ('A' for Active; 'I' for Inactive)
    1  A    between atoms: C_6  and  C_11
                            x       y       z     vdW  Elec       q    Type
                         _______ _______ _______ _____ _____    ______ ____

>  <TORSDO>
F 1

$$$$
=
 OpenBabel11052418093D

 28 32  0  0  1  0  0  0  0  0999 V2000
  191.4380  174.9820  145.2380 C   0  0  2  0  0  0  0  0  0  0  0  0
  192.0590  173.5880  145.0780 C   0  0  0  0  0  2  0  0  0  0  0  0
  194.2970  174.5420  144.5290 C   0  0  0  0  0  2  0  0  0  0  0  0
  188.5690  172.8610  140.9140 C   0  0  0  0  0  3  0  0  0  0  0  0
  186.7640  177.0210  145.0790 C   0  0  0  0  0  1  0  0  0  0  0  0
  193.5420  173.5750  145.4320 C   0  0  0  0  0  2  0  0  0  0  0  0
  192.2570  176.0330  144.4480 C   0  0  0  0  0  2  0  0  0  0  0  0
  188.1190  175.1830  140.3550 C   0  0  0  0  0  0  0  0  0  0  0  0
  188.4410  174.5400  142.7780 C   0  0  1  0  0  3  0  0  0  0  0  0
  193.7760  175.9730  144.6930 C   0  0  1  0  0  3  0  0  0  0  0  0
  188.2710  173.5190  138.6010 C   0  0  0  0  0  0  0  0  0  0  0  0
  188.3640  174.1840  141.3200 C   0  0  0  0  0  0  0  0  0  0  0  0
  188.0890  176.9400  142.0930 C   0  0  0  0  0  2  0  0  0  0  0  0
  188.0690  174.8420  139.0000 C   0  0  0  0  0  3  0  0  0  0  0  0
  189.1090  176.0830  145.1350 C   0  0  0  0  0  0  0  0  0  0  0  0
  189.9010  174.6760  143.2020 C   0  0  0  0  0  2  0  0  0  0  0  0
  187.8920  176.5070  140.7470 O   0  0  0  0  0  0  0  0  0  0  0  0
  190.7090  176.6810  146.9640 C   0  0  0  0  0  2  0  0  0  0  0  0
  187.8550  176.2860  144.4510 N   0  0  0  0  0  0  0  0  0  0  0  0
  189.4120  176.8120  146.2190 C   0  0  0  0  0  3  0  0  0  0  0  0
  188.2210  173.1760  137.2210 N   0  0  0  0  0  1  0  0  0  0  0  0
  188.5200  172.5290  139.5560 C   0  0  0  0  0  3  0  0  0  0  0  0
  187.6670  175.8410  143.0710 C   0  0  2  0  0  3  0  0  0  0  0  0
  191.3750  175.3260  146.7330 C   0  0  0  0  0  2  0  0  0  0  0  0
  189.9900  174.9240  144.7070 C   0  0  1  0  0  3  0  0  0  0  0  0
  194.1860  176.5940  146.0330 C   0  0  1  0  0  3  0  0  0  0  0  0
  194.9900  175.7070  146.7510 O   0  0  0  0  0  1  0  0  0  0  0  0
  194.9600  177.8800  145.8070 C   0  0  0  0  0  1  0  0  0  0  0  0
  1  7  1  6  0  0  0
  1 24  1  0  0  0  0
  2  1  1  0  0  0  0
  2  6  1  0  0  0  0
  3 10  1  0  0  0  0
  3  6  1  0  0  0  0
  4 12  1  0  0  0  0
  7 10  1  0  0  0  0
  8 17  1  0  0  0  0
  8 12  2  0  0  0  0
  9 23  1  0  0  0  0
  9 16  1  6  0  0  0
 10 26  1  1  0  0  0
 11 14  2  0  0  0  0
 11 22  1  0  0  0  0
 12  9  1  0  0  0  0
 14  8  1  0  0  0  0
 15 20  2  0  0  0  0
 17 13  1  0  0  0  0
 19  5  1  0  0  0  0
 19 15  1  0  0  0  0
 20 18  1  0  0  0  0
 21 11  1  0  0  0  0
 22  4  2  0  0  0  0
 23 13  1  6  0  0  0
 23 19  1  0  0  0  0
 24 18  1  0  0  0  0
 25 16  1  6  0  0  0
 25 15  1  0  0  0  0
 25  1  1  0  0  0  0
 26 28  1  6  0  0  0
 26 27  1  0  0  0  0
M  END
>  <MODEL>
5

>  <REMARK>
 VINA RESULT:      -6.4      2.763      5.558
  Name = 
  1 active torsions:
  status: ('A' for Active; 'I' for Inactive)
    1  A    between atoms: C_6  and  C_11
                            x       y       z     vdW  Elec       q    Type
                         _______ _______ _______ _____ _____    ______ ____

>  <TORSDO>
F 1

$$$$
=
 OpenBabel11052418093D

 28 32  0  0  1  0  0  0  0  0999 V2000
  191.5390  176.3590  144.6710 C   0  0  2  0  0  0  0  0  0  0  0  0
  190.9460  177.3930  143.7040 C   0  0  0  0  0  2  0  0  0  0  0  0
  188.6500  176.4510  143.9540 C   0  0  0  0  0  2  0  0  0  0  0  0
  194.1510  175.1680  139.8550 C   0  0  0  0  0  3  0  0  0  0  0  0
  196.1350  174.3610  145.6280 C   0  0  0  0  0  1  0  0  0  0  0  0
  189.4920  177.7180  144.0320 C   0  0  0  0  0  2  0  0  0  0  0  0
  190.6380  175.1000  144.7350 C   0  0  0  0  0  2  0  0  0  0  0  0
  194.4990  172.9740  140.8390 C   0  0  0  0  0  0  0  0  0  0  0  0
  194.3660  174.9950  142.3520 C   0  0  1  0  0  3  0  0  0  0  0  0
  189.1430  175.3960  144.9490 C   0  0  1  0  0  3  0  0  0  0  0  0
  194.2680  173.2050  138.4390 C   0  0  0  0  0  0  0  0  0  0  0  0
  194.3490  174.3680  140.9860 C   0  0  0  0  0  0  0  0  0  0  0  0
  194.6050  172.6670  143.2900 C   0  0  0  0  0  2  0  0  0  0  0  0
  194.4630  172.4010  139.5650 C   0  0  0  0  0  3  0  0  0  0  0  0
  193.8260  175.2820  145.1810 C   0  0  0  0  0  0  0  0  0  0  0  0
  192.9360  175.2440  142.8250 C   0  0  0  0  0  2  0  0  0  0  0  0
  194.7180  172.1630  141.9590 O   0  0  0  0  0  0  0  0  0  0  0  0
  192.3430  176.0450  147.0480 C   0  0  0  0  0  2  0  0  0  0  0  0
  195.0220  174.6200  144.7230 N   0  0  0  0  0  0  0  0  0  0  0  0
  193.5800  175.3990  146.4950 C   0  0  0  0  0  3  0  0  0  0  0  0
  194.2290  172.6190  137.1440 N   0  0  0  0  0  1  0  0  0  0  0  0
  194.1130  174.5880  138.5830 C   0  0  0  0  0  3  0  0  0  0  0  0
  195.1240  174.1050  143.3580 C   0  0  2  0  0  3  0  0  0  0  0  0
  191.6980  177.0080  146.0530 C   0  0  0  0  0  2  0  0  0  0  0  0
  192.9470  175.9830  144.1620 C   0  0  1  0  0  3  0  0  0  0  0  0
  188.8130  175.7630  146.4000 C   0  0  1  0  0  3  0  0  0  0  0  0
  187.4750  176.1460  146.5090 O   0  0  0  0  0  1  0  0  0  0  0  0
  189.0550  174.5760  147.3160 C   0  0  0  0  0  1  0  0  0  0  0  0
  1  2  1  6  0  0  0
  1  7  1  0  0  0  0
  1 24  1  0  0  0  0
  2  6  1  0  0  0  0
  3  6  1  0  0  0  0
  3 10  1  0  0  0  0
  4 12  1  0  0  0  0
  7 10  1  0  0  0  0
  8 12  2  0  0  0  0
  8 17  1  0  0  0  0
  9 16  1  1  0  0  0
  9 23  1  0  0  0  0
 10 26  1  1  0  0  0
 11 22  1  0  0  0  0
 11 14  2  0  0  0  0
 12  9  1  0  0  0  0
 14  8  1  0  0  0  0
 15 20  2  0  0  0  0
 17 13  1  0  0  0  0
 19 15  1  0  0  0  0
 19  5  1  0  0  0  0
 20 18  1  0  0  0  0
 21 11  1  0  0  0  0
 22  4  2  0  0  0  0
 23 13  1  1  0  0  0
 23 19  1  0  0  0  0
 24 18  1  0  0  0  0
 25 16  1  6  0  0  0
 25  1  1  0  0  0  0
 25 15  1  0  0  0  0
 26 27  1  0  0  0  0
 26 28  1  1  0  0  0
M  END
>  <MODEL>
6

>  <REMARK>
 VINA RESULT:      -6.4      3.026      3.770
  Name = 
  1 active torsions:
  status: ('A' for Active; 'I' for Inactive)
    1  A    between atoms: C_6  and  C_11
                            x       y       z     vdW  Elec       q    Type
                         _______ _______ _______ _____ _____    ______ ____

>  <TORSDO>
F 1

$$$$
=
 OpenBabel11052418093D

 28 32  0  0  1  0  0  0  0  0999 V2000
  192.9050  175.0010  143.1140 C   0  0  2  0  0  0  0  0  0  0  0  0
  193.3200  176.4160  143.5420 C   0  0  0  0  0  2  0  0  0  0  0  0
  193.8190  175.6690  145.8690 C   0  0  0  0  0  2  0  0  0  0  0  0
  188.1610  177.9160  142.4560 C   0  0  0  0  0  3  0  0  0  0  0  0
  190.0690  172.9050  139.4270 C   0  0  0  0  0  1  0  0  0  0  0  0
  194.3690  176.3970  144.6490 C   0  0  0  0  0  2  0  0  0  0  0  0
  192.4680  174.1700  144.3460 C   0  0  0  0  0  2  0  0  0  0  0  0
  187.0640  175.7560  142.6490 C   0  0  0  0  0  0  0  0  0  0  0  0
  189.3880  175.8720  141.6630 C   0  0  1  0  0  3  0  0  0  0  0  0
  193.4510  174.2220  145.5300 C   0  0  1  0  0  3  0  0  0  0  0  0
  185.9390  177.7610  143.4110 C   0  0  0  0  0  0  0  0  0  0  0  0
  188.1760  176.5300  142.2580 C   0  0  0  0  0  0  0  0  0  0  0  0
  188.2200  173.6660  142.0130 C   0  0  0  0  0  2  0  0  0  0  0  0
  185.9490  176.3780  143.2190 C   0  0  0  0  0  3  0  0  0  0  0  0
  191.4570  173.8800  141.3000 C   0  0  0  0  0  0  0  0  0  0  0  0
  190.4590  175.6920  142.7360 C   0  0  0  0  0  2  0  0  0  0  0  0
  187.0560  174.3720  142.4390 O   0  0  0  0  0  0  0  0  0  0  0  0
  193.7090  172.9500  141.8720 C   0  0  0  0  0  2  0  0  0  0  0  0
  190.2120  173.7900  140.5770 N   0  0  0  0  0  0  0  0  0  0  0  0
  192.4030  172.9440  141.1320 C   0  0  0  0  0  3  0  0  0  0  0  0
  184.8040  178.3910  143.9930 N   0  0  0  0  0  1  0  0  0  0  0  0
  187.0430  178.5300  143.0300 C   0  0  0  0  0  3  0  0  0  0  0  0
  189.0240  174.5160  141.0260 C   0  0  2  0  0  3  0  0  0  0  0  0
  194.0810  174.3430  142.3790 C   0  0  0  0  0  2  0  0  0  0  0  0
  191.7360  175.1290  142.1140 C   0  0  1  0  0  3  0  0  0  0  0  0
  194.6860  173.3390  145.3160 C   0  0  1  0  0  3  0  0  0  0  0  0
  195.7310  173.7640  146.1380 O   0  0  0  0  0  1  0  0  0  0  0  0
  194.3670  171.8920  145.6410 C   0  0  0  0  0  1  0  0  0  0  0  0
  1 24  1  6  0  0  0
  1  2  1  0  0  0  0
  1  7  1  0  0  0  0
  2  6  1  0  0  0  0
  4 22  1  0  0  0  0
  5 19  1  0  0  0  0
  6  3  1  0  0  0  0
  7 10  1  0  0  0  0
  8 14  2  0  0  0  0
  9 12  1  0  0  0  0
  9 16  1  1  0  0  0
 10 26  1  6  0  0  0
 10  3  1  0  0  0  0
 11 21  1  0  0  0  0
 12  4  2  0  0  0  0
 12  8  1  0  0  0  0
 13 17  1  0  0  0  0
 14 11  1  0  0  0  0
 15 25  1  0  0  0  0
 17  8  1  0  0  0  0
 18 24  1  0  0  0  0
 19 23  1  0  0  0  0
 19 15  1  0  0  0  0
 20 15  2  0  0  0  0
 20 18  1  0  0  0  0
 22 11  2  0  0  0  0
 23  9  1  0  0  0  0
 23 13  1  1  0  0  0
 25 16  1  1  0  0  0
 25  1  1  0  0  0  0
 26 28  1  1  0  0  0
 26 27  1  0  0  0  0
M  END
>  <MODEL>
7

>  <REMARK>
 VINA RESULT:      -6.3      2.815      6.946
  Name = 
  1 active torsions:
  status: ('A' for Active; 'I' for Inactive)
    1  A    between atoms: C_6  and  C_11
                            x       y       z     vdW  Elec       q    Type
                         _______ _______ _______ _____ _____    ______ ____

>  <TORSDO>
F 1

$$$$
=
 OpenBabel11052418093D

 28 32  0  0  1  0  0  0  0  0999 V2000
  189.2610  175.1070  143.7340 C   0  0  2  0  0  0  0  0  0  0  0  0
  189.2120  174.8340  145.2440 C   0  0  0  0  0  2  0  0  0  0  0  0
  188.8570  177.2460  145.7660 C   0  0  0  0  0  2  0  0  0  0  0  0
  194.3970  173.1190  144.7800 C   0  0  0  0  0  3  0  0  0  0  0  0
  191.1080  172.7840  139.5850 C   0  0  0  0  0  1  0  0  0  0  0  0
  188.3270  175.8340  145.9800 C   0  0  0  0  0  2  0  0  0  0  0  0
  189.6590  176.5790  143.4640 C   0  0  0  0  0  2  0  0  0  0  0  0
  195.0250  174.2810  142.7410 C   0  0  0  0  0  0  0  0  0  0  0  0
  192.6750  173.3780  142.9700 C   0  0  1  0  0  3  0  0  0  0  0  0
  188.8640  177.6150  144.2800 C   0  0  1  0  0  3  0  0  0  0  0  0
  196.6350  174.0120  144.5300 C   0  0  0  0  0  0  0  0  0  0  0  0
  194.0640  173.5870  143.5040 C   0  0  0  0  0  0  0  0  0  0  0  0
  193.3810  174.7000  140.9420 C   0  0  0  0  0  2  0  0  0  0  0  0
  196.3080  174.4840  143.2560 C   0  0  0  0  0  3  0  0  0  0  0  0
  190.2020  174.0050  141.6020 C   0  0  0  0  0  0  0  0  0  0  0  0
  191.7310  174.4240  143.5580 C   0  0  0  0  0  2  0  0  0  0  0  0
  194.7130  174.7370  141.4550 O   0  0  0  0  0  0  0  0  0  0  0  0
  187.8910  174.9680  141.6120 C   0  0  0  0  0  2  0  0  0  0  0  0
  191.3000  173.3930  140.8960 N   0  0  0  0  0  0  0  0  0  0  0  0
  189.0650  174.3020  140.9550 C   0  0  0  0  0  3  0  0  0  0  0  0
  197.9410  174.2230  145.0530 N   0  0  0  0  0  1  0  0  0  0  0  0
  195.6820  173.3290  145.2910 C   0  0  0  0  0  3  0  0  0  0  0  0
  192.6610  173.4410  141.4290 C   0  0  2  0  0  3  0  0  0  0  0  0
  187.8900  174.7740  143.1270 C   0  0  0  0  0  2  0  0  0  0  0  0
  190.2970  174.1490  143.1090 C   0  0  1  0  0  3  0  0  0  0  0  0
  187.4530  177.8480  143.7280 C   0  0  1  0  0  3  0  0  0  0  0  0
  186.7260  178.6690  144.5930 O   0  0  0  0  0  1  0  0  0  0  0  0
  187.5190  178.5120  142.3650 C   0  0  0  0  0  1  0  0  0  0  0  0
  1 24  1  6  0  0  0
  1  2  1  0  0  0  0
  2  6  1  0  0  0  0
  3  6  1  0  0  0  0
  4 22  1  0  0  0  0
  5 19  1  0  0  0  0
  7  1  1  0  0  0  0
  7 10  1  0  0  0  0
  8 14  2  0  0  0  0
  8 12  1  0  0  0  0
  9 12  1  0  0  0  0
  9 16  1  1  0  0  0
 10 26  1  6  0  0  0
 10  3  1  0  0  0  0
 11 21  1  0  0  0  0
 11 22  2  0  0  0  0
 12  4  2  0  0  0  0
 13 17  1  0  0  0  0
 14 11  1  0  0  0  0
 15 25  1  0  0  0  0
 17  8  1  0  0  0  0
 18 24  1  0  0  0  0
 19 23  1  0  0  0  0
 19 15  1  0  0  0  0
 20 15  2  0  0  0  0
 20 18  1  0  0  0  0
 23 13  1  1  0  0  0
 23  9  1  0  0  0  0
 25 16  1  6  0  0  0
 25  1  1  0  0  0  0
 26 28  1  6  0  0  0
 26 27  1  0  0  0  0
M  END
>  <MODEL>
8

>  <REMARK>
 VINA RESULT:      -6.3      2.687      5.070
  Name = 
  1 active torsions:
  status: ('A' for Active; 'I' for Inactive)
    1  A    between atoms: C_6  and  C_11
                            x       y       z     vdW  Elec       q    Type
                         _______ _______ _______ _____ _____    ______ ____

>  <TORSDO>
F 1

$$$$
=
 OpenBabel11052418093D

 28 32  0  0  1  0  0  0  0  0999 V2000
  191.3260  172.4850  143.3770 C   0  0  2  0  0  0  0  0  0  0  0  0
  190.1790  171.5430  142.9860 C   0  0  0  0  0  2  0  0  0  0  0  0
  191.1870  171.0910  140.7490 C   0  0  0  0  0  2  0  0  0  0  0  0
  186.8800  175.9000  143.4000 C   0  0  0  0  0  3  0  0  0  0  0  0
  192.0580  176.2780  146.7100 C   0  0  0  0  0  1  0  0  0  0  0  0
  190.6350  170.4550  142.0190 C   0  0  0  0  0  2  0  0  0  0  0  0
  192.0160  173.0520  142.1120 C   0  0  0  0  0  2  0  0  0  0  0  0
  188.5140  177.6730  143.1010 C   0  0  0  0  0  0  0  0  0  0  0  0
  189.1770  175.5890  144.3670 C   0  0  1  0  0  3  0  0  0  0  0  0
  192.3870  171.9920  141.0590 C   0  0  1  0  0  3  0  0  0  0  0  0
  186.2870  177.9070  142.1780 C   0  0  0  0  0  0  0  0  0  0  0  0
  188.1660  176.4080  143.6170 C   0  0  0  0  0  0  0  0  0  0  0  0
  190.8390  177.4280  143.9040 C   0  0  0  0  0  2  0  0  0  0  0  0
  187.5700  178.4180  142.3880 C   0  0  0  0  0  3  0  0  0  0  0  0
  191.7520  174.4330  145.0120 C   0  0  0  0  0  0  0  0  0  0  0  0
  189.7890  174.5430  143.4390 C   0  0  0  0  0  2  0  0  0  0  0  0
  189.7900  178.2040  143.3260 O   0  0  0  0  0  0  0  0  0  0  0  0
  193.4540  172.6180  144.7380 C   0  0  0  0  0  2  0  0  0  0  0  0
  191.3500  175.6980  145.5750 N   0  0  0  0  0  0  0  0  0  0  0  0
  192.9520  173.9130  145.3090 C   0  0  0  0  0  3  0  0  0  0  0  0
  185.3290  178.6660  141.4500 N   0  0  0  0  0  1  0  0  0  0  0  0
  185.9410  176.6500  142.6830 C   0  0  0  0  0  3  0  0  0  0  0  0
  190.2760  176.4860  144.9720 C   0  0  2  0  0  3  0  0  0  0  0  0
  192.3170  171.7160  144.2630 C   0  0  0  0  0  2  0  0  0  0  0  0
  190.7330  173.6330  144.2220 C   0  0  1  0  0  3  0  0  0  0  0  0
  193.6370  171.1900  141.4380 C   0  0  1  0  0  3  0  0  0  0  0  0
  193.8150  170.1270  140.5510 O   0  0  0  0  0  1  0  0  0  0  0  0
  194.8690  172.0760  141.3910 C   0  0  0  0  0  1  0  0  0  0  0  0
  1  7  1  6  0  0  0
  1 25  1  0  0  0  0
  1 24  1  0  0  0  0
  2  1  1  0  0  0  0
  3 10  1  0  0  0  0
  3  6  1  0  0  0  0
  4 12  1  0  0  0  0
  6  2  1  0  0  0  0
  8 17  1  0  0  0  0
  8 12  2  0  0  0  0
  9 16  1  6  0  0  0
  9 23  1  0  0  0  0
 10 26  1  1  0  0  0
 10  7  1  0  0  0  0
 11 14  2  0  0  0  0
 11 22  1  0  0  0  0
 12  9  1  0  0  0  0
 14  8  1  0  0  0  0
 15 20  2  0  0  0  0
 15 19  1  0  0  0  0
 17 13  1  0  0  0  0
 18 20  1  0  0  0  0
 19  5  1  0  0  0  0
 21 11  1  0  0  0  0
 22  4  2  0  0  0  0
 23 13  1  6  0  0  0
 23 19  1  0  0  0  0
 24 18  1  0  0  0  0
 25 16  1  6  0  0  0
 25 15  1  0  0  0  0
 26 28  1  6  0  0  0
 27 26  1  0  0  0  0
M  END
>  <MODEL>
9

>  <REMARK>
 VINA RESULT:      -6.2      2.629      7.013
  Name = 
  1 active torsions:
  status: ('A' for Active; 'I' for Inactive)
    1  A    between atoms: C_6  and  C_11
                            x       y       z     vdW  Elec       q    Type
                         _______ _______ _______ _____ _____    ______ ____

>  <TORSDO>
F 1

$$$$
