=
 OpenBabel11052417263D

 25 28  0  0  1  0  0  0  0  0999 V2000
  187.2050  177.2150  144.4480 C   0  0  0  0  0  0  0  0  0  0  0  0
  188.4580  176.6810  144.1540 C   0  0  0  0  0  0  0  0  0  0  0  0
  186.2460  176.1570  142.5140 C   0  0  0  0  0  3  0  0  0  0  0  0
  186.7760  178.1610  145.5090 C   0  0  1  0  0  3  0  0  0  0  0  0
  191.8710  176.7140  145.5020 N   0  0  0  0  0  2  0  0  0  0  0  0
  184.7240  178.4990  147.4610 N   0  0  0  0  0  0  0  0  0  0  0  0
  187.4670  175.6150  142.2280 N   0  0  0  0  0  0  0  0  0  0  0  0
  185.3110  178.2540  145.1740 C   0  0  2  0  0  3  0  0  0  0  0  0
  184.3700  178.6640  146.2160 C   0  0  0  0  0  3  0  0  0  0  0  0
  189.8170  175.3010  142.7000 C   0  0  0  0  0  0  0  0  0  0  0  0
  190.0030  174.4210  141.5110 C   0  0  0  0  0  1  0  0  0  0  0  0
  193.2270  176.2720  145.3540 C   0  0  0  0  0  0  0  0  0  0  0  0
  189.5440  176.9350  144.9290 N   0  0  0  0  0  0  0  0  0  0  0  0
  185.9770  177.8810  147.8280 C   0  0  0  0  0  3  0  0  0  0  0  0
  186.1300  176.9800  143.6320 C   0  0  0  0  0  0  0  0  0  0  0  0
  184.9480  177.5940  144.1180 N   0  0  0  0  0  2  0  0  0  0  0  0
  190.9150  175.5800  143.5180 C   0  0  0  0  0  3  0  0  0  0  0  0
  186.9380  177.6510  146.9170 C   0  0  0  0  0  3  0  0  0  0  0  0
  190.7650  176.4090  144.6410 C   0  0  0  0  0  0  0  0  0  0  0  0
  188.5670  175.8550  143.0100 C   0  0  0  0  0  0  0  0  0  0  0  0
  193.5780  175.5800  144.3600 O   0  0  0  0  0  0  0  0  0  0  0  0
  195.0660  175.6270  146.6830 F   0  0  0  0  0  0  0  0  0  0  0  0
  194.2520  176.6960  146.3570 C   0  0  0  0  0  0  0  0  0  0  0  0
  193.6160  177.1480  147.4970 F   0  0  0  0  0  0  0  0  0  0  0  0
  195.0340  177.7140  145.8390 F   0  0  0  0  0  0  0  0  0  0  0  0
  1  4  1  0  0  0  0
  2  1  1  0  0  0  0
  2 13  1  0  0  0  0
  3 15  1  0  0  0  0
  4 18  1  1  0  0  0
  6 14  1  0  0  0  0
  7  3  2  0  0  0  0
  7 20  1  0  0  0  0
  8  4  1  0  0  0  0
  8  9  1  1  0  0  0
  9  6  2  0  0  0  0
 10 20  1  0  0  0  0
 10 17  2  0  0  0  0
 11 10  1  0  0  0  0
 12  5  1  0  0  0  0
 12 23  1  0  0  0  0
 15 16  1  0  0  0  0
 15  1  2  0  0  0  0
 16  8  1  0  0  0  0
 17 19  1  0  0  0  0
 18 14  2  0  0  0  0
 19 13  2  0  0  0  0
 19  5  1  0  0  0  0
 20  2  2  0  0  0  0
 21 12  2  0  0  0  0
 23 22  1  0  0  0  0
 23 24  1  0  0  0  0
 25 23  1  0  0  0  0
M  END
>  <MODEL>
1

>  <REMARK>
 VINA RESULT:      -8.3      0.000      0.000
  Name = 
  1 active torsions:
  status: ('A' for Active; 'I' for Inactive)
    1  A    between atoms: C_7  and  C_15
                            x       y       z     vdW  Elec       q    Type
                         _______ _______ _______ _____ _____    ______ ____

>  <TORSDO>
F 1

$$$$
=
 OpenBabel11052417263D

 25 28  0  0  1  0  0  0  0  0999 V2000
  187.5180  176.8140  145.3780 C   0  0  0  0  0  0  0  0  0  0  0  0
  188.4180  176.2560  144.4730 C   0  0  0  0  0  0  0  0  0  0  0  0
  189.3040  177.3660  146.8890 C   0  0  0  0  0  3  0  0  0  0  0  0
  186.0330  176.8760  145.3620 C   0  0  1  0  0  3  0  0  0  0  0  0
  188.3860  174.5940  141.2020 N   0  0  0  0  0  2  0  0  0  0  0  0
  183.9010  178.7250  145.7760 N   0  0  0  0  0  0  0  0  0  0  0  0
  190.1950  176.8370  145.9990 N   0  0  0  0  0  0  0  0  0  0  0  0
  185.8070  177.6150  146.6540 C   0  0  2  0  0  3  0  0  0  0  0  0
  184.5570  178.3500  146.8400 C   0  0  0  0  0  3  0  0  0  0  0  0
  190.7150  175.7360  143.9110 C   0  0  0  0  0  0  0  0  0  0  0  0
  192.1770  175.7350  144.2030 C   0  0  0  0  0  1  0  0  0  0  0  0
  189.1520  173.9670  140.1630 C   0  0  0  0  0  0  0  0  0  0  0  0
  188.0050  175.7020  143.3040 N   0  0  0  0  0  0  0  0  0  0  0  0
  184.4000  178.4820  144.4410 C   0  0  0  0  0  3  0  0  0  0  0  0
  187.9490  177.3330  146.5710 C   0  0  0  0  0  0  0  0  0  0  0  0
  186.8810  177.8680  147.3360 N   0  0  0  0  0  2  0  0  0  0  0  0
  190.2600  175.1750  142.7160 C   0  0  0  0  0  3  0  0  0  0  0  0
  185.4450  177.6650  144.2230 C   0  0  0  0  0  3  0  0  0  0  0  0
  188.8870  175.1610  142.4200 C   0  0  0  0  0  0  0  0  0  0  0  0
  189.7920  176.2850  144.8110 C   0  0  0  0  0  0  0  0  0  0  0  0
  190.3980  173.8130  140.2810 O   0  0  0  0  0  0  0  0  0  0  0  0
  187.6960  174.4230  138.3650 F   0  0  0  0  0  0  0  0  0  0  0  0
  188.4520  173.4280  138.9570 C   0  0  0  0  0  0  0  0  0  0  0  0
  187.6220  172.3910  139.3360 F   0  0  0  0  0  0  0  0  0  0  0  0
  189.3750  172.9590  138.0390 F   0  0  0  0  0  0  0  0  0  0  0  0
  1 15  1  0  0  0  0
  2 20  1  0  0  0  0
  2  1  2  0  0  0  0
  4 18  1  6  0  0  0
  4  1  1  0  0  0  0
  4  8  1  0  0  0  0
  5 19  1  0  0  0  0
  6  9  2  0  0  0  0
  7  3  1  0  0  0  0
  8  9  1  6  0  0  0
  8 16  1  0  0  0  0
 10 11  1  0  0  0  0
 10 20  1  0  0  0  0
 12 21  2  0  0  0  0
 12  5  1  0  0  0  0
 13  2  1  0  0  0  0
 14  6  1  0  0  0  0
 15  3  2  0  0  0  0
 15 16  1  0  0  0  0
 17 10  2  0  0  0  0
 18 14  2  0  0  0  0
 19 17  1  0  0  0  0
 19 13  2  0  0  0  0
 20  7  2  0  0  0  0
 22 23  1  0  0  0  0
 23 24  1  0  0  0  0
 23 12  1  0  0  0  0
 25 23  1  0  0  0  0
M  END
>  <MODEL>
2

>  <REMARK>
 VINA RESULT:      -7.9      4.155      5.408
  Name = 
  1 active torsions:
  status: ('A' for Active; 'I' for Inactive)
    1  A    between atoms: C_7  and  C_15
                            x       y       z     vdW  Elec       q    Type
                         _______ _______ _______ _____ _____    ______ ____

>  <TORSDO>
F 1

$$$$
=
 OpenBabel11052417263D

 25 28  0  0  1  0  0  0  0  0999 V2000
  185.4990  177.7880  143.9470 C   0  0  0  0  0  0  0  0  0  0  0  0
  186.4710  177.5990  144.9270 C   0  0  0  0  0  0  0  0  0  0  0  0
  184.1800  179.1290  145.4440 C   0  0  0  0  0  3  0  0  0  0  0  0
  185.3770  177.2260  142.5770 C   0  0  1  0  0  3  0  0  0  0  0  0
  189.6790  175.8700  145.3530 N   0  0  0  0  0  2  0  0  0  0  0  0
  184.8110  178.0410  139.9040 N   0  0  0  0  0  0  0  0  0  0  0  0
  185.1360  178.9630  146.4050 N   0  0  0  0  0  0  0  0  0  0  0  0
  184.0890  177.8830  142.1590 C   0  0  2  0  0  3  0  0  0  0  0  0
  183.8050  178.0420  140.7330 C   0  0  0  0  0  3  0  0  0  0  0  0
  187.2340  178.0480  147.1810 C   0  0  0  0  0  0  0  0  0  0  0  0
  187.0830  178.6740  148.5250 C   0  0  0  0  0  1  0  0  0  0  0  0
  190.7690  175.5540  146.2310 C   0  0  0  0  0  0  0  0  0  0  0  0
  187.5810  176.8500  144.7000 N   0  0  0  0  0  0  0  0  0  0  0  0
  186.1800  177.9430  140.3560 C   0  0  0  0  0  3  0  0  0  0  0  0
  184.3670  178.5140  144.2080 C   0  0  0  0  0  0  0  0  0  0  0  0
  183.5190  178.6040  143.0750 N   0  0  0  0  0  2  0  0  0  0  0  0
  188.3660  177.2730  146.9160 C   0  0  0  0  0  3  0  0  0  0  0  0
  186.4760  177.6240  141.6280 C   0  0  0  0  0  3  0  0  0  0  0  0
  188.5290  176.6700  145.6590 C   0  0  0  0  0  0  0  0  0  0  0  0
  186.2660  178.2190  146.1830 C   0  0  0  0  0  0  0  0  0  0  0  0
  190.7660  175.9400  147.4310 O   0  0  0  0  0  0  0  0  0  0  0  0
  191.3910  173.4990  145.2540 F   0  0  0  0  0  0  0  0  0  0  0  0
  191.8880  174.6970  145.7340 C   0  0  0  0  0  0  0  0  0  0  0  0
  192.7640  174.4420  146.7710 F   0  0  0  0  0  0  0  0  0  0  0  0
  192.5670  175.3410  144.7140 F   0  0  0  0  0  0  0  0  0  0  0  0
  1 15  2  0  0  0  0
  1  2  1  0  0  0  0
  2 20  2  0  0  0  0
  3  7  2  0  0  0  0
  4 18  1  6  0  0  0
  4  1  1  0  0  0  0
  5 19  1  0  0  0  0
  5 12  1  0  0  0  0
  6 14  1  0  0  0  0
  6  9  2  0  0  0  0
  8  9  1  6  0  0  0
  8  4  1  0  0  0  0
  8 16  1  0  0  0  0
 10 11  1  0  0  0  0
 12 21  2  0  0  0  0
 13  2  1  0  0  0  0
 13 19  2  0  0  0  0
 14 18  2  0  0  0  0
 15  3  1  0  0  0  0
 16 15  1  0  0  0  0
 17 10  2  0  0  0  0
 19 17  1  0  0  0  0
 20  7  1  0  0  0  0
 20 10  1  0  0  0  0
 22 23  1  0  0  0  0
 23 12  1  0  0  0  0
 23 24  1  0  0  0  0
 25 23  1  0  0  0  0
M  END
>  <MODEL>
3

>  <REMARK>
 VINA RESULT:      -7.8      2.396      4.529
  Name = 
  1 active torsions:
  status: ('A' for Active; 'I' for Inactive)
    1  A    between atoms: C_7  and  C_15
                            x       y       z     vdW  Elec       q    Type
                         _______ _______ _______ _____ _____    ______ ____

>  <TORSDO>
F 1

$$$$
=
 OpenBabel11052417263D

 25 28  0  0  1  0  0  0  0  0999 V2000
  190.0780  177.0150  144.6890 C   0  0  0  0  0  0  0  0  0  0  0  0
  188.7010  177.2150  144.6290 C   0  0  0  0  0  0  0  0  0  0  0  0
  190.0090  176.9200  147.0900 C   0  0  0  0  0  3  0  0  0  0  0  0
  191.1080  177.0040  143.6180 C   0  0  1  0  0  3  0  0  0  0  0  0
  186.0820  177.7240  142.1090 N   0  0  0  0  0  2  0  0  0  0  0  0
  193.3380  175.4690  142.7210 N   0  0  0  0  0  0  0  0  0  0  0  0
  188.6560  177.0990  147.0390 N   0  0  0  0  0  0  0  0  0  0  0  0
  192.3280  176.7340  144.4570 C   0  0  2  0  0  3  0  0  0  0  0  0
  193.5070  176.1450  143.8240 C   0  0  0  0  0  3  0  0  0  0  0  0
  186.6010  177.4410  145.8130 C   0  0  0  0  0  0  0  0  0  0  0  0
  185.7890  177.4850  147.0620 C   0  0  0  0  0  1  0  0  0  0  0  0
  184.6900  177.9520  141.8500 C   0  0  0  0  0  0  0  0  0  0  0  0
  188.0520  177.3740  143.4460 N   0  0  0  0  0  0  0  0  0  0  0  0
  192.0290  175.2460  142.1500 C   0  0  0  0  0  3  0  0  0  0  0  0
  190.7210  176.8970  145.8930 C   0  0  0  0  0  0  0  0  0  0  0  0
  192.1130  176.6780  145.7350 N   0  0  0  0  0  2  0  0  0  0  0  0
  185.9620  177.6000  144.5810 C   0  0  0  0  0  3  0  0  0  0  0  0
  190.9480  175.9090  142.5970 C   0  0  0  0  0  3  0  0  0  0  0  0
  186.7060  177.5660  143.3910 C   0  0  0  0  0  0  0  0  0  0  0  0
  187.9880  177.2480  145.8510 C   0  0  0  0  0  0  0  0  0  0  0  0
  183.8690  178.0900  142.7970 O   0  0  0  0  0  0  0  0  0  0  0  0
  182.9190  177.6350  140.3250 F   0  0  0  0  0  0  0  0  0  0  0  0
  184.2190  178.0940  140.4380 C   0  0  0  0  0  0  0  0  0  0  0  0
  185.0360  177.3530  139.6070 F   0  0  0  0  0  0  0  0  0  0  0  0
  184.2610  179.4220  140.0520 F   0  0  0  0  0  0  0  0  0  0  0  0
  1 15  1  0  0  0  0
  2  1  2  0  0  0  0
  2 20  1  0  0  0  0
  4 18  1  6  0  0  0
  4  8  1  0  0  0  0
  4  1  1  0  0  0  0
  5 19  1  0  0  0  0
  6  9  2  0  0  0  0
  7  3  1  0  0  0  0
  8  9  1  6  0  0  0
  8 16  1  0  0  0  0
 10 20  1  0  0  0  0
 10 11  1  0  0  0  0
 12  5  1  0  0  0  0
 12 21  2  0  0  0  0
 13  2  1  0  0  0  0
 14 18  2  0  0  0  0
 14  6  1  0  0  0  0
 15  3  2  0  0  0  0
 16 15  1  0  0  0  0
 17 10  2  0  0  0  0
 19 13  2  0  0  0  0
 19 17  1  0  0  0  0
 20  7  2  0  0  0  0
 22 23  1  0  0  0  0
 23 12  1  0  0  0  0
 24 23  1  0  0  0  0
 25 23  1  0  0  0  0
M  END
>  <MODEL>
4

>  <REMARK>
 VINA RESULT:      -7.6      4.996      7.861
  Name = 
  1 active torsions:
  status: ('A' for Active; 'I' for Inactive)
    1  A    between atoms: C_7  and  C_15
                            x       y       z     vdW  Elec       q    Type
                         _______ _______ _______ _____ _____    ______ ____

>  <TORSDO>
F 1

$$$$
=
 OpenBabel11052417263D

 25 28  0  0  1  0  0  0  0  0999 V2000
  189.8960  173.9140  142.4930 C   0  0  0  0  0  0  0  0  0  0  0  0
  189.3080  174.7230  143.4620 C   0  0  0  0  0  0  0  0  0  0  0  0
  191.2160  172.7940  144.1610 C   0  0  0  0  0  3  0  0  0  0  0  0
  189.7680  173.9180  141.0130 C   0  0  1  0  0  3  0  0  0  0  0  0
  186.8530  177.4420  143.6840 N   0  0  0  0  0  2  0  0  0  0  0  0
  189.3620  172.1250  138.8330 N   0  0  0  0  0  0  0  0  0  0  0  0
  190.6310  173.5710  145.1190 N   0  0  0  0  0  0  0  0  0  0  0  0
  190.6940  172.7770  140.6860 C   0  0  2  0  0  3  0  0  0  0  0  0
  190.5270  172.0710  139.4160 C   0  0  0  0  0  3  0  0  0  0  0  0
  189.1110  175.3230  145.8000 C   0  0  0  0  0  0  0  0  0  0  0  0
  189.4730  175.1650  147.2370 C   0  0  0  0  0  1  0  0  0  0  0  0
  186.1570  178.3680  144.5300 C   0  0  0  0  0  0  0  0  0  0  0  0
  188.3910  175.6730  143.1400 N   0  0  0  0  0  0  0  0  0  0  0  0
  188.2360  172.8080  139.4280 C   0  0  0  0  0  3  0  0  0  0  0  0
  190.8480  172.9890  142.8320 C   0  0  0  0  0  0  0  0  0  0  0  0
  191.3040  172.2570  141.7060 N   0  0  0  0  0  2  0  0  0  0  0  0
  188.1700  176.2900  145.4380 C   0  0  0  0  0  3  0  0  0  0  0  0
  188.3880  173.6090  140.4960 C   0  0  0  0  0  3  0  0  0  0  0  0
  187.8160  176.4600  144.0900 C   0  0  0  0  0  0  0  0  0  0  0  0
  189.6960  174.5240  144.8080 C   0  0  0  0  0  0  0  0  0  0  0  0
  186.3970  178.4240  145.7660 O   0  0  0  0  0  0  0  0  0  0  0  0
  185.6320  180.6250  144.0870 F   0  0  0  0  0  0  0  0  0  0  0  0
  185.1820  179.3270  143.9240 C   0  0  0  0  0  0  0  0  0  0  0  0
  183.9570  179.1890  144.5470 F   0  0  0  0  0  0  0  0  0  0  0  0
  185.0370  179.0690  142.5720 F   0  0  0  0  0  0  0  0  0  0  0  0
  1 15  2  0  0  0  0
  1  2  1  0  0  0  0
  2 20  2  0  0  0  0
  3  7  2  0  0  0  0
  4 18  1  1  0  0  0
  4  1  1  0  0  0  0
  5 19  1  0  0  0  0
  5 12  1  0  0  0  0
  6  9  2  0  0  0  0
  6 14  1  0  0  0  0
  8  9  1  1  0  0  0
  8  4  1  0  0  0  0
  8 16  1  0  0  0  0
 10 11  1  0  0  0  0
 12 21  2  0  0  0  0
 13  2  1  0  0  0  0
 13 19  2  0  0  0  0
 14 18  2  0  0  0  0
 15  3  1  0  0  0  0
 16 15  1  0  0  0  0
 17 10  2  0  0  0  0
 19 17  1  0  0  0  0
 20  7  1  0  0  0  0
 20 10  1  0  0  0  0
 23 22  1  0  0  0  0
 23 12  1  0  0  0  0
 23 24  1  0  0  0  0
 25 23  1  0  0  0  0
M  END
>  <MODEL>
5

>  <REMARK>
 VINA RESULT:      -7.4      4.477      7.511
  Name = 
  1 active torsions:
  status: ('A' for Active; 'I' for Inactive)
    1  A    between atoms: C_7  and  C_15
                            x       y       z     vdW  Elec       q    Type
                         _______ _______ _______ _____ _____    ______ ____

>  <TORSDO>
F 1

$$$$
=
 OpenBabel11052417263D

 25 28  0  0  1  0  0  0  0  0999 V2000
  187.0590  177.2490  144.1980 C   0  0  0  0  0  0  0  0  0  0  0  0
  188.0850  176.4300  143.7310 C   0  0  0  0  0  0  0  0  0  0  0  0
  185.9100  177.0940  142.0920 C   0  0  0  0  0  3  0  0  0  0  0  0
  186.9060  177.9800  145.4820 C   0  0  1  0  0  3  0  0  0  0  0  0
  191.2500  175.0030  144.9190 N   0  0  0  0  0  2  0  0  0  0  0  0
  184.9760  178.4580  147.5270 N   0  0  0  0  0  0  0  0  0  0  0  0
  186.9030  176.2760  141.6330 N   0  0  0  0  0  0  0  0  0  0  0  0
  185.5700  178.6270  145.2360 C   0  0  2  0  0  3  0  0  0  0  0  0
  184.7600  179.0410  146.3810 C   0  0  0  0  0  3  0  0  0  0  0  0
  188.9960  175.1030  141.9220 C   0  0  0  0  0  0  0  0  0  0  0  0
  188.9480  174.5450  140.5410 C   0  0  0  0  0  1  0  0  0  0  0  0
  192.3960  174.1960  144.6130 C   0  0  0  0  0  0  0  0  0  0  0  0
  189.1530  176.1100  144.5060 N   0  0  0  0  0  0  0  0  0  0  0  0
  185.9410  177.3930  147.6780 C   0  0  0  0  0  3  0  0  0  0  0  0
  186.0100  177.5950  143.3880 C   0  0  0  0  0  0  0  0  0  0  0  0
  185.0670  178.4150  144.0580 N   0  0  0  0  0  2  0  0  0  0  0  0
  190.0810  174.7900  142.7440 C   0  0  0  0  0  3  0  0  0  0  0  0
  186.8210  177.1030  146.7040 C   0  0  0  0  0  3  0  0  0  0  0  0
  190.1510  175.3060  144.0480 C   0  0  0  0  0  0  0  0  0  0  0  0
  187.9790  175.9350  142.4100 C   0  0  0  0  0  0  0  0  0  0  0  0
  192.5540  173.7050  143.4620 O   0  0  0  0  0  0  0  0  0  0  0  0
  193.7140  172.6420  145.8000 F   0  0  0  0  0  0  0  0  0  0  0  0
  193.4490  173.9910  145.6540 C   0  0  0  0  0  0  0  0  0  0  0  0
  193.0060  174.5000  146.8590 F   0  0  0  0  0  0  0  0  0  0  0  0
  194.6150  174.6400  145.2870 F   0  0  0  0  0  0  0  0  0  0  0  0
  1  4  1  0  0  0  0
  2  1  1  0  0  0  0
  2 13  1  0  0  0  0
  3 15  1  0  0  0  0
  4 18  1  1  0  0  0
  6 14  1  0  0  0  0
  7  3  2  0  0  0  0
  7 20  1  0  0  0  0
  8  4  1  0  0  0  0
  8  9  1  1  0  0  0
  9  6  2  0  0  0  0
 10 20  1  0  0  0  0
 10 17  2  0  0  0  0
 11 10  1  0  0  0  0
 12  5  1  0  0  0  0
 12 23  1  0  0  0  0
 15 16  1  0  0  0  0
 15  1  2  0  0  0  0
 16  8  1  0  0  0  0
 17 19  1  0  0  0  0
 18 14  2  0  0  0  0
 19 13  2  0  0  0  0
 19  5  1  0  0  0  0
 20  2  2  0  0  0  0
 21 12  2  0  0  0  0
 23 22  1  0  0  0  0
 23 24  1  0  0  0  0
 25 23  1  0  0  0  0
M  END
>  <MODEL>
6

>  <REMARK>
 VINA RESULT:      -7.3      1.489      1.630
  Name = 
  1 active torsions:
  status: ('A' for Active; 'I' for Inactive)
    1  A    between atoms: C_7  and  C_15
                            x       y       z     vdW  Elec       q    Type
                         _______ _______ _______ _____ _____    ______ ____

>  <TORSDO>
F 1

$$$$
=
 OpenBabel11052417263D

 25 28  0  0  1  0  0  0  0  0999 V2000
  188.0990  176.5890  143.6770 C   0  0  0  0  0  0  0  0  0  0  0  0
  186.8630  177.1930  143.8990 C   0  0  0  0  0  0  0  0  0  0  0  0
  188.7920  177.0650  145.9280 C   0  0  0  0  0  3  0  0  0  0  0  0
  188.6930  176.0130  142.4430 C   0  0  1  0  0  3  0  0  0  0  0  0
  183.7640  177.9180  142.0720 N   0  0  0  0  0  2  0  0  0  0  0  0
  190.0870  173.6940  141.5430 N   0  0  0  0  0  0  0  0  0  0  0  0
  187.5760  177.6440  146.1600 N   0  0  0  0  0  0  0  0  0  0  0  0
  190.0200  175.5700  142.9950 C   0  0  2  0  0  3  0  0  0  0  0  0
  190.7580  174.5130  142.3050 C   0  0  0  0  0  3  0  0  0  0  0  0
  185.3750  178.3300  145.4340 C   0  0  0  0  0  0  0  0  0  0  0  0
  185.0460  178.9070  146.7680 C   0  0  0  0  0  1  0  0  0  0  0  0
  182.4570  178.5070  142.1070 C   0  0  0  0  0  0  0  0  0  0  0  0
  185.9220  177.2770  142.9230 N   0  0  0  0  0  0  0  0  0  0  0  0
  188.6500  173.7720  141.4100 C   0  0  0  0  0  3  0  0  0  0  0  0
  189.0510  176.5500  144.6610 C   0  0  0  0  0  0  0  0  0  0  0  0
  190.2240  175.8740  144.2410 N   0  0  0  0  0  2  0  0  0  0  0  0
  184.4270  178.3990  144.4110 C   0  0  0  0  0  3  0  0  0  0  0  0
  187.9600  174.8240  141.8820 C   0  0  0  0  0  3  0  0  0  0  0  0
  184.7150  177.8650  143.1450 C   0  0  0  0  0  0  0  0  0  0  0  0
  186.6140  177.7230  145.1870 C   0  0  0  0  0  0  0  0  0  0  0  0
  182.0440  179.1070  143.1370 O   0  0  0  0  0  0  0  0  0  0  0  0
  180.4510  177.7410  141.1320 F   0  0  0  0  0  0  0  0  0  0  0  0
  181.6000  178.4680  140.8820 C   0  0  0  0  0  0  0  0  0  0  0  0
  182.3020  177.8700  139.8530 F   0  0  0  0  0  0  0  0  0  0  0  0
  181.2470  179.7520  140.5060 F   0  0  0  0  0  0  0  0  0  0  0  0
  1  2  2  0  0  0  0
  1 15  1  0  0  0  0
  2 20  1  0  0  0  0
  3  7  1  0  0  0  0
  4 18  1  1  0  0  0
  4  8  1  0  0  0  0
  4  1  1  0  0  0  0
  5 12  1  0  0  0  0
  5 19  1  0  0  0  0
  6  9  2  0  0  0  0
  8  9  1  1  0  0  0
  8 16  1  0  0  0  0
 10 11  1  0  0  0  0
 12 21  2  0  0  0  0
 13 19  2  0  0  0  0
 13  2  1  0  0  0  0
 14  6  1  0  0  0  0
 14 18  2  0  0  0  0
 15  3  2  0  0  0  0
 16 15  1  0  0  0  0
 17 10  2  0  0  0  0
 19 17  1  0  0  0  0
 20 10  1  0  0  0  0
 20  7  2  0  0  0  0
 23 22  1  0  0  0  0
 23 12  1  0  0  0  0
 24 23  1  0  0  0  0
 25 23  1  0  0  0  0
M  END
>  <MODEL>
7

>  <REMARK>
 VINA RESULT:      -7.3      5.825      8.566
  Name = 
  1 active torsions:
  status: ('A' for Active; 'I' for Inactive)
    1  A    between atoms: C_7  and  C_15
                            x       y       z     vdW  Elec       q    Type
                         _______ _______ _______ _____ _____    ______ ____

>  <TORSDO>
F 1

$$$$
=
 OpenBabel11052417263D

 25 28  0  0  1  0  0  0  0  0999 V2000
  190.4520  174.3830  143.1260 C   0  0  0  0  0  0  0  0  0  0  0  0
  189.9990  175.0140  144.2820 C   0  0  0  0  0  0  0  0  0  0  0  0
  192.4110  173.5870  144.2700 C   0  0  0  0  0  3  0  0  0  0  0  0
  189.9080  174.3770  141.7440 C   0  0  1  0  0  3  0  0  0  0  0  0
  187.1640  177.0630  145.3910 N   0  0  0  0  0  2  0  0  0  0  0  0
  189.3100  172.5710  139.6190 N   0  0  0  0  0  0  0  0  0  0  0  0
  191.9650  174.1880  145.4120 N   0  0  0  0  0  0  0  0  0  0  0  0
  190.9340  173.4960  141.0830 C   0  0  2  0  0  3  0  0  0  0  0  0
  190.5740  172.7890  139.8540 C   0  0  0  0  0  3  0  0  0  0  0  0
  190.3490  175.5150  146.6250 C   0  0  0  0  0  0  0  0  0  0  0  0
  191.1330  175.4280  147.8900 C   0  0  0  0  0  1  0  0  0  0  0  0
  186.5490  177.7840  146.4690 C   0  0  0  0  0  0  0  0  0  0  0  0
  188.8390  175.7220  144.3030 N   0  0  0  0  0  0  0  0  0  0  0  0
  188.2770  172.9570  140.5540 C   0  0  0  0  0  3  0  0  0  0  0  0
  191.6440  173.7080  143.1130 C   0  0  0  0  0  0  0  0  0  0  0  0
  191.9110  173.1220  141.8500 N   0  0  0  0  0  2  0  0  0  0  0  0
  189.1520  176.2340  146.6160 C   0  0  0  0  0  3  0  0  0  0  0  0
  188.5450  173.7550  141.6020 C   0  0  0  0  0  3  0  0  0  0  0  0
  188.3980  176.3340  145.4360 C   0  0  0  0  0  0  0  0  0  0  0  0
  190.7900  174.8940  145.4490 C   0  0  0  0  0  0  0  0  0  0  0  0
  187.1140  177.8770  147.5910 O   0  0  0  0  0  0  0  0  0  0  0  0
  184.6900  178.8620  147.4410 F   0  0  0  0  0  0  0  0  0  0  0  0
  185.2520  178.4910  146.2340 C   0  0  0  0  0  0  0  0  0  0  0  0
  184.3850  177.6460  145.5690 F   0  0  0  0  0  0  0  0  0  0  0  0
  185.4590  179.6250  145.4680 F   0  0  0  0  0  0  0  0  0  0  0  0
  1  2  1  0  0  0  0
  2 13  1  0  0  0  0
  2 20  2  0  0  0  0
  3  7  2  0  0  0  0
  4 18  1  1  0  0  0
  4  1  1  0  0  0  0
  5 19  1  0  0  0  0
  5 12  1  0  0  0  0
  6  9  2  0  0  0  0
  6 14  1  0  0  0  0
  7 20  1  0  0  0  0
  8  9  1  1  0  0  0
  8  4  1  0  0  0  0
  8 16  1  0  0  0  0
 10 11  1  0  0  0  0
 12 21  2  0  0  0  0
 13 19  2  0  0  0  0
 14 18  2  0  0  0  0
 15  1  2  0  0  0  0
 15  3  1  0  0  0  0
 16 15  1  0  0  0  0
 17 10  2  0  0  0  0
 19 17  1  0  0  0  0
 20 10  1  0  0  0  0
 23 12  1  0  0  0  0
 23 22  1  0  0  0  0
 24 23  1  0  0  0  0
 25 23  1  0  0  0  0
M  END
>  <MODEL>
8

>  <REMARK>
 VINA RESULT:      -7.2      4.179      7.204
  Name = 
  1 active torsions:
  status: ('A' for Active; 'I' for Inactive)
    1  A    between atoms: C_7  and  C_15
                            x       y       z     vdW  Elec       q    Type
                         _______ _______ _______ _____ _____    ______ ____

>  <TORSDO>
F 1

$$$$
=
 OpenBabel11052417263D

 25 28  0  0  1  0  0  0  0  0999 V2000
  188.5190  176.6280  144.3770 C   0  0  0  0  0  0  0  0  0  0  0  0
  189.7980  176.5680  144.9250 C   0  0  0  0  0  0  0  0  0  0  0  0
  187.5320  176.7000  146.5680 C   0  0  0  0  0  3  0  0  0  0  0  0
  188.0590  176.5470  142.9670 C   0  0  1  0  0  3  0  0  0  0  0  0
  193.2860  176.3560  143.8020 N   0  0  0  0  0  2  0  0  0  0  0  0
  186.3020  177.8600  141.1440 N   0  0  0  0  0  0  0  0  0  0  0  0
  188.7840  176.6600  147.1120 N   0  0  0  0  0  0  0  0  0  0  0  0
  186.5760  176.6820  143.1860 C   0  0  2  0  0  3  0  0  0  0  0  0
  185.7370  177.1570  142.0870 C   0  0  0  0  0  3  0  0  0  0  0  0
  191.1890  176.5410  146.9070 C   0  0  0  0  0  0  0  0  0  0  0  0
  191.3810  176.5650  148.3850 C   0  0  0  0  0  1  0  0  0  0  0  0
  194.6680  176.2730  144.1780 C   0  0  0  0  0  0  0  0  0  0  0  0
  190.9080  176.4900  144.1440 N   0  0  0  0  0  0  0  0  0  0  0  0
  187.7010  178.2200  141.1870 C   0  0  0  0  0  3  0  0  0  0  0  0
  187.4100  176.6660  145.1810 C   0  0  0  0  0  0  0  0  0  0  0  0
  186.2100  176.7450  144.4300 N   0  0  0  0  0  2  0  0  0  0  0  0
  192.3110  176.4630  146.0770 C   0  0  0  0  0  3  0  0  0  0  0  0
  188.5390  177.6650  142.0790 C   0  0  0  0  0  3  0  0  0  0  0  0
  192.1560  176.4350  144.6820 C   0  0  0  0  0  0  0  0  0  0  0  0
  189.9110  176.5930  146.3350 C   0  0  0  0  0  0  0  0  0  0  0  0
  195.0060  176.2070  145.3900 O   0  0  0  0  0  0  0  0  0  0  0  0
  196.7510  177.0650  143.4050 F   0  0  0  0  0  0  0  0  0  0  0  0
  195.7150  176.1960  143.1140 C   0  0  0  0  0  0  0  0  0  0  0  0
  195.1580  176.5440  141.8980 F   0  0  0  0  0  0  0  0  0  0  0  0
  196.2190  174.9100  143.0320 F   0  0  0  0  0  0  0  0  0  0  0  0
  1  2  2  0  0  0  0
  1 15  1  0  0  0  0
  2 20  1  0  0  0  0
  3  7  1  0  0  0  0
  4 18  1  6  0  0  0
  4  8  1  0  0  0  0
  4  1  1  0  0  0  0
  5 12  1  0  0  0  0
  5 19  1  0  0  0  0
  6 14  1  0  0  0  0
  6  9  2  0  0  0  0
  8  9  1  6  0  0  0
  8 16  1  0  0  0  0
 10 11  1  0  0  0  0
 12 21  2  0  0  0  0
 13 19  2  0  0  0  0
 13  2  1  0  0  0  0
 14 18  2  0  0  0  0
 15  3  2  0  0  0  0
 16 15  1  0  0  0  0
 17 10  2  0  0  0  0
 19 17  1  0  0  0  0
 20 10  1  0  0  0  0
 20  7  2  0  0  0  0
 23 22  1  0  0  0  0
 23 12  1  0  0  0  0
 24 23  1  0  0  0  0
 25 23  1  0  0  0  0
M  END
>  <MODEL>
9

>  <REMARK>
 VINA RESULT:      -7.2      2.392      4.029
  Name = 
  1 active torsions:
  status: ('A' for Active; 'I' for Inactive)
    1  A    between atoms: C_7  and  C_15
                            x       y       z     vdW  Elec       q    Type
                         _______ _______ _______ _____ _____    ______ ____

>  <TORSDO>
F 1

$$$$
