=
 OpenBabel11052420173D

 34 38  0  0  1  0  0  0  0  0999 V2000
  190.1950  173.9050  144.7890 C   0  0  0  0  0  0  0  0  0  0  0  0
  189.6530  174.8910  141.1850 C   0  0  0  0  0  3  0  0  0  0  0  0
  191.3280  175.7490  142.7670 C   0  0  0  0  0  2  0  0  0  0  0  0
  189.6830  173.2670  145.7280 O   0  0  0  0  0  0  0  0  0  0  0  0
  192.2650  174.5570  146.1560 C   0  0  2  0  0  3  0  0  0  0  0  0
  193.5910  175.1300  145.6350 C   0  0  0  0  0  2  0  0  0  0  0  0
  192.1660  174.9950  143.7670 C   0  0  2  0  0  3  0  0  0  0  0  0
  191.4100  174.6760  144.9500 N   0  0  0  0  0  0  0  0  0  0  0  0
  193.2940  175.8400  144.2960 C   0  0  0  0  0  2  0  0  0  0  0  0
  188.4740  174.0740  140.8590 C   0  0  0  0  0  2  0  0  0  0  0  0
  188.6190  172.6220  141.4690 C   0  0  2  0  0  3  0  0  0  0  0  0
  190.1900  174.8430  142.4060 C   0  0  0  0  0  0  0  0  0  0  0  0
  189.2180  172.5550  142.8900 C   0  0  0  0  0  2  0  0  0  0  0  0
  189.5430  173.9330  143.4450 C   0  0  1  0  0  3  0  0  0  0  0  0
  191.6730  175.4570  147.2410 C   0  0  0  0  0  2  0  0  0  0  0  0
  191.4760  176.8560  146.7200 C   0  0  0  0  0  2  0  0  0  0  0  0
  190.6380  178.4080  144.3740 O   0  0  0  0  0  0  0  0  0  0  0  0
  187.8130  176.1900  146.3860 C   0  0  0  0  0  3  0  0  0  0  0  0
  186.6340  177.8100  142.6820 C   0  0  2  0  0  3  0  0  0  0  0  0
  188.1330  177.9070  143.0720 C   0  0  0  0  0  2  0  0  0  0  0  0
  188.3130  177.8220  144.5700 C   0  0  1  0  0  3  0  0  0  0  0  0
  190.0390  177.0870  146.2330 N   0  0  0  0  0  0  0  0  0  0  0  0
  186.0880  176.4310  144.6830 C   0  0  0  0  0  2  0  0  0  0  0  0
  187.4740  176.7230  145.2320 C   0  0  0  0  0  0  0  0  0  0  0  0
  186.0860  176.4770  143.1940 C   0  0  0  0  0  2  0  0  0  0  0  0
  189.0120  176.6170  147.1380 C   0  0  0  0  0  2  0  0  0  0  0  0
  189.7610  177.7760  145.0510 C   0  0  0  0  0  0  0  0  0  0  0  0
  186.5210  177.8350  141.2050 C   0  0  0  0  0  0  0  0  0  0  0  0
  187.4610  177.5210  140.4760 O   0  0  0  0  0  0  0  0  0  0  0  0
  185.2940  178.2410  140.6450 O   0  0  0  0  0  1  0  0  0  0  0  0
  189.3300  171.7220  140.6360 N   0  0  0  0  0  2  0  0  0  0  0  0
  190.6070  171.2210  140.9290 C   0  0  0  0  0  0  0  0  0  0  0  0
  190.9040  169.7360  141.6390 S   0  0  0  0  0  0  0  0  0  0  0  0
  191.7840  172.0310  140.4860 C   0  0  0  0  0  1  0  0  0  0  0  0
  1  8  1  0  0  0  0
  1  4  2  0  0  0  0
  2 12  2  0  0  0  0
  5 15  1  1  0  0  0
  6  5  1  0  0  0  0
  7  3  1  6  0  0  0
  7  9  1  0  0  0  0
  7  8  1  0  0  0  0
  8  5  1  0  0  0  0
  9  6  1  0  0  0  0
 10  2  1  0  0  0  0
 10 11  1  0  0  0  0
 11 31  1  6  0  0  0
 11 13  1  0  0  0  0
 12  3  1  0  0  0  0
 12 14  1  0  0  0  0
 14 13  1  6  0  0  0
 14  1  1  0  0  0  0
 16 15  1  0  0  0  0
 17 27  2  0  0  0  0
 18 26  1  0  0  0  0
 19 28  1  6  0  0  0
 19 20  1  0  0  0  0
 19 25  1  0  0  0  0
 21 20  1  6  0  0  0
 21 27  1  0  0  0  0
 21 24  1  0  0  0  0
 22 16  1  0  0  0  0
 22 26  1  0  0  0  0
 23 24  1  0  0  0  0
 24 18  2  0  0  0  0
 25 23  1  0  0  0  0
 27 22  1  0  0  0  0
 29 28  2  0  0  0  0
 30 28  1  0  0  0  0
 31 32  1  0  0  0  0
 32 33  2  0  0  0  0
 34 32  1  0  0  0  0
M  END
>  <MODEL>
1

>  <REMARK>
 VINA RESULT:      -7.1      0.000      0.000
  Name = 
  6 active torsions:
  status: ('A' for Active; 'I' for Inactive)
    1  A    between atoms: C_3  and  N_25
    2  A    between atoms: C_7  and  C_11
    3  A    between atoms: C_8  and  C_17
    4  A    between atoms: C_8  and  N_18
    5  A    between atoms: C_10  and  C_17
    6  A    between atoms: N_25  and  C_27
                            x       y       z     vdW  Elec       q    Type
                         _______ _______ _______ _____ _____    ______ ____

>  <TORSDO>
F 6

$$$$
=
 OpenBabel11052420173D

 34 38  0  0  1  0  0  0  0  0999 V2000
  193.5760  175.4800  145.0780 C   0  0  0  0  0  0  0  0  0  0  0  0
  196.2970  172.8780  145.3560 C   0  0  0  0  0  3  0  0  0  0  0  0
  193.8610  172.5470  145.3820 C   0  0  0  0  0  2  0  0  0  0  0  0
  193.3760  176.7090  145.0970 O   0  0  0  0  0  0  0  0  0  0  0  0
  191.1050  174.9290  144.6630 C   0  0  2  0  0  3  0  0  0  0  0  0
  190.5060  173.5910  144.2050 C   0  0  0  0  0  2  0  0  0  0  0  0
  192.8040  173.1960  144.5270 C   0  0  2  0  0  3  0  0  0  0  0  0
  192.4930  174.5220  144.9920 N   0  0  0  0  0  0  0  0  0  0  0  0
  191.4860  172.4750  144.6310 C   0  0  0  0  0  2  0  0  0  0  0  0
  197.4900  173.7390  145.3480 C   0  0  0  0  0  2  0  0  0  0  0  0
  197.3380  174.8900  144.2750 C   0  0  2  0  0  3  0  0  0  0  0  0
  195.0780  173.4150  145.2740 C   0  0  0  0  0  0  0  0  0  0  0  0
  195.9390  175.5350  144.1860 C   0  0  0  0  0  2  0  0  0  0  0  0
  194.9620  174.9340  145.1850 C   0  0  1  0  0  3  0  0  0  0  0  0
  190.4390  175.4080  145.9530 C   0  0  0  0  0  2  0  0  0  0  0  0
  188.9650  175.1060  145.9330 C   0  0  0  0  0  2  0  0  0  0  0  0
  188.0170  175.7460  143.2300 O   0  0  0  0  0  0  0  0  0  0  0  0
  186.6710  178.0230  146.3850 C   0  0  0  0  0  3  0  0  0  0  0  0
  184.7330  178.6060  142.6920 C   0  0  2  0  0  3  0  0  0  0  0  0
  185.7280  177.4200  142.8100 C   0  0  0  0  0  2  0  0  0  0  0  0
  186.7250  177.6540  143.9200 C   0  0  1  0  0  3  0  0  0  0  0  0
  188.1360  176.3280  145.5120 N   0  0  0  0  0  0  0  0  0  0  0  0
  184.9330  179.1590  145.1120 C   0  0  0  0  0  2  0  0  0  0  0  0
  186.0980  178.1900  145.2130 C   0  0  0  0  0  0  0  0  0  0  0  0
  183.9980  178.7560  144.0250 C   0  0  0  0  0  2  0  0  0  0  0  0
  187.9650  177.3260  146.5460 C   0  0  0  0  0  2  0  0  0  0  0  0
  187.6690  176.4890  144.2070 C   0  0  0  0  0  0  0  0  0  0  0  0
  183.7420  178.2970  141.6340 C   0  0  0  0  0  0  0  0  0  0  0  0
  182.5330  178.2800  141.8620 O   0  0  0  0  0  1  0  0  0  0  0  0
  184.2250  178.0130  140.3420 O   0  0  0  0  0  0  0  0  0  0  0  0
  197.7440  174.5100  142.9710 N   0  0  0  0  0  2  0  0  0  0  0  0
  196.8850  174.4610  141.8630 C   0  0  0  0  0  0  0  0  0  0  0  0
  196.7850  175.6440  140.6860 S   0  0  0  0  0  0  0  0  0  0  0  0
  196.0770  173.2170  141.6740 C   0  0  0  0  0  1  0  0  0  0  0  0
  1  4  2  0  0  0  0
  1 14  1  0  0  0  0
  5  8  1  0  0  0  0
  5 15  1  1  0  0  0
  6  9  1  0  0  0  0
  6  5  1  0  0  0  0
  7  9  1  1  0  0  0
  7  8  1  0  0  0  0
  7  3  1  0  0  0  0
  8  1  1  0  0  0  0
 10  2  1  0  0  0  0
 11 31  1  6  0  0  0
 11 10  1  0  0  0  0
 12  2  2  0  0  0  0
 12  3  1  0  0  0  0
 13 11  1  0  0  0  0
 14 13  1  6  0  0  0
 14 12  1  0  0  0  0
 16 15  1  0  0  0  0
 17 27  2  0  0  0  0
 18 26  1  0  0  0  0
 19 28  1  6  0  0  0
 19 20  1  0  0  0  0
 19 25  1  0  0  0  0
 21 20  1  6  0  0  0
 21 27  1  0  0  0  0
 21 24  1  0  0  0  0
 22 16  1  0  0  0  0
 22 26  1  0  0  0  0
 23 24  1  0  0  0  0
 24 18  2  0  0  0  0
 25 23  1  0  0  0  0
 27 22  1  0  0  0  0
 28 29  1  0  0  0  0
 30 28  2  0  0  0  0
 32 31  1  0  0  0  0
 33 32  2  0  0  0  0
 34 32  1  0  0  0  0
M  END
>  <MODEL>
2

>  <REMARK>
 VINA RESULT:      -6.8      3.075      4.930
  Name = 
  6 active torsions:
  status: ('A' for Active; 'I' for Inactive)
    1  A    between atoms: C_3  and  N_25
    2  A    between atoms: C_7  and  C_11
    3  A    between atoms: C_8  and  C_17
    4  A    between atoms: C_8  and  N_18
    5  A    between atoms: C_10  and  C_17
    6  A    between atoms: N_25  and  C_27
                            x       y       z     vdW  Elec       q    Type
                         _______ _______ _______ _____ _____    ______ ____

>  <TORSDO>
F 6

$$$$
=
 OpenBabel11052420173D

 34 38  0  0  1  0  0  0  0  0999 V2000
  192.1130  174.2630  144.7450 C   0  0  0  0  0  0  0  0  0  0  0  0
  195.3150  175.9730  143.7060 C   0  0  0  0  0  3  0  0  0  0  0  0
  193.6760  176.6960  145.3900 C   0  0  0  0  0  2  0  0  0  0  0  0
  191.3340  173.3450  144.4280 O   0  0  0  0  0  0  0  0  0  0  0  0
  190.7570  174.9050  146.8260 C   0  0  2  0  0  3  0  0  0  0  0  0
  191.2000  175.7960  147.9960 C   0  0  0  0  0  2  0  0  0  0  0  0
  192.9500  175.8750  146.4240 C   0  0  2  0  0  3  0  0  0  0  0  0
  191.8400  175.1640  145.8450 N   0  0  0  0  0  0  0  0  0  0  0  0
  192.2970  176.7450  147.4660 C   0  0  0  0  0  2  0  0  0  0  0  0
  195.7610  175.0730  142.6310 C   0  0  0  0  0  2  0  0  0  0  0  0
  195.5440  173.5630  143.0460 C   0  0  2  0  0  3  0  0  0  0  0  0
  194.1810  175.7260  144.3650 C   0  0  0  0  0  0  0  0  0  0  0  0
  194.2250  173.2600  143.7880 C   0  0  0  0  0  2  0  0  0  0  0  0
  193.3640  174.5020  143.9640 C   0  0  1  0  0  3  0  0  0  0  0  0
  189.4480  175.4120  146.2220 C   0  0  0  0  0  2  0  0  0  0  0  0
  188.8620  176.5100  147.0700 C   0  0  0  0  0  2  0  0  0  0  0  0
  189.0310  177.3430  144.2610 O   0  0  0  0  0  0  0  0  0  0  0  0
  185.5280  178.0190  146.3150 C   0  0  0  0  0  3  0  0  0  0  0  0
  185.4070  178.6380  142.1510 C   0  0  2  0  0  3  0  0  0  0  0  0
  186.6770  177.9760  142.7510 C   0  0  0  0  0  2  0  0  0  0  0  0
  186.8320  178.3200  144.2130 C   0  0  1  0  0  3  0  0  0  0  0  0
  187.8360  177.3460  146.2930 N   0  0  0  0  0  0  0  0  0  0  0  0
  184.2260  178.6150  144.3440 C   0  0  0  0  0  2  0  0  0  0  0  0
  185.5300  178.2170  145.0150 C   0  0  0  0  0  0  0  0  0  0  0  0
  184.1890  178.1420  142.9320 C   0  0  0  0  0  2  0  0  0  0  0  0
  186.7720  177.8990  147.1040 C   0  0  0  0  0  2  0  0  0  0  0  0
  187.9800  177.6140  144.9310 C   0  0  0  0  0  0  0  0  0  0  0  0
  185.2700  178.2180  140.7370 C   0  0  0  0  0  0  0  0  0  0  0  0
  186.2340  177.8270  140.0790 O   0  0  0  0  0  0  0  0  0  0  0  0
  183.9920  178.2850  140.1500 O   0  0  0  0  0  1  0  0  0  0  0  0
  196.6180  173.0170  143.7920 N   0  0  0  0  0  2  0  0  0  0  0  0
  196.5340  172.6620  145.1460 C   0  0  0  0  0  0  0  0  0  0  0  0
  196.2650  171.1090  145.7050 S   0  0  0  0  0  0  0  0  0  0  0  0
  196.8010  173.7310  146.1570 C   0  0  0  0  0  1  0  0  0  0  0  0
  1  8  1  0  0  0  0
  2 12  2  0  0  0  0
  4  1  2  0  0  0  0
  5 15  1  6  0  0  0
  5  6  1  0  0  0  0
  7  3  1  6  0  0  0
  7  9  1  0  0  0  0
  8  7  1  0  0  0  0
  8  5  1  0  0  0  0
  9  6  1  0  0  0  0
 10 11  1  0  0  0  0
 10  2  1  0  0  0  0
 11 13  1  0  0  0  0
 11 31  1  1  0  0  0
 12  3  1  0  0  0  0
 14 13  1  1  0  0  0
 14 12  1  0  0  0  0
 14  1  1  0  0  0  0
 15 16  1  0  0  0  0
 17 27  2  0  0  0  0
 18 26  1  0  0  0  0
 19 28  1  6  0  0  0
 19 20  1  0  0  0  0
 19 25  1  0  0  0  0
 21 20  1  6  0  0  0
 21 27  1  0  0  0  0
 21 24  1  0  0  0  0
 22 16  1  0  0  0  0
 22 26  1  0  0  0  0
 23 24  1  0  0  0  0
 24 18  2  0  0  0  0
 25 23  1  0  0  0  0
 27 22  1  0  0  0  0
 29 28  2  0  0  0  0
 30 28  1  0  0  0  0
 31 32  1  0  0  0  0
 32 33  2  0  0  0  0
 32 34  1  0  0  0  0
M  END
>  <MODEL>
3

>  <REMARK>
 VINA RESULT:      -6.8      2.914      4.091
  Name = 
  6 active torsions:
  status: ('A' for Active; 'I' for Inactive)
    1  A    between atoms: C_3  and  N_25
    2  A    between atoms: C_7  and  C_11
    3  A    between atoms: C_8  and  C_17
    4  A    between atoms: C_8  and  N_18
    5  A    between atoms: C_10  and  C_17
    6  A    between atoms: N_25  and  C_27
                            x       y       z     vdW  Elec       q    Type
                         _______ _______ _______ _____ _____    ______ ____

>  <TORSDO>
F 6

$$$$
=
 OpenBabel11052420173D

 34 38  0  0  1  0  0  0  0  0999 V2000
  190.6570  177.0570  144.1780 C   0  0  0  0  0  0  0  0  0  0  0  0
  188.3150  174.7840  142.2800 C   0  0  0  0  0  3  0  0  0  0  0  0
  189.4540  174.3600  144.4180 C   0  0  0  0  0  2  0  0  0  0  0  0
  191.3100  178.1120  144.0770 O   0  0  0  0  0  0  0  0  0  0  0  0
  191.3930  176.6530  146.6020 C   0  0  2  0  0  3  0  0  0  0  0  0
  190.7830  175.6740  147.6170 C   0  0  0  0  0  2  0  0  0  0  0  0
  189.6560  175.2880  145.5880 C   0  0  2  0  0  3  0  0  0  0  0  0
  190.7370  176.2070  145.3480 N   0  0  0  0  0  0  0  0  0  0  0  0
  190.1020  174.5420  146.8170 C   0  0  0  0  0  2  0  0  0  0  0  0
  188.0650  175.5990  141.0810 C   0  0  0  0  0  2  0  0  0  0  0  0
  187.8570  177.1160  141.4750 C   0  0  2  0  0  3  0  0  0  0  0  0
  189.1210  175.2320  143.2450 C   0  0  0  0  0  0  0  0  0  0  0  0
  188.7990  177.6530  142.5740 C   0  0  0  0  0  2  0  0  0  0  0  0
  189.7780  176.5960  143.0610 C   0  0  1  0  0  3  0  0  0  0  0  0
  192.8950  176.4150  146.4550 C   0  0  0  0  0  2  0  0  0  0  0  0
  193.1850  174.9510  146.2610 C   0  0  0  0  0  2  0  0  0  0  0  0
  192.2940  172.4480  145.0130 O   0  0  0  0  0  0  0  0  0  0  0  0
  193.5090  175.5430  142.5850 C   0  0  0  0  0  3  0  0  0  0  0  0
  191.6350  172.2900  140.6780 C   0  0  2  0  0  3  0  0  0  0  0  0
  191.6180  172.3300  142.2290 C   0  0  0  0  0  2  0  0  0  0  0  0
  192.7480  173.1770  142.7650 C   0  0  1  0  0  3  0  0  0  0  0  0
  193.2780  174.5780  144.7750 N   0  0  0  0  0  0  0  0  0  0  0  0
  192.6910  174.5410  140.5220 C   0  0  0  0  0  2  0  0  0  0  0  0
  192.9330  174.5040  142.0210 C   0  0  0  0  0  0  0  0  0  0  0  0
  191.5020  173.7210  140.1550 C   0  0  0  0  0  2  0  0  0  0  0  0
  194.0360  175.5090  143.9660 C   0  0  0  0  0  2  0  0  0  0  0  0
  192.7440  173.3880  144.2770 C   0  0  0  0  0  0  0  0  0  0  0  0
  190.4730  171.5010  140.2050 C   0  0  0  0  0  0  0  0  0  0  0  0
  190.5320  170.2790  140.0680 O   0  0  0  0  0  1  0  0  0  0  0  0
  189.2840  172.1920  139.9060 O   0  0  0  0  0  0  0  0  0  0  0  0
  186.5220  177.4340  141.8290 N   0  0  0  0  0  2  0  0  0  0  0  0
  186.1240  177.8420  143.1110 C   0  0  0  0  0  0  0  0  0  0  0  0
  185.7450  179.4160  143.5310 S   0  0  0  0  0  0  0  0  0  0  0  0
  185.9340  176.7780  144.1450 C   0  0  0  0  0  1  0  0  0  0  0  0
  1  8  1  0  0  0  0
  2 12  2  0  0  0  0
  4  1  2  0  0  0  0
  5 15  1  6  0  0  0
  5  6  1  0  0  0  0
  7  3  1  6  0  0  0
  7  9  1  0  0  0  0
  8  7  1  0  0  0  0
  8  5  1  0  0  0  0
  9  6  1  0  0  0  0
 10 11  1  0  0  0  0
 10  2  1  0  0  0  0
 11 31  1  1  0  0  0
 11 13  1  0  0  0  0
 12  3  1  0  0  0  0
 14 13  1  1  0  0  0
 14 12  1  0  0  0  0
 14  1  1  0  0  0  0
 16 15  1  0  0  0  0
 18 26  1  0  0  0  0
 19 28  1  6  0  0  0
 19 20  1  0  0  0  0
 21 20  1  6  0  0  0
 21 27  1  0  0  0  0
 22 16  1  0  0  0  0
 23 24  1  0  0  0  0
 24 18  2  0  0  0  0
 24 21  1  0  0  0  0
 25 23  1  0  0  0  0
 25 19  1  0  0  0  0
 26 22  1  0  0  0  0
 27 22  1  0  0  0  0
 27 17  2  0  0  0  0
 29 28  1  0  0  0  0
 30 28  2  0  0  0  0
 31 32  1  0  0  0  0
 32 33  2  0  0  0  0
 32 34  1  0  0  0  0
M  END
>  <MODEL>
4

>  <REMARK>
 VINA RESULT:      -6.6      3.018      5.734
  Name = 
  6 active torsions:
  status: ('A' for Active; 'I' for Inactive)
    1  A    between atoms: C_3  and  N_25
    2  A    between atoms: C_7  and  C_11
    3  A    between atoms: C_8  and  C_17
    4  A    between atoms: C_8  and  N_18
    5  A    between atoms: C_10  and  C_17
    6  A    between atoms: N_25  and  C_27
                            x       y       z     vdW  Elec       q    Type
                         _______ _______ _______ _____ _____    ______ ____

>  <TORSDO>
F 6

$$$$
=
 OpenBabel11052420173D

 34 38  0  0  1  0  0  0  0  0999 V2000
  193.1560  173.4380  145.1560 C   0  0  0  0  0  0  0  0  0  0  0  0
  196.9210  173.4590  144.8720 C   0  0  0  0  0  3  0  0  0  0  0  0
  195.4330  175.2910  145.5600 C   0  0  0  0  0  2  0  0  0  0  0  0
  192.1470  172.7690  144.8710 O   0  0  0  0  0  0  0  0  0  0  0  0
  191.7990  175.2770  146.3210 C   0  0  2  0  0  3  0  0  0  0  0  0
  192.3210  176.3840  147.2490 C   0  0  0  0  0  2  0  0  0  0  0  0
  194.2250  175.2480  146.4600 C   0  0  2  0  0  3  0  0  0  0  0  0
  193.0690  174.7500  145.7630 N   0  0  0  0  0  0  0  0  0  0  0  0
  193.8030  176.6280  146.8890 C   0  0  0  0  0  2  0  0  0  0  0  0
  197.1560  172.1040  144.3480 C   0  0  0  0  0  2  0  0  0  0  0  0
  196.2330  171.0550  145.0880 C   0  0  2  0  0  3  0  0  0  0  0  0
  195.6800  173.8790  145.1220 C   0  0  0  0  0  0  0  0  0  0  0  0
  194.7870  171.5200  145.3630 C   0  0  0  0  0  2  0  0  0  0  0  0
  194.5240  172.9240  144.8410 C   0  0  1  0  0  3  0  0  0  0  0  0
  190.9910  175.8710  145.1680 C   0  0  0  0  0  2  0  0  0  0  0  0
  189.5650  175.3910  145.2140 C   0  0  0  0  0  2  0  0  0  0  0  0
  188.4400  176.1780  142.6200 O   0  0  0  0  0  0  0  0  0  0  0  0
  186.9310  177.9120  146.0360 C   0  0  0  0  0  3  0  0  0  0  0  0
  184.7930  178.6140  142.4760 C   0  0  2  0  0  3  0  0  0  0  0  0
  185.9380  177.5660  142.4410 C   0  0  0  0  0  2  0  0  0  0  0  0
  186.9380  177.8140  143.5460 C   0  0  1  0  0  3  0  0  0  0  0  0
  188.5700  176.5280  144.9490 N   0  0  0  0  0  0  0  0  0  0  0  0
  185.0120  178.9330  144.9370 C   0  0  0  0  0  2  0  0  0  0  0  0
  186.2960  178.1220  144.9030 C   0  0  0  0  0  0  0  0  0  0  0  0
  184.0970  178.5240  143.8350 C   0  0  0  0  0  2  0  0  0  0  0  0
  188.3100  177.3810  146.0890 C   0  0  0  0  0  2  0  0  0  0  0  0
  188.0350  176.7610  143.6800 C   0  0  0  0  0  0  0  0  0  0  0  0
  183.8120  178.2880  141.4150 C   0  0  0  0  0  0  0  0  0  0  0  0
  182.6000  178.2880  141.6300 O   0  0  0  0  0  1  0  0  0  0  0  0
  184.3050  177.9680  140.1360 O   0  0  0  0  0  0  0  0  0  0  0  0
  196.7870  170.5610  146.2960 N   0  0  0  0  0  2  0  0  0  0  0  0
  197.1110  169.2150  146.5180 C   0  0  0  0  0  0  0  0  0  0  0  0
  197.1940  168.4950  148.0250 S   0  0  0  0  0  0  0  0  0  0  0  0
  197.3010  168.3440  145.3170 C   0  0  0  0  0  1  0  0  0  0  0  0
  1  8  1  0  0  0  0
  2 12  2  0  0  0  0
  4  1  2  0  0  0  0
  5 15  1  6  0  0  0
  5  6  1  0  0  0  0
  7  3  1  6  0  0  0
  7  9  1  0  0  0  0
  8  5  1  0  0  0  0
  8  7  1  0  0  0  0
  9  6  1  0  0  0  0
 10  2  1  0  0  0  0
 10 11  1  0  0  0  0
 11 13  1  0  0  0  0
 11 31  1  1  0  0  0
 12  3  1  0  0  0  0
 14 12  1  0  0  0  0
 14  1  1  0  0  0  0
 14 13  1  1  0  0  0
 15 16  1  0  0  0  0
 17 27  2  0  0  0  0
 18 26  1  0  0  0  0
 19 28  1  6  0  0  0
 19 25  1  0  0  0  0
 20 19  1  0  0  0  0
 21 20  1  6  0  0  0
 21 27  1  0  0  0  0
 21 24  1  0  0  0  0
 22 16  1  0  0  0  0
 22 26  1  0  0  0  0
 24 23  1  0  0  0  0
 24 18  2  0  0  0  0
 25 23  1  0  0  0  0
 27 22  1  0  0  0  0
 28 29  1  0  0  0  0
 30 28  2  0  0  0  0
 31 32  1  0  0  0  0
 32 33  2  0  0  0  0
 34 32  1  0  0  0  0
M  END
>  <MODEL>
5

>  <REMARK>
 VINA RESULT:      -6.6      3.496      4.947
  Name = 
  6 active torsions:
  status: ('A' for Active; 'I' for Inactive)
    1  A    between atoms: C_3  and  N_25
    2  A    between atoms: C_7  and  C_11
    3  A    between atoms: C_8  and  C_17
    4  A    between atoms: C_8  and  N_18
    5  A    between atoms: C_10  and  C_17
    6  A    between atoms: N_25  and  C_27
                            x       y       z     vdW  Elec       q    Type
                         _______ _______ _______ _____ _____    ______ ____

>  <TORSDO>
F 6

$$$$
=
 OpenBabel11052420173D

 34 38  0  0  1  0  0  0  0  0999 V2000
  190.0260  173.1360  144.4670 C   0  0  0  0  0  0  0  0  0  0  0  0
  191.6870  176.5070  144.8350 C   0  0  0  0  0  3  0  0  0  0  0  0
  191.2900  175.2180  142.7790 C   0  0  0  0  0  2  0  0  0  0  0  0
  189.6150  172.1600  145.1200 O   0  0  0  0  0  0  0  0  0  0  0  0
  189.2820  172.1440  142.2210 C   0  0  2  0  0  3  0  0  0  0  0  0
  189.1500  172.8690  140.8730 C   0  0  0  0  0  2  0  0  0  0  0  0
  190.0670  174.4400  142.3650 C   0  0  2  0  0  3  0  0  0  0  0  0
  190.0140  173.1590  143.0190 N   0  0  0  0  0  0  0  0  0  0  0  0
  190.1050  174.0820  140.9030 C   0  0  0  0  0  2  0  0  0  0  0  0
  191.6680  176.6550  146.2980 C   0  0  0  0  0  2  0  0  0  0  0  0
  190.2810  176.1740  146.8860 C   0  0  2  0  0  3  0  0  0  0  0  0
  191.1800  175.4140  144.2610 C   0  0  0  0  0  0  0  0  0  0  0  0
  189.6950  174.8980  146.2470 C   0  0  0  0  0  2  0  0  0  0  0  0
  190.5970  174.3300  145.1620 C   0  0  1  0  0  3  0  0  0  0  0  0
  190.1810  170.9150  142.0900 C   0  0  0  0  0  2  0  0  0  0  0  0
  191.4430  171.2560  141.3440 C   0  0  0  0  0  2  0  0  0  0  0  0
  193.4960  173.2950  140.8450 O   0  0  0  0  0  0  0  0  0  0  0  0
  193.2150  171.6540  144.6110 C   0  0  0  0  0  3  0  0  0  0  0  0
  195.7220  175.0150  144.2130 C   0  0  2  0  0  3  0  0  0  0  0  0
  194.8240  174.6320  143.0060 C   0  0  0  0  0  2  0  0  0  0  0  0
  194.4350  173.1730  143.0570 C   0  0  1  0  0  3  0  0  0  0  0  0
  192.5720  171.6800  142.2940 N   0  0  0  0  0  0  0  0  0  0  0  0
  194.7000  173.2700  145.6680 C   0  0  0  0  0  2  0  0  0  0  0  0
  194.0010  172.6970  144.4470 C   0  0  0  0  0  0  0  0  0  0  0  0
  194.9490  174.7290  145.5010 C   0  0  0  0  0  2  0  0  0  0  0  0
  192.7060  170.8550  143.4760 C   0  0  0  0  0  2  0  0  0  0  0  0
  193.4450  172.7230  141.9850 C   0  0  0  0  0  0  0  0  0  0  0  0
  196.0200  176.4640  144.1470 C   0  0  0  0  0  0  0  0  0  0  0  0
  196.8600  176.9200  143.3710 O   0  0  0  0  0  0  0  0  0  0  0  0
  195.3150  177.3230  145.0120 O   0  0  0  0  0  1  0  0  0  0  0  0
  189.2820  177.1800  146.8860 N   0  0  0  0  0  2  0  0  0  0  0  0
  188.1280  177.1410  146.0910 C   0  0  0  0  0  0  0  0  0  0  0  0
  186.5960  176.7870  146.6590 S   0  0  0  0  0  0  0  0  0  0  0  0
  188.2660  177.5390  144.6550 C   0  0  0  0  0  1  0  0  0  0  0  0
  1  4  2  0  0  0  0
  1 14  1  0  0  0  0
  2 10  1  0  0  0  0
  3 12  1  0  0  0  0
  5 15  1  6  0  0  0
  5  8  1  0  0  0  0
  6  9  1  0  0  0  0
  6  5  1  0  0  0  0
  7  9  1  6  0  0  0
  7  3  1  0  0  0  0
  7  8  1  0  0  0  0
  8  1  1  0  0  0  0
 10 11  1  0  0  0  0
 11 31  1  6  0  0  0
 12  2  2  0  0  0  0
 12 14  1  0  0  0  0
 13 11  1  0  0  0  0
 14 13  1  6  0  0  0
 16 15  1  0  0  0  0
 16 22  1  0  0  0  0
 17 27  2  0  0  0  0
 19 28  1  6  0  0  0
 19 25  1  0  0  0  0
 20 19  1  0  0  0  0
 21 20  1  1  0  0  0
 21 24  1  0  0  0  0
 22 26  1  0  0  0  0
 24 18  2  0  0  0  0
 24 23  1  0  0  0  0
 25 23  1  0  0  0  0
 26 18  1  0  0  0  0
 27 22  1  0  0  0  0
 27 21  1  0  0  0  0
 28 30  1  0  0  0  0
 29 28  2  0  0  0  0
 32 33  2  0  0  0  0
 32 31  1  0  0  0  0
 34 32  1  0  0  0  0
M  END
>  <MODEL>
6

>  <REMARK>
 VINA RESULT:      -6.6      3.131      7.020
  Name = 
  6 active torsions:
  status: ('A' for Active; 'I' for Inactive)
    1  A    between atoms: C_3  and  N_25
    2  A    between atoms: C_7  and  C_11
    3  A    between atoms: C_8  and  C_17
    4  A    between atoms: C_8  and  N_18
    5  A    between atoms: C_10  and  C_17
    6  A    between atoms: N_25  and  C_27
                            x       y       z     vdW  Elec       q    Type
                         _______ _______ _______ _____ _____    ______ ____

>  <TORSDO>
F 6

$$$$
=
 OpenBabel11052420173D

 34 38  0  0  1  0  0  0  0  0999 V2000
  193.1620  174.8290  142.8270 C   0  0  0  0  0  0  0  0  0  0  0  0
  196.7020  175.5910  143.8980 C   0  0  0  0  0  3  0  0  0  0  0  0
  195.1560  173.9170  144.8200 C   0  0  0  0  0  2  0  0  0  0  0  0
  192.2290  175.2530  142.1200 O   0  0  0  0  0  0  0  0  0  0  0  0
  191.8540  172.7550  143.5810 C   0  0  2  0  0  3  0  0  0  0  0  0
  192.4050  171.4970  144.2680 C   0  0  0  0  0  2  0  0  0  0  0  0
  194.2190  172.9860  144.0950 C   0  0  2  0  0  3  0  0  0  0  0  0
  193.0200  173.6670  143.6800 N   0  0  0  0  0  0  0  0  0  0  0  0
  193.7030  171.9000  145.0020 C   0  0  0  0  0  2  0  0  0  0  0  0
  197.0120  176.7210  143.0080 C   0  0  0  0  0  2  0  0  0  0  0  0
  196.4640  176.4460  141.5510 C   0  0  2  0  0  3  0  0  0  0  0  0
  195.5060  175.0010  143.8470 C   0  0  0  0  0  0  0  0  0  0  0  0
  195.0720  175.7850  141.4770 C   0  0  0  0  0  2  0  0  0  0  0  0
  194.4780  175.5370  142.8550 C   0  0  1  0  0  3  0  0  0  0  0  0
  190.7130  173.3630  144.3960 C   0  0  0  0  0  2  0  0  0  0  0  0
  191.2380  174.4060  145.3480 C   0  0  0  0  0  2  0  0  0  0  0  0
  190.3110  176.8500  144.0130 O   0  0  0  0  0  0  0  0  0  0  0  0
  188.2010  175.4520  147.2600 C   0  0  0  0  0  3  0  0  0  0  0  0
  186.3980  178.5470  145.0450 C   0  0  2  0  0  3  0  0  0  0  0  0
  187.6750  177.8850  144.4610 C   0  0  0  0  0  2  0  0  0  0  0  0
  188.5010  177.2390  145.5490 C   0  0  1  0  0  3  0  0  0  0  0  0
  190.1290  175.3530  145.8260 N   0  0  0  0  0  0  0  0  0  0  0  0
  186.2940  176.9320  146.9390 C   0  0  0  0  0  2  0  0  0  0  0  0
  187.6740  176.4280  146.5540 C   0  0  0  0  0  0  0  0  0  0  0  0
  185.5740  177.4690  145.7500 C   0  0  0  0  0  2  0  0  0  0  0  0
  189.6260  175.0720  147.1540 C   0  0  0  0  0  2  0  0  0  0  0  0
  189.7130  176.4470  145.0650 C   0  0  0  0  0  0  0  0  0  0  0  0
  185.5970  179.1080  143.9330 C   0  0  0  0  0  0  0  0  0  0  0  0
  185.9650  179.0240  142.7610 O   0  0  0  0  0  0  0  0  0  0  0  0
  184.3890  179.7570  144.2520 O   0  0  0  0  0  1  0  0  0  0  0  0
  197.3590  175.7080  140.7360 N   0  0  0  0  0  2  0  0  0  0  0  0
  196.9670  174.6680  139.8800 C   0  0  0  0  0  0  0  0  0  0  0  0
  196.3760  174.8870  138.3310 S   0  0  0  0  0  0  0  0  0  0  0  0
  197.1860  173.2660  140.3530 C   0  0  0  0  0  1  0  0  0  0  0  0
  1 14  1  0  0  0  0
  1  8  1  0  0  0  0
  4  1  2  0  0  0  0
  5  8  1  0  0  0  0
  5  6  1  0  0  0  0
  5 15  1  1  0  0  0
  6  9  1  0  0  0  0
  7  3  1  1  0  0  0
  7  9  1  0  0  0  0
  8  7  1  0  0  0  0
 10  2  1  0  0  0  0
 11 31  1  1  0  0  0
 11 10  1  0  0  0  0
 12  2  2  0  0  0  0
 12  3  1  0  0  0  0
 13 11  1  0  0  0  0
 14 13  1  6  0  0  0
 14 12  1  0  0  0  0
 15 16  1  0  0  0  0
 16 22  1  0  0  0  0
 17 27  2  0  0  0  0
 19 28  1  6  0  0  0
 19 25  1  0  0  0  0
 20 19  1  0  0  0  0
 21 20  1  6  0  0  0
 21 24  1  0  0  0  0
 22 26  1  0  0  0  0
 24 23  1  0  0  0  0
 24 18  2  0  0  0  0
 25 23  1  0  0  0  0
 26 18  1  0  0  0  0
 27 21  1  0  0  0  0
 27 22  1  0  0  0  0
 28 30  1  0  0  0  0
 29 28  2  0  0  0  0
 32 34  1  0  0  0  0
 32 31  1  0  0  0  0
 33 32  2  0  0  0  0
M  END
>  <MODEL>
7

>  <REMARK>
 VINA RESULT:      -6.3      3.290      4.739
  Name = 
  6 active torsions:
  status: ('A' for Active; 'I' for Inactive)
    1  A    between atoms: C_3  and  N_25
    2  A    between atoms: C_7  and  C_11
    3  A    between atoms: C_8  and  C_17
    4  A    between atoms: C_8  and  N_18
    5  A    between atoms: C_10  and  C_17
    6  A    between atoms: N_25  and  C_27
                            x       y       z     vdW  Elec       q    Type
                         _______ _______ _______ _____ _____    ______ ____

>  <TORSDO>
F 6

$$$$
=
 OpenBabel11052420173D

 34 38  0  0  1  0  0  0  0  0999 V2000
  193.2820  173.4150  144.3300 C   0  0  0  0  0  0  0  0  0  0  0  0
  196.5180  172.3400  145.9520 C   0  0  0  0  0  3  0  0  0  0  0  0
  194.6020  170.9450  145.2980 C   0  0  0  0  0  2  0  0  0  0  0  0
  192.6090  174.4190  144.0360 O   0  0  0  0  0  0  0  0  0  0  0  0
  191.5870  171.7870  143.3000 C   0  0  2  0  0  3  0  0  0  0  0  0
  191.7960  170.3040  142.9630 C   0  0  0  0  0  2  0  0  0  0  0  0
  193.7640  171.0050  144.0470 C   0  0  2  0  0  3  0  0  0  0  0  0
  192.7960  172.0670  144.1140 N   0  0  0  0  0  0  0  0  0  0  0  0
  192.9150  169.7720  143.8870 C   0  0  0  0  0  2  0  0  0  0  0  0
  197.1710  173.6450  146.1340 C   0  0  0  0  0  2  0  0  0  0  0  0
  196.9670  174.5520  144.8550 C   0  0  2  0  0  3  0  0  0  0  0  0
  195.3080  172.2630  145.3930 C   0  0  0  0  0  0  0  0  0  0  0  0
  195.5650  174.4900  144.2130 C   0  0  0  0  0  2  0  0  0  0  0  0
  194.6270  173.5590  144.9660 C   0  0  1  0  0  3  0  0  0  0  0  0
  190.3640  171.9730  144.1980 C   0  0  0  0  0  2  0  0  0  0  0  0
  189.3110  172.7900  143.4990 C   0  0  0  0  0  2  0  0  0  0  0  0
  188.2330  175.2180  142.2500 O   0  0  0  0  0  0  0  0  0  0  0  0
  188.8890  175.2110  146.3140 C   0  0  0  0  0  3  0  0  0  0  0  0
  186.7300  178.4800  144.7700 C   0  0  2  0  0  3  0  0  0  0  0  0
  187.0200  177.2880  143.8190 C   0  0  0  0  0  2  0  0  0  0  0  0
  188.2190  176.4970  144.2870 C   0  0  1  0  0  3  0  0  0  0  0  0
  189.1130  174.1590  144.1640 N   0  0  0  0  0  0  0  0  0  0  0  0
  187.6950  177.2920  146.7350 C   0  0  0  0  0  2  0  0  0  0  0  0
  188.2300  176.2250  145.7960 C   0  0  0  0  0  0  0  0  0  0  0  0
  186.4710  177.9290  146.1730 C   0  0  0  0  0  2  0  0  0  0  0  0
  189.6790  174.2710  145.4920 C   0  0  0  0  0  2  0  0  0  0  0  0
  188.5120  175.2260  143.4950 C   0  0  0  0  0  0  0  0  0  0  0  0
  185.5120  179.1820  144.3010 C   0  0  0  0  0  0  0  0  0  0  0  0
  185.4430  180.4100  144.2680 O   0  0  0  0  0  1  0  0  0  0  0  0
  184.4150  178.3990  143.8940 O   0  0  0  0  0  0  0  0  0  0  0  0
  197.9370  174.3370  143.8440 N   0  0  0  0  0  2  0  0  0  0  0  0
  197.6440  173.8350  142.5680 C   0  0  0  0  0  0  0  0  0  0  0  0
  197.4670  174.7750  141.1960 S   0  0  0  0  0  0  0  0  0  0  0  0
  197.5850  172.3490  142.4090 C   0  0  0  0  0  1  0  0  0  0  0  0
  1 14  1  0  0  0  0
  2 10  1  0  0  0  0
  3 12  1  0  0  0  0
  4  1  2  0  0  0  0
  5  8  1  0  0  0  0
  5 15  1  1  0  0  0
  6  5  1  0  0  0  0
  6  9  1  0  0  0  0
  7  9  1  1  0  0  0
  7  8  1  0  0  0  0
  7  3  1  0  0  0  0
  8  1  1  0  0  0  0
 11 31  1  6  0  0  0
 11 10  1  0  0  0  0
 12  2  2  0  0  0  0
 13 11  1  0  0  0  0
 14 13  1  6  0  0  0
 14 12  1  0  0  0  0
 16 22  1  0  0  0  0
 16 15  1  0  0  0  0
 17 27  2  0  0  0  0
 19 28  1  6  0  0  0
 19 25  1  0  0  0  0
 20 19  1  0  0  0  0
 21 20  1  6  0  0  0
 21 24  1  0  0  0  0
 22 26  1  0  0  0  0
 24 18  2  0  0  0  0
 24 23  1  0  0  0  0
 25 23  1  0  0  0  0
 26 18  1  0  0  0  0
 27 22  1  0  0  0  0
 27 21  1  0  0  0  0
 29 28  1  0  0  0  0
 30 28  2  0  0  0  0
 32 31  1  0  0  0  0
 33 32  2  0  0  0  0
 34 32  1  0  0  0  0
M  END
>  <MODEL>
8

>  <REMARK>
 VINA RESULT:      -6.2      3.434      5.435
  Name = 
  6 active torsions:
  status: ('A' for Active; 'I' for Inactive)
    1  A    between atoms: C_3  and  N_25
    2  A    between atoms: C_7  and  C_11
    3  A    between atoms: C_8  and  C_17
    4  A    between atoms: C_8  and  N_18
    5  A    between atoms: C_10  and  C_17
    6  A    between atoms: N_25  and  C_27
                            x       y       z     vdW  Elec       q    Type
                         _______ _______ _______ _____ _____    ______ ____

>  <TORSDO>
F 6

$$$$
=
 OpenBabel11052420173D

 34 38  0  0  1  0  0  0  0  0999 V2000
  191.2340  173.5080  144.0920 C   0  0  0  0  0  0  0  0  0  0  0  0
  191.5470  173.6860  140.3340 C   0  0  0  0  0  3  0  0  0  0  0  0
  193.0630  174.6070  142.0360 C   0  0  0  0  0  2  0  0  0  0  0  0
  190.4450  173.2040  145.0060 O   0  0  0  0  0  0  0  0  0  0  0  0
  193.1240  174.1160  145.7170 C   0  0  2  0  0  3  0  0  0  0  0  0
  194.6110  174.3230  145.3910 C   0  0  0  0  0  2  0  0  0  0  0  0
  193.5370  173.9850  143.3250 C   0  0  2  0  0  3  0  0  0  0  0  0
  192.5370  174.0850  144.3540 N   0  0  0  0  0  0  0  0  0  0  0  0
  194.7070  174.7340  143.9050 C   0  0  0  0  0  2  0  0  0  0  0  0
  190.2990  173.0200  139.9300 C   0  0  0  0  0  2  0  0  0  0  0  0
  190.0300  171.7510  140.8350 C   0  0  2  0  0  3  0  0  0  0  0  0
  191.8410  173.8410  141.6260 C   0  0  0  0  0  0  0  0  0  0  0  0
  190.3440  171.9250  142.3360 C   0  0  0  0  0  2  0  0  0  0  0  0
  190.8470  173.3230  142.6610 C   0  0  1  0  0  3  0  0  0  0  0  0
  192.5540  175.3330  146.4450 C   0  0  0  0  0  2  0  0  0  0  0  0
  191.9780  176.3180  145.4630 C   0  0  0  0  0  2  0  0  0  0  0  0
  190.1830  178.0640  143.9310 O   0  0  0  0  0  0  0  0  0  0  0  0
  188.7070  176.1500  147.2640 C   0  0  0  0  0  3  0  0  0  0  0  0
  185.8820  178.0650  144.7980 C   0  0  2  0  0  3  0  0  0  0  0  0
  187.3400  177.9490  144.2770 C   0  0  0  0  0  2  0  0  0  0  0  0
  188.3140  177.7780  145.4180 C   0  0  1  0  0  3  0  0  0  0  0  0
  190.5600  176.7550  145.8560 N   0  0  0  0  0  0  0  0  0  0  0  0
  186.3740  176.6860  146.8130 C   0  0  0  0  0  2  0  0  0  0  0  0
  187.8540  176.7710  146.4790 C   0  0  0  0  0  0  0  0  0  0  0  0
  185.5450  176.7950  145.5800 C   0  0  0  0  0  2  0  0  0  0  0  0
  190.1650  176.3840  147.1990 C   0  0  0  0  0  2  0  0  0  0  0  0
  189.7620  177.5240  145.0080 C   0  0  0  0  0  0  0  0  0  0  0  0
  184.9650  178.1680  143.6380 C   0  0  0  0  0  0  0  0  0  0  0  0
  184.0270  178.9650  143.6210 O   0  0  0  0  0  1  0  0  0  0  0  0
  185.1910  177.3150  142.5410 O   0  0  0  0  0  0  0  0  0  0  0  0
  190.6720  170.5750  140.3720 N   0  0  0  0  0  2  0  0  0  0  0  0
  190.8930  170.2810  139.0190 C   0  0  0  0  0  0  0  0  0  0  0  0
  192.3970  170.0090  138.3400 S   0  0  0  0  0  0  0  0  0  0  0  0
  189.6900  170.1020  138.1470 C   0  0  0  0  0  1  0  0  0  0  0  0
  1  8  1  0  0  0  0
  1  4  2  0  0  0  0
  2 12  2  0  0  0  0
  5 15  1  1  0  0  0
  6  5  1  0  0  0  0
  7  3  1  6  0  0  0
  7  9  1  0  0  0  0
  7  8  1  0  0  0  0
  8  5  1  0  0  0  0
  9  6  1  0  0  0  0
 10  2  1  0  0  0  0
 10 11  1  0  0  0  0
 11 31  1  6  0  0  0
 11 13  1  0  0  0  0
 12  3  1  0  0  0  0
 12 14  1  0  0  0  0
 14 13  1  6  0  0  0
 14  1  1  0  0  0  0
 16 22  1  0  0  0  0
 16 15  1  0  0  0  0
 17 27  2  0  0  0  0
 19 28  1  6  0  0  0
 19 25  1  0  0  0  0
 20 19  1  0  0  0  0
 21 20  1  6  0  0  0
 21 24  1  0  0  0  0
 22 26  1  0  0  0  0
 24 23  1  0  0  0  0
 24 18  2  0  0  0  0
 25 23  1  0  0  0  0
 26 18  1  0  0  0  0
 27 21  1  0  0  0  0
 27 22  1  0  0  0  0
 29 28  1  0  0  0  0
 30 28  2  0  0  0  0
 32 31  1  0  0  0  0
 33 32  2  0  0  0  0
 34 32  1  0  0  0  0
M  END
>  <MODEL>
9

>  <REMARK>
 VINA RESULT:      -6.1      1.716      2.040
  Name = 
  6 active torsions:
  status: ('A' for Active; 'I' for Inactive)
    1  A    between atoms: C_3  and  N_25
    2  A    between atoms: C_7  and  C_11
    3  A    between atoms: C_8  and  C_17
    4  A    between atoms: C_8  and  N_18
    5  A    between atoms: C_10  and  C_17
    6  A    between atoms: N_25  and  C_27
                            x       y       z     vdW  Elec       q    Type
                         _______ _______ _______ _____ _____    ______ ____

>  <TORSDO>
F 6

$$$$
