=
 OpenBabel11052420583D

 43 48  0  0  1  0  0  0  0  0999 V2000
  185.0310  177.5160  146.4560 C   0  0  1  0  0  3  0  0  0  0  0  0
  188.5900  175.4680  143.3850 C   0  0  0  0  0  0  0  0  0  0  0  0
  190.7100  174.8500  145.0720 C   0  0  0  0  0  0  0  0  0  0  0  0
  186.3560  176.8050  144.4420 C   0  0  0  0  0  0  0  0  0  0  0  0
  186.3580  177.8640  147.1100 C   0  0  0  0  0  2  0  0  0  0  0  0
  184.0520  178.4170  146.8750 O   0  0  0  0  0  1  0  0  0  0  0  0
  187.4510  176.4990  145.2850 C   0  0  0  0  0  0  0  0  0  0  0  0
  185.1760  177.5920  144.9400 C   0  0  0  0  0  2  0  0  0  0  0  0
  187.3900  176.7930  146.7660 C   0  0  0  0  0  2  0  0  0  0  0  0
  189.6170  175.4960  145.5540 N   0  0  0  0  0  0  0  0  0  0  0  0
  188.5630  175.8200  144.7560 C   0  0  0  0  0  0  0  0  0  0  0  0
  187.5060  175.7950  142.5630 C   0  0  0  0  0  3  0  0  0  0  0  0
  189.7030  174.7860  142.8700 C   0  0  0  0  0  0  0  0  0  0  0  0
  190.7690  174.4810  143.7280 C   0  0  0  0  0  3  0  0  0  0  0  0
  186.4010  176.4640  143.0890 C   0  0  0  0  0  3  0  0  0  0  0  0
  189.7280  174.4150  141.5130 O   0  0  0  0  0  0  0  0  0  0  0  0
  192.3910  172.5400  139.5890 C   0  0  0  0  0  2  0  0  0  0  0  0
  191.4490  171.6750  138.7550 C   0  0  2  0  0  3  0  0  0  0  0  0
  189.5110  172.3750  140.1790 C   0  0  0  0  0  2  0  0  0  0  0  0
  191.6430  173.7470  140.1450 C   0  0  0  0  0  2  0  0  0  0  0  0
  190.4390  173.2950  140.9780 C   0  0  1  0  0  3  0  0  0  0  0  0
  190.2910  171.1860  139.6250 C   0  0  0  0  0  2  0  0  0  0  0  0
  193.5820  170.6590  138.4240 O   0  0  0  0  0  1  0  0  0  0  0  0
  192.2170  170.4930  138.1920 C   0  0  0  0  0  2  0  0  0  0  0  0
  191.8250  174.4940  145.9930 C   0  0  0  0  0  2  0  0  0  0  0  0
  192.4150  175.7550  146.6000 C   0  0  0  0  0  2  0  0  0  0  0  0
  193.9330  175.7480  146.4760 C   0  0  2  0  0  3  0  0  0  0  0  0
  194.7750  177.6900  145.3740 O   0  0  0  0  0  1  0  0  0  0  0  0
  194.4860  177.1560  146.6290 C   0  0  0  0  0  2  0  0  0  0  0  0
  194.3930  175.1260  145.1560 C   0  0  0  0  0  2  0  0  0  0  0  0
  195.5820  174.2910  145.3440 N   0  0  0  0  0  0  0  0  0  0  0  0
  197.1400  172.3140  144.5800 S   0  0  0  0  0  0  0  0  0  0  0  0
  196.6650  174.9370  144.7280 N   0  0  0  0  0  2  0  0  0  0  0  0
  195.4530  172.9710  144.7090 C   0  0  1  0  0  0  0  0  0  0  0  0
  194.6390  172.0580  145.6150 C   0  0  0  0  0  1  0  0  0  0  0  0
  197.7800  174.0020  144.7730 C   0  0  0  0  0  2  0  0  0  0  0  0
  194.8250  173.0610  143.2960 C   0  0  0  0  0  2  0  0  0  0  0  0
  194.0590  171.8450  142.8710 C   0  0  0  0  0  0  0  0  0  0  0  0
  193.9760  169.7160  141.7150 C   0  0  0  0  0  3  0  0  0  0  0  0
  192.0160  170.5380  142.8760 C   0  0  0  0  0  3  0  0  0  0  0  0
  192.6420  169.5560  142.1010 C   0  0  0  0  0  3  0  0  0  0  0  0
  192.7240  171.6810  143.2600 C   0  0  0  0  0  3  0  0  0  0  0  0
  194.6850  170.8560  142.1030 C   0  0  0  0  0  3  0  0  0  0  0  0
  1  6  1  1  0  0  0
  1  5  1  0  0  0  0
  2 11  1  0  0  0  0
  3 10  1  0  0  0  0
  3 25  1  0  0  0  0
  4  8  1  0  0  0  0
  4  7  2  0  0  0  0
  7  9  1  0  0  0  0
  8  1  1  0  0  0  0
  9  5  1  0  0  0  0
 11  7  1  0  0  0  0
 11 10  2  0  0  0  0
 12 15  2  0  0  0  0
 12  2  1  0  0  0  0
 13  2  2  0  0  0  0
 13 14  1  0  0  0  0
 14  3  2  0  0  0  0
 15  4  1  0  0  0  0
 16 13  1  0  0  0  0
 17 20  1  0  0  0  0
 18 24  1  1  0  0  0
 18 17  1  0  0  0  0
 18 22  1  0  0  0  0
 19 21  1  0  0  0  0
 20 21  1  0  0  0  0
 21 16  1  6  0  0  0
 22 19  1  0  0  0  0
 24 23  1  0  0  0  0
 25 26  1  0  0  0  0
 27 30  1  6  0  0  0
 27 26  1  0  0  0  0
 27 29  1  0  0  0  0
 28 29  1  0  0  0  0
 30 31  1  0  0  0  0
 32 34  1  0  0  0  0
 32 36  1  0  0  0  0
 33 36  1  0  0  0  0
 33 31  1  0  0  0  0
 34 31  1  0  0  0  0
 34 35  1  1  0  0  0
 37 34  1  0  0  0  0
 38 42  1  0  0  0  0
 38 37  1  0  0  0  0
 39 41  2  0  0  0  0
 39 43  1  0  0  0  0
 40 42  2  0  0  0  0
 41 40  1  0  0  0  0
 43 38  2  0  0  0  0
M  END
>  <MODEL>
1

>  <REMARK>
 VINA RESULT:      -6.9      0.000      0.000
  Name = 
  11 active torsions:
  status: ('A' for Active; 'I' for Inactive)
    1  A    between atoms: O_1  and  C_34
    2  A    between atoms: O_1  and  C_35
    3  A    between atoms: C_2  and  C_6
    4  A    between atoms: C_2  and  C_13
    5  A    between atoms: C_3  and  N_4
    6  A    between atoms: C_3  and  C_12
    7  A    between atoms: C_6  and  C_12
    8  A    between atoms: C_11  and  C_14
    9  A    between atoms: C_12  and  C_17
   10  A    between atoms: C_14  and  C_22
   11  A    between atoms: C_19  and  C_37
                            x       y       z     vdW  Elec       q    Type
                         _______ _______ _______ _____ _____    ______ ____

>  <TORSDO>
F 11

$$$$
=
 OpenBabel11052420583D

 43 48  0  0  1  0  0  0  0  0999 V2000
  196.1550  173.5790  145.7150 C   0  0  1  0  0  3  0  0  0  0  0  0
  191.2560  175.0890  145.5850 C   0  0  0  0  0  0  0  0  0  0  0  0
  189.9610  173.1600  144.0610 C   0  0  0  0  0  0  0  0  0  0  0  0
  194.0450  174.9340  145.8900 C   0  0  0  0  0  0  0  0  0  0  0  0
  195.6230  173.0670  144.3860 C   0  0  0  0  0  2  0  0  0  0  0  0
  197.5430  173.6950  145.6510 O   0  0  0  0  0  1  0  0  0  0  0  0
  193.3740  173.9690  145.1020 C   0  0  0  0  0  0  0  0  0  0  0  0
  195.5430  174.9430  146.0150 C   0  0  0  0  0  2  0  0  0  0  0  0
  194.1250  172.8010  144.5070 C   0  0  0  0  0  2  0  0  0  0  0  0
  191.3080  173.1120  144.2260 N   0  0  0  0  0  0  0  0  0  0  0  0
  191.9770  174.0430  144.9600 C   0  0  0  0  0  0  0  0  0  0  0  0
  191.9400  176.0450  146.3450 C   0  0  0  0  0  3  0  0  0  0  0  0
  189.8620  175.1490  145.4400 C   0  0  0  0  0  0  0  0  0  0  0  0
  189.2170  174.1730  144.6670 C   0  0  0  0  0  3  0  0  0  0  0  0
  193.3250  175.9690  146.4900 C   0  0  0  0  0  3  0  0  0  0  0  0
  189.1370  176.1750  146.0740 O   0  0  0  0  0  0  0  0  0  0  0  0
  186.3490  178.2420  144.5720 C   0  0  0  0  0  2  0  0  0  0  0  0
  185.5280  178.4100  145.8470 C   0  0  2  0  0  3  0  0  0  0  0  0
  186.9320  176.6880  147.0030 C   0  0  0  0  0  2  0  0  0  0  0  0
  187.7820  177.8490  144.9150 C   0  0  0  0  0  2  0  0  0  0  0  0
  187.8000  176.5620  145.7470 C   0  0  1  0  0  3  0  0  0  0  0  0
  185.5100  177.0950  146.6270 C   0  0  0  0  0  2  0  0  0  0  0  0
  183.9540  178.8120  144.0990 O   0  0  0  0  0  1  0  0  0  0  0  0
  184.1130  178.8240  145.4860 C   0  0  0  0  0  2  0  0  0  0  0  0
  189.2740  172.1020  143.2700 C   0  0  0  0  0  2  0  0  0  0  0  0
  188.4480  172.7380  142.1660 C   0  0  0  0  0  2  0  0  0  0  0  0
  189.2580  172.8310  140.8790 C   0  0  2  0  0  3  0  0  0  0  0  0
  188.2450  173.8090  138.9520 O   0  0  0  0  0  1  0  0  0  0  0  0
  188.3610  172.6190  139.6700 C   0  0  0  0  0  2  0  0  0  0  0  0
  190.4250  171.8430  140.8680 C   0  0  0  0  0  2  0  0  0  0  0  0
  190.9110  171.6040  139.5060 N   0  0  0  0  0  0  0  0  0  0  0  0
  192.8730  171.4890  137.7590 S   0  0  0  0  0  0  0  0  0  0  0  0
  191.1620  170.2290  139.3740 N   0  0  0  0  0  2  0  0  0  0  0  0
  192.1750  172.2990  139.2260 C   0  0  1  0  0  0  0  0  0  0  0  0
  191.8810  173.7540  138.8900 C   0  0  0  0  0  1  0  0  0  0  0  0
  191.8100  170.0530  138.0830 C   0  0  0  0  0  2  0  0  0  0  0  0
  193.1770  172.1870  140.4020 C   0  0  0  0  0  2  0  0  0  0  0  0
  193.7460  173.4930  140.8670 C   0  0  0  0  0  0  0  0  0  0  0  0
  195.6330  174.9990  141.0920 C   0  0  0  0  0  3  0  0  0  0  0  0
  193.4490  175.6680  141.8990 C   0  0  0  0  0  3  0  0  0  0  0  0
  194.8070  175.9450  141.7070 C   0  0  0  0  0  3  0  0  0  0  0  0
  192.9200  174.4430  141.4810 C   0  0  0  0  0  3  0  0  0  0  0  0
  195.1030  173.7770  140.6690 C   0  0  0  0  0  3  0  0  0  0  0  0
  1  6  1  6  0  0  0
  1  8  1  0  0  0  0
  2 12  1  0  0  0  0
  3 10  2  0  0  0  0
  3 14  1  0  0  0  0
  4  8  1  0  0  0  0
  4 15  1  0  0  0  0
  5  9  1  0  0  0  0
  5  1  1  0  0  0  0
  7  4  2  0  0  0  0
  9  7  1  0  0  0  0
 10 11  1  0  0  0  0
 11  7  1  0  0  0  0
 11  2  2  0  0  0  0
 12 15  2  0  0  0  0
 13  2  1  0  0  0  0
 13 16  1  0  0  0  0
 14 13  2  0  0  0  0
 17 20  1  0  0  0  0
 17 18  1  0  0  0  0
 18 24  1  6  0  0  0
 18 22  1  0  0  0  0
 20 21  1  0  0  0  0
 21 16  1  1  0  0  0
 21 19  1  0  0  0  0
 22 19  1  0  0  0  0
 23 24  1  0  0  0  0
 25  3  1  0  0  0  0
 26 25  1  0  0  0  0
 27 29  1  6  0  0  0
 27 26  1  0  0  0  0
 28 29  1  0  0  0  0
 30 27  1  0  0  0  0
 31 30  1  0  0  0  0
 32 36  1  0  0  0  0
 32 34  1  0  0  0  0
 33 31  1  0  0  0  0
 34 35  1  6  0  0  0
 34 31  1  0  0  0  0
 34 37  1  0  0  0  0
 36 33  1  0  0  0  0
 37 38  1  0  0  0  0
 38 42  1  0  0  0  0
 39 41  2  0  0  0  0
 41 40  1  0  0  0  0
 42 40  2  0  0  0  0
 43 38  2  0  0  0  0
 43 39  1  0  0  0  0
M  END
>  <MODEL>
2

>  <REMARK>
 VINA RESULT:      -6.9      2.878      7.958
  Name = 
  11 active torsions:
  status: ('A' for Active; 'I' for Inactive)
    1  A    between atoms: O_1  and  C_34
    2  A    between atoms: O_1  and  C_35
    3  A    between atoms: C_2  and  C_6
    4  A    between atoms: C_2  and  C_13
    5  A    between atoms: C_3  and  N_4
    6  A    between atoms: C_3  and  C_12
    7  A    between atoms: C_6  and  C_12
    8  A    between atoms: C_11  and  C_14
    9  A    between atoms: C_12  and  C_17
   10  A    between atoms: C_14  and  C_22
   11  A    between atoms: C_19  and  C_37
                            x       y       z     vdW  Elec       q    Type
                         _______ _______ _______ _____ _____    ______ ____

>  <TORSDO>
F 11

$$$$
=
 OpenBabel11052420583D

 43 48  0  0  1  0  0  0  0  0999 V2000
  190.9510  170.1880  137.2870 C   0  0  1  0  0  3  0  0  0  0  0  0
  188.8610  173.6360  140.4570 C   0  0  0  0  0  0  0  0  0  0  0  0
  189.7040  172.8690  142.9920 C   0  0  0  0  0  0  0  0  0  0  0  0
  189.5310  172.0220  138.2560 C   0  0  0  0  0  0  0  0  0  0  0  0
  190.7360  169.4400  138.5930 C   0  0  0  0  0  2  0  0  0  0  0  0
  191.0160  169.2800  136.2310 O   0  0  0  0  0  1  0  0  0  0  0  0
  189.9380  171.6360  139.5540 C   0  0  0  0  0  0  0  0  0  0  0  0
  189.7910  171.1530  137.0580 C   0  0  0  0  0  2  0  0  0  0  0  0
  190.8120  170.4210  139.7600 C   0  0  0  0  0  2  0  0  0  0  0  0
  190.0110  172.1090  141.9090 N   0  0  0  0  0  0  0  0  0  0  0  0
  189.6100  172.4510  140.6530 C   0  0  0  0  0  0  0  0  0  0  0  0
  188.4530  173.9930  139.1670 C   0  0  0  0  0  3  0  0  0  0  0  0
  188.5460  174.4430  141.5610 C   0  0  0  0  0  0  0  0  0  0  0  0
  188.9730  174.0470  142.8360 C   0  0  0  0  0  3  0  0  0  0  0  0
  188.7810  173.1870  138.0770 C   0  0  0  0  0  3  0  0  0  0  0  0
  187.8190  175.6330  141.3700 O   0  0  0  0  0  0  0  0  0  0  0  0
  185.7250  177.2410  144.0790 C   0  0  0  0  0  2  0  0  0  0  0  0
  185.7860  178.6690  143.5430 C   0  0  2  0  0  3  0  0  0  0  0  0
  187.5690  178.0050  141.9150 C   0  0  0  0  0  2  0  0  0  0  0  0
  186.0800  176.2490  142.9760 C   0  0  0  0  0  2  0  0  0  0  0  0
  187.4670  176.5570  142.4030 C   0  0  1  0  0  3  0  0  0  0  0  0
  187.1950  178.9710  143.0360 C   0  0  0  0  0  2  0  0  0  0  0  0
  185.3660  178.9710  145.8730 O   0  0  0  0  0  1  0  0  0  0  0  0
  185.4070  179.6390  144.6480 C   0  0  0  0  0  2  0  0  0  0  0  0
  190.1890  172.4650  144.3400 C   0  0  0  0  0  2  0  0  0  0  0  0
  191.3300  171.4730  144.2020 C   0  0  0  0  0  2  0  0  0  0  0  0
  192.6510  172.2040  144.0000 C   0  0  2  0  0  3  0  0  0  0  0  0
  193.2620  170.1610  142.9280 O   0  0  0  0  0  1  0  0  0  0  0  0
  193.7640  171.2160  143.6910 C   0  0  0  0  0  2  0  0  0  0  0  0
  193.0150  173.0670  145.2090 C   0  0  0  0  0  2  0  0  0  0  0  0
  193.7860  174.2480  144.8120 N   0  0  0  0  0  0  0  0  0  0  0  0
  194.3440  176.8070  145.0460 S   0  0  0  0  0  0  0  0  0  0  0  0
  194.9680  174.2660  145.5700 N   0  0  0  0  0  2  0  0  0  0  0  0
  193.0790  175.5060  145.0920 C   0  0  1  0  0  0  0  0  0  0  0  0
  192.0660  175.7660  143.9860 C   0  0  0  0  0  1  0  0  0  0  0  0
  195.6180  175.5360  145.2850 C   0  0  0  0  0  2  0  0  0  0  0  0
  192.3990  175.4980  146.4830 C   0  0  0  0  0  2  0  0  0  0  0  0
  190.9330  175.8120  146.4670 C   0  0  0  0  0  0  0  0  0  0  0  0
  188.6450  175.1770  146.9540 C   0  0  0  0  0  3  0  0  0  0  0  0
  189.1170  177.3450  145.9810 C   0  0  0  0  0  3  0  0  0  0  0  0
  188.1970  176.4080  146.4660 C   0  0  0  0  0  3  0  0  0  0  0  0
  190.4830  177.0460  145.9810 C   0  0  0  0  0  3  0  0  0  0  0  0
  190.0110  174.8810  146.9580 C   0  0  0  0  0  3  0  0  0  0  0  0
  1  6  1  6  0  0  0
  1  5  1  0  0  0  0
  2 11  1  0  0  0  0
  2 13  1  0  0  0  0
  3 25  1  0  0  0  0
  4  7  1  0  0  0  0
  5  9  1  0  0  0  0
  7  9  1  0  0  0  0
  7 11  2  0  0  0  0
  8  1  1  0  0  0  0
  8  4  1  0  0  0  0
 10  3  2  0  0  0  0
 11 10  1  0  0  0  0
 12  2  2  0  0  0  0
 13 14  2  0  0  0  0
 14  3  1  0  0  0  0
 15  4  2  0  0  0  0
 15 12  1  0  0  0  0
 16 13  1  0  0  0  0
 18 17  1  0  0  0  0
 18 24  1  1  0  0  0
 19 21  1  0  0  0  0
 19 22  1  0  0  0  0
 20 17  1  0  0  0  0
 21 16  1  6  0  0  0
 21 20  1  0  0  0  0
 22 18  1  0  0  0  0
 24 23  1  0  0  0  0
 26 25  1  0  0  0  0
 27 29  1  1  0  0  0
 27 26  1  0  0  0  0
 27 30  1  0  0  0  0
 28 29  1  0  0  0  0
 31 34  1  0  0  0  0
 31 30  1  0  0  0  0
 31 33  1  0  0  0  0
 32 34  1  0  0  0  0
 32 36  1  0  0  0  0
 34 35  1  6  0  0  0
 34 37  1  0  0  0  0
 36 33  1  0  0  0  0
 38 37  1  0  0  0  0
 38 43  1  0  0  0  0
 39 43  2  0  0  0  0
 40 42  1  0  0  0  0
 40 41  2  0  0  0  0
 41 39  1  0  0  0  0
 42 38  2  0  0  0  0
M  END
>  <MODEL>
3

>  <REMARK>
 VINA RESULT:      -6.8      2.386      7.588
  Name = 
  11 active torsions:
  status: ('A' for Active; 'I' for Inactive)
    1  A    between atoms: O_1  and  C_34
    2  A    between atoms: O_1  and  C_35
    3  A    between atoms: C_2  and  C_6
    4  A    between atoms: C_2  and  C_13
    5  A    between atoms: C_3  and  N_4
    6  A    between atoms: C_3  and  C_12
    7  A    between atoms: C_6  and  C_12
    8  A    between atoms: C_11  and  C_14
    9  A    between atoms: C_12  and  C_17
   10  A    between atoms: C_14  and  C_22
   11  A    between atoms: C_19  and  C_37
                            x       y       z     vdW  Elec       q    Type
                         _______ _______ _______ _____ _____    ______ ____

>  <TORSDO>
F 11

$$$$
=
 OpenBabel11052420583D

 43 48  0  0  1  0  0  0  0  0999 V2000
  184.6590  178.0430  145.7530 C   0  0  1  0  0  3  0  0  0  0  0  0
  188.7880  175.8720  143.6230 C   0  0  0  0  0  0  0  0  0  0  0  0
  190.7330  175.9540  145.6060 C   0  0  0  0  0  0  0  0  0  0  0  0
  186.3010  177.0880  144.1070 C   0  0  0  0  0  0  0  0  0  0  0  0
  185.8450  178.7120  146.4290 C   0  0  0  0  0  2  0  0  0  0  0  0
  183.5390  178.8690  145.8470 O   0  0  0  0  0  1  0  0  0  0  0  0
  187.3070  177.1370  145.1010 C   0  0  0  0  0  0  0  0  0  0  0  0
  184.9860  177.7940  144.2840 C   0  0  0  0  0  2  0  0  0  0  0  0
  187.0270  177.7460  146.4540 C   0  0  0  0  0  2  0  0  0  0  0  0
  189.5220  176.5340  145.8110 N   0  0  0  0  0  0  0  0  0  0  0  0
  188.5470  176.5180  144.8600 C   0  0  0  0  0  0  0  0  0  0  0  0
  187.7860  175.8500  142.6460 C   0  0  0  0  0  3  0  0  0  0  0  0
  190.0270  175.2540  143.3980 C   0  0  0  0  0  0  0  0  0  0  0  0
  191.0030  175.3030  144.4020 C   0  0  0  0  0  3  0  0  0  0  0  0
  186.5550  176.4590  142.8870 C   0  0  0  0  0  3  0  0  0  0  0  0
  190.2660  174.5930  142.1780 O   0  0  0  0  0  0  0  0  0  0  0  0
  191.9500  171.6430  140.5160 C   0  0  0  0  0  2  0  0  0  0  0  0
  190.8960  170.5970  140.8710 C   0  0  2  0  0  3  0  0  0  0  0  0
  189.8020  172.2060  142.4480 C   0  0  0  0  0  2  0  0  0  0  0  0
  191.3610  173.0450  140.6350 C   0  0  0  0  0  2  0  0  0  0  0  0
  190.8170  173.2800  142.0470 C   0  0  1  0  0  3  0  0  0  0  0  0
  190.4150  170.8160  142.3060 C   0  0  0  0  0  2  0  0  0  0  0  0
  190.5560  168.3470  140.1550 O   0  0  0  0  0  1  0  0  0  0  0  0
  191.4930  169.2090  140.7250 C   0  0  0  0  0  2  0  0  0  0  0  0
  191.7550  175.9760  146.6880 C   0  0  0  0  0  2  0  0  0  0  0  0
  192.8120  174.9190  146.4210 C   0  0  0  0  0  2  0  0  0  0  0  0
  194.2050  175.5360  146.4540 C   0  0  2  0  0  3  0  0  0  0  0  0
  194.9340  177.5970  145.4950 O   0  0  0  0  0  1  0  0  0  0  0  0
  194.1130  177.0540  146.4840 C   0  0  0  0  0  2  0  0  0  0  0  0
  195.0630  175.0680  145.2790 C   0  0  0  0  0  2  0  0  0  0  0  0
  195.3350  173.6300  145.3540 N   0  0  0  0  0  0  0  0  0  0  0  0
  196.2770  171.4160  144.2920 S   0  0  0  0  0  0  0  0  0  0  0  0
  196.5790  173.4590  145.9830 N   0  0  0  0  0  2  0  0  0  0  0  0
  195.4350  173.0030  144.0280 C   0  0  1  0  0  0  0  0  0  0  0  0
  194.0350  172.7340  143.4960 C   0  0  0  0  0  1  0  0  0  0  0  0
  196.9010  172.0440  145.8780 C   0  0  0  0  0  2  0  0  0  0  0  0
  196.2560  173.8620  143.0350 C   0  0  0  0  0  2  0  0  0  0  0  0
  195.6630  173.9740  141.6630 C   0  0  0  0  0  0  0  0  0  0  0  0
  195.3000  173.0500  139.4520 C   0  0  0  0  0  3  0  0  0  0  0  0
  194.3210  175.1850  140.0450 C   0  0  0  0  0  3  0  0  0  0  0  0
  194.5290  174.1650  139.1100 C   0  0  0  0  0  3  0  0  0  0  0  0
  194.8880  175.0890  141.3200 C   0  0  0  0  0  3  0  0  0  0  0  0
  195.8630  172.9530  140.7280 C   0  0  0  0  0  3  0  0  0  0  0  0
  1  6  1  6  0  0  0
  1  5  1  0  0  0  0
  2 11  1  0  0  0  0
  3 10  1  0  0  0  0
  3 25  1  0  0  0  0
  4  8  1  0  0  0  0
  4  7  2  0  0  0  0
  5  9  1  0  0  0  0
  7  9  1  0  0  0  0
  8  1  1  0  0  0  0
 11  7  1  0  0  0  0
 11 10  2  0  0  0  0
 12 15  2  0  0  0  0
 12  2  1  0  0  0  0
 13  2  2  0  0  0  0
 13 14  1  0  0  0  0
 14  3  2  0  0  0  0
 15  4  1  0  0  0  0
 16 13  1  0  0  0  0
 17 20  1  0  0  0  0
 17 18  1  0  0  0  0
 18 24  1  1  0  0  0
 18 22  1  0  0  0  0
 20 21  1  0  0  0  0
 21 16  1  6  0  0  0
 21 19  1  0  0  0  0
 22 19  1  0  0  0  0
 23 24  1  0  0  0  0
 26 27  1  0  0  0  0
 26 25  1  0  0  0  0
 27 30  1  6  0  0  0
 27 29  1  0  0  0  0
 28 29  1  0  0  0  0
 30 31  1  0  0  0  0
 31 33  1  0  0  0  0
 32 36  1  0  0  0  0
 34 35  1  6  0  0  0
 34 32  1  0  0  0  0
 34 31  1  0  0  0  0
 36 33  1  0  0  0  0
 37 34  1  0  0  0  0
 38 37  1  0  0  0  0
 39 43  1  0  0  0  0
 40 42  2  0  0  0  0
 41 39  2  0  0  0  0
 41 40  1  0  0  0  0
 42 38  1  0  0  0  0
 43 38  2  0  0  0  0
M  END
>  <MODEL>
4

>  <REMARK>
 VINA RESULT:      -6.8      1.566      2.202
  Name = 
  11 active torsions:
  status: ('A' for Active; 'I' for Inactive)
    1  A    between atoms: O_1  and  C_34
    2  A    between atoms: O_1  and  C_35
    3  A    between atoms: C_2  and  C_6
    4  A    between atoms: C_2  and  C_13
    5  A    between atoms: C_3  and  N_4
    6  A    between atoms: C_3  and  C_12
    7  A    between atoms: C_6  and  C_12
    8  A    between atoms: C_11  and  C_14
    9  A    between atoms: C_12  and  C_17
   10  A    between atoms: C_14  and  C_22
   11  A    between atoms: C_19  and  C_37
                            x       y       z     vdW  Elec       q    Type
                         _______ _______ _______ _____ _____    ______ ____

>  <TORSDO>
F 11

$$$$
=
 OpenBabel11052420583D

 43 48  0  0  1  0  0  0  0  0999 V2000
  185.4600  179.1510  143.9050 C   0  0  1  0  0  3  0  0  0  0  0  0
  188.8930  175.3840  144.4760 C   0  0  0  0  0  0  0  0  0  0  0  0
  188.6580  173.8570  142.1650 C   0  0  0  0  0  0  0  0  0  0  0  0
  187.1280  177.5360  144.8680 C   0  0  0  0  0  0  0  0  0  0  0  0
  184.8790  177.9730  143.1400 C   0  0  0  0  0  2  0  0  0  0  0  0
  184.4370  180.0290  144.2620 O   0  0  0  0  0  1  0  0  0  0  0  0
  187.0100  176.7390  143.7050 C   0  0  0  0  0  0  0  0  0  0  0  0
  186.1580  178.6440  145.1640 C   0  0  0  0  0  2  0  0  0  0  0  0
  186.0130  177.0920  142.6260 C   0  0  0  0  0  2  0  0  0  0  0  0
  187.8200  174.9030  142.3830 N   0  0  0  0  0  0  0  0  0  0  0  0
  187.9010  175.6690  143.5060 C   0  0  0  0  0  0  0  0  0  0  0  0
  188.9830  176.1730  145.6280 C   0  0  0  0  0  3  0  0  0  0  0  0
  189.7790  174.3170  144.2630 C   0  0  0  0  0  0  0  0  0  0  0  0
  189.6520  173.5510  143.0960 C   0  0  0  0  0  3  0  0  0  0  0  0
  188.1020  177.2360  145.8230 C   0  0  0  0  0  3  0  0  0  0  0  0
  190.7790  174.0410  145.2130 O   0  0  0  0  0  0  0  0  0  0  0  0
  194.3720  173.0190  144.6200 C   0  0  0  0  0  2  0  0  0  0  0  0
  194.9900  173.8230  145.7620 C   0  0  2  0  0  3  0  0  0  0  0  0
  192.8280  175.0430  146.0990 C   0  0  0  0  0  2  0  0  0  0  0  0
  192.8770  172.8350  144.8540 C   0  0  0  0  0  2  0  0  0  0  0  0
  192.1850  174.1940  144.9980 C   0  0  1  0  0  3  0  0  0  0  0  0
  194.3250  175.1970  145.8430 C   0  0  0  0  0  2  0  0  0  0  0  0
  197.1930  173.3680  146.5570 O   0  0  0  0  0  1  0  0  0  0  0  0
  196.4810  173.9750  145.5220 C   0  0  0  0  0  2  0  0  0  0  0  0
  188.5450  173.0680  140.9090 C   0  0  0  0  0  2  0  0  0  0  0  0
  188.5900  173.9970  139.7090 C   0  0  0  0  0  2  0  0  0  0  0  0
  189.6340  173.5240  138.7060 C   0  0  2  0  0  3  0  0  0  0  0  0
  188.9070  174.2750  136.5600 O   0  0  0  0  0  1  0  0  0  0  0  0
  188.9750  173.1540  137.3870 C   0  0  0  0  0  2  0  0  0  0  0  0
  190.4550  172.3540  139.2480 C   0  0  0  0  0  2  0  0  0  0  0  0
  191.6110  172.0700  138.3940 N   0  0  0  0  0  0  0  0  0  0  0  0
  194.2100  171.8570  138.0490 S   0  0  0  0  0  0  0  0  0  0  0  0
  191.8420  170.6850  138.4270 N   0  0  0  0  0  2  0  0  0  0  0  0
  192.8410  172.7200  138.8710 C   0  0  1  0  0  0  0  0  0  0  0  0
  192.8410  174.1760  138.4270 C   0  0  0  0  0  1  0  0  0  0  0  0
  193.0960  170.4610  137.7220 C   0  0  0  0  0  2  0  0  0  0  0  0
  193.0060  172.6030  140.4070 C   0  0  0  0  0  2  0  0  0  0  0  0
  193.6070  173.8070  141.0660 C   0  0  0  0  0  0  0  0  0  0  0  0
  195.5610  175.0460  141.7920 C   0  0  0  0  0  3  0  0  0  0  0  0
  193.3470  175.9650  142.1430 C   0  0  0  0  0  3  0  0  0  0  0  0
  194.7360  176.0690  142.2700 C   0  0  0  0  0  3  0  0  0  0  0  0
  192.7840  174.8340  141.5430 C   0  0  0  0  0  3  0  0  0  0  0  0
  194.9970  173.9180  141.1880 C   0  0  0  0  0  3  0  0  0  0  0  0
  1  6  1  1  0  0  0
  1  8  1  0  0  0  0
  2 12  1  0  0  0  0
  3 10  2  0  0  0  0
  3 14  1  0  0  0  0
  4  8  1  0  0  0  0
  4 15  1  0  0  0  0
  5  1  1  0  0  0  0
  7  4  2  0  0  0  0
  9  5  1  0  0  0  0
  9  7  1  0  0  0  0
 10 11  1  0  0  0  0
 11  7  1  0  0  0  0
 11  2  2  0  0  0  0
 12 15  2  0  0  0  0
 13  2  1  0  0  0  0
 13 16  1  0  0  0  0
 14 13  2  0  0  0  0
 17 20  1  0  0  0  0
 17 18  1  0  0  0  0
 18 24  1  6  0  0  0
 18 22  1  0  0  0  0
 20 21  1  0  0  0  0
 21 16  1  1  0  0  0
 21 19  1  0  0  0  0
 22 19  1  0  0  0  0
 24 23  1  0  0  0  0
 25  3  1  0  0  0  0
 26 25  1  0  0  0  0
 27 29  1  6  0  0  0
 27 30  1  0  0  0  0
 27 26  1  0  0  0  0
 28 29  1  0  0  0  0
 31 33  1  0  0  0  0
 31 34  1  0  0  0  0
 31 30  1  0  0  0  0
 32 34  1  0  0  0  0
 34 35  1  6  0  0  0
 34 37  1  0  0  0  0
 36 32  1  0  0  0  0
 36 33  1  0  0  0  0
 37 38  1  0  0  0  0
 38 43  2  0  0  0  0
 38 42  1  0  0  0  0
 39 41  2  0  0  0  0
 40 41  1  0  0  0  0
 42 40  2  0  0  0  0
 43 39  1  0  0  0  0
M  END
>  <MODEL>
5

>  <REMARK>
 VINA RESULT:      -6.7      3.043      6.118
  Name = 
  11 active torsions:
  status: ('A' for Active; 'I' for Inactive)
    1  A    between atoms: O_1  and  C_34
    2  A    between atoms: O_1  and  C_35
    3  A    between atoms: C_2  and  C_6
    4  A    between atoms: C_2  and  C_13
    5  A    between atoms: C_3  and  N_4
    6  A    between atoms: C_3  and  C_12
    7  A    between atoms: C_6  and  C_12
    8  A    between atoms: C_11  and  C_14
    9  A    between atoms: C_12  and  C_17
   10  A    between atoms: C_14  and  C_22
   11  A    between atoms: C_19  and  C_37
                            x       y       z     vdW  Elec       q    Type
                         _______ _______ _______ _____ _____    ______ ____

>  <TORSDO>
F 11

$$$$
=
 OpenBabel11052420583D

 43 48  0  0  1  0  0  0  0  0999 V2000
  196.2710  173.8560  145.4610 C   0  0  1  0  0  3  0  0  0  0  0  0
  191.2870  175.0420  145.6980 C   0  0  0  0  0  0  0  0  0  0  0  0
  190.0250  173.1050  144.1550 C   0  0  0  0  0  0  0  0  0  0  0  0
  194.0940  175.0590  145.8290 C   0  0  0  0  0  0  0  0  0  0  0  0
  195.6910  173.3740  144.1420 C   0  0  0  0  0  2  0  0  0  0  0  0
  197.6420  174.0680  145.3210 O   0  0  0  0  0  1  0  0  0  0  0  0
  193.4380  174.0890  145.0340 C   0  0  0  0  0  0  0  0  0  0  0  0
  195.5930  175.1620  145.8660 C   0  0  0  0  0  2  0  0  0  0  0  0
  194.2230  173.0030  144.3370 C   0  0  0  0  0  2  0  0  0  0  0  0
  191.3800  173.1390  144.2380 N   0  0  0  0  0  0  0  0  0  0  0  0
  192.0330  174.0770  144.9790 C   0  0  0  0  0  0  0  0  0  0  0  0
  191.9550  176.0040  146.4640 C   0  0  0  0  0  3  0  0  0  0  0  0
  189.8860  175.0150  145.6380 C   0  0  0  0  0  0  0  0  0  0  0  0
  189.2570  174.0370  144.8560 C   0  0  0  0  0  3  0  0  0  0  0  0
  193.3480  176.0140  146.5230 C   0  0  0  0  0  3  0  0  0  0  0  0
  189.1380  175.9600  146.3660 O   0  0  0  0  0  0  0  0  0  0  0  0
  186.5440  178.1180  144.6570 C   0  0  0  0  0  2  0  0  0  0  0  0
  185.7610  178.5020  145.9100 C   0  0  2  0  0  3  0  0  0  0  0  0
  187.0060  176.7840  147.2400 C   0  0  0  0  0  2  0  0  0  0  0  0
  187.9360  177.6250  145.0370 C   0  0  0  0  0  2  0  0  0  0  0  0
  187.8400  176.4390  146.0030 C   0  0  1  0  0  3  0  0  0  0  0  0
  185.6260  177.2860  146.8260 C   0  0  0  0  0  2  0  0  0  0  0  0
  184.0840  178.5910  144.2150 O   0  0  0  0  0  1  0  0  0  0  0  0
  184.3880  179.0120  145.5100 C   0  0  0  0  0  2  0  0  0  0  0  0
  189.3590  172.0420  143.3530 C   0  0  0  0  0  2  0  0  0  0  0  0
  188.3700  172.6690  142.3870 C   0  0  0  0  0  2  0  0  0  0  0  0
  189.0870  173.5990  141.4170 C   0  0  2  0  0  3  0  0  0  0  0  0
  187.3510  175.0210  142.2320 O   0  0  0  0  0  1  0  0  0  0  0  0
  188.2770  174.8680  141.2000 C   0  0  0  0  0  2  0  0  0  0  0  0
  189.3840  172.9120  140.0840 C   0  0  0  0  0  2  0  0  0  0  0  0
  190.3950  173.6450  139.3170 N   0  0  0  0  0  0  0  0  0  0  0  0
  192.7490  173.7600  138.1510 S   0  0  0  0  0  0  0  0  0  0  0  0
  190.1020  173.4850  137.9540 N   0  0  0  0  0  2  0  0  0  0  0  0
  191.7530  173.1220  139.5280 C   0  0  1  0  0  0  0  0  0  0  0  0
  192.3060  173.6770  140.8320 C   0  0  0  0  0  1  0  0  0  0  0  0
  191.2190  174.0660  137.2230 C   0  0  0  0  0  2  0  0  0  0  0  0
  191.7920  171.5730  139.5170 C   0  0  0  0  0  2  0  0  0  0  0  0
  192.6010  170.9590  140.6180 C   0  0  0  0  0  0  0  0  0  0  0  0
  194.7560  170.4440  141.6030 C   0  0  0  0  0  3  0  0  0  0  0  0
  192.7200  169.7970  142.7440 C   0  0  0  0  0  3  0  0  0  0  0  0
  194.1170  169.8390  142.6890 C   0  0  0  0  0  3  0  0  0  0  0  0
  191.9630  170.3550  141.7090 C   0  0  0  0  0  3  0  0  0  0  0  0
  193.9990  171.0070  140.5710 C   0  0  0  0  0  3  0  0  0  0  0  0
  1  6  1  6  0  0  0
  1  8  1  0  0  0  0
  2 12  1  0  0  0  0
  3 10  2  0  0  0  0
  3 14  1  0  0  0  0
  4  8  1  0  0  0  0
  4 15  1  0  0  0  0
  5  9  1  0  0  0  0
  5  1  1  0  0  0  0
  7  4  2  0  0  0  0
  9  7  1  0  0  0  0
 10 11  1  0  0  0  0
 11  7  1  0  0  0  0
 11  2  2  0  0  0  0
 12 15  2  0  0  0  0
 13  2  1  0  0  0  0
 13 16  1  0  0  0  0
 14 13  2  0  0  0  0
 17 20  1  0  0  0  0
 17 18  1  0  0  0  0
 18 24  1  6  0  0  0
 18 22  1  0  0  0  0
 20 21  1  0  0  0  0
 21 16  1  1  0  0  0
 21 19  1  0  0  0  0
 22 19  1  0  0  0  0
 23 24  1  0  0  0  0
 25  3  1  0  0  0  0
 26 25  1  0  0  0  0
 27 30  1  6  0  0  0
 27 26  1  0  0  0  0
 29 27  1  0  0  0  0
 29 28  1  0  0  0  0
 31 34  1  0  0  0  0
 31 30  1  0  0  0  0
 32 34  1  0  0  0  0
 33 31  1  0  0  0  0
 34 35  1  1  0  0  0
 36 33  1  0  0  0  0
 36 32  1  0  0  0  0
 37 34  1  0  0  0  0
 37 38  1  0  0  0  0
 38 42  1  0  0  0  0
 39 41  2  0  0  0  0
 41 40  1  0  0  0  0
 42 40  2  0  0  0  0
 43 38  2  0  0  0  0
 43 39  1  0  0  0  0
M  END
>  <MODEL>
6

>  <REMARK>
 VINA RESULT:      -6.6      2.670      7.710
  Name = 
  11 active torsions:
  status: ('A' for Active; 'I' for Inactive)
    1  A    between atoms: O_1  and  C_34
    2  A    between atoms: O_1  and  C_35
    3  A    between atoms: C_2  and  C_6
    4  A    between atoms: C_2  and  C_13
    5  A    between atoms: C_3  and  N_4
    6  A    between atoms: C_3  and  C_12
    7  A    between atoms: C_6  and  C_12
    8  A    between atoms: C_11  and  C_14
    9  A    between atoms: C_12  and  C_17
   10  A    between atoms: C_14  and  C_22
   11  A    between atoms: C_19  and  C_37
                            x       y       z     vdW  Elec       q    Type
                         _______ _______ _______ _____ _____    ______ ____

>  <TORSDO>
F 11

$$$$
=
 OpenBabel11052420583D

 43 48  0  0  1  0  0  0  0  0999 V2000
  196.1990  174.7400  144.2580 C   0  0  1  0  0  3  0  0  0  0  0  0
  191.6330  176.4710  145.8240 C   0  0  0  0  0  0  0  0  0  0  0  0
  190.4620  177.5450  143.5440 C   0  0  0  0  0  0  0  0  0  0  0  0
  194.2660  175.5020  145.6730 C   0  0  0  0  0  0  0  0  0  0  0  0
  195.8930  175.9170  143.3460 C   0  0  0  0  0  2  0  0  0  0  0  0
  197.5750  174.5190  144.2910 O   0  0  0  0  0  1  0  0  0  0  0  0
  193.6630  176.0670  144.5250 C   0  0  0  0  0  0  0  0  0  0  0  0
  195.6980  175.0460  145.6660 C   0  0  0  0  0  2  0  0  0  0  0  0
  194.3810  176.0640  143.1960 C   0  0  0  0  0  2  0  0  0  0  0  0
  191.7340  177.0690  143.5020 N   0  0  0  0  0  0  0  0  0  0  0  0
  192.3410  176.5420  144.6010 C   0  0  0  0  0  0  0  0  0  0  0  0
  192.2520  175.9250  146.9540 C   0  0  0  0  0  3  0  0  0  0  0  0
  190.3130  176.9430  145.8860 C   0  0  0  0  0  0  0  0  0  0  0  0
  189.7320  177.4860  144.7310 C   0  0  0  0  0  3  0  0  0  0  0  0
  193.5610  175.4500  146.8780 C   0  0  0  0  0  3  0  0  0  0  0  0
  189.5960  176.8580  147.0940 O   0  0  0  0  0  0  0  0  0  0  0  0
  185.9390  176.6320  146.1560 C   0  0  0  0  0  2  0  0  0  0  0  0
  185.5930  178.1010  146.3850 C   0  0  2  0  0  3  0  0  0  0  0  0
  187.8000  178.4680  147.5090 C   0  0  0  0  0  2  0  0  0  0  0  0
  187.4470  176.4650  145.9950 C   0  0  0  0  0  2  0  0  0  0  0  0
  188.1800  177.0120  147.2240 C   0  0  1  0  0  3  0  0  0  0  0  0
  186.2870  178.6040  147.6500 C   0  0  0  0  0  2  0  0  0  0  0  0
  183.5890  179.0050  145.4570 O   0  0  0  0  0  1  0  0  0  0  0  0
  184.0880  178.2490  146.5180 C   0  0  0  0  0  2  0  0  0  0  0  0
  189.8350  178.0880  142.3080 C   0  0  0  0  0  2  0  0  0  0  0  0
  188.3260  177.9330  142.3850 C   0  0  0  0  0  2  0  0  0  0  0  0
  187.8320  176.9730  141.3100 C   0  0  2  0  0  3  0  0  0  0  0  0
  186.1000  177.5380  139.7680 O   0  0  0  0  0  1  0  0  0  0  0  0
  186.3390  177.1490  141.0860 C   0  0  0  0  0  2  0  0  0  0  0  0
  188.1610  175.5190  141.6500 C   0  0  0  0  0  2  0  0  0  0  0  0
  188.7560  174.8240  140.5050 N   0  0  0  0  0  0  0  0  0  0  0  0
  190.0420  172.7670  139.4870 S   0  0  0  0  0  0  0  0  0  0  0  0
  187.7460  174.0700  139.8860 N   0  0  0  0  0  2  0  0  0  0  0  0
  189.8120  173.8810  140.9020 C   0  0  1  0  0  0  0  0  0  0  0  0
  191.1050  174.6480  141.1380 C   0  0  0  0  0  1  0  0  0  0  0  0
  188.4030  173.2560  138.8740 C   0  0  0  0  0  2  0  0  0  0  0  0
  189.4180  173.0530  142.1510 C   0  0  0  0  0  2  0  0  0  0  0  0
  190.5720  172.4580  142.8990 C   0  0  0  0  0  0  0  0  0  0  0  0
  192.2250  172.6010  144.6650 C   0  0  0  0  0  3  0  0  0  0  0  0
  192.1200  170.6270  143.2650 C   0  0  0  0  0  3  0  0  0  0  0  0
  192.7080  171.3350  144.3190 C   0  0  0  0  0  3  0  0  0  0  0  0
  191.0540  171.1890  142.5550 C   0  0  0  0  0  3  0  0  0  0  0  0
  191.1560  173.1600  143.9590 C   0  0  0  0  0  3  0  0  0  0  0  0
  1  6  1  1  0  0  0
  1  8  1  0  0  0  0
  2 13  1  0  0  0  0
  2 12  1  0  0  0  0
  3 14  1  0  0  0  0
  4 15  1  0  0  0  0
  5  1  1  0  0  0  0
  7 11  1  0  0  0  0
  7  4  2  0  0  0  0
  8  4  1  0  0  0  0
  9  5  1  0  0  0  0
  9  7  1  0  0  0  0
 10  3  2  0  0  0  0
 10 11  1  0  0  0  0
 11  2  2  0  0  0  0
 13 16  1  0  0  0  0
 14 13  2  0  0  0  0
 15 12  2  0  0  0  0
 17 18  1  0  0  0  0
 18 24  1  1  0  0  0
 18 22  1  0  0  0  0
 19 22  1  0  0  0  0
 20 17  1  0  0  0  0
 20 21  1  0  0  0  0
 21 16  1  6  0  0  0
 21 19  1  0  0  0  0
 23 24  1  0  0  0  0
 25 26  1  0  0  0  0
 25  3  1  0  0  0  0
 27 29  1  1  0  0  0
 27 30  1  0  0  0  0
 27 26  1  0  0  0  0
 28 29  1  0  0  0  0
 31 34  1  0  0  0  0
 31 30  1  0  0  0  0
 32 34  1  0  0  0  0
 33 31  1  0  0  0  0
 34 35  1  1  0  0  0
 34 37  1  0  0  0  0
 36 32  1  0  0  0  0
 36 33  1  0  0  0  0
 37 38  1  0  0  0  0
 38 43  1  0  0  0  0
 40 41  2  0  0  0  0
 41 39  1  0  0  0  0
 42 38  2  0  0  0  0
 42 40  1  0  0  0  0
 43 39  2  0  0  0  0
M  END
>  <MODEL>
7

>  <REMARK>
 VINA RESULT:      -6.6      3.019      8.214
  Name = 
  11 active torsions:
  status: ('A' for Active; 'I' for Inactive)
    1  A    between atoms: O_1  and  C_34
    2  A    between atoms: O_1  and  C_35
    3  A    between atoms: C_2  and  C_6
    4  A    between atoms: C_2  and  C_13
    5  A    between atoms: C_3  and  N_4
    6  A    between atoms: C_3  and  C_12
    7  A    between atoms: C_6  and  C_12
    8  A    between atoms: C_11  and  C_14
    9  A    between atoms: C_12  and  C_17
   10  A    between atoms: C_14  and  C_22
   11  A    between atoms: C_19  and  C_37
                            x       y       z     vdW  Elec       q    Type
                         _______ _______ _______ _____ _____    ______ ____

>  <TORSDO>
F 11

$$$$
=
 OpenBabel11052420583D

 43 48  0  0  1  0  0  0  0  0999 V2000
  196.6250  175.3740  143.7430 C   0  0  1  0  0  3  0  0  0  0  0  0
  191.7020  175.6220  145.1590 C   0  0  0  0  0  0  0  0  0  0  0  0
  190.6080  173.2010  144.3440 C   0  0  0  0  0  0  0  0  0  0  0  0
  194.3750  176.1950  144.5070 C   0  0  0  0  0  0  0  0  0  0  0  0
  195.8820  174.5230  142.7260 C   0  0  0  0  0  2  0  0  0  0  0  0
  197.8340  175.8060  143.1990 O   0  0  0  0  0  1  0  0  0  0  0  0
  193.7990  174.9740  144.0830 C   0  0  0  0  0  0  0  0  0  0  0  0
  195.7720  176.5840  144.1120 C   0  0  0  0  0  2  0  0  0  0  0  0
  194.6320  173.9330  143.3730 C   0  0  0  0  0  2  0  0  0  0  0  0
  191.8970  173.5060  144.0430 N   0  0  0  0  0  0  0  0  0  0  0  0
  192.4650  174.6850  144.4210 C   0  0  0  0  0  0  0  0  0  0  0  0
  192.2840  176.8320  145.5530 C   0  0  0  0  0  3  0  0  0  0  0  0
  190.3740  175.3190  145.4940 C   0  0  0  0  0  0  0  0  0  0  0  0
  189.8290  174.0970  145.0760 C   0  0  0  0  0  3  0  0  0  0  0  0
  193.6090  177.1160  145.2230 C   0  0  0  0  0  3  0  0  0  0  0  0
  189.6170  176.2380  146.2440 O   0  0  0  0  0  0  0  0  0  0  0  0
  186.7640  178.4970  145.2120 C   0  0  0  0  0  2  0  0  0  0  0  0
  185.8720  178.2430  146.4250 C   0  0  2  0  0  3  0  0  0  0  0  0
  187.3380  176.3400  147.1310 C   0  0  0  0  0  2  0  0  0  0  0  0
  188.2030  178.0990  145.5240 C   0  0  0  0  0  2  0  0  0  0  0  0
  188.2720  176.6300  145.9530 C   0  0  1  0  0  3  0  0  0  0  0  0
  185.9110  176.7600  146.7930 C   0  0  0  0  0  2  0  0  0  0  0  0
  184.4190  179.3290  144.8740 O   0  0  0  0  0  1  0  0  0  0  0  0
  184.4510  178.6670  146.1020 C   0  0  0  0  0  2  0  0  0  0  0  0
  190.0440  171.8870  143.9300 C   0  0  0  0  0  2  0  0  0  0  0  0
  191.0300  171.1610  143.0330 C   0  0  0  0  0  2  0  0  0  0  0  0
  190.5500  171.1790  141.5870 C   0  0  2  0  0  3  0  0  0  0  0  0
  191.1910  168.8800  141.6190 O   0  0  0  0  0  1  0  0  0  0  0  0
  191.1510  170.0170  140.8120 C   0  0  0  0  0  2  0  0  0  0  0  0
  190.8640  172.5080  140.9000 C   0  0  0  0  0  2  0  0  0  0  0  0
  189.9900  172.7330  139.7450 N   0  0  0  0  0  0  0  0  0  0  0  0
  188.1870  174.1700  138.4790 S   0  0  0  0  0  0  0  0  0  0  0  0
  190.7320  173.4200  138.7700 N   0  0  0  0  0  2  0  0  0  0  0  0
  188.8280  173.5730  140.0690 C   0  0  1  0  0  0  0  0  0  0  0  0
  187.7630  172.7170  140.7370 C   0  0  0  0  0  1  0  0  0  0  0  0
  189.7920  173.7850  137.7210 C   0  0  0  0  0  2  0  0  0  0  0  0
  189.2110  174.7840  140.9560 C   0  0  0  0  0  2  0  0  0  0  0  0
  188.0530  175.6180  141.4130 C   0  0  0  0  0  0  0  0  0  0  0  0
  186.5590  177.4970  141.0770 C   0  0  0  0  0  3  0  0  0  0  0  0
  186.2680  176.0500  142.9980 C   0  0  0  0  0  3  0  0  0  0  0  0
  185.8700  177.1610  142.2460 C   0  0  0  0  0  3  0  0  0  0  0  0
  187.3590  175.2810  142.5820 C   0  0  0  0  0  3  0  0  0  0  0  0
  187.6460  176.7250  140.6590 C   0  0  0  0  0  3  0  0  0  0  0  0
  1  6  1  6  0  0  0
  1  8  1  0  0  0  0
  2 13  1  0  0  0  0
  2 12  1  0  0  0  0
  3 14  1  0  0  0  0
  4 15  1  0  0  0  0
  5  9  1  0  0  0  0
  5  1  1  0  0  0  0
  7 11  1  0  0  0  0
  7  4  2  0  0  0  0
  8  4  1  0  0  0  0
  9  7  1  0  0  0  0
 10  3  2  0  0  0  0
 10 11  1  0  0  0  0
 11  2  2  0  0  0  0
 13 16  1  0  0  0  0
 14 13  2  0  0  0  0
 15 12  2  0  0  0  0
 17 20  1  0  0  0  0
 17 18  1  0  0  0  0
 18 24  1  6  0  0  0
 18 22  1  0  0  0  0
 20 21  1  0  0  0  0
 21 16  1  1  0  0  0
 21 19  1  0  0  0  0
 22 19  1  0  0  0  0
 23 24  1  0  0  0  0
 25  3  1  0  0  0  0
 26 25  1  0  0  0  0
 27 29  1  6  0  0  0
 27 26  1  0  0  0  0
 29 28  1  0  0  0  0
 30 27  1  0  0  0  0
 31 34  1  0  0  0  0
 31 30  1  0  0  0  0
 32 34  1  0  0  0  0
 33 31  1  0  0  0  0
 34 35  1  1  0  0  0
 34 37  1  0  0  0  0
 36 32  1  0  0  0  0
 36 33  1  0  0  0  0
 37 38  1  0  0  0  0
 38 42  1  0  0  0  0
 39 41  2  0  0  0  0
 41 40  1  0  0  0  0
 42 40  2  0  0  0  0
 43 39  1  0  0  0  0
 43 38  2  0  0  0  0
M  END
>  <MODEL>
8

>  <REMARK>
 VINA RESULT:      -6.5      2.981      8.618
  Name = 
  11 active torsions:
  status: ('A' for Active; 'I' for Inactive)
    1  A    between atoms: O_1  and  C_34
    2  A    between atoms: O_1  and  C_35
    3  A    between atoms: C_2  and  C_6
    4  A    between atoms: C_2  and  C_13
    5  A    between atoms: C_3  and  N_4
    6  A    between atoms: C_3  and  C_12
    7  A    between atoms: C_6  and  C_12
    8  A    between atoms: C_11  and  C_14
    9  A    between atoms: C_12  and  C_17
   10  A    between atoms: C_14  and  C_22
   11  A    between atoms: C_19  and  C_37
                            x       y       z     vdW  Elec       q    Type
                         _______ _______ _______ _____ _____    ______ ____

>  <TORSDO>
F 11

$$$$
=
 OpenBabel11052420583D

 43 48  0  0  1  0  0  0  0  0999 V2000
  196.2840  176.0610  143.2560 C   0  0  1  0  0  3  0  0  0  0  0  0
  191.2540  175.9200  144.2430 C   0  0  0  0  0  0  0  0  0  0  0  0
  190.1230  174.7540  141.9880 C   0  0  0  0  0  0  0  0  0  0  0  0
  194.0130  176.4540  144.2580 C   0  0  0  0  0  0  0  0  0  0  0  0
  195.6150  176.1670  141.8950 C   0  0  0  0  0  2  0  0  0  0  0  0
  197.5710  176.5930  143.1880 O   0  0  0  0  0  1  0  0  0  0  0  0
  193.4200  175.8770  143.1110 C   0  0  0  0  0  0  0  0  0  0  0  0
  195.4660  176.8350  144.2850 C   0  0  0  0  0  2  0  0  0  0  0  0
  194.2670  175.4520  141.9340 C   0  0  0  0  0  2  0  0  0  0  0  0
  191.4530  175.0250  142.0250 N   0  0  0  0  0  0  0  0  0  0  0  0
  192.0410  175.6010  143.1100 C   0  0  0  0  0  0  0  0  0  0  0  0
  191.8560  176.5070  145.3620 C   0  0  0  0  0  3  0  0  0  0  0  0
  189.8800  175.6340  144.2320 C   0  0  0  0  0  0  0  0  0  0  0  0
  189.3180  175.0490  143.0890 C   0  0  0  0  0  3  0  0  0  0  0  0
  193.2240  176.7760  145.3640 C   0  0  0  0  0  3  0  0  0  0  0  0
  189.0960  175.9320  145.3620 O   0  0  0  0  0  0  0  0  0  0  0  0
  186.2780  178.3190  144.5490 C   0  0  0  0  0  2  0  0  0  0  0  0
  185.7390  178.4670  145.9700 C   0  0  2  0  0  3  0  0  0  0  0  0
  187.1710  176.5610  146.7350 C   0  0  0  0  0  2  0  0  0  0  0  0
  187.7060  177.7860  144.5810 C   0  0  0  0  0  2  0  0  0  0  0  0
  187.7640  176.4490  145.3270 C   0  0  1  0  0  3  0  0  0  0  0  0
  185.7480  177.1090  146.6700 C   0  0  0  0  0  2  0  0  0  0  0  0
  183.9390  179.2120  144.5910 O   0  0  0  0  0  1  0  0  0  0  0  0
  184.3260  179.0200  145.9180 C   0  0  0  0  0  2  0  0  0  0  0  0
  189.5340  174.0990  140.7880 C   0  0  0  0  0  2  0  0  0  0  0  0
  189.4780  172.5960  140.9960 C   0  0  0  0  0  2  0  0  0  0  0  0
  190.2380  171.8750  139.8900 C   0  0  2  0  0  3  0  0  0  0  0  0
  189.8000  172.2170  137.5690 O   0  0  0  0  0  1  0  0  0  0  0  0
  189.3180  171.5850  138.7150 C   0  0  0  0  0  2  0  0  0  0  0  0
  190.8930  170.5890  140.3950 C   0  0  0  0  0  2  0  0  0  0  0  0
  192.2230  170.4010  139.8090 N   0  0  0  0  0  0  0  0  0  0  0  0
  194.8050  169.9770  140.0720 S   0  0  0  0  0  0  0  0  0  0  0  0
  192.3720  169.0380  139.5070 N   0  0  0  0  0  2  0  0  0  0  0  0
  193.3070  170.7540  140.7380 C   0  0  1  0  0  0  0  0  0  0  0  0
  193.4940  172.2640  140.7360 C   0  0  0  0  0  1  0  0  0  0  0  0
  193.7580  168.8560  139.1000 C   0  0  0  0  0  2  0  0  0  0  0  0
  193.0450  170.2240  142.1700 C   0  0  0  0  0  2  0  0  0  0  0  0
  193.3840  171.1880  143.2670 C   0  0  0  0  0  0  0  0  0  0  0  0
  192.6770  172.7220  145.0050 C   0  0  0  0  0  3  0  0  0  0  0  0
  195.0360  172.3150  144.6380 C   0  0  0  0  0  3  0  0  0  0  0  0
  194.0130  172.9650  145.3370 C   0  0  0  0  0  3  0  0  0  0  0  0
  194.7220  171.4290  143.6030 C   0  0  0  0  0  3  0  0  0  0  0  0
  192.3620  171.8320  143.9740 C   0  0  0  0  0  3  0  0  0  0  0  0
  1  6  1  6  0  0  0
  1  8  1  0  0  0  0
  2 12  1  0  0  0  0
  3 10  2  0  0  0  0
  3 14  1  0  0  0  0
  4  8  1  0  0  0  0
  4 15  1  0  0  0  0
  5  9  1  0  0  0  0
  5  1  1  0  0  0  0
  7  4  2  0  0  0  0
  9  7  1  0  0  0  0
 10 11  1  0  0  0  0
 11  7  1  0  0  0  0
 11  2  2  0  0  0  0
 12 15  2  0  0  0  0
 13  2  1  0  0  0  0
 13 16  1  0  0  0  0
 14 13  2  0  0  0  0
 17 20  1  0  0  0  0
 17 18  1  0  0  0  0
 18 24  1  6  0  0  0
 18 22  1  0  0  0  0
 20 21  1  0  0  0  0
 21 16  1  1  0  0  0
 21 19  1  0  0  0  0
 22 19  1  0  0  0  0
 23 24  1  0  0  0  0
 25 26  1  0  0  0  0
 25  3  1  0  0  0  0
 27 29  1  6  0  0  0
 27 30  1  0  0  0  0
 27 26  1  0  0  0  0
 28 29  1  0  0  0  0
 31 30  1  0  0  0  0
 31 34  1  0  0  0  0
 32 34  1  0  0  0  0
 33 31  1  0  0  0  0
 34 35  1  1  0  0  0
 34 37  1  0  0  0  0
 36 33  1  0  0  0  0
 36 32  1  0  0  0  0
 37 38  1  0  0  0  0
 38 42  2  0  0  0  0
 38 43  1  0  0  0  0
 39 41  1  0  0  0  0
 40 41  2  0  0  0  0
 42 40  1  0  0  0  0
 43 39  2  0  0  0  0
M  END
>  <MODEL>
9

>  <REMARK>
 VINA RESULT:      -6.5      2.737      7.771
  Name = 
  11 active torsions:
  status: ('A' for Active; 'I' for Inactive)
    1  A    between atoms: O_1  and  C_34
    2  A    between atoms: O_1  and  C_35
    3  A    between atoms: C_2  and  C_6
    4  A    between atoms: C_2  and  C_13
    5  A    between atoms: C_3  and  N_4
    6  A    between atoms: C_3  and  C_12
    7  A    between atoms: C_6  and  C_12
    8  A    between atoms: C_11  and  C_14
    9  A    between atoms: C_12  and  C_17
   10  A    between atoms: C_14  and  C_22
   11  A    between atoms: C_19  and  C_37
                            x       y       z     vdW  Elec       q    Type
                         _______ _______ _______ _____ _____    ______ ____

>  <TORSDO>
F 11

$$$$
