=
 OpenBabel11052417313D

 25 27  0  0  1  0  0  0  0  0999 V2000
  187.2250  177.7490  145.8190 C   0  0  0  0  0  0  0  0  0  0  0  0
  186.8670  177.6740  144.3780 C   0  0  0  0  0  0  0  0  0  0  0  0
  185.3460  179.3340  146.1300 C   0  0  0  0  0  2  0  0  0  0  0  0
  185.3580  179.4750  144.7090 O   0  0  0  0  0  0  0  0  0  0  0  0
  185.5970  178.5190  142.4110 C   0  0  2  0  0  3  0  0  0  0  0  0
  184.1770  178.0110  142.2500 C   0  0  0  0  0  1  0  0  0  0  0  0
  187.5510  176.7480  143.5190 N   0  0  0  0  0  0  0  0  0  0  0  0
  186.5460  178.5850  146.6340 C   0  0  0  0  0  0  0  0  0  0  0  0
  186.8750  178.6900  148.3610 Cl  0  0  0  0  0  0  0  0  0  0  0  0
  186.5000  177.6850  141.6220 N   0  0  0  0  0  2  0  0  0  0  0  0
  187.3840  176.7430  142.2340 C   0  0  0  0  0  0  0  0  0  0  0  0
  185.9660  178.5360  143.8710 C   0  0  0  0  0  0  0  0  0  0  0  0
  188.3450  176.9240  146.3250 C   0  0  0  0  0  0  0  0  0  0  0  0
  190.4650  175.3850  147.3230 C   0  0  0  0  0  3  0  0  0  0  0  0
  188.1090  175.6350  146.8280 C   0  0  0  0  0  3  0  0  0  0  0  0
  189.1670  174.8680  147.3230 C   0  0  0  0  0  3  0  0  0  0  0  0
  190.7070  176.6710  146.8310 C   0  0  0  0  0  3  0  0  0  0  0  0
  189.6480  177.4380  146.3350 C   0  0  0  0  0  3  0  0  0  0  0  0
  188.3000  175.5910  141.2220 S   0  0  0  0  0  0  0  0  0  0  0  0
  187.9890  174.2170  142.3790 C   0  0  0  0  0  2  0  0  0  0  0  0
  189.2140  173.3270  142.5620 C   0  0  2  0  0  3  0  0  0  0  0  0
  188.8500  171.9780  142.6000 O   0  0  0  0  0  1  0  0  0  0  0  0
  190.0020  173.7060  143.7760 C   0  0  0  0  0  0  0  0  0  0  0  0
  190.2180  172.7640  144.7730 O   0  0  0  0  0  1  0  0  0  0  0  0
  190.5010  174.8560  143.8850 O   0  0  0  0  0  0  0  0  0  0  0  0
  1 13  1  0  0  0  0
  1  8  2  0  0  0  0
  2  1  1  0  0  0  0
  3  8  1  0  0  0  0
  4  3  1  0  0  0  0
  5  6  1  1  0  0  0
  5 12  1  0  0  0  0
  7  2  1  0  0  0  0
  8  9  1  0  0  0  0
 10 11  1  0  0  0  0
 10  5  1  0  0  0  0
 11  7  2  0  0  0  0
 12  2  2  0  0  0  0
 12  4  1  0  0  0  0
 13 18  2  0  0  0  0
 13 15  1  0  0  0  0
 14 16  1  0  0  0  0
 15 16  2  0  0  0  0
 17 14  2  0  0  0  0
 18 17  1  0  0  0  0
 19 11  1  0  0  0  0
 19 20  1  0  0  0  0
 20 21  1  0  0  0  0
 21 22  1  1  0  0  0
 21 23  1  0  0  0  0
 23 25  2  0  0  0  0
 23 24  1  0  0  0  0
M  END
>  <MODEL>
1

>  <REMARK>
 VINA RESULT:      -6.7      0.000      0.000
  Name = 
  5 active torsions:
  status: ('A' for Active; 'I' for Inactive)
    1  A    between atoms: C_1  and  C_5
    2  A    between atoms: C_2  and  C_21
    3  A    between atoms: S_6  and  C_15
    4  A    between atoms: S_6  and  C_23
    5  A    between atoms: C_15  and  C_21
                            x       y       z     vdW  Elec       q    Type
                         _______ _______ _______ _____ _____    ______ ____

>  <TORSDO>
F 5

$$$$
=
 OpenBabel11052417313D

 25 27  0  0  1  0  0  0  0  0999 V2000
  187.2260  177.8890  143.7210 C   0  0  0  0  0  0  0  0  0  0  0  0
  188.6600  177.6000  143.9840 C   0  0  0  0  0  0  0  0  0  0  0  0
  187.7510  177.9140  141.2990 C   0  0  0  0  0  2  0  0  0  0  0  0
  189.1170  178.0280  141.6950 O   0  0  0  0  0  0  0  0  0  0  0  0
  191.0200  177.4390  143.2070 C   0  0  2  0  0  3  0  0  0  0  0  0
  191.4250  176.1430  142.5330 C   0  0  0  0  0  1  0  0  0  0  0  0
  189.0990  177.3200  145.3230 N   0  0  0  0  0  0  0  0  0  0  0  0
  186.8080  178.1020  142.4540 C   0  0  0  0  0  0  0  0  0  0  0  0
  185.1190  178.3960  142.0560 Cl  0  0  0  0  0  0  0  0  0  0  0  0
  191.3560  177.3700  144.6270 N   0  0  0  0  0  2  0  0  0  0  0  0
  190.3530  177.2080  145.6320 C   0  0  0  0  0  0  0  0  0  0  0  0
  189.5520  177.6900  142.9800 C   0  0  0  0  0  0  0  0  0  0  0  0
  186.2870  177.9670  144.8620 C   0  0  0  0  0  0  0  0  0  0  0  0
  184.4750  178.1260  146.9950 C   0  0  0  0  0  3  0  0  0  0  0  0
  185.7560  176.7980  145.4280 C   0  0  0  0  0  3  0  0  0  0  0  0
  184.8550  176.8780  146.4940 C   0  0  0  0  0  3  0  0  0  0  0  0
  184.9940  179.2950  146.4320 C   0  0  0  0  0  3  0  0  0  0  0  0
  185.8970  179.2150  145.3670 C   0  0  0  0  0  3  0  0  0  0  0  0
  190.8270  176.9020  147.3260 S   0  0  0  0  0  0  0  0  0  0  0  0
  191.2040  175.1520  146.9800 C   0  0  0  0  0  2  0  0  0  0  0  0
  192.6940  174.9150  146.7540 C   0  0  2  0  0  3  0  0  0  0  0  0
  193.4170  176.1010  146.9030 O   0  0  0  0  0  1  0  0  0  0  0  0
  192.9630  174.2860  145.4230 C   0  0  0  0  0  0  0  0  0  0  0  0
  192.0970  173.3160  144.9370 O   0  0  0  0  0  1  0  0  0  0  0  0
  193.9440  174.6530  144.7250 O   0  0  0  0  0  0  0  0  0  0  0  0
  1  2  1  0  0  0  0
  1 13  1  0  0  0  0
  2  7  1  0  0  0  0
  3  4  1  0  0  0  0
  3  8  1  0  0  0  0
  4 12  1  0  0  0  0
  5  6  1  6  0  0  0
  5 10  1  0  0  0  0
  7 11  2  0  0  0  0
  8  1  2  0  0  0  0
  9  8  1  0  0  0  0
 10 11  1  0  0  0  0
 11 19  1  0  0  0  0
 12  5  1  0  0  0  0
 12  2  2  0  0  0  0
 13 18  2  0  0  0  0
 13 15  1  0  0  0  0
 15 16  2  0  0  0  0
 16 14  1  0  0  0  0
 17 14  2  0  0  0  0
 18 17  1  0  0  0  0
 20 19  1  0  0  0  0
 21 22  1  6  0  0  0
 21 20  1  0  0  0  0
 23 21  1  0  0  0  0
 24 23  1  0  0  0  0
 25 23  2  0  0  0  0
M  END
>  <MODEL>
2

>  <REMARK>
 VINA RESULT:      -6.5      3.120      4.986
  Name = 
  5 active torsions:
  status: ('A' for Active; 'I' for Inactive)
    1  A    between atoms: C_1  and  C_5
    2  A    between atoms: C_2  and  C_21
    3  A    between atoms: S_6  and  C_15
    4  A    between atoms: S_6  and  C_23
    5  A    between atoms: C_15  and  C_21
                            x       y       z     vdW  Elec       q    Type
                         _______ _______ _______ _____ _____    ______ ____

>  <TORSDO>
F 5

$$$$
=
 OpenBabel11052417313D

 25 27  0  0  1  0  0  0  0  0999 V2000
  186.7270  177.1250  143.5200 C   0  0  0  0  0  0  0  0  0  0  0  0
  188.0250  176.4010  143.5620 C   0  0  0  0  0  0  0  0  0  0  0  0
  186.7480  176.8730  141.0550 C   0  0  0  0  0  2  0  0  0  0  0  0
  188.1330  176.5580  141.1960 O   0  0  0  0  0  0  0  0  0  0  0  0
  190.0200  175.4550  142.4110 C   0  0  2  0  0  3  0  0  0  0  0  0
  189.8660  174.0690  141.8160 C   0  0  0  0  0  1  0  0  0  0  0  0
  188.6100  176.0550  144.8270 N   0  0  0  0  0  0  0  0  0  0  0  0
  186.1550  177.4050  142.3290 C   0  0  0  0  0  0  0  0  0  0  0  0
  184.5950  178.2090  142.1990 Cl  0  0  0  0  0  0  0  0  0  0  0  0
  190.5900  175.3440  143.7520 N   0  0  0  0  0  2  0  0  0  0  0  0
  189.8040  175.5590  144.9260 C   0  0  0  0  0  0  0  0  0  0  0  0
  188.6860  176.1550  142.4150 C   0  0  0  0  0  0  0  0  0  0  0  0
  186.1010  177.5510  144.7920 C   0  0  0  0  0  0  0  0  0  0  0  0
  184.8810  178.3780  147.1760 C   0  0  0  0  0  3  0  0  0  0  0  0
  185.3630  176.6400  145.5620 C   0  0  0  0  0  3  0  0  0  0  0  0
  184.7560  177.0520  146.7520 C   0  0  0  0  0  3  0  0  0  0  0  0
  185.6090  179.2930  146.4100 C   0  0  0  0  0  3  0  0  0  0  0  0
  186.2160  178.8800  145.2200 C   0  0  0  0  0  3  0  0  0  0  0  0
  190.4830  175.1910  146.5350 S   0  0  0  0  0  0  0  0  0  0  0  0
  192.1520  174.9280  145.8500 C   0  0  0  0  0  2  0  0  0  0  0  0
  193.1840  175.8670  146.4660 C   0  0  2  0  0  3  0  0  0  0  0  0
  192.5860  176.7340  147.3840 O   0  0  0  0  0  1  0  0  0  0  0  0
  193.9380  176.6280  145.4220 C   0  0  0  0  0  0  0  0  0  0  0  0
  194.7550  177.6860  145.8000 O   0  0  0  0  0  1  0  0  0  0  0  0
  193.8680  176.2970  144.2090 O   0  0  0  0  0  0  0  0  0  0  0  0
  1  2  1  0  0  0  0
  1 13  1  0  0  0  0
  2  7  1  0  0  0  0
  3  4  1  0  0  0  0
  3  8  1  0  0  0  0
  4 12  1  0  0  0  0
  5  6  1  1  0  0  0
  5 12  1  0  0  0  0
  5 10  1  0  0  0  0
  7 11  2  0  0  0  0
  8  1  2  0  0  0  0
  9  8  1  0  0  0  0
 10 11  1  0  0  0  0
 11 19  1  0  0  0  0
 12  2  2  0  0  0  0
 13 18  2  0  0  0  0
 13 15  1  0  0  0  0
 15 16  2  0  0  0  0
 16 14  1  0  0  0  0
 17 14  2  0  0  0  0
 18 17  1  0  0  0  0
 20 21  1  0  0  0  0
 20 19  1  0  0  0  0
 21 22  1  1  0  0  0
 23 24  1  0  0  0  0
 23 21  1  0  0  0  0
 25 23  2  0  0  0  0
M  END
>  <MODEL>
3

>  <REMARK>
 VINA RESULT:      -6.4      3.150      5.095
  Name = 
  5 active torsions:
  status: ('A' for Active; 'I' for Inactive)
    1  A    between atoms: C_1  and  C_5
    2  A    between atoms: C_2  and  C_21
    3  A    between atoms: S_6  and  C_15
    4  A    between atoms: S_6  and  C_23
    5  A    between atoms: C_15  and  C_21
                            x       y       z     vdW  Elec       q    Type
                         _______ _______ _______ _____ _____    ______ ____

>  <TORSDO>
F 5

$$$$
=
 OpenBabel11052417313D

 25 27  0  0  1  0  0  0  0  0999 V2000
  189.5270  175.2930  143.5520 C   0  0  0  0  0  0  0  0  0  0  0  0
  188.3810  176.0940  143.0470 C   0  0  0  0  0  0  0  0  0  0  0  0
  189.7980  174.3730  141.2670 C   0  0  0  0  0  2  0  0  0  0  0  0
  188.4850  174.8710  141.0160 O   0  0  0  0  0  0  0  0  0  0  0  0
  186.7110  176.6150  141.2760 C   0  0  2  0  0  3  0  0  0  0  0  0
  187.1680  177.5400  140.1640 C   0  0  0  0  0  1  0  0  0  0  0  0
  187.7440  177.0510  143.9080 N   0  0  0  0  0  0  0  0  0  0  0  0
  190.1570  174.4310  142.7260 C   0  0  0  0  0  0  0  0  0  0  0  0
  191.5550  173.4890  143.2340 Cl  0  0  0  0  0  0  0  0  0  0  0  0
  186.0390  177.3980  142.3090 N   0  0  0  0  0  2  0  0  0  0  0  0
  186.6540  177.6670  143.5710 C   0  0  0  0  0  0  0  0  0  0  0  0
  187.8930  175.8520  141.8160 C   0  0  0  0  0  0  0  0  0  0  0  0
  189.9380  175.4390  144.9670 C   0  0  0  0  0  0  0  0  0  0  0  0
  190.7390  175.6760  147.6430 C   0  0  0  0  0  3  0  0  0  0  0  0
  190.9360  176.3570  145.3280 C   0  0  0  0  0  3  0  0  0  0  0  0
  191.3330  176.4760  146.6630 C   0  0  0  0  0  3  0  0  0  0  0  0
  189.7500  174.7550  147.2900 C   0  0  0  0  0  3  0  0  0  0  0  0
  189.3520  174.6360  145.9540 C   0  0  0  0  0  3  0  0  0  0  0  0
  185.8930  178.8130  144.7090 S   0  0  0  0  0  0  0  0  0  0  0  0
  185.2180  177.4630  145.7320 C   0  0  0  0  0  2  0  0  0  0  0  0
  185.3540  177.7460  147.2240 C   0  0  2  0  0  3  0  0  0  0  0  0
  184.3900  178.6640  147.6490 O   0  0  0  0  0  1  0  0  0  0  0  0
  186.7310  178.2080  147.5810 C   0  0  0  0  0  0  0  0  0  0  0  0
  186.8910  179.3460  148.3610 O   0  0  0  0  0  1  0  0  0  0  0  0
  187.7440  177.5570  147.2120 O   0  0  0  0  0  0  0  0  0  0  0  0
  1 13  1  0  0  0  0
  2  1  1  0  0  0  0
  2  7  1  0  0  0  0
  3  8  1  0  0  0  0
  4  3  1  0  0  0  0
  4 12  1  0  0  0  0
  5  6  1  6  0  0  0
  5 12  1  0  0  0  0
  5 10  1  0  0  0  0
  8  9  1  0  0  0  0
  8  1  2  0  0  0  0
 10 11  1  0  0  0  0
 11  7  2  0  0  0  0
 11 19  1  0  0  0  0
 12  2  2  0  0  0  0
 13 15  2  0  0  0  0
 13 18  1  0  0  0  0
 15 16  1  0  0  0  0
 16 14  2  0  0  0  0
 17 14  1  0  0  0  0
 18 17  2  0  0  0  0
 19 20  1  0  0  0  0
 20 21  1  0  0  0  0
 21 23  1  0  0  0  0
 21 22  1  6  0  0  0
 23 24  1  0  0  0  0
 25 23  2  0  0  0  0
M  END
>  <MODEL>
4

>  <REMARK>
 VINA RESULT:      -6.0      2.852      5.202
  Name = 
  5 active torsions:
  status: ('A' for Active; 'I' for Inactive)
    1  A    between atoms: C_1  and  C_5
    2  A    between atoms: C_2  and  C_21
    3  A    between atoms: S_6  and  C_15
    4  A    between atoms: S_6  and  C_23
    5  A    between atoms: C_15  and  C_21
                            x       y       z     vdW  Elec       q    Type
                         _______ _______ _______ _____ _____    ______ ____

>  <TORSDO>
F 5

$$$$
=
 OpenBabel11052417313D

 25 27  0  0  1  0  0  0  0  0999 V2000
  188.4670  177.1070  146.2060 C   0  0  0  0  0  0  0  0  0  0  0  0
  189.0770  176.1500  145.2460 C   0  0  0  0  0  0  0  0  0  0  0  0
  190.6590  177.2370  147.3560 C   0  0  0  0  0  2  0  0  0  0  0  0
  190.9970  176.0520  146.6370 O   0  0  0  0  0  0  0  0  0  0  0  0
  190.9440  174.6490  144.5670 C   0  0  2  0  0  3  0  0  0  0  0  0
  192.1100  175.3000  143.8480 C   0  0  0  0  0  1  0  0  0  0  0  0
  188.3200  175.6950  144.1130 N   0  0  0  0  0  0  0  0  0  0  0  0
  189.1980  177.5710  147.2430 C   0  0  0  0  0  0  0  0  0  0  0  0
  188.5650  178.7480  148.3900 Cl  0  0  0  0  0  0  0  0  0  0  0  0
  190.0020  174.1230  143.5820 N   0  0  0  0  0  2  0  0  0  0  0  0
  188.7440  174.7530  143.3300 C   0  0  0  0  0  0  0  0  0  0  0  0
  190.3010  175.6480  145.4950 C   0  0  0  0  0  0  0  0  0  0  0  0
  187.0550  177.5100  146.0210 C   0  0  0  0  0  0  0  0  0  0  0  0
  184.3810  178.2930  145.7120 C   0  0  0  0  0  3  0  0  0  0  0  0
  186.7270  178.5980  145.1990 C   0  0  0  0  0  3  0  0  0  0  0  0
  185.3930  178.9870  145.0430 C   0  0  0  0  0  3  0  0  0  0  0  0
  184.7010  177.2130  146.5380 C   0  0  0  0  0  3  0  0  0  0  0  0
  186.0350  176.8240  146.6930 C   0  0  0  0  0  3  0  0  0  0  0  0
  187.7320  174.2090  141.9630 S   0  0  0  0  0  0  0  0  0  0  0  0
  188.1980  175.6510  140.9490 C   0  0  0  0  0  2  0  0  0  0  0  0
  187.0360  176.6180  140.7510 C   0  0  2  0  0  3  0  0  0  0  0  0
  186.7990  176.8430  139.3930 O   0  0  0  0  0  1  0  0  0  0  0  0
  187.2540  177.9070  141.4790 C   0  0  0  0  0  0  0  0  0  0  0  0
  188.5430  178.2880  141.8280 O   0  0  0  0  0  1  0  0  0  0  0  0
  186.2850  178.6660  141.7470 O   0  0  0  0  0  0  0  0  0  0  0  0
  1  8  2  0  0  0  0
  2 12  2  0  0  0  0
  2  1  1  0  0  0  0
  4  3  1  0  0  0  0
  5  6  1  6  0  0  0
  5 12  1  0  0  0  0
  7  2  1  0  0  0  0
  8  3  1  0  0  0  0
  8  9  1  0  0  0  0
 10  5  1  0  0  0  0
 11 10  1  0  0  0  0
 11  7  2  0  0  0  0
 12  4  1  0  0  0  0
 13  1  1  0  0  0  0
 13 18  1  0  0  0  0
 14 17  1  0  0  0  0
 15 13  2  0  0  0  0
 16 15  1  0  0  0  0
 16 14  2  0  0  0  0
 17 18  2  0  0  0  0
 19 11  1  0  0  0  0
 20 19  1  0  0  0  0
 21 22  1  6  0  0  0
 21 20  1  0  0  0  0
 21 23  1  0  0  0  0
 23 25  2  0  0  0  0
 23 24  1  0  0  0  0
M  END
>  <MODEL>
5

>  <REMARK>
 VINA RESULT:      -6.0      2.335      4.958
  Name = 
  5 active torsions:
  status: ('A' for Active; 'I' for Inactive)
    1  A    between atoms: C_1  and  C_5
    2  A    between atoms: C_2  and  C_21
    3  A    between atoms: S_6  and  C_15
    4  A    between atoms: S_6  and  C_23
    5  A    between atoms: C_15  and  C_21
                            x       y       z     vdW  Elec       q    Type
                         _______ _______ _______ _____ _____    ______ ____

>  <TORSDO>
F 5

$$$$
=
 OpenBabel11052417313D

 25 27  0  0  1  0  0  0  0  0999 V2000
  186.9120  176.8090  143.2070 C   0  0  0  0  0  0  0  0  0  0  0  0
  187.8810  175.7770  142.7510 C   0  0  0  0  0  0  0  0  0  0  0  0
  186.3170  177.1960  140.8320 C   0  0  0  0  0  2  0  0  0  0  0  0
  187.5200  176.4950  140.5180 O   0  0  0  0  0  0  0  0  0  0  0  0
  189.1610  174.6550  140.9350 C   0  0  2  0  0  3  0  0  0  0  0  0
  188.4400  173.5590  140.1740 C   0  0  0  0  0  1  0  0  0  0  0  0
  188.5800  174.9770  143.7180 N   0  0  0  0  0  0  0  0  0  0  0  0
  186.2200  177.5250  142.2950 C   0  0  0  0  0  0  0  0  0  0  0  0
  185.0160  178.7250  142.7570 Cl  0  0  0  0  0  0  0  0  0  0  0  0
  189.9390  174.0580  142.0180 N   0  0  0  0  0  2  0  0  0  0  0  0
  189.5390  174.1700  143.3850 C   0  0  0  0  0  0  0  0  0  0  0  0
  188.1620  175.6630  141.4390 C   0  0  0  0  0  0  0  0  0  0  0  0
  186.7490  177.0500  144.6580 C   0  0  0  0  0  0  0  0  0  0  0  0
  186.4350  177.5510  147.3980 C   0  0  0  0  0  3  0  0  0  0  0  0
  185.5270  176.7780  145.2920 C   0  0  0  0  0  3  0  0  0  0  0  0
  185.3720  177.0260  146.6590 C   0  0  0  0  0  3  0  0  0  0  0  0
  187.6530  177.8320  146.7720 C   0  0  0  0  0  3  0  0  0  0  0  0
  187.8080  177.5830  145.4050 C   0  0  0  0  0  3  0  0  0  0  0  0
  190.3920  173.2370  144.6450 S   0  0  0  0  0  0  0  0  0  0  0  0
  189.9560  174.4450  145.9380 C   0  0  0  0  0  2  0  0  0  0  0  0
  191.1820  174.9710  146.6760 C   0  0  2  0  0  3  0  0  0  0  0  0
  190.8590  175.3360  147.9850 O   0  0  0  0  0  1  0  0  0  0  0  0
  191.8290  176.1040  145.9450 C   0  0  0  0  0  0  0  0  0  0  0  0
  193.1950  176.3160  146.0800 O   0  0  0  0  0  1  0  0  0  0  0  0
  191.1550  176.8460  145.1830 O   0  0  0  0  0  0  0  0  0  0  0  0
  1 13  1  0  0  0  0
  2  1  1  0  0  0  0
  2  7  1  0  0  0  0
  3  8  1  0  0  0  0
  4  3  1  0  0  0  0
  4 12  1  0  0  0  0
  5  6  1  1  0  0  0
  5 12  1  0  0  0  0
  5 10  1  0  0  0  0
  8  9  1  0  0  0  0
  8  1  2  0  0  0  0
 10 11  1  0  0  0  0
 11  7  2  0  0  0  0
 11 19  1  0  0  0  0
 12  2  2  0  0  0  0
 13 15  2  0  0  0  0
 13 18  1  0  0  0  0
 15 16  1  0  0  0  0
 16 14  2  0  0  0  0
 17 14  1  0  0  0  0
 18 17  2  0  0  0  0
 19 20  1  0  0  0  0
 20 21  1  0  0  0  0
 21 22  1  1  0  0  0
 23 24  1  0  0  0  0
 23 21  1  0  0  0  0
 25 23  2  0  0  0  0
M  END
>  <MODEL>
6

>  <REMARK>
 VINA RESULT:      -6.0      2.816      4.418
  Name = 
  5 active torsions:
  status: ('A' for Active; 'I' for Inactive)
    1  A    between atoms: C_1  and  C_5
    2  A    between atoms: C_2  and  C_21
    3  A    between atoms: S_6  and  C_15
    4  A    between atoms: S_6  and  C_23
    5  A    between atoms: C_15  and  C_21
                            x       y       z     vdW  Elec       q    Type
                         _______ _______ _______ _____ _____    ______ ____

>  <TORSDO>
F 5

$$$$
=
 OpenBabel11052417313D

 25 27  0  0  1  0  0  0  0  0999 V2000
  187.2240  177.2890  144.8390 C   0  0  0  0  0  0  0  0  0  0  0  0
  188.1730  176.2020  145.1940 C   0  0  0  0  0  0  0  0  0  0  0  0
  187.1020  177.8700  147.2450 C   0  0  0  0  0  2  0  0  0  0  0  0
  187.6850  176.5890  147.4840 O   0  0  0  0  0  0  0  0  0  0  0  0
  189.2880  174.7630  146.8920 C   0  0  2  0  0  3  0  0  0  0  0  0
  190.5160  175.3400  147.5690 C   0  0  0  0  0  1  0  0  0  0  0  0
  188.8080  175.4400  144.1540 N   0  0  0  0  0  0  0  0  0  0  0  0
  186.6670  178.0370  145.8160 C   0  0  0  0  0  0  0  0  0  0  0  0
  185.5780  179.3770  145.4730 Cl  0  0  0  0  0  0  0  0  0  0  0  0
  189.7030  173.9480  145.7530 N   0  0  0  0  0  2  0  0  0  0  0  0
  189.5250  174.3900  144.4060 C   0  0  0  0  0  0  0  0  0  0  0  0
  188.3620  175.8800  146.4870 C   0  0  0  0  0  0  0  0  0  0  0  0
  186.8860  177.5110  143.4150 C   0  0  0  0  0  0  0  0  0  0  0  0
  186.2250  177.9730  140.7300 C   0  0  0  0  0  3  0  0  0  0  0  0
  187.8680  177.9370  142.5080 C   0  0  0  0  0  3  0  0  0  0  0  0
  187.5390  178.1640  141.1680 C   0  0  0  0  0  3  0  0  0  0  0  0
  185.2410  177.5560  141.6290 C   0  0  0  0  0  3  0  0  0  0  0  0
  185.5700  177.3280  142.9690 C   0  0  0  0  0  3  0  0  0  0  0  0
  190.2510  173.4660  143.0610 S   0  0  0  0  0  0  0  0  0  0  0  0
  189.6280  174.6460  141.8190 C   0  0  0  0  0  2  0  0  0  0  0  0
  188.5270  174.0450  140.9510 C   0  0  2  0  0  3  0  0  0  0  0  0
  187.9220  172.9610  141.5920 O   0  0  0  0  0  1  0  0  0  0  0  0
  189.0330  173.6560  139.5980 C   0  0  0  0  0  0  0  0  0  0  0  0
  188.1350  173.5020  138.5500 O   0  0  0  0  0  0  0  0  0  0  0  0
  190.2650  173.5020  139.3930 O   0  0  0  0  0  1  0  0  0  0  0  0
  1  2  1  0  0  0  0
  1  8  2  0  0  0  0
  2 12  2  0  0  0  0
  3  4  1  0  0  0  0
  5  6  1  6  0  0  0
  7 11  2  0  0  0  0
  7  2  1  0  0  0  0
  8  3  1  0  0  0  0
  9  8  1  0  0  0  0
 10  5  1  0  0  0  0
 11 10  1  0  0  0  0
 12  5  1  0  0  0  0
 12  4  1  0  0  0  0
 13  1  1  0  0  0  0
 14 16  2  0  0  0  0
 14 17  1  0  0  0  0
 15 13  2  0  0  0  0
 16 15  1  0  0  0  0
 17 18  2  0  0  0  0
 18 13  1  0  0  0  0
 19 11  1  0  0  0  0
 20 19  1  0  0  0  0
 21 22  1  1  0  0  0
 21 20  1  0  0  0  0
 23 21  1  0  0  0  0
 24 23  2  0  0  0  0
 25 23  1  0  0  0  0
M  END
>  <MODEL>
7

>  <REMARK>
 VINA RESULT:      -5.9      2.311      4.873
  Name = 
  5 active torsions:
  status: ('A' for Active; 'I' for Inactive)
    1  A    between atoms: C_1  and  C_5
    2  A    between atoms: C_2  and  C_21
    3  A    between atoms: S_6  and  C_15
    4  A    between atoms: S_6  and  C_23
    5  A    between atoms: C_15  and  C_21
                            x       y       z     vdW  Elec       q    Type
                         _______ _______ _______ _____ _____    ______ ____

>  <TORSDO>
F 5

$$$$
=
 OpenBabel11052417313D

 25 27  0  0  1  0  0  0  0  0999 V2000
  186.8930  176.7140  142.0620 C   0  0  0  0  0  0  0  0  0  0  0  0
  186.3200  177.2360  143.3300 C   0  0  0  0  0  0  0  0  0  0  0  0
  185.3780  178.2430  140.8330 C   0  0  0  0  0  2  0  0  0  0  0  0
  184.6600  178.3610  142.0610 O   0  0  0  0  0  0  0  0  0  0  0  0
  184.5920  178.5450  144.5540 C   0  0  2  0  0  3  0  0  0  0  0  0
  184.8200  180.0400  144.6570 C   0  0  0  0  0  1  0  0  0  0  0  0
  186.8760  176.8220  144.5890 N   0  0  0  0  0  0  0  0  0  0  0  0
  186.4020  177.1440  140.8790 C   0  0  0  0  0  0  0  0  0  0  0  0
  187.0650  176.6160  139.3360 Cl  0  0  0  0  0  0  0  0  0  0  0  0
  185.1190  177.8920  145.7500 N   0  0  0  0  0  2  0  0  0  0  0  0
  186.3250  177.1260  145.7220 C   0  0  0  0  0  0  0  0  0  0  0  0
  185.2270  178.0210  143.2920 C   0  0  0  0  0  0  0  0  0  0  0  0
  187.9770  175.7090  142.1230 C   0  0  0  0  0  0  0  0  0  0  0  0
  190.0330  173.8090  142.2850 C   0  0  0  0  0  3  0  0  0  0  0  0
  187.6860  174.3400  142.0210 C   0  0  0  0  0  3  0  0  0  0  0  0
  188.7110  173.3930  142.0990 C   0  0  0  0  0  3  0  0  0  0  0  0
  190.3300  175.1700  142.3950 C   0  0  0  0  0  3  0  0  0  0  0  0
  189.3040  176.1170  142.3160 C   0  0  0  0  0  3  0  0  0  0  0  0
  187.0470  176.5420  147.2470 S   0  0  0  0  0  0  0  0  0  0  0  0
  188.5840  176.0340  146.4080 C   0  0  0  0  0  2  0  0  0  0  0  0
  189.7260  177.0150  146.6510 C   0  0  2  0  0  3  0  0  0  0  0  0
  190.3500  177.3620  145.4510 O   0  0  0  0  0  1  0  0  0  0  0  0
  190.7170  176.4840  147.6380 C   0  0  0  0  0  0  0  0  0  0  0  0
  191.2700  177.3390  148.5820 O   0  0  0  0  0  1  0  0  0  0  0  0
  191.0270  175.2640  147.6450 O   0  0  0  0  0  0  0  0  0  0  0  0
  1 13  1  0  0  0  0
  1  2  1  0  0  0  0
  2  7  1  0  0  0  0
  3  8  1  0  0  0  0
  3  4  1  0  0  0  0
  4 12  1  0  0  0  0
  5  6  1  1  0  0  0
  5 10  1  0  0  0  0
  7 11  2  0  0  0  0
  8  1  2  0  0  0  0
  9  8  1  0  0  0  0
 11 10  1  0  0  0  0
 11 19  1  0  0  0  0
 12  2  2  0  0  0  0
 12  5  1  0  0  0  0
 13 18  1  0  0  0  0
 14 17  1  0  0  0  0
 15 16  1  0  0  0  0
 15 13  2  0  0  0  0
 16 14  2  0  0  0  0
 18 17  2  0  0  0  0
 20 21  1  0  0  0  0
 20 19  1  0  0  0  0
 21 22  1  6  0  0  0
 21 23  1  0  0  0  0
 23 25  2  0  0  0  0
 23 24  1  0  0  0  0
M  END
>  <MODEL>
8

>  <REMARK>
 VINA RESULT:      -5.8      3.037      4.783
  Name = 
  5 active torsions:
  status: ('A' for Active; 'I' for Inactive)
    1  A    between atoms: C_1  and  C_5
    2  A    between atoms: C_2  and  C_21
    3  A    between atoms: S_6  and  C_15
    4  A    between atoms: S_6  and  C_23
    5  A    between atoms: C_15  and  C_21
                            x       y       z     vdW  Elec       q    Type
                         _______ _______ _______ _____ _____    ______ ____

>  <TORSDO>
F 5

$$$$
=
 OpenBabel11052417313D

 25 27  0  0  1  0  0  0  0  0999 V2000
  185.6230  177.7850  143.8210 C   0  0  0  0  0  0  0  0  0  0  0  0
  186.2520  177.8560  145.1670 C   0  0  0  0  0  0  0  0  0  0  0  0
  183.6900  179.0350  144.7390 C   0  0  0  0  0  2  0  0  0  0  0  0
  184.2050  178.6960  146.0250 O   0  0  0  0  0  0  0  0  0  0  0  0
  186.1140  178.3480  147.6030 C   0  0  2  0  0  3  0  0  0  0  0  0
  186.3070  179.7940  148.0160 C   0  0  0  0  0  1  0  0  0  0  0  0
  187.5910  177.3720  145.3560 N   0  0  0  0  0  0  0  0  0  0  0  0
  184.3830  178.2860  143.6350 C   0  0  0  0  0  0  0  0  0  0  0  0
  183.5940  178.2890  142.0610 Cl  0  0  0  0  0  0  0  0  0  0  0  0
  187.3920  177.6450  147.6940 N   0  0  0  0  0  2  0  0  0  0  0  0
  188.1320  177.2730  146.5300 C   0  0  0  0  0  0  0  0  0  0  0  0
  185.5290  178.2910  146.2160 C   0  0  0  0  0  0  0  0  0  0  0  0
  186.3630  177.1370  142.7160 C   0  0  0  0  0  0  0  0  0  0  0  0
  187.8040  175.9300  140.6350 C   0  0  0  0  0  3  0  0  0  0  0  0
  186.7410  175.7890  142.8060 C   0  0  0  0  0  3  0  0  0  0  0  0
  187.4570  175.1870  141.7670 C   0  0  0  0  0  3  0  0  0  0  0  0
  187.4370  177.2750  140.5420 C   0  0  0  0  0  3  0  0  0  0  0  0
  186.7200  177.8770  141.5810 C   0  0  0  0  0  3  0  0  0  0  0  0
  189.7870  176.6240  146.6940 S   0  0  0  0  0  0  0  0  0  0  0  0
  189.5980  175.5700  145.2180 C   0  0  0  0  0  2  0  0  0  0  0  0
  190.7790  175.6980  144.2620 C   0  0  2  0  0  3  0  0  0  0  0  0
  191.9690  175.3130  144.8840 O   0  0  0  0  0  1  0  0  0  0  0  0
  190.8910  177.0780  143.6950 C   0  0  0  0  0  0  0  0  0  0  0  0
  191.9360  177.9000  144.0940 O   0  0  0  0  0  1  0  0  0  0  0  0
  190.0690  177.4870  142.8340 O   0  0  0  0  0  0  0  0  0  0  0  0
  1  2  1  0  0  0  0
  2  7  1  0  0  0  0
  2 12  2  0  0  0  0
  3  4  1  0  0  0  0
  4 12  1  0  0  0  0
  5 10  1  0  0  0  0
  5  6  1  6  0  0  0
  7 11  2  0  0  0  0
  8  1  2  0  0  0  0
  8  3  1  0  0  0  0
  9  8  1  0  0  0  0
 11 19  1  0  0  0  0
 11 10  1  0  0  0  0
 12  5  1  0  0  0  0
 13 15  1  0  0  0  0
 13  1  1  0  0  0  0
 14 16  1  0  0  0  0
 16 15  2  0  0  0  0
 17 14  2  0  0  0  0
 17 18  1  0  0  0  0
 18 13  2  0  0  0  0
 20 19  1  0  0  0  0
 21 22  1  1  0  0  0
 21 20  1  0  0  0  0
 23 24  1  0  0  0  0
 23 21  1  0  0  0  0
 25 23  2  0  0  0  0
M  END
>  <MODEL>
9

>  <REMARK>
 VINA RESULT:      -5.8      2.764      4.695
  Name = 
  5 active torsions:
  status: ('A' for Active; 'I' for Inactive)
    1  A    between atoms: C_1  and  C_5
    2  A    between atoms: C_2  and  C_21
    3  A    between atoms: S_6  and  C_15
    4  A    between atoms: S_6  and  C_23
    5  A    between atoms: C_15  and  C_21
                            x       y       z     vdW  Elec       q    Type
                         _______ _______ _______ _____ _____    ______ ____

>  <TORSDO>
F 5

$$$$
