=
 OpenBabel11052421023D

 43 47  0  0  1  0  0  0  0  0999 V2000
  184.5110  178.3440  146.8810 C   0  0  2  0  0  3  0  0  0  0  0  0
  189.0080  176.5820  145.3480 C   0  0  2  0  0  3  0  0  0  0  0  0
  188.5730  175.0920  143.0330 C   0  0  2  0  0  3  0  0  0  0  0  0
  187.0290  178.5460  146.3790 C   0  0  1  0  0  3  0  0  0  0  0  0
  184.5480  176.8390  146.5700 C   0  0  0  0  0  2  0  0  0  0  0  0
  184.0730  179.0520  145.7610 O   0  0  0  0  0  1  0  0  0  0  0  0
  186.6320  177.5190  145.2970 C   0  0  2  0  0  3  0  0  0  0  0  0
  185.8740  178.8730  147.3400 C   0  0  0  0  0  2  0  0  0  0  0  0
  185.8560  176.3580  145.9230 C   0  0  0  0  0  2  0  0  0  0  0  0
  187.4330  176.0420  143.4040 C   0  0  0  0  0  2  0  0  0  0  0  0
  187.8410  177.0690  144.4640 C   0  0  2  0  0  3  0  0  0  0  0  0
  189.3960  177.6930  146.3180 C   0  0  0  0  0  2  0  0  0  0  0  0
  190.1990  176.1710  144.5760 N   0  0  0  0  0  0  0  0  0  0  0  0
  189.9200  175.7960  143.1800 C   0  0  0  0  0  2  0  0  0  0  0  0
  188.2150  178.0550  147.2100 C   0  0  0  0  0  2  0  0  0  0  0  0
  188.4000  174.5410  141.6220 C   0  0  2  0  0  3  0  0  0  0  0  0
  187.7070  173.3410  141.6500 F   0  0  0  0  0  0  0  0  0  0  0  0
  189.7050  174.3450  141.0100 N   0  0  0  0  0  2  0  0  0  0  0  0
  189.8840  173.6830  139.7580 C   0  0  0  0  0  0  0  0  0  0  0  0
  188.8910  173.3100  139.0790 O   0  0  0  0  0  0  0  0  0  0  0  0
  191.5430  173.3840  139.1510 S   0  0  0  0  0  0  0  0  0  0  0  0
  192.3470  173.4750  140.7940 C   0  0  1  0  0  3  0  0  0  0  0  0
  192.6280  172.0960  141.3820 C   0  0  0  0  0  2  0  0  0  0  0  0
  190.6720  170.6300  141.8580 C   0  0  0  0  0  1  0  0  0  0  0  0
  191.5790  171.7110  142.4110 C   0  0  0  0  0  2  0  0  0  0  0  0
  193.5340  174.2070  140.7070 O   0  0  0  0  0  0  0  0  0  0  0  0
  193.7150  174.7560  141.9790 C   0  0  2  0  0  3  0  0  0  0  0  0
  193.0660  175.9910  142.0570 O   0  0  0  0  0  1  0  0  0  0  0  0
  195.1710  174.9240  142.2650 C   0  0  0  0  0  0  0  0  0  0  0  0
  197.3680  173.9400  142.5420 C   0  0  0  0  0  3  0  0  0  0  0  0
  197.0800  176.3340  142.7690 C   0  0  0  0  0  3  0  0  0  0  0  0
  197.9080  175.2060  142.7860 C   0  0  0  0  0  3  0  0  0  0  0  0
  195.7140  176.1930  142.5080 C   0  0  0  0  0  3  0  0  0  0  0  0
  196.0020  173.7990  142.2810 C   0  0  0  0  0  3  0  0  0  0  0  0
  190.7280  175.0320  145.2040 N   0  0  0  0  0  2  0  0  0  0  0  0
  194.0960  173.4340  145.5020 C   0  0  0  0  0  3  0  0  0  0  0  0
  194.8950  174.5480  145.8070 C   0  0  0  0  0  0  0  0  0  0  0  0
  192.9260  175.9630  145.7110 C   0  0  0  0  0  3  0  0  0  0  0  0
  192.7220  173.5870  145.3010 C   0  0  0  0  0  3  0  0  0  0  0  0
  192.1320  174.8550  145.4020 C   0  0  0  0  0  0  0  0  0  0  0  0
  194.3000  175.8100  145.9110 C   0  0  0  0  0  3  0  0  0  0  0  0
  196.2720  174.4300  146.0110 O   0  0  0  0  0  0  0  0  0  0  0  0
  196.9250  173.1730  146.1300 C   0  0  0  0  0  1  0  0  0  0  0  0
  1  6  1  6  0  0  0
  1  8  1  0  0  0  0
  2 12  1  1  0  0  0
  3 16  1  6  0  0  0
  3 14  1  0  0  0  0
  3 10  1  0  0  0  0
  4 15  1  1  0  0  0
  4  8  1  0  0  0  0
  5  1  1  0  0  0  0
  7  9  1  1  0  0  0
  7  4  1  0  0  0  0
  9  5  1  0  0  0  0
 11 10  1  6  0  0  0
 11  7  1  0  0  0  0
 11  2  1  0  0  0  0
 12 15  1  0  0  0  0
 13 35  1  0  0  0  0
 13  2  1  0  0  0  0
 14 13  1  0  0  0  0
 16 17  1  1  0  0  0
 18 16  1  0  0  0  0
 19 18  1  0  0  0  0
 20 19  2  0  0  0  0
 21 19  1  0  0  0  0
 21 22  1  0  0  0  0
 22 23  1  6  0  0  0
 23 25  1  0  0  0  0
 24 25  1  0  0  0  0
 26 22  1  0  0  0  0
 26 27  1  0  0  0  0
 27 28  1  6  0  0  0
 27 29  1  0  0  0  0
 29 34  2  0  0  0  0
 29 33  1  0  0  0  0
 30 32  2  0  0  0  0
 31 32  1  0  0  0  0
 33 31  2  0  0  0  0
 34 30  1  0  0  0  0
 35 40  1  0  0  0  0
 36 37  1  0  0  0  0
 37 41  2  0  0  0  0
 37 42  1  0  0  0  0
 38 41  1  0  0  0  0
 39 40  1  0  0  0  0
 39 36  2  0  0  0  0
 40 38  2  0  0  0  0
 42 43  1  0  0  0  0
M  END
>  <MODEL>
1

>  <REMARK>
 VINA RESULT:      -6.7      0.000      0.000
  Name = 
  12 active torsions:
  status: ('A' for Active; 'I' for Inactive)
    1  A    between atoms: N_1  and  N_34
    2  A    between atoms: N_1  and  C_35
    3  A    between atoms: C_2  and  N_6
    4  A    between atoms: C_2  and  C_13
    5  A    between atoms: S_3  and  C_4
    6  A    between atoms: S_3  and  C_12
    7  A    between atoms: C_4  and  C_15
    8  A    between atoms: C_4  and  O_22
    9  A    between atoms: C_11  and  C_14
   10  A    between atoms: C_14  and  O_22
   11  A    between atoms: C_15  and  C_42
   12  A    between atoms: C_19  and  O_25
                            x       y       z     vdW  Elec       q    Type
                         _______ _______ _______ _____ _____    ______ ____

>  <TORSDO>
F 12

$$$$
=
 OpenBabel11052421023D

 43 47  0  0  1  0  0  0  0  0999 V2000
  190.2890  171.5830  136.2150 C   0  0  2  0  0  3  0  0  0  0  0  0
  189.9430  173.8400  140.7390 C   0  0  2  0  0  3  0  0  0  0  0  0
  188.0310  175.8560  140.5190 C   0  0  2  0  0  3  0  0  0  0  0  0
  190.1420  171.6070  138.7860 C   0  0  1  0  0  3  0  0  0  0  0  0
  190.3700  173.1170  136.1830 C   0  0  0  0  0  2  0  0  0  0  0  0
  188.9760  171.1690  135.9890 O   0  0  0  0  0  1  0  0  0  0  0  0
  189.3000  172.8620  138.4680 C   0  0  2  0  0  3  0  0  0  0  0  0
  190.8050  171.0040  137.5360 C   0  0  0  0  0  2  0  0  0  0  0  0
  190.0690  173.7950  137.5290 C   0  0  0  0  0  2  0  0  0  0  0  0
  187.9770  174.8020  139.4120 C   0  0  0  0  0  2  0  0  0  0  0  0
  188.7990  173.5540  139.7440 C   0  0  2  0  0  3  0  0  0  0  0  0
  190.6560  172.5330  141.0690 C   0  0  0  0  0  2  0  0  0  0  0  0
  189.4880  174.4780  141.9910 N   0  0  0  0  0  0  0  0  0  0  0  0
  188.2030  175.1880  141.8810 C   0  0  0  0  0  2  0  0  0  0  0  0
  191.2400  171.9130  139.8060 C   0  0  0  0  0  2  0  0  0  0  0  0
  186.7920  176.7430  140.5020 C   0  0  2  0  0  3  0  0  0  0  0  0
  186.7120  177.4470  139.3110 F   0  0  0  0  0  0  0  0  0  0  0  0
  186.8380  177.6700  141.6230 N   0  0  0  0  0  2  0  0  0  0  0  0
  185.6800  178.0440  142.3700 C   0  0  0  0  0  0  0  0  0  0  0  0
  184.5640  177.5110  142.1370 O   0  0  0  0  0  0  0  0  0  0  0  0
  185.8260  179.2870  143.6510 S   0  0  0  0  0  0  0  0  0  0  0  0
  186.4810  178.1460  144.9250 C   0  0  1  0  0  3  0  0  0  0  0  0
  185.3910  177.2800  145.5490 C   0  0  0  0  0  2  0  0  0  0  0  0
  184.7120  178.5560  147.5770 C   0  0  0  0  0  1  0  0  0  0  0  0
  184.3040  178.1320  146.1790 C   0  0  0  0  0  2  0  0  0  0  0  0
  187.4770  177.3340  144.3740 O   0  0  0  0  0  0  0  0  0  0  0  0
  188.6780  177.8520  144.8650 C   0  0  2  0  0  3  0  0  0  0  0  0
  189.5560  178.0930  143.8050 O   0  0  0  0  0  1  0  0  0  0  0  0
  189.2940  176.8960  145.8340 C   0  0  0  0  0  0  0  0  0  0  0  0
  189.2620  174.7430  146.9440 C   0  0  0  0  0  3  0  0  0  0  0  0
  191.0320  176.3240  147.4260 C   0  0  0  0  0  3  0  0  0  0  0  0
  190.4300  175.0780  147.6340 C   0  0  0  0  0  3  0  0  0  0  0  0
  190.4660  177.2310  146.5270 C   0  0  0  0  0  3  0  0  0  0  0  0
  188.6950  175.6500  146.0430 C   0  0  0  0  0  3  0  0  0  0  0  0
  190.4520  175.4370  142.3430 N   0  0  0  0  0  2  0  0  0  0  0  0
  192.4850  173.7470  144.9880 C   0  0  0  0  0  3  0  0  0  0  0  0
  193.5200  174.6780  145.1650 C   0  0  0  0  0  0  0  0  0  0  0  0
  192.5090  176.0970  143.4760 C   0  0  0  0  0  3  0  0  0  0  0  0
  191.4700  173.9910  144.0590 C   0  0  0  0  0  3  0  0  0  0  0  0
  191.4820  175.1670  143.2960 C   0  0  0  0  0  0  0  0  0  0  0  0
  193.5240  175.8530  144.4050 C   0  0  0  0  0  3  0  0  0  0  0  0
  194.5510  174.4630  146.0840 O   0  0  0  0  0  0  0  0  0  0  0  0
  195.9240  174.5060  145.7210 C   0  0  0  0  0  1  0  0  0  0  0  0
  1  6  1  1  0  0  0
  1  8  1  0  0  0  0
  2 12  1  1  0  0  0
  2 13  1  0  0  0  0
  3 16  1  1  0  0  0
  3 14  1  0  0  0  0
  4  8  1  6  0  0  0
  4 15  1  0  0  0  0
  5  1  1  0  0  0  0
  5  9  1  0  0  0  0
  7  9  1  1  0  0  0
  7  4  1  0  0  0  0
  7 11  1  0  0  0  0
 10  3  1  0  0  0  0
 11 10  1  6  0  0  0
 11  2  1  0  0  0  0
 13 35  1  0  0  0  0
 14 13  1  0  0  0  0
 15 12  1  0  0  0  0
 16 17  1  6  0  0  0
 16 18  1  0  0  0  0
 18 19  1  0  0  0  0
 19 21  1  0  0  0  0
 20 19  2  0  0  0  0
 21 22  1  0  0  0  0
 22 23  1  6  0  0  0
 23 25  1  0  0  0  0
 25 24  1  0  0  0  0
 26 27  1  0  0  0  0
 26 22  1  0  0  0  0
 27 28  1  6  0  0  0
 27 29  1  0  0  0  0
 29 34  2  0  0  0  0
 29 33  1  0  0  0  0
 30 32  2  0  0  0  0
 31 32  1  0  0  0  0
 33 31  2  0  0  0  0
 34 30  1  0  0  0  0
 35 40  1  0  0  0  0
 36 37  1  0  0  0  0
 37 42  1  0  0  0  0
 38 41  1  0  0  0  0
 39 36  2  0  0  0  0
 40 38  2  0  0  0  0
 40 39  1  0  0  0  0
 41 37  2  0  0  0  0
 43 42  1  0  0  0  0
M  END
>  <MODEL>
2

>  <REMARK>
 VINA RESULT:      -6.7      2.811      7.545
  Name = 
  12 active torsions:
  status: ('A' for Active; 'I' for Inactive)
    1  A    between atoms: N_1  and  N_34
    2  A    between atoms: N_1  and  C_35
    3  A    between atoms: C_2  and  N_6
    4  A    between atoms: C_2  and  C_13
    5  A    between atoms: S_3  and  C_4
    6  A    between atoms: S_3  and  C_12
    7  A    between atoms: C_4  and  C_15
    8  A    between atoms: C_4  and  O_22
    9  A    between atoms: C_11  and  C_14
   10  A    between atoms: C_14  and  O_22
   11  A    between atoms: C_15  and  C_42
   12  A    between atoms: C_19  and  O_25
                            x       y       z     vdW  Elec       q    Type
                         _______ _______ _______ _____ _____    ______ ____

>  <TORSDO>
F 12

$$$$
=
 OpenBabel11052421023D

 43 47  0  0  1  0  0  0  0  0999 V2000
  193.5120  176.0450  146.3200 C   0  0  2  0  0  3  0  0  0  0  0  0
  188.9650  176.5430  144.1390 C   0  0  2  0  0  3  0  0  0  0  0  0
  189.0550  175.1830  141.7070 C   0  0  2  0  0  3  0  0  0  0  0  0
  190.9360  176.0620  146.3120 C   0  0  1  0  0  3  0  0  0  0  0  0
  193.5420  176.5040  144.8540 C   0  0  0  0  0  2  0  0  0  0  0  0
  193.6570  174.6590  146.3900 O   0  0  0  0  0  1  0  0  0  0  0  0
  191.1960  175.5430  144.8810 C   0  0  2  0  0  3  0  0  0  0  0  0
  192.2280  176.4790  147.0350 C   0  0  0  0  0  2  0  0  0  0  0  0
  192.1770  176.4620  144.1500 C   0  0  0  0  0  2  0  0  0  0  0  0
  190.1620  174.8030  142.6920 C   0  0  0  0  0  2  0  0  0  0  0  0
  189.8870  175.3060  144.1120 C   0  0  2  0  0  3  0  0  0  0  0  0
  188.6860  176.9260  145.5880 C   0  0  0  0  0  2  0  0  0  0  0  0
  187.6840  176.3360  143.4330 N   0  0  0  0  0  0  0  0  0  0  0  0
  187.7100  175.2640  142.4250 C   0  0  0  0  0  2  0  0  0  0  0  0
  189.9860  177.2600  146.3090 C   0  0  0  0  0  2  0  0  0  0  0  0
  188.9900  174.2050  140.5400 C   0  0  2  0  0  3  0  0  0  0  0  0
  187.9130  173.3460  140.6840 F   0  0  0  0  0  0  0  0  0  0  0  0
  190.2270  173.4430  140.4720 N   0  0  0  0  0  2  0  0  0  0  0  0
  190.5400  172.5650  139.3910 C   0  0  0  0  0  0  0  0  0  0  0  0
  189.7800  172.4790  138.3900 O   0  0  0  0  0  0  0  0  0  0  0  0
  192.0330  171.5780  139.4640 S   0  0  0  0  0  0  0  0  0  0  0  0
  192.7070  172.3950  140.9570 C   0  0  1  0  0  3  0  0  0  0  0  0
  192.8230  171.4400  142.1420 C   0  0  0  0  0  2  0  0  0  0  0  0
  193.1650  171.6550  144.5990 C   0  0  0  0  0  1  0  0  0  0  0  0
  192.3140  172.0830  143.4190 C   0  0  0  0  0  2  0  0  0  0  0  0
  193.9550  172.9560  140.6740 O   0  0  0  0  0  0  0  0  0  0  0  0
  193.7820  174.3320  140.8540 C   0  0  2  0  0  3  0  0  0  0  0  0
  193.7780  174.9720  139.6130 O   0  0  0  0  0  1  0  0  0  0  0  0
  194.8750  174.8800  141.7120 C   0  0  0  0  0  0  0  0  0  0  0  0
  196.4500  174.5800  143.5280 C   0  0  0  0  0  3  0  0  0  0  0  0
  196.3880  176.6770  142.3180 C   0  0  0  0  0  3  0  0  0  0  0  0
  196.9330  175.8760  143.3280 C   0  0  0  0  0  3  0  0  0  0  0  0
  195.3620  176.1800  141.5110 C   0  0  0  0  0  3  0  0  0  0  0  0
  195.4230  174.0820  142.7200 C   0  0  0  0  0  3  0  0  0  0  0  0
  187.3880  177.5280  142.7500 N   0  0  0  0  0  2  0  0  0  0  0  0
  184.6850  178.1890  140.2530 C   0  0  0  0  0  3  0  0  0  0  0  0
  183.5620  178.2800  141.0920 C   0  0  0  0  0  0  0  0  0  0  0  0
  184.9880  177.8740  143.0130 C   0  0  0  0  0  3  0  0  0  0  0  0
  185.9490  177.9410  140.7940 C   0  0  0  0  0  3  0  0  0  0  0  0
  186.1040  177.7790  142.1770 C   0  0  0  0  0  0  0  0  0  0  0  0
  183.7230  178.1220  142.4730 C   0  0  0  0  0  3  0  0  0  0  0  0
  182.2840  178.5240  140.5830 O   0  0  0  0  0  0  0  0  0  0  0  0
  181.1170  178.4970  141.3920 C   0  0  0  0  0  1  0  0  0  0  0  0
  1  6  1  6  0  0  0
  1  8  1  0  0  0  0
  2 12  1  1  0  0  0
  3 16  1  6  0  0  0
  3 14  1  0  0  0  0
  3 10  1  0  0  0  0
  4 15  1  6  0  0  0
  4  8  1  0  0  0  0
  5  1  1  0  0  0  0
  7  9  1  6  0  0  0
  7  4  1  0  0  0  0
  9  5  1  0  0  0  0
 11 10  1  6  0  0  0
 11  2  1  0  0  0  0
 11  7  1  0  0  0  0
 12 15  1  0  0  0  0
 13  2  1  0  0  0  0
 14 13  1  0  0  0  0
 16 17  1  1  0  0  0
 18 16  1  0  0  0  0
 19 21  1  0  0  0  0
 19 18  1  0  0  0  0
 20 19  2  0  0  0  0
 21 22  1  0  0  0  0
 22 23  1  1  0  0  0
 23 25  1  0  0  0  0
 25 24  1  0  0  0  0
 26 27  1  0  0  0  0
 26 22  1  0  0  0  0
 27 28  1  6  0  0  0
 27 29  1  0  0  0  0
 29 34  1  0  0  0  0
 31 32  2  0  0  0  0
 32 30  1  0  0  0  0
 33 29  2  0  0  0  0
 33 31  1  0  0  0  0
 34 30  2  0  0  0  0
 35 13  1  0  0  0  0
 36 39  2  0  0  0  0
 36 37  1  0  0  0  0
 37 41  2  0  0  0  0
 39 40  1  0  0  0  0
 40 35  1  0  0  0  0
 40 38  2  0  0  0  0
 41 38  1  0  0  0  0
 42 37  1  0  0  0  0
 42 43  1  0  0  0  0
M  END
>  <MODEL>
3

>  <REMARK>
 VINA RESULT:      -6.7      2.362      6.321
  Name = 
  12 active torsions:
  status: ('A' for Active; 'I' for Inactive)
    1  A    between atoms: N_1  and  N_34
    2  A    between atoms: N_1  and  C_35
    3  A    between atoms: C_2  and  N_6
    4  A    between atoms: C_2  and  C_13
    5  A    between atoms: S_3  and  C_4
    6  A    between atoms: S_3  and  C_12
    7  A    between atoms: C_4  and  C_15
    8  A    between atoms: C_4  and  O_22
    9  A    between atoms: C_11  and  C_14
   10  A    between atoms: C_14  and  O_22
   11  A    between atoms: C_15  and  C_42
   12  A    between atoms: C_19  and  O_25
                            x       y       z     vdW  Elec       q    Type
                         _______ _______ _______ _____ _____    ______ ____

>  <TORSDO>
F 12

$$$$
=
 OpenBabel11052421023D

 43 47  0  0  1  0  0  0  0  0999 V2000
  190.6890  169.2320  137.1520 C   0  0  2  0  0  3  0  0  0  0  0  0
  189.7270  173.2030  140.1500 C   0  0  2  0  0  3  0  0  0  0  0  0
  191.1650  172.8340  142.5080 C   0  0  2  0  0  3  0  0  0  0  0  0
  190.3670  171.7410  137.6420 C   0  0  1  0  0  3  0  0  0  0  0  0
  190.2850  168.8770  138.5910 C   0  0  0  0  0  2  0  0  0  0  0  0
  192.0800  169.2740  137.0420 O   0  0  0  0  0  1  0  0  0  0  0  0
  190.9600  171.2870  138.9940 C   0  0  2  0  0  3  0  0  0  0  0  0
  190.0840  170.5630  136.6940 C   0  0  0  0  0  2  0  0  0  0  0  0
  190.1880  170.0830  139.5370 C   0  0  0  0  0  2  0  0  0  0  0  0
  191.6420  171.9820  141.3300 C   0  0  0  0  0  2  0  0  0  0  0  0
  191.0640  172.4510  139.9910 C   0  0  2  0  0  3  0  0  0  0  0  0
  189.2660  173.6960  138.7820 C   0  0  0  0  0  2  0  0  0  0  0  0
  189.8030  174.3480  141.0810 N   0  0  0  0  0  0  0  0  0  0  0  0
  190.9030  174.2680  142.0560 C   0  0  0  0  0  2  0  0  0  0  0  0
  189.0660  172.5200  137.8340 C   0  0  0  0  0  2  0  0  0  0  0  0
  192.1660  172.8010  143.6570 C   0  0  2  0  0  3  0  0  0  0  0  0
  192.3310  171.5070  144.1240 F   0  0  0  0  0  0  0  0  0  0  0  0
  191.7010  173.6610  144.7350 N   0  0  0  0  0  2  0  0  0  0  0  0
  192.5570  174.5700  145.4270 C   0  0  0  0  0  0  0  0  0  0  0  0
  193.7540  174.7280  145.0690 O   0  0  0  0  0  0  0  0  0  0  0  0
  191.9140  175.4940  146.8210 S   0  0  0  0  0  0  0  0  0  0  0  0
  190.8030  176.5560  145.8260 C   0  0  1  0  0  3  0  0  0  0  0  0
  191.4130  176.9390  144.4810 C   0  0  0  0  0  2  0  0  0  0  0  0
  189.9460  177.9640  142.7490 C   0  0  0  0  0  1  0  0  0  0  0  0
  190.8210  178.2360  143.9570 C   0  0  0  0  0  2  0  0  0  0  0  0
  189.5770  175.9160  145.6280 O   0  0  0  0  0  0  0  0  0  0  0  0
  188.8580  176.1390  146.8060 C   0  0  2  0  0  3  0  0  0  0  0  0
  188.5770  174.9180  147.4250 O   0  0  0  0  0  1  0  0  0  0  0  0
  187.5880  176.8650  146.5040 C   0  0  0  0  0  0  0  0  0  0  0  0
  185.1950  177.0930  146.8030 C   0  0  0  0  0  3  0  0  0  0  0  0
  186.3900  178.6610  145.3970 C   0  0  0  0  0  3  0  0  0  0  0  0
  185.1940  178.2130  145.9670 C   0  0  0  0  0  3  0  0  0  0  0  0
  187.5860  177.9890  145.6660 C   0  0  0  0  0  3  0  0  0  0  0  0
  186.3910  176.4200  147.0720 C   0  0  0  0  0  3  0  0  0  0  0  0
  188.6070  174.3640  141.8180 N   0  0  0  0  0  2  0  0  0  0  0  0
  185.8750  176.7700  142.6720 C   0  0  0  0  0  3  0  0  0  0  0  0
  185.8470  177.5650  141.5150 C   0  0  0  0  0  0  0  0  0  0  0  0
  187.6420  176.2290  140.5760 C   0  0  0  0  0  3  0  0  0  0  0  0
  186.7830  175.7130  142.7780 C   0  0  0  0  0  3  0  0  0  0  0  0
  187.6740  175.4420  141.7300 C   0  0  0  0  0  0  0  0  0  0  0  0
  186.7340  177.2860  140.4700 C   0  0  0  0  0  3  0  0  0  0  0  0
  184.9530  178.6300  141.3780 O   0  0  0  0  0  0  0  0  0  0  0  0
  183.8250  178.5790  140.5160 C   0  0  0  0  0  1  0  0  0  0  0  0
  1  6  1  1  0  0  0
  1  5  1  0  0  0  0
  2 12  1  6  0  0  0
  2 13  1  0  0  0  0
  3 16  1  1  0  0  0
  4  8  1  6  0  0  0
  4 15  1  0  0  0  0
  4  7  1  0  0  0  0
  5  9  1  0  0  0  0
  7  9  1  1  0  0  0
  7 11  1  0  0  0  0
  8  1  1  0  0  0  0
 10  3  1  0  0  0  0
 11  2  1  0  0  0  0
 11 10  1  1  0  0  0
 13 35  1  0  0  0  0
 13 14  1  0  0  0  0
 14  3  1  0  0  0  0
 15 12  1  0  0  0  0
 16 17  1  1  0  0  0
 16 18  1  0  0  0  0
 18 19  1  0  0  0  0
 19 21  1  0  0  0  0
 20 19  2  0  0  0  0
 22 23  1  6  0  0  0
 22 21  1  0  0  0  0
 24 25  1  0  0  0  0
 25 23  1  0  0  0  0
 26 22  1  0  0  0  0
 26 27  1  0  0  0  0
 27 28  1  6  0  0  0
 29 27  1  0  0  0  0
 29 34  1  0  0  0  0
 30 34  2  0  0  0  0
 31 33  1  0  0  0  0
 31 32  2  0  0  0  0
 32 30  1  0  0  0  0
 33 29  2  0  0  0  0
 36 39  1  0  0  0  0
 37 36  2  0  0  0  0
 38 40  1  0  0  0  0
 40 35  1  0  0  0  0
 40 39  2  0  0  0  0
 41 38  2  0  0  0  0
 41 37  1  0  0  0  0
 42 37  1  0  0  0  0
 43 42  1  0  0  0  0
M  END
>  <MODEL>
4

>  <REMARK>
 VINA RESULT:      -6.6      3.158      9.207
  Name = 
  12 active torsions:
  status: ('A' for Active; 'I' for Inactive)
    1  A    between atoms: N_1  and  N_34
    2  A    between atoms: N_1  and  C_35
    3  A    between atoms: C_2  and  N_6
    4  A    between atoms: C_2  and  C_13
    5  A    between atoms: S_3  and  C_4
    6  A    between atoms: S_3  and  C_12
    7  A    between atoms: C_4  and  C_15
    8  A    between atoms: C_4  and  O_22
    9  A    between atoms: C_11  and  C_14
   10  A    between atoms: C_14  and  O_22
   11  A    between atoms: C_15  and  C_42
   12  A    between atoms: C_19  and  O_25
                            x       y       z     vdW  Elec       q    Type
                         _______ _______ _______ _____ _____    ______ ____

>  <TORSDO>
F 12

$$$$
=
 OpenBabel11052421023D

 43 47  0  0  1  0  0  0  0  0999 V2000
  196.9750  175.8180  142.0210 C   0  0  2  0  0  3  0  0  0  0  0  0
  192.4350  176.0780  144.2580 C   0  0  2  0  0  3  0  0  0  0  0  0
  190.5330  175.3050  142.3720 C   0  0  2  0  0  3  0  0  0  0  0  0
  195.3250  175.4440  143.9630 C   0  0  1  0  0  3  0  0  0  0  0  0
  195.9030  176.5810  141.2280 C   0  0  0  0  0  2  0  0  0  0  0  0
  197.0230  174.4870  141.6020 O   0  0  0  0  0  1  0  0  0  0  0  0
  194.3570  175.2910  142.7700 C   0  0  2  0  0  3  0  0  0  0  0  0
  196.7340  175.8860  143.5330 C   0  0  0  0  0  2  0  0  0  0  0  0
  194.4890  176.4850  141.8210 C   0  0  0  0  0  2  0  0  0  0  0  0
  191.9680  174.8930  142.0370 C   0  0  0  0  0  2  0  0  0  0  0  0
  192.9160  175.0310  143.2310 C   0  0  2  0  0  3  0  0  0  0  0  0
  193.3940  176.0920  145.4430 C   0  0  0  0  0  2  0  0  0  0  0  0
  191.0610  175.8360  144.7450 N   0  0  0  0  0  0  0  0  0  0  0  0
  190.2290  175.0230  143.8420 C   0  0  0  0  0  2  0  0  0  0  0  0
  194.8000  176.4560  144.9840 C   0  0  0  0  0  2  0  0  0  0  0  0
  189.5280  174.6040  141.4660 C   0  0  2  0  0  3  0  0  0  0  0  0
  188.2650  174.6150  142.0380 F   0  0  0  0  0  0  0  0  0  0  0  0
  189.9540  173.2330  141.2320 N   0  0  0  0  0  2  0  0  0  0  0  0
  190.3420  172.7480  139.9470 C   0  0  0  0  0  0  0  0  0  0  0  0
  190.4150  173.5280  138.9600 O   0  0  0  0  0  0  0  0  0  0  0  0
  190.7310  171.0120  139.7430 S   0  0  0  0  0  0  0  0  0  0  0  0
  192.4750  171.1610  140.2800 C   0  0  1  0  0  3  0  0  0  0  0  0
  193.3660  171.7740  139.2050 C   0  0  0  0  0  2  0  0  0  0  0  0
  193.9170  174.1870  138.9330 C   0  0  0  0  0  1  0  0  0  0  0  0
  194.1720  172.9380  139.7540 C   0  0  0  0  0  2  0  0  0  0  0  0
  192.5520  171.9190  141.4520 O   0  0  0  0  0  0  0  0  0  0  0  0
  192.6700  170.9820  142.4820 C   0  0  2  0  0  3  0  0  0  0  0  0
  191.4390  170.8300  143.1240 O   0  0  0  0  0  1  0  0  0  0  0  0
  193.7090  171.4220  143.4610 C   0  0  0  0  0  0  0  0  0  0  0  0
  196.0350  171.8640  143.9760 C   0  0  0  0  0  3  0  0  0  0  0  0
  194.3350  172.2260  145.6630 C   0  0  0  0  0  3  0  0  0  0  0  0
  195.6780  172.2520  145.2700 C   0  0  0  0  0  3  0  0  0  0  0  0
  193.3520  171.8120  144.7600 C   0  0  0  0  0  3  0  0  0  0  0  0
  195.0520  171.4500  143.0720 C   0  0  0  0  0  3  0  0  0  0  0  0
  190.4340  177.0870  144.8580 N   0  0  0  0  0  2  0  0  0  0  0  0
  187.3730  176.9400  147.0000 C   0  0  0  0  0  3  0  0  0  0  0  0
  186.4170  177.5040  146.1410 C   0  0  0  0  0  0  0  0  0  0  0  0
  188.1320  177.7820  144.4460 C   0  0  0  0  0  3  0  0  0  0  0  0
  188.6990  176.8000  146.5830 C   0  0  0  0  0  3  0  0  0  0  0  0
  189.0840  177.2250  145.3040 C   0  0  0  0  0  0  0  0  0  0  0  0
  186.8050  177.9220  144.8630 C   0  0  0  0  0  3  0  0  0  0  0  0
  185.0830  177.6600  146.5280 O   0  0  0  0  0  0  0  0  0  0  0  0
  184.1730  178.4940  145.8250 C   0  0  0  0  0  1  0  0  0  0  0  0
  1  6  1  6  0  0  0
  1  8  1  0  0  0  0
  2 13  1  0  0  0  0
  2 12  1  1  0  0  0
  3 16  1  6  0  0  0
  3 14  1  0  0  0  0
  4  8  1  6  0  0  0
  4 15  1  0  0  0  0
  5  9  1  0  0  0  0
  5  1  1  0  0  0  0
  7  9  1  1  0  0  0
  7 11  1  0  0  0  0
  7  4  1  0  0  0  0
 10  3  1  0  0  0  0
 11 10  1  6  0  0  0
 11  2  1  0  0  0  0
 13 35  1  0  0  0  0
 14 13  1  0  0  0  0
 15 12  1  0  0  0  0
 16 17  1  1  0  0  0
 18 16  1  0  0  0  0
 19 18  1  0  0  0  0
 20 19  2  0  0  0  0
 21 19  1  0  0  0  0
 21 22  1  0  0  0  0
 22 23  1  6  0  0  0
 22 26  1  0  0  0  0
 23 25  1  0  0  0  0
 24 25  1  0  0  0  0
 26 27  1  0  0  0  0
 27 28  1  1  0  0  0
 27 29  1  0  0  0  0
 29 33  1  0  0  0  0
 30 32  2  0  0  0  0
 32 31  1  0  0  0  0
 33 31  2  0  0  0  0
 34 29  2  0  0  0  0
 34 30  1  0  0  0  0
 35 40  1  0  0  0  0
 37 42  1  0  0  0  0
 37 36  2  0  0  0  0
 38 41  2  0  0  0  0
 38 40  1  0  0  0  0
 39 36  1  0  0  0  0
 40 39  2  0  0  0  0
 41 37  1  0  0  0  0
 43 42  1  0  0  0  0
M  END
>  <MODEL>
5

>  <REMARK>
 VINA RESULT:      -6.5      1.792      6.691
  Name = 
  12 active torsions:
  status: ('A' for Active; 'I' for Inactive)
    1  A    between atoms: N_1  and  N_34
    2  A    between atoms: N_1  and  C_35
    3  A    between atoms: C_2  and  N_6
    4  A    between atoms: C_2  and  C_13
    5  A    between atoms: S_3  and  C_4
    6  A    between atoms: S_3  and  C_12
    7  A    between atoms: C_4  and  C_15
    8  A    between atoms: C_4  and  O_22
    9  A    between atoms: C_11  and  C_14
   10  A    between atoms: C_14  and  O_22
   11  A    between atoms: C_15  and  C_42
   12  A    between atoms: C_19  and  O_25
                            x       y       z     vdW  Elec       q    Type
                         _______ _______ _______ _____ _____    ______ ____

>  <TORSDO>
F 12

$$$$
=
 OpenBabel11052421023D

 43 47  0  0  1  0  0  0  0  0999 V2000
  190.8900  170.9990  141.0080 C   0  0  2  0  0  3  0  0  0  0  0  0
  188.2710  175.3360  141.1050 C   0  0  2  0  0  3  0  0  0  0  0  0
  189.1240  176.7740  143.3360 C   0  0  2  0  0  3  0  0  0  0  0  0
  189.8530  173.1020  139.9440 C   0  0  1  0  0  3  0  0  0  0  0  0
  190.2410  171.3350  142.3590 C   0  0  0  0  0  2  0  0  0  0  0  0
  192.2100  171.4500  140.9860 O   0  0  0  0  0  1  0  0  0  0  0  0
  190.1830  173.6590  141.3460 C   0  0  2  0  0  3  0  0  0  0  0  0
  190.1110  171.5910  139.8290 C   0  0  0  0  0  2  0  0  0  0  0  0
  189.6190  172.7390  142.4310 C   0  0  0  0  0  2  0  0  0  0  0  0
  190.0720  175.6560  142.8960 C   0  0  0  0  0  2  0  0  0  0  0  0
  189.7480  175.1240  141.4970 C   0  0  2  0  0  3  0  0  0  0  0  0
  188.0590  174.8480  139.6760 C   0  0  0  0  0  2  0  0  0  0  0  0
  187.8310  176.7420  141.2110 N   0  0  0  0  0  0  0  0  0  0  0  0
  188.6390  177.5670  142.1240 C   0  0  0  0  0  2  0  0  0  0  0  0
  188.3940  173.3660  139.5660 C   0  0  0  0  0  2  0  0  0  0  0  0
  189.7840  177.6920  144.3570 C   0  0  2  0  0  3  0  0  0  0  0  0
  190.6180  178.6020  143.7270 F   0  0  0  0  0  0  0  0  0  0  0  0
  190.5470  176.8980  145.3080 N   0  0  0  0  0  2  0  0  0  0  0  0
  189.9740  176.3400  146.4900 C   0  0  0  0  0  0  0  0  0  0  0  0
  188.7390  176.4440  146.7180 O   0  0  0  0  0  0  0  0  0  0  0  0
  191.0270  175.4820  147.6570 S   0  0  0  0  0  0  0  0  0  0  0  0
  192.2540  174.9350  146.4130 C   0  0  1  0  0  3  0  0  0  0  0  0
  191.6310  174.0720  145.3210 C   0  0  0  0  0  2  0  0  0  0  0  0
  193.2170  173.4500  143.5030 C   0  0  0  0  0  1  0  0  0  0  0  0
  192.6080  173.0210  144.8240 C   0  0  0  0  0  2  0  0  0  0  0  0
  192.8850  176.0430  145.8430 O   0  0  0  0  0  0  0  0  0  0  0  0
  194.1170  176.1360  146.4970 C   0  0  2  0  0  3  0  0  0  0  0  0
  194.3700  177.4660  146.8410 O   0  0  0  0  0  1  0  0  0  0  0  0
  195.2070  175.6170  145.6170 C   0  0  0  0  0  0  0  0  0  0  0  0
  196.9220  173.9620  145.1770 C   0  0  0  0  0  3  0  0  0  0  0  0
  196.5530  175.7670  143.6040 C   0  0  0  0  0  3  0  0  0  0  0  0
  197.2470  174.6130  143.9840 C   0  0  0  0  0  3  0  0  0  0  0  0
  195.5340  176.2680  144.4190 C   0  0  0  0  0  3  0  0  0  0  0  0
  195.9020  174.4630  145.9930 C   0  0  0  0  0  3  0  0  0  0  0  0
  186.5230  176.7310  141.7240 N   0  0  0  0  0  2  0  0  0  0  0  0
  185.6930  179.4050  144.2020 C   0  0  0  0  0  3  0  0  0  0  0  0
  185.5110  178.6430  145.3670 C   0  0  0  0  0  0  0  0  0  0  0  0
  186.0040  176.6300  144.1050 C   0  0  0  0  0  3  0  0  0  0  0  0
  186.0270  178.7810  142.9970 C   0  0  0  0  0  3  0  0  0  0  0  0
  186.1790  177.3880  142.9440 C   0  0  0  0  0  0  0  0  0  0  0  0
  185.6700  177.2540  145.3100 C   0  0  0  0  0  3  0  0  0  0  0  0
  185.1750  179.2370  146.5870 O   0  0  0  0  0  0  0  0  0  0  0  0
  185.9700  179.0940  147.7550 C   0  0  0  0  0  1  0  0  0  0  0  0
  1  6  1  1  0  0  0
  1  5  1  0  0  0  0
  2 12  1  6  0  0  0
  2 13  1  0  0  0  0
  2 11  1  0  0  0  0
  3 16  1  1  0  0  0
  4 15  1  1  0  0  0
  4  7  1  0  0  0  0
  5  9  1  0  0  0  0
  7 11  1  0  0  0  0
  7  9  1  1  0  0  0
  8  4  1  0  0  0  0
  8  1  1  0  0  0  0
 10  3  1  0  0  0  0
 11 10  1  1  0  0  0
 13 35  1  0  0  0  0
 13 14  1  0  0  0  0
 14  3  1  0  0  0  0
 15 12  1  0  0  0  0
 16 17  1  6  0  0  0
 16 18  1  0  0  0  0
 18 19  1  0  0  0  0
 19 20  2  0  0  0  0
 19 21  1  0  0  0  0
 22 23  1  6  0  0  0
 22 21  1  0  0  0  0
 24 25  1  0  0  0  0
 25 23  1  0  0  0  0
 26 22  1  0  0  0  0
 26 27  1  0  0  0  0
 27 28  1  6  0  0  0
 29 34  1  0  0  0  0
 29 27  1  0  0  0  0
 30 34  2  0  0  0  0
 31 32  2  0  0  0  0
 31 33  1  0  0  0  0
 32 30  1  0  0  0  0
 33 29  2  0  0  0  0
 35 40  1  0  0  0  0
 36 37  1  0  0  0  0
 37 42  1  0  0  0  0
 38 41  1  0  0  0  0
 39 36  2  0  0  0  0
 40 39  1  0  0  0  0
 40 38  2  0  0  0  0
 41 37  2  0  0  0  0
 42 43  1  0  0  0  0
M  END
>  <MODEL>
6

>  <REMARK>
 VINA RESULT:      -6.4      2.591      7.047
  Name = 
  12 active torsions:
  status: ('A' for Active; 'I' for Inactive)
    1  A    between atoms: N_1  and  N_34
    2  A    between atoms: N_1  and  C_35
    3  A    between atoms: C_2  and  N_6
    4  A    between atoms: C_2  and  C_13
    5  A    between atoms: S_3  and  C_4
    6  A    between atoms: S_3  and  C_12
    7  A    between atoms: C_4  and  C_15
    8  A    between atoms: C_4  and  O_22
    9  A    between atoms: C_11  and  C_14
   10  A    between atoms: C_14  and  O_22
   11  A    between atoms: C_15  and  C_42
   12  A    between atoms: C_19  and  O_25
                            x       y       z     vdW  Elec       q    Type
                         _______ _______ _______ _____ _____    ______ ____

>  <TORSDO>
F 12

$$$$
=
 OpenBabel11052421023D

 43 47  0  0  1  0  0  0  0  0999 V2000
  185.0090  179.2820  143.8520 C   0  0  2  0  0  3  0  0  0  0  0  0
  188.4360  176.2580  146.0400 C   0  0  2  0  0  3  0  0  0  0  0  0
  190.8820  176.7310  144.7890 C   0  0  2  0  0  3  0  0  0  0  0  0
  186.1590  178.1610  145.8660 C   0  0  1  0  0  3  0  0  0  0  0  0
  185.8720  178.4660  142.8770 C   0  0  0  0  0  2  0  0  0  0  0  0
  185.5670  180.5470  144.0410 O   0  0  0  0  0  1  0  0  0  0  0  0
  187.3690  178.2890  144.9150 C   0  0  2  0  0  3  0  0  0  0  0  0
  184.8360  178.5750  145.2010 C   0  0  0  0  0  2  0  0  0  0  0  0
  187.0310  177.7070  143.5410 C   0  0  0  0  0  2  0  0  0  0  0  0
  189.8340  177.8240  144.5740 C   0  0  0  0  0  2  0  0  0  0  0  0
  188.6460  177.7000  145.5330 C   0  0  2  0  0  3  0  0  0  0  0  0
  187.2880  176.2440  147.0430 C   0  0  0  0  0  2  0  0  0  0  0  0
  189.6400  175.6750  146.6680 N   0  0  0  0  0  0  0  0  0  0  0  0
  190.9070  176.2990  146.2540 C   0  0  0  0  0  2  0  0  0  0  0  0
  186.0030  176.7310  146.3850 C   0  0  0  0  0  2  0  0  0  0  0  0
  192.2630  177.1890  144.3350 C   0  0  2  0  0  3  0  0  0  0  0  0
  192.2620  177.4670  142.9780 F   0  0  0  0  0  0  0  0  0  0  0  0
  193.2430  176.1540  144.6280 N   0  0  0  0  0  2  0  0  0  0  0  0
  194.4740  176.4170  145.3000 C   0  0  0  0  0  0  0  0  0  0  0  0
  194.7290  177.5650  145.7500 O   0  0  0  0  0  0  0  0  0  0  0  0
  195.6660  175.0960  145.5010 S   0  0  0  0  0  0  0  0  0  0  0  0
  196.0820  174.9650  143.7230 C   0  0  1  0  0  3  0  0  0  0  0  0
  196.6370  176.2680  143.1570 C   0  0  0  0  0  2  0  0  0  0  0  0
  194.9770  176.5220  141.3190 C   0  0  0  0  0  1  0  0  0  0  0  0
  196.4450  176.3420  141.6530 C   0  0  0  0  0  2  0  0  0  0  0  0
  196.9970  173.9290  143.5200 O   0  0  0  0  0  0  0  0  0  0  0  0
  196.2290  172.8500  143.0730 C   0  0  2  0  0  3  0  0  0  0  0  0
  195.0090  173.3130  142.5770 O   0  0  0  0  0  1  0  0  0  0  0  0
  195.9970  171.8860  144.1900 C   0  0  0  0  0  0  0  0  0  0  0  0
  194.5080  170.3830  145.3710 C   0  0  0  0  0  3  0  0  0  0  0  0
  196.7930  170.6560  146.1240 C   0  0  0  0  0  3  0  0  0  0  0  0
  195.5330  170.0650  146.2650 C   0  0  0  0  0  3  0  0  0  0  0  0
  197.0250  171.5640  145.0870 C   0  0  0  0  0  3  0  0  0  0  0  0
  194.7390  171.2920  144.3340 C   0  0  0  0  0  3  0  0  0  0  0  0
  189.7030  174.3280  146.2730 N   0  0  0  0  0  2  0  0  0  0  0  0
  189.4080  173.8680  142.5740 C   0  0  0  0  0  3  0  0  0  0  0  0
  190.5870  173.1570  142.2970 C   0  0  0  0  0  0  0  0  0  0  0  0
  191.1620  173.2310  144.6540 C   0  0  0  0  0  3  0  0  0  0  0  0
  189.1100  174.2570  143.8830 C   0  0  0  0  0  3  0  0  0  0  0  0
  189.9900  173.9430  144.9280 C   0  0  0  0  0  0  0  0  0  0  0  0
  191.4590  172.8420  143.3450 C   0  0  0  0  0  3  0  0  0  0  0  0
  190.9140  172.7560  141.0000 O   0  0  0  0  0  0  0  0  0  0  0  0
  190.3140  171.6330  140.3690 C   0  0  0  0  0  1  0  0  0  0  0  0
  1  6  1  1  0  0  0
  1  8  1  0  0  0  0
  2 13  1  0  0  0  0
  2 12  1  1  0  0  0
  3 16  1  1  0  0  0
  3 14  1  0  0  0  0
  4  8  1  6  0  0  0
  4 15  1  0  0  0  0
  5  9  1  0  0  0  0
  5  1  1  0  0  0  0
  7  9  1  6  0  0  0
  7 11  1  0  0  0  0
  7  4  1  0  0  0  0
 10  3  1  0  0  0  0
 11 10  1  6  0  0  0
 11  2  1  0  0  0  0
 14 13  1  0  0  0  0
 15 12  1  0  0  0  0
 16 17  1  6  0  0  0
 16 18  1  0  0  0  0
 18 19  1  0  0  0  0
 19 21  1  0  0  0  0
 19 20  2  0  0  0  0
 22 23  1  1  0  0  0
 22 21  1  0  0  0  0
 24 25  1  0  0  0  0
 25 23  1  0  0  0  0
 26 22  1  0  0  0  0
 27 28  1  1  0  0  0
 27 26  1  0  0  0  0
 27 29  1  0  0  0  0
 29 34  2  0  0  0  0
 29 33  1  0  0  0  0
 30 32  2  0  0  0  0
 31 32  1  0  0  0  0
 33 31  2  0  0  0  0
 34 30  1  0  0  0  0
 35 13  1  0  0  0  0
 36 39  1  0  0  0  0
 37 36  2  0  0  0  0
 37 41  1  0  0  0  0
 38 40  1  0  0  0  0
 39 40  2  0  0  0  0
 40 35  1  0  0  0  0
 41 38  2  0  0  0  0
 42 37  1  0  0  0  0
 43 42  1  0  0  0  0
M  END
>  <MODEL>
7

>  <REMARK>
 VINA RESULT:      -6.4      2.517      4.953
  Name = 
  12 active torsions:
  status: ('A' for Active; 'I' for Inactive)
    1  A    between atoms: N_1  and  N_34
    2  A    between atoms: N_1  and  C_35
    3  A    between atoms: C_2  and  N_6
    4  A    between atoms: C_2  and  C_13
    5  A    between atoms: S_3  and  C_4
    6  A    between atoms: S_3  and  C_12
    7  A    between atoms: C_4  and  C_15
    8  A    between atoms: C_4  and  O_22
    9  A    between atoms: C_11  and  C_14
   10  A    between atoms: C_14  and  O_22
   11  A    between atoms: C_15  and  C_42
   12  A    between atoms: C_19  and  O_25
                            x       y       z     vdW  Elec       q    Type
                         _______ _______ _______ _____ _____    ______ ____

>  <TORSDO>
F 12

$$$$
=
 OpenBabel11052421023D

 43 47  0  0  1  0  0  0  0  0999 V2000
  196.5250  169.4350  144.7400 C   0  0  2  0  0  3  0  0  0  0  0  0
  194.7490  174.1600  145.1890 C   0  0  2  0  0  3  0  0  0  0  0  0
  192.0210  174.0810  144.6240 C   0  0  2  0  0  3  0  0  0  0  0  0
  196.3060  171.7270  145.8950 C   0  0  1  0  0  3  0  0  0  0  0  0
  195.6770  169.9250  143.5570 C   0  0  0  0  0  2  0  0  0  0  0  0
  195.7260  168.7310  145.6420 O   0  0  0  0  0  1  0  0  0  0  0  0
  194.8930  171.6110  145.2810 C   0  0  2  0  0  3  0  0  0  0  0  0
  197.2390  170.5870  145.4560 C   0  0  0  0  0  2  0  0  0  0  0  0
  194.9860  171.2780  143.7900 C   0  0  0  0  0  2  0  0  0  0  0  0
  192.6430  172.7230  144.9560 C   0  0  0  0  0  2  0  0  0  0  0  0
  194.0360  172.8490  145.5810 C   0  0  2  0  0  3  0  0  0  0  0  0
  196.0890  174.2350  145.9140 C   0  0  0  0  0  2  0  0  0  0  0  0
  193.9610  175.3720  145.4940 N   0  0  0  0  0  0  0  0  0  0  0  0
  192.5110  175.1440  145.6040 C   0  0  0  0  0  2  0  0  0  0  0  0
  196.9690  173.0540  145.5240 C   0  0  0  0  0  2  0  0  0  0  0  0
  190.4980  174.0070  144.6190 C   0  0  2  0  0  3  0  0  0  0  0  0
  190.0290  173.6970  143.3520 F   0  0  0  0  0  0  0  0  0  0  0  0
  189.9460  175.2800  145.0550 N   0  0  0  0  0  2  0  0  0  0  0  0
  189.2410  175.4410  146.2860 C   0  0  0  0  0  0  0  0  0  0  0  0
  189.1420  174.4850  147.1000 O   0  0  0  0  0  0  0  0  0  0  0  0
  188.4940  177.0220  146.6700 S   0  0  0  0  0  0  0  0  0  0  0  0
  187.0190  176.7790  145.6120 C   0  0  1  0  0  3  0  0  0  0  0  0
  185.7310  176.6740  146.4220 C   0  0  0  0  0  2  0  0  0  0  0  0
  184.1990  178.6370  146.4530 C   0  0  0  0  0  1  0  0  0  0  0  0
  185.4020  177.9880  147.1080 C   0  0  0  0  0  2  0  0  0  0  0  0
  186.9170  177.8200  144.6870 O   0  0  0  0  0  0  0  0  0  0  0  0
  187.1900  177.2330  143.4480 C   0  0  2  0  0  3  0  0  0  0  0  0
  188.4290  177.6760  142.9790 O   0  0  0  0  0  1  0  0  0  0  0  0
  186.1170  177.5760  142.4670 C   0  0  0  0  0  0  0  0  0  0  0  0
  185.4180  177.8990  140.1700 C   0  0  0  0  0  3  0  0  0  0  0  0
  183.8240  178.1940  141.9690 C   0  0  0  0  0  3  0  0  0  0  0  0
  184.1250  178.2040  140.6030 C   0  0  0  0  0  3  0  0  0  0  0  0
  184.8190  177.8800  142.9000 C   0  0  0  0  0  3  0  0  0  0  0  0
  186.4130  177.5850  141.1010 C   0  0  0  0  0  3  0  0  0  0  0  0
  194.1500  176.2690  144.4300 N   0  0  0  0  0  2  0  0  0  0  0  0
  197.3740  176.0460  142.5470 C   0  0  0  0  0  3  0  0  0  0  0  0
  196.9290  175.5430  141.3140 C   0  0  0  0  0  0  0  0  0  0  0  0
  194.6550  175.5290  142.1600 C   0  0  0  0  0  3  0  0  0  0  0  0
  196.4630  176.2880  143.5790 C   0  0  0  0  0  3  0  0  0  0  0  0
  195.0980  176.0260  143.3890 C   0  0  0  0  0  0  0  0  0  0  0  0
  195.5660  175.2880  141.1280 C   0  0  0  0  0  3  0  0  0  0  0  0
  197.8140  175.2880  140.2630 O   0  0  0  0  0  0  0  0  0  0  0  0
  197.3900  174.7720  139.0100 C   0  0  0  0  0  1  0  0  0  0  0  0
  1  8  1  0  0  0  0
  1  6  1  1  0  0  0
  2 13  1  0  0  0  0
  2 11  1  0  0  0  0
  2 12  1  1  0  0  0
  3 16  1  1  0  0  0
  3 10  1  0  0  0  0
  3 14  1  0  0  0  0
  4  8  1  6  0  0  0
  5  9  1  0  0  0  0
  5  1  1  0  0  0  0
  7  9  1  6  0  0  0
  7 11  1  0  0  0  0
  7  4  1  0  0  0  0
 11 10  1  6  0  0  0
 13 14  1  0  0  0  0
 15  4  1  0  0  0  0
 15 12  1  0  0  0  0
 16 17  1  6  0  0  0
 16 18  1  0  0  0  0
 18 19  1  0  0  0  0
 19 21  1  0  0  0  0
 19 20  2  0  0  0  0
 22 23  1  1  0  0  0
 22 21  1  0  0  0  0
 23 25  1  0  0  0  0
 24 25  1  0  0  0  0
 26 22  1  0  0  0  0
 27 28  1  6  0  0  0
 27 26  1  0  0  0  0
 29 33  1  0  0  0  0
 29 27  1  0  0  0  0
 30 32  2  0  0  0  0
 30 34  1  0  0  0  0
 31 33  2  0  0  0  0
 32 31  1  0  0  0  0
 34 29  2  0  0  0  0
 35 13  1  0  0  0  0
 36 39  1  0  0  0  0
 37 36  2  0  0  0  0
 38 40  1  0  0  0  0
 40 39  2  0  0  0  0
 40 35  1  0  0  0  0
 41 37  1  0  0  0  0
 41 38  2  0  0  0  0
 42 37  1  0  0  0  0
 43 42  1  0  0  0  0
M  END
>  <MODEL>
8

>  <REMARK>
 VINA RESULT:      -6.3      3.121      8.902
  Name = 
  12 active torsions:
  status: ('A' for Active; 'I' for Inactive)
    1  A    between atoms: N_1  and  N_34
    2  A    between atoms: N_1  and  C_35
    3  A    between atoms: C_2  and  N_6
    4  A    between atoms: C_2  and  C_13
    5  A    between atoms: S_3  and  C_4
    6  A    between atoms: S_3  and  C_12
    7  A    between atoms: C_4  and  C_15
    8  A    between atoms: C_4  and  O_22
    9  A    between atoms: C_11  and  C_14
   10  A    between atoms: C_14  and  O_22
   11  A    between atoms: C_15  and  C_42
   12  A    between atoms: C_19  and  O_25
                            x       y       z     vdW  Elec       q    Type
                         _______ _______ _______ _____ _____    ______ ____

>  <TORSDO>
F 12

$$$$
=
 OpenBabel11052421023D

 43 47  0  0  1  0  0  0  0  0999 V2000
  186.8890  177.1140  146.3110 C   0  0  2  0  0  3  0  0  0  0  0  0
  190.7880  176.0450  143.2550 C   0  0  2  0  0  3  0  0  0  0  0  0
  191.0380  173.2700  143.1640 C   0  0  2  0  0  3  0  0  0  0  0  0
  188.3060  177.3960  144.1780 C   0  0  1  0  0  3  0  0  0  0  0  0
  187.9150  176.1260  146.8880 C   0  0  0  0  0  2  0  0  0  0  0  0
  185.8410  176.4170  145.7080 O   0  0  0  0  0  1  0  0  0  0  0  0
  188.5300  175.8900  144.4390 C   0  0  2  0  0  3  0  0  0  0  0  0
  187.5220  178.0840  145.3080 C   0  0  0  0  0  2  0  0  0  0  0  0
  188.9810  175.6620  145.8840 C   0  0  0  0  0  2  0  0  0  0  0  0
  189.6870  173.7730  143.6770 C   0  0  0  0  0  2  0  0  0  0  0  0
  189.4660  175.2620  143.3970 C   0  0  2  0  0  3  0  0  0  0  0  0
  190.4740  177.4950  142.9040 C   0  0  0  0  0  2  0  0  0  0  0  0
  191.6990  175.4820  142.2370 N   0  0  0  0  0  0  0  0  0  0  0  0
  191.4660  174.0610  141.9300 C   0  0  0  0  0  2  0  0  0  0  0  0
  189.6320  178.1360  143.9990 C   0  0  0  0  0  2  0  0  0  0  0  0
  190.9980  171.7770  142.8650 C   0  0  2  0  0  3  0  0  0  0  0  0
  189.7800  171.2360  143.2470 F   0  0  0  0  0  0  0  0  0  0  0  0
  192.0800  171.1070  143.5690 N   0  0  0  0  0  2  0  0  0  0  0  0
  193.2880  170.6970  142.9280 C   0  0  0  0  0  0  0  0  0  0  0  0
  193.5040  170.9800  141.7200 O   0  0  0  0  0  0  0  0  0  0  0  0
  194.5060  169.7700  143.8580 S   0  0  0  0  0  0  0  0  0  0  0  0
  195.7340  171.1260  143.9350 C   0  0  1  0  0  3  0  0  0  0  0  0
  196.7310  171.0760  142.7810 C   0  0  0  0  0  2  0  0  0  0  0  0
  197.2570  172.0780  140.5640 C   0  0  0  0  0  1  0  0  0  0  0  0
  196.6530  172.3310  141.9310 C   0  0  0  0  0  2  0  0  0  0  0  0
  195.0820  172.3620  143.9480 O   0  0  0  0  0  0  0  0  0  0  0  0
  195.6890  173.0800  144.9820 C   0  0  2  0  0  3  0  0  0  0  0  0
  196.0660  172.2070  146.0050 O   0  0  0  0  0  1  0  0  0  0  0  0
  194.7500  174.1150  145.5100 C   0  0  0  0  0  0  0  0  0  0  0  0
  192.5290  174.7260  146.2620 C   0  0  0  0  0  3  0  0  0  0  0  0
  194.3010  176.3770  146.2630 C   0  0  0  0  0  3  0  0  0  0  0  0
  192.9690  176.0280  146.5120 C   0  0  0  0  0  3  0  0  0  0  0  0
  195.1900  175.4220  145.7630 C   0  0  0  0  0  3  0  0  0  0  0  0
  193.4190  173.7700  145.7620 C   0  0  0  0  0  3  0  0  0  0  0  0
  193.0040  175.5780  142.7470 N   0  0  0  0  0  2  0  0  0  0  0  0
  196.4440  176.2780  141.4590 C   0  0  0  0  0  3  0  0  0  0  0  0
  196.3860  175.6660  140.1960 C   0  0  0  0  0  0  0  0  0  0  0  0
  194.0930  175.0080  140.6400 C   0  0  0  0  0  3  0  0  0  0  0  0
  195.3320  176.2530  142.3050 C   0  0  0  0  0  3  0  0  0  0  0  0
  194.1520  175.6130  141.8990 C   0  0  0  0  0  0  0  0  0  0  0  0
  195.2050  175.0330  139.7940 C   0  0  0  0  0  3  0  0  0  0  0  0
  197.4810  175.6720  139.3280 O   0  0  0  0  0  0  0  0  0  0  0  0
  197.3800  175.2900  137.9640 C   0  0  0  0  0  1  0  0  0  0  0  0
  1  6  1  6  0  0  0
  1  5  1  0  0  0  0
  2 12  1  6  0  0  0
  2 11  1  0  0  0  0
  3 16  1  6  0  0  0
  3 10  1  0  0  0  0
  4 15  1  1  0  0  0
  4  7  1  0  0  0  0
  4  8  1  0  0  0  0
  7  9  1  1  0  0  0
  8  1  1  0  0  0  0
  9  5  1  0  0  0  0
 11 10  1  1  0  0  0
 11  7  1  0  0  0  0
 12 15  1  0  0  0  0
 13 35  1  0  0  0  0
 13  2  1  0  0  0  0
 14 13  1  0  0  0  0
 14  3  1  0  0  0  0
 16 17  1  1  0  0  0
 16 18  1  0  0  0  0
 19 18  1  0  0  0  0
 19 21  1  0  0  0  0
 20 19  2  0  0  0  0
 21 22  1  0  0  0  0
 22 23  1  6  0  0  0
 22 26  1  0  0  0  0
 24 25  1  0  0  0  0
 25 23  1  0  0  0  0
 26 27  1  0  0  0  0
 27 29  1  0  0  0  0
 27 28  1  1  0  0  0
 29 34  2  0  0  0  0
 29 33  1  0  0  0  0
 30 32  2  0  0  0  0
 31 32  1  0  0  0  0
 33 31  2  0  0  0  0
 34 30  1  0  0  0  0
 36 39  1  0  0  0  0
 37 36  2  0  0  0  0
 38 40  1  0  0  0  0
 40 39  2  0  0  0  0
 40 35  1  0  0  0  0
 41 37  1  0  0  0  0
 41 38  2  0  0  0  0
 42 37  1  0  0  0  0
 43 42  1  0  0  0  0
M  END
>  <MODEL>
9

>  <REMARK>
 VINA RESULT:      -6.3      2.442      4.642
  Name = 
  12 active torsions:
  status: ('A' for Active; 'I' for Inactive)
    1  A    between atoms: N_1  and  N_34
    2  A    between atoms: N_1  and  C_35
    3  A    between atoms: C_2  and  N_6
    4  A    between atoms: C_2  and  C_13
    5  A    between atoms: S_3  and  C_4
    6  A    between atoms: S_3  and  C_12
    7  A    between atoms: C_4  and  C_15
    8  A    between atoms: C_4  and  O_22
    9  A    between atoms: C_11  and  C_14
   10  A    between atoms: C_14  and  O_22
   11  A    between atoms: C_15  and  C_42
   12  A    between atoms: C_19  and  O_25
                            x       y       z     vdW  Elec       q    Type
                         _______ _______ _______ _____ _____    ______ ____

>  <TORSDO>
F 12

$$$$
