=
 OpenBabel11052421333D

 32 36  0  0  1  0  0  0  0  0999 V2000
  184.9030  177.7820  146.6350 C   0  0  1  0  0  3  0  0  0  0  0  0
  189.4910  176.7260  144.5590 C   0  0  0  0  0  0  0  0  0  0  0  0
  188.6540  173.3950  141.1190 C   0  0  0  0  0  3  0  0  0  0  0  0
  190.0030  173.4410  140.7630 C   0  0  0  0  0  3  0  0  0  0  0  0
  187.7210  177.5270  146.0110 C   0  0  0  0  0  0  0  0  0  0  0  0
  187.2320  175.8760  144.2970 C   0  0  0  0  0  3  0  0  0  0  0  0
  185.3600  176.6010  145.7750 C   0  0  0  0  0  2  0  0  0  0  0  0
  188.1750  174.2000  142.1540 C   0  0  0  0  0  3  0  0  0  0  0  0
  188.5760  175.8810  143.8930 C   0  0  0  0  0  0  0  0  0  0  0  0
  189.0400  175.0650  142.8460 C   0  0  0  0  0  0  0  0  0  0  0  0
  191.2770  175.9760  143.1740 C   0  0  0  0  0  0  0  0  0  0  0  0
  185.9460  178.0950  147.7070 C   0  0  0  0  0  2  0  0  0  0  0  0
  186.7950  176.7020  145.3370 C   0  0  0  0  0  0  0  0  0  0  0  0
  187.2890  178.4820  147.0860 C   0  0  0  0  0  2  0  0  0  0  0  0
  190.8760  174.2950  141.4400 C   0  0  0  0  0  3  0  0  0  0  0  0
  190.4100  175.1110  142.4810 C   0  0  0  0  0  0  0  0  0  0  0  0
  189.0580  177.5430  145.6040 C   0  0  0  0  0  3  0  0  0  0  0  0
  190.7970  176.7480  144.1860 N   0  0  0  0  0  0  0  0  0  0  0  0
  184.5920  179.0100  145.7880 C   0  0  0  0  0  2  0  0  0  0  0  0
  184.7250  178.8090  143.2800 C   0  0  0  0  0  0  0  0  0  0  0  0
  184.0300  178.6030  144.5100 N   0  0  0  0  0  2  0  0  0  0  0  0
  185.8590  179.3550  143.2680 O   0  0  0  0  0  0  0  0  0  0  0  0
  184.1030  178.3730  142.0030 C   0  0  0  0  0  1  0  0  0  0  0  0
  192.7400  176.0390  142.8590 C   0  0  0  0  0  2  0  0  0  0  0  0
  194.6740  176.3340  144.4130 C   0  0  1  0  0  3  0  0  0  0  0  0
  194.2470  174.1650  143.4850 C   0  0  1  0  0  3  0  0  0  0  0  0
  195.5600  174.1130  144.1080 N   0  0  0  0  0  2  0  0  0  0  0  0
  195.9380  175.4990  144.3510 C   0  0  0  0  0  2  0  0  0  0  0  0
  193.4460  172.9390  143.8720 C   0  0  0  0  0  1  0  0  0  0  0  0
  193.5560  175.4130  143.9820 C   0  0  2  0  0  3  0  0  0  0  0  0
  194.2540  177.1340  146.8760 N   0  0  0  0  0  0  0  0  0  0  0  0
  194.4400  176.7790  145.7900 C   0  0  0  0  0  0  0  0  0  0  0  0
  1 19  1  6  0  0  0
  1 12  1  0  0  0  0
  2 17  1  0  0  0  0
  3  8  1  0  0  0  0
  4  3  2  0  0  0  0
  4 15  1  0  0  0  0
  5 14  1  0  0  0  0
  6 13  2  0  0  0  0
  7  1  1  0  0  0  0
  8 10  2  0  0  0  0
  9  6  1  0  0  0  0
  9  2  2  0  0  0  0
 10  9  1  0  0  0  0
 11 18  2  0  0  0  0
 13  7  1  0  0  0  0
 13  5  1  0  0  0  0
 14 12  1  0  0  0  0
 15 16  2  0  0  0  0
 16 10  1  0  0  0  0
 16 11  1  0  0  0  0
 17  5  2  0  0  0  0
 18  2  1  0  0  0  0
 20 21  1  0  0  0  0
 21 19  1  0  0  0  0
 22 20  2  0  0  0  0
 23 20  1  0  0  0  0
 24 11  1  0  0  0  0
 25 32  1  1  0  0  0
 26 29  1  1  0  0  0
 26 30  1  0  0  0  0
 26 27  1  0  0  0  0
 27 28  1  0  0  0  0
 28 25  1  0  0  0  0
 30 24  1  6  0  0  0
 30 25  1  0  0  0  0
 32 31  3  0  0  0  0
M  END
>  <MODEL>
1

>  <REMARK>
 VINA RESULT:      -7.8      0.000      0.000
  Name = 
  5 active torsions:
  status: ('A' for Active; 'I' for Inactive)
    1  A    between atoms: C_2  and  C_24
    2  A    between atoms: C_7  and  C_29
    3  A    between atoms: N_10  and  C_24
    4  A    between atoms: C_16  and  C_27
    5  A    between atoms: C_27  and  C_32
                            x       y       z     vdW  Elec       q    Type
                         _______ _______ _______ _____ _____    ______ ____

>  <TORSDO>
F 5

$$$$
=
 OpenBabel11052421333D

 32 36  0  0  1  0  0  0  0  0999 V2000
  190.5540  171.3960  139.5770 C   0  0  1  0  0  3  0  0  0  0  0  0
  188.5310  175.2720  142.2910 C   0  0  0  0  0  0  0  0  0  0  0  0
  189.9250  174.5380  146.8900 C   0  0  0  0  0  3  0  0  0  0  0  0
  189.3130  175.7390  147.2540 C   0  0  0  0  0  3  0  0  0  0  0  0
  189.0510  173.6800  140.5360 C   0  0  0  0  0  0  0  0  0  0  0  0
  189.7960  173.2650  142.8100 C   0  0  0  0  0  3  0  0  0  0  0  0
  190.3320  171.5480  141.0840 C   0  0  0  0  0  2  0  0  0  0  0  0
  189.8920  174.1100  145.5610 C   0  0  0  0  0  3  0  0  0  0  0  0
  189.2000  174.4630  143.2350 C   0  0  0  0  0  0  0  0  0  0  0  0
  189.2460  174.8790  144.5780 C   0  0  0  0  0  0  0  0  0  0  0  0
  187.9780  176.8690  143.9670 C   0  0  0  0  0  0  0  0  0  0  0  0
  189.3200  171.8660  138.8080 C   0  0  0  0  0  2  0  0  0  0  0  0
  189.7410  172.8760  141.4690 C   0  0  0  0  0  0  0  0  0  0  0  0
  189.0240  173.3430  139.0720 C   0  0  0  0  0  2  0  0  0  0  0  0
  188.6670  176.5150  146.2900 C   0  0  0  0  0  3  0  0  0  0  0  0
  188.6260  176.0990  144.9510 C   0  0  0  0  0  0  0  0  0  0  0  0
  188.4670  174.8790  140.9530 C   0  0  0  0  0  3  0  0  0  0  0  0
  187.9470  176.4350  142.6790 N   0  0  0  0  0  0  0  0  0  0  0  0
  191.8080  172.1260  139.1140 C   0  0  0  0  0  2  0  0  0  0  0  0
  193.3640  173.2400  140.7530 C   0  0  0  0  0  0  0  0  0  0  0  0
  192.8310  172.0630  140.1470 N   0  0  0  0  0  2  0  0  0  0  0  0
  192.9590  174.3810  140.4060 O   0  0  0  0  0  0  0  0  0  0  0  0
  194.4060  173.1170  141.8040 C   0  0  0  0  0  1  0  0  0  0  0  0
  187.2730  178.1450  144.3080 C   0  0  0  0  0  2  0  0  0  0  0  0
  185.0520  178.9940  143.5400 C   0  0  1  0  0  3  0  0  0  0  0  0
  185.2520  178.0960  145.7530 C   0  0  1  0  0  3  0  0  0  0  0  0
  183.9590  178.7580  145.6750 N   0  0  0  0  0  2  0  0  0  0  0  0
  184.0060  179.5750  144.4700 C   0  0  0  0  0  2  0  0  0  0  0  0
  185.0960  176.7400  146.4110 C   0  0  0  0  0  1  0  0  0  0  0  0
  185.7660  177.9310  144.3430 C   0  0  2  0  0  3  0  0  0  0  0  0
  183.8870  177.8900  141.4650 N   0  0  0  0  0  0  0  0  0  0  0  0
  184.3990  178.3790  142.3800 C   0  0  0  0  0  0  0  0  0  0  0  0
  1 19  1  6  0  0  0
  1  7  1  0  0  0  0
  2 18  2  0  0  0  0
  2  9  1  0  0  0  0
  3  4  1  0  0  0  0
  5 17  2  0  0  0  0
  5 13  1  0  0  0  0
  6  9  1  0  0  0  0
  7 13  1  0  0  0  0
  8  3  2  0  0  0  0
  9 10  2  0  0  0  0
 10 16  1  0  0  0  0
 10  8  1  0  0  0  0
 11 24  1  0  0  0  0
 11 16  2  0  0  0  0
 12 14  1  0  0  0  0
 12  1  1  0  0  0  0
 13  6  2  0  0  0  0
 14  5  1  0  0  0  0
 15  4  2  0  0  0  0
 16 15  1  0  0  0  0
 17  2  1  0  0  0  0
 18 11  1  0  0  0  0
 19 21  1  0  0  0  0
 20 23  1  0  0  0  0
 21 20  1  0  0  0  0
 22 20  2  0  0  0  0
 25 32  1  6  0  0  0
 25 30  1  0  0  0  0
 25 28  1  0  0  0  0
 26 29  1  6  0  0  0
 27 26  1  0  0  0  0
 28 27  1  0  0  0  0
 30 24  1  1  0  0  0
 30 26  1  0  0  0  0
 31 32  3  0  0  0  0
M  END
>  <MODEL>
2

>  <REMARK>
 VINA RESULT:      -7.4      3.120      8.487
  Name = 
  5 active torsions:
  status: ('A' for Active; 'I' for Inactive)
    1  A    between atoms: C_2  and  C_24
    2  A    between atoms: C_7  and  C_29
    3  A    between atoms: N_10  and  C_24
    4  A    between atoms: C_16  and  C_27
    5  A    between atoms: C_27  and  C_32
                            x       y       z     vdW  Elec       q    Type
                         _______ _______ _______ _____ _____    ______ ____

>  <TORSDO>
F 5

$$$$
=
 OpenBabel11052421333D

 32 36  0  0  1  0  0  0  0  0999 V2000
  184.8910  177.7580  146.7000 C   0  0  1  0  0  3  0  0  0  0  0  0
  189.4880  176.6990  144.6440 C   0  0  0  0  0  0  0  0  0  0  0  0
  188.6560  173.4060  141.1650 C   0  0  0  0  0  3  0  0  0  0  0  0
  190.0080  173.4490  140.8180 C   0  0  0  0  0  3  0  0  0  0  0  0
  187.7120  177.4940  146.0920 C   0  0  0  0  0  0  0  0  0  0  0  0
  187.2260  175.8630  144.3580 C   0  0  0  0  0  3  0  0  0  0  0  0
  185.3480  176.5820  145.8310 C   0  0  0  0  0  2  0  0  0  0  0  0
  188.1750  174.2040  142.2050 C   0  0  0  0  0  3  0  0  0  0  0  0
  188.5730  175.8650  143.9640 C   0  0  0  0  0  0  0  0  0  0  0  0
  189.0400  175.0570  142.9120 C   0  0  0  0  0  0  0  0  0  0  0  0
  191.2790  175.9530  143.2640 C   0  0  0  0  0  0  0  0  0  0  0  0
  185.9290  178.0540  147.7830 C   0  0  0  0  0  2  0  0  0  0  0  0
  186.7860  176.6800  145.4040 C   0  0  0  0  0  0  0  0  0  0  0  0
  187.2780  178.4410  147.1740 C   0  0  0  0  0  2  0  0  0  0  0  0
  190.8810  174.2910  141.5100 C   0  0  0  0  0  3  0  0  0  0  0  0
  190.4120  175.0990  142.5570 C   0  0  0  0  0  0  0  0  0  0  0  0
  189.0510  177.5070  145.6950 C   0  0  0  0  0  3  0  0  0  0  0  0
  190.7960  176.7170  144.2800 N   0  0  0  0  0  0  0  0  0  0  0  0
  184.5930  178.9950  145.8640 C   0  0  0  0  0  2  0  0  0  0  0  0
  184.6530  178.8170  143.3510 C   0  0  0  0  0  0  0  0  0  0  0  0
  183.9900  178.6070  144.5980 N   0  0  0  0  0  2  0  0  0  0  0  0
  185.7930  179.3510  143.3120 O   0  0  0  0  0  0  0  0  0  0  0  0
  183.9910  178.4000  142.0880 C   0  0  0  0  0  1  0  0  0  0  0  0
  192.7440  176.0110  142.9600 C   0  0  0  0  0  2  0  0  0  0  0  0
  192.6060  174.4460  144.9030 C   0  0  1  0  0  3  0  0  0  0  0  0
  194.3270  176.1150  144.8730 C   0  0  1  0  0  3  0  0  0  0  0  0
  194.3050  175.5460  146.2120 N   0  0  0  0  0  2  0  0  0  0  0  0
  193.0550  174.8040  146.3050 C   0  0  0  0  0  2  0  0  0  0  0  0
  195.7560  176.2160  144.3810 C   0  0  0  0  0  1  0  0  0  0  0  0
  193.5340  175.1960  143.9740 C   0  0  2  0  0  3  0  0  0  0  0  0
  192.8730  171.8640  144.5190 N   0  0  0  0  0  0  0  0  0  0  0  0
  192.7560  173.0030  144.6870 C   0  0  0  0  0  0  0  0  0  0  0  0
  1 19  1  6  0  0  0
  1 12  1  0  0  0  0
  2 17  1  0  0  0  0
  3  8  1  0  0  0  0
  4  3  2  0  0  0  0
  4 15  1  0  0  0  0
  5 14  1  0  0  0  0
  6 13  2  0  0  0  0
  7  1  1  0  0  0  0
  8 10  2  0  0  0  0
  9  6  1  0  0  0  0
  9  2  2  0  0  0  0
 10  9  1  0  0  0  0
 11 18  2  0  0  0  0
 13  7  1  0  0  0  0
 13  5  1  0  0  0  0
 14 12  1  0  0  0  0
 15 16  2  0  0  0  0
 16 10  1  0  0  0  0
 16 11  1  0  0  0  0
 17  5  2  0  0  0  0
 18  2  1  0  0  0  0
 20 21  1  0  0  0  0
 21 19  1  0  0  0  0
 22 20  2  0  0  0  0
 23 20  1  0  0  0  0
 24 11  1  0  0  0  0
 25 32  1  6  0  0  0
 25 28  1  0  0  0  0
 26 29  1  6  0  0  0
 26 27  1  0  0  0  0
 27 28  1  0  0  0  0
 30 24  1  6  0  0  0
 30 26  1  0  0  0  0
 30 25  1  0  0  0  0
 31 32  3  0  0  0  0
M  END
>  <MODEL>
3

>  <REMARK>
 VINA RESULT:      -7.4      0.908      1.808
  Name = 
  5 active torsions:
  status: ('A' for Active; 'I' for Inactive)
    1  A    between atoms: C_2  and  C_24
    2  A    between atoms: C_7  and  C_29
    3  A    between atoms: N_10  and  C_24
    4  A    between atoms: C_16  and  C_27
    5  A    between atoms: C_27  and  C_32
                            x       y       z     vdW  Elec       q    Type
                         _______ _______ _______ _____ _____    ______ ____

>  <TORSDO>
F 5

$$$$
=
 OpenBabel11052421333D

 32 36  0  0  1  0  0  0  0  0999 V2000
  184.7410  179.5220  144.1030 C   0  0  1  0  0  3  0  0  0  0  0  0
  187.9920  175.6670  143.0800 C   0  0  0  0  0  0  0  0  0  0  0  0
  192.0250  176.6240  145.6200 C   0  0  0  0  0  3  0  0  0  0  0  0
  192.5690  175.4130  145.1880 C   0  0  0  0  0  3  0  0  0  0  0  0
  186.1240  177.2140  143.0300 C   0  0  0  0  0  0  0  0  0  0  0  0
  188.1030  177.7420  144.3360 C   0  0  0  0  0  3  0  0  0  0  0  0
  186.2560  179.4150  144.3030 C   0  0  0  0  0  2  0  0  0  0  0  0
  190.7450  177.0020  145.2100 C   0  0  0  0  0  3  0  0  0  0  0  0
  188.7010  176.5370  143.9370 C   0  0  0  0  0  0  0  0  0  0  0  0
  189.9910  176.1720  144.3620 C   0  0  0  0  0  0  0  0  0  0  0  0
  189.7920  174.1100  143.0770 C   0  0  0  0  0  0  0  0  0  0  0  0
  184.3450  178.9740  142.7330 C   0  0  0  0  0  2  0  0  0  0  0  0
  186.8170  178.0790  143.9030 C   0  0  0  0  0  0  0  0  0  0  0  0
  184.7150  177.4960  142.5930 C   0  0  0  0  0  2  0  0  0  0  0  0
  191.8340  174.5770  144.3460 C   0  0  0  0  0  3  0  0  0  0  0  0
  190.5460  174.9420  143.9260 C   0  0  0  0  0  0  0  0  0  0  0  0
  186.7120  176.0080  142.6390 C   0  0  0  0  0  3  0  0  0  0  0  0
  188.5510  174.4960  142.6800 N   0  0  0  0  0  0  0  0  0  0  0  0
  183.9740  178.8280  145.2220 C   0  0  0  0  0  2  0  0  0  0  0  0
  185.2780  177.5820  146.9810 C   0  0  0  0  0  0  0  0  0  0  0  0
  184.7780  178.8020  146.4350 N   0  0  0  0  0  2  0  0  0  0  0  0
  185.0350  176.4800  146.4220 O   0  0  0  0  0  0  0  0  0  0  0  0
  186.0950  177.6130  148.2220 C   0  0  0  0  0  1  0  0  0  0  0  0
  190.3420  172.8190  142.5540 C   0  0  0  0  0  2  0  0  0  0  0  0
  190.0000  171.8480  140.2770 C   0  0  1  0  0  3  0  0  0  0  0  0
  192.1550  172.7240  140.8570 C   0  0  1  0  0  3  0  0  0  0  0  0
  192.3130  171.9860  139.6140 N   0  0  0  0  0  2  0  0  0  0  0  0
  191.1020  171.1910  139.4690 C   0  0  0  0  0  2  0  0  0  0  0  0
  192.8660  174.0580  140.7570 C   0  0  0  0  0  1  0  0  0  0  0  0
  190.6760  172.9400  141.0730 C   0  0  2  0  0  3  0  0  0  0  0  0
  188.2250  172.9100  138.6640 N   0  0  0  0  0  0  0  0  0  0  0  0
  189.0070  172.4390  139.3750 C   0  0  0  0  0  0  0  0  0  0  0  0
  1  7  1  0  0  0  0
  1 19  1  1  0  0  0
  2  9  1  0  0  0  0
  4  3  2  0  0  0  0
  5 13  2  0  0  0  0
  8  3  1  0  0  0  0
  9  6  2  0  0  0  0
  9 10  1  0  0  0  0
 10  8  2  0  0  0  0
 11 16  1  0  0  0  0
 12  1  1  0  0  0  0
 13  7  1  0  0  0  0
 13  6  1  0  0  0  0
 14 12  1  0  0  0  0
 14  5  1  0  0  0  0
 15  4  1  0  0  0  0
 16 15  2  0  0  0  0
 16 10  1  0  0  0  0
 17  5  1  0  0  0  0
 17  2  2  0  0  0  0
 18 11  2  0  0  0  0
 18  2  1  0  0  0  0
 19 21  1  0  0  0  0
 20 23  1  0  0  0  0
 21 20  1  0  0  0  0
 22 20  2  0  0  0  0
 24 11  1  0  0  0  0
 25 32  1  6  0  0  0
 25 30  1  0  0  0  0
 26 29  1  6  0  0  0
 26 30  1  0  0  0  0
 27 26  1  0  0  0  0
 28 27  1  0  0  0  0
 28 25  1  0  0  0  0
 30 24  1  1  0  0  0
 31 32  3  0  0  0  0
M  END
>  <MODEL>
4

>  <REMARK>
 VINA RESULT:      -7.3      2.551      4.893
  Name = 
  5 active torsions:
  status: ('A' for Active; 'I' for Inactive)
    1  A    between atoms: C_2  and  C_24
    2  A    between atoms: C_7  and  C_29
    3  A    between atoms: N_10  and  C_24
    4  A    between atoms: C_16  and  C_27
    5  A    between atoms: C_27  and  C_32
                            x       y       z     vdW  Elec       q    Type
                         _______ _______ _______ _____ _____    ______ ____

>  <TORSDO>
F 5

$$$$
=
 OpenBabel11052421333D

 32 36  0  0  1  0  0  0  0  0999 V2000
  185.5640  178.6120  142.0030 C   0  0  1  0  0  3  0  0  0  0  0  0
  189.5560  175.8090  143.6410 C   0  0  0  0  0  0  0  0  0  0  0  0
  190.5850  177.4470  148.1010 C   0  0  0  0  0  3  0  0  0  0  0  0
  191.5660  176.4620  148.2240 C   0  0  0  0  0  3  0  0  0  0  0  0
  187.8450  176.8450  142.2700 C   0  0  0  0  0  0  0  0  0  0  0  0
  188.2960  177.6990  144.4990 C   0  0  0  0  0  3  0  0  0  0  0  0
  186.5550  178.8600  143.1440 C   0  0  0  0  0  2  0  0  0  0  0  0
  189.8290  177.5410  146.9320 C   0  0  0  0  0  3  0  0  0  0  0  0
  189.2930  176.7280  144.6810 C   0  0  0  0  0  0  0  0  0  0  0  0
  190.0440  176.6480  145.8680 C   0  0  0  0  0  0  0  0  0  0  0  0
  191.2560  174.7520  144.9300 C   0  0  0  0  0  0  0  0  0  0  0  0
  186.3010  178.1350  140.7530 C   0  0  0  0  0  2  0  0  0  0  0  0
  187.5600  177.7540  143.3120 C   0  0  0  0  0  0  0  0  0  0  0  0
  187.0370  176.8180  141.0040 C   0  0  0  0  0  2  0  0  0  0  0  0
  191.7930  175.5660  147.1770 C   0  0  0  0  0  3  0  0  0  0  0  0
  191.0400  175.6470  145.9950 C   0  0  0  0  0  0  0  0  0  0  0  0
  188.8300  175.8700  142.4510 C   0  0  0  0  0  3  0  0  0  0  0  0
  190.5180  174.8620  143.7940 N   0  0  0  0  0  0  0  0  0  0  0  0
  184.4690  177.6340  142.4100 C   0  0  0  0  0  2  0  0  0  0  0  0
  182.3680  178.2910  141.1850 C   0  0  0  0  0  0  0  0  0  0  0  0
  183.1720  178.2910  142.3650 N   0  0  0  0  0  2  0  0  0  0  0  0
  182.7640  177.7150  140.1380 O   0  0  0  0  0  0  0  0  0  0  0  0
  181.0500  178.9770  141.1950 C   0  0  0  0  0  1  0  0  0  0  0  0
  192.3210  173.7010  144.9930 C   0  0  0  0  0  2  0  0  0  0  0  0
  193.7990  173.3610  143.0070 C   0  0  1  0  0  3  0  0  0  0  0  0
  194.7940  173.9030  145.1200 C   0  0  1  0  0  3  0  0  0  0  0  0
  195.8700  173.4910  144.2320 N   0  0  0  0  0  2  0  0  0  0  0  0
  195.2220  172.8490  143.0960 C   0  0  0  0  0  2  0  0  0  0  0  0
  195.1920  175.1630  145.8590 C   0  0  0  0  0  1  0  0  0  0  0  0
  193.5760  174.1660  144.2670 C   0  0  2  0  0  3  0  0  0  0  0  0
  193.5440  174.9160  140.9100 N   0  0  0  0  0  0  0  0  0  0  0  0
  193.6560  174.2310  141.8360 C   0  0  0  0  0  0  0  0  0  0  0  0
  1 19  1  1  0  0  0
  1  7  1  0  0  0  0
  2 18  2  0  0  0  0
  2  9  1  0  0  0  0
  3  4  1  0  0  0  0
  5 17  2  0  0  0  0
  5 13  1  0  0  0  0
  6  9  1  0  0  0  0
  7 13  1  0  0  0  0
  8  3  2  0  0  0  0
  9 10  2  0  0  0  0
 10 16  1  0  0  0  0
 10  8  1  0  0  0  0
 11 24  1  0  0  0  0
 11 16  2  0  0  0  0
 12 14  1  0  0  0  0
 12  1  1  0  0  0  0
 13  6  2  0  0  0  0
 14  5  1  0  0  0  0
 15  4  2  0  0  0  0
 16 15  1  0  0  0  0
 17  2  1  0  0  0  0
 18 11  1  0  0  0  0
 20 23  1  0  0  0  0
 20 21  1  0  0  0  0
 21 19  1  0  0  0  0
 22 20  2  0  0  0  0
 25 32  1  6  0  0  0
 25 28  1  0  0  0  0
 25 30  1  0  0  0  0
 26 29  1  6  0  0  0
 27 26  1  0  0  0  0
 28 27  1  0  0  0  0
 30 24  1  1  0  0  0
 30 26  1  0  0  0  0
 31 32  3  0  0  0  0
M  END
>  <MODEL>
5

>  <REMARK>
 VINA RESULT:      -7.2      2.421      4.260
  Name = 
  5 active torsions:
  status: ('A' for Active; 'I' for Inactive)
    1  A    between atoms: C_2  and  C_24
    2  A    between atoms: C_7  and  C_29
    3  A    between atoms: N_10  and  C_24
    4  A    between atoms: C_16  and  C_27
    5  A    between atoms: C_27  and  C_32
                            x       y       z     vdW  Elec       q    Type
                         _______ _______ _______ _____ _____    ______ ____

>  <TORSDO>
F 5

$$$$
=
 OpenBabel11052421333D

 32 36  0  0  1  0  0  0  0  0999 V2000
  190.3700  171.8790  139.3820 C   0  0  1  0  0  3  0  0  0  0  0  0
  188.6880  175.4370  142.6970 C   0  0  0  0  0  0  0  0  0  0  0  0
  191.4110  174.9190  146.6910 C   0  0  0  0  0  3  0  0  0  0  0  0
  190.7690  176.0220  147.2580 C   0  0  0  0  0  3  0  0  0  0  0  0
  188.9030  173.9310  140.8080 C   0  0  0  0  0  0  0  0  0  0  0  0
  190.3090  173.6300  142.7670 C   0  0  0  0  0  3  0  0  0  0  0  0
  190.5650  172.0020  140.8960 C   0  0  0  0  0  2  0  0  0  0  0  0
  191.0630  174.4870  145.4100 C   0  0  0  0  0  3  0  0  0  0  0  0
  189.7010  174.7330  143.3860 C   0  0  0  0  0  0  0  0  0  0  0  0
  190.0660  175.1550  144.6770 C   0  0  0  0  0  0  0  0  0  0  0  0
  188.4190  176.9450  144.5200 C   0  0  0  0  0  0  0  0  0  0  0  0
  188.9170  172.1680  139.0080 C   0  0  0  0  0  2  0  0  0  0  0  0
  189.9310  173.2340  141.4810 C   0  0  0  0  0  0  0  0  0  0  0  0
  188.5100  173.5890  139.4000 C   0  0  0  0  0  2  0  0  0  0  0  0
  189.7780  176.6970  146.5420 C   0  0  0  0  0  3  0  0  0  0  0  0
  189.4170  176.2750  145.2540 C   0  0  0  0  0  0  0  0  0  0  0  0
  188.3030  175.0360  141.4170 C   0  0  0  0  0  3  0  0  0  0  0  0
  188.0850  176.5070  143.2770 N   0  0  0  0  0  0  0  0  0  0  0  0
  191.3310  172.7770  138.6150 C   0  0  0  0  0  2  0  0  0  0  0  0
  190.8970  173.2790  136.1840 C   0  0  0  0  0  0  0  0  0  0  0  0
  191.3540  172.3980  137.2100 N   0  0  0  0  0  2  0  0  0  0  0  0
  190.4560  174.4230  136.4690 O   0  0  0  0  0  0  0  0  0  0  0  0
  190.9440  172.8400  134.7650 C   0  0  0  0  0  1  0  0  0  0  0  0
  187.6720  178.1090  145.0930 C   0  0  0  0  0  2  0  0  0  0  0  0
  185.7670  179.1670  143.8700 C   0  0  1  0  0  3  0  0  0  0  0  0
  185.3610  178.1570  146.0060 C   0  0  1  0  0  3  0  0  0  0  0  0
  184.1740  178.9230  145.6620 N   0  0  0  0  0  2  0  0  0  0  0  0
  184.5670  179.7870  144.5570 C   0  0  0  0  0  2  0  0  0  0  0  0
  184.9600  176.7900  146.5200 C   0  0  0  0  0  1  0  0  0  0  0  0
  186.1910  178.0150  144.7520 C   0  0  2  0  0  3  0  0  0  0  0  0
  185.0720  178.2590  141.5090 N   0  0  0  0  0  0  0  0  0  0  0  0
  185.3770  178.6590  142.5510 C   0  0  0  0  0  0  0  0  0  0  0  0
  1 19  1  6  0  0  0
  1  7  1  0  0  0  0
  2 18  2  0  0  0  0
  2  9  1  0  0  0  0
  3  4  1  0  0  0  0
  5 17  2  0  0  0  0
  5 13  1  0  0  0  0
  6  9  1  0  0  0  0
  7 13  1  0  0  0  0
  8  3  2  0  0  0  0
  9 10  2  0  0  0  0
 10 16  1  0  0  0  0
 10  8  1  0  0  0  0
 11 24  1  0  0  0  0
 11 16  2  0  0  0  0
 12  1  1  0  0  0  0
 12 14  1  0  0  0  0
 13  6  2  0  0  0  0
 14  5  1  0  0  0  0
 15  4  2  0  0  0  0
 16 15  1  0  0  0  0
 17  2  1  0  0  0  0
 18 11  1  0  0  0  0
 20 22  2  0  0  0  0
 20 21  1  0  0  0  0
 21 19  1  0  0  0  0
 23 20  1  0  0  0  0
 25 32  1  6  0  0  0
 25 28  1  0  0  0  0
 25 30  1  0  0  0  0
 26 29  1  6  0  0  0
 27 26  1  0  0  0  0
 28 27  1  0  0  0  0
 30 24  1  1  0  0  0
 30 26  1  0  0  0  0
 31 32  3  0  0  0  0
M  END
>  <MODEL>
6

>  <REMARK>
 VINA RESULT:      -7.1      3.309      8.314
  Name = 
  5 active torsions:
  status: ('A' for Active; 'I' for Inactive)
    1  A    between atoms: C_2  and  C_24
    2  A    between atoms: C_7  and  C_29
    3  A    between atoms: N_10  and  C_24
    4  A    between atoms: C_16  and  C_27
    5  A    between atoms: C_27  and  C_32
                            x       y       z     vdW  Elec       q    Type
                         _______ _______ _______ _____ _____    ______ ____

>  <TORSDO>
F 5

$$$$
=
 OpenBabel11052421333D

 32 36  0  0  1  0  0  0  0  0999 V2000
  195.1050  174.9400  144.2840 C   0  0  1  0  0  3  0  0  0  0  0  0
  190.0350  175.4900  143.6000 C   0  0  0  0  0  0  0  0  0  0  0  0
  188.4050  177.7910  147.5600 C   0  0  0  0  0  3  0  0  0  0  0  0
  187.1280  177.8320  146.9970 C   0  0  0  0  0  3  0  0  0  0  0  0
  192.3510  174.8030  143.3920 C   0  0  0  0  0  0  0  0  0  0  0  0
  191.6050  175.9690  145.3890 C   0  0  0  0  0  3  0  0  0  0  0  0
  193.9920  175.2560  145.2880 C   0  0  0  0  0  2  0  0  0  0  0  0
  189.4600  177.2000  146.8630 C   0  0  0  0  0  3  0  0  0  0  0  0
  190.3020  176.0410  144.8730 C   0  0  0  0  0  0  0  0  0  0  0  0
  189.2520  176.6420  145.5890 C   0  0  0  0  0  0  0  0  0  0  0  0
  187.7450  176.1280  143.7440 C   0  0  0  0  0  0  0  0  0  0  0  0
  194.6700  173.8180  143.3430 C   0  0  0  0  0  2  0  0  0  0  0  0
  192.6330  175.3700  144.6540 C   0  0  0  0  0  0  0  0  0  0  0  0
  193.4330  174.2120  142.5340 C   0  0  0  0  0  2  0  0  0  0  0  0
  186.9040  177.2820  145.7330 C   0  0  0  0  0  3  0  0  0  0  0  0
  187.9550  176.6860  145.0190 C   0  0  0  0  0  0  0  0  0  0  0  0
  191.0580  174.8830  142.8710 C   0  0  0  0  0  3  0  0  0  0  0  0
  188.7810  175.5480  143.0810 N   0  0  0  0  0  0  0  0  0  0  0  0
  195.5340  176.1800  143.5090 C   0  0  0  0  0  2  0  0  0  0  0  0
  196.5780  175.9630  141.2270 C   0  0  0  0  0  0  0  0  0  0  0  0
  196.6630  175.8630  142.6480 N   0  0  0  0  0  2  0  0  0  0  0  0
  195.5100  176.3320  140.6710 O   0  0  0  0  0  0  0  0  0  0  0  0
  197.7630  175.6280  140.3950 C   0  0  0  0  0  1  0  0  0  0  0  0
  186.3900  176.1100  143.1080 C   0  0  0  0  0  2  0  0  0  0  0  0
  184.7770  178.0060  142.8950 C   0  0  1  0  0  3  0  0  0  0  0  0
  185.9350  177.2390  140.9410 C   0  0  1  0  0  3  0  0  0  0  0  0
  184.8810  178.1330  140.4900 N   0  0  0  0  0  2  0  0  0  0  0  0
  183.9940  178.3060  141.6320 C   0  0  0  0  0  2  0  0  0  0  0  0
  187.2300  177.5690  140.2270 C   0  0  0  0  0  1  0  0  0  0  0  0
  186.0990  177.4410  142.4290 C   0  0  2  0  0  3  0  0  0  0  0  0
  185.1940  180.2250  144.2310 N   0  0  0  0  0  0  0  0  0  0  0  0
  185.0080  179.2460  143.6430 C   0  0  0  0  0  0  0  0  0  0  0  0
  1 19  1  6  0  0  0
  1  7  1  0  0  0  0
  2  9  1  0  0  0  0
  4  3  1  0  0  0  0
  5 13  1  0  0  0  0
  8  3  2  0  0  0  0
  9  6  1  0  0  0  0
  9 10  2  0  0  0  0
 10  8  1  0  0  0  0
 11 16  2  0  0  0  0
 12  1  1  0  0  0  0
 13  7  1  0  0  0  0
 13  6  2  0  0  0  0
 14 12  1  0  0  0  0
 14  5  1  0  0  0  0
 15  4  2  0  0  0  0
 16 10  1  0  0  0  0
 16 15  1  0  0  0  0
 17  5  2  0  0  0  0
 17  2  1  0  0  0  0
 18  2  2  0  0  0  0
 18 11  1  0  0  0  0
 20 21  1  0  0  0  0
 21 19  1  0  0  0  0
 22 20  2  0  0  0  0
 23 20  1  0  0  0  0
 24 11  1  0  0  0  0
 25 32  1  6  0  0  0
 26 29  1  6  0  0  0
 26 30  1  0  0  0  0
 27 26  1  0  0  0  0
 27 28  1  0  0  0  0
 28 25  1  0  0  0  0
 30 25  1  0  0  0  0
 30 24  1  1  0  0  0
 32 31  3  0  0  0  0
M  END
>  <MODEL>
7

>  <REMARK>
 VINA RESULT:      -7.0      2.655      8.616
  Name = 
  5 active torsions:
  status: ('A' for Active; 'I' for Inactive)
    1  A    between atoms: C_2  and  C_24
    2  A    between atoms: C_7  and  C_29
    3  A    between atoms: N_10  and  C_24
    4  A    between atoms: C_16  and  C_27
    5  A    between atoms: C_27  and  C_32
                            x       y       z     vdW  Elec       q    Type
                         _______ _______ _______ _____ _____    ______ ____

>  <TORSDO>
F 5

$$$$
=
 OpenBabel11052421333D

 32 36  0  0  1  0  0  0  0  0999 V2000
  185.4630  179.0210  142.9670 C   0  0  1  0  0  3  0  0  0  0  0  0
  188.8500  175.1980  143.5980 C   0  0  0  0  0  0  0  0  0  0  0  0
  191.6970  176.5470  147.3000 C   0  0  0  0  0  3  0  0  0  0  0  0
  192.3560  175.3190  147.2250 C   0  0  0  0  0  3  0  0  0  0  0  0
  187.1320  176.6660  142.7150 C   0  0  0  0  0  0  0  0  0  0  0  0
  188.5070  177.3920  144.5810 C   0  0  0  0  0  3  0  0  0  0  0  0
  186.8030  178.9880  143.7080 C   0  0  0  0  0  2  0  0  0  0  0  0
  190.6530  176.8360  146.4200 C   0  0  0  0  0  3  0  0  0  0  0  0
  189.2050  176.1740  144.5550 C   0  0  0  0  0  0  0  0  0  0  0  0
  190.2530  175.8990  145.4510 C   0  0  0  0  0  0  0  0  0  0  0  0
  190.5240  173.7130  144.4090 C   0  0  0  0  0  0  0  0  0  0  0  0
  185.5870  178.3240  141.6130 C   0  0  0  0  0  2  0  0  0  0  0  0
  187.4660  177.6390  143.6820 C   0  0  0  0  0  0  0  0  0  0  0  0
  185.9770  176.8530  141.7740 C   0  0  0  0  0  2  0  0  0  0  0  0
  191.9710  174.3760  146.2690 C   0  0  0  0  0  3  0  0  0  0  0  0
  190.9230  174.6520  145.3780 C   0  0  0  0  0  0  0  0  0  0  0  0
  187.8170  175.4480  142.6930 C   0  0  0  0  0  3  0  0  0  0  0  0
  189.5110  174.0130  143.5530 N   0  0  0  0  0  0  0  0  0  0  0  0
  184.3420  178.4170  143.8030 C   0  0  0  0  0  2  0  0  0  0  0  0
  184.7630  178.0620  146.2610 C   0  0  0  0  0  0  0  0  0  0  0  0
  184.4160  178.9120  145.1690 N   0  0  0  0  0  2  0  0  0  0  0  0
  185.0180  176.8430  146.0710 O   0  0  0  0  0  0  0  0  0  0  0  0
  184.8250  178.6210  147.6360 C   0  0  0  0  0  1  0  0  0  0  0  0
  191.2200  172.3960  144.2590 C   0  0  0  0  0  2  0  0  0  0  0  0
  191.7000  171.0980  142.1780 C   0  0  1  0  0  3  0  0  0  0  0  0
  193.4910  172.2730  143.2560 C   0  0  1  0  0  3  0  0  0  0  0  0
  194.0900  171.3970  142.2620 N   0  0  0  0  0  2  0  0  0  0  0  0
  193.0420  170.4620  141.8740 C   0  0  0  0  0  2  0  0  0  0  0  0
  194.1140  173.6500  143.1700 C   0  0  0  0  0  1  0  0  0  0  0  0
  192.0120  172.3540  142.9590 C   0  0  2  0  0  3  0  0  0  0  0  0
  190.4910  171.7300  139.9380 N   0  0  0  0  0  0  0  0  0  0  0  0
  191.0230  171.4520  140.9270 C   0  0  0  0  0  0  0  0  0  0  0  0
  1  7  1  0  0  0  0
  1 19  1  1  0  0  0
  2  9  1  0  0  0  0
  4  3  1  0  0  0  0
  5 13  1  0  0  0  0
  8  3  2  0  0  0  0
  9  6  1  0  0  0  0
  9 10  2  0  0  0  0
 10  8  1  0  0  0  0
 11 16  2  0  0  0  0
 12 14  1  0  0  0  0
 12  1  1  0  0  0  0
 13  7  1  0  0  0  0
 13  6  2  0  0  0  0
 14  5  1  0  0  0  0
 15  4  2  0  0  0  0
 16 10  1  0  0  0  0
 16 15  1  0  0  0  0
 17  5  2  0  0  0  0
 17  2  1  0  0  0  0
 18  2  2  0  0  0  0
 18 11  1  0  0  0  0
 19 21  1  0  0  0  0
 20 23  1  0  0  0  0
 21 20  1  0  0  0  0
 22 20  2  0  0  0  0
 24 11  1  0  0  0  0
 25 32  1  6  0  0  0
 25 30  1  0  0  0  0
 26 29  1  6  0  0  0
 27 26  1  0  0  0  0
 28 25  1  0  0  0  0
 28 27  1  0  0  0  0
 30 26  1  0  0  0  0
 30 24  1  1  0  0  0
 31 32  3  0  0  0  0
M  END
>  <MODEL>
8

>  <REMARK>
 VINA RESULT:      -6.9      2.422      4.616
  Name = 
  5 active torsions:
  status: ('A' for Active; 'I' for Inactive)
    1  A    between atoms: C_2  and  C_24
    2  A    between atoms: C_7  and  C_29
    3  A    between atoms: N_10  and  C_24
    4  A    between atoms: C_16  and  C_27
    5  A    between atoms: C_27  and  C_32
                            x       y       z     vdW  Elec       q    Type
                         _______ _______ _______ _____ _____    ______ ____

>  <TORSDO>
F 5

$$$$
=
 OpenBabel11052421333D

 32 36  0  0  1  0  0  0  0  0999 V2000
  185.4360  178.0860  146.2040 C   0  0  1  0  0  3  0  0  0  0  0  0
  190.0320  175.8740  145.5250 C   0  0  0  0  0  0  0  0  0  0  0  0
  189.4550  172.7120  141.8780 C   0  0  0  0  0  3  0  0  0  0  0  0
  190.8190  172.4180  141.9340 C   0  0  0  0  0  3  0  0  0  0  0  0
  188.1640  177.1340  146.4230 C   0  0  0  0  0  0  0  0  0  0  0  0
  187.8120  175.5850  144.5850 C   0  0  0  0  0  3  0  0  0  0  0  0
  185.8240  176.7960  145.4750 C   0  0  0  0  0  2  0  0  0  0  0  0
  188.9050  173.6490  142.7550 C   0  0  0  0  0  3  0  0  0  0  0  0
  189.1750  175.2500  144.5920 C   0  0  0  0  0  0  0  0  0  0  0  0
  189.7120  174.3050  143.7000 C   0  0  0  0  0  0  0  0  0  0  0  0
  191.9070  174.6620  144.6990 C   0  0  0  0  0  0  0  0  0  0  0  0
  186.1640  178.1790  147.5440 C   0  0  0  0  0  2  0  0  0  0  0  0
  187.3030  176.5310  145.4790 C   0  0  0  0  0  0  0  0  0  0  0  0
  187.6810  178.2070  147.3570 C   0  0  0  0  0  2  0  0  0  0  0  0
  191.6350  173.0610  142.8660 C   0  0  0  0  0  3  0  0  0  0  0  0
  191.0970  174.0050  143.7530 C   0  0  0  0  0  0  0  0  0  0  0  0
  189.5230  176.8120  146.4260 C   0  0  0  0  0  3  0  0  0  0  0  0
  191.3540  175.5650  145.5520 N   0  0  0  0  0  0  0  0  0  0  0  0
  185.6920  179.3180  145.3460 C   0  0  0  0  0  2  0  0  0  0  0  0
  184.6580  178.7650  143.1160 C   0  0  0  0  0  0  0  0  0  0  0  0
  185.8060  178.9360  143.9470 N   0  0  0  0  0  2  0  0  0  0  0  0
  183.5000  178.9410  143.5780 O   0  0  0  0  0  0  0  0  0  0  0  0
  184.8330  178.3740  141.6940 C   0  0  0  0  0  1  0  0  0  0  0  0
  193.3670  174.3580  144.8280 C   0  0  0  0  0  2  0  0  0  0  0  0
  194.9890  174.6520  142.9500 C   0  0  1  0  0  3  0  0  0  0  0  0
  195.2300  176.0010  144.9170 C   0  0  1  0  0  3  0  0  0  0  0  0
  196.4400  176.1730  144.1290 N   0  0  0  0  0  2  0  0  0  0  0  0
  196.4230  175.1030  143.1400 C   0  0  0  0  0  2  0  0  0  0  0  0
  194.7330  177.3490  145.3960 C   0  0  0  0  0  1  0  0  0  0  0  0
  194.1950  175.3540  144.0270 C   0  0  2  0  0  3  0  0  0  0  0  0
  194.1230  175.4000  140.5900 N   0  0  0  0  0  0  0  0  0  0  0  0
  194.5060  175.0720  141.6310 C   0  0  0  0  0  0  0  0  0  0  0  0
  1 19  1  6  0  0  0
  1 12  1  0  0  0  0
  2 18  1  0  0  0  0
  2 17  1  0  0  0  0
  3  4  2  0  0  0  0
  3  8  1  0  0  0  0
  4 15  1  0  0  0  0
  5 17  2  0  0  0  0
  5 14  1  0  0  0  0
  6  9  1  0  0  0  0
  6 13  2  0  0  0  0
  7 13  1  0  0  0  0
  7  1  1  0  0  0  0
  8 10  2  0  0  0  0
  9  2  2  0  0  0  0
 10 16  1  0  0  0  0
 10  9  1  0  0  0  0
 11 24  1  0  0  0  0
 11 18  2  0  0  0  0
 13  5  1  0  0  0  0
 14 12  1  0  0  0  0
 15 16  2  0  0  0  0
 16 11  1  0  0  0  0
 20 22  2  0  0  0  0
 20 21  1  0  0  0  0
 21 19  1  0  0  0  0
 23 20  1  0  0  0  0
 25 32  1  6  0  0  0
 25 28  1  0  0  0  0
 25 30  1  0  0  0  0
 26 29  1  6  0  0  0
 27 26  1  0  0  0  0
 28 27  1  0  0  0  0
 30 24  1  1  0  0  0
 30 26  1  0  0  0  0
 31 32  3  0  0  0  0
M  END
>  <MODEL>
9

>  <REMARK>
 VINA RESULT:      -6.8      1.513      2.194
  Name = 
  5 active torsions:
  status: ('A' for Active; 'I' for Inactive)
    1  A    between atoms: C_2  and  C_24
    2  A    between atoms: C_7  and  C_29
    3  A    between atoms: N_10  and  C_24
    4  A    between atoms: C_16  and  C_27
    5  A    between atoms: C_27  and  C_32
                            x       y       z     vdW  Elec       q    Type
                         _______ _______ _______ _____ _____    ______ ____

>  <TORSDO>
F 5

$$$$
