=
 OpenBabel11052417113D

 30 32  0  0  1  0  0  0  0  0999 V2000
  186.3850  177.2030  146.4110 C   0  0  0  0  0  0  0  0  0  0  0  0
  186.0510  178.4410  147.0410 N   0  0  0  0  0  2  0  0  0  0  0  0
  186.8380  176.2560  147.1090 O   0  0  0  0  0  0  0  0  0  0  0  0
  186.1490  178.3580  144.1950 C   0  0  2  0  0  3  0  0  0  0  0  0
  185.5180  179.5310  146.2830 C   0  0  0  0  0  3  0  0  0  0  0  0
  186.0930  177.0130  144.9410 C   0  0  1  0  0  3  0  0  0  0  0  0
  185.5120  179.4950  144.9510 C   0  0  0  0  0  3  0  0  0  0  0  0
  185.8600  178.1690  140.3980 C   0  0  0  0  0  3  0  0  0  0  0  0
  184.4790  178.0290  140.2380 C   0  0  0  0  0  3  0  0  0  0  0  0
  186.4130  178.2820  141.6760 C   0  0  0  0  0  0  0  0  0  0  0  0
  184.1890  178.1140  142.6340 C   0  0  0  0  0  3  0  0  0  0  0  0
  187.8920  178.4240  141.8050 C   0  0  0  0  0  1  0  0  0  0  0  0
  183.6350  178.0000  141.3560 C   0  0  0  0  0  0  0  0  0  0  0  0
  185.5750  178.2570  142.8080 C   0  0  0  0  0  0  0  0  0  0  0  0
  181.5170  179.4980  142.7540 O   0  0  0  0  0  0  0  0  0  0  0  0
  181.2090  178.5940  141.9320 C   0  0  0  0  0  0  0  0  0  0  0  0
  182.2140  177.8500  141.2310 N   0  0  0  0  0  2  0  0  0  0  0  0
  179.7770  178.2940  141.6810 C   0  0  0  0  0  1  0  0  0  0  0  0
  188.3680  176.2580  144.3870 C   0  0  0  0  0  3  0  0  0  0  0  0
  187.0570  176.0510  144.3110 C   0  0  0  0  0  3  0  0  0  0  0  0
  189.3110  175.2920  143.7560 C   0  0  0  0  0  2  0  0  0  0  0  0
  190.6130  175.9860  143.3710 C   0  0  2  0  0  3  0  0  0  0  0  0
  190.9890  175.5920  142.0870 O   0  0  0  0  0  1  0  0  0  0  0  0
  192.7240  174.7010  146.4030 C   0  0  0  0  0  2  0  0  0  0  0  0
  191.7550  175.7030  144.3530 C   0  0  1  0  0  3  0  0  0  0  0  0
  192.4100  176.1720  146.5960 C   0  0  2  0  0  0  0  0  0  0  0  0
  191.8320  176.7380  145.3780 N   0  0  0  0  0  2  0  0  0  0  0  0
  191.6180  174.0710  145.1320 S   0  0  0  0  0  0  0  0  0  0  0  0
  193.5830  176.8570  146.9120 O   0  0  0  0  0  1  0  0  0  0  0  0
  191.4220  176.3290  147.7330 C   0  0  0  0  0  1  0  0  0  0  0  0
  1  2  1  0  0  0  0
  1  3  2  0  0  0  0
  4 14  1  6  0  0  0
  4  6  1  0  0  0  0
  4  7  1  0  0  0  0
  5  2  1  0  0  0  0
  6 20  1  6  0  0  0
  6  1  1  0  0  0  0
  7  5  2  0  0  0  0
  8 10  1  0  0  0  0
  9  8  2  0  0  0  0
  9 13  1  0  0  0  0
 10 12  1  0  0  0  0
 10 14  2  0  0  0  0
 11 14  1  0  0  0  0
 13 11  2  0  0  0  0
 16 15  2  0  0  0  0
 17 13  1  0  0  0  0
 17 16  1  0  0  0  0
 18 16  1  0  0  0  0
 20 19  2  0  0  0  0
 21 19  1  0  0  0  0
 22 23  1  6  0  0  0
 22 21  1  0  0  0  0
 24 26  1  0  0  0  0
 25 22  1  6  0  0  0
 25 28  1  0  0  0  0
 25 27  1  0  0  0  0
 26 29  1  0  0  0  0
 26 30  1  1  0  0  0
 27 26  1  0  0  0  0
 28 24  1  0  0  0  0
M  END
>  <MODEL>
1

>  <REMARK>
 VINA RESULT:      -7.3      0.000      0.000
  Name = 
  6 active torsions:
  status: ('A' for Active; 'I' for Inactive)
    1  A    between atoms: C_1  and  C_4
    2  A    between atoms: C_4  and  C_27
    3  A    between atoms: C_5  and  C_22
    4  A    between atoms: C_8  and  C_27
    5  A    between atoms: N_16  and  C_25
    6  A    between atoms: C_19  and  C_29
                            x       y       z     vdW  Elec       q    Type
                         _______ _______ _______ _____ _____    ______ ____

>  <TORSDO>
F 6

$$$$
=
 OpenBabel11052417113D

 30 32  0  0  1  0  0  0  0  0999 V2000
  189.6680  177.0230  146.3060 C   0  0  0  0  0  0  0  0  0  0  0  0
  190.2230  176.9720  147.6230 N   0  0  0  0  0  2  0  0  0  0  0  0
  188.6700  177.7600  146.0850 O   0  0  0  0  0  0  0  0  0  0  0  0
  191.0830  175.0350  145.7180 C   0  0  2  0  0  3  0  0  0  0  0  0
  191.3660  176.1600  147.9060 C   0  0  0  0  0  3  0  0  0  0  0  0
  190.3470  176.2760  145.1820 C   0  0  1  0  0  3  0  0  0  0  0  0
  191.8140  175.2790  147.0130 C   0  0  0  0  0  3  0  0  0  0  0  0
  192.6110  172.6580  143.1590 C   0  0  0  0  0  3  0  0  0  0  0  0
  193.7320  173.3830  142.7500 C   0  0  0  0  0  3  0  0  0  0  0  0
  191.7470  173.1800  144.1240 C   0  0  0  0  0  0  0  0  0  0  0  0
  193.1390  175.1630  144.2700 C   0  0  0  0  0  3  0  0  0  0  0  0
  190.5580  172.3760  144.5300 C   0  0  0  0  0  1  0  0  0  0  0  0
  194.0030  174.6420  143.3030 C   0  0  0  0  0  0  0  0  0  0  0  0
  192.0090  174.4430  144.6900 C   0  0  0  0  0  0  0  0  0  0  0  0
  196.6250  174.8490  144.6310 O   0  0  0  0  0  0  0  0  0  0  0  0
  196.4020  175.5010  143.5770 C   0  0  0  0  0  0  0  0  0  0  0  0
  195.1400  175.4190  142.9030 N   0  0  0  0  0  2  0  0  0  0  0  0
  197.4680  176.3710  143.0190 C   0  0  0  0  0  1  0  0  0  0  0  0
  189.4800  176.2940  142.8800 C   0  0  0  0  0  3  0  0  0  0  0  0
  189.3630  175.8580  144.1300 C   0  0  0  0  0  3  0  0  0  0  0  0
  188.4940  175.8680  141.8470 C   0  0  0  0  0  2  0  0  0  0  0  0
  187.6670  177.0560  141.3710 C   0  0  2  0  0  3  0  0  0  0  0  0
  188.3770  178.2360  141.5890 O   0  0  0  0  0  1  0  0  0  0  0  0
  184.1600  178.2740  142.6050 C   0  0  0  0  0  2  0  0  0  0  0  0
  186.2980  177.1450  142.0540 C   0  0  1  0  0  3  0  0  0  0  0  0
  185.1620  178.3900  143.7380 C   0  0  2  0  0  0  0  0  0  0  0  0
  186.4160  177.7260  143.3870 N   0  0  0  0  0  2  0  0  0  0  0  0
  185.0900  178.0810  141.0770 S   0  0  0  0  0  0  0  0  0  0  0  0
  184.6310  177.8000  144.8850 O   0  0  0  0  0  1  0  0  0  0  0  0
  185.4360  179.8540  144.0170 C   0  0  0  0  0  1  0  0  0  0  0  0
  1  2  1  0  0  0  0
  2  5  1  0  0  0  0
  3  1  2  0  0  0  0
  4 14  1  6  0  0  0
  4  7  1  0  0  0  0
  6 20  1  6  0  0  0
  6  4  1  0  0  0  0
  6  1  1  0  0  0  0
  7  5  2  0  0  0  0
  8 10  1  0  0  0  0
  9  8  2  0  0  0  0
  9 13  1  0  0  0  0
 10 12  1  0  0  0  0
 10 14  2  0  0  0  0
 11 14  1  0  0  0  0
 13 11  2  0  0  0  0
 16 15  2  0  0  0  0
 17 13  1  0  0  0  0
 17 16  1  0  0  0  0
 18 16  1  0  0  0  0
 19 20  2  0  0  0  0
 21 19  1  0  0  0  0
 22 23  1  1  0  0  0
 22 21  1  0  0  0  0
 24 26  1  0  0  0  0
 25 22  1  6  0  0  0
 25 27  1  0  0  0  0
 26 30  1  1  0  0  0
 26 29  1  0  0  0  0
 27 26  1  0  0  0  0
 28 25  1  0  0  0  0
 28 24  1  0  0  0  0
M  END
>  <MODEL>
2

>  <REMARK>
 VINA RESULT:      -7.3      3.167      8.714
  Name = 
  6 active torsions:
  status: ('A' for Active; 'I' for Inactive)
    1  A    between atoms: C_1  and  C_4
    2  A    between atoms: C_4  and  C_27
    3  A    between atoms: C_5  and  C_22
    4  A    between atoms: C_8  and  C_27
    5  A    between atoms: N_16  and  C_25
    6  A    between atoms: C_19  and  C_29
                            x       y       z     vdW  Elec       q    Type
                         _______ _______ _______ _____ _____    ______ ____

>  <TORSDO>
F 6

$$$$
=
 OpenBabel11052417113D

 30 32  0  0  1  0  0  0  0  0999 V2000
  189.2100  173.7360  142.1840 C   0  0  0  0  0  0  0  0  0  0  0  0
  189.7990  173.4840  140.9050 N   0  0  0  0  0  0  0  0  0  0  0  0
  187.9890  173.4820  142.3630 O   0  0  0  0  0  0  0  0  0  0  0  0
  191.2880  175.0030  142.8010 C   0  0  2  0  0  3  0  0  0  0  0  0
  191.1860  173.7430  140.6710 C   0  0  0  0  0  3  0  0  0  0  0  0
  190.0830  174.2020  143.3260 C   0  0  1  0  0  3  0  0  0  0  0  0
  191.9130  174.4130  141.5640 C   0  0  0  0  0  2  0  0  0  0  0  0
  193.4820  176.6740  145.4330 C   0  0  0  0  0  3  0  0  0  0  0  0
  194.2410  175.5910  145.8800 C   0  0  0  0  0  3  0  0  0  0  0  0
  192.5240  176.4980  144.4310 C   0  0  0  0  0  0  0  0  0  0  0  0
  193.0950  174.1410  144.3260 C   0  0  0  0  0  3  0  0  0  0  0  0
  191.7290  177.6790  143.9860 C   0  0  0  0  0  1  0  0  0  0  0  0
  194.0530  174.3170  145.3290 C   0  0  0  0  0  0  0  0  0  0  0  0
  192.3260  175.2220  143.8680 C   0  0  0  0  0  0  0  0  0  0  0  0
  196.7000  173.4210  144.3960 O   0  0  0  0  0  0  0  0  0  0  0  0
  196.0940  172.7680  145.2870 C   0  0  0  0  0  0  0  0  0  0  0  0
  194.8080  173.1790  145.7670 N   0  0  0  0  0  2  0  0  0  0  0  0
  196.7270  171.5500  145.8550 C   0  0  0  0  0  1  0  0  0  0  0  0
  189.3440  174.7760  145.6010 C   0  0  0  0  0  3  0  0  0  0  0  0
  189.3090  175.0410  144.2980 C   0  0  0  0  0  3  0  0  0  0  0  0
  188.5700  175.6220  146.5540 C   0  0  0  0  0  2  0  0  0  0  0  0
  188.7150  177.0980  146.2020 C   0  0  2  0  0  3  0  0  0  0  0  0
  189.4160  177.7510  147.2150 O   0  0  0  0  0  1  0  0  0  0  0  0
  184.9470  177.8270  145.4430 C   0  0  0  0  0  2  0  0  0  0  0  0
  187.3690  177.7940  145.9740 C   0  0  1  0  0  3  0  0  0  0  0  0
  185.7880  178.2170  144.2420 C   0  0  2  0  0  0  0  0  0  0  0  0
  187.2110  178.1810  144.5770 N   0  0  0  0  0  2  0  0  0  0  0  0
  185.9610  176.7790  146.4980 S   0  0  0  0  0  0  0  0  0  0  0  0
  185.4400  179.5040  143.8350 O   0  0  0  0  0  1  0  0  0  0  0  0
  185.5200  177.2490  143.1080 C   0  0  0  0  0  1  0  0  0  0  0  0
  1  3  2  0  0  0  0
  1  6  1  0  0  0  0
  2  1  1  0  0  0  0
  4  6  1  0  0  0  0
  4 14  1  1  0  0  0
  5  2  2  0  0  0  0
  5  7  1  0  0  0  0
  6 20  1  1  0  0  0
  7  4  1  0  0  0  0
  8  9  1  0  0  0  0
 10  8  2  0  0  0  0
 11 13  1  0  0  0  0
 12 10  1  0  0  0  0
 13 17  1  0  0  0  0
 13  9  2  0  0  0  0
 14 11  2  0  0  0  0
 14 10  1  0  0  0  0
 15 16  2  0  0  0  0
 16 17  1  0  0  0  0
 16 18  1  0  0  0  0
 19 21  1  0  0  0  0
 20 19  2  0  0  0  0
 22 21  1  0  0  0  0
 22 23  1  1  0  0  0
 24 28  1  0  0  0  0
 25 22  1  6  0  0  0
 25 28  1  0  0  0  0
 26 30  1  6  0  0  0
 26 27  1  0  0  0  0
 26 24  1  0  0  0  0
 27 25  1  0  0  0  0
 29 26  1  0  0  0  0
M  END
>  <MODEL>
3

>  <REMARK>
 VINA RESULT:      -7.3      3.160      9.084
  Name = 
  6 active torsions:
  status: ('A' for Active; 'I' for Inactive)
    1  A    between atoms: C_1  and  C_4
    2  A    between atoms: C_4  and  C_27
    3  A    between atoms: C_5  and  C_22
    4  A    between atoms: C_8  and  C_27
    5  A    between atoms: N_16  and  C_25
    6  A    between atoms: C_19  and  C_29
                            x       y       z     vdW  Elec       q    Type
                         _______ _______ _______ _____ _____    ______ ____

>  <TORSDO>
F 6

$$$$
=
 OpenBabel11052417113D

 30 32  0  0  1  0  0  0  0  0999 V2000
  190.9660  177.2270  144.1440 C   0  0  0  0  0  0  0  0  0  0  0  0
  192.3130  177.1920  144.6210 N   0  0  0  0  0  2  0  0  0  0  0  0
  190.2710  178.2620  144.3270 O   0  0  0  0  0  0  0  0  0  0  0  0
  191.1290  174.7540  143.7440 C   0  0  2  0  0  3  0  0  0  0  0  0
  193.1360  176.0400  144.4150 C   0  0  0  0  0  3  0  0  0  0  0  0
  190.4310  176.0650  143.3400 C   0  0  1  0  0  3  0  0  0  0  0  0
  192.6120  174.9020  143.9630 C   0  0  0  0  0  3  0  0  0  0  0  0
  189.9400  171.4460  142.2670 C   0  0  0  0  0  3  0  0  0  0  0  0
  190.2950  171.6050  140.9260 C   0  0  0  0  0  3  0  0  0  0  0  0
  190.2090  172.4580  143.1920 C   0  0  0  0  0  0  0  0  0  0  0  0
  191.1960  173.7900  141.4190 C   0  0  0  0  0  3  0  0  0  0  0  0
  189.8080  172.2520  144.6140 C   0  0  0  0  0  1  0  0  0  0  0  0
  190.9260  172.7790  140.4940 C   0  0  0  0  0  0  0  0  0  0  0  0
  190.8450  173.6420  142.7710 C   0  0  0  0  0  0  0  0  0  0  0  0
  189.3310  173.9890  138.3320 O   0  0  0  0  0  0  0  0  0  0  0  0
  190.4940  173.5690  138.0940 C   0  0  0  0  0  0  0  0  0  0  0  0
  191.2990  172.9800  139.1230 N   0  0  0  0  0  2  0  0  0  0  0  0
  191.0460  173.6900  136.7210 C   0  0  0  0  0  1  0  0  0  0  0  0
  188.1280  176.0390  142.4740 C   0  0  0  0  0  3  0  0  0  0  0  0
  188.9480  175.9160  143.5130 C   0  0  0  0  0  3  0  0  0  0  0  0
  186.6580  175.8870  142.6630 C   0  0  0  0  0  2  0  0  0  0  0  0
  185.9390  177.1980  142.3670 C   0  0  2  0  0  3  0  0  0  0  0  0
  186.8600  178.1400  141.9080 O   0  0  0  0  0  1  0  0  0  0  0  0
  184.9470  179.2530  145.5440 C   0  0  0  0  0  2  0  0  0  0  0  0
  185.1900  177.7580  143.5810 C   0  0  1  0  0  3  0  0  0  0  0  0
  185.3480  177.8490  145.9570 C   0  0  2  0  0  0  0  0  0  0  0  0
  185.4950  176.9900  144.7830 N   0  0  0  0  0  2  0  0  0  0  0  0
  185.5380  179.5150  143.8660 S   0  0  0  0  0  0  0  0  0  0  0  0
  184.3720  177.3190  146.7990 O   0  0  0  0  0  1  0  0  0  0  0  0
  186.6670  177.9030  146.7000 C   0  0  0  0  0  1  0  0  0  0  0  0
  1  3  2  0  0  0  0
  1  2  1  0  0  0  0
  4 14  1  6  0  0  0
  4  7  1  0  0  0  0
  5  2  1  0  0  0  0
  6 20  1  1  0  0  0
  6  4  1  0  0  0  0
  6  1  1  0  0  0  0
  7  5  2  0  0  0  0
  8 10  1  0  0  0  0
  9  8  2  0  0  0  0
 10 12  1  0  0  0  0
 11 14  1  0  0  0  0
 13  9  1  0  0  0  0
 13 11  2  0  0  0  0
 14 10  2  0  0  0  0
 16 15  2  0  0  0  0
 16 17  1  0  0  0  0
 17 13  1  0  0  0  0
 18 16  1  0  0  0  0
 19 21  1  0  0  0  0
 19 20  2  0  0  0  0
 22 23  1  1  0  0  0
 22 21  1  0  0  0  0
 24 26  1  0  0  0  0
 25 22  1  6  0  0  0
 25 28  1  0  0  0  0
 25 27  1  0  0  0  0
 26 30  1  1  0  0  0
 26 29  1  0  0  0  0
 27 26  1  0  0  0  0
 28 24  1  0  0  0  0
M  END
>  <MODEL>
4

>  <REMARK>
 VINA RESULT:      -7.1      3.604      7.597
  Name = 
  6 active torsions:
  status: ('A' for Active; 'I' for Inactive)
    1  A    between atoms: C_1  and  C_4
    2  A    between atoms: C_4  and  C_27
    3  A    between atoms: C_5  and  C_22
    4  A    between atoms: C_8  and  C_27
    5  A    between atoms: N_16  and  C_25
    6  A    between atoms: C_19  and  C_29
                            x       y       z     vdW  Elec       q    Type
                         _______ _______ _______ _____ _____    ______ ____

>  <TORSDO>
F 6

$$$$
=
 OpenBabel11052417113D

 30 32  0  0  1  0  0  0  0  0999 V2000
  186.0270  177.4010  146.5440 C   0  0  0  0  0  0  0  0  0  0  0  0
  185.6870  178.7110  147.0050 N   0  0  0  0  0  2  0  0  0  0  0  0
  186.1950  176.4750  147.3820 O   0  0  0  0  0  0  0  0  0  0  0  0
  186.4530  178.3960  144.2790 C   0  0  2  0  0  3  0  0  0  0  0  0
  185.4710  179.7820  146.0810 C   0  0  0  0  0  3  0  0  0  0  0  0
  186.0760  177.1240  145.0590 C   0  0  1  0  0  3  0  0  0  0  0  0
  185.7800  179.6420  144.7930 C   0  0  0  0  0  3  0  0  0  0  0  0
  187.0600  177.9160  140.5460 C   0  0  0  0  0  3  0  0  0  0  0  0
  185.7520  177.9110  140.0570 C   0  0  0  0  0  3  0  0  0  0  0  0
  187.3010  178.0780  141.9120 C   0  0  0  0  0  0  0  0  0  0  0  0
  184.9090  178.2310  142.2970 C   0  0  0  0  0  3  0  0  0  0  0  0
  188.7120  178.0730  142.3950 C   0  0  0  0  0  1  0  0  0  0  0  0
  184.6680  178.0680  140.9300 C   0  0  0  0  0  0  0  0  0  0  0  0
  186.2200  178.2390  142.8000 C   0  0  0  0  0  0  0  0  0  0  0  0
  182.2200  178.6760  142.4530 O   0  0  0  0  0  0  0  0  0  0  0  0
  182.1400  178.3560  141.2380 C   0  0  0  0  0  0  0  0  0  0  0  0
  183.3110  178.0600  140.4660 N   0  0  0  0  0  2  0  0  0  0  0  0
  180.8060  178.2890  140.5880 C   0  0  0  0  0  1  0  0  0  0  0  0
  188.2920  176.0680  145.2200 C   0  0  0  0  0  3  0  0  0  0  0  0
  187.0540  176.0330  144.7380 C   0  0  0  0  0  3  0  0  0  0  0  0
  189.2500  174.9740  144.8920 C   0  0  0  0  0  2  0  0  0  0  0  0
  189.8770  174.4100  146.1620 C   0  0  2  0  0  3  0  0  0  0  0  0
  189.1540  174.8470  147.2720 O   0  0  0  0  0  1  0  0  0  0  0  0
  193.2060  176.4150  146.6140 C   0  0  0  0  0  2  0  0  0  0  0  0
  191.3520  174.7940  146.3240 C   0  0  1  0  0  3  0  0  0  0  0  0
  193.0850  175.9560  145.1740 C   0  0  2  0  0  0  0  0  0  0  0  0
  191.9810  175.0100  145.0250 N   0  0  0  0  0  2  0  0  0  0  0  0
  191.5820  176.2560  147.3720 S   0  0  0  0  0  0  0  0  0  0  0  0
  194.2760  175.3430  144.7840 O   0  0  0  0  0  1  0  0  0  0  0  0
  192.8320  177.1570  144.2850 C   0  0  0  0  0  1  0  0  0  0  0  0
  1  2  1  0  0  0  0
  1  3  2  0  0  0  0
  4 14  1  6  0  0  0
  4  7  1  0  0  0  0
  4  6  1  0  0  0  0
  5  2  1  0  0  0  0
  6 20  1  1  0  0  0
  6  1  1  0  0  0  0
  7  5  2  0  0  0  0
  8 10  1  0  0  0  0
  9  8  2  0  0  0  0
  9 13  1  0  0  0  0
 10 12  1  0  0  0  0
 10 14  2  0  0  0  0
 11 14  1  0  0  0  0
 13 11  2  0  0  0  0
 16 15  2  0  0  0  0
 17 13  1  0  0  0  0
 17 16  1  0  0  0  0
 18 16  1  0  0  0  0
 20 19  2  0  0  0  0
 21 19  1  0  0  0  0
 21 22  1  0  0  0  0
 22 23  1  1  0  0  0
 24 28  1  0  0  0  0
 25 22  1  6  0  0  0
 25 28  1  0  0  0  0
 26 30  1  6  0  0  0
 26 24  1  0  0  0  0
 27 26  1  0  0  0  0
 27 25  1  0  0  0  0
 29 26  1  0  0  0  0
M  END
>  <MODEL>
5

>  <REMARK>
 VINA RESULT:      -7.1      1.503      1.870
  Name = 
  6 active torsions:
  status: ('A' for Active; 'I' for Inactive)
    1  A    between atoms: C_1  and  C_4
    2  A    between atoms: C_4  and  C_27
    3  A    between atoms: C_5  and  C_22
    4  A    between atoms: C_8  and  C_27
    5  A    between atoms: N_16  and  C_25
    6  A    between atoms: C_19  and  C_29
                            x       y       z     vdW  Elec       q    Type
                         _______ _______ _______ _____ _____    ______ ____

>  <TORSDO>
F 6

$$$$
=
 OpenBabel11052417113D

 30 32  0  0  1  0  0  0  0  0999 V2000
  192.5140  174.5900  141.8170 C   0  0  0  0  0  0  0  0  0  0  0  0
  193.8000  175.2000  141.6880 N   0  0  0  0  0  0  0  0  0  0  0  0
  192.0680  173.8800  140.8760 O   0  0  0  0  0  0  0  0  0  0  0  0
  192.1210  176.0340  143.8330 C   0  0  2  0  0  3  0  0  0  0  0  0
  194.3440  175.9980  142.7430 C   0  0  0  0  0  3  0  0  0  0  0  0
  191.7550  174.7210  143.1170 C   0  0  1  0  0  3  0  0  0  0  0  0
  193.5900  176.3630  143.7780 C   0  0  0  0  0  2  0  0  0  0  0  0
  191.7430  175.2900  147.5530 C   0  0  0  0  0  3  0  0  0  0  0  0
  190.7010  176.1540  147.8980 C   0  0  0  0  0  3  0  0  0  0  0  0
  192.2090  175.2380  146.2370 C   0  0  0  0  0  0  0  0  0  0  0  0
  190.5780  176.9240  145.6130 C   0  0  0  0  0  3  0  0  0  0  0  0
  193.3260  174.3050  145.9100 C   0  0  0  0  0  1  0  0  0  0  0  0
  190.1130  176.9770  146.9290 C   0  0  0  0  0  0  0  0  0  0  0  0
  191.6240  176.0590  145.2530 C   0  0  0  0  0  0  0  0  0  0  0  0
  187.2140  176.4460  146.9370 O   0  0  0  0  0  0  0  0  0  0  0  0
  187.6430  177.5920  147.2360 C   0  0  0  0  0  0  0  0  0  0  0  0
  189.0470  177.8830  147.2470 N   0  0  0  0  0  2  0  0  0  0  0  0
  186.6770  178.6640  147.5870 C   0  0  0  0  0  1  0  0  0  0  0  0
  189.6640  175.5960  142.1610 C   0  0  0  0  0  3  0  0  0  0  0  0
  190.2730  174.6690  142.8950 C   0  0  0  0  0  3  0  0  0  0  0  0
  188.1910  175.5290  141.9490 C   0  0  0  0  0  2  0  0  0  0  0  0
  187.6170  176.9230  141.7200 C   0  0  2  0  0  3  0  0  0  0  0  0
  188.4890  177.8770  142.2440 O   0  0  0  0  0  1  0  0  0  0  0  0
  184.1450  178.3800  142.7820 C   0  0  0  0  0  2  0  0  0  0  0  0
  186.2240  177.1050  142.3330 C   0  0  1  0  0  3  0  0  0  0  0  0
  185.0930  178.4200  143.9660 C   0  0  2  0  0  0  0  0  0  0  0  0
  186.3140  177.6710  143.6750 N   0  0  0  0  0  2  0  0  0  0  0  0
  185.1370  178.1270  141.3030 S   0  0  0  0  0  0  0  0  0  0  0  0
  184.4630  177.8650  145.0800 O   0  0  0  0  0  1  0  0  0  0  0  0
  185.4550  179.8600  144.2690 C   0  0  0  0  0  1  0  0  0  0  0  0
  1  6  1  0  0  0  0
  2  1  1  0  0  0  0
  2  5  2  0  0  0  0
  3  1  2  0  0  0  0
  4 14  1  1  0  0  0
  5  7  1  0  0  0  0
  6 20  1  6  0  0  0
  6  4  1  0  0  0  0
  7  4  1  0  0  0  0
  8  9  1  0  0  0  0
 10  8  2  0  0  0  0
 11 13  1  0  0  0  0
 12 10  1  0  0  0  0
 13 17  1  0  0  0  0
 13  9  2  0  0  0  0
 14 11  2  0  0  0  0
 14 10  1  0  0  0  0
 15 16  2  0  0  0  0
 16 17  1  0  0  0  0
 16 18  1  0  0  0  0
 19 20  2  0  0  0  0
 21 19  1  0  0  0  0
 22 21  1  0  0  0  0
 22 23  1  1  0  0  0
 24 26  1  0  0  0  0
 25 22  1  6  0  0  0
 25 27  1  0  0  0  0
 26 30  1  1  0  0  0
 26 29  1  0  0  0  0
 27 26  1  0  0  0  0
 28 25  1  0  0  0  0
 28 24  1  0  0  0  0
M  END
>  <MODEL>
6

>  <REMARK>
 VINA RESULT:      -7.0      2.954      7.735
  Name = 
  6 active torsions:
  status: ('A' for Active; 'I' for Inactive)
    1  A    between atoms: C_1  and  C_4
    2  A    between atoms: C_4  and  C_27
    3  A    between atoms: C_5  and  C_22
    4  A    between atoms: C_8  and  C_27
    5  A    between atoms: N_16  and  C_25
    6  A    between atoms: C_19  and  C_29
                            x       y       z     vdW  Elec       q    Type
                         _______ _______ _______ _____ _____    ______ ____

>  <TORSDO>
F 6

$$$$
=
 OpenBabel11052417113D

 30 32  0  0  1  0  0  0  0  0999 V2000
  184.9180  177.6260  142.1650 C   0  0  0  0  0  0  0  0  0  0  0  0
  184.8170  178.2250  140.8710 N   0  0  0  0  0  2  0  0  0  0  0  0
  183.9590  177.7390  142.9750 O   0  0  0  0  0  0  0  0  0  0  0  0
  187.3600  177.2550  141.7160 C   0  0  2  0  0  3  0  0  0  0  0  0
  185.8800  178.1020  139.9200 C   0  0  0  0  0  3  0  0  0  0  0  0
  186.1250  176.7820  142.5030 C   0  0  1  0  0  3  0  0  0  0  0  0
  187.0630  177.6090  140.2820 C   0  0  0  0  0  3  0  0  0  0  0  0
  190.6910  175.6210  142.5940 C   0  0  0  0  0  3  0  0  0  0  0  0
  190.5640  174.3860  141.9540 C   0  0  0  0  0  3  0  0  0  0  0  0
  189.6610  176.5620  142.5200 C   0  0  0  0  0  0  0  0  0  0  0  0
  188.3740  175.0200  141.1570 C   0  0  0  0  0  3  0  0  0  0  0  0
  189.8330  177.8670  143.2220 C   0  0  0  0  0  1  0  0  0  0  0  0
  189.4040  174.0780  141.2310 C   0  0  0  0  0  0  0  0  0  0  0  0
  188.4910  176.2650  141.7950 C   0  0  0  0  0  0  0  0  0  0  0  0
  190.2060  173.3400  138.4940 O   0  0  0  0  0  0  0  0  0  0  0  0
  189.6320  172.4930  139.2300 C   0  0  0  0  0  0  0  0  0  0  0  0
  189.2340  172.8180  140.5680 N   0  0  0  0  0  2  0  0  0  0  0  0
  189.3660  171.1300  138.7030 C   0  0  0  0  0  1  0  0  0  0  0  0
  186.7130  177.9660  144.5780 C   0  0  0  0  0  3  0  0  0  0  0  0
  186.4240  176.8180  143.9730 C   0  0  0  0  0  3  0  0  0  0  0  0
  187.0070  177.9850  146.0390 C   0  0  0  0  0  2  0  0  0  0  0  0
  187.2200  176.5690  146.5620 C   0  0  2  0  0  3  0  0  0  0  0  0
  186.9170  176.5250  147.9220 O   0  0  0  0  0  1  0  0  0  0  0  0
  190.7720  175.0110  147.0640 C   0  0  0  0  0  2  0  0  0  0  0  0
  188.6450  176.0540  146.3340 C   0  0  1  0  0  3  0  0  0  0  0  0
  190.8920  176.5200  146.9740 C   0  0  2  0  0  0  0  0  0  0  0  0
  189.6240  177.1130  146.5520 N   0  0  0  0  0  2  0  0  0  0  0  0
  189.0430  174.6210  147.3710 S   0  0  0  0  0  0  0  0  0  0  0  0
  191.8870  176.8500  146.0550 O   0  0  0  0  0  1  0  0  0  0  0  0
  191.2710  177.0740  148.3330 C   0  0  0  0  0  1  0  0  0  0  0  0
  1  6  1  0  0  0  0
  1  3  2  0  0  0  0
  2  1  1  0  0  0  0
  4 14  1  6  0  0  0
  4  6  1  0  0  0  0
  5  7  2  0  0  0  0
  5  2  1  0  0  0  0
  6 20  1  1  0  0  0
  7  4  1  0  0  0  0
  9  8  2  0  0  0  0
 10  8  1  0  0  0  0
 10 12  1  0  0  0  0
 11 13  2  0  0  0  0
 11 14  1  0  0  0  0
 13  9  1  0  0  0  0
 14 10  2  0  0  0  0
 15 16  2  0  0  0  0
 16 17  1  0  0  0  0
 17 13  1  0  0  0  0
 18 16  1  0  0  0  0
 19 21  1  0  0  0  0
 20 19  2  0  0  0  0
 21 22  1  0  0  0  0
 22 23  1  1  0  0  0
 24 28  1  0  0  0  0
 25 27  1  0  0  0  0
 25 22  1  1  0  0  0
 25 28  1  0  0  0  0
 26 24  1  0  0  0  0
 26 30  1  1  0  0  0
 27 26  1  0  0  0  0
 29 26  1  0  0  0  0
M  END
>  <MODEL>
7

>  <REMARK>
 VINA RESULT:      -7.0      2.742      5.740
  Name = 
  6 active torsions:
  status: ('A' for Active; 'I' for Inactive)
    1  A    between atoms: C_1  and  C_4
    2  A    between atoms: C_4  and  C_27
    3  A    between atoms: C_5  and  C_22
    4  A    between atoms: C_8  and  C_27
    5  A    between atoms: N_16  and  C_25
    6  A    between atoms: C_19  and  C_29
                            x       y       z     vdW  Elec       q    Type
                         _______ _______ _______ _____ _____    ______ ____

>  <TORSDO>
F 6

$$$$
=
 OpenBabel11052417113D

 30 32  0  0  1  0  0  0  0  0999 V2000
  185.3020  177.5020  145.1010 C   0  0  0  0  0  0  0  0  0  0  0  0
  184.5250  178.0970  144.0580 N   0  0  0  0  0  2  0  0  0  0  0  0
  184.8340  177.4570  146.2700 O   0  0  0  0  0  0  0  0  0  0  0  0
  187.2650  177.5140  143.5360 C   0  0  2  0  0  3  0  0  0  0  0  0
  185.0170  178.1510  142.7150 C   0  0  0  0  0  3  0  0  0  0  0  0
  186.6210  176.8470  144.7650 C   0  0  1  0  0  3  0  0  0  0  0  0
  186.2820  177.8390  142.4410 C   0  0  0  0  0  3  0  0  0  0  0  0
  190.7980  176.3200  142.7420 C   0  0  0  0  0  3  0  0  0  0  0  0
  190.5340  175.1630  142.0070 C   0  0  0  0  0  3  0  0  0  0  0  0
  189.7460  177.0950  143.2400 C   0  0  0  0  0  0  0  0  0  0  0  0
  188.1620  175.5410  142.2560 C   0  0  0  0  0  3  0  0  0  0  0  0
  190.0700  178.3210  144.0240 C   0  0  0  0  0  1  0  0  0  0  0  0
  189.2130  174.7660  141.7590 C   0  0  0  0  0  0  0  0  0  0  0  0
  188.4140  176.7070  142.9960 C   0  0  0  0  0  0  0  0  0  0  0  0
  188.4980  174.5390  138.9100 O   0  0  0  0  0  0  0  0  0  0  0  0
  188.5530  173.5050  139.6280 C   0  0  0  0  0  0  0  0  0  0  0  0
  188.9030  173.5790  141.0150 N   0  0  0  0  0  2  0  0  0  0  0  0
  188.2530  172.1820  139.0240 C   0  0  0  0  0  1  0  0  0  0  0  0
  188.2990  175.8470  146.2610 C   0  0  0  0  0  3  0  0  0  0  0  0
  187.5730  176.9080  145.9230 C   0  0  0  0  0  3  0  0  0  0  0  0
  189.2410  175.9250  147.4130 C   0  0  0  0  0  2  0  0  0  0  0  0
  190.3930  174.9440  147.2330 C   0  0  2  0  0  3  0  0  0  0  0  0
  191.1710  174.9210  148.3900 O   0  0  0  0  0  1  0  0  0  0  0  0
  193.2690  174.9630  144.5810 C   0  0  0  0  0  2  0  0  0  0  0  0
  191.2760  175.2710  146.0240 C   0  0  1  0  0  3  0  0  0  0  0  0
  193.4260  176.1570  145.5050 C   0  0  2  0  0  0  0  0  0  0  0  0
  192.2440  176.3120  146.3510 N   0  0  0  0  0  2  0  0  0  0  0  0
  192.1330  173.8130  145.3700 S   0  0  0  0  0  0  0  0  0  0  0  0
  193.6040  177.3100  144.7420 O   0  0  0  0  0  1  0  0  0  0  0  0
  194.6430  175.9520  146.3840 C   0  0  0  0  0  1  0  0  0  0  0  0
  1  3  2  0  0  0  0
  2  1  1  0  0  0  0
  4 14  1  6  0  0  0
  4  6  1  0  0  0  0
  5  2  1  0  0  0  0
  6  1  1  0  0  0  0
  6 20  1  1  0  0  0
  7  5  2  0  0  0  0
  7  4  1  0  0  0  0
  8 10  1  0  0  0  0
  9  8  2  0  0  0  0
 10 12  1  0  0  0  0
 11 14  1  0  0  0  0
 13  9  1  0  0  0  0
 13 11  2  0  0  0  0
 14 10  2  0  0  0  0
 15 16  2  0  0  0  0
 16 17  1  0  0  0  0
 17 13  1  0  0  0  0
 18 16  1  0  0  0  0
 19 21  1  0  0  0  0
 20 19  2  0  0  0  0
 22 21  1  0  0  0  0
 22 23  1  1  0  0  0
 24 28  1  0  0  0  0
 24 26  1  0  0  0  0
 25 27  1  0  0  0  0
 25 22  1  1  0  0  0
 26 27  1  0  0  0  0
 26 30  1  1  0  0  0
 28 25  1  0  0  0  0
 29 26  1  0  0  0  0
M  END
>  <MODEL>
8

>  <REMARK>
 VINA RESULT:      -7.0      2.564      4.783
  Name = 
  6 active torsions:
  status: ('A' for Active; 'I' for Inactive)
    1  A    between atoms: C_1  and  C_4
    2  A    between atoms: C_4  and  C_27
    3  A    between atoms: C_5  and  C_22
    4  A    between atoms: C_8  and  C_27
    5  A    between atoms: N_16  and  C_25
    6  A    between atoms: C_19  and  C_29
                            x       y       z     vdW  Elec       q    Type
                         _______ _______ _______ _____ _____    ______ ____

>  <TORSDO>
F 6

$$$$
=
 OpenBabel11052417113D

 30 32  0  0  1  0  0  0  0  0999 V2000
  185.7570  177.9760  142.1830 C   0  0  0  0  0  0  0  0  0  0  0  0
  185.1980  179.1990  142.6680 N   0  0  0  0  0  0  0  0  0  0  0  0
  185.4070  177.5400  141.0540 O   0  0  0  0  0  0  0  0  0  0  0  0
  186.6730  177.5750  144.4860 C   0  0  2  0  0  3  0  0  0  0  0  0
  185.5870  179.7320  143.9380 C   0  0  0  0  0  3  0  0  0  0  0  0
  186.8340  177.2810  142.9830 C   0  0  1  0  0  3  0  0  0  0  0  0
  186.3150  179.0070  144.7860 C   0  0  0  0  0  2  0  0  0  0  0  0
  188.8890  176.1980  147.2670 C   0  0  0  0  0  3  0  0  0  0  0  0
  190.1570  176.3490  146.7020 C   0  0  0  0  0  3  0  0  0  0  0  0
  187.7510  176.5970  146.5600 C   0  0  0  0  0  0  0  0  0  0  0  0
  189.1650  177.3000  144.7170 C   0  0  0  0  0  3  0  0  0  0  0  0
  186.4140  176.4140  147.1960 C   0  0  0  0  0  1  0  0  0  0  0  0
  190.3030  176.9010  145.4230 C   0  0  0  0  0  0  0  0  0  0  0  0
  187.8850  177.1550  145.2740 C   0  0  0  0  0  0  0  0  0  0  0  0
  192.3880  174.8630  144.9930 O   0  0  0  0  0  0  0  0  0  0  0  0
  192.5830  176.0500  144.6190 C   0  0  0  0  0  0  0  0  0  0  0  0
  191.5890  177.0640  144.8080 N   0  0  0  0  0  2  0  0  0  0  0  0
  193.8690  176.4060  143.9650 C   0  0  0  0  0  1  0  0  0  0  0  0
  187.8400  175.1830  142.1840 C   0  0  0  0  0  3  0  0  0  0  0  0
  186.8110  175.7980  142.7590 C   0  0  0  0  0  3  0  0  0  0  0  0
  187.8020  173.7090  141.9700 C   0  0  0  0  0  2  0  0  0  0  0  0
  188.9570  173.0300  142.6980 C   0  0  2  0  0  3  0  0  0  0  0  0
  189.5110  173.9170  143.6200 O   0  0  0  0  0  1  0  0  0  0  0  0
  191.8470  172.8270  140.0700 C   0  0  0  0  0  2  0  0  0  0  0  0
  190.0480  172.5230  141.7490 C   0  0  1  0  0  3  0  0  0  0  0  0
  190.5460  172.3940  139.4220 C   0  0  2  0  0  0  0  0  0  0  0  0
  189.4980  172.2310  140.4290 N   0  0  0  0  0  2  0  0  0  0  0  0
  191.4350  173.6820  141.5980 S   0  0  0  0  0  0  0  0  0  0  0  0
  190.7410  171.1840  138.7570 O   0  0  0  0  0  1  0  0  0  0  0  0
  190.1110  173.4450  138.4200 C   0  0  0  0  0  1  0  0  0  0  0  0
  1  2  1  0  0  0  0
  1  6  1  0  0  0  0
  2  5  2  0  0  0  0
  3  1  2  0  0  0  0
  4  7  1  0  0  0  0
  4 14  1  1  0  0  0
  5  7  1  0  0  0  0
  6 20  1  1  0  0  0
  6  4  1  0  0  0  0
  9  8  1  0  0  0  0
 10 12  1  0  0  0  0
 10  8  2  0  0  0  0
 11 14  2  0  0  0  0
 11 13  1  0  0  0  0
 13  9  2  0  0  0  0
 14 10  1  0  0  0  0
 16 17  1  0  0  0  0
 16 15  2  0  0  0  0
 17 13  1  0  0  0  0
 18 16  1  0  0  0  0
 19 20  2  0  0  0  0
 21 19  1  0  0  0  0
 21 22  1  0  0  0  0
 22 23  1  1  0  0  0
 24 28  1  0  0  0  0
 25 22  1  1  0  0  0
 26 30  1  6  0  0  0
 26 24  1  0  0  0  0
 26 27  1  0  0  0  0
 27 25  1  0  0  0  0
 28 25  1  0  0  0  0
 29 26  1  0  0  0  0
M  END
>  <MODEL>
9

>  <REMARK>
 VINA RESULT:      -7.0      3.130      6.902
  Name = 
  6 active torsions:
  status: ('A' for Active; 'I' for Inactive)
    1  A    between atoms: C_1  and  C_4
    2  A    between atoms: C_4  and  C_27
    3  A    between atoms: C_5  and  C_22
    4  A    between atoms: C_8  and  C_27
    5  A    between atoms: N_16  and  C_25
    6  A    between atoms: C_19  and  C_29
                            x       y       z     vdW  Elec       q    Type
                         _______ _______ _______ _____ _____    ______ ____

>  <TORSDO>
F 6

$$$$
