=
 OpenBabel11052418423D

 34 38  0  0  1  0  0  0  0  0999 V2000
  188.2180  176.0880  146.2560 C   0  0  0  0  0  0  0  0  0  0  0  0
  187.6770  177.0870  143.9860 C   0  0  0  0  0  0  0  0  0  0  0  0
  194.6980  174.4130  141.7240 S   0  0  0  0  0  1  0  0  0  0  0  0
  189.0200  175.0510  144.1380 C   0  0  0  0  0  0  0  0  0  0  0  0
  189.5920  172.5930  142.1600 C   0  0  0  0  0  2  0  0  0  0  0  0
  190.6710  176.3760  147.2960 Cl  0  0  0  0  0  0  0  0  0  0  0  0
  193.7240  173.1200  144.5590 C   0  0  0  0  0  0  0  0  0  0  0  0
  194.1590  171.8880  144.0580 C   0  0  0  0  0  3  0  0  0  0  0  0
  186.9040  178.2210  144.5690 C   0  0  0  0  0  1  0  0  0  0  0  0
  188.5510  176.0670  142.0200 N   0  0  0  0  0  0  0  0  0  0  0  0
  195.0540  176.3840  143.3680 F   0  0  0  0  0  0  0  0  0  0  0  0
  191.4290  172.3220  144.5500 C   0  0  0  0  0  0  0  0  0  0  0  0
  192.0070  175.5010  142.1170 O   0  0  0  0  0  0  0  0  0  0  0  0
  194.2450  175.2650  143.2770 C   0  0  2  0  0  0  0  0  0  0  0  0
  188.2870  176.0860  144.7710 C   0  0  0  0  0  0  0  0  0  0  0  0
  193.2330  170.8580  143.8420 C   0  0  0  0  0  3  0  0  0  0  0  0
  191.4970  174.2000  142.2260 C   0  0  0  0  0  2  0  0  0  0  0  0
  190.0010  174.0700  141.9330 C   0  0  1  0  0  0  0  0  0  0  0  0
  187.3310  176.7320  146.8760 O   0  0  0  0  0  0  0  0  0  0  0  0
  189.6090  173.9730  144.9800 C   0  0  0  0  0  0  0  0  0  0  0  0
  192.3810  173.2930  144.8650 C   0  0  0  0  0  3  0  0  0  0  0  0
  189.2490  175.3360  147.0360 C   0  0  2  0  0  3  0  0  0  0  0  0
  187.8260  177.0490  142.6060 C   0  0  0  0  0  3  0  0  0  0  0  0
  189.2400  172.1640  143.4670 O   0  0  0  0  0  0  0  0  0  0  0  0
  191.8650  171.0880  144.0470 C   0  0  0  0  0  3  0  0  0  0  0  0
  190.0640  172.7580  144.3740 N   0  0  0  0  0  0  0  0  0  0  0  0
  189.8370  174.3160  140.5680 O   0  0  0  0  0  1  0  0  0  0  0  0
  194.5850  174.3480  144.4820 C   0  0  0  0  0  2  0  0  0  0  0  0
  189.1540  175.0680  142.7220 C   0  0  0  0  0  0  0  0  0  0  0  0
  189.6700  174.0930  146.3130 C   0  0  0  0  0  3  0  0  0  0  0  0
  192.7380  175.6970  143.3050 C   0  0  1  0  0  3  0  0  0  0  0  0
  192.4550  177.0600  143.9390 C   0  0  0  0  0  2  0  0  0  0  0  0
  191.4570  177.8790  143.1320 C   0  0  0  0  0  2  0  0  0  0  0  0
  190.6740  178.6560  143.9850 O   0  0  0  0  0  1  0  0  0  0  0  0
  1 19  2  0  0  0  0
  1 22  1  0  0  0  0
  2  9  1  0  0  0  0
  2 15  1  0  0  0  0
  4 15  2  0  0  0  0
  4 20  1  0  0  0  0
  5 24  1  0  0  0  0
  7 21  1  0  0  0  0
  8  7  2  0  0  0  0
 10 23  1  0  0  0  0
 10 29  2  0  0  0  0
 12 21  2  0  0  0  0
 13 17  1  0  0  0  0
 13 31  1  0  0  0  0
 14  3  1  6  0  0  0
 14 31  1  0  0  0  0
 14 11  1  0  0  0  0
 14 28  1  0  0  0  0
 15  1  1  0  0  0  0
 16 25  2  0  0  0  0
 16  8  1  0  0  0  0
 18 27  1  6  0  0  0
 18  5  1  0  0  0  0
 18 17  1  0  0  0  0
 18 29  1  0  0  0  0
 20 30  2  0  0  0  0
 22  6  1  6  0  0  0
 23  2  2  0  0  0  0
 24 26  1  0  0  0  0
 25 12  1  0  0  0  0
 26 12  1  0  0  0  0
 26 20  1  0  0  0  0
 28  7  1  0  0  0  0
 29  4  1  0  0  0  0
 30 22  1  0  0  0  0
 31 32  1  6  0  0  0
 33 32  1  0  0  0  0
 33 34  1  0  0  0  0
M  END
>  <MODEL>
1

>  <REMARK>
 VINA RESULT:      -7.9      0.000      0.000
  Name = 
  2 active torsions:
  status: ('A' for Active; 'I' for Inactive)
    1  A    between atoms: C_20  and  C_22
    2  A    between atoms: C_20  and  C_34
                            x       y       z     vdW  Elec       q    Type
                         _______ _______ _______ _____ _____    ______ ____

>  <TORSDO>
F 2

$$$$
=
 OpenBabel11052418423D

 34 38  0  0  1  0  0  0  0  0999 V2000
  187.3710  178.1410  143.0810 C   0  0  0  0  0  0  0  0  0  0  0  0
  186.6410  177.1510  145.3020 C   0  0  0  0  0  0  0  0  0  0  0  0
  191.9300  171.5200  143.9250 S   0  0  0  0  0  1  0  0  0  0  0  0
  188.9610  176.9290  144.5660 C   0  0  0  0  0  0  0  0  0  0  0  0
  191.7580  176.5120  146.0770 C   0  0  0  0  0  2  0  0  0  0  0  0
  187.7840  176.5420  140.9720 Cl  0  0  0  0  0  0  0  0  0  0  0  0
  192.3080  174.0970  141.9570 C   0  0  0  0  0  0  0  0  0  0  0  0
  193.6800  173.9940  142.2140 C   0  0  0  0  0  3  0  0  0  0  0  0
  185.2290  177.5990  145.1410 C   0  0  0  0  0  1  0  0  0  0  0  0
  188.2150  175.9430  146.6180 N   0  0  0  0  0  0  0  0  0  0  0  0
  189.9610  171.2290  142.2660 F   0  0  0  0  0  0  0  0  0  0  0  0
  192.2480  176.2400  143.1030 C   0  0  0  0  0  0  0  0  0  0  0  0
  189.9240  173.4370  144.8650 O   0  0  0  0  0  0  0  0  0  0  0  0
  190.7260  172.2670  142.7690 C   0  0  2  0  0  0  0  0  0  0  0  0
  187.6450  177.4070  144.3450 C   0  0  0  0  0  0  0  0  0  0  0  0
  194.3450  175.0340  142.8800 C   0  0  0  0  0  3  0  0  0  0  0  0
  190.9280  174.3970  145.0510 C   0  0  0  0  0  2  0  0  0  0  0  0
  190.5760  175.5110  146.0380 C   0  0  1  0  0  0  0  0  0  0  0  0
  186.3640  178.8870  142.9550 O   0  0  0  0  0  0  0  0  0  0  0  0
  190.0200  177.2580  143.5720 C   0  0  0  0  0  0  0  0  0  0  0  0
  191.6300  175.2470  142.3390 C   0  0  0  0  0  3  0  0  0  0  0  0
  188.2930  177.9630  141.9180 C   0  0  2  0  0  3  0  0  0  0  0  0
  186.9590  176.4130  146.4350 C   0  0  0  0  0  3  0  0  0  0  0  0
  191.8130  177.5580  145.1180 O   0  0  0  0  0  0  0  0  0  0  0  0
  193.6220  176.1350  143.3610 C   0  0  0  0  0  3  0  0  0  0  0  0
  191.4000  177.0840  143.9100 N   0  0  0  0  0  0  0  0  0  0  0  0
  190.5210  174.9220  147.3040 O   0  0  0  0  0  1  0  0  0  0  0  0
  191.4890  172.8990  141.5740 C   0  0  0  0  0  2  0  0  0  0  0  0
  189.2290  176.1670  145.7370 C   0  0  0  0  0  0  0  0  0  0  0  0
  189.7060  177.7730  142.3750 C   0  0  0  0  0  3  0  0  0  0  0  0
  189.7990  173.3200  143.4670 C   0  0  1  0  0  3  0  0  0  0  0  0
  188.3360  173.3120  143.0170 C   0  0  0  0  0  2  0  0  0  0  0  0
  188.1620  173.8370  141.5990 C   0  0  0  0  0  2  0  0  0  0  0  0
  187.8440  172.7890  140.7360 O   0  0  0  0  0  1  0  0  0  0  0  0
  1 15  1  0  0  0  0
  2 23  1  0  0  0  0
  4 29  2  0  0  0  0
  7  8  2  0  0  0  0
  7 21  1  0  0  0  0
  8 16  1  0  0  0  0
  9  2  1  0  0  0  0
 12 25  1  0  0  0  0
 12 26  1  0  0  0  0
 13 17  1  0  0  0  0
 14 11  1  6  0  0  0
 14 31  1  0  0  0  0
 14  3  1  0  0  0  0
 15  4  1  0  0  0  0
 15  2  2  0  0  0  0
 16 25  2  0  0  0  0
 17 18  1  0  0  0  0
 18  5  1  0  0  0  0
 18 27  1  1  0  0  0
 19  1  2  0  0  0  0
 20 26  1  0  0  0  0
 20  4  1  0  0  0  0
 21 12  2  0  0  0  0
 22  6  1  1  0  0  0
 22 30  1  0  0  0  0
 22  1  1  0  0  0  0
 23 10  2  0  0  0  0
 24  5  1  0  0  0  0
 26 24  1  0  0  0  0
 28  7  1  0  0  0  0
 28 14  1  0  0  0  0
 29 18  1  0  0  0  0
 29 10  1  0  0  0  0
 30 20  2  0  0  0  0
 31 32  1  1  0  0  0
 31 13  1  0  0  0  0
 33 32  1  0  0  0  0
 34 33  1  0  0  0  0
M  END
>  <MODEL>
2

>  <REMARK>
 VINA RESULT:      -7.1      2.787      4.681
  Name = 
  2 active torsions:
  status: ('A' for Active; 'I' for Inactive)
    1  A    between atoms: C_20  and  C_22
    2  A    between atoms: C_20  and  C_34
                            x       y       z     vdW  Elec       q    Type
                         _______ _______ _______ _____ _____    ______ ____

>  <TORSDO>
F 2

$$$$
=
 OpenBabel11052418423D

 34 38  0  0  1  0  0  0  0  0999 V2000
  191.5750  172.5340  144.2570 C   0  0  0  0  0  0  0  0  0  0  0  0
  193.0850  174.0860  142.9310 C   0  0  0  0  0  0  0  0  0  0  0  0
  186.8050  178.7370  142.2330 S   0  0  0  0  0  1  0  0  0  0  0  0
  191.3010  175.0090  144.3220 C   0  0  0  0  0  0  0  0  0  0  0  0
  190.8280  177.8270  145.7780 C   0  0  0  0  0  2  0  0  0  0  0  0
  189.0740  172.0620  143.4220 Cl  0  0  0  0  0  0  0  0  0  0  0  0
  186.4050  176.4340  144.5100 C   0  0  0  0  0  0  0  0  0  0  0  0
  185.8680  177.4390  145.3230 C   0  0  0  0  0  3  0  0  0  0  0  0
  193.8760  172.9640  142.3480 C   0  0  0  0  0  1  0  0  0  0  0  0
  192.6980  176.4330  142.9960 N   0  0  0  0  0  0  0  0  0  0  0  0
  186.4270  176.6150  140.7960 F   0  0  0  0  0  0  0  0  0  0  0  0
  188.2870  176.2010  146.0300 C   0  0  0  0  0  0  0  0  0  0  0  0
  189.3890  177.3580  142.3140 O   0  0  0  0  0  0  0  0  0  0  0  0
  186.9080  176.9210  142.0560 C   0  0  2  0  0  0  0  0  0  0  0  0
  192.0140  173.8880  143.8270 C   0  0  0  0  0  0  0  0  0  0  0  0
  186.5200  177.7970  146.5110 C   0  0  0  0  0  3  0  0  0  0  0  0
  189.4850  177.6190  143.6880 C   0  0  0  0  0  2  0  0  0  0  0  0
  190.9080  177.5830  144.2500 C   0  0  1  0  0  0  0  0  0  0  0  0
  192.3330  171.5330  144.1630 O   0  0  0  0  0  0  0  0  0  0  0  0
  190.2100  174.7840  145.3110 C   0  0  0  0  0  0  0  0  0  0  0  0
  187.5630  175.7820  144.9120 C   0  0  0  0  0  3  0  0  0  0  0  0
  190.1880  172.3480  144.7820 C   0  0  2  0  0  3  0  0  0  0  0  0
  193.4050  175.3760  142.5330 C   0  0  0  0  0  3  0  0  0  0  0  0
  190.5970  176.7260  146.6440 O   0  0  0  0  0  0  0  0  0  0  0  0
  187.7500  177.2100  146.8430 C   0  0  0  0  0  3  0  0  0  0  0  0
  189.6950  175.8820  146.0720 N   0  0  0  0  0  0  0  0  0  0  0  0
  191.5790  178.6840  143.7130 O   0  0  0  0  0  1  0  0  0  0  0  0
  185.9610  176.2520  143.0880 C   0  0  0  0  0  2  0  0  0  0  0  0
  191.6620  176.3090  143.8720 C   0  0  0  0  0  0  0  0  0  0  0  0
  189.7360  173.5540  145.5470 C   0  0  0  0  0  3  0  0  0  0  0  0
  188.3740  176.3860  142.2070 C   0  0  1  0  0  3  0  0  0  0  0  0
  188.7620  175.2490  141.2610 C   0  0  0  0  0  2  0  0  0  0  0  0
  187.9330  173.9930  141.4920 C   0  0  0  0  0  2  0  0  0  0  0  0
  188.0690  173.1240  140.4100 O   0  0  0  0  0  1  0  0  0  0  0  0
  1 22  1  0  0  0  0
  2 15  1  0  0  0  0
  4 20  1  0  0  0  0
  5 24  1  0  0  0  0
  7 21  2  0  0  0  0
  7  8  1  0  0  0  0
  8 16  2  0  0  0  0
  9  2  1  0  0  0  0
 10 29  2  0  0  0  0
 12 26  1  0  0  0  0
 12 25  2  0  0  0  0
 13 17  1  0  0  0  0
 14 11  1  6  0  0  0
 14 31  1  0  0  0  0
 14  3  1  0  0  0  0
 14 28  1  0  0  0  0
 15  1  1  0  0  0  0
 15  4  2  0  0  0  0
 16 25  1  0  0  0  0
 17 18  1  0  0  0  0
 18 27  1  6  0  0  0
 18  5  1  0  0  0  0
 19  1  2  0  0  0  0
 20 30  2  0  0  0  0
 20 26  1  0  0  0  0
 21 12  1  0  0  0  0
 22  6  1  6  0  0  0
 22 30  1  0  0  0  0
 23  2  2  0  0  0  0
 23 10  1  0  0  0  0
 26 24  1  0  0  0  0
 28  7  1  0  0  0  0
 29 18  1  0  0  0  0
 29  4  1  0  0  0  0
 31 32  1  6  0  0  0
 31 13  1  0  0  0  0
 32 33  1  0  0  0  0
 34 33  1  0  0  0  0
M  END
>  <MODEL>
3

>  <REMARK>
 VINA RESULT:      -6.7      3.071      6.240
  Name = 
  2 active torsions:
  status: ('A' for Active; 'I' for Inactive)
    1  A    between atoms: C_20  and  C_22
    2  A    between atoms: C_20  and  C_34
                            x       y       z     vdW  Elec       q    Type
                         _______ _______ _______ _____ _____    ______ ____

>  <TORSDO>
F 2

$$$$
=
 OpenBabel11052418423D

 34 38  0  0  1  0  0  0  0  0999 V2000
  194.4190  173.7200  141.8100 C   0  0  0  0  0  0  0  0  0  0  0  0
  194.2820  172.0130  143.6850 C   0  0  0  0  0  0  0  0  0  0  0  0
  188.2680  176.2600  146.3990 S   0  0  0  0  0  1  0  0  0  0  0  0
  192.2490  173.0860  142.8550 C   0  0  0  0  0  0  0  0  0  0  0  0
  189.1480  172.2700  142.8090 C   0  0  0  0  0  2  0  0  0  0  0  0
  194.1640  176.3310  142.3540 Cl  0  0  0  0  0  0  0  0  0  0  0  0
  189.0710  177.0480  143.3350 C   0  0  0  0  0  0  0  0  0  0  0  0
  187.6990  177.0450  143.0560 C   0  0  0  0  0  3  0  0  0  0  0  0
  195.7550  171.7850  143.7050 C   0  0  0  0  0  1  0  0  0  0  0  0
  192.1720  171.5270  144.6730 N   0  0  0  0  0  0  0  0  0  0  0  0
  190.4540  177.6080  146.7410 F   0  0  0  0  0  0  0  0  0  0  0  0
  189.3800  175.1370  141.8650 C   0  0  0  0  0  0  0  0  0  0  0  0
  190.3870  174.3600  145.7050 O   0  0  0  0  0  0  0  0  0  0  0  0
  189.8760  176.8390  145.7470 C   0  0  2  0  0  0  0  0  0  0  0  0
  193.6550  172.9120  142.7970 C   0  0  0  0  0  0  0  0  0  0  0  0
  187.1740  176.1130  142.1510 C   0  0  0  0  0  3  0  0  0  0  0  0
  189.6470  173.9410  144.5910 C   0  0  0  0  0  2  0  0  0  0  0  0
  190.0070  172.5480  144.0680 C   0  0  1  0  0  0  0  0  0  0  0  0
  195.5790  173.3940  141.4460 O   0  0  0  0  0  0  0  0  0  0  0  0
  191.5980  173.9960  141.8730 C   0  0  0  0  0  0  0  0  0  0  0  0
  189.8980  176.1440  142.6810 C   0  0  0  0  0  3  0  0  0  0  0  0
  193.8090  174.9700  141.2610 C   0  0  2  0  0  3  0  0  0  0  0  0
  193.5100  171.3310  144.6150 C   0  0  0  0  0  3  0  0  0  0  0  0
  189.6070  172.7220  141.5430 O   0  0  0  0  0  0  0  0  0  0  0  0
  188.0050  175.1330  141.5880 C   0  0  0  0  0  3  0  0  0  0  0  0
  190.1800  173.9490  141.6830 N   0  0  0  0  0  0  0  0  0  0  0  0
  189.5860  171.6350  145.0380 O   0  0  0  0  0  1  0  0  0  0  0  0
  189.6290  177.7680  144.5290 C   0  0  0  0  0  2  0  0  0  0  0  0
  191.5070  172.3720  143.8370 C   0  0  0  0  0  0  0  0  0  0  0  0
  192.3260  174.8260  141.1140 C   0  0  0  0  0  3  0  0  0  0  0  0
  190.8310  175.6550  145.3700 C   0  0  1  0  0  3  0  0  0  0  0  0
  192.3070  175.8640  145.7100 C   0  0  0  0  0  2  0  0  0  0  0  0
  192.9480  174.6190  146.3060 C   0  0  0  0  0  2  0  0  0  0  0  0
  194.2990  174.5650  145.9630 O   0  0  0  0  0  1  0  0  0  0  0  0
  1 15  1  0  0  0  0
  2  9  1  0  0  0  0
  2 23  1  0  0  0  0
  4 29  2  0  0  0  0
  5 18  1  0  0  0  0
  7 28  1  0  0  0  0
  8  7  1  0  0  0  0
 12 21  1  0  0  0  0
 14  3  1  1  0  0  0
 14 11  1  0  0  0  0
 15  4  1  0  0  0  0
 15  2  2  0  0  0  0
 16  8  2  0  0  0  0
 17 13  1  0  0  0  0
 18 17  1  0  0  0  0
 18 27  1  1  0  0  0
 19  1  2  0  0  0  0
 20  4  1  0  0  0  0
 21  7  2  0  0  0  0
 22  1  1  0  0  0  0
 22  6  1  1  0  0  0
 23 10  2  0  0  0  0
 24 26  1  0  0  0  0
 24  5  1  0  0  0  0
 25 12  2  0  0  0  0
 25 16  1  0  0  0  0
 26 12  1  0  0  0  0
 26 20  1  0  0  0  0
 28 14  1  0  0  0  0
 29 18  1  0  0  0  0
 29 10  1  0  0  0  0
 30 22  1  0  0  0  0
 30 20  2  0  0  0  0
 31 13  1  0  0  0  0
 31 32  1  1  0  0  0
 31 14  1  0  0  0  0
 32 33  1  0  0  0  0
 34 33  1  0  0  0  0
M  END
>  <MODEL>
4

>  <REMARK>
 VINA RESULT:      -6.7      2.806      6.045
  Name = 
  2 active torsions:
  status: ('A' for Active; 'I' for Inactive)
    1  A    between atoms: C_20  and  C_22
    2  A    between atoms: C_20  and  C_34
                            x       y       z     vdW  Elec       q    Type
                         _______ _______ _______ _____ _____    ______ ____

>  <TORSDO>
F 2

$$$$
=
 OpenBabel11052418423D

 34 38  0  0  1  0  0  0  0  0999 V2000
  188.5180  177.5790  144.3250 C   0  0  0  0  0  0  0  0  0  0  0  0
  188.5130  176.1410  146.4170 C   0  0  0  0  0  0  0  0  0  0  0  0
  193.6790  171.5860  142.6580 S   0  0  0  0  0  1  0  0  0  0  0  0
  190.5510  176.3600  145.0870 C   0  0  0  0  0  0  0  0  0  0  0  0
  193.6810  176.0770  145.7260 C   0  0  0  0  0  2  0  0  0  0  0  0
  188.4710  176.4270  141.9070 Cl  0  0  0  0  0  0  0  0  0  0  0  0
  193.2830  174.4840  141.2080 C   0  0  0  0  0  0  0  0  0  0  0  0
  194.6760  174.5250  141.0830 C   0  0  0  0  0  3  0  0  0  0  0  0
  187.0770  176.4160  146.7110 C   0  0  0  0  0  1  0  0  0  0  0  0
  190.4840  174.9530  147.0250 N   0  0  0  0  0  0  0  0  0  0  0  0
  191.3620  171.3150  141.5300 F   0  0  0  0  0  0  0  0  0  0  0  0
  193.3570  176.3760  142.7320 C   0  0  0  0  0  0  0  0  0  0  0  0
  191.8530  173.0300  144.4370 O   0  0  0  0  0  0  0  0  0  0  0  0
  192.1450  172.3470  142.0160 C   0  0  2  0  0  0  0  0  0  0  0  0
  189.1890  176.6870  145.3060 C   0  0  0  0  0  0  0  0  0  0  0  0
  195.4060  175.5180  141.7500 C   0  0  0  0  0  3  0  0  0  0  0  0
  192.7840  174.0710  144.5470 C   0  0  0  0  0  2  0  0  0  0  0  0
  192.6230  174.9470  145.7920 C   0  0  1  0  0  0  0  0  0  0  0  0
  187.4560  178.1940  144.6090 O   0  0  0  0  0  0  0  0  0  0  0  0
  191.2650  176.9910  143.9430 C   0  0  0  0  0  0  0  0  0  0  0  0
  192.6400  175.4510  141.9690 C   0  0  0  0  0  3  0  0  0  0  0  0
  189.0970  177.7240  142.9540 C   0  0  2  0  0  3  0  0  0  0  0  0
  189.1900  175.2740  147.2630 C   0  0  0  0  0  3  0  0  0  0  0  0
  193.3810  177.2660  145.0110 O   0  0  0  0  0  0  0  0  0  0  0  0
  194.7530  176.4160  142.6070 C   0  0  0  0  0  3  0  0  0  0  0  0
  192.6940  176.9510  143.8780 N   0  0  0  0  0  0  0  0  0  0  0  0
  192.9680  174.1520  146.8880 O   0  0  0  0  0  1  0  0  0  0  0  0
  192.4940  173.2670  140.8160 C   0  0  0  0  0  2  0  0  0  0  0  0
  191.1940  175.4560  145.9780 C   0  0  0  0  0  0  0  0  0  0  0  0
  190.5920  177.6530  142.9910 C   0  0  0  0  0  3  0  0  0  0  0  0
  191.3590  173.1330  143.1210 C   0  0  1  0  0  3  0  0  0  0  0  0
  189.8360  173.0030  143.0650 C   0  0  0  0  0  2  0  0  0  0  0  0
  189.3160  171.8830  143.9540 C   0  0  0  0  0  2  0  0  0  0  0  0
  189.3160  172.2900  145.2880 O   0  0  0  0  0  1  0  0  0  0  0  0
  1 19  2  0  0  0  0
  1 15  1  0  0  0  0
  2  9  1  0  0  0  0
  2 23  1  0  0  0  0
  4 15  1  0  0  0  0
  4 29  2  0  0  0  0
  5 18  1  0  0  0  0
  7 21  1  0  0  0  0
  8  7  2  0  0  0  0
  8 16  1  0  0  0  0
 10 23  2  0  0  0  0
 12 26  1  0  0  0  0
 13 17  1  0  0  0  0
 14 11  1  6  0  0  0
 14  3  1  0  0  0  0
 14 31  1  0  0  0  0
 15  2  2  0  0  0  0
 16 25  2  0  0  0  0
 17 18  1  0  0  0  0
 18 29  1  0  0  0  0
 18 27  1  1  0  0  0
 20  4  1  0  0  0  0
 21 12  2  0  0  0  0
 22  6  1  6  0  0  0
 22 30  1  0  0  0  0
 22  1  1  0  0  0  0
 24  5  1  0  0  0  0
 25 12  1  0  0  0  0
 26 20  1  0  0  0  0
 26 24  1  0  0  0  0
 28  7  1  0  0  0  0
 28 14  1  0  0  0  0
 29 10  1  0  0  0  0
 30 20  2  0  0  0  0
 31 32  1  1  0  0  0
 31 13  1  0  0  0  0
 32 33  1  0  0  0  0
 33 34  1  0  0  0  0
M  END
>  <MODEL>
5

>  <REMARK>
 VINA RESULT:      -6.6      2.634      4.674
  Name = 
  2 active torsions:
  status: ('A' for Active; 'I' for Inactive)
    1  A    between atoms: C_20  and  C_22
    2  A    between atoms: C_20  and  C_34
                            x       y       z     vdW  Elec       q    Type
                         _______ _______ _______ _____ _____    ______ ____

>  <TORSDO>
F 2

$$$$
=
 OpenBabel11052418423D

 34 38  0  0  1  0  0  0  0  0999 V2000
  192.3130  175.7880  146.7180 C   0  0  0  0  0  0  0  0  0  0  0  0
  190.3790  174.4370  145.7790 C   0  0  0  0  0  0  0  0  0  0  0  0
  195.2000  172.6510  139.8510 S   0  0  0  0  0  1  0  0  0  0  0  0
  192.6800  173.6930  145.4220 C   0  0  0  0  0  0  0  0  0  0  0  0
  194.0490  170.8500  144.8520 C   0  0  0  0  0  2  0  0  0  0  0  0
  193.7990  177.3110  145.0890 Cl  0  0  0  0  0  0  0  0  0  0  0  0
  196.7780  173.9520  142.3940 C   0  0  0  0  0  0  0  0  0  0  0  0
  197.7370  172.9490  142.2140 C   0  0  0  0  0  3  0  0  0  0  0  0
  189.3490  175.3770  146.3070 C   0  0  0  0  0  1  0  0  0  0  0  0
  190.8310  172.4890  144.4880 N   0  0  0  0  0  0  0  0  0  0  0  0
  194.5530  175.1530  139.6660 F   0  0  0  0  0  0  0  0  0  0  0  0
  196.1660  172.9920  144.5410 C   0  0  0  0  0  0  0  0  0  0  0  0
  193.1170  172.9950  141.8820 O   0  0  0  0  0  0  0  0  0  0  0  0
  194.9330  174.2680  140.6600 C   0  0  2  0  0  0  0  0  0  0  0  0
  191.7640  174.6240  145.9740 C   0  0  0  0  0  0  0  0  0  0  0  0
  197.9380  171.9900  143.2170 C   0  0  0  0  0  3  0  0  0  0  0  0
  193.8710  172.2310  142.7840 C   0  0  0  0  0  2  0  0  0  0  0  0
  193.0640  171.5990  143.9210 C   0  0  1  0  0  0  0  0  0  0  0  0
  191.6050  176.4540  147.5200 O   0  0  0  0  0  0  0  0  0  0  0  0
  194.1340  173.8760  145.6870 C   0  0  0  0  0  0  0  0  0  0  0  0
  196.0610  174.0010  143.5820 C   0  0  0  0  0  3  0  0  0  0  0  0
  193.7300  176.2030  146.4820 C   0  0  2  0  0  3  0  0  0  0  0  0
  189.9420  173.3540  145.0290 C   0  0  0  0  0  3  0  0  0  0  0  0
  194.7030  171.5670  145.8890 O   0  0  0  0  0  0  0  0  0  0  0  0
  197.1250  171.9860  144.3600 C   0  0  0  0  0  3  0  0  0  0  0  0
  195.0480  172.8030  145.4360 N   0  0  0  0  0  0  0  0  0  0  0  0
  192.2540  170.6200  143.3410 O   0  0  0  0  0  1  0  0  0  0  0  0
  196.2780  174.7770  141.2430 C   0  0  0  0  0  2  0  0  0  0  0  0
  192.1780  172.6080  144.6510 C   0  0  0  0  0  0  0  0  0  0  0  0
  194.6010  175.0150  146.2150 C   0  0  0  0  0  3  0  0  0  0  0  0
  193.8240  174.2080  141.7670 C   0  0  1  0  0  3  0  0  0  0  0  0
  192.8990  175.4240  141.8410 C   0  0  0  0  0  2  0  0  0  0  0  0
  191.4390  175.0330  142.0210 C   0  0  0  0  0  2  0  0  0  0  0  0
  190.7550  176.0380  142.7030 O   0  0  0  0  0  1  0  0  0  0  0  0
  1 19  2  0  0  0  0
  2 15  1  0  0  0  0
  2  9  1  0  0  0  0
  3 14  1  0  0  0  0
  4 20  1  0  0  0  0
  4 15  2  0  0  0  0
  5 24  1  0  0  0  0
  7 21  1  0  0  0  0
  8  7  2  0  0  0  0
  8 16  1  0  0  0  0
 10 29  2  0  0  0  0
 10 23  1  0  0  0  0
 12 26  1  0  0  0  0
 13 17  1  0  0  0  0
 14 11  1  6  0  0  0
 14 28  1  0  0  0  0
 14 31  1  0  0  0  0
 15  1  1  0  0  0  0
 16 25  2  0  0  0  0
 17 18  1  0  0  0  0
 18 27  1  6  0  0  0
 18 29  1  0  0  0  0
 18  5  1  0  0  0  0
 20 30  2  0  0  0  0
 21 12  2  0  0  0  0
 22  6  1  6  0  0  0
 22  1  1  0  0  0  0
 23  2  2  0  0  0  0
 25 12  1  0  0  0  0
 26 20  1  0  0  0  0
 26 24  1  0  0  0  0
 28  7  1  0  0  0  0
 29  4  1  0  0  0  0
 30 22  1  0  0  0  0
 31 32  1  6  0  0  0
 31 13  1  0  0  0  0
 32 33  1  0  0  0  0
 33 34  1  0  0  0  0
M  END
>  <MODEL>
6

>  <REMARK>
 VINA RESULT:      -6.3      2.734      4.226
  Name = 
  2 active torsions:
  status: ('A' for Active; 'I' for Inactive)
    1  A    between atoms: C_20  and  C_22
    2  A    between atoms: C_20  and  C_34
                            x       y       z     vdW  Elec       q    Type
                         _______ _______ _______ _____ _____    ______ ____

>  <TORSDO>
F 2

$$$$
=
 OpenBabel11052418423D

 34 38  0  0  1  0  0  0  0  0999 V2000
  195.3360  170.7510  142.8140 C   0  0  0  0  0  0  0  0  0  0  0  0
  195.2120  171.9020  140.5540 C   0  0  0  0  0  0  0  0  0  0  0  0
  190.3290  176.9840  144.0040 S   0  0  0  0  0  1  0  0  0  0  0  0
  195.0560  173.2170  142.6080 C   0  0  0  0  0  0  0  0  0  0  0  0
  195.6830  176.2700  143.3640 C   0  0  0  0  0  2  0  0  0  0  0  0
  193.1110  170.4020  144.2640 Cl  0  0  0  0  0  0  0  0  0  0  0  0
  191.9410  175.1400  146.1620 C   0  0  0  0  0  0  0  0  0  0  0  0
  192.1480  176.3140  146.8940 C   0  0  0  0  0  3  0  0  0  0  0  0
  195.3500  170.6250  139.7960 C   0  0  0  0  0  1  0  0  0  0  0  0
  194.8670  174.2550  140.4570 N   0  0  0  0  0  0  0  0  0  0  0  0
  189.1230  174.7020  143.7740 F   0  0  0  0  0  0  0  0  0  0  0  0
  194.3290  174.9730  145.7400 C   0  0  0  0  0  0  0  0  0  0  0  0
  192.1490  175.3830  142.3570 O   0  0  0  0  0  0  0  0  0  0  0  0
  190.3730  175.1610  144.1480 C   0  0  2  0  0  0  0  0  0  0  0  0
  195.2110  171.9640  141.9640 C   0  0  0  0  0  0  0  0  0  0  0  0
  193.4510  176.7960  147.0840 C   0  0  0  0  0  3  0  0  0  0  0  0
  193.2380  175.8570  143.1010 C   0  0  0  0  0  2  0  0  0  0  0  0
  194.5890  175.7700  142.3870 C   0  0  1  0  0  0  0  0  0  0  0  0
  195.8170  169.6760  142.3660 O   0  0  0  0  0  0  0  0  0  0  0  0
  195.1140  173.2700  144.0950 C   0  0  0  0  0  0  0  0  0  0  0  0
  193.0360  174.4500  145.6600 C   0  0  0  0  0  3  0  0  0  0  0  0
  194.8480  170.7950  144.2260 C   0  0  2  0  0  3  0  0  0  0  0  0
  195.0390  173.0700  139.8250 C   0  0  0  0  0  3  0  0  0  0  0  0
  196.2590  175.3560  144.2850 O   0  0  0  0  0  0  0  0  0  0  0  0
  194.5360  176.1510  146.4720 C   0  0  0  0  0  3  0  0  0  0  0  0
  195.2910  174.5250  144.7610 N   0  0  0  0  0  0  0  0  0  0  0  0
  194.5480  176.6940  141.3400 O   0  0  0  0  0  1  0  0  0  0  0  0
  190.5830  174.7710  145.6350 C   0  0  0  0  0  2  0  0  0  0  0  0
  194.8680  174.3820  141.8130 C   0  0  0  0  0  0  0  0  0  0  0  0
  195.0620  172.1500  144.8280 C   0  0  0  0  0  3  0  0  0  0  0  0
  191.4700  174.5140  143.2340 C   0  0  1  0  0  3  0  0  0  0  0  0
  191.0720  173.2030  142.5540 C   0  0  0  0  0  2  0  0  0  0  0  0
  191.3900  173.2020  141.0660 C   0  0  0  0  0  2  0  0  0  0  0  0
  191.7430  171.9170  140.6530 O   0  0  0  0  0  1  0  0  0  0  0  0
  1 22  1  0  0  0  0
  2 15  1  0  0  0  0
  3 14  1  0  0  0  0
  4 20  1  0  0  0  0
  5 24  1  0  0  0  0
  7  8  1  0  0  0  0
  8 16  2  0  0  0  0
  9  2  1  0  0  0  0
 10 29  2  0  0  0  0
 12 25  2  0  0  0  0
 13 17  1  0  0  0  0
 13 31  1  0  0  0  0
 14 11  1  6  0  0  0
 14 28  1  0  0  0  0
 15  4  2  0  0  0  0
 15  1  1  0  0  0  0
 18 27  1  6  0  0  0
 18 17  1  0  0  0  0
 18  5  1  0  0  0  0
 19  1  2  0  0  0  0
 20 26  1  0  0  0  0
 20 30  2  0  0  0  0
 21 12  1  0  0  0  0
 21  7  2  0  0  0  0
 22  6  1  6  0  0  0
 22 30  1  0  0  0  0
 23 10  1  0  0  0  0
 23  2  2  0  0  0  0
 24 26  1  0  0  0  0
 25 16  1  0  0  0  0
 26 12  1  0  0  0  0
 28  7  1  0  0  0  0
 29 18  1  0  0  0  0
 29  4  1  0  0  0  0
 31 32  1  6  0  0  0
 31 14  1  0  0  0  0
 33 32  1  0  0  0  0
 34 33  1  0  0  0  0
M  END
>  <MODEL>
7

>  <REMARK>
 VINA RESULT:      -6.3      3.450      6.604
  Name = 
  2 active torsions:
  status: ('A' for Active; 'I' for Inactive)
    1  A    between atoms: C_20  and  C_22
    2  A    between atoms: C_20  and  C_34
                            x       y       z     vdW  Elec       q    Type
                         _______ _______ _______ _____ _____    ______ ____

>  <TORSDO>
F 2

$$$$
=
 OpenBabel11052418423D

 34 38  0  0  1  0  0  0  0  0999 V2000
  191.2850  176.2310  145.6450 C   0  0  0  0  0  0  0  0  0  0  0  0
  190.5740  176.0440  143.2150 C   0  0  0  0  0  0  0  0  0  0  0  0
  197.6090  172.8070  141.9540 S   0  0  0  0  0  1  0  0  0  0  0  0
  192.0350  174.3490  144.1960 C   0  0  0  0  0  0  0  0  0  0  0  0
  192.6410  171.2680  143.5430 C   0  0  0  0  0  2  0  0  0  0  0  0
  193.7680  177.0320  146.2560 Cl  0  0  0  0  0  0  0  0  0  0  0  0
  196.8540  172.9560  145.1260 C   0  0  0  0  0  0  0  0  0  0  0  0
  197.3310  171.6440  145.2220 C   0  0  0  0  0  3  0  0  0  0  0  0
  189.7700  177.2990  143.2610 C   0  0  0  0  0  1  0  0  0  0  0  0
  191.4020  174.2510  141.8870 N   0  0  0  0  0  0  0  0  0  0  0  0
  197.9370  175.3240  142.4700 F   0  0  0  0  0  0  0  0  0  0  0  0
  194.6090  172.1870  145.6510 C   0  0  0  0  0  0  0  0  0  0  0  0
  194.8840  173.8830  141.9890 O   0  0  0  0  0  0  0  0  0  0  0  0
  197.1880  174.2710  142.9640 C   0  0  2  0  0  0  0  0  0  0  0  0
  191.2780  175.5400  144.3290 C   0  0  0  0  0  0  0  0  0  0  0  0
  196.4540  170.6080  145.5730 C   0  0  0  0  0  3  0  0  0  0  0  0
  194.4540  172.7690  142.7230 C   0  0  0  0  0  2  0  0  0  0  0  0
  192.9540  172.4800  142.6310 C   0  0  1  0  0  0  0  0  0  0  0  0
  190.3970  177.0660  145.9580 O   0  0  0  0  0  0  0  0  0  0  0  0
  192.7250  173.8010  145.3960 C   0  0  0  0  0  0  0  0  0  0  0  0
  195.5210  173.2170  145.4120 C   0  0  0  0  0  3  0  0  0  0  0  0
  192.3950  175.9540  146.6090 C   0  0  2  0  0  3  0  0  0  0  0  0
  190.6550  175.3730  142.0030 C   0  0  0  0  0  3  0  0  0  0  0  0
  192.3810  171.4870  144.9220 O   0  0  0  0  0  0  0  0  0  0  0  0
  195.0870  170.8720  145.7450 C   0  0  0  0  0  3  0  0  0  0  0  0
  193.2150  172.4560  145.3900 N   0  0  0  0  0  0  0  0  0  0  0  0
  192.7080  172.0580  141.3220 O   0  0  0  0  0  1  0  0  0  0  0  0
  197.6410  174.0290  144.4290 C   0  0  0  0  0  2  0  0  0  0  0  0
  192.0940  173.7080  142.9270 C   0  0  0  0  0  0  0  0  0  0  0  0
  192.8470  174.5290  146.5140 C   0  0  0  0  0  3  0  0  0  0  0  0
  195.6640  174.6280  142.8960 C   0  0  1  0  0  3  0  0  0  0  0  0
  195.3370  176.1220  142.8460 C   0  0  0  0  0  2  0  0  0  0  0  0
  194.6530  176.5220  141.5470 C   0  0  0  0  0  2  0  0  0  0  0  0
  195.5510  176.4310  140.4840 O   0  0  0  0  0  1  0  0  0  0  0  0
  1 19  2  0  0  0  0
  1 22  1  0  0  0  0
  2  9  1  0  0  0  0
  2 15  1  0  0  0  0
  4 15  2  0  0  0  0
  4 20  1  0  0  0  0
  5 24  1  0  0  0  0
  7  8  2  0  0  0  0
  7 21  1  0  0  0  0
  8 16  1  0  0  0  0
 10 23  1  0  0  0  0
 10 29  2  0  0  0  0
 11 14  1  0  0  0  0
 12 25  1  0  0  0  0
 13 17  1  0  0  0  0
 13 31  1  0  0  0  0
 14  3  1  6  0  0  0
 14 28  1  0  0  0  0
 15  1  1  0  0  0  0
 16 25  2  0  0  0  0
 18 27  1  6  0  0  0
 18 17  1  0  0  0  0
 18 29  1  0  0  0  0
 18  5  1  0  0  0  0
 20 30  2  0  0  0  0
 21 12  2  0  0  0  0
 22  6  1  6  0  0  0
 23  2  2  0  0  0  0
 24 26  1  0  0  0  0
 26 20  1  0  0  0  0
 26 12  1  0  0  0  0
 28  7  1  0  0  0  0
 29  4  1  0  0  0  0
 30 22  1  0  0  0  0
 31 32  1  6  0  0  0
 31 14  1  0  0  0  0
 33 32  1  0  0  0  0
 34 33  1  0  0  0  0
M  END
>  <MODEL>
8

>  <REMARK>
 VINA RESULT:      -6.2      2.540      3.453
  Name = 
  2 active torsions:
  status: ('A' for Active; 'I' for Inactive)
    1  A    between atoms: C_20  and  C_22
    2  A    between atoms: C_20  and  C_34
                            x       y       z     vdW  Elec       q    Type
                         _______ _______ _______ _____ _____    ______ ____

>  <TORSDO>
F 2

$$$$
=
 OpenBabel11052418423D

 34 38  0  0  1  0  0  0  0  0999 V2000
  189.6950  172.2280  143.2690 C   0  0  0  0  0  0  0  0  0  0  0  0
  189.9730  173.2890  140.9800 C   0  0  0  0  0  0  0  0  0  0  0  0
  196.4420  176.6340  143.9030 S   0  0  0  0  0  1  0  0  0  0  0  0
  191.9410  172.6800  142.2940 C   0  0  0  0  0  0  0  0  0  0  0  0
  194.9780  171.9450  141.5680 C   0  0  0  0  0  2  0  0  0  0  0  0
  190.1250  173.6790  145.4800 Cl  0  0  0  0  0  0  0  0  0  0  0  0
  195.3240  174.2170  145.7900 C   0  0  0  0  0  0  0  0  0  0  0  0
  196.6520  173.7900  145.8980 C   0  0  0  0  0  3  0  0  0  0  0  0
  188.5040  173.4050  140.7550 C   0  0  0  0  0  1  0  0  0  0  0  0
  192.1610  173.7520  140.1630 N   0  0  0  0  0  0  0  0  0  0  0  0
  194.3710  177.7270  145.0130 F   0  0  0  0  0  0  0  0  0  0  0  0
  194.7630  172.1860  144.5770 C   0  0  0  0  0  0  0  0  0  0  0  0
  194.1760  175.5440  142.4000 O   0  0  0  0  0  0  0  0  0  0  0  0
  194.7970  176.4530  144.6800 C   0  0  2  0  0  0  0  0  0  0  0  0
  190.5320  172.7350  142.1500 C   0  0  0  0  0  0  0  0  0  0  0  0
  197.0280  172.5420  145.3810 C   0  0  0  0  0  3  0  0  0  0  0  0
  194.7630  174.2720  142.4370 C   0  0  0  0  0  2  0  0  0  0  0  0
  194.2840  173.3120  141.3450 C   0  0  1  0  0  0  0  0  0  0  0  0
  188.4860  171.9150  143.1010 O   0  0  0  0  0  0  0  0  0  0  0  0
  192.5130  172.0400  143.5110 C   0  0  0  0  0  0  0  0  0  0  0  0
  194.3880  173.3800  145.1990 C   0  0  0  0  0  3  0  0  0  0  0  0
  190.2900  172.1190  144.6360 C   0  0  2  0  0  3  0  0  0  0  0  0
  190.8180  173.7910  139.9990 C   0  0  0  0  0  3  0  0  0  0  0  0
  194.3950  171.0100  142.4640 O   0  0  0  0  0  0  0  0  0  0  0  0
  196.0950  171.7600  144.6840 C   0  0  0  0  0  3  0  0  0  0  0  0
  193.8960  171.6710  143.5450 N   0  0  0  0  0  0  0  0  0  0  0  0
  194.7740  173.8070  140.1340 O   0  0  0  0  0  1  0  0  0  0  0  0
  194.9400  175.6530  146.0020 C   0  0  0  0  0  2  0  0  0  0  0  0
  192.7610  173.2200  141.2640 C   0  0  0  0  0  0  0  0  0  0  0  0
  191.7390  171.7460  144.5640 C   0  0  0  0  0  3  0  0  0  0  0  0
  193.7530  175.7790  143.7230 C   0  0  1  0  0  3  0  0  0  0  0  0
  192.3360  176.3530  143.7830 C   0  0  0  0  0  2  0  0  0  0  0  0
  191.7020  176.4780  142.4050 C   0  0  0  0  0  2  0  0  0  0  0  0
  190.3150  176.3730  142.5060 O   0  0  0  0  0  1  0  0  0  0  0  0
  1 22  1  0  0  0  0
  2 15  1  0  0  0  0
  4 20  1  0  0  0  0
  5 24  1  0  0  0  0
  7  8  1  0  0  0  0
  7 28  1  0  0  0  0
  9  2  1  0  0  0  0
 10 29  2  0  0  0  0
 12 25  2  0  0  0  0
 12 21  1  0  0  0  0
 13 17  1  0  0  0  0
 13 31  1  0  0  0  0
 14  3  1  6  0  0  0
 14 11  1  0  0  0  0
 14 28  1  0  0  0  0
 15  4  2  0  0  0  0
 15  1  1  0  0  0  0
 16  8  2  0  0  0  0
 18 27  1  6  0  0  0
 18  5  1  0  0  0  0
 18 17  1  0  0  0  0
 19  1  2  0  0  0  0
 20 26  1  0  0  0  0
 20 30  2  0  0  0  0
 21  7  2  0  0  0  0
 22  6  1  6  0  0  0
 23 10  1  0  0  0  0
 23  2  2  0  0  0  0
 24 26  1  0  0  0  0
 25 16  1  0  0  0  0
 26 12  1  0  0  0  0
 29 18  1  0  0  0  0
 29  4  1  0  0  0  0
 30 22  1  0  0  0  0
 31 32  1  6  0  0  0
 31 14  1  0  0  0  0
 33 34  1  0  0  0  0
 33 32  1  0  0  0  0
M  END
>  <MODEL>
9

>  <REMARK>
 VINA RESULT:      -6.0      2.889      3.988
  Name = 
  2 active torsions:
  status: ('A' for Active; 'I' for Inactive)
    1  A    between atoms: C_20  and  C_22
    2  A    between atoms: C_20  and  C_34
                            x       y       z     vdW  Elec       q    Type
                         _______ _______ _______ _____ _____    ______ ____

>  <TORSDO>
F 2

$$$$
