=
 OpenBabel11052418073D

 28 31  0  0  1  0  0  0  0  0999 V2000
  189.6730  175.6330  146.0070 C   0  0  0  0  0  2  0  0  0  0  0  0
  187.0440  178.4650  144.4450 C   0  0  0  0  0  3  0  0  0  0  0  0
  186.1410  176.5900  146.7010 C   0  0  0  0  0  3  0  0  0  0  0  0
  188.8880  176.9080  144.1230 C   0  0  2  0  0  3  0  0  0  0  0  0
  184.7920  178.2630  145.4260 C   0  0  0  0  0  0  0  0  0  0  0  0
  187.6970  177.3930  144.9050 C   0  0  0  0  0  0  0  0  0  0  0  0
  188.4450  175.8970  146.8850 C   0  0  0  0  0  2  0  0  0  0  0  0
  184.8890  177.1610  146.1660 C   0  0  0  0  0  3  0  0  0  0  0  0
  191.0850  175.8560  142.8470 C   0  0  2  0  0  3  0  0  0  0  0  0
  189.2810  175.5680  144.6010 N   0  0  1  0  0  0  0  0  0  0  0  0
  187.3790  176.7130  146.1990 C   0  0  0  0  0  0  0  0  0  0  0  0
  191.6800  177.3170  143.7510 S   0  0  0  0  0  0  0  0  0  0  0  0
  183.5700  178.6530  144.9890 F   0  0  0  0  0  0  0  0  0  0  0  0
  185.9560  179.1610  145.1900 C   0  0  0  0  0  2  0  0  0  0  0  0
  190.0250  177.9420  144.2180 C   0  0  0  0  0  2  0  0  0  0  0  0
  190.3380  174.9160  143.8080 C   0  0  1  0  0  3  0  0  0  0  0  0
  193.4870  176.1170  141.8030 O   0  0  0  0  0  1  0  0  0  0  0  0
  193.1970  174.1260  143.3470 O   0  0  0  0  0  1  0  0  0  0  0  0
  192.4840  175.0040  142.0740 S   0  0  0  0  0  3  0  0  0  0  0  0
  189.7900  173.6750  143.0870 C   0  0  2  0  0  3  0  0  0  0  0  0
  187.4200  174.7240  142.4990 C   0  0  0  0  0  1  0  0  0  0  0  0
  188.4150  172.8580  141.1060 C   0  0  0  0  0  2  0  0  0  0  0  0
  188.6880  173.9940  142.0660 C   0  0  2  0  0  0  0  0  0  0  0  0
  189.1360  174.1040  140.6140 C   0  0  2  0  0  3  0  0  0  0  0  0
  188.2520  174.8900  139.8700 O   0  0  0  0  0  1  0  0  0  0  0  0
  189.3460  172.6280  144.1030 C   0  0  0  0  0  2  0  0  0  0  0  0
  191.0610  171.4570  143.5660 O   0  0  0  0  0  1  0  0  0  0  0  0
  190.4560  171.9610  144.6210 O   0  0  0  0  0  0  0  0  0  0  0  0
  1  7  1  0  0  0  0
  2  6  2  0  0  0  0
  2 14  1  0  0  0  0
  4 15  1  1  0  0  0
  4 10  1  0  0  0  0
  4  6  1  0  0  0  0
  5  8  2  0  0  0  0
  6 11  1  0  0  0  0
  8  3  1  0  0  0  0
  9 19  1  1  0  0  0
  9 12  1  0  0  0  0
  9 16  1  0  0  0  0
 10  1  1  1  0  0  0
 11  3  2  0  0  0  0
 11  7  1  0  0  0  0
 12 15  1  0  0  0  0
 13  5  1  0  0  0  0
 14  5  1  0  0  0  0
 16 20  1  6  0  0  0
 16 10  1  0  0  0  0
 17 19  1  0  0  0  0
 19 18  1  0  0  0  0
 20 26  1  1  0  0  0
 22 23  1  0  0  0  0
 23 21  1  1  0  0  0
 23 20  1  0  0  0  0
 24 25  1  6  0  0  0
 24 22  1  0  0  0  0
 24 23  1  0  0  0  0
 26 28  1  0  0  0  0
 27 28  1  0  0  0  0
M  END
>  <MODEL>
1

>  <REMARK>
 VINA RESULT:      -6.9      0.000      0.000
  Name = 
  5 active torsions:
  status: ('A' for Active; 'I' for Inactive)
    1  A    between atoms: C_1  and  C_7
    2  A    between atoms: C_1  and  C_26
    3  A    between atoms: C_1  and  C_27
    4  A    between atoms: O_11  and  C_26
    5  A    between atoms: C_16  and  S_21
                            x       y       z     vdW  Elec       q    Type
                         _______ _______ _______ _____ _____    ______ ____

>  <TORSDO>
F 5

$$$$
=
 OpenBabel11052418073D

 28 31  0  0  1  0  0  0  0  0999 V2000
  189.7020  176.9620  142.1780 C   0  0  0  0  0  2  0  0  0  0  0  0
  185.7800  176.4750  143.5020 C   0  0  0  0  0  3  0  0  0  0  0  0
  186.9410  179.2870  143.0970 C   0  0  0  0  0  3  0  0  0  0  0  0
  188.0880  175.7010  143.4410 C   0  0  2  0  0  3  0  0  0  0  0  0
  184.7180  178.6350  144.0340 C   0  0  0  0  0  0  0  0  0  0  0  0
  187.0600  176.7880  143.2770 C   0  0  0  0  0  0  0  0  0  0  0  0
  188.8390  178.2220  142.0550 C   0  0  0  0  0  2  0  0  0  0  0  0
  185.7220  179.4990  143.9030 C   0  0  0  0  0  3  0  0  0  0  0  0
  190.1230  173.8690  143.6890 C   0  0  2  0  0  3  0  0  0  0  0  0
  189.4380  176.2950  143.4520 N   0  0  1  0  0  0  0  0  0  0  0  0
  187.5170  178.1200  142.7730 C   0  0  0  0  0  0  0  0  0  0  0  0
  189.3290  173.5260  142.0890 S   0  0  0  0  0  0  0  0  0  0  0  0
  183.6710  178.9630  144.8280 F   0  0  0  0  0  0  0  0  0  0  0  0
  184.6360  177.3900  143.2220 C   0  0  0  0  0  2  0  0  0  0  0  0
  187.9010  174.6410  142.3400 C   0  0  0  0  0  2  0  0  0  0  0  0
  190.5250  175.3510  143.7650 C   0  0  1  0  0  3  0  0  0  0  0  0
  191.1520  171.4860  143.2460 O   0  0  0  0  0  1  0  0  0  0  0  0
  192.7190  173.4320  142.8090 O   0  0  0  0  0  1  0  0  0  0  0  0
  191.5700  172.7990  143.8950 S   0  0  0  0  0  3  0  0  0  0  0  0
  191.1780  175.7010  145.1110 C   0  0  2  0  0  3  0  0  0  0  0  0
  189.5850  177.4890  146.2620 C   0  0  0  0  0  1  0  0  0  0  0  0
  190.5270  175.5340  147.5670 C   0  0  0  0  0  2  0  0  0  0  0  0
  190.1670  176.0810  146.2040 C   0  0  2  0  0  0  0  0  0  0  0  0
  189.3610  174.9310  146.7970 C   0  0  2  0  0  3  0  0  0  0  0  0
  188.1580  175.3850  147.3420 O   0  0  0  0  0  1  0  0  0  0  0  0
  192.2440  176.7720  144.9170 C   0  0  0  0  0  2  0  0  0  0  0  0
  193.5990  175.2400  145.5630 O   0  0  0  0  0  1  0  0  0  0  0  0
  193.3370  176.5170  145.7450 O   0  0  0  0  0  0  0  0  0  0  0  0
  3  8  1  0  0  0  0
  4 15  1  6  0  0  0
  4 10  1  0  0  0  0
  5 13  1  0  0  0  0
  6  4  1  0  0  0  0
  6  2  2  0  0  0  0
  7  1  1  0  0  0  0
  7 11  1  0  0  0  0
  8  5  2  0  0  0  0
  9 16  1  0  0  0  0
  9 19  1  6  0  0  0
 10  1  1  6  0  0  0
 10 16  1  0  0  0  0
 11  3  2  0  0  0  0
 11  6  1  0  0  0  0
 12 15  1  0  0  0  0
 12  9  1  0  0  0  0
 14  2  1  0  0  0  0
 14  5  1  0  0  0  0
 16 20  1  1  0  0  0
 17 19  1  0  0  0  0
 18 19  1  0  0  0  0
 20 26  1  6  0  0  0
 20 23  1  0  0  0  0
 23 21  1  6  0  0  0
 23 24  1  0  0  0  0
 23 22  1  0  0  0  0
 24 25  1  1  0  0  0
 24 22  1  0  0  0  0
 26 28  1  0  0  0  0
 27 28  1  0  0  0  0
M  END
>  <MODEL>
2

>  <REMARK>
 VINA RESULT:      -6.6      2.172      4.196
  Name = 
  5 active torsions:
  status: ('A' for Active; 'I' for Inactive)
    1  A    between atoms: C_1  and  C_7
    2  A    between atoms: C_1  and  C_26
    3  A    between atoms: C_1  and  C_27
    4  A    between atoms: O_11  and  C_26
    5  A    between atoms: C_16  and  S_21
                            x       y       z     vdW  Elec       q    Type
                         _______ _______ _______ _____ _____    ______ ____

>  <TORSDO>
F 5

$$$$
=
 OpenBabel11052418073D

 28 31  0  0  1  0  0  0  0  0999 V2000
  190.3960  177.9650  143.8500 C   0  0  0  0  0  2  0  0  0  0  0  0
  192.3680  175.2100  146.2800 C   0  0  0  0  0  3  0  0  0  0  0  0
  193.7040  176.2570  143.7230 C   0  0  0  0  0  3  0  0  0  0  0  0
  190.2950  176.0830  145.3470 C   0  0  2  0  0  3  0  0  0  0  0  0
  194.5120  174.4930  145.2980 C   0  0  0  0  0  0  0  0  0  0  0  0
  191.7920  175.9310  145.3130 C   0  0  0  0  0  0  0  0  0  0  0  0
  191.9000  177.8520  143.5770 C   0  0  0  0  0  2  0  0  0  0  0  0
  194.4950  175.0680  144.0980 C   0  0  0  0  0  3  0  0  0  0  0  0
  187.5770  176.4800  145.2190 C   0  0  2  0  0  3  0  0  0  0  0  0
  189.8240  176.6360  144.0630 N   0  0  1  0  0  0  0  0  0  0  0  0
  192.5520  176.6790  144.2640 C   0  0  0  0  0  0  0  0  0  0  0  0
  188.1930  177.6220  146.4920 S   0  0  0  0  0  0  0  0  0  0  0  0
  195.2750  173.3900  145.4860 F   0  0  0  0  0  0  0  0  0  0  0  0
  193.8420  175.1080  146.4780 C   0  0  0  0  0  2  0  0  0  0  0  0
  189.8880  176.9390  146.5610 C   0  0  0  0  0  2  0  0  0  0  0  0
  188.3600  176.6850  143.9120 C   0  0  1  0  0  3  0  0  0  0  0  0
  185.2030  176.6120  146.3480 O   0  0  0  0  0  1  0  0  0  0  0  0
  185.6810  178.4220  144.6360 O   0  0  0  0  0  1  0  0  0  0  0  0
  185.8060  176.7540  144.9570 S   0  0  0  0  0  3  0  0  0  0  0  0
  187.8950  175.7220  142.8070 C   0  0  2  0  0  3  0  0  0  0  0  0
  190.1990  174.9360  141.7400 C   0  0  0  0  0  1  0  0  0  0  0  0
  188.2660  173.3260  142.0310 C   0  0  0  0  0  2  0  0  0  0  0  0
  188.9110  174.6140  142.4910 C   0  0  2  0  0  0  0  0  0  0  0  0
  188.8880  173.4040  143.4170 C   0  0  2  0  0  3  0  0  0  0  0  0
  190.1180  172.7410  143.4140 O   0  0  0  0  0  1  0  0  0  0  0  0
  187.4910  176.5030  141.5620 C   0  0  0  0  0  2  0  0  0  0  0  0
  186.3240  178.2880  141.3430 O   0  0  0  0  0  1  0  0  0  0  0  0
  187.4690  177.8700  141.8390 O   0  0  0  0  0  0  0  0  0  0  0  0
  2 14  1  0  0  0  0
  3  8  1  0  0  0  0
  3 11  2  0  0  0  0
  4 15  1  1  0  0  0
  5 13  1  0  0  0  0
  5 14  1  0  0  0  0
  6  4  1  0  0  0  0
  6  2  2  0  0  0  0
  7  1  1  0  0  0  0
  7 11  1  0  0  0  0
  8  5  2  0  0  0  0
  9 19  1  6  0  0  0
  9 12  1  0  0  0  0
 10  1  1  1  0  0  0
 10  4  1  0  0  0  0
 11  6  1  0  0  0  0
 12 15  1  0  0  0  0
 16 20  1  6  0  0  0
 16 10  1  0  0  0  0
 16  9  1  0  0  0  0
 18 19  1  0  0  0  0
 19 17  1  0  0  0  0
 20 26  1  6  0  0  0
 22 23  1  0  0  0  0
 22 24  1  0  0  0  0
 23 21  1  6  0  0  0
 23 20  1  0  0  0  0
 23 24  1  0  0  0  0
 24 25  1  6  0  0  0
 26 28  1  0  0  0  0
 27 28  1  0  0  0  0
M  END
>  <MODEL>
3

>  <REMARK>
 VINA RESULT:      -6.4      3.988      6.345
  Name = 
  5 active torsions:
  status: ('A' for Active; 'I' for Inactive)
    1  A    between atoms: C_1  and  C_7
    2  A    between atoms: C_1  and  C_26
    3  A    between atoms: C_1  and  C_27
    4  A    between atoms: O_11  and  C_26
    5  A    between atoms: C_16  and  S_21
                            x       y       z     vdW  Elec       q    Type
                         _______ _______ _______ _____ _____    ______ ____

>  <TORSDO>
F 5

$$$$
=
 OpenBabel11052418073D

 28 31  0  0  1  0  0  0  0  0999 V2000
  189.3820  175.5290  146.1010 C   0  0  0  0  0  2  0  0  0  0  0  0
  186.9320  178.6150  144.7410 C   0  0  0  0  0  3  0  0  0  0  0  0
  185.8770  176.5870  146.7890 C   0  0  0  0  0  3  0  0  0  0  0  0
  188.7130  177.0070  144.3240 C   0  0  2  0  0  3  0  0  0  0  0  0
  184.6440  178.4320  145.6400 C   0  0  0  0  0  0  0  0  0  0  0  0
  187.5220  177.4750  145.1160 C   0  0  0  0  0  0  0  0  0  0  0  0
  188.1410  175.7710  146.9670 C   0  0  0  0  0  2  0  0  0  0  0  0
  184.6690  177.2640  146.2770 C   0  0  0  0  0  3  0  0  0  0  0  0
  190.8970  175.9730  143.0130 C   0  0  2  0  0  3  0  0  0  0  0  0
  189.0290  175.6130  144.6840 N   0  0  1  0  0  0  0  0  0  0  0  0
  187.1340  176.6960  146.3320 C   0  0  0  0  0  0  0  0  0  0  0  0
  191.5300  177.3150  144.0640 S   0  0  0  0  0  0  0  0  0  0  0  0
  183.4550  178.9190  145.2100 F   0  0  0  0  0  0  0  0  0  0  0  0
  185.8550  179.2910  145.5190 C   0  0  0  0  0  2  0  0  0  0  0  0
  189.8920  177.9730  144.5440 C   0  0  0  0  0  2  0  0  0  0  0  0
  190.0800  174.9860  143.8630 C   0  0  1  0  0  3  0  0  0  0  0  0
  193.1870  176.2650  141.7470 O   0  0  0  0  0  1  0  0  0  0  0  0
  193.1450  174.4120  143.4800 O   0  0  0  0  0  1  0  0  0  0  0  0
  192.2790  175.1290  142.2000 S   0  0  0  0  0  3  0  0  0  0  0  0
  189.4970  173.8440  143.0150 C   0  0  2  0  0  3  0  0  0  0  0  0
  190.4760  171.5400  142.1210 C   0  0  0  0  0  1  0  0  0  0  0  0
  189.6010  171.7690  144.4870 C   0  0  0  0  0  2  0  0  0  0  0  0
  190.1610  172.4840  143.2780 C   0  0  2  0  0  0  0  0  0  0  0  0
  190.9930  172.3810  144.5510 C   0  0  2  0  0  3  0  0  0  0  0  0
  191.9520  171.3710  144.4500 O   0  0  0  0  0  1  0  0  0  0  0  0
  189.5190  174.2180  141.5390 C   0  0  0  0  0  2  0  0  0  0  0  0
  187.4170  174.2990  141.9550 O   0  0  0  0  0  1  0  0  0  0  0  0
  188.2570  174.0320  140.9770 O   0  0  0  0  0  0  0  0  0  0  0  0
  1  7  1  0  0  0  0
  2  6  2  0  0  0  0
  2 14  1  0  0  0  0
  4 15  1  1  0  0  0
  4 10  1  0  0  0  0
  4  6  1  0  0  0  0
  5  8  2  0  0  0  0
  6 11  1  0  0  0  0
  8  3  1  0  0  0  0
  9 19  1  1  0  0  0
  9 16  1  0  0  0  0
  9 12  1  0  0  0  0
 10  1  1  1  0  0  0
 11  3  2  0  0  0  0
 11  7  1  0  0  0  0
 12 15  1  0  0  0  0
 13  5  1  0  0  0  0
 14  5  1  0  0  0  0
 16 20  1  6  0  0  0
 16 10  1  0  0  0  0
 17 19  1  0  0  0  0
 19 18  1  0  0  0  0
 20 26  1  6  0  0  0
 20 23  1  0  0  0  0
 22 24  1  0  0  0  0
 23 21  1  6  0  0  0
 23 22  1  0  0  0  0
 23 24  1  0  0  0  0
 24 25  1  6  0  0  0
 28 26  1  0  0  0  0
 28 27  1  0  0  0  0
M  END
>  <MODEL>
4

>  <REMARK>
 VINA RESULT:      -6.3      0.910      2.435
  Name = 
  5 active torsions:
  status: ('A' for Active; 'I' for Inactive)
    1  A    between atoms: C_1  and  C_7
    2  A    between atoms: C_1  and  C_26
    3  A    between atoms: C_1  and  C_27
    4  A    between atoms: O_11  and  C_26
    5  A    between atoms: C_16  and  S_21
                            x       y       z     vdW  Elec       q    Type
                         _______ _______ _______ _____ _____    ______ ____

>  <TORSDO>
F 5

$$$$
=
 OpenBabel11052418073D

 28 31  0  0  1  0  0  0  0  0999 V2000
  191.7420  175.8190  145.6910 C   0  0  0  0  0  2  0  0  0  0  0  0
  188.3840  177.3960  143.7900 C   0  0  0  0  0  3  0  0  0  0  0  0
  188.1910  176.3660  146.6750 C   0  0  0  0  0  3  0  0  0  0  0  0
  190.4770  176.1580  143.6710 C   0  0  2  0  0  3  0  0  0  0  0  0
  186.3640  177.2010  145.1890 C   0  0  0  0  0  0  0  0  0  0  0  0
  189.3080  176.6940  144.4530 C   0  0  0  0  0  0  0  0  0  0  0  0
  190.5960  176.1810  146.6430 C   0  0  0  0  0  2  0  0  0  0  0  0
  186.7900  176.4830  146.2260 C   0  0  0  0  0  3  0  0  0  0  0  0
  192.6880  175.0880  142.4350 C   0  0  2  0  0  3  0  0  0  0  0  0
  191.2110  175.1750  144.4900 N   0  0  1  0  0  0  0  0  0  0  0  0
  189.3030  176.4970  145.9360 C   0  0  0  0  0  0  0  0  0  0  0  0
  193.0450  176.8570  142.6620 S   0  0  0  0  0  0  0  0  0  0  0  0
  185.0430  177.1940  144.8850 F   0  0  0  0  0  0  0  0  0  0  0  0
  187.2630  178.1280  144.4480 C   0  0  0  0  0  2  0  0  0  0  0  0
  191.3590  177.3270  143.1940 C   0  0  0  0  0  2  0  0  0  0  0  0
  192.2870  174.4610  143.7800 C   0  0  1  0  0  3  0  0  0  0  0  0
  194.5870  175.1710  140.6140 O   0  0  0  0  0  1  0  0  0  0  0  0
  195.3480  174.4670  142.9290 O   0  0  0  0  0  1  0  0  0  0  0  0
  194.1410  174.2560  141.7460 S   0  0  0  0  0  3  0  0  0  0  0  0
  191.9480  172.9690  143.6390 C   0  0  2  0  0  3  0  0  0  0  0  0
  189.6410  172.7230  144.9350 C   0  0  0  0  0  1  0  0  0  0  0  0
  190.0560  171.5180  142.7470 C   0  0  0  0  0  2  0  0  0  0  0  0
  190.4390  172.6790  143.6360 C   0  0  2  0  0  0  0  0  0  0  0  0
  189.7130  172.9380  142.3220 C   0  0  2  0  0  3  0  0  0  0  0  0
  188.3520  173.1720  142.5330 O   0  0  0  0  0  1  0  0  0  0  0  0
  192.6860  172.1580  144.6970 C   0  0  0  0  0  2  0  0  0  0  0  0
  194.6680  172.1510  145.5160 O   0  0  0  0  0  1  0  0  0  0  0  0
  193.6410  172.9520  145.3320 O   0  0  0  0  0  0  0  0  0  0  0  0
  1  7  1  0  0  0  0
  2 14  1  0  0  0  0
  2  6  2  0  0  0  0
  4 15  1  1  0  0  0
  4  6  1  0  0  0  0
  4 10  1  0  0  0  0
  5  8  2  0  0  0  0
  6 11  1  0  0  0  0
  8  3  1  0  0  0  0
  9 19  1  1  0  0  0
  9 12  1  0  0  0  0
  9 16  1  0  0  0  0
 10  1  1  1  0  0  0
 11  7  1  0  0  0  0
 11  3  2  0  0  0  0
 12 15  1  0  0  0  0
 13  5  1  0  0  0  0
 14  5  1  0  0  0  0
 16 20  1  6  0  0  0
 16 10  1  0  0  0  0
 17 19  1  0  0  0  0
 19 18  1  0  0  0  0
 20 26  1  1  0  0  0
 22 23  1  0  0  0  0
 23 20  1  0  0  0  0
 23 21  1  1  0  0  0
 24 25  1  1  0  0  0
 24 22  1  0  0  0  0
 24 23  1  0  0  0  0
 26 28  1  0  0  0  0
 28 27  1  0  0  0  0
M  END
>  <MODEL>
5

>  <REMARK>
 VINA RESULT:      -6.1      1.844      2.407
  Name = 
  5 active torsions:
  status: ('A' for Active; 'I' for Inactive)
    1  A    between atoms: C_1  and  C_7
    2  A    between atoms: C_1  and  C_26
    3  A    between atoms: C_1  and  C_27
    4  A    between atoms: O_11  and  C_26
    5  A    between atoms: C_16  and  S_21
                            x       y       z     vdW  Elec       q    Type
                         _______ _______ _______ _____ _____    ______ ____

>  <TORSDO>
F 5

$$$$
=
 OpenBabel11052418073D

 28 31  0  0  1  0  0  0  0  0999 V2000
  189.8720  176.9920  142.3770 C   0  0  0  0  0  2  0  0  0  0  0  0
  185.8930  176.4640  143.5020 C   0  0  0  0  0  3  0  0  0  0  0  0
  187.0170  179.2850  143.0580 C   0  0  0  0  0  3  0  0  0  0  0  0
  188.2160  175.7410  143.5950 C   0  0  2  0  0  3  0  0  0  0  0  0
  184.7600  178.6180  143.8960 C   0  0  0  0  0  0  0  0  0  0  0  0
  187.1770  176.7980  143.3360 C   0  0  0  0  0  0  0  0  0  0  0  0
  188.9910  178.2280  142.1610 C   0  0  0  0  0  2  0  0  0  0  0  0
  185.7520  179.4980  143.7880 C   0  0  0  0  0  3  0  0  0  0  0  0
  190.2710  173.9640  144.0210 C   0  0  2  0  0  3  0  0  0  0  0  0
  189.5510  176.3650  143.6580 N   0  0  1  0  0  0  0  0  0  0  0  0
  187.6340  178.1210  142.8090 C   0  0  0  0  0  0  0  0  0  0  0  0
  189.5740  173.5470  142.3940 S   0  0  0  0  0  0  0  0  0  0  0  0
  183.6630  178.9500  144.6190 F   0  0  0  0  0  0  0  0  0  0  0  0
  184.7480  177.3430  143.1260 C   0  0  0  0  0  2  0  0  0  0  0  0
  188.1120  174.6380  142.5250 C   0  0  0  0  0  2  0  0  0  0  0  0
  190.6380  175.4570  144.0640 C   0  0  1  0  0  3  0  0  0  0  0  0
  191.1910  171.5110  144.2790 O   0  0  0  0  0  1  0  0  0  0  0  0
  192.6630  173.0740  142.9290 O   0  0  0  0  0  1  0  0  0  0  0  0
  191.7260  172.9350  144.3450 S   0  0  0  0  0  3  0  0  0  0  0  0
  191.2080  175.8690  145.4310 C   0  0  2  0  0  3  0  0  0  0  0  0
  193.4610  176.3200  144.0960 C   0  0  0  0  0  1  0  0  0  0  0  0
  193.4820  175.2340  146.3840 C   0  0  0  0  0  2  0  0  0  0  0  0
  192.7240  176.1140  145.4160 C   0  0  2  0  0  0  0  0  0  0  0  0
  193.3160  176.7170  146.6850 C   0  0  2  0  0  3  0  0  0  0  0  0
  194.5140  177.3830  146.4180 O   0  0  0  0  0  1  0  0  0  0  0  0
  190.8000  174.8610  146.4980 C   0  0  0  0  0  2  0  0  0  0  0  0
  188.8260  174.7200  147.3230 O   0  0  0  0  0  1  0  0  0  0  0  0
  189.9180  175.4500  147.4030 O   0  0  0  0  0  0  0  0  0  0  0  0
  3  8  1  0  0  0  0
  4 15  1  6  0  0  0
  4 10  1  0  0  0  0
  5 13  1  0  0  0  0
  6  2  2  0  0  0  0
  6  4  1  0  0  0  0
  7  1  1  0  0  0  0
  7 11  1  0  0  0  0
  8  5  2  0  0  0  0
  9 16  1  0  0  0  0
  9 19  1  6  0  0  0
 10  1  1  6  0  0  0
 10 16  1  0  0  0  0
 11  3  2  0  0  0  0
 11  6  1  0  0  0  0
 12 15  1  0  0  0  0
 12  9  1  0  0  0  0
 14  2  1  0  0  0  0
 14  5  1  0  0  0  0
 16 20  1  1  0  0  0
 17 19  1  0  0  0  0
 18 19  1  0  0  0  0
 20 26  1  1  0  0  0
 22 24  1  0  0  0  0
 23 21  1  6  0  0  0
 23 20  1  0  0  0  0
 23 22  1  0  0  0  0
 23 24  1  0  0  0  0
 24 25  1  6  0  0  0
 26 28  1  0  0  0  0
 27 28  1  0  0  0  0
M  END
>  <MODEL>
6

>  <REMARK>
 VINA RESULT:      -6.1      2.489      4.472
  Name = 
  5 active torsions:
  status: ('A' for Active; 'I' for Inactive)
    1  A    between atoms: C_1  and  C_7
    2  A    between atoms: C_1  and  C_26
    3  A    between atoms: C_1  and  C_27
    4  A    between atoms: O_11  and  C_26
    5  A    between atoms: C_16  and  S_21
                            x       y       z     vdW  Elec       q    Type
                         _______ _______ _______ _____ _____    ______ ____

>  <TORSDO>
F 5

$$$$
=
 OpenBabel11052418073D

 28 31  0  0  1  0  0  0  0  0999 V2000
  190.3060  174.8050  142.6180 C   0  0  0  0  0  2  0  0  0  0  0  0
  188.7320  175.3790  146.4350 C   0  0  0  0  0  3  0  0  0  0  0  0
  188.1580  177.4040  144.2020 C   0  0  0  0  0  3  0  0  0  0  0  0
  190.5270  174.5690  145.0030 C   0  0  2  0  0  3  0  0  0  0  0  0
  187.5310  177.5230  146.6170 C   0  0  0  0  0  0  0  0  0  0  0  0
  189.3180  175.4340  145.2350 C   0  0  0  0  0  0  0  0  0  0  0  0
  189.1660  175.8280  142.6780 C   0  0  0  0  0  2  0  0  0  0  0  0
  187.7810  178.1030  145.4460 C   0  0  0  0  0  3  0  0  0  0  0  0
  192.7470  173.0740  144.3720 C   0  0  2  0  0  3  0  0  0  0  0  0
  191.2020  174.9850  143.7590 N   0  0  1  0  0  0  0  0  0  0  0  0
  188.7850  176.2240  144.0820 C   0  0  0  0  0  0  0  0  0  0  0  0
  191.3290  171.9410  144.2620 S   0  0  0  0  0  0  0  0  0  0  0  0
  187.2150  178.3020  147.6800 F   0  0  0  0  0  0  0  0  0  0  0  0
  187.4380  176.0440  146.7630 C   0  0  0  0  0  2  0  0  0  0  0  0
  190.1080  173.0860  144.9990 C   0  0  0  0  0  2  0  0  0  0  0  0
  192.4900  174.3160  143.5030 C   0  0  1  0  0  3  0  0  0  0  0  0
  195.3230  172.7370  144.7960 O   0  0  0  0  0  1  0  0  0  0  0  0
  194.0210  170.6080  144.3400 O   0  0  0  0  0  1  0  0  0  0  0  0
  194.2540  172.2210  143.8430 S   0  0  0  0  0  3  0  0  0  0  0  0
  193.6490  175.3220  143.5820 C   0  0  2  0  0  3  0  0  0  0  0  0
  192.4730  177.5350  144.4670 C   0  0  0  0  0  1  0  0  0  0  0  0
  194.7640  176.8400  145.2950 C   0  0  0  0  0  2  0  0  0  0  0  0
  193.4630  176.3910  144.6690 C   0  0  2  0  0  0  0  0  0  0  0  0
  193.8070  175.9640  146.0910 C   0  0  2  0  0  3  0  0  0  0  0  0
  193.1330  176.7460  147.0310 O   0  0  0  0  0  1  0  0  0  0  0  0
  193.9090  175.9360  142.2110 C   0  0  0  0  0  2  0  0  0  0  0  0
  195.8170  174.9710  142.0490 O   0  0  0  0  0  1  0  0  0  0  0  0
  195.2730  176.1690  142.0400 O   0  0  0  0  0  0  0  0  0  0  0  0
  1  7  1  0  0  0  0
  2 14  1  0  0  0  0
  3  8  1  0  0  0  0
  4 15  1  6  0  0  0
  4  6  1  0  0  0  0
  5 14  1  0  0  0  0
  5 13  1  0  0  0  0
  6  2  2  0  0  0  0
  7 11  1  0  0  0  0
  8  5  2  0  0  0  0
  9 19  1  6  0  0  0
 10  1  1  6  0  0  0
 10  4  1  0  0  0  0
 11  3  2  0  0  0  0
 11  6  1  0  0  0  0
 12  9  1  0  0  0  0
 12 15  1  0  0  0  0
 16 20  1  1  0  0  0
 16 10  1  0  0  0  0
 16  9  1  0  0  0  0
 19 18  1  0  0  0  0
 19 17  1  0  0  0  0
 20 26  1  6  0  0  0
 20 23  1  0  0  0  0
 22 24  1  0  0  0  0
 23 21  1  6  0  0  0
 23 22  1  0  0  0  0
 23 24  1  0  0  0  0
 24 25  1  1  0  0  0
 28 27  1  0  0  0  0
 28 26  1  0  0  0  0
M  END
>  <MODEL>
7

>  <REMARK>
 VINA RESULT:      -6.1      2.818      4.931
  Name = 
  5 active torsions:
  status: ('A' for Active; 'I' for Inactive)
    1  A    between atoms: C_1  and  C_7
    2  A    between atoms: C_1  and  C_26
    3  A    between atoms: C_1  and  C_27
    4  A    between atoms: O_11  and  C_26
    5  A    between atoms: C_16  and  S_21
                            x       y       z     vdW  Elec       q    Type
                         _______ _______ _______ _____ _____    ______ ____

>  <TORSDO>
F 5

$$$$
=
 OpenBabel11052418073D

 28 31  0  0  1  0  0  0  0  0999 V2000
  189.7330  177.1630  142.6470 C   0  0  0  0  0  2  0  0  0  0  0  0
  186.2300  176.8250  144.8810 C   0  0  0  0  0  3  0  0  0  0  0  0
  188.8360  177.7480  146.2140 C   0  0  0  0  0  3  0  0  0  0  0  0
  187.6420  176.0440  143.0580 C   0  0  2  0  0  3  0  0  0  0  0  0
  186.6230  177.2710  147.2730 C   0  0  0  0  0  0  0  0  0  0  0  0
  187.4560  176.7920  144.3500 C   0  0  0  0  0  0  0  0  0  0  0  0
  189.7810  177.8840  143.9990 C   0  0  0  0  0  2  0  0  0  0  0  0
  187.9470  177.3910  147.3380 C   0  0  0  0  0  3  0  0  0  0  0  0
  188.2010  174.7290  140.7080 C   0  0  2  0  0  3  0  0  0  0  0  0
  189.0820  175.8620  142.7940 N   0  0  1  0  0  0  0  0  0  0  0  0
  188.6260  177.5400  144.9060 C   0  0  0  0  0  0  0  0  0  0  0  0
  187.4140  176.2970  140.2320 S   0  0  0  0  0  0  0  0  0  0  0  0
  185.9410  176.9160  148.3890 F   0  0  0  0  0  0  0  0  0  0  0  0
  185.8530  177.6580  146.0590 C   0  0  0  0  0  2  0  0  0  0  0  0
  186.9070  176.7800  141.9220 C   0  0  0  0  0  2  0  0  0  0  0  0
  189.3950  175.0050  141.6370 C   0  0  1  0  0  3  0  0  0  0  0  0
  188.1220  172.4540  139.3870 O   0  0  0  0  0  1  0  0  0  0  0  0
  187.8220  174.5330  137.9660 O   0  0  0  0  0  1  0  0  0  0  0  0
  188.7350  173.8380  139.2240 S   0  0  0  0  0  3  0  0  0  0  0  0
  190.0810  173.7070  142.0920 C   0  0  2  0  0  3  0  0  0  0  0  0
  191.8800  174.5790  143.8430 C   0  0  0  0  0  1  0  0  0  0  0  0
  190.5880  172.4370  144.2400 C   0  0  0  0  0  2  0  0  0  0  0  0
  190.6260  173.7700  143.5270 C   0  0  2  0  0  0  0  0  0  0  0  0
  189.6100  173.5320  144.6380 C   0  0  2  0  0  3  0  0  0  0  0  0
  190.0260  174.1150  145.8370 O   0  0  0  0  0  1  0  0  0  0  0  0
  191.1510  173.2960  141.0890 C   0  0  0  0  0  2  0  0  0  0  0  0
  191.6340  171.7030  139.7370 O   0  0  0  0  0  1  0  0  0  0  0  0
  191.1770  171.9090  140.9540 O   0  0  0  0  0  0  0  0  0  0  0  0
  1  7  1  0  0  0  0
  2 14  1  0  0  0  0
  3  8  1  0  0  0  0
  4 15  1  6  0  0  0
  4  6  1  0  0  0  0
  5  8  2  0  0  0  0
  5 13  1  0  0  0  0
  6  2  2  0  0  0  0
  6 11  1  0  0  0  0
  7 11  1  0  0  0  0
  9 19  1  6  0  0  0
  9 16  1  0  0  0  0
 10  1  1  6  0  0  0
 10  4  1  0  0  0  0
 11  3  2  0  0  0  0
 12  9  1  0  0  0  0
 12 15  1  0  0  0  0
 14  5  1  0  0  0  0
 16 20  1  1  0  0  0
 16 10  1  0  0  0  0
 18 19  1  0  0  0  0
 19 17  1  0  0  0  0
 20 26  1  6  0  0  0
 20 23  1  0  0  0  0
 22 24  1  0  0  0  0
 23 21  1  1  0  0  0
 23 22  1  0  0  0  0
 23 24  1  0  0  0  0
 24 25  1  1  0  0  0
 27 28  1  0  0  0  0
 28 26  1  0  0  0  0
M  END
>  <MODEL>
8

>  <REMARK>
 VINA RESULT:      -6.0      2.479      3.928
  Name = 
  5 active torsions:
  status: ('A' for Active; 'I' for Inactive)
    1  A    between atoms: C_1  and  C_7
    2  A    between atoms: C_1  and  C_26
    3  A    between atoms: C_1  and  C_27
    4  A    between atoms: O_11  and  C_26
    5  A    between atoms: C_16  and  S_21
                            x       y       z     vdW  Elec       q    Type
                         _______ _______ _______ _____ _____    ______ ____

>  <TORSDO>
F 5

$$$$
=
 OpenBabel11052418073D

 28 31  0  0  1  0  0  0  0  0999 V2000
  191.9110  176.7950  143.8030 C   0  0  0  0  0  2  0  0  0  0  0  0
  193.7300  173.5760  145.7280 C   0  0  0  0  0  3  0  0  0  0  0  0
  194.7260  174.5000  142.9760 C   0  0  0  0  0  3  0  0  0  0  0  0
  191.7300  174.8810  145.2500 C   0  0  2  0  0  3  0  0  0  0  0  0
  195.4570  172.5240  144.3190 C   0  0  0  0  0  0  0  0  0  0  0  0
  193.1320  174.4500  144.9120 C   0  0  0  0  0  0  0  0  0  0  0  0
  193.2800  176.4150  143.2290 C   0  0  0  0  0  2  0  0  0  0  0  0
  195.3220  173.1620  143.1590 C   0  0  0  0  0  3  0  0  0  0  0  0
  189.1730  175.7940  145.6820 C   0  0  2  0  0  3  0  0  0  0  0  0
  191.1390  175.5890  144.1000 N   0  0  1  0  0  0  0  0  0  0  0  0
  193.8070  175.1010  143.7470 C   0  0  0  0  0  0  0  0  0  0  0  0
  190.2380  176.7200  146.8280 S   0  0  0  0  0  0  0  0  0  0  0  0
  196.0080  171.2860  144.3260 F   0  0  0  0  0  0  0  0  0  0  0  0
  195.1640  173.1830  145.6220 C   0  0  0  0  0  2  0  0  0  0  0  0
  191.7450  175.7240  146.5390 C   0  0  0  0  0  2  0  0  0  0  0  0
  189.7120  175.9250  144.2480 C   0  0  1  0  0  3  0  0  0  0  0  0
  187.3040  176.7680  147.2600 O   0  0  0  0  0  1  0  0  0  0  0  0
  187.5330  177.9340  145.0190 O   0  0  0  0  0  1  0  0  0  0  0  0
  187.4750  176.4160  145.7890 S   0  0  0  0  0  3  0  0  0  0  0  0
  188.8610  175.1360  143.2400 C   0  0  2  0  0  3  0  0  0  0  0  0
  190.7040  173.9550  141.7340 C   0  0  0  0  0  1  0  0  0  0  0  0
  188.5720  172.7550  142.3870 C   0  0  0  0  0  2  0  0  0  0  0  0
  189.5460  173.8630  142.7210 C   0  0  2  0  0  0  0  0  0  0  0  0
  189.4510  172.6380  143.6240 C   0  0  2  0  0  3  0  0  0  0  0  0
  190.4930  171.7430  143.3730 O   0  0  0  0  0  1  0  0  0  0  0  0
  188.4070  176.0470  142.1060 C   0  0  0  0  0  2  0  0  0  0  0  0
  186.6680  177.2770  141.8560 O   0  0  0  0  0  1  0  0  0  0  0  0
  187.0170  176.0150  141.9920 O   0  0  0  0  0  0  0  0  0  0  0  0
  3  8  1  0  0  0  0
  3 11  2  0  0  0  0
  4 15  1  1  0  0  0
  5 13  1  0  0  0  0
  5 14  1  0  0  0  0
  6  4  1  0  0  0  0
  6  2  2  0  0  0  0
  7 11  1  0  0  0  0
  7  1  1  0  0  0  0
  8  5  2  0  0  0  0
  9 19  1  6  0  0  0
  9 12  1  0  0  0  0
 10  1  1  1  0  0  0
 10 16  1  0  0  0  0
 10  4  1  0  0  0  0
 11  6  1  0  0  0  0
 14  2  1  0  0  0  0
 15 12  1  0  0  0  0
 16 20  1  6  0  0  0
 16  9  1  0  0  0  0
 18 19  1  0  0  0  0
 19 17  1  0  0  0  0
 20 26  1  6  0  0  0
 22 23  1  0  0  0  0
 22 24  1  0  0  0  0
 23 21  1  6  0  0  0
 23 20  1  0  0  0  0
 23 24  1  0  0  0  0
 24 25  1  6  0  0  0
 27 28  1  0  0  0  0
 28 26  1  0  0  0  0
M  END
>  <MODEL>
9

>  <REMARK>
 VINA RESULT:      -5.9      4.267      6.785
  Name = 
  5 active torsions:
  status: ('A' for Active; 'I' for Inactive)
    1  A    between atoms: C_1  and  C_7
    2  A    between atoms: C_1  and  C_26
    3  A    between atoms: C_1  and  C_27
    4  A    between atoms: O_11  and  C_26
    5  A    between atoms: C_16  and  S_21
                            x       y       z     vdW  Elec       q    Type
                         _______ _______ _______ _____ _____    ______ ____

>  <TORSDO>
F 5

$$$$
