=
 OpenBabel11052420163D

 34 39  0  0  1  0  0  0  0  0999 V2000
  194.5600  175.3830  144.7880 N   0  0  0  0  0  0  0  0  0  0  0  0
  196.2530  175.9880  141.5730 C   0  0  0  0  0  3  0  0  0  0  0  0
  197.2650  175.0900  143.5030 N   0  0  0  0  0  2  0  0  0  0  0  0
  192.6260  175.3150  146.3890 C   0  0  2  0  0  3  0  0  0  0  0  0
  193.4490  176.6000  145.3850 S   0  0  0  0  0  0  0  0  0  0  0  0
  195.2250  172.9830  145.1330 C   0  0  1  0  0  3  0  0  0  0  0  0
  196.2920  172.5640  145.9550 O   0  0  0  0  0  0  0  0  0  0  0  0
  193.2890  174.0170  146.2240 N   0  0  0  0  0  2  0  0  0  0  0  0
  197.2960  174.4160  144.7950 C   0  0  0  0  0  2  0  0  0  0  0  0
  194.6320  174.2700  145.7260 C   0  0  2  0  0  3  0  0  0  0  0  0
  196.6510  173.0380  144.6810 C   0  0  2  0  0  3  0  0  0  0  0  0
  195.1350  176.4460  140.6990 C   0  0  0  0  0  2  0  0  0  0  0  0
  194.2780  175.2890  140.2930 C   0  0  0  0  0  0  0  0  0  0  0  0
  193.5810  174.6040  141.2040 C   0  0  0  0  0  3  0  0  0  0  0  0
  196.0780  175.4410  142.7790 C   0  0  0  0  0  0  0  0  0  0  0  0
  193.6550  174.8130  142.6630 C   0  0  0  0  0  3  0  0  0  0  0  0
  194.7220  175.2260  143.3720 C   0  0  0  0  0  0  0  0  0  0  0  0
  189.5410  175.8680  144.2530 C   0  0  0  0  0  2  0  0  0  0  0  0
  188.7990  175.0600  147.0420 C   0  0  0  0  0  2  0  0  0  0  0  0
  186.7490  178.3760  145.2220 C   0  0  2  0  0  3  0  0  0  0  0  0
  187.7680  177.6530  144.3250 C   0  0  0  0  0  2  0  0  0  0  0  0
  188.2180  176.3010  144.8920 C   0  0  2  0  0  3  0  0  0  0  0  0
  191.1370  175.2280  146.0590 C   0  0  1  0  0  3  0  0  0  0  0  0
  186.7580  176.5110  146.9480 C   0  0  0  0  0  2  0  0  0  0  0  0
  188.1870  176.3080  146.4300 C   0  0  1  0  0  3  0  0  0  0  0  0
  185.8950  177.3900  146.0290 C   0  0  0  0  0  2  0  0  0  0  0  0
  190.2750  175.3070  147.3240 C   0  0  0  0  0  2  0  0  0  0  0  0
  190.7700  176.3040  145.0410 C   0  0  0  0  0  2  0  0  0  0  0  0
  185.8960  179.3340  144.3970 C   0  0  0  0  0  3  0  0  0  0  0  0
  184.5500  179.1940  144.7360 O   0  0  0  0  0  1  0  0  0  0  0  0
  186.0640  179.1020  143.0300 O   0  0  0  0  0  1  0  0  0  0  0  0
  194.1390  174.9540  138.8670 C   0  0  0  0  0  0  0  0  0  0  0  0
  193.0240  174.5910  138.4050 O   0  0  0  0  0  1  0  0  0  0  0  0
  195.2330  175.0420  138.0120 O   0  0  0  0  0  0  0  0  0  0  0  0
  1  5  1  0  0  0  0
  1 10  1  0  0  0  0
  2 15  2  0  0  0  0
  3  9  1  0  0  0  0
  4  5  1  6  0  0  0
  6 10  1  0  0  0  0
  6  7  1  1  0  0  0
  8  4  1  0  0  0  0
 10  8  1  6  0  0  0
 11  9  1  1  0  0  0
 11  6  1  0  0  0  0
 11  7  1  0  0  0  0
 12  2  1  0  0  0  0
 13 12  1  0  0  0  0
 13 14  2  0  0  0  0
 14 16  1  0  0  0  0
 15 17  1  0  0  0  0
 15  3  1  0  0  0  0
 16 17  2  0  0  0  0
 17  1  1  0  0  0  0
 18 28  1  0  0  0  0
 19 27  1  0  0  0  0
 20 29  1  6  0  0  0
 20 26  1  0  0  0  0
 21 22  1  0  0  0  0
 21 20  1  0  0  0  0
 22 18  1  1  0  0  0
 22 25  1  0  0  0  0
 23 28  1  6  0  0  0
 23  4  1  0  0  0  0
 23 27  1  0  0  0  0
 25 24  1  6  0  0  0
 25 19  1  0  0  0  0
 26 24  1  0  0  0  0
 29 30  1  0  0  0  0
 31 29  1  0  0  0  0
 32 13  1  0  0  0  0
 33 32  1  0  0  0  0
 34 32  2  0  0  0  0
M  END
>  <MODEL>
1

>  <REMARK>
 VINA RESULT:      -8.6      0.000      0.000
  Name = 
  3 active torsions:
  status: ('A' for Active; 'I' for Inactive)
    1  A    between atoms: C_3  and  C_25
    2  A    between atoms: C_7  and  C_11
    3  A    between atoms: C_8  and  C_18
                            x       y       z     vdW  Elec       q    Type
                         _______ _______ _______ _____ _____    ______ ____

>  <TORSDO>
F 3

$$$$
=
 OpenBabel11052420163D

 34 39  0  0  1  0  0  0  0  0999 V2000
  193.9720  174.5280  142.6210 N   0  0  0  0  0  0  0  0  0  0  0  0
  195.9590  171.4610  143.0920 C   0  0  0  0  0  3  0  0  0  0  0  0
  196.8350  173.6020  142.6360 N   0  0  0  0  0  2  0  0  0  0  0  0
  191.8840  175.9190  142.5250 C   0  0  2  0  0  3  0  0  0  0  0  0
  192.5030  174.4290  141.6700 S   0  0  0  0  0  0  0  0  0  0  0  0
  195.1650  176.0190  144.2550 C   0  0  1  0  0  3  0  0  0  0  0  0
  196.1530  176.9600  143.8980 O   0  0  0  0  0  0  0  0  0  0  0  0
  192.8760  176.4260  143.4790 N   0  0  0  0  0  2  0  0  0  0  0  0
  196.8250  175.0580  142.5890 C   0  0  0  0  0  2  0  0  0  0  0  0
  194.1720  175.8920  143.0900 C   0  0  2  0  0  3  0  0  0  0  0  0
  196.5830  175.6240  143.9850 C   0  0  2  0  0  3  0  0  0  0  0  0
  194.9210  170.4550  143.4560 C   0  0  0  0  0  2  0  0  0  0  0  0
  194.4680  170.6550  144.8680 C   0  0  0  0  0  0  0  0  0  0  0  0
  193.8310  171.7720  145.2290 C   0  0  0  0  0  3  0  0  0  0  0  0
  195.7330  172.7770  143.0410 C   0  0  0  0  0  0  0  0  0  0  0  0
  193.6070  172.9400  144.3560 C   0  0  0  0  0  3  0  0  0  0  0  0
  194.4000  173.3740  143.3590 C   0  0  0  0  0  0  0  0  0  0  0  0
  188.1180  176.1460  142.9060 C   0  0  0  0  0  2  0  0  0  0  0  0
  189.4020  175.1250  145.4130 C   0  0  0  0  0  2  0  0  0  0  0  0
  186.4200  178.2120  145.7130 C   0  0  2  0  0  3  0  0  0  0  0  0
  186.6760  177.6730  144.2960 C   0  0  0  0  0  2  0  0  0  0  0  0
  187.4850  176.3700  144.2830 C   0  0  2  0  0  3  0  0  0  0  0  0
  190.5430  175.6480  143.2040 C   0  0  1  0  0  3  0  0  0  0  0  0
  187.6750  176.2910  146.8050 C   0  0  0  0  0  2  0  0  0  0  0  0
  188.4480  176.3050  145.4810 C   0  0  1  0  0  3  0  0  0  0  0  0
  186.3600  177.0860  146.7530 C   0  0  0  0  0  2  0  0  0  0  0  0
  190.6900  175.5550  144.7260 C   0  0  0  0  0  2  0  0  0  0  0  0
  189.5280  176.7090  142.7850 C   0  0  0  0  0  2  0  0  0  0  0  0
  185.1680  179.0820  145.7350 C   0  0  0  0  0  3  0  0  0  0  0  0
  184.0770  178.3440  146.1930 O   0  0  0  0  0  1  0  0  0  0  0  0
  184.8910  179.5920  144.4650 O   0  0  0  0  0  1  0  0  0  0  0  0
  194.6570  169.5750  145.8500 C   0  0  0  0  0  0  0  0  0  0  0  0
  195.5700  169.6540  146.7140 O   0  0  0  0  0  1  0  0  0  0  0  0
  193.8260  168.4590  145.8400 O   0  0  0  0  0  0  0  0  0  0  0  0
  1 10  1  0  0  0  0
  1 17  1  0  0  0  0
  2 12  1  0  0  0  0
  3 15  1  0  0  0  0
  4  5  1  1  0  0  0
  4 23  1  0  0  0  0
  4  8  1  0  0  0  0
  5  1  1  0  0  0  0
  6  7  1  6  0  0  0
  7 11  1  0  0  0  0
  9  3  1  0  0  0  0
 10  8  1  1  0  0  0
 10  6  1  0  0  0  0
 11  9  1  6  0  0  0
 11  6  1  0  0  0  0
 12 13  1  0  0  0  0
 13 14  2  0  0  0  0
 13 32  1  0  0  0  0
 15  2  2  0  0  0  0
 15 17  1  0  0  0  0
 16 14  1  0  0  0  0
 17 16  2  0  0  0  0
 20 29  1  6  0  0  0
 20 26  1  0  0  0  0
 21 20  1  0  0  0  0
 22 18  1  6  0  0  0
 22 21  1  0  0  0  0
 22 25  1  0  0  0  0
 23 28  1  1  0  0  0
 23 27  1  0  0  0  0
 25 19  1  6  0  0  0
 25 24  1  0  0  0  0
 26 24  1  0  0  0  0
 27 19  1  0  0  0  0
 28 18  1  0  0  0  0
 29 30  1  0  0  0  0
 31 29  1  0  0  0  0
 32 33  1  0  0  0  0
 34 32  2  0  0  0  0
M  END
>  <MODEL>
2

>  <REMARK>
 VINA RESULT:      -8.3      2.563      4.174
  Name = 
  3 active torsions:
  status: ('A' for Active; 'I' for Inactive)
    1  A    between atoms: C_3  and  C_25
    2  A    between atoms: C_7  and  C_11
    3  A    between atoms: C_8  and  C_18
                            x       y       z     vdW  Elec       q    Type
                         _______ _______ _______ _____ _____    ______ ____

>  <TORSDO>
F 3

$$$$
=
 OpenBabel11052420163D

 34 39  0  0  1  0  0  0  0  0999 V2000
  191.0690  172.2780  142.2500 N   0  0  0  0  0  0  0  0  0  0  0  0
  193.8670  170.9940  144.2730 C   0  0  0  0  0  3  0  0  0  0  0  0
  193.1440  170.1000  142.2150 N   0  0  0  0  0  2  0  0  0  0  0  0
  189.1890  173.8340  141.6550 C   0  0  2  0  0  3  0  0  0  0  0  0
  189.5990  172.7600  143.0750 S   0  0  0  0  0  0  0  0  0  0  0  0
  192.2510  172.4950  140.0430 C   0  0  1  0  0  3  0  0  0  0  0  0
  192.1770  171.5450  139.0040 O   0  0  0  0  0  0  0  0  0  0  0  0
  190.2080  173.7260  140.6060 N   0  0  0  0  0  2  0  0  0  0  0  0
  192.4800  170.1210  140.9180 C   0  0  0  0  0  2  0  0  0  0  0  0
  190.9230  172.4770  140.8150 C   0  0  2  0  0  3  0  0  0  0  0  0
  193.0600  171.2360  140.0530 C   0  0  2  0  0  3  0  0  0  0  0  0
  193.9460  171.9850  145.3840 C   0  0  0  0  0  2  0  0  0  0  0  0
  194.5710  173.2580  144.9090 C   0  0  0  0  0  0  0  0  0  0  0  0
  193.9700  174.0100  143.9830 C   0  0  0  0  0  3  0  0  0  0  0  0
  193.1360  171.1710  143.1690 C   0  0  0  0  0  0  0  0  0  0  0  0
  192.7350  173.6420  143.2620 C   0  0  0  0  0  3  0  0  0  0  0  0
  192.3220  172.4040  142.9360 C   0  0  0  0  0  0  0  0  0  0  0  0
  189.1450  176.6880  144.1520 C   0  0  0  0  0  2  0  0  0  0  0  0
  187.7850  177.4620  141.5960 C   0  0  0  0  0  2  0  0  0  0  0  0
  185.8650  178.3810  145.3340 C   0  0  2  0  0  3  0  0  0  0  0  0
  187.2560  177.7360  145.4450 C   0  0  0  0  0  2  0  0  0  0  0  0
  188.0280  177.7360  144.1190 C   0  0  2  0  0  3  0  0  0  0  0  0
  188.9930  175.2830  142.0980 C   0  0  1  0  0  3  0  0  0  0  0  0
  186.1590  178.8870  142.8610 C   0  0  0  0  0  2  0  0  0  0  0  0
  187.0670  177.6540  142.9210 C   0  0  1  0  0  3  0  0  0  0  0  0
  185.8180  179.4610  144.2460 C   0  0  0  0  0  2  0  0  0  0  0  0
  187.8910  175.9750  141.2880 C   0  0  0  0  0  2  0  0  0  0  0  0
  188.7250  175.3310  143.6000 C   0  0  0  0  0  2  0  0  0  0  0  0
  185.4120  178.9130  146.6910 C   0  0  0  0  0  3  0  0  0  0  0  0
  186.4300  178.7590  147.6320 O   0  0  0  0  0  1  0  0  0  0  0  0
  184.2630  178.2500  147.1280 O   0  0  0  0  0  1  0  0  0  0  0  0
  195.8230  173.7270  145.5260 C   0  0  0  0  0  0  0  0  0  0  0  0
  196.1300  174.9480  145.4920 O   0  0  0  0  0  0  0  0  0  0  0  0
  196.6750  172.8280  146.1590 O   0  0  0  0  0  1  0  0  0  0  0  0
  1 17  1  0  0  0  0
  1  5  1  0  0  0  0
  2 12  1  0  0  0  0
  3 15  1  0  0  0  0
  4  8  1  6  0  0  0
  4 23  1  0  0  0  0
  4  5  1  0  0  0  0
  6  7  1  6  0  0  0
  6 11  1  0  0  0  0
  6 10  1  0  0  0  0
  7 11  1  0  0  0  0
  9  3  1  0  0  0  0
 10  8  1  1  0  0  0
 10  1  1  0  0  0  0
 11  9  1  1  0  0  0
 13 12  1  0  0  0  0
 13 32  1  0  0  0  0
 14 13  2  0  0  0  0
 15  2  2  0  0  0  0
 16 14  1  0  0  0  0
 17 15  1  0  0  0  0
 17 16  2  0  0  0  0
 20 21  1  0  0  0  0
 20 29  1  1  0  0  0
 22 18  1  1  0  0  0
 22 21  1  0  0  0  0
 23 27  1  6  0  0  0
 23 28  1  0  0  0  0
 24 25  1  0  0  0  0
 24 26  1  0  0  0  0
 25 19  1  6  0  0  0
 25 22  1  0  0  0  0
 26 20  1  0  0  0  0
 27 19  1  0  0  0  0
 28 18  1  0  0  0  0
 29 31  1  0  0  0  0
 29 30  1  0  0  0  0
 32 34  1  0  0  0  0
 33 32  2  0  0  0  0
M  END
>  <MODEL>
3

>  <REMARK>
 VINA RESULT:      -8.0      3.128      5.308
  Name = 
  3 active torsions:
  status: ('A' for Active; 'I' for Inactive)
    1  A    between atoms: C_3  and  C_25
    2  A    between atoms: C_7  and  C_11
    3  A    between atoms: C_8  and  C_18
                            x       y       z     vdW  Elec       q    Type
                         _______ _______ _______ _____ _____    ______ ____

>  <TORSDO>
F 3

$$$$
=
 OpenBabel11052420163D

 34 39  0  0  1  0  0  0  0  0999 V2000
  195.0280  174.1130  144.7700 N   0  0  0  0  0  0  0  0  0  0  0  0
  197.0090  173.8850  141.6720 C   0  0  0  0  0  3  0  0  0  0  0  0
  196.8630  172.2140  143.3290 N   0  0  0  0  0  2  0  0  0  0  0  0
  193.4420  175.1620  146.4110 C   0  0  2  0  0  3  0  0  0  0  0  0
  195.0390  175.6260  145.6550 S   0  0  0  0  0  0  0  0  0  0  0  0
  193.7630  171.9490  144.5840 C   0  0  1  0  0  3  0  0  0  0  0  0
  194.1210  170.7590  145.2520 O   0  0  0  0  0  0  0  0  0  0  0  0
  193.0110  173.8380  145.9520 N   0  0  0  0  0  2  0  0  0  0  0  0
  196.2620  171.5060  144.4510 C   0  0  0  0  0  2  0  0  0  0  0  0
  194.1870  173.1410  145.4550 C   0  0  2  0  0  3  0  0  0  0  0  0
  194.8530  171.0500  144.0870 C   0  0  2  0  0  3  0  0  0  0  0  0
  196.6490  175.1470  140.9640 C   0  0  0  0  0  2  0  0  0  0  0  0
  195.2800  175.0440  140.3700 C   0  0  0  0  0  0  0  0  0  0  0  0
  194.2040  174.9140  141.1510 C   0  0  0  0  0  3  0  0  0  0  0  0
  196.3620  173.4270  142.7480 C   0  0  0  0  0  0  0  0  0  0  0  0
  194.2370  174.7460  142.6170 C   0  0  0  0  0  3  0  0  0  0  0  0
  195.1930  174.1420  143.3460 C   0  0  0  0  0  0  0  0  0  0  0  0
  190.3310  177.1860  147.1930 C   0  0  0  0  0  2  0  0  0  0  0  0
  191.1520  177.5210  144.3300 C   0  0  0  0  0  2  0  0  0  0  0  0
  187.0140  176.7650  145.2320 C   0  0  2  0  0  3  0  0  0  0  0  0
  187.9410  176.9150  146.4490 C   0  0  0  0  0  2  0  0  0  0  0  0
  189.3120  177.5060  146.0940 C   0  0  2  0  0  3  0  0  0  0  0  0
  192.3750  176.2220  146.1400 C   0  0  1  0  0  3  0  0  0  0  0  0
  188.7520  177.7080  143.6350 C   0  0  0  0  0  2  0  0  0  0  0  0
  189.7250  177.1210  144.6640 C   0  0  1  0  0  3  0  0  0  0  0  0
  187.3090  177.8150  144.1530 C   0  0  0  0  0  2  0  0  0  0  0  0
  192.0890  176.3630  144.6400 C   0  0  0  0  0  2  0  0  0  0  0  0
  191.1160  175.9050  146.9420 C   0  0  0  0  0  2  0  0  0  0  0  0
  185.5530  176.7830  145.6670 C   0  0  0  0  0  3  0  0  0  0  0  0
  184.8820  177.8440  145.0590 O   0  0  0  0  0  1  0  0  0  0  0  0
  185.4460  176.8930  147.0550 O   0  0  0  0  0  1  0  0  0  0  0  0
  195.1100  175.1670  138.9130 C   0  0  0  0  0  0  0  0  0  0  0  0
  196.1170  175.2220  138.1580 O   0  0  0  0  0  0  0  0  0  0  0  0
  193.8380  175.2170  138.3530 O   0  0  0  0  0  1  0  0  0  0  0  0
  1 10  1  0  0  0  0
  1  5  1  0  0  0  0
  2 15  2  0  0  0  0
  3  9  1  0  0  0  0
  4  5  1  6  0  0  0
  6  7  1  1  0  0  0
  6 10  1  0  0  0  0
  8  4  1  0  0  0  0
 10  8  1  6  0  0  0
 11  9  1  1  0  0  0
 11  6  1  0  0  0  0
 11  7  1  0  0  0  0
 12  2  1  0  0  0  0
 13 12  1  0  0  0  0
 13 14  2  0  0  0  0
 14 16  1  0  0  0  0
 15  3  1  0  0  0  0
 15 17  1  0  0  0  0
 16 17  2  0  0  0  0
 17  1  1  0  0  0  0
 19 27  1  0  0  0  0
 19 25  1  0  0  0  0
 20 29  1  1  0  0  0
 20 21  1  0  0  0  0
 22 21  1  1  0  0  0
 22 18  1  0  0  0  0
 23 27  1  6  0  0  0
 23  4  1  0  0  0  0
 23 28  1  0  0  0  0
 24 26  1  0  0  0  0
 25 24  1  6  0  0  0
 25 22  1  0  0  0  0
 26 20  1  0  0  0  0
 28 18  1  0  0  0  0
 29 31  1  0  0  0  0
 30 29  1  0  0  0  0
 32 13  1  0  0  0  0
 33 32  2  0  0  0  0
 34 32  1  0  0  0  0
M  END
>  <MODEL>
4

>  <REMARK>
 VINA RESULT:      -7.9      1.569      2.394
  Name = 
  3 active torsions:
  status: ('A' for Active; 'I' for Inactive)
    1  A    between atoms: C_3  and  C_25
    2  A    between atoms: C_7  and  C_11
    3  A    between atoms: C_8  and  C_18
                            x       y       z     vdW  Elec       q    Type
                         _______ _______ _______ _____ _____    ______ ____

>  <TORSDO>
F 3

$$$$
=
 OpenBabel11052420163D

 34 39  0  0  1  0  0  0  0  0999 V2000
  192.7740  176.3030  143.7230 N   0  0  0  0  0  0  0  0  0  0  0  0
  194.4620  174.5220  140.9750 C   0  0  0  0  0  3  0  0  0  0  0  0
  195.4970  175.2800  142.9540 N   0  0  0  0  0  2  0  0  0  0  0  0
  190.8340  177.3190  144.9520 C   0  0  2  0  0  3  0  0  0  0  0  0
  191.6110  177.5500  143.3150 S   0  0  0  0  0  0  0  0  0  0  0  0
  193.5320  174.8680  145.6420 C   0  0  1  0  0  3  0  0  0  0  0  0
  194.6100  175.1850  146.4950 O   0  0  0  0  0  0  0  0  0  0  0  0
  191.5500  176.3050  145.7330 N   0  0  0  0  0  2  0  0  0  0  0  0
  195.5470  175.7130  144.3440 C   0  0  0  0  0  2  0  0  0  0  0  0
  192.8840  176.1780  145.1700 C   0  0  2  0  0  3  0  0  0  0  0  0
  194.9580  174.6350  145.2480 C   0  0  2  0  0  3  0  0  0  0  0  0
  193.3330  174.1950  140.0590 C   0  0  0  0  0  2  0  0  0  0  0  0
  192.5250  173.0600  140.6060 C   0  0  0  0  0  0  0  0  0  0  0  0
  191.8500  173.1930  141.7510 C   0  0  0  0  0  3  0  0  0  0  0  0
  194.3010  174.9790  142.2200 C   0  0  0  0  0  0  0  0  0  0  0  0
  191.9070  174.3720  142.6370 C   0  0  0  0  0  3  0  0  0  0  0  0
  192.9510  175.2000  142.8240 C   0  0  0  0  0  0  0  0  0  0  0  0
  187.7570  176.0370  143.1440 C   0  0  0  0  0  2  0  0  0  0  0  0
  187.0100  177.5200  145.6380 C   0  0  0  0  0  2  0  0  0  0  0  0
  184.8810  178.3690  141.9970 C   0  0  2  0  0  3  0  0  0  0  0  0
  185.9300  177.2490  141.9060 C   0  0  0  0  0  2  0  0  0  0  0  0
  186.4140  176.7620  143.2780 C   0  0  2  0  0  3  0  0  0  0  0  0
  189.3510  176.9760  144.8140 C   0  0  1  0  0  3  0  0  0  0  0  0
  184.9270  178.3760  144.5380 C   0  0  0  0  0  2  0  0  0  0  0  0
  186.3670  177.8980  144.3150 C   0  0  1  0  0  3  0  0  0  0  0  0
  184.0480  178.2710  143.2820 C   0  0  0  0  0  2  0  0  0  0  0  0
  188.4740  177.9360  145.6260 C   0  0  0  0  0  2  0  0  0  0  0  0
  188.9640  176.9460  143.3390 C   0  0  0  0  0  2  0  0  0  0  0  0
  184.0080  178.3880  140.7460 C   0  0  0  0  0  3  0  0  0  0  0  0
  182.7100  177.9840  141.0590 O   0  0  0  0  0  1  0  0  0  0  0  0
  184.5350  177.5540  139.7570 O   0  0  0  0  0  1  0  0  0  0  0  0
  192.4090  171.8130  139.8330 C   0  0  0  0  0  0  0  0  0  0  0  0
  193.3670  170.9960  139.7980 O   0  0  0  0  0  1  0  0  0  0  0  0
  191.2390  171.5200  139.1400 O   0  0  0  0  0  0  0  0  0  0  0  0
  1 10  1  0  0  0  0
  2 15  2  0  0  0  0
  3  9  1  0  0  0  0
  4  5  1  6  0  0  0
  4  8  1  0  0  0  0
  5  1  1  0  0  0  0
  6  7  1  1  0  0  0
 10  6  1  0  0  0  0
 10  8  1  1  0  0  0
 11  9  1  6  0  0  0
 11  6  1  0  0  0  0
 11  7  1  0  0  0  0
 12 13  1  0  0  0  0
 12  2  1  0  0  0  0
 13 14  2  0  0  0  0
 14 16  1  0  0  0  0
 15 17  1  0  0  0  0
 15  3  1  0  0  0  0
 16 17  2  0  0  0  0
 17  1  1  0  0  0  0
 18 22  1  0  0  0  0
 18 28  1  0  0  0  0
 20 29  1  6  0  0  0
 20 26  1  0  0  0  0
 21 20  1  0  0  0  0
 22 21  1  6  0  0  0
 22 25  1  0  0  0  0
 23 28  1  6  0  0  0
 23  4  1  0  0  0  0
 23 27  1  0  0  0  0
 25 24  1  1  0  0  0
 25 19  1  0  0  0  0
 26 24  1  0  0  0  0
 27 19  1  0  0  0  0
 29 30  1  0  0  0  0
 31 29  1  0  0  0  0
 32 13  1  0  0  0  0
 33 32  1  0  0  0  0
 34 32  2  0  0  0  0
M  END
>  <MODEL>
5

>  <REMARK>
 VINA RESULT:      -7.7      2.352      3.090
  Name = 
  3 active torsions:
  status: ('A' for Active; 'I' for Inactive)
    1  A    between atoms: C_3  and  C_25
    2  A    between atoms: C_7  and  C_11
    3  A    between atoms: C_8  and  C_18
                            x       y       z     vdW  Elec       q    Type
                         _______ _______ _______ _____ _____    ______ ____

>  <TORSDO>
F 3

$$$$
=
 OpenBabel11052420163D

 34 39  0  0  1  0  0  0  0  0999 V2000
  193.4420  173.6960  142.8700 N   0  0  0  0  0  0  0  0  0  0  0  0
  192.7530  171.7240  139.8360 C   0  0  0  0  0  3  0  0  0  0  0  0
  194.1320  171.0460  141.6240 N   0  0  0  0  0  2  0  0  0  0  0  0
  193.2380  175.6500  144.4350 C   0  0  2  0  0  3  0  0  0  0  0  0
  193.7410  175.4150  142.6950 S   0  0  0  0  0  0  0  0  0  0  0  0
  192.8810  171.9610  144.5990 C   0  0  1  0  0  3  0  0  0  0  0  0
  193.8350  171.1610  145.2620 O   0  0  0  0  0  0  0  0  0  0  0  0
  192.8990  174.3670  145.0600 N   0  0  0  0  0  2  0  0  0  0  0  0
  194.6280  171.0510  142.9940 C   0  0  0  0  0  2  0  0  0  0  0  0
  193.5250  173.3160  144.2730 C   0  0  2  0  0  3  0  0  0  0  0  0
  193.4880  170.7500  143.9620 C   0  0  2  0  0  3  0  0  0  0  0  0
  191.7550  172.5680  139.1200 C   0  0  0  0  0  2  0  0  0  0  0  0
  190.4120  172.4620  139.7730 C   0  0  0  0  0  0  0  0  0  0  0  0
  190.2230  172.9030  141.0190 C   0  0  0  0  0  3  0  0  0  0  0  0
  193.1330  171.9320  141.1000 C   0  0  0  0  0  0  0  0  0  0  0  0
  191.2840  173.4170  141.9080 C   0  0  0  0  0  3  0  0  0  0  0  0
  192.5760  173.0440  141.9310 C   0  0  0  0  0  0  0  0  0  0  0  0
  190.3790  177.4160  146.1910 C   0  0  0  0  0  2  0  0  0  0  0  0
  190.3400  177.9550  143.2440 C   0  0  0  0  0  2  0  0  0  0  0  0
  186.6680  176.8750  145.2090 C   0  0  2  0  0  3  0  0  0  0  0  0
  187.8920  177.0240  146.1270 C   0  0  0  0  0  2  0  0  0  0  0  0
  189.0760  177.7230  145.4460 C   0  0  2  0  0  3  0  0  0  0  0  0
  192.0870  176.6490  144.5460 C   0  0  1  0  0  3  0  0  0  0  0  0
  187.8350  178.0150  143.2600 C   0  0  0  0  0  2  0  0  0  0  0  0
  189.0870  177.4420  143.9330 C   0  0  1  0  0  3  0  0  0  0  0  0
  186.5930  177.9980  144.1660 C   0  0  0  0  0  2  0  0  0  0  0  0
  191.3830  176.8470  143.1990 C   0  0  0  0  0  2  0  0  0  0  0  0
  191.1240  176.2060  145.6440 C   0  0  0  0  0  2  0  0  0  0  0  0
  185.3900  176.7720  146.0350 C   0  0  0  0  0  3  0  0  0  0  0  0
  184.4920  177.7720  145.6610 O   0  0  0  0  0  1  0  0  0  0  0  0
  185.6680  176.8760  147.4000 O   0  0  0  0  0  1  0  0  0  0  0  0
  189.2710  171.9390  139.0040 C   0  0  0  0  0  0  0  0  0  0  0  0
  188.1800  172.5690  138.9780 O   0  0  0  0  0  1  0  0  0  0  0  0
  189.3860  170.7490  138.2940 O   0  0  0  0  0  0  0  0  0  0  0  0
  1 10  1  0  0  0  0
  2 15  2  0  0  0  0
  3  9  1  0  0  0  0
  4  5  1  6  0  0  0
  4 23  1  0  0  0  0
  4  8  1  0  0  0  0
  5  1  1  0  0  0  0
  6  7  1  1  0  0  0
 10  6  1  0  0  0  0
 10  8  1  1  0  0  0
 11  9  1  6  0  0  0
 11  6  1  0  0  0  0
 11  7  1  0  0  0  0
 12 13  1  0  0  0  0
 12  2  1  0  0  0  0
 13 14  2  0  0  0  0
 14 16  1  0  0  0  0
 15  3  1  0  0  0  0
 15 17  1  0  0  0  0
 16 17  2  0  0  0  0
 17  1  1  0  0  0  0
 20 29  1  1  0  0  0
 20 21  1  0  0  0  0
 22 21  1  1  0  0  0
 22 18  1  0  0  0  0
 23 27  1  6  0  0  0
 23 28  1  0  0  0  0
 24 25  1  0  0  0  0
 24 26  1  0  0  0  0
 25 19  1  6  0  0  0
 25 22  1  0  0  0  0
 26 20  1  0  0  0  0
 27 19  1  0  0  0  0
 28 18  1  0  0  0  0
 29 31  1  0  0  0  0
 30 29  1  0  0  0  0
 32 13  1  0  0  0  0
 33 32  1  0  0  0  0
 34 32  2  0  0  0  0
M  END
>  <MODEL>
6

>  <REMARK>
 VINA RESULT:      -7.7      2.911      3.832
  Name = 
  3 active torsions:
  status: ('A' for Active; 'I' for Inactive)
    1  A    between atoms: C_3  and  C_25
    2  A    between atoms: C_7  and  C_11
    3  A    between atoms: C_8  and  C_18
                            x       y       z     vdW  Elec       q    Type
                         _______ _______ _______ _____ _____    ______ ____

>  <TORSDO>
F 3

$$$$
=
 OpenBabel11052420163D

 34 39  0  0  1  0  0  0  0  0999 V2000
  194.4350  174.7720  144.6530 N   0  0  0  0  0  0  0  0  0  0  0  0
  197.5290  174.7010  142.6540 C   0  0  0  0  0  3  0  0  0  0  0  0
  197.1460  173.4660  144.6250 N   0  0  0  0  0  2  0  0  0  0  0  0
  192.0840  175.4440  145.2230 C   0  0  2  0  0  3  0  0  0  0  0  0
  193.6600  176.3190  144.9320 S   0  0  0  0  0  0  0  0  0  0  0  0
  194.0050  172.2990  144.7940 C   0  0  1  0  0  3  0  0  0  0  0  0
  194.3490  171.4940  145.8990 O   0  0  0  0  0  0  0  0  0  0  0  0
  192.2640  173.9920  145.1190 N   0  0  0  0  0  2  0  0  0  0  0  0
  196.3380  172.8220  145.6530 C   0  0  0  0  0  2  0  0  0  0  0  0
  193.6790  173.7110  145.3040 C   0  0  2  0  0  3  0  0  0  0  0  0
  195.3990  171.8020  145.0170 C   0  0  2  0  0  3  0  0  0  0  0  0
  197.1810  175.5620  141.4880 C   0  0  0  0  0  2  0  0  0  0  0  0
  196.2800  174.8300  140.5440 C   0  0  0  0  0  0  0  0  0  0  0  0
  195.0530  174.4590  140.9200 C   0  0  0  0  0  3  0  0  0  0  0  0
  196.6350  174.2550  143.5420 C   0  0  0  0  0  0  0  0  0  0  0  0
  194.5010  174.6120  142.2800 C   0  0  0  0  0  3  0  0  0  0  0  0
  195.1780  174.5760  143.4420 C   0  0  0  0  0  0  0  0  0  0  0  0
  189.6930  178.0110  143.7830 C   0  0  0  0  0  2  0  0  0  0  0  0
  189.0140  175.2480  142.8420 C   0  0  0  0  0  2  0  0  0  0  0  0
  185.8530  177.7950  144.2660 C   0  0  2  0  0  3  0  0  0  0  0  0
  187.2490  178.4360  144.2180 C   0  0  0  0  0  2  0  0  0  0  0  0
  188.2610  177.6180  143.4050 C   0  0  2  0  0  3  0  0  0  0  0  0
  190.9930  175.9420  144.2760 C   0  0  1  0  0  3  0  0  0  0  0  0
  186.5740  175.8190  142.8400 C   0  0  0  0  0  2  0  0  0  0  0  0
  187.9380  176.1160  143.4730 C   0  0  1  0  0  3  0  0  0  0  0  0
  185.5610  176.9620  143.0110 C   0  0  0  0  0  2  0  0  0  0  0  0
  190.0120  174.8230  143.9080 C   0  0  0  0  0  2  0  0  0  0  0  0
  190.2900  177.1500  144.8890 C   0  0  0  0  0  2  0  0  0  0  0  0
  184.7860  178.8570  144.5120 C   0  0  0  0  0  3  0  0  0  0  0  0
  183.7360  178.7050  143.6050 O   0  0  0  0  0  1  0  0  0  0  0  0
  185.3230  180.1410  144.3970 O   0  0  0  0  0  1  0  0  0  0  0  0
  196.7220  174.5860  139.1610 C   0  0  0  0  0  0  0  0  0  0  0  0
  195.9960  173.9280  138.3690 O   0  0  0  0  0  0  0  0  0  0  0  0
  197.9410  175.0830  138.7130 O   0  0  0  0  0  1  0  0  0  0  0  0
  1  5  1  0  0  0  0
  1 10  1  0  0  0  0
  2 15  2  0  0  0  0
  3  9  1  0  0  0  0
  4  5  1  6  0  0  0
  6 11  1  0  0  0  0
  6 10  1  0  0  0  0
  6  7  1  1  0  0  0
  8  4  1  0  0  0  0
 10  8  1  6  0  0  0
 11  9  1  1  0  0  0
 11  7  1  0  0  0  0
 12  2  1  0  0  0  0
 13 14  2  0  0  0  0
 13 12  1  0  0  0  0
 14 16  1  0  0  0  0
 15  3  1  0  0  0  0
 16 17  2  0  0  0  0
 17 15  1  0  0  0  0
 17  1  1  0  0  0  0
 18 28  1  0  0  0  0
 19 25  1  0  0  0  0
 19 27  1  0  0  0  0
 20 29  1  6  0  0  0
 21 20  1  0  0  0  0
 22 25  1  0  0  0  0
 22 18  1  1  0  0  0
 22 21  1  0  0  0  0
 23 27  1  1  0  0  0
 23 28  1  0  0  0  0
 23  4  1  0  0  0  0
 24 26  1  0  0  0  0
 25 24  1  6  0  0  0
 26 20  1  0  0  0  0
 30 29  1  0  0  0  0
 31 29  1  0  0  0  0
 32 13  1  0  0  0  0
 33 32  2  0  0  0  0
 34 32  1  0  0  0  0
M  END
>  <MODEL>
7

>  <REMARK>
 VINA RESULT:      -7.6      1.734      2.154
  Name = 
  3 active torsions:
  status: ('A' for Active; 'I' for Inactive)
    1  A    between atoms: C_3  and  C_25
    2  A    between atoms: C_7  and  C_11
    3  A    between atoms: C_8  and  C_18
                            x       y       z     vdW  Elec       q    Type
                         _______ _______ _______ _____ _____    ______ ____

>  <TORSDO>
F 3

$$$$
=
 OpenBabel11052420163D

 34 39  0  0  1  0  0  0  0  0999 V2000
  190.4030  174.1930  145.0770 N   0  0  0  0  0  0  0  0  0  0  0  0
  188.3260  176.6390  146.8880 C   0  0  0  0  0  3  0  0  0  0  0  0
  190.5890  176.1610  147.3460 N   0  0  0  0  0  2  0  0  0  0  0  0
  190.9250  172.4780  143.3190 C   0  0  2  0  0  3  0  0  0  0  0  0
  189.6910  172.6480  144.6550 S   0  0  0  0  0  0  0  0  0  0  0  0
  192.3670  175.6690  144.5440 C   0  0  1  0  0  3  0  0  0  0  0  0
  193.5670  175.6940  145.2850 O   0  0  0  0  0  0  0  0  0  0  0  0
  191.8410  173.6230  143.3030 N   0  0  0  0  0  2  0  0  0  0  0  0
  191.9310  175.6790  147.0470 C   0  0  0  0  0  2  0  0  0  0  0  0
  191.7830  174.2500  144.6130 C   0  0  2  0  0  3  0  0  0  0  0  0
  192.4930  176.4160  145.8360 C   0  0  2  0  0  3  0  0  0  0  0  0
  187.0480  176.6100  146.1210 C   0  0  0  0  0  2  0  0  0  0  0  0
  187.1950  177.3460  144.8270 C   0  0  0  0  0  0  0  0  0  0  0  0
  188.0310  176.9070  143.8820 C   0  0  0  0  0  3  0  0  0  0  0  0
  189.4590  176.0700  146.4660 C   0  0  0  0  0  0  0  0  0  0  0  0
  188.9550  175.7650  144.0310 C   0  0  0  0  0  3  0  0  0  0  0  0
  189.5560  175.3480  145.1600 C   0  0  0  0  0  0  0  0  0  0  0  0
  190.7860  171.5400  139.6470 C   0  0  0  0  0  2  0  0  0  0  0  0
  188.3290  173.0410  140.4760 C   0  0  0  0  0  2  0  0  0  0  0  0
  190.3220  174.1660  136.8330 C   0  0  2  0  0  3  0  0  0  0  0  0
  190.9140  172.9500  137.5640 C   0  0  0  0  0  2  0  0  0  0  0  0
  189.9890  172.3910  138.6530 C   0  0  2  0  0  3  0  0  0  0  0  0
  190.2460  172.2850  141.9640 C   0  0  1  0  0  3  0  0  0  0  0  0
  188.1910  174.1180  138.2180 C   0  0  0  0  0  2  0  0  0  0  0  0
  189.1250  173.5050  139.2690 C   0  0  1  0  0  3  0  0  0  0  0  0
  188.7880  174.1250  136.8020 C   0  0  0  0  0  2  0  0  0  0  0  0
  189.1280  173.3100  141.7430 C   0  0  0  0  0  2  0  0  0  0  0  0
  191.2910  172.3220  140.8520 C   0  0  0  0  0  2  0  0  0  0  0  0
  190.9220  174.2940  135.4370 C   0  0  0  0  0  3  0  0  0  0  0  0
  192.1930  173.7220  135.4050 O   0  0  0  0  0  1  0  0  0  0  0  0
  190.9990  175.6340  135.0480 O   0  0  0  0  0  1  0  0  0  0  0  0
  186.3510  178.5230  144.5610 C   0  0  0  0  0  0  0  0  0  0  0  0
  186.2970  179.0190  143.4050 O   0  0  0  0  0  0  0  0  0  0  0  0
  185.5980  179.0940  145.5820 O   0  0  0  0  0  1  0  0  0  0  0  0
  1 17  1  0  0  0  0
  4  8  1  6  0  0  0
  4  5  1  0  0  0  0
  5  1  1  0  0  0  0
  6 10  1  0  0  0  0
  6  7  1  1  0  0  0
  6 11  1  0  0  0  0
  7 11  1  0  0  0  0
  9  3  1  0  0  0  0
 10  8  1  6  0  0  0
 10  1  1  0  0  0  0
 11  9  1  1  0  0  0
 12  2  1  0  0  0  0
 13 12  1  0  0  0  0
 14 16  1  0  0  0  0
 14 13  2  0  0  0  0
 15  2  2  0  0  0  0
 15  3  1  0  0  0  0
 16 17  2  0  0  0  0
 17 15  1  0  0  0  0
 18 28  1  0  0  0  0
 19 27  1  0  0  0  0
 20 29  1  6  0  0  0
 20 21  1  0  0  0  0
 22 21  1  6  0  0  0
 22 25  1  0  0  0  0
 22 18  1  0  0  0  0
 23 28  1  6  0  0  0
 23  4  1  0  0  0  0
 25 24  1  6  0  0  0
 25 19  1  0  0  0  0
 26 20  1  0  0  0  0
 26 24  1  0  0  0  0
 27 23  1  0  0  0  0
 30 29  1  0  0  0  0
 31 29  1  0  0  0  0
 32 13  1  0  0  0  0
 32 34  1  0  0  0  0
 33 32  2  0  0  0  0
M  END
>  <MODEL>
8

>  <REMARK>
 VINA RESULT:      -7.5      3.431      7.867
  Name = 
  3 active torsions:
  status: ('A' for Active; 'I' for Inactive)
    1  A    between atoms: C_3  and  C_25
    2  A    between atoms: C_7  and  C_11
    3  A    between atoms: C_8  and  C_18
                            x       y       z     vdW  Elec       q    Type
                         _______ _______ _______ _____ _____    ______ ____

>  <TORSDO>
F 3

$$$$
=
 OpenBabel11052420163D

 34 39  0  0  1  0  0  0  0  0999 V2000
  190.1310  174.2540  145.0880 N   0  0  0  0  0  0  0  0  0  0  0  0
  187.3320  176.6480  145.1840 C   0  0  0  0  0  3  0  0  0  0  0  0
  189.0380  176.4730  146.8010 N   0  0  0  0  0  2  0  0  0  0  0  0
  191.5510  172.4180  144.1300 C   0  0  2  0  0  3  0  0  0  0  0  0
  189.7970  172.6030  144.6040 S   0  0  0  0  0  0  0  0  0  0  0  0
  192.0320  175.8650  145.4150 C   0  0  1  0  0  3  0  0  0  0  0  0
  192.6680  176.1040  146.6510 O   0  0  0  0  0  0  0  0  0  0  0  0
  192.3010  173.6470  144.4100 N   0  0  0  0  0  2  0  0  0  0  0  0
  190.3550  176.1100  147.3080 C   0  0  0  0  0  2  0  0  0  0  0  0
  191.5470  174.4080  145.3920 C   0  0  2  0  0  3  0  0  0  0  0  0
  191.4400  176.7620  146.4570 C   0  0  2  0  0  3  0  0  0  0  0  0
  186.6430  176.3930  143.8860 C   0  0  0  0  0  2  0  0  0  0  0  0
  187.4180  176.9910  142.7540 C   0  0  0  0  0  0  0  0  0  0  0  0
  188.6380  176.5410  142.4500 C   0  0  0  0  0  3  0  0  0  0  0  0
  188.5370  176.1620  145.4930 C   0  0  0  0  0  0  0  0  0  0  0  0
  189.3870  175.5310  143.2230 C   0  0  0  0  0  3  0  0  0  0  0  0
  189.3250  175.3110  144.5490 C   0  0  0  0  0  0  0  0  0  0  0  0
  192.4830  172.9130  140.4870 C   0  0  0  0  0  2  0  0  0  0  0  0
  190.7640  170.4850  140.8470 C   0  0  0  0  0  2  0  0  0  0  0  0
  189.8330  173.2400  137.6770 C   0  0  2  0  0  3  0  0  0  0  0  0
  191.0950  173.5680  138.4900 C   0  0  0  0  0  2  0  0  0  0  0  0
  191.5650  172.4030  139.3710 C   0  0  2  0  0  3  0  0  0  0  0  0
  191.6850  172.0010  142.6660 C   0  0  1  0  0  3  0  0  0  0  0  0
  189.6840  170.8850  138.6210 C   0  0  0  0  0  2  0  0  0  0  0  0
  190.3760  171.5380  139.8240 C   0  0  1  0  0  3  0  0  0  0  0  0
  189.7350  171.7440  137.3480 C   0  0  0  0  0  2  0  0  0  0  0  0
  190.5640  171.0430  142.2490 C   0  0  0  0  0  2  0  0  0  0  0  0
  191.7460  173.2420  141.7790 C   0  0  0  0  0  2  0  0  0  0  0  0
  189.7620  174.1090  136.4250 C   0  0  0  0  0  3  0  0  0  0  0  0
  188.5810  174.8510  136.4200 O   0  0  0  0  0  1  0  0  0  0  0  0
  189.8310  173.3270  135.2700 O   0  0  0  0  0  1  0  0  0  0  0  0
  186.7960  178.0300  141.9180 C   0  0  0  0  0  0  0  0  0  0  0  0
  186.2680  179.0430  142.4510 O   0  0  0  0  0  1  0  0  0  0  0  0
  186.7900  177.9110  140.5320 O   0  0  0  0  0  0  0  0  0  0  0  0
  1 10  1  0  0  0  0
  2 15  2  0  0  0  0
  3  9  1  0  0  0  0
  4  8  1  6  0  0  0
  4  5  1  0  0  0  0
  5  1  1  0  0  0  0
  6 11  1  0  0  0  0
  6  7  1  1  0  0  0
 10  8  1  6  0  0  0
 10  6  1  0  0  0  0
 11  7  1  0  0  0  0
 11  9  1  1  0  0  0
 12  2  1  0  0  0  0
 13 12  1  0  0  0  0
 14 13  2  0  0  0  0
 14 16  1  0  0  0  0
 15  3  1  0  0  0  0
 16 17  2  0  0  0  0
 17  1  1  0  0  0  0
 17 15  1  0  0  0  0
 18 28  1  0  0  0  0
 19 27  1  0  0  0  0
 20 29  1  6  0  0  0
 20 21  1  0  0  0  0
 22 21  1  1  0  0  0
 22 25  1  0  0  0  0
 22 18  1  0  0  0  0
 23 28  1  6  0  0  0
 23  4  1  0  0  0  0
 25 24  1  6  0  0  0
 25 19  1  0  0  0  0
 26 20  1  0  0  0  0
 26 24  1  0  0  0  0
 27 23  1  0  0  0  0
 30 29  1  0  0  0  0
 31 29  1  0  0  0  0
 32 33  1  0  0  0  0
 32 13  1  0  0  0  0
 34 32  2  0  0  0  0
M  END
>  <MODEL>
9

>  <REMARK>
 VINA RESULT:      -7.4      3.515      7.546
  Name = 
  3 active torsions:
  status: ('A' for Active; 'I' for Inactive)
    1  A    between atoms: C_3  and  C_25
    2  A    between atoms: C_7  and  C_11
    3  A    between atoms: C_8  and  C_18
                            x       y       z     vdW  Elec       q    Type
                         _______ _______ _______ _____ _____    ______ ____

>  <TORSDO>
F 3

$$$$
