=
 OpenBabel11052418063D

 28 31  0  0  1  0  0  0  0  0999 V2000
  185.3460  177.8350  143.8480 C   0  0  0  0  0  0  0  0  0  0  0  0
  184.6280  177.7160  139.7070 O   0  0  0  0  0  1  0  0  0  0  0  0
  188.7210  176.9120  142.5500 N   0  0  2  0  0  0  0  0  0  0  0  0
  186.1080  177.3030  141.5850 C   0  0  0  0  0  0  0  0  0  0  0  0
  187.6270  176.7670  143.5150 C   0  0  0  0  0  2  0  0  0  0  0  0
  183.8840  178.2000  141.9410 C   0  0  0  0  0  3  0  0  0  0  0  0
  187.1920  176.8540  140.6380 C   0  0  0  0  0  2  0  0  0  0  0  0
  184.8760  177.7400  141.0750 C   0  0  0  0  0  0  0  0  0  0  0  0
  188.3210  176.1330  141.3740 C   0  0  0  0  0  2  0  0  0  0  0  0
  184.1160  178.2440  143.3160 C   0  0  0  0  0  3  0  0  0  0  0  0
  186.3500  177.3580  142.9760 C   0  0  0  0  0  0  0  0  0  0  0  0
  190.2630  174.9800  142.4590 C   0  0  0  0  0  2  0  0  0  0  0  0
  192.5000  176.5870  142.8600 C   0  0  0  0  0  2  0  0  0  0  0  0
  192.0040  174.5290  144.3100 C   0  0  0  0  0  0  0  0  0  0  0  0
  189.9420  176.3240  143.1250 C   0  0  1  0  0  3  0  0  0  0  0  0
  191.1690  178.1940  144.0070 F   0  0  0  0  0  0  0  0  0  0  0  0
  192.7360  175.7280  144.0120 N   0  0  0  0  0  2  0  0  0  0  0  0
  191.1410  177.2870  142.9630 C   0  0  1  0  0  3  0  0  0  0  0  0
  192.3240  173.8700  145.3330 O   0  0  0  0  0  0  0  0  0  0  0  0
  190.8840  173.9970  143.4510 C   0  0  0  0  0  2  0  0  0  0  0  0
  185.5420  177.9000  145.3110 C   0  0  0  0  0  0  0  0  0  0  0  0
  185.5290  176.7110  146.0540 C   0  0  0  0  0  3  0  0  0  0  0  0
  185.9140  179.1470  147.3670 C   0  0  0  0  0  0  0  0  0  0  0  0
  185.7150  176.7360  147.4380 C   0  0  0  0  0  3  0  0  0  0  0  0
  185.6840  180.3300  145.2790 O   0  0  0  0  0  1  0  0  0  0  0  0
  185.7190  179.1280  145.9800 C   0  0  0  0  0  0  0  0  0  0  0  0
  186.0940  180.3240  148.0160 F   0  0  0  0  0  0  0  0  0  0  0  0
  185.9100  177.9540  148.0930 C   0  0  0  0  0  3  0  0  0  0  0  0
  1 21  1  0  0  0  0
  2  8  1  0  0  0  0
  3  9  1  6  0  0  0
  3 15  1  0  0  0  0
  3  5  1  0  0  0  0
  4 11  1  0  0  0  0
  6 10  2  0  0  0  0
  7  9  1  0  0  0  0
  7  4  1  0  0  0  0
  8  4  2  0  0  0  0
  8  6  1  0  0  0  0
 10  1  1  0  0  0  0
 11  5  1  0  0  0  0
 11  1  2  0  0  0  0
 12 20  1  0  0  0  0
 13 18  1  0  0  0  0
 13 17  1  0  0  0  0
 14 19  2  0  0  0  0
 15 12  1  6  0  0  0
 17 14  1  0  0  0  0
 18 15  1  0  0  0  0
 18 16  1  1  0  0  0
 20 14  1  0  0  0  0
 21 26  2  0  0  0  0
 21 22  1  0  0  0  0
 22 24  2  0  0  0  0
 23 27  1  0  0  0  0
 23 28  2  0  0  0  0
 24 28  1  0  0  0  0
 25 26  1  0  0  0  0
 26 23  1  0  0  0  0
M  END
>  <MODEL>
1

>  <REMARK>
 VINA RESULT:      -8.2      0.000      0.000
  Name = 
  2 active torsions:
  status: ('A' for Active; 'I' for Inactive)
    1  A    between atoms: C_1  and  C_2
    2  A    between atoms: N_10  and  C_13
                            x       y       z     vdW  Elec       q    Type
                         _______ _______ _______ _____ _____    ______ ____

>  <TORSDO>
F 2

$$$$
=
 OpenBabel11052418063D

 28 31  0  0  1  0  0  0  0  0999 V2000
  190.6000  174.8580  145.3130 C   0  0  0  0  0  0  0  0  0  0  0  0
  191.6160  177.0290  148.7660 O   0  0  0  0  0  1  0  0  0  0  0  0
  188.1480  177.6670  145.1540 N   0  0  2  0  0  0  0  0  0  0  0  0
  190.1200  176.6650  146.8910 C   0  0  0  0  0  0  0  0  0  0  0  0
  188.4940  176.2500  145.0190 C   0  0  0  0  0  2  0  0  0  0  0  0
  192.0520  175.2380  147.2240 C   0  0  0  0  0  3  0  0  0  0  0  0
  189.3000  177.8600  147.3060 C   0  0  0  0  0  2  0  0  0  0  0  0
  191.2620  176.3140  147.6280 C   0  0  0  0  0  0  0  0  0  0  0  0
  187.9510  177.8960  146.5890 C   0  0  0  0  0  2  0  0  0  0  0  0
  191.7220  174.5140  146.0780 C   0  0  0  0  0  3  0  0  0  0  0  0
  189.7900  175.9400  145.7240 C   0  0  0  0  0  0  0  0  0  0  0  0
  186.2980  176.6080  143.9020 C   0  0  0  0  0  2  0  0  0  0  0  0
  184.3940  178.2830  145.0490 C   0  0  0  0  0  2  0  0  0  0  0  0
  184.6180  177.9880  142.5110 C   0  0  0  0  0  0  0  0  0  0  0  0
  186.8810  177.9170  144.4480 C   0  0  1  0  0  3  0  0  0  0  0  0
  186.0440  179.9660  145.3880 F   0  0  0  0  0  0  0  0  0  0  0  0
  184.0840  178.6410  143.6720 N   0  0  0  0  0  2  0  0  0  0  0  0
  185.8550  178.5950  145.3850 C   0  0  1  0  0  3  0  0  0  0  0  0
  184.2520  178.3890  141.3760 O   0  0  0  0  0  0  0  0  0  0  0  0
  185.5780  176.8250  142.5710 C   0  0  0  0  0  2  0  0  0  0  0  0
  190.2910  174.0600  144.1080 C   0  0  0  0  0  0  0  0  0  0  0  0
  189.6400  172.8270  144.2550 C   0  0  0  0  0  3  0  0  0  0  0  0
  190.3370  173.7170  141.6990 C   0  0  0  0  0  0  0  0  0  0  0  0
  189.3310  172.0490  143.1370 C   0  0  0  0  0  3  0  0  0  0  0  0
  191.3510  175.6890  142.6430 O   0  0  0  0  0  1  0  0  0  0  0  0
  190.6570  174.4970  142.8180 C   0  0  0  0  0  0  0  0  0  0  0  0
  190.6760  174.1340  140.4550 F   0  0  0  0  0  0  0  0  0  0  0  0
  189.6770  172.4970  141.8600 C   0  0  0  0  0  3  0  0  0  0  0  0
  1 11  2  0  0  0  0
  1 10  1  0  0  0  0
  3  5  1  1  0  0  0
  3  9  1  0  0  0  0
  4  7  1  0  0  0  0
  4  8  2  0  0  0  0
  5 11  1  0  0  0  0
  6  8  1  0  0  0  0
  8  2  1  0  0  0  0
  9  7  1  0  0  0  0
 10  6  2  0  0  0  0
 11  4  1  0  0  0  0
 13 18  1  0  0  0  0
 14 20  1  0  0  0  0
 14 17  1  0  0  0  0
 15 12  1  1  0  0  0
 15  3  1  0  0  0  0
 15 18  1  0  0  0  0
 17 13  1  0  0  0  0
 18 16  1  6  0  0  0
 19 14  2  0  0  0  0
 20 12  1  0  0  0  0
 21 22  1  0  0  0  0
 21  1  1  0  0  0  0
 23 28  2  0  0  0  0
 23 26  1  0  0  0  0
 24 22  2  0  0  0  0
 25 26  1  0  0  0  0
 26 21  2  0  0  0  0
 27 23  1  0  0  0  0
 28 24  1  0  0  0  0
M  END
>  <MODEL>
2

>  <REMARK>
 VINA RESULT:      -8.2      2.723      7.526
  Name = 
  2 active torsions:
  status: ('A' for Active; 'I' for Inactive)
    1  A    between atoms: C_1  and  C_2
    2  A    between atoms: N_10  and  C_13
                            x       y       z     vdW  Elec       q    Type
                         _______ _______ _______ _____ _____    ______ ____

>  <TORSDO>
F 2

$$$$
=
 OpenBabel11052418063D

 28 31  0  0  1  0  0  0  0  0999 V2000
  190.6590  174.7300  143.8570 C   0  0  0  0  0  0  0  0  0  0  0  0
  190.1630  173.5830  139.8430 O   0  0  0  0  0  1  0  0  0  0  0  0
  187.2260  176.0110  143.1530 N   0  0  2  0  0  0  0  0  0  0  0  0
  189.3630  174.8010  141.7830 C   0  0  0  0  0  0  0  0  0  0  0  0
  188.5600  176.1570  143.7420 C   0  0  0  0  0  2  0  0  0  0  0  0
  191.4410  173.5540  141.8790 C   0  0  0  0  0  3  0  0  0  0  0  0
  188.1300  175.2140  141.0220 C   0  0  0  0  0  2  0  0  0  0  0  0
  190.3190  173.9790  141.1670 C   0  0  0  0  0  0  0  0  0  0  0  0
  187.3780  176.3400  141.7320 C   0  0  0  0  0  2  0  0  0  0  0  0
  191.6110  173.9290  143.2120 C   0  0  0  0  0  3  0  0  0  0  0  0
  189.5280  175.1730  143.1370 C   0  0  0  0  0  0  0  0  0  0  0  0
  187.0380  177.7530  144.8990 C   0  0  0  0  0  2  0  0  0  0  0  0
  185.4430  179.3700  143.2920 C   0  0  0  0  0  2  0  0  0  0  0  0
  184.7570  178.6830  145.6660 C   0  0  0  0  0  0  0  0  0  0  0  0
  186.3210  176.9890  143.7790 C   0  0  1  0  0  3  0  0  0  0  0  0
  184.6660  177.4610  142.1000 F   0  0  0  0  0  0  0  0  0  0  0  0
  184.4860  179.2730  144.3860 N   0  0  0  0  0  2  0  0  0  0  0  0
  185.7800  177.9870  142.7290 C   0  0  1  0  0  3  0  0  0  0  0  0
  183.8420  178.6800  146.5300 O   0  0  0  0  0  0  0  0  0  0  0  0
  186.0890  178.0870  146.0490 C   0  0  0  0  0  2  0  0  0  0  0  0
  190.8860  175.1020  145.2690 C   0  0  0  0  0  0  0  0  0  0  0  0
  189.9970  174.6350  146.2480 C   0  0  0  0  0  3  0  0  0  0  0  0
  192.1470  176.2530  147.0030 C   0  0  0  0  0  0  0  0  0  0  0  0
  190.1850  174.9650  147.5920 C   0  0  0  0  0  3  0  0  0  0  0  0
  192.8270  176.4550  144.6990 O   0  0  0  0  0  1  0  0  0  0  0  0
  191.9590  175.9330  145.6520 C   0  0  0  0  0  0  0  0  0  0  0  0
  193.1820  177.0440  147.3800 F   0  0  0  0  0  0  0  0  0  0  0  0
  191.2610  175.7710  147.9680 C   0  0  0  0  0  3  0  0  0  0  0  0
  1 21  1  0  0  0  0
  2  8  1  0  0  0  0
  3  9  1  6  0  0  0
  3  5  1  0  0  0  0
  3 15  1  0  0  0  0
  4 11  1  0  0  0  0
  6 10  2  0  0  0  0
  7  9  1  0  0  0  0
  7  4  1  0  0  0  0
  8  4  2  0  0  0  0
  8  6  1  0  0  0  0
 10  1  1  0  0  0  0
 11  5  1  0  0  0  0
 11  1  2  0  0  0  0
 12 20  1  0  0  0  0
 13 17  1  0  0  0  0
 14 20  1  0  0  0  0
 14 19  2  0  0  0  0
 15 12  1  1  0  0  0
 17 14  1  0  0  0  0
 18 16  1  1  0  0  0
 18 13  1  0  0  0  0
 18 15  1  0  0  0  0
 21 26  2  0  0  0  0
 21 22  1  0  0  0  0
 22 24  2  0  0  0  0
 23 27  1  0  0  0  0
 23 28  2  0  0  0  0
 24 28  1  0  0  0  0
 25 26  1  0  0  0  0
 26 23  1  0  0  0  0
M  END
>  <MODEL>
3

>  <REMARK>
 VINA RESULT:      -8.2      2.788      6.360
  Name = 
  2 active torsions:
  status: ('A' for Active; 'I' for Inactive)
    1  A    between atoms: C_1  and  C_2
    2  A    between atoms: N_10  and  C_13
                            x       y       z     vdW  Elec       q    Type
                         _______ _______ _______ _____ _____    ______ ____

>  <TORSDO>
F 2

$$$$
=
 OpenBabel11052418063D

 28 31  0  0  1  0  0  0  0  0999 V2000
  185.0610  177.9590  143.8860 C   0  0  0  0  0  0  0  0  0  0  0  0
  183.9640  177.9910  139.8280 O   0  0  0  0  0  1  0  0  0  0  0  0
  188.3230  177.1910  142.2450 N   0  0  2  0  0  0  0  0  0  0  0  0
  185.6220  177.5440  141.5420 C   0  0  0  0  0  0  0  0  0  0  0  0
  187.3280  176.9740  143.2990 C   0  0  0  0  0  2  0  0  0  0  0  0
  183.4190  178.3600  142.1400 C   0  0  0  0  0  3  0  0  0  0  0  0
  186.6250  177.1680  140.4810 C   0  0  0  0  0  2  0  0  0  0  0  0
  184.3380  177.9660  141.1670 C   0  0  0  0  0  0  0  0  0  0  0  0
  187.8360  176.4500  141.0770 C   0  0  0  0  0  2  0  0  0  0  0  0
  183.7760  178.3530  143.4890 C   0  0  0  0  0  3  0  0  0  0  0  0
  185.9910  177.5480  142.9060 C   0  0  0  0  0  0  0  0  0  0  0  0
  190.4570  177.6710  143.3980 C   0  0  0  0  0  2  0  0  0  0  0  0
  190.4980  175.1750  144.6290 C   0  0  0  0  0  2  0  0  0  0  0  0
  192.4770  176.0700  143.2640 C   0  0  0  0  0  0  0  0  0  0  0  0
  189.6070  176.6170  142.6780 C   0  0  1  0  0  3  0  0  0  0  0  0
  189.1960  174.2550  142.8610 F   0  0  0  0  0  0  0  0  0  0  0  0
  191.7870  175.0260  143.9690 N   0  0  0  0  0  2  0  0  0  0  0  0
  189.3790  175.4040  143.6090 C   0  0  1  0  0  3  0  0  0  0  0  0
  193.5960  175.8090  142.7520 O   0  0  0  0  0  0  0  0  0  0  0  0
  191.9470  177.4760  143.1210 C   0  0  0  0  0  2  0  0  0  0  0  0
  185.3900  177.9680  145.3270 C   0  0  0  0  0  0  0  0  0  0  0  0
  185.4340  176.7530  146.0250 C   0  0  0  0  0  3  0  0  0  0  0  0
  185.9600  179.1370  147.3840 C   0  0  0  0  0  0  0  0  0  0  0  0
  185.7450  176.7260  147.3850 C   0  0  0  0  0  3  0  0  0  0  0  0
  185.5510  180.3970  145.3700 O   0  0  0  0  0  1  0  0  0  0  0  0
  185.6390  179.1710  146.0210 C   0  0  0  0  0  0  0  0  0  0  0  0
  186.2100  180.2880  148.0560 F   0  0  0  0  0  0  0  0  0  0  0  0
  186.0120  177.9180  148.0630 C   0  0  0  0  0  3  0  0  0  0  0  0
  1 21  1  0  0  0  0
  2  8  1  0  0  0  0
  3  9  1  6  0  0  0
  3 15  1  0  0  0  0
  3  5  1  0  0  0  0
  4 11  1  0  0  0  0
  6 10  2  0  0  0  0
  7  9  1  0  0  0  0
  7  4  1  0  0  0  0
  8  4  2  0  0  0  0
  8  6  1  0  0  0  0
 10  1  1  0  0  0  0
 11  5  1  0  0  0  0
 11  1  2  0  0  0  0
 14 17  1  0  0  0  0
 15 12  1  1  0  0  0
 15 18  1  0  0  0  0
 17 13  1  0  0  0  0
 18 16  1  6  0  0  0
 18 13  1  0  0  0  0
 19 14  2  0  0  0  0
 20 14  1  0  0  0  0
 20 12  1  0  0  0  0
 21 26  2  0  0  0  0
 21 22  1  0  0  0  0
 22 24  2  0  0  0  0
 23 27  1  0  0  0  0
 23 28  2  0  0  0  0
 24 28  1  0  0  0  0
 25 26  1  0  0  0  0
 26 23  1  0  0  0  0
M  END
>  <MODEL>
4

>  <REMARK>
 VINA RESULT:      -8.1      1.296      1.683
  Name = 
  2 active torsions:
  status: ('A' for Active; 'I' for Inactive)
    1  A    between atoms: C_1  and  C_2
    2  A    between atoms: N_10  and  C_13
                            x       y       z     vdW  Elec       q    Type
                         _______ _______ _______ _____ _____    ______ ____

>  <TORSDO>
F 2

$$$$
=
 OpenBabel11052418063D

 28 31  0  0  1  0  0  0  0  0999 V2000
  186.8400  176.8590  144.2220 C   0  0  0  0  0  0  0  0  0  0  0  0
  185.9450  177.9020  148.1950 O   0  0  0  0  0  1  0  0  0  0  0  0
  190.1260  176.2620  145.8890 N   0  0  2  0  0  0  0  0  0  0  0  0
  187.5840  177.2920  146.5120 C   0  0  0  0  0  0  0  0  0  0  0  0
  189.3190  176.7620  144.7720 C   0  0  0  0  0  2  0  0  0  0  0  0
  185.2390  177.5070  145.9310 C   0  0  0  0  0  3  0  0  0  0  0  0
  188.6710  177.3090  147.5560 C   0  0  0  0  0  2  0  0  0  0  0  0
  186.2580  177.5660  146.8820 C   0  0  0  0  0  0  0  0  0  0  0  0
  190.0620  177.2980  146.9240 C   0  0  0  0  0  2  0  0  0  0  0  0
  185.5290  177.1590  144.6110 C   0  0  0  0  0  3  0  0  0  0  0  0
  187.8770  176.9280  145.1780 C   0  0  0  0  0  0  0  0  0  0  0  0
  191.8600  177.1640  144.3750 C   0  0  0  0  0  2  0  0  0  0  0  0
  193.8760  176.7910  146.2570 C   0  0  0  0  0  2  0  0  0  0  0  0
  194.0390  175.8770  143.8660 C   0  0  0  0  0  0  0  0  0  0  0  0
  191.5200  176.1140  145.4400 C   0  0  1  0  0  3  0  0  0  0  0  0
  192.6420  175.0200  147.2630 F   0  0  0  0  0  0  0  0  0  0  0  0
  194.5000  175.9790  145.2220 N   0  0  0  0  0  2  0  0  0  0  0  0
  192.4960  176.2420  146.6320 C   0  0  1  0  0  3  0  0  0  0  0  0
  194.6840  175.1500  143.0670 O   0  0  0  0  0  0  0  0  0  0  0  0
  192.8340  176.6120  143.3330 C   0  0  0  0  0  2  0  0  0  0  0  0
  187.0960  176.4980  142.8120 C   0  0  0  0  0  0  0  0  0  0  0  0
  187.6470  175.2420  142.5180 C   0  0  0  0  0  3  0  0  0  0  0  0
  187.0660  177.0090  140.4330 C   0  0  0  0  0  0  0  0  0  0  0  0
  187.8980  174.8680  141.1960 C   0  0  0  0  0  3  0  0  0  0  0  0
  186.3240  178.6660  142.0190 O   0  0  0  0  0  1  0  0  0  0  0  0
  186.8210  177.3930  141.7580 C   0  0  0  0  0  0  0  0  0  0  0  0
  186.7960  177.8610  139.4130 F   0  0  0  0  0  0  0  0  0  0  0  0
  187.6040  175.7510  140.1550 C   0  0  0  0  0  3  0  0  0  0  0  0
  1 10  2  0  0  0  0
  1 11  1  0  0  0  0
  3  5  1  6  0  0  0
  3  9  1  0  0  0  0
  4  8  1  0  0  0  0
  4  7  1  0  0  0  0
  5 11  1  0  0  0  0
  6  8  2  0  0  0  0
  8  2  1  0  0  0  0
  9  7  1  0  0  0  0
 10  6  1  0  0  0  0
 11  4  2  0  0  0  0
 13 18  1  0  0  0  0
 14 17  1  0  0  0  0
 15 12  1  6  0  0  0
 15  3  1  0  0  0  0
 15 18  1  0  0  0  0
 17 13  1  0  0  0  0
 18 16  1  6  0  0  0
 19 14  2  0  0  0  0
 20 14  1  0  0  0  0
 20 12  1  0  0  0  0
 21  1  1  0  0  0  0
 22 21  1  0  0  0  0
 23 26  1  0  0  0  0
 24 22  2  0  0  0  0
 26 25  1  0  0  0  0
 26 21  2  0  0  0  0
 27 23  1  0  0  0  0
 28 23  2  0  0  0  0
 28 24  1  0  0  0  0
M  END
>  <MODEL>
5

>  <REMARK>
 VINA RESULT:      -7.8      2.726      4.988
  Name = 
  2 active torsions:
  status: ('A' for Active; 'I' for Inactive)
    1  A    between atoms: C_1  and  C_2
    2  A    between atoms: N_10  and  C_13
                            x       y       z     vdW  Elec       q    Type
                         _______ _______ _______ _____ _____    ______ ____

>  <TORSDO>
F 2

$$$$
=
 OpenBabel11052418063D

 28 31  0  0  1  0  0  0  0  0999 V2000
  188.3470  176.8150  144.5750 C   0  0  0  0  0  0  0  0  0  0  0  0
  185.8180  178.4170  141.6230 O   0  0  0  0  0  1  0  0  0  0  0  0
  189.3940  174.8540  141.5770 N   0  0  2  0  0  0  0  0  0  0  0  0
  187.4480  176.7520  142.3000 C   0  0  0  0  0  0  0  0  0  0  0  0
  189.0570  174.9510  143.0000 C   0  0  0  0  0  2  0  0  0  0  0  0
  186.6870  178.4410  143.8640 C   0  0  0  0  0  3  0  0  0  0  0  0
  187.4410  176.1710  140.9090 C   0  0  0  0  0  2  0  0  0  0  0  0
  186.6520  177.8700  142.5920 C   0  0  0  0  0  0  0  0  0  0  0  0
  188.1130  174.7990  140.8660 C   0  0  0  0  0  2  0  0  0  0  0  0
  187.5260  177.9160  144.8480 C   0  0  0  0  0  3  0  0  0  0  0  0
  188.3070  176.2250  143.2920 C   0  0  0  0  0  0  0  0  0  0  0  0
  189.5930  172.4840  142.2560 C   0  0  0  0  0  2  0  0  0  0  0  0
  190.1000  171.6500  139.6490 C   0  0  0  0  0  2  0  0  0  0  0  0
  191.6340  171.0420  141.6130 C   0  0  0  0  0  0  0  0  0  0  0  0
  190.1270  173.5980  141.3470 C   0  0  1  0  0  3  0  0  0  0  0  0
  190.9920  173.7910  139.1120 F   0  0  0  0  0  0  0  0  0  0  0  0
  191.3270  171.1040  140.2120 N   0  0  0  0  0  2  0  0  0  0  0  0
  190.0180  173.1630  139.8670 C   0  0  1  0  0  3  0  0  0  0  0  0
  192.7280  170.5280  141.9640 O   0  0  0  0  0  0  0  0  0  0  0  0
  190.7080  171.5360  142.6960 C   0  0  0  0  0  2  0  0  0  0  0  0
  189.2170  176.2940  145.6510 C   0  0  0  0  0  0  0  0  0  0  0  0
  188.6720  175.4280  146.6090 C   0  0  0  0  0  3  0  0  0  0  0  0
  191.3680  176.1430  146.7780 C   0  0  0  0  0  0  0  0  0  0  0  0
  189.4660  174.9160  147.6360 C   0  0  0  0  0  3  0  0  0  0  0  0
  191.1300  177.5670  144.8470 O   0  0  0  0  0  1  0  0  0  0  0  0
  190.5730  176.6670  145.7500 C   0  0  0  0  0  0  0  0  0  0  0  0
  192.6750  176.4890  146.8750 F   0  0  0  0  0  0  0  0  0  0  0  0
  190.8140  175.2710  147.7180 C   0  0  0  0  0  3  0  0  0  0  0  0
  1 10  1  0  0  0  0
  1 21  1  0  0  0  0
  2  8  1  0  0  0  0
  3  9  1  6  0  0  0
  3  5  1  0  0  0  0
  4  8  2  0  0  0  0
  4 11  1  0  0  0  0
  5 11  1  0  0  0  0
  6 10  2  0  0  0  0
  7  4  1  0  0  0  0
  8  6  1  0  0  0  0
  9  7  1  0  0  0  0
 11  1  2  0  0  0  0
 12 20  1  0  0  0  0
 13 18  1  0  0  0  0
 13 17  1  0  0  0  0
 14 19  2  0  0  0  0
 14 20  1  0  0  0  0
 15  3  1  0  0  0  0
 15 12  1  1  0  0  0
 17 14  1  0  0  0  0
 18 16  1  6  0  0  0
 18 15  1  0  0  0  0
 21 26  2  0  0  0  0
 21 22  1  0  0  0  0
 22 24  2  0  0  0  0
 23 27  1  0  0  0  0
 23 28  2  0  0  0  0
 24 28  1  0  0  0  0
 25 26  1  0  0  0  0
 26 23  1  0  0  0  0
M  END
>  <MODEL>
6

>  <REMARK>
 VINA RESULT:      -7.7      3.165      4.339
  Name = 
  2 active torsions:
  status: ('A' for Active; 'I' for Inactive)
    1  A    between atoms: C_1  and  C_2
    2  A    between atoms: N_10  and  C_13
                            x       y       z     vdW  Elec       q    Type
                         _______ _______ _______ _____ _____    ______ ____

>  <TORSDO>
F 2

$$$$
=
 OpenBabel11052418063D

 28 31  0  0  1  0  0  0  0  0999 V2000
  191.4330  174.3660  143.5670 C   0  0  0  0  0  0  0  0  0  0  0  0
  189.8140  172.2130  140.3390 O   0  0  0  0  0  1  0  0  0  0  0  0
  187.9310  175.6540  143.5160 N   0  0  2  0  0  0  0  0  0  0  0  0
  189.5950  173.9660  142.0020 C   0  0  0  0  0  0  0  0  0  0  0  0
  189.3760  175.8570  143.6450 C   0  0  0  0  0  2  0  0  0  0  0  0
  191.6230  172.6440  141.8630 C   0  0  0  0  0  3  0  0  0  0  0  0
  188.1910  174.2460  141.5300 C   0  0  0  0  0  2  0  0  0  0  0  0
  190.3400  172.9400  141.4010 C   0  0  0  0  0  0  0  0  0  0  0  0
  187.6650  175.5730  142.0760 C   0  0  0  0  0  2  0  0  0  0  0  0
  192.1660  173.3540  142.9350 C   0  0  0  0  0  3  0  0  0  0  0  0
  190.1380  174.6780  143.0960 C   0  0  0  0  0  0  0  0  0  0  0  0
  185.8000  176.9090  143.5360 C   0  0  0  0  0  2  0  0  0  0  0  0
  186.0150  177.4770  146.2520 C   0  0  0  0  0  2  0  0  0  0  0  0
  185.6270  179.3000  144.4900 C   0  0  0  0  0  0  0  0  0  0  0  0
  187.2360  176.8280  144.0690 C   0  0  1  0  0  3  0  0  0  0  0  0
  188.3870  177.3160  146.1230 F   0  0  0  0  0  0  0  0  0  0  0  0
  185.9280  178.8670  145.8250 N   0  0  0  0  0  2  0  0  0  0  0  0
  187.2180  176.7770  145.6140 C   0  0  1  0  0  3  0  0  0  0  0  0
  185.5670  180.5360  144.2610 O   0  0  0  0  0  0  0  0  0  0  0  0
  185.3520  178.3570  143.3450 C   0  0  0  0  0  2  0  0  0  0  0  0
  192.0530  175.0890  144.6970 C   0  0  0  0  0  0  0  0  0  0  0  0
  191.6300  174.8030  146.0030 C   0  0  0  0  0  3  0  0  0  0  0  0
  193.6110  176.7310  145.5900 C   0  0  0  0  0  0  0  0  0  0  0  0
  192.1980  175.4660  147.0940 C   0  0  0  0  0  3  0  0  0  0  0  0
  193.4420  176.4200  143.2060 O   0  0  0  0  0  1  0  0  0  0  0  0
  193.0400  176.0760  144.4920 C   0  0  0  0  0  0  0  0  0  0  0  0
  194.5680  177.6730  145.4020 F   0  0  0  0  0  0  0  0  0  0  0  0
  193.1900  176.4270  146.8860 C   0  0  0  0  0  3  0  0  0  0  0  0
  1 21  1  0  0  0  0
  2  8  1  0  0  0  0
  3  9  1  6  0  0  0
  3  5  1  0  0  0  0
  3 15  1  0  0  0  0
  4 11  2  0  0  0  0
  6 10  1  0  0  0  0
  7  4  1  0  0  0  0
  7  9  1  0  0  0  0
  8  6  2  0  0  0  0
  8  4  1  0  0  0  0
 10  1  2  0  0  0  0
 11  1  1  0  0  0  0
 11  5  1  0  0  0  0
 14 17  1  0  0  0  0
 15 12  1  6  0  0  0
 15 18  1  0  0  0  0
 17 13  1  0  0  0  0
 18 16  1  1  0  0  0
 18 13  1  0  0  0  0
 19 14  2  0  0  0  0
 20 12  1  0  0  0  0
 20 14  1  0  0  0  0
 21 22  1  0  0  0  0
 22 24  2  0  0  0  0
 23 28  2  0  0  0  0
 25 26  1  0  0  0  0
 26 21  2  0  0  0  0
 26 23  1  0  0  0  0
 27 23  1  0  0  0  0
 28 24  1  0  0  0  0
M  END
>  <MODEL>
7

>  <REMARK>
 VINA RESULT:      -7.7      2.421      6.759
  Name = 
  2 active torsions:
  status: ('A' for Active; 'I' for Inactive)
    1  A    between atoms: C_1  and  C_2
    2  A    between atoms: N_10  and  C_13
                            x       y       z     vdW  Elec       q    Type
                         _______ _______ _______ _____ _____    ______ ____

>  <TORSDO>
F 2

$$$$
=
 OpenBabel11052418063D

 28 31  0  0  1  0  0  0  0  0999 V2000
  189.0370  176.7570  145.6730 C   0  0  0  0  0  0  0  0  0  0  0  0
  185.0400  177.8850  145.0190 O   0  0  0  0  0  1  0  0  0  0  0  0
  188.4900  175.5180  142.1950 N   0  0  2  0  0  0  0  0  0  0  0  0
  187.0210  176.6900  144.2880 C   0  0  0  0  0  0  0  0  0  0  0  0
  189.0220  175.3580  143.5510 C   0  0  0  0  0  2  0  0  0  0  0  0
  187.0190  177.9100  146.3840 C   0  0  0  0  0  3  0  0  0  0  0  0
  186.3160  176.2890  143.0170 C   0  0  0  0  0  2  0  0  0  0  0  0
  186.3590  177.4950  145.2270 C   0  0  0  0  0  0  0  0  0  0  0  0
  187.0660  175.1780  142.2820 C   0  0  0  0  0  2  0  0  0  0  0  0
  188.3460  177.5410  146.6060 C   0  0  0  0  0  3  0  0  0  0  0  0
  188.3690  176.3250  144.5050 C   0  0  0  0  0  0  0  0  0  0  0  0
  189.6980  173.3620  142.1030 C   0  0  0  0  0  2  0  0  0  0  0  0
  188.4930  172.6460  139.6990 C   0  0  0  0  0  2  0  0  0  0  0  0
  191.0380  172.6300  140.0220 C   0  0  0  0  0  0  0  0  0  0  0  0
  189.1620  174.5570  141.3050 C   0  0  1  0  0  3  0  0  0  0  0  0
  188.1910  174.9400  139.1390 F   0  0  0  0  0  0  0  0  0  0  0  0
  189.8600  172.5430  139.2060 N   0  0  0  0  0  2  0  0  0  0  0  0
  188.1940  174.0600  140.2060 C   0  0  1  0  0  3  0  0  0  0  0  0
  192.1610  172.5070  139.4680 O   0  0  0  0  0  0  0  0  0  0  0  0
  191.0080  172.8380  141.5160 C   0  0  0  0  0  2  0  0  0  0  0  0
  190.4410  176.3910  145.9550 C   0  0  0  0  0  0  0  0  0  0  0  0
  190.7130  175.4660  146.9730 C   0  0  0  0  0  3  0  0  0  0  0  0
  192.8290  176.5870  145.5310 C   0  0  0  0  0  0  0  0  0  0  0  0
  192.0280  175.0970  147.2630 C   0  0  0  0  0  3  0  0  0  0  0  0
  191.2780  177.9280  144.2630 O   0  0  0  0  0  1  0  0  0  0  0  0
  191.5120  176.9680  145.2420 C   0  0  0  0  0  0  0  0  0  0  0  0
  193.8640  177.1290  144.8440 F   0  0  0  0  0  0  0  0  0  0  0  0
  193.0850  175.6550  146.5390 C   0  0  0  0  0  3  0  0  0  0  0  0
  1 21  1  0  0  0  0
  1 10  1  0  0  0  0
  2  8  1  0  0  0  0
  3  9  1  1  0  0  0
  3  5  1  0  0  0  0
  4 11  1  0  0  0  0
  4  8  2  0  0  0  0
  5 11  1  0  0  0  0
  6 10  2  0  0  0  0
  7  4  1  0  0  0  0
  8  6  1  0  0  0  0
  9  7  1  0  0  0  0
 11  1  2  0  0  0  0
 13 18  1  0  0  0  0
 14 20  1  0  0  0  0
 15 12  1  1  0  0  0
 15  3  1  0  0  0  0
 17 13  1  0  0  0  0
 17 14  1  0  0  0  0
 18 16  1  6  0  0  0
 18 15  1  0  0  0  0
 19 14  2  0  0  0  0
 20 12  1  0  0  0  0
 21 22  1  0  0  0  0
 22 24  2  0  0  0  0
 23 28  2  0  0  0  0
 25 26  1  0  0  0  0
 26 23  1  0  0  0  0
 26 21  2  0  0  0  0
 27 23  1  0  0  0  0
 28 24  1  0  0  0  0
M  END
>  <MODEL>
8

>  <REMARK>
 VINA RESULT:      -7.7      3.079      5.201
  Name = 
  2 active torsions:
  status: ('A' for Active; 'I' for Inactive)
    1  A    between atoms: C_1  and  C_2
    2  A    between atoms: N_10  and  C_13
                            x       y       z     vdW  Elec       q    Type
                         _______ _______ _______ _____ _____    ______ ____

>  <TORSDO>
F 2

$$$$
=
 OpenBabel11052418063D

 28 31  0  0  1  0  0  0  0  0999 V2000
  187.8020  177.1610  145.1810 C   0  0  0  0  0  0  0  0  0  0  0  0
  184.6860  179.0480  143.0820 O   0  0  0  0  0  1  0  0  0  0  0  0
  188.4470  175.9750  141.7020 N   0  0  2  0  0  0  0  0  0  0  0  0
  186.5260  177.4660  143.1160 C   0  0  0  0  0  0  0  0  0  0  0  0
  188.3580  175.7450  143.1460 C   0  0  0  0  0  2  0  0  0  0  0  0
  185.9310  178.7090  145.1110 C   0  0  0  0  0  3  0  0  0  0  0  0
  186.3170  177.1830  141.6500 C   0  0  0  0  0  2  0  0  0  0  0  0
  185.7140  178.4080  143.7660 C   0  0  0  0  0  0  0  0  0  0  0  0
  187.0680  175.9280  141.2040 C   0  0  0  0  0  2  0  0  0  0  0  0
  186.9640  178.0890  145.8130 C   0  0  0  0  0  3  0  0  0  0  0  0
  187.5800  176.8440  143.8230 C   0  0  0  0  0  0  0  0  0  0  0  0
  189.7050  173.8970  142.1640 C   0  0  0  0  0  2  0  0  0  0  0  0
  188.7380  172.6530  139.8700 C   0  0  0  0  0  2  0  0  0  0  0  0
  191.2430  172.8070  140.4010 C   0  0  0  0  0  0  0  0  0  0  0  0
  189.2160  174.8790  141.0920 C   0  0  1  0  0  3  0  0  0  0  0  0
  188.4370  174.7690  138.8200 F   0  0  0  0  0  0  0  0  0  0  0  0
  190.1450  172.5050  139.5260 N   0  0  0  0  0  2  0  0  0  0  0  0
  188.3640  174.1280  140.0440 C   0  0  1  0  0  3  0  0  0  0  0  0
  192.4130  172.6170  139.9810 O   0  0  0  0  0  0  0  0  0  0  0  0
  191.0740  173.3160  141.8110 C   0  0  0  0  0  2  0  0  0  0  0  0
  188.8820  176.5300  145.9690 C   0  0  0  0  0  0  0  0  0  0  0  0
  188.5570  175.5160  146.8810 C   0  0  0  0  0  3  0  0  0  0  0  0
  191.2220  176.3070  146.5970 C   0  0  0  0  0  0  0  0  0  0  0  0
  189.5530  174.8970  147.6380 C   0  0  0  0  0  3  0  0  0  0  0  0
  190.5740  177.9770  144.9840 O   0  0  0  0  0  1  0  0  0  0  0  0
  190.2260  176.9380  145.8420 C   0  0  0  0  0  0  0  0  0  0  0  0
  192.5180  176.6880  146.4730 F   0  0  0  0  0  0  0  0  0  0  0  0
  190.8860  175.2910  147.4930 C   0  0  0  0  0  3  0  0  0  0  0  0
  1 10  1  0  0  0  0
  1 21  1  0  0  0  0
  2  8  1  0  0  0  0
  3  9  1  6  0  0  0
  3  5  1  0  0  0  0
  4  8  2  0  0  0  0
  4 11  1  0  0  0  0
  5 11  1  0  0  0  0
  6 10  2  0  0  0  0
  7  4  1  0  0  0  0
  8  6  1  0  0  0  0
  9  7  1  0  0  0  0
 11  1  2  0  0  0  0
 13 18  1  0  0  0  0
 14 20  1  0  0  0  0
 15  3  1  0  0  0  0
 15 12  1  1  0  0  0
 17 13  1  0  0  0  0
 17 14  1  0  0  0  0
 18 16  1  6  0  0  0
 18 15  1  0  0  0  0
 19 14  2  0  0  0  0
 20 12  1  0  0  0  0
 21 22  1  0  0  0  0
 22 24  2  0  0  0  0
 23 28  2  0  0  0  0
 25 26  1  0  0  0  0
 26 21  2  0  0  0  0
 26 23  1  0  0  0  0
 27 23  1  0  0  0  0
 28 24  1  0  0  0  0
M  END
>  <MODEL>
9

>  <REMARK>
 VINA RESULT:      -7.7      3.029      4.238
  Name = 
  2 active torsions:
  status: ('A' for Active; 'I' for Inactive)
    1  A    between atoms: C_1  and  C_2
    2  A    between atoms: N_10  and  C_13
                            x       y       z     vdW  Elec       q    Type
                         _______ _______ _______ _____ _____    ______ ____

>  <TORSDO>
F 2

$$$$
