=
 OpenBabel11052420133D

 37 41  0  0  1  0  0  0  0  0999 V2000
  189.3560  175.6760  144.8380 C   0  0  1  0  0  3  0  0  0  0  0  0
  186.0900  176.9240  144.8950 C   0  0  2  0  0  3  0  0  0  0  0  0
  186.0680  177.4120  146.2860 C   0  0  0  0  0  2  0  0  0  0  0  0
  187.9010  176.1480  146.7640 C   0  0  0  0  0  2  0  0  0  0  0  0
  187.4260  177.0820  145.6440 C   0  0  2  0  0  0  0  0  0  0  0  0
  187.9230  175.6510  145.3790 C   0  0  1  0  0  3  0  0  0  0  0  0
  185.8860  178.0430  143.8580 C   0  0  2  0  0  3  0  0  0  0  0  0
  184.7980  178.8740  144.1530 O   0  0  0  0  0  1  0  0  0  0  0  0
  186.6480  177.9250  141.6150 O   0  0  0  0  0  0  0  0  0  0  0  0
  185.6940  177.4350  142.4820 C   0  0  0  0  0  3  0  0  0  0  0  0
  185.4070  178.4300  141.5750 O   0  0  0  0  0  0  0  0  0  0  0  0
  189.7430  173.1980  145.4030 C   0  0  0  0  0  1  0  0  0  0  0  0
  190.2220  174.6420  145.5730 C   0  0  1  0  0  3  0  0  0  0  0  0
  191.6650  174.8480  145.3430 N   0  0  0  0  0  0  0  0  0  0  0  0
  191.8700  176.4660  147.0220 O   0  0  0  0  0  0  0  0  0  0  0  0
  192.3240  175.2010  146.6000 C   0  0  2  0  0  3  0  0  0  0  0  0
  193.1440  176.4230  146.4270 C   0  0  0  0  0  2  0  0  0  0  0  0
  192.3300  173.7250  144.6540 C   0  0  0  0  0  2  0  0  0  0  0  0
  192.9330  175.1170  142.8430 O   0  0  0  0  0  0  0  0  0  0  0  0
  193.2220  174.1430  143.5180 C   0  0  0  0  0  3  0  0  0  0  0  0
  189.4500  175.5190  143.3060 C   0  0  1  0  0  3  0  0  0  0  0  0
  188.2830  174.9980  142.7320 O   0  0  0  0  0  0  0  0  0  0  0  0
  187.4440  172.9800  142.0690 O   0  0  0  0  0  1  0  0  0  0  0  0
  188.6090  173.6900  142.3640 C   0  0  1  0  0  3  0  0  0  0  0  0
  188.7910  173.4090  139.8380 C   0  0  1  0  0  3  0  0  0  0  0  0
  190.4010  171.4890  139.4050 C   0  0  0  0  0  2  0  0  0  0  0  0
  190.6920  172.8610  141.3690 O   0  0  0  0  0  0  0  0  0  0  0  0
  189.6700  172.6950  138.7980 C   0  0  2  0  0  3  0  0  0  0  0  0
  189.5470  173.6780  141.1560 C   0  0  2  0  0  3  0  0  0  0  0  0
  190.4240  171.5480  140.9350 C   0  0  0  0  0  2  0  0  0  0  0  0
  188.2480  174.5900  139.3280 O   0  0  0  0  0  1  0  0  0  0  0  0
  190.2730  174.2580  136.9470 O   0  0  0  0  0  0  0  0  0  0  0  0
  191.7930  173.8060  138.6010 O   0  0  0  0  0  1  0  0  0  0  0  0
  190.6430  173.6140  138.1200 C   0  0  0  0  0  0  0  0  0  0  0  0
  189.8710  176.8200  142.6250 C   0  0  0  0  0  2  0  0  0  0  0  0
  190.1130  177.9410  143.6200 C   0  0  0  0  0  2  0  0  0  0  0  0
  191.5810  178.3080  143.6180 C   0  0  0  0  0  1  0  0  0  0  0  0
  1 21  1  6  0  0  0
  1 13  1  0  0  0  0
  2  7  1  6  0  0  0
  2  5  1  0  0  0  0
  2  3  1  0  0  0  0
  5  3  1  1  0  0  0
  5  4  1  0  0  0  0
  6  1  1  6  0  0  0
  6  5  1  0  0  0  0
  6  4  1  0  0  0  0
  7  8  1  1  0  0  0
  9 10  1  0  0  0  0
 10  7  1  0  0  0  0
 11  9  1  0  0  0  0
 11 10  1  0  0  0  0
 13 12  1  6  0  0  0
 14 13  1  0  0  0  0
 16 14  1  6  0  0  0
 16 15  1  0  0  0  0
 17 16  1  0  0  0  0
 17 15  1  0  0  0  0
 18 14  1  0  0  0  0
 19 20  2  0  0  0  0
 20 18  1  0  0  0  0
 21 35  1  6  0  0  0
 22 21  1  0  0  0  0
 24 23  1  6  0  0  0
 24 22  1  0  0  0  0
 25 31  1  6  0  0  0
 25 29  1  0  0  0  0
 26 30  1  0  0  0  0
 28 34  1  1  0  0  0
 28 26  1  0  0  0  0
 28 25  1  0  0  0  0
 29 27  1  0  0  0  0
 29 24  1  1  0  0  0
 30 27  1  0  0  0  0
 32 34  2  0  0  0  0
 34 33  1  0  0  0  0
 35 36  1  0  0  0  0
 37 36  1  0  0  0  0
M  END
>  <MODEL>
1

>  <REMARK>
 VINA RESULT:      -5.6      0.000      0.000
  Name = 
  15 active torsions:
  status: ('A' for Active; 'I' for Inactive)
    1  A    between atoms: C_1  and  C_5
    2  A    between atoms: C_5  and  C_26
    3  A    between atoms: C_8  and  C_19
    4  A    between atoms: N_9  and  C_13
    5  A    between atoms: N_9  and  C_16
    6  A    between atoms: N_9  and  C_30
    7  A    between atoms: O_10  and  C_29
    8  A    between atoms: O_10  and  C_37
    9  A    between atoms: C_13  and  C_20
   10  A    between atoms: C_14  and  C_37
   11  A    between atoms: C_16  and  C_24
   12  A    between atoms: C_20  and  C_25
   13  A    between atoms: C_20  and  C_29
   14  A    between atoms: C_27  and  C_33
   15  A    between atoms: C_29  and  C_33
                            x       y       z     vdW  Elec       q    Type
                         _______ _______ _______ _____ _____    ______ ____

>  <TORSDO>
F 15

$$$$
=
 OpenBabel11052420133D

 37 41  0  0  1  0  0  0  0  0999 V2000
  191.8010  174.9340  143.8920 C   0  0  1  0  0  3  0  0  0  0  0  0
  190.4360  174.0550  140.7950 C   0  0  2  0  0  3  0  0  0  0  0  0
  191.6760  173.6170  140.1270 C   0  0  0  0  0  2  0  0  0  0  0  0
  192.9130  174.6870  141.7120 C   0  0  0  0  0  2  0  0  0  0  0  0
  191.6810  173.7760  141.6570 C   0  0  2  0  0  0  0  0  0  0  0  0
  191.6780  175.1330  142.3780 C   0  0  1  0  0  3  0  0  0  0  0  0
  189.3910  172.9320  140.9280 C   0  0  2  0  0  3  0  0  0  0  0  0
  188.7170  172.6650  139.7290 O   0  0  0  0  0  1  0  0  0  0  0  0
  188.1960  172.2270  142.8510 O   0  0  0  0  0  0  0  0  0  0  0  0
  188.3830  173.2960  142.0010 C   0  0  0  0  0  3  0  0  0  0  0  0
  187.2850  172.4720  141.8980 O   0  0  0  0  0  0  0  0  0  0  0  0
  192.8140  176.6750  145.4900 C   0  0  0  0  0  1  0  0  0  0  0  0
  193.0740  175.6130  144.4180 C   0  0  1  0  0  3  0  0  0  0  0  0
  194.1350  174.6440  144.7500 N   0  0  0  0  0  0  0  0  0  0  0  0
  195.8540  176.0780  144.0680 O   0  0  0  0  0  0  0  0  0  0  0  0
  195.3460  175.3520  145.1630 C   0  0  2  0  0  3  0  0  0  0  0  0
  196.5130  174.8770  144.3840 C   0  0  0  0  0  2  0  0  0  0  0  0
  193.7250  173.6130  145.7250 C   0  0  0  0  0  2  0  0  0  0  0  0
  194.0990  171.9920  144.0470 O   0  0  0  0  0  0  0  0  0  0  0  0
  193.8790  172.2020  145.2280 C   0  0  0  0  0  3  0  0  0  0  0  0
  190.5500  175.3670  144.6840 C   0  0  1  0  0  3  0  0  0  0  0  0
  189.5910  176.0130  143.8920 O   0  0  0  0  0  0  0  0  0  0  0  0
  190.3480  178.1520  143.6300 O   0  0  0  0  0  1  0  0  0  0  0  0
  189.5260  177.3180  144.3890 C   0  0  1  0  0  3  0  0  0  0  0  0
  187.1200  176.9050  145.1180 C   0  0  1  0  0  3  0  0  0  0  0  0
  185.6940  176.8320  143.0140 C   0  0  0  0  0  2  0  0  0  0  0  0
  187.6710  178.2150  143.0600 O   0  0  0  0  0  0  0  0  0  0  0  0
  185.6950  176.9610  144.5440 C   0  0  2  0  0  3  0  0  0  0  0  0
  188.0890  177.8410  144.3670 C   0  0  2  0  0  3  0  0  0  0  0  0
  187.0770  177.1110  142.4180 C   0  0  0  0  0  2  0  0  0  0  0  0
  187.1320  177.1740  146.4890 O   0  0  0  0  0  1  0  0  0  0  0  0
  185.0570  179.3540  144.2310 O   0  0  0  0  0  0  0  0  0  0  0  0
  184.1950  178.1620  145.9880 O   0  0  0  0  0  1  0  0  0  0  0  0
  184.9360  178.1840  144.9690 C   0  0  0  0  0  0  0  0  0  0  0  0
  189.9360  174.2020  145.4600 C   0  0  0  0  0  2  0  0  0  0  0  0
  189.4340  174.6210  146.8290 C   0  0  0  0  0  2  0  0  0  0  0  0
  190.5710  175.2360  147.6160 C   0  0  0  0  0  1  0  0  0  0  0  0
  1 13  1  1  0  0  0
  1 21  1  0  0  0  0
  2  7  1  1  0  0  0
  2  5  1  0  0  0  0
  3  2  1  0  0  0  0
  4  6  1  0  0  0  0
  5  3  1  6  0  0  0
  5  4  1  0  0  0  0
  5  6  1  0  0  0  0
  6  1  1  1  0  0  0
  7  8  1  6  0  0  0
  7 10  1  0  0  0  0
 10  9  1  0  0  0  0
 11 10  1  0  0  0  0
 11  9  1  0  0  0  0
 13 14  1  0  0  0  0
 13 12  1  1  0  0  0
 14 18  1  0  0  0  0
 15 17  1  0  0  0  0
 15 16  1  0  0  0  0
 16 14  1  6  0  0  0
 17 16  1  0  0  0  0
 19 20  2  0  0  0  0
 20 18  1  0  0  0  0
 21 35  1  6  0  0  0
 22 24  1  0  0  0  0
 22 21  1  0  0  0  0
 24 23  1  6  0  0  0
 25 31  1  1  0  0  0
 26 28  1  0  0  0  0
 27 29  1  0  0  0  0
 28 34  1  6  0  0  0
 28 25  1  0  0  0  0
 29 24  1  6  0  0  0
 29 25  1  0  0  0  0
 30 26  1  0  0  0  0
 30 27  1  0  0  0  0
 32 34  2  0  0  0  0
 34 33  1  0  0  0  0
 35 36  1  0  0  0  0
 36 37  1  0  0  0  0
M  END
>  <MODEL>
2

>  <REMARK>
 VINA RESULT:      -5.5      2.006      6.159
  Name = 
  15 active torsions:
  status: ('A' for Active; 'I' for Inactive)
    1  A    between atoms: C_1  and  C_5
    2  A    between atoms: C_5  and  C_26
    3  A    between atoms: C_8  and  C_19
    4  A    between atoms: N_9  and  C_13
    5  A    between atoms: N_9  and  C_16
    6  A    between atoms: N_9  and  C_30
    7  A    between atoms: O_10  and  C_29
    8  A    between atoms: O_10  and  C_37
    9  A    between atoms: C_13  and  C_20
   10  A    between atoms: C_14  and  C_37
   11  A    between atoms: C_16  and  C_24
   12  A    between atoms: C_20  and  C_25
   13  A    between atoms: C_20  and  C_29
   14  A    between atoms: C_27  and  C_33
   15  A    between atoms: C_29  and  C_33
                            x       y       z     vdW  Elec       q    Type
                         _______ _______ _______ _____ _____    ______ ____

>  <TORSDO>
F 15

$$$$
=
 OpenBabel11052420133D

 37 41  0  0  1  0  0  0  0  0999 V2000
  192.0910  173.0930  143.7050 C   0  0  1  0  0  3  0  0  0  0  0  0
  195.1720  173.6230  145.2710 C   0  0  2  0  0  3  0  0  0  0  0  0
  195.6360  172.2240  145.3190 C   0  0  0  0  0  2  0  0  0  0  0  0
  193.5110  171.5020  144.9310 C   0  0  0  0  0  2  0  0  0  0  0  0
  194.4610  172.5790  144.3920 C   0  0  2  0  0  0  0  0  0  0  0  0
  193.0420  172.8960  144.8900 C   0  0  1  0  0  3  0  0  0  0  0  0
  196.0890  174.5370  144.4370 C   0  0  2  0  0  3  0  0  0  0  0  0
  197.4210  174.5230  144.8720 O   0  0  0  0  0  1  0  0  0  0  0  0
  195.1690  176.3460  143.2100 O   0  0  0  0  0  0  0  0  0  0  0  0
  195.5630  175.9590  144.4730 C   0  0  0  0  0  3  0  0  0  0  0  0
  196.3540  176.7620  143.6820 O   0  0  0  0  0  0  0  0  0  0  0  0
  189.9780  172.3250  144.9530 C   0  0  0  0  0  1  0  0  0  0  0  0
  190.9320  172.0880  143.7790 C   0  0  1  0  0  3  0  0  0  0  0  0
  190.2720  171.8900  142.4750 N   0  0  0  0  0  0  0  0  0  0  0  0
  191.8730  170.4180  141.6090 O   0  0  0  0  0  0  0  0  0  0  0  0
  190.5220  170.5320  141.9910 C   0  0  2  0  0  3  0  0  0  0  0  0
  190.9370  170.5600  140.5690 C   0  0  0  0  0  2  0  0  0  0  0  0
  188.8370  172.2360  142.4680 C   0  0  0  0  0  2  0  0  0  0  0  0
  188.8290  173.5210  140.4860 O   0  0  0  0  0  0  0  0  0  0  0  0
  188.5040  173.4590  141.6600 C   0  0  0  0  0  3  0  0  0  0  0  0
  191.5860  174.5410  143.5420 C   0  0  1  0  0  3  0  0  0  0  0  0
  192.1280  175.4250  144.4840 O   0  0  0  0  0  0  0  0  0  0  0  0
  191.4480  176.7270  146.2330 O   0  0  0  0  0  1  0  0  0  0  0  0
  191.0940  175.6710  145.3910 C   0  0  1  0  0  3  0  0  0  0  0  0
  189.6020  177.5190  144.4710 C   0  0  1  0  0  3  0  0  0  0  0  0
  187.3350  177.2930  145.6000 C   0  0  0  0  0  2  0  0  0  0  0  0
  188.6730  175.3210  145.2220 O   0  0  0  0  0  0  0  0  0  0  0  0
  188.1180  177.9210  144.4380 C   0  0  2  0  0  3  0  0  0  0  0  0
  189.7910  175.9990  144.6620 C   0  0  2  0  0  3  0  0  0  0  0  0
  188.0890  176.1170  146.2260 C   0  0  0  0  0  2  0  0  0  0  0  0
  190.2790  177.9640  143.3330 O   0  0  0  0  0  1  0  0  0  0  0  0
  186.7630  176.4190  142.9760 O   0  0  0  0  0  1  0  0  0  0  0  0
  187.5170  178.4240  142.1660 O   0  0  0  0  0  0  0  0  0  0  0  0
  187.4530  177.6140  143.1290 C   0  0  0  0  0  0  0  0  0  0  0  0
  191.7870  175.0560  142.1170 C   0  0  0  0  0  2  0  0  0  0  0  0
  192.8830  174.3070  141.3810 C   0  0  0  0  0  2  0  0  0  0  0  0
  192.3770  173.8830  140.0200 C   0  0  0  0  0  1  0  0  0  0  0  0
  1 21  1  1  0  0  0
  1 13  1  0  0  0  0
  2  7  1  6  0  0  0
  2  3  1  0  0  0  0
  5  6  1  0  0  0  0
  5  4  1  6  0  0  0
  5  2  1  0  0  0  0
  5  3  1  0  0  0  0
  6  1  1  6  0  0  0
  6  4  1  0  0  0  0
  7 10  1  0  0  0  0
  7  8  1  1  0  0  0
  9 11  1  0  0  0  0
  9 10  1  0  0  0  0
 11 10  1  0  0  0  0
 13 12  1  1  0  0  0
 14 13  1  0  0  0  0
 15 16  1  0  0  0  0
 16 14  1  1  0  0  0
 17 15  1  0  0  0  0
 17 16  1  0  0  0  0
 18 14  1  0  0  0  0
 19 20  2  0  0  0  0
 20 18  1  0  0  0  0
 21 35  1  6  0  0  0
 21 22  1  0  0  0  0
 22 24  1  0  0  0  0
 24 23  1  1  0  0  0
 25 31  1  6  0  0  0
 25 29  1  0  0  0  0
 26 30  1  0  0  0  0
 27 30  1  0  0  0  0
 28 34  1  6  0  0  0
 28 25  1  0  0  0  0
 28 26  1  0  0  0  0
 29 27  1  0  0  0  0
 29 24  1  1  0  0  0
 32 34  1  0  0  0  0
 33 34  2  0  0  0  0
 36 35  1  0  0  0  0
 37 36  1  0  0  0  0
M  END
>  <MODEL>
3

>  <REMARK>
 VINA RESULT:      -5.2      2.315      7.173
  Name = 
  15 active torsions:
  status: ('A' for Active; 'I' for Inactive)
    1  A    between atoms: C_1  and  C_5
    2  A    between atoms: C_5  and  C_26
    3  A    between atoms: C_8  and  C_19
    4  A    between atoms: N_9  and  C_13
    5  A    between atoms: N_9  and  C_16
    6  A    between atoms: N_9  and  C_30
    7  A    between atoms: O_10  and  C_29
    8  A    between atoms: O_10  and  C_37
    9  A    between atoms: C_13  and  C_20
   10  A    between atoms: C_14  and  C_37
   11  A    between atoms: C_16  and  C_24
   12  A    between atoms: C_20  and  C_25
   13  A    between atoms: C_20  and  C_29
   14  A    between atoms: C_27  and  C_33
   15  A    between atoms: C_29  and  C_33
                            x       y       z     vdW  Elec       q    Type
                         _______ _______ _______ _____ _____    ______ ____

>  <TORSDO>
F 15

$$$$
=
 OpenBabel11052420133D

 37 41  0  0  1  0  0  0  0  0999 V2000
  193.2900  175.0040  143.3920 C   0  0  1  0  0  3  0  0  0  0  0  0
  191.5620  173.9430  140.5430 C   0  0  2  0  0  3  0  0  0  0  0  0
  192.6790  173.2790  139.8460 C   0  0  0  0  0  2  0  0  0  0  0  0
  194.1670  174.3650  141.1840 C   0  0  0  0  0  2  0  0  0  0  0  0
  192.8390  173.6140  141.3380 C   0  0  2  0  0  0  0  0  0  0  0  0
  193.0560  175.0370  141.8780 C   0  0  1  0  0  3  0  0  0  0  0  0
  190.4120  172.9830  140.8960 C   0  0  2  0  0  3  0  0  0  0  0  0
  190.0690  172.1250  139.8420 O   0  0  0  0  0  1  0  0  0  0  0  0
  188.7920  173.4030  142.5760 O   0  0  0  0  0  0  0  0  0  0  0  0
  189.1900  173.7800  141.3110 C   0  0  0  0  0  3  0  0  0  0  0  0
  188.1300  172.9250  141.5120 O   0  0  0  0  0  0  0  0  0  0  0  0
  193.9980  176.9050  144.9720 C   0  0  0  0  0  1  0  0  0  0  0  0
  194.3770  176.0150  143.7850 C   0  0  1  0  0  3  0  0  0  0  0  0
  195.7150  175.4000  143.8750 N   0  0  0  0  0  0  0  0  0  0  0  0
  196.4070  176.8340  142.1590 O   0  0  0  0  0  0  0  0  0  0  0  0
  196.7340  176.3560  143.4430 C   0  0  2  0  0  3  0  0  0  0  0  0
  197.4220  175.8630  142.2280 C   0  0  0  0  0  2  0  0  0  0  0  0
  196.0190  174.8090  145.1930 C   0  0  0  0  0  2  0  0  0  0  0  0
  197.5940  173.1010  144.7620 O   0  0  0  0  0  0  0  0  0  0  0  0
  196.4650  173.3740  145.1360 C   0  0  0  0  0  3  0  0  0  0  0  0
  192.0070  175.1860  144.2270 C   0  0  1  0  0  3  0  0  0  0  0  0
  190.9750  175.8210  143.5240 O   0  0  0  0  0  0  0  0  0  0  0  0
  190.7130  177.8950  144.4460 O   0  0  0  0  0  1  0  0  0  0  0  0
  190.2840  176.5670  144.4830 C   0  0  1  0  0  3  0  0  0  0  0  0
  188.2540  177.7330  143.4780 C   0  0  1  0  0  3  0  0  0  0  0  0
  186.5810  178.0930  145.3590 C   0  0  0  0  0  2  0  0  0  0  0  0
  188.0560  176.1840  145.4320 O   0  0  0  0  0  0  0  0  0  0  0  0
  186.7980  178.0720  143.8380 C   0  0  2  0  0  3  0  0  0  0  0  0
  188.7740  176.5010  144.2460 C   0  0  2  0  0  3  0  0  0  0  0  0
  187.7060  177.3710  146.1050 C   0  0  0  0  0  2  0  0  0  0  0  0
  188.4160  177.5640  142.1010 O   0  0  0  0  0  1  0  0  0  0  0  0
  184.6530  177.7060  142.6150 O   0  0  0  0  0  0  0  0  0  0  0  0
  185.9940  175.9210  143.1290 O   0  0  0  0  0  1  0  0  0  0  0  0
  185.8020  177.1650  143.1770 C   0  0  0  0  0  0  0  0  0  0  0  0
  191.5330  173.8680  144.8380 C   0  0  0  0  0  2  0  0  0  0  0  0
  192.6180  172.8070  144.8330 C   0  0  0  0  0  2  0  0  0  0  0  0
  192.0810  171.5400  144.2030 C   0  0  0  0  0  1  0  0  0  0  0  0
  1 13  1  6  0  0  0
  1 21  1  0  0  0  0
  2  7  1  1  0  0  0
  2  5  1  0  0  0  0
  3  2  1  0  0  0  0
  4  5  1  0  0  0  0
  4  6  1  0  0  0  0
  5  3  1  6  0  0  0
  5  6  1  0  0  0  0
  6  1  1  1  0  0  0
  7  8  1  6  0  0  0
  7 10  1  0  0  0  0
 10 11  1  0  0  0  0
 10  9  1  0  0  0  0
 11  9  1  0  0  0  0
 13 14  1  0  0  0  0
 13 12  1  1  0  0  0
 14 18  1  0  0  0  0
 15 17  1  0  0  0  0
 15 16  1  0  0  0  0
 16 14  1  6  0  0  0
 17 16  1  0  0  0  0
 19 20  2  0  0  0  0
 20 18  1  0  0  0  0
 21 35  1  6  0  0  0
 22 21  1  0  0  0  0
 22 24  1  0  0  0  0
 24 23  1  6  0  0  0
 25 31  1  6  0  0  0
 25 28  1  0  0  0  0
 25 29  1  0  0  0  0
 26 30  1  0  0  0  0
 27 30  1  0  0  0  0
 28 34  1  6  0  0  0
 28 26  1  0  0  0  0
 29 24  1  1  0  0  0
 29 27  1  0  0  0  0
 32 34  2  0  0  0  0
 33 34  1  0  0  0  0
 36 35  1  0  0  0  0
 37 36  1  0  0  0  0
M  END
>  <MODEL>
4

>  <REMARK>
 VINA RESULT:      -5.2      2.472      6.412
  Name = 
  15 active torsions:
  status: ('A' for Active; 'I' for Inactive)
    1  A    between atoms: C_1  and  C_5
    2  A    between atoms: C_5  and  C_26
    3  A    between atoms: C_8  and  C_19
    4  A    between atoms: N_9  and  C_13
    5  A    between atoms: N_9  and  C_16
    6  A    between atoms: N_9  and  C_30
    7  A    between atoms: O_10  and  C_29
    8  A    between atoms: O_10  and  C_37
    9  A    between atoms: C_13  and  C_20
   10  A    between atoms: C_14  and  C_37
   11  A    between atoms: C_16  and  C_24
   12  A    between atoms: C_20  and  C_25
   13  A    between atoms: C_20  and  C_29
   14  A    between atoms: C_27  and  C_33
   15  A    between atoms: C_29  and  C_33
                            x       y       z     vdW  Elec       q    Type
                         _______ _______ _______ _____ _____    ______ ____

>  <TORSDO>
F 15

$$$$
=
 OpenBabel11052420133D

 37 41  0  0  1  0  0  0  0  0999 V2000
  191.8530  174.3810  143.2260 C   0  0  1  0  0  3  0  0  0  0  0  0
  190.1720  173.6330  140.2520 C   0  0  2  0  0  3  0  0  0  0  0  0
  191.2770  172.9650  139.5400 C   0  0  0  0  0  2  0  0  0  0  0  0
  192.7720  173.8660  141.0020 C   0  0  0  0  0  2  0  0  0  0  0  0
  191.4020  173.1770  141.0580 C   0  0  2  0  0  0  0  0  0  0  0  0
  191.6740  174.5410  141.7130 C   0  0  1  0  0  3  0  0  0  0  0  0
  188.9630  172.7120  140.4940 C   0  0  2  0  0  3  0  0  0  0  0  0
  188.1460  172.5690  139.3650 O   0  0  0  0  0  1  0  0  0  0  0  0
  188.2650  172.4190  142.7410 O   0  0  0  0  0  0  0  0  0  0  0  0
  188.1350  173.2470  141.6470 C   0  0  0  0  0  3  0  0  0  0  0  0
  187.1640  172.3300  141.9810 O   0  0  0  0  0  0  0  0  0  0  0  0
  193.4630  176.2930  143.8300 C   0  0  0  0  0  1  0  0  0  0  0  0
  193.2760  174.7850  143.6390 C   0  0  1  0  0  3  0  0  0  0  0  0
  193.8040  173.9520  144.7360 N   0  0  0  0  0  0  0  0  0  0  0  0
  193.2690  171.8590  143.8350 O   0  0  0  0  0  0  0  0  0  0  0  0
  194.3380  172.7000  144.1990 C   0  0  2  0  0  3  0  0  0  0  0  0
  193.9210  171.5570  145.0440 C   0  0  0  0  0  2  0  0  0  0  0  0
  194.7690  174.6480  145.6110 C   0  0  0  0  0  2  0  0  0  0  0  0
  196.9060  173.9170  146.3020 O   0  0  0  0  0  0  0  0  0  0  0  0
  196.2020  174.2660  145.3690 C   0  0  0  0  0  3  0  0  0  0  0  0
  190.7830  175.1090  144.0640 C   0  0  1  0  0  3  0  0  0  0  0  0
  189.7590  175.6690  143.2880 O   0  0  0  0  0  0  0  0  0  0  0  0
  189.9040  177.7630  144.1870 O   0  0  0  0  0  1  0  0  0  0  0  0
  189.1350  176.6000  144.1220 C   0  0  1  0  0  3  0  0  0  0  0  0
  187.7150  178.1940  142.7330 C   0  0  1  0  0  3  0  0  0  0  0  0
  185.9270  179.1480  144.2690 C   0  0  0  0  0  2  0  0  0  0  0  0
  186.7660  176.9200  144.6650 O   0  0  0  0  0  0  0  0  0  0  0  0
  186.3770  178.9470  142.8140 C   0  0  2  0  0  3  0  0  0  0  0  0
  187.7300  176.9310  143.6190 C   0  0  2  0  0  3  0  0  0  0  0  0
  186.6620  178.2070  145.2270 C   0  0  0  0  0  2  0  0  0  0  0  0
  188.0460  177.8780  141.4130 O   0  0  0  0  0  1  0  0  0  0  0  0
  184.3070  177.5600  142.6610 O   0  0  0  0  0  1  0  0  0  0  0  0
  185.2530  178.4140  140.7570 O   0  0  0  0  0  0  0  0  0  0  0  0
  185.2870  178.2990  142.0120 C   0  0  0  0  0  0  0  0  0  0  0  0
  190.2180  174.2150  145.1660 C   0  0  0  0  0  2  0  0  0  0  0  0
  190.4370  174.7950  146.5510 C   0  0  0  0  0  2  0  0  0  0  0  0
  189.1080  174.9130  147.2640 C   0  0  0  0  0  1  0  0  0  0  0  0
  1 13  1  1  0  0  0
  1 21  1  0  0  0  0
  2  7  1  1  0  0  0
  2  5  1  0  0  0  0
  3  2  1  0  0  0  0
  4  5  1  0  0  0  0
  4  6  1  0  0  0  0
  5  3  1  6  0  0  0
  5  6  1  0  0  0  0
  6  1  1  1  0  0  0
  7  8  1  6  0  0  0
  7 10  1  0  0  0  0
 10 11  1  0  0  0  0
 10  9  1  0  0  0  0
 11  9  1  0  0  0  0
 13 12  1  1  0  0  0
 13 14  1  0  0  0  0
 14 18  1  0  0  0  0
 15 16  1  0  0  0  0
 15 17  1  0  0  0  0
 16 14  1  1  0  0  0
 16 17  1  0  0  0  0
 20 18  1  0  0  0  0
 20 19  2  0  0  0  0
 21 35  1  1  0  0  0
 22 21  1  0  0  0  0
 22 24  1  0  0  0  0
 24 23  1  6  0  0  0
 25 31  1  6  0  0  0
 25 28  1  0  0  0  0
 25 29  1  0  0  0  0
 26 30  1  0  0  0  0
 27 30  1  0  0  0  0
 28 34  1  6  0  0  0
 28 26  1  0  0  0  0
 29 24  1  1  0  0  0
 29 27  1  0  0  0  0
 33 34  2  0  0  0  0
 34 32  1  0  0  0  0
 35 36  1  0  0  0  0
 36 37  1  0  0  0  0
M  END
>  <MODEL>
5

>  <REMARK>
 VINA RESULT:      -5.1      2.111      6.084
  Name = 
  15 active torsions:
  status: ('A' for Active; 'I' for Inactive)
    1  A    between atoms: C_1  and  C_5
    2  A    between atoms: C_5  and  C_26
    3  A    between atoms: C_8  and  C_19
    4  A    between atoms: N_9  and  C_13
    5  A    between atoms: N_9  and  C_16
    6  A    between atoms: N_9  and  C_30
    7  A    between atoms: O_10  and  C_29
    8  A    between atoms: O_10  and  C_37
    9  A    between atoms: C_13  and  C_20
   10  A    between atoms: C_14  and  C_37
   11  A    between atoms: C_16  and  C_24
   12  A    between atoms: C_20  and  C_25
   13  A    between atoms: C_20  and  C_29
   14  A    between atoms: C_27  and  C_33
   15  A    between atoms: C_29  and  C_33
                            x       y       z     vdW  Elec       q    Type
                         _______ _______ _______ _____ _____    ______ ____

>  <TORSDO>
F 15

$$$$
=
 OpenBabel11052420133D

 37 41  0  0  1  0  0  0  0  0999 V2000
  191.7110  175.2210  144.6110 C   0  0  1  0  0  3  0  0  0  0  0  0
  188.4130  176.2560  145.1380 C   0  0  2  0  0  3  0  0  0  0  0  0
  188.4710  176.4310  146.6010 C   0  0  0  0  0  2  0  0  0  0  0  0
  190.3790  175.1900  146.6790 C   0  0  0  0  0  2  0  0  0  0  0  0
  189.7910  176.3180  145.8210 C   0  0  2  0  0  0  0  0  0  0  0  0
  190.3220  175.0060  145.2190 C   0  0  1  0  0  3  0  0  0  0  0  0
  188.0950  177.5600  144.3840 C   0  0  2  0  0  3  0  0  0  0  0  0
  186.9720  178.2270  144.8910 O   0  0  0  0  0  1  0  0  0  0  0  0
  188.7450  178.0110  142.1490 O   0  0  0  0  0  0  0  0  0  0  0  0
  187.8780  177.2610  142.9130 C   0  0  0  0  0  3  0  0  0  0  0  0
  187.4680  178.4040  142.2660 O   0  0  0  0  0  0  0  0  0  0  0  0
  192.6800  172.8750  145.0210 C   0  0  0  0  0  1  0  0  0  0  0  0
  192.7540  174.3690  145.3490 C   0  0  1  0  0  3  0  0  0  0  0  0
  194.1080  174.9510  145.2840 N   0  0  0  0  0  0  0  0  0  0  0  0
  193.3720  176.7600  146.5740 O   0  0  0  0  0  0  0  0  0  0  0  0
  194.3600  175.7610  146.4750 C   0  0  2  0  0  3  0  0  0  0  0  0
  194.6300  177.1670  146.0950 C   0  0  0  0  0  2  0  0  0  0  0  0
  195.1770  173.9630  145.0370 C   0  0  0  0  0  2  0  0  0  0  0  0
  197.3480  174.7430  144.5280 O   0  0  0  0  0  0  0  0  0  0  0  0
  196.2480  174.4390  144.0960 C   0  0  0  0  0  3  0  0  0  0  0  0
  191.7670  175.0030  143.0850 C   0  0  1  0  0  3  0  0  0  0  0  0
  190.5000  174.9370  142.4900 O   0  0  0  0  0  0  0  0  0  0  0  0
  189.4170  172.9260  142.5030 O   0  0  0  0  0  1  0  0  0  0  0  0
  190.4370  173.6690  141.9050 C   0  0  1  0  0  3  0  0  0  0  0  0
  188.6910  173.7410  140.0510 C   0  0  1  0  0  3  0  0  0  0  0  0
  189.1810  171.8060  138.4760 C   0  0  0  0  0  2  0  0  0  0  0  0
  191.0000  172.8610  139.6600 O   0  0  0  0  0  0  0  0  0  0  0  0
  188.4270  173.1300  138.6660 C   0  0  2  0  0  3  0  0  0  0  0  0
  190.1940  173.7710  140.3990 C   0  0  2  0  0  3  0  0  0  0  0  0
  190.3120  171.6440  139.4960 C   0  0  0  0  0  2  0  0  0  0  0  0
  188.1300  175.0150  140.1660 O   0  0  0  0  0  1  0  0  0  0  0  0
  187.7610  174.9800  137.1270 O   0  0  0  0  0  1  0  0  0  0  0  0
  189.8480  174.0500  136.9600 O   0  0  0  0  0  0  0  0  0  0  0  0
  188.7290  174.0730  137.5390 C   0  0  0  0  0  0  0  0  0  0  0  0
  192.6510  176.0400  142.3940 C   0  0  0  0  0  2  0  0  0  0  0  0
  193.7100  175.4020  141.5140 C   0  0  0  0  0  2  0  0  0  0  0  0
  194.8040  176.4080  141.2320 C   0  0  0  0  0  1  0  0  0  0  0  0
  1 21  1  6  0  0  0
  1 13  1  0  0  0  0
  2  7  1  6  0  0  0
  2  5  1  0  0  0  0
  2  3  1  0  0  0  0
  5  3  1  1  0  0  0
  5  4  1  0  0  0  0
  6  1  1  6  0  0  0
  6  5  1  0  0  0  0
  6  4  1  0  0  0  0
  7  8  1  1  0  0  0
  9 11  1  0  0  0  0
  9 10  1  0  0  0  0
 10  7  1  0  0  0  0
 11 10  1  0  0  0  0
 13 12  1  6  0  0  0
 14 13  1  0  0  0  0
 16 14  1  6  0  0  0
 16 15  1  0  0  0  0
 17 16  1  0  0  0  0
 17 15  1  0  0  0  0
 18 14  1  0  0  0  0
 20 19  2  0  0  0  0
 20 18  1  0  0  0  0
 21 35  1  6  0  0  0
 22 21  1  0  0  0  0
 24 22  1  0  0  0  0
 24 23  1  1  0  0  0
 25 31  1  6  0  0  0
 25 29  1  0  0  0  0
 26 28  1  0  0  0  0
 26 30  1  0  0  0  0
 27 29  1  0  0  0  0
 28 34  1  6  0  0  0
 28 25  1  0  0  0  0
 29 24  1  1  0  0  0
 30 27  1  0  0  0  0
 32 34  1  0  0  0  0
 33 34  2  0  0  0  0
 36 35  1  0  0  0  0
 37 36  1  0  0  0  0
M  END
>  <MODEL>
6

>  <REMARK>
 VINA RESULT:      -5.1      1.890      2.516
  Name = 
  15 active torsions:
  status: ('A' for Active; 'I' for Inactive)
    1  A    between atoms: C_1  and  C_5
    2  A    between atoms: C_5  and  C_26
    3  A    between atoms: C_8  and  C_19
    4  A    between atoms: N_9  and  C_13
    5  A    between atoms: N_9  and  C_16
    6  A    between atoms: N_9  and  C_30
    7  A    between atoms: O_10  and  C_29
    8  A    between atoms: O_10  and  C_37
    9  A    between atoms: C_13  and  C_20
   10  A    between atoms: C_14  and  C_37
   11  A    between atoms: C_16  and  C_24
   12  A    between atoms: C_20  and  C_25
   13  A    between atoms: C_20  and  C_29
   14  A    between atoms: C_27  and  C_33
   15  A    between atoms: C_29  and  C_33
                            x       y       z     vdW  Elec       q    Type
                         _______ _______ _______ _____ _____    ______ ____

>  <TORSDO>
F 15

$$$$
=
 OpenBabel11052420133D

 37 41  0  0  1  0  0  0  0  0999 V2000
  192.3420  174.9890  144.4340 C   0  0  1  0  0  3  0  0  0  0  0  0
  190.1460  175.8660  147.0090 C   0  0  2  0  0  3  0  0  0  0  0  0
  191.1420  176.2770  148.0150 C   0  0  0  0  0  2  0  0  0  0  0  0
  192.7730  175.1990  146.8470 C   0  0  0  0  0  2  0  0  0  0  0  0
  191.5910  176.1310  146.5520 C   0  0  2  0  0  0  0  0  0  0  0  0
  191.7800  174.7800  145.8440 C   0  0  1  0  0  3  0  0  0  0  0  0
  189.2010  177.0080  146.5920 C   0  0  2  0  0  3  0  0  0  0  0  0
  188.9290  177.9050  147.6340 O   0  0  0  0  0  1  0  0  0  0  0  0
  187.8840  176.4640  144.6970 O   0  0  0  0  0  0  0  0  0  0  0  0
  187.8980  176.4310  146.0740 C   0  0  0  0  0  3  0  0  0  0  0  0
  187.2090  177.3990  145.3800 O   0  0  0  0  0  0  0  0  0  0  0  0
  193.4000  172.6540  144.2380 C   0  0  0  0  0  1  0  0  0  0  0  0
  193.6260  174.1680  144.2450 C   0  0  1  0  0  3  0  0  0  0  0  0
  194.4630  174.6750  143.1400 N   0  0  0  0  0  0  0  0  0  0  0  0
  195.7300  175.8370  144.7290 O   0  0  0  0  0  0  0  0  0  0  0  0
  195.8120  174.9620  143.6280 C   0  0  2  0  0  3  0  0  0  0  0  0
  196.1090  176.4070  143.5010 C   0  0  0  0  0  2  0  0  0  0  0  0
  194.4680  173.8100  141.9430 C   0  0  0  0  0  2  0  0  0  0  0  0
  194.4740  174.0890  139.5970 O   0  0  0  0  0  0  0  0  0  0  0  0
  194.0890  174.5180  140.6730 C   0  0  0  0  0  3  0  0  0  0  0  0
  191.3210  174.7270  143.3080 C   0  0  1  0  0  3  0  0  0  0  0  0
  190.2260  173.9570  143.7230 O   0  0  0  0  0  0  0  0  0  0  0  0
  189.2630  171.9230  143.3340 O   0  0  0  0  0  1  0  0  0  0  0  0
  190.2760  172.8000  142.9410 C   0  0  1  0  0  3  0  0  0  0  0  0
  188.6600  173.0470  140.9860 C   0  0  1  0  0  3  0  0  0  0  0  0
  189.4290  171.4500  139.1630 C   0  0  0  0  0  2  0  0  0  0  0  0
  191.0600  172.4300  140.6480 O   0  0  0  0  0  0  0  0  0  0  0  0
  188.5460  172.6600  139.5030 C   0  0  2  0  0  3  0  0  0  0  0  0
  190.1270  173.1360  141.4560 C   0  0  2  0  0  3  0  0  0  0  0  0
  190.4980  171.2070  140.2320 C   0  0  0  0  0  2  0  0  0  0  0  0
  187.9790  174.2360  141.2600 O   0  0  0  0  0  1  0  0  0  0  0  0
  187.8190  174.6790  138.2290 O   0  0  0  0  0  1  0  0  0  0  0  0
  189.9920  173.9680  138.0980 O   0  0  0  0  0  0  0  0  0  0  0  0
  188.8370  173.8010  138.5730 C   0  0  0  0  0  0  0  0  0  0  0  0
  190.8670  176.0230  142.6390 C   0  0  0  0  0  2  0  0  0  0  0  0
  191.7000  177.2170  143.0670 C   0  0  0  0  0  2  0  0  0  0  0  0
  190.7900  178.2960  143.6120 C   0  0  0  0  0  1  0  0  0  0  0  0
  1 21  1  6  0  0  0
  2  7  1  6  0  0  0
  2  3  1  0  0  0  0
  5  4  1  6  0  0  0
  5  2  1  0  0  0  0
  5  3  1  0  0  0  0
  6  1  1  6  0  0  0
  6  5  1  0  0  0  0
  6  4  1  0  0  0  0
  7  8  1  1  0  0  0
  9 11  1  0  0  0  0
  9 10  1  0  0  0  0
 10  7  1  0  0  0  0
 11 10  1  0  0  0  0
 13 12  1  6  0  0  0
 13  1  1  0  0  0  0
 14 13  1  0  0  0  0
 16 14  1  6  0  0  0
 16 15  1  0  0  0  0
 17 16  1  0  0  0  0
 17 15  1  0  0  0  0
 18 14  1  0  0  0  0
 19 20  2  0  0  0  0
 20 18  1  0  0  0  0
 21 35  1  1  0  0  0
 21 22  1  0  0  0  0
 24 23  1  1  0  0  0
 24 22  1  0  0  0  0
 25 31  1  6  0  0  0
 25 29  1  0  0  0  0
 26 28  1  0  0  0  0
 26 30  1  0  0  0  0
 27 29  1  0  0  0  0
 28 34  1  6  0  0  0
 28 25  1  0  0  0  0
 29 24  1  1  0  0  0
 30 27  1  0  0  0  0
 32 34  1  0  0  0  0
 33 34  2  0  0  0  0
 35 36  1  0  0  0  0
 36 37  1  0  0  0  0
M  END
>  <MODEL>
7

>  <REMARK>
 VINA RESULT:      -5.0      2.099      3.318
  Name = 
  15 active torsions:
  status: ('A' for Active; 'I' for Inactive)
    1  A    between atoms: C_1  and  C_5
    2  A    between atoms: C_5  and  C_26
    3  A    between atoms: C_8  and  C_19
    4  A    between atoms: N_9  and  C_13
    5  A    between atoms: N_9  and  C_16
    6  A    between atoms: N_9  and  C_30
    7  A    between atoms: O_10  and  C_29
    8  A    between atoms: O_10  and  C_37
    9  A    between atoms: C_13  and  C_20
   10  A    between atoms: C_14  and  C_37
   11  A    between atoms: C_16  and  C_24
   12  A    between atoms: C_20  and  C_25
   13  A    between atoms: C_20  and  C_29
   14  A    between atoms: C_27  and  C_33
   15  A    between atoms: C_29  and  C_33
                            x       y       z     vdW  Elec       q    Type
                         _______ _______ _______ _____ _____    ______ ____

>  <TORSDO>
F 15

$$$$
=
 OpenBabel11052420133D

 37 41  0  0  1  0  0  0  0  0999 V2000
  191.5330  173.3740  142.9130 C   0  0  1  0  0  3  0  0  0  0  0  0
  193.4350  173.7990  145.8160 C   0  0  2  0  0  3  0  0  0  0  0  0
  194.1760  172.5250  145.7790 C   0  0  0  0  0  2  0  0  0  0  0  0
  192.6670  171.6840  144.2960 C   0  0  0  0  0  2  0  0  0  0  0  0
  193.4460  172.9880  144.5070 C   0  0  2  0  0  0  0  0  0  0  0  0
  191.9190  172.9520  144.3340 C   0  0  1  0  0  3  0  0  0  0  0  0
  194.3500  175.0340  145.7250 C   0  0  2  0  0  3  0  0  0  0  0  0
  195.5700  174.8640  146.3940 O   0  0  0  0  0  1  0  0  0  0  0  0
  193.6460  177.2700  145.3680 O   0  0  0  0  0  0  0  0  0  0  0  0
  193.6330  176.2450  146.2890 C   0  0  0  0  0  3  0  0  0  0  0  0
  194.5140  177.2970  146.3900 O   0  0  0  0  0  0  0  0  0  0  0  0
  189.1860  172.3370  143.0810 C   0  0  0  0  0  1  0  0  0  0  0  0
  190.5150  172.3870  142.3220 C   0  0  1  0  0  3  0  0  0  0  0  0
  190.3870  172.5170  140.8580 N   0  0  0  0  0  0  0  0  0  0  0  0
  192.0130  170.8380  140.7320 O   0  0  0  0  0  0  0  0  0  0  0  0
  190.7760  171.2640  140.2110 C   0  0  2  0  0  3  0  0  0  0  0  0
  192.0420  171.4410  139.4620 C   0  0  0  0  0  2  0  0  0  0  0  0
  189.0650  172.9970  140.4090 C   0  0  0  0  0  2  0  0  0  0  0  0
  188.1680  174.5680  138.8900 O   0  0  0  0  0  0  0  0  0  0  0  0
  189.1080  173.8410  139.1660 C   0  0  0  0  0  3  0  0  0  0  0  0
  191.0490  174.8340  142.8030 C   0  0  1  0  0  3  0  0  0  0  0  0
  190.2880  175.2480  143.9050 O   0  0  0  0  0  0  0  0  0  0  0  0
  189.0420  175.8760  142.0960 O   0  0  0  0  0  1  0  0  0  0  0  0
  189.4100  176.2110  143.4000 C   0  0  1  0  0  3  0  0  0  0  0  0
  187.6050  177.7700  144.2970 C   0  0  1  0  0  3  0  0  0  0  0  0
  187.7380  177.7000  146.8350 C   0  0  0  0  0  2  0  0  0  0  0  0
  188.3490  175.7440  145.5610 O   0  0  0  0  0  0  0  0  0  0  0  0
  186.8920  178.1010  145.6180 C   0  0  2  0  0  3  0  0  0  0  0  0
  188.1640  176.3320  144.2790 C   0  0  2  0  0  3  0  0  0  0  0  0
  188.8440  176.7100  146.4590 C   0  0  0  0  0  2  0  0  0  0  0  0
  186.7740  177.9920  143.1960 O   0  0  0  0  0  1  0  0  0  0  0  0
  185.3140  176.3840  146.5100 O   0  0  0  0  0  1  0  0  0  0  0  0
  184.5520  177.9990  145.0750 O   0  0  0  0  0  0  0  0  0  0  0  0
  185.5190  177.5020  145.7120 C   0  0  0  0  0  0  0  0  0  0  0  0
  192.2040  175.7970  142.5330 C   0  0  0  0  0  2  0  0  0  0  0  0
  193.1800  175.2560  141.5060 C   0  0  0  0  0  2  0  0  0  0  0  0
  194.5190  175.9410  141.6720 C   0  0  0  0  0  1  0  0  0  0  0  0
  1 13  1  1  0  0  0
  2  7  1  6  0  0  0
  3  2  1  0  0  0  0
  4  6  1  0  0  0  0
  5  4  1  6  0  0  0
  5  3  1  0  0  0  0
  5  2  1  0  0  0  0
  6  1  1  6  0  0  0
  6  5  1  0  0  0  0
  7 10  1  0  0  0  0
  7  8  1  1  0  0  0
  9 10  1  0  0  0  0
  9 11  1  0  0  0  0
 10 11  1  0  0  0  0
 13 12  1  1  0  0  0
 14 13  1  0  0  0  0
 16 15  1  0  0  0  0
 16 14  1  1  0  0  0
 17 16  1  0  0  0  0
 17 15  1  0  0  0  0
 18 14  1  0  0  0  0
 19 20  2  0  0  0  0
 20 18  1  0  0  0  0
 21 35  1  1  0  0  0
 21  1  1  0  0  0  0
 21 22  1  0  0  0  0
 24 23  1  6  0  0  0
 24 22  1  0  0  0  0
 25 31  1  6  0  0  0
 25 28  1  0  0  0  0
 27 30  1  0  0  0  0
 28 34  1  6  0  0  0
 28 26  1  0  0  0  0
 29 24  1  1  0  0  0
 29 25  1  0  0  0  0
 29 27  1  0  0  0  0
 30 26  1  0  0  0  0
 33 34  2  0  0  0  0
 34 32  1  0  0  0  0
 36 37  1  0  0  0  0
 36 35  1  0  0  0  0
M  END
>  <MODEL>
8

>  <REMARK>
 VINA RESULT:      -5.0      2.092      7.151
  Name = 
  15 active torsions:
  status: ('A' for Active; 'I' for Inactive)
    1  A    between atoms: C_1  and  C_5
    2  A    between atoms: C_5  and  C_26
    3  A    between atoms: C_8  and  C_19
    4  A    between atoms: N_9  and  C_13
    5  A    between atoms: N_9  and  C_16
    6  A    between atoms: N_9  and  C_30
    7  A    between atoms: O_10  and  C_29
    8  A    between atoms: O_10  and  C_37
    9  A    between atoms: C_13  and  C_20
   10  A    between atoms: C_14  and  C_37
   11  A    between atoms: C_16  and  C_24
   12  A    between atoms: C_20  and  C_25
   13  A    between atoms: C_20  and  C_29
   14  A    between atoms: C_27  and  C_33
   15  A    between atoms: C_29  and  C_33
                            x       y       z     vdW  Elec       q    Type
                         _______ _______ _______ _____ _____    ______ ____

>  <TORSDO>
F 15

$$$$
=
 OpenBabel11052420133D

 37 41  0  0  1  0  0  0  0  0999 V2000
  190.8910  174.7700  142.3520 C   0  0  1  0  0  3  0  0  0  0  0  0
  194.2660  175.0710  143.2160 C   0  0  2  0  0  3  0  0  0  0  0  0
  194.8110  175.3450  141.8740 C   0  0  0  0  0  2  0  0  0  0  0  0
  192.8890  174.5700  140.9300 C   0  0  0  0  0  2  0  0  0  0  0  0
  193.2950  175.4820  142.0940 C   0  0  2  0  0  0  0  0  0  0  0  0
  192.3430  174.2880  142.2680 C   0  0  1  0  0  3  0  0  0  0  0  0
  194.5020  176.2220  144.2110 C   0  0  2  0  0  3  0  0  0  0  0  0
  195.7830  176.7800  144.1120 O   0  0  0  0  0  1  0  0  0  0  0  0
  193.2930  176.4760  146.2350 O   0  0  0  0  0  0  0  0  0  0  0  0
  194.2780  175.7280  145.6270 C   0  0  0  0  0  3  0  0  0  0  0  0
  194.5780  176.7330  146.5180 O   0  0  0  0  0  0  0  0  0  0  0  0
  188.6600  174.0650  141.2880 C   0  0  0  0  0  1  0  0  0  0  0  0
  189.9280  173.6210  142.0220 C   0  0  1  0  0  3  0  0  0  0  0  0
  190.6160  172.4610  141.4250 N   0  0  0  0  0  0  0  0  0  0  0  0
  190.4810  171.5410  143.5730 O   0  0  0  0  0  0  0  0  0  0  0  0
  190.3270  171.2560  142.2020 C   0  0  2  0  0  3  0  0  0  0  0  0
  191.5270  170.8300  142.9580 C   0  0  0  0  0  2  0  0  0  0  0  0
  190.3500  172.2800  139.9840 C   0  0  0  0  0  2  0  0  0  0  0  0
  191.9840  172.0680  138.2900 O   0  0  0  0  0  0  0  0  0  0  0  0
  191.4350  171.5450  139.2470 C   0  0  0  0  0  3  0  0  0  0  0  0
  190.5350  175.4530  143.6880 C   0  0  1  0  0  3  0  0  0  0  0  0
  189.2170  175.9260  143.7330 O   0  0  0  0  0  0  0  0  0  0  0  0
  189.9720  177.8040  142.6740 O   0  0  0  0  0  1  0  0  0  0  0  0
  189.3310  177.3170  143.8140 C   0  0  1  0  0  3  0  0  0  0  0  0
  187.0010  177.1250  144.8270 C   0  0  1  0  0  3  0  0  0  0  0  0
  185.3350  177.1960  142.9070 C   0  0  0  0  0  2  0  0  0  0  0  0
  187.4230  178.3900  142.7100 O   0  0  0  0  0  0  0  0  0  0  0  0
  185.5290  177.3160  144.4250 C   0  0  2  0  0  3  0  0  0  0  0  0
  187.9570  177.9720  143.9600 C   0  0  2  0  0  3  0  0  0  0  0  0
  186.6570  177.3490  142.1500 C   0  0  0  0  0  2  0  0  0  0  0  0
  187.2010  177.3850  146.1840 O   0  0  0  0  0  1  0  0  0  0  0  0
  184.1100  178.5840  146.0410 O   0  0  0  0  0  1  0  0  0  0  0  0
  185.1950  179.6950  144.3570 O   0  0  0  0  0  0  0  0  0  0  0  0
  184.9430  178.6020  144.9300 C   0  0  0  0  0  0  0  0  0  0  0  0
  190.8440  174.5560  144.8860 C   0  0  0  0  0  2  0  0  0  0  0  0
  189.6150  174.2750  145.7300 C   0  0  0  0  0  2  0  0  0  0  0  0
  189.7810  174.9160  147.0900 C   0  0  0  0  0  1  0  0  0  0  0  0
  1 13  1  1  0  0  0
  1 21  1  0  0  0  0
  2  7  1  1  0  0  0
  3  5  1  0  0  0  0
  3  2  1  0  0  0  0
  4  6  1  0  0  0  0
  5  4  1  1  0  0  0
  5  6  1  0  0  0  0
  5  2  1  0  0  0  0
  6  1  1  6  0  0  0
  7  8  1  1  0  0  0
  7 10  1  0  0  0  0
  9 11  1  0  0  0  0
 10  9  1  0  0  0  0
 10 11  1  0  0  0  0
 13 12  1  6  0  0  0
 14 13  1  0  0  0  0
 16 14  1  6  0  0  0
 16 17  1  0  0  0  0
 16 15  1  0  0  0  0
 17 15  1  0  0  0  0
 18 14  1  0  0  0  0
 19 20  2  0  0  0  0
 20 18  1  0  0  0  0
 21 22  1  0  0  0  0
 21 35  1  1  0  0  0
 22 24  1  0  0  0  0
 24 23  1  6  0  0  0
 25 31  1  1  0  0  0
 26 28  1  0  0  0  0
 27 29  1  0  0  0  0
 28 25  1  0  0  0  0
 28 34  1  6  0  0  0
 29 24  1  6  0  0  0
 29 25  1  0  0  0  0
 30 27  1  0  0  0  0
 30 26  1  0  0  0  0
 33 34  2  0  0  0  0
 34 32  1  0  0  0  0
 35 36  1  0  0  0  0
 36 37  1  0  0  0  0
M  END
>  <MODEL>
9

>  <REMARK>
 VINA RESULT:      -4.9      2.073      7.124
  Name = 
  15 active torsions:
  status: ('A' for Active; 'I' for Inactive)
    1  A    between atoms: C_1  and  C_5
    2  A    between atoms: C_5  and  C_26
    3  A    between atoms: C_8  and  C_19
    4  A    between atoms: N_9  and  C_13
    5  A    between atoms: N_9  and  C_16
    6  A    between atoms: N_9  and  C_30
    7  A    between atoms: O_10  and  C_29
    8  A    between atoms: O_10  and  C_37
    9  A    between atoms: C_13  and  C_20
   10  A    between atoms: C_14  and  C_37
   11  A    between atoms: C_16  and  C_24
   12  A    between atoms: C_20  and  C_25
   13  A    between atoms: C_20  and  C_29
   14  A    between atoms: C_27  and  C_33
   15  A    between atoms: C_29  and  C_33
                            x       y       z     vdW  Elec       q    Type
                         _______ _______ _______ _____ _____    ______ ____

>  <TORSDO>
F 15

$$$$
